AV-unprocessed.smi:1762|AV-procd|sdf|7120|dock2
  -GOLD-   22720 8353D 1   1.00000     0.00000
 Structure written by MMmdl.
 52 53  0  0  0  0  0  0  0  0  3 V2000
  145.0878  137.6298  155.7622 C   0  0  0  0  0  0  0  0  0  0  0  0
  146.4538  138.2603  155.4711 C   0  0  1  0  0  0  0  0  0  0  0  0
  147.2473  137.4606  154.4184 C   0  0  0  0  0  0  0  0  0  0  0  0
  148.5500  138.1145  154.1172 N   0  3  2  0  0  0  0  0  0  0  0  0
  149.6312  137.9810  155.1590 C   0  0  2  0  0  0  0  0  0  0  0  0
  150.5482  139.2289  155.2213 C   0  0  0  0  0  0  0  0  0  0  0  0
  151.4555  139.3194  154.3877 O   0  0  0  0  0  0  0  0  0  0  0  0
  150.2120  140.0666  156.2442 N   0  5  0  0  0  0  0  0  0  0  0  0
  151.0005  141.2326  156.6392 C   0  0  0  0  0  0  0  0  0  0  0  0
  151.2070  141.2480  158.1717 C   0  0  0  0  0  0  0  0  0  0  0  0
  151.4504  142.6353  158.7569 C   0  0  0  0  0  0  0  0  0  0  0  0
  152.4241  142.8302  159.7631 C   0  0  0  0  0  0  0  0  0  0  0  0
  152.6250  144.1301  160.2655 C   0  0  0  0  0  0  0  0  0  0  0  0
  151.8531  145.1857  159.7447 C   0  0  0  0  0  0  0  0  0  0  0  0
  150.9106  144.8933  158.7391 C   0  0  0  0  0  0  0  0  0  0  0  0
  150.7109  143.6513  158.2487 N   0  0  0  0  0  0  0  0  0  0  0  0
  150.4572  136.6505  155.0867 C   0  0  0  0  0  0  0  0  0  0  0  0
  149.5705  135.3984  154.9386 C   0  0  0  0  0  0  0  0  0  0  0  0
  151.4641  136.4508  156.2385 C   0  0  0  0  0  0  0  0  0  0  0  0
  148.2774  139.5123  153.6741 C   0  0  0  0  0  0  0  0  0  0  0  0
  147.4408  140.2862  154.7161 C   0  0  1  0  0  0  0  0  0  0  0  0
  147.0686  141.6890  154.2240 C   0  0  0  0  0  0  0  0  0  0  0  0
  146.2335  139.5760  154.9733 O   0  0  0  0  0  0  0  0  0  0  0  0
  145.1977  136.6173  156.1512 H   0  0  0  0  0  0  0  0  0  0  0  0
  144.4764  137.5778  154.8608 H   0  0  0  0  0  0  0  0  0  0  0  0
  144.5397  138.2120  156.5034 H   0  0  0  0  0  0  0  0  0  0  0  0
  147.0132  138.3146  156.4063 H   0  0  0  0  0  0  0  0  0  0  0  0
  147.3577  136.4191  154.7116 H   0  0  0  0  0  0  0  0  0  0  0  0
  146.6713  137.4256  153.4923 H   0  0  0  0  0  0  0  0  0  0  0  0
  149.1221  137.9466  156.1219 H   0  0  0  0  0  0  0  0  0  0  0  0
  151.9705  141.2594  156.1407 H   0  0  0  0  0  0  0  0  0  0  0  0
  150.4974  142.1538  156.3445 H   0  0  0  0  0  0  0  0  0  0  0  0
  150.3358  140.8135  158.6644 H   0  0  0  0  0  0  0  0  0  0  0  0
  152.0507  140.6097  158.4390 H   0  0  0  0  0  0  0  0  0  0  0  0
  153.0016  142.0008  160.1439 H   0  0  0  0  0  0  0  0  0  0  0  0
  153.3587  144.3142  161.0364 H   0  0  0  0  0  0  0  0  0  0  0  0
  151.9802  146.1951  160.1068 H   0  0  0  0  0  0  0  0  0  0  0  0
  150.3017  145.6782  158.3159 H   0  0  0  0  0  0  0  0  0  0  0  0
  151.0300  136.6750  154.1605 H   0  0  0  0  0  0  0  0  0  0  0  0
  148.9996  135.1925  155.8446 H   0  0  0  0  0  0  0  0  0  0  0  0
  150.1750  134.5152  154.7303 H   0  0  0  0  0  0  0  0  0  0  0  0
  148.8634  135.5109  154.1162 H   0  0  0  0  0  0  0  0  0  0  0  0
  150.9603  136.2517  157.1843 H   0  0  0  0  0  0  0  0  0  0  0  0
  152.1023  137.3218  156.3829 H   0  0  0  0  0  0  0  0  0  0  0  0
  152.1160  135.6002  156.0383 H   0  0  0  0  0  0  0  0  0  0  0  0
  149.1929  140.0551  153.4414 H   0  0  0  0  0  0  0  0  0  0  0  0
  147.7251  139.4638  152.7346 H   0  0  0  0  0  0  0  0  0  0  0  0
  147.9976  140.3934  155.6474 H   0  0  0  0  0  0  0  0  0  0  0  0
  147.9605  142.2819  154.0199 H   0  0  0  0  0  0  0  0  0  0  0  0
  146.4808  142.2211  154.9722 H   0  0  0  0  0  0  0  0  0  0  0  0
  146.4794  141.6435  153.3078 H   0  0  0  0  0  0  0  0  0  0  0  0
  148.9305  137.6352  153.3127 H   0  0  0  0  0  0  0  0  0  0  0  0
  1  2  1  0  0  0  0
  1 24  1  0  0  0  0
  1 25  1  0  0  0  0
  1 26  1  0  0  0  0
  2 23  1  0  0  0  0
  2  3  1  0  0  0  0
  2 27  1  0  0  0  0
  3  4  1  0  0  0  0
  3 28  1  0  0  0  0
  3 29  1  0  0  0  0
  4  5  1  0  0  0  0
  4 20  1  0  0  0  0
  4 52  1  0  0  0  0
  5  6  1  0  0  0  0
  5 17  1  0  0  0  0
  5 30  1  0  0  0  0
  6  7  2  0  0  0  0
  6  8  1  0  0  0  0
  8  9  1  0  0  0  0
  9 10  1  0  0  0  0
  9 31  1  0  0  0  0
  9 32  1  0  0  0  0
 10 11  1  0  0  0  0
 10 33  1  0  0  0  0
 10 34  1  0  0  0  0
 11 16  1  0  0  0  0
 11 12  2  0  0  0  0
 12 13  1  0  0  0  0
 12 35  1  0  0  0  0
 13 14  2  0  0  0  0
 13 36  1  0  0  0  0
 14 15  1  0  0  0  0
 14 37  1  0  0  0  0
 15 16  2  0  0  0  0
 15 38  1  0  0  0  0
 17 18  1  0  0  0  0
 17 19  1  0  0  0  0
 17 39  1  0  0  0  0
 18 40  1  0  0  0  0
 18 41  1  0  0  0  0
 18 42  1  0  0  0  0
 19 43  1  0  0  0  0
 19 44  1  0  0  0  0
 19 45  1  0  0  0  0
 20 21  1  0  0  0  0
 20 46  1  0  0  0  0
 20 47  1  0  0  0  0
 21 22  1  0  0  0  0
 21 23  1  0  0  0  0
 21 48  1  0  0  0  0
 22 49  1  0  0  0  0
 22 50  1  0  0  0  0
 22 51  1  0  0  0  0
M  CHG  1   4   1
M  CHG  1   8  -1
M  END
> <s_m_source_file>
AV-unprocessed.smi

> <i_m_source_file_index>
1762

> <i_lp_mmshare_version>
43012

> <i_f3d_flags>
0

> <s_epik_input>
W0NIM11bQ0BASF0xW0NIMl1OKFtDSDJdW0NASF0oTzEpW0NIM10pW0NAQEhdKFtDSF0oW0NIM10pW0NIM10pQyg9TylbTkhdW0NIMl1bQ0gyXWMyW2NIXVtjSF1bY0hdW2NIXW4y

> <s_epik_cmdline>
J2VwaWtfcHl0aG9uJywgJy1waCcsICc3LjAnLCAnLXRuJywgJzgnLCAnLW1hJywgJzIwMCcsICctbWV0YWxfYmluZGluZycsICctaW1hZScsICc8aW5maWxlLm1hZT4nLCAnLW9tYWUnLCAnPG91dGZpbGUubWFlPic=

> <r_epik_Ionization_Penalty>
7.82966

> <r_epik_Ionization_Penalty_Charging>
7.7461

> <r_epik_Ionization_Penalty_Neutral>
0.0835571

> <r_epik_State_Penalty>
8.52273

> <r_epik_Charging_Adjusted_Penalty>
16.2688

> <i_epik_Tot_Q>
0

> <i_epik_Tot_abs_Q>
2

> <r_epik_Metal_State_Penalty>
4.47451

> <b_epik_Metal_Only>
1

> <s_lp_Force_Field>
OPLS_2005

> <r_lp_Energy>
23.0584

> <b_lp_Chiralities_Consistent>
1

> <s_lp_Variant>
AV-unprocessed.smi:1762-22

> <Gold.Version>
5.8.1

> <Gold.Id.Protein>
6NUR|6NUR_protein|mol2

> <Gold.PLP.Fitness>
44.2906

> <Gold.PLP.PLP>
-35.2387

> <Gold.PLP.part.hbond>
-2.0000

> <Gold.PLP.part.metal>
0.0000

> <Gold.PLP.part.buried>
-3.5599

> <Gold.PLP.part.nonpolar>
-30.7037

> <Gold.PLP.part.repulsive>
0.3679

> <Gold.PLP.ligand.clash>
0.0000

> <Gold.PLP.ligand.torsion>
1.7741

> <Gold.PLP.Chemscore.Hbond>
3.0000

> <Gold.PLP.Chemscore.CHOScore>
1.0000

> <Gold.PLP.Chemscore.Metal>
0.0000

> <Gold.Chemscore.Hbonds>
donor molecule, donor type, donor heavy atom, donor atom, acceptor molecule, acceptor atom, score
      L1  H     4    52       P1  7948  2.00
      P1  H  7989  7998       L1     7  1.00
      L1  C    15    38       P1  8029  0.80

> <Gold.PLP.Chemscore.Internal.Correction>
0.6001

> <Gold.Rescore>
     Score         DG    S(hbond)    S(metal)    S(lipo)     H(rot)  DE(clash)    DE(int)     intcor
     18.48     -20.05       1.96        0.00     103.53       1.60       0.22       1.34       ----

> <Gold.Chemscore.Fitness>
18.4837

> <Gold.Chemscore.DG>
-20.0497

> <Gold.Chemscore.ZeroCoef>
-5.4800

> <Gold.Chemscore.Hbond>
1.9626

> <Gold.Chemscore.Metal>
0.0000

> <Gold.Chemscore.Lipo>
103.5339

> <Gold.Chemscore.Internal_Hbond>
0.0000

> <Gold.Chemscore.DEClash>
0.2222

> <Gold.Chemscore.DEInternal>
1.3439

> <Gold.Chemscore.Rot>
1.6012

> <Gold.Chemscore.Internal.Correction>
   9.000000E+99

> <Gold.Chemscore.Hbonds>
donor molecule, donor type, donor heavy atom, donor atom, acceptor molecule, acceptor atom, score
      L1  H     4    52       P1  7948  0.95
      P1  H  7989  7998       L1     7  0.96

> <Gold.Chemscore.Hbond.Weighted>
-6.5552

> <Gold.Chemscore.Metal.Weighted>
-0.0000

> <Gold.Chemscore.Lipo.Weighted>
-12.1135

> <Gold.Chemscore.Internal_Hbond.Weighted>
0.0000

> <Gold.Chemscore.DEClash.Weighted>
0.2222

> <Gold.Chemscore.DEInternal.Weighted>
1.3439

> <Gold.Chemscore.Rot.Weighted>
4.0990

> <Gold.Chemscore.Internal.Correction.Weighted>
   9.000000E+99

> <Gold.Protein.RotatedTorsions>
[ 6907 6896 6895 6894 ] final   34.46 input  -60.11 | X-H torsion
[ 7974 7965 7964 7962 ] final  -50.29 input  175.53 | X-H torsion
[ 8008 7997 7996 7995 ] final   15.03 input   59.86 | X-H torsion
[ 10167 10162 10161 10158 ] final  -96.04 input  -65.29 | X-H torsion
[ 10718 10713 10712 10709 ] final -143.52 input   66.30 | X-H torsion
[ 10763 10752 10751 10750 ] final  155.37 input  -60.55 | X-H torsion
[ 11005 11000 10999 10996 ] final  179.31 input  -57.11 | X-H torsion

> <Gold.Protein.ActiveResidues>
 VAL166  LYS551  ARG553  GLY616  TRP617  ASP618  TYR619  PRO620  LYS621  CYS622 
 ASP623  PHE694  ASN695  SER759  ASP760  ASP761  ALA762  ILE779  LEU786  VAL792 
 PHE793  MET794  SER795  GLU796  ALA797  LYS798  CYS799  TRP800  GLU811  SER814 

> <Gold.Protein.RotatedAtoms>
  152.1026  134.9331  160.0568 H   0  0  0  0  0  0  0  0  0  0  0  0  # atno 6907 bound_to 6896
  152.0539  133.4026  159.4397 H   0  0  0  0  0  0  0  0  0  0  0  0  # atno 6908 bound_to 6896
  150.6840  134.3197  159.4825 H   0  0  0  0  0  0  0  0  0  0  0  0  # atno 6909 bound_to 6896
  145.9314  140.7745  142.9597 H   0  0  0  0  0  0  0  0  0  0  0  0  # atno 7974 bound_to 7965
  154.8568  140.2938  155.5564 H   0  0  0  0  0  0  0  0  0  0  0  0  # atno 8008 bound_to 7997
  156.3018  140.2485  156.3468 H   0  0  0  0  0  0  0  0  0  0  0  0  # atno 8009 bound_to 7997
  154.8961  140.0393  157.1856 H   0  0  0  0  0  0  0  0  0  0  0  0  # atno 8010 bound_to 7997
  140.2979  143.3180  152.0279 H   0  0  0  0  0  0  0  0  0  0  0  0  # atno 10167 bound_to 10162
  156.3589  130.7728  151.1892 H   0  0  0  0  0  0  0  0  0  0  0  0  # atno 10718 bound_to 10713
  154.1672  135.2806  155.3091 H   0  0  0  0  0  0  0  0  0  0  0  0  # atno 10763 bound_to 10752
  154.6102  135.5501  153.7468 H   0  0  0  0  0  0  0  0  0  0  0  0  # atno 10764 bound_to 10752
  153.0175  135.6413  154.1813 H   0  0  0  0  0  0  0  0  0  0  0  0  # atno 10765 bound_to 10752
  140.4047  134.6746  157.4581 H   0  0  0  0  0  0  0  0  0  0  0  0  # atno 11005 bound_to 11000
  144.6765  140.2134  143.7374 LP  0  0  0  0  0  0  0  0  0  0  0  0  # atno 17320 bound_to 7965
  145.8420  139.2134  143.1822 LP  0  0  0  0  0  0  0  0  0  0  0  0  # atno 17321 bound_to 7965
  139.4922  144.6477  151.6742 LP  0  0  0  0  0  0  0  0  0  0  0  0  # atno 17342 bound_to 10162
  140.5676  144.0163  150.6200 LP  0  0  0  0  0  0  0  0  0  0  0  0  # atno 17343 bound_to 10162
  157.7471  131.0406  150.4605 LP  0  0  0  0  0  0  0  0  0  0  0  0  # atno 17370 bound_to 10713
  156.4812  130.4074  149.6460 LP  0  0  0  0  0  0  0  0  0  0  0  0  # atno 17371 bound_to 10713
  140.0311  134.6405  155.9106 LP  0  0  0  0  0  0  0  0  0  0  0  0  # atno 17394 bound_to 11000
  141.1844  133.6552  156.5154 LP  0  0  0  0  0  0  0  0  0  0  0  0  # atno 17395 bound_to 11000

$$$$
