AV-unprocessed.smi:3009|AV-procd|sdf|11451|dock1
  -GOLD-   2272016383D 1   1.00000     0.00000
 Structure written by MMmdl.
 44 45  0  0  0  0  0  0  0  0  2 V2000
  152.8981  138.8129  154.5985 C   0  0  0  0  0  0  0  0  0  0  0  0
  151.5935  139.4886  155.0531 C   0  0  0  0  0  0  0  0  0  0  0  0
  151.3256  139.1908  156.5360 C   0  0  0  0  0  0  0  0  0  0  0  0
  150.3893  139.0566  154.1887 C   0  0  0  0  0  0  0  0  0  0  0  0
  149.0811  139.2300  154.8778 N   0  3  1  0  0  0  0  0  0  0  0  0
  148.7143  140.6492  155.1030 C   0  0  0  0  0  0  0  0  0  0  0  0
  148.1816  141.2962  153.8121 C   0  0  0  0  0  0  0  0  0  0  0  0
  147.0723  140.5468  153.3319 O   0  0  0  0  0  0  0  0  0  0  0  0
  147.4228  139.2075  152.9957 C   0  0  2  0  0  0  0  0  0  0  0  0
  146.1765  138.5111  152.4209 C   0  0  0  0  0  0  0  0  0  0  0  0
  146.4757  137.1585  151.9626 N   0  0  0  0  0  0  0  0  0  0  0  0
  145.5655  136.1887  151.7962 C   0  0  0  0  0  0  0  0  0  0  0  0
  144.3622  136.3451  152.0063 O   0  0  0  0  0  0  0  0  0  0  0  0
  146.1372  135.0442  151.3885 N   0  0  0  0  0  0  0  0  0  0  0  0
  145.4931  133.8100  151.1196 C   0  0  0  0  0  0  0  0  0  0  0  0
  144.1084  133.6650  150.8342 C   0  0  0  0  0  0  0  0  0  0  0  0
  143.7879  132.3960  150.6259 N   0  0  0  0  0  0  0  0  0  0  0  0
  144.9539  131.7291  150.7799 N   0  0  0  0  0  0  0  0  0  0  0  0
  146.0187  132.5488  151.0825 C   0  0  0  0  0  0  0  0  0  0  0  0
  147.9452  138.4955  154.2627 C   0  0  0  0  0  0  0  0  0  0  0  0
  145.0060  130.7254  150.6786 H   0  0  0  0  0  0  0  0  0  0  0  0
  152.8267  137.7269  154.6657 H   0  0  0  0  0  0  0  0  0  0  0  0
  153.7383  139.1286  155.2177 H   0  0  0  0  0  0  0  0  0  0  0  0
  153.1432  139.0680  153.5672 H   0  0  0  0  0  0  0  0  0  0  0  0
  151.7286  140.5665  154.9711 H   0  0  0  0  0  0  0  0  0  0  0  0
  151.1859  138.1232  156.7084 H   0  0  0  0  0  0  0  0  0  0  0  0
  150.4292  139.7041  156.8854 H   0  0  0  0  0  0  0  0  0  0  0  0
  152.1562  139.5219  157.1601 H   0  0  0  0  0  0  0  0  0  0  0  0
  150.3975  139.6563  153.2772 H   0  0  0  0  0  0  0  0  0  0  0  0
  150.5075  138.0230  153.8639 H   0  0  0  0  0  0  0  0  0  0  0  0
  147.9396  140.6860  155.8700 H   0  0  0  0  0  0  0  0  0  0  0  0
  149.5617  141.2101  155.4990 H   0  0  0  0  0  0  0  0  0  0  0  0
  147.8550  142.3166  154.0129 H   0  0  0  0  0  0  0  0  0  0  0  0
  148.9577  141.3568  153.0478 H   0  0  0  0  0  0  0  0  0  0  0  0
  148.2022  139.2194  152.2330 H   0  0  0  0  0  0  0  0  0  0  0  0
  145.3837  138.4732  153.1700 H   0  0  0  0  0  0  0  0  0  0  0  0
  145.7802  139.0821  151.5807 H   0  0  0  0  0  0  0  0  0  0  0  0
  147.4432  136.9457  151.7674 H   0  0  0  0  0  0  0  0  0  0  0  0
  147.1394  135.0519  151.2678 H   0  0  0  0  0  0  0  0  0  0  0  0
  143.3412  134.4227  150.7712 H   0  0  0  0  0  0  0  0  0  0  0  0
  147.0162  132.1664  151.2392 H   0  0  0  0  0  0  0  0  0  0  0  0
  148.2187  137.4654  154.0383 H   0  0  0  0  0  0  0  0  0  0  0  0
  147.1437  138.4394  155.0005 H   0  0  0  0  0  0  0  0  0  0  0  0
  149.2175  138.8332  155.7968 H   0  0  0  0  0  0  0  0  0  0  0  0
  1  2  1  0  0  0  0
  1 22  1  0  0  0  0
  1 23  1  0  0  0  0
  1 24  1  0  0  0  0
  2  3  1  0  0  0  0
  2  4  1  0  0  0  0
  2 25  1  0  0  0  0
  3 26  1  0  0  0  0
  3 27  1  0  0  0  0
  3 28  1  0  0  0  0
  4  5  1  0  0  0  0
  4 29  1  0  0  0  0
  4 30  1  0  0  0  0
  5 20  1  0  0  0  0
  5  6  1  0  0  0  0
  5 44  1  0  0  0  0
  6  7  1  0  0  0  0
  6 31  1  0  0  0  0
  6 32  1  0  0  0  0
  7  8  1  0  0  0  0
  7 33  1  0  0  0  0
  7 34  1  0  0  0  0
  8  9  1  0  0  0  0
  9 10  1  0  0  0  0
  9 20  1  0  0  0  0
  9 35  1  0  0  0  0
 10 11  1  0  0  0  0
 10 36  1  0  0  0  0
 10 37  1  0  0  0  0
 11 12  1  0  0  0  0
 11 38  1  0  0  0  0
 12 13  2  0  0  0  0
 12 14  1  0  0  0  0
 14 15  1  0  0  0  0
 14 39  1  0  0  0  0
 15 19  2  0  0  0  0
 15 16  1  0  0  0  0
 16 17  2  0  0  0  0
 16 40  1  0  0  0  0
 17 18  1  0  0  0  0
 18 21  1  0  0  0  0
 18 19  1  0  0  0  0
 19 41  1  0  0  0  0
 20 42  1  0  0  0  0
 20 43  1  0  0  0  0
M  CHG  1   5   1
M  END
> <s_m_source_file>
AV-unprocessed.smi

> <i_m_source_file_index>
3009

> <i_lp_mmshare_version>
43012

> <i_f3d_flags>
0

> <s_epik_input>
W0NIM11bQ0hdKFtDSDNdKVtDSDJdTjFbQ0gyXVtDSDJdT1tDQEhdKFtDSDJdMSlbQ0gyXVtOSF1DKD1PKVtOSF1jMltjSF1uW25IXVtjSF0y

> <s_epik_cmdline>
J2VwaWtfcHl0aG9uJywgJy1waCcsICc3LjAnLCAnLXRuJywgJzgnLCAnLW1hJywgJzIwMCcsICctbWV0YWxfYmluZGluZycsICctaW1hZScsICc8aW5maWxlLm1hZT4nLCAnLW9tYWUnLCAnPG91dGZpbGUubWFlPic=

> <r_lp_tautomer_probability>
0.5

> <r_epik_Ionization_Penalty>
0.0974064

> <r_epik_Ionization_Penalty_Charging>
0.0973651

> <r_epik_Ionization_Penalty_Neutral>
4.13573e-05

> <r_epik_State_Penalty>
0.0874853

> <r_epik_Charging_Adjusted_Penalty>
0.18485

> <i_epik_Tot_Q>
1

> <i_epik_Tot_abs_Q>
1

> <r_epik_Metal_State_Penalty>
0.0874855

> <b_epik_Metal_Only>
0

> <s_lp_Force_Field>
OPLS_2005

> <r_lp_Energy>
21.5437

> <b_lp_Chiralities_Consistent>
1

> <s_lp_Variant>
AV-unprocessed.smi:3009-3

> <Gold.Version>
5.8.1

> <Gold.Id.Protein>
6NUR|6NUR_protein|mol2

> <Gold.PLP.Fitness>
42.1233

> <Gold.PLP.PLP>
-32.6910

> <Gold.PLP.part.hbond>
-2.0000

> <Gold.PLP.part.metal>
0.0000

> <Gold.PLP.part.buried>
-3.1898

> <Gold.PLP.part.nonpolar>
-29.2911

> <Gold.PLP.part.repulsive>
1.5858

> <Gold.PLP.ligand.clash>
0.0000

> <Gold.PLP.ligand.torsion>
0.5995

> <Gold.PLP.Chemscore.Hbond>
1.5408

> <Gold.PLP.Chemscore.CHOScore>
1.9226

> <Gold.PLP.Chemscore.Metal>
0.0000

> <Gold.Chemscore.Hbonds>
donor molecule, donor type, donor heavy atom, donor atom, acceptor molecule, acceptor atom, score
      L1  H    11    38       P1  7948  1.00
      L1  H    14    39       P1  7948  0.51
      L1  C    16    40       P1 10186  0.76
      L1  C    19    41       P1 10747  0.96

> <Gold.PLP.Chemscore.Internal.Correction>
0.2411

> <Gold.Rescore>
     Score         DG    S(hbond)    S(metal)    S(lipo)     H(rot)  DE(clash)    DE(int)     intcor
     13.50     -15.80       1.79        0.00      76.34       1.80       0.40       1.90       ----

> <Gold.Chemscore.Fitness>
13.4974

> <Gold.Chemscore.DG>
-15.7977

> <Gold.Chemscore.ZeroCoef>
-5.4800

> <Gold.Chemscore.Hbond>
1.7916

> <Gold.Chemscore.Metal>
0.0000

> <Gold.Chemscore.Lipo>
76.3440

> <Gold.Chemscore.Internal_Hbond>
0.0000

> <Gold.Chemscore.DEClash>
0.4019

> <Gold.Chemscore.DEInternal>
1.8985

> <Gold.Chemscore.Rot>
1.7963

> <Gold.Chemscore.Internal.Correction>
   9.000000E+99

> <Gold.Chemscore.Hbonds>
donor molecule, donor type, donor heavy atom, donor atom, acceptor molecule, acceptor atom, score
      L1  H    11    38       P1  7948  0.99
      L1  H    14    39       P1  7948  0.35

> <Gold.Chemscore.Hbond.Weighted>
-5.9840

> <Gold.Chemscore.Metal.Weighted>
-0.0000

> <Gold.Chemscore.Lipo.Weighted>
-8.9323

> <Gold.Chemscore.Internal_Hbond.Weighted>
0.0000

> <Gold.Chemscore.DEClash.Weighted>
0.4019

> <Gold.Chemscore.DEInternal.Weighted>
1.8985

> <Gold.Chemscore.Rot.Weighted>
4.5985

> <Gold.Chemscore.Internal.Correction.Weighted>
   9.000000E+99

> <Gold.Protein.RotatedTorsions>
[ 6907 6896 6895 6894 ] final  -55.61 input  -60.11 | X-H torsion
[ 7974 7965 7964 7962 ] final  -47.04 input  175.53 | X-H torsion
[ 8008 7997 7996 7995 ] final  -48.64 input   59.86 | X-H torsion
[ 10167 10162 10161 10158 ] final  -52.76 input  -65.29 | X-H torsion
[ 10718 10713 10712 10709 ] final   71.34 input   66.30 | X-H torsion
[ 10763 10752 10751 10750 ] final   32.16 input  -60.55 | X-H torsion
[ 11005 11000 10999 10996 ] final -153.94 input  -57.11 | X-H torsion

> <Gold.Protein.ActiveResidues>
 VAL166  LYS551  ARG553  GLY616  TRP617  ASP618  TYR619  PRO620  LYS621  CYS622 
 ASP623  PHE694  ASN695  SER759  ASP760  ASP761  ALA762  ILE779  LEU786  VAL792 
 PHE793  MET794  SER795  GLU796  ALA797  LYS798  CYS799  TRP800  GLU811  SER814 

> <Gold.Protein.RotatedAtoms>
  150.8237  134.7458  159.6794 H   0  0  0  0  0  0  0  0  0  0  0  0  # atno 6907 bound_to 6896
  152.4350  134.5700  159.9928 H   0  0  0  0  0  0  0  0  0  0  0  0  # atno 6908 bound_to 6896
  151.5878  133.3332  159.3057 H   0  0  0  0  0  0  0  0  0  0  0  0  # atno 6909 bound_to 6896
  145.9657  140.7434  142.9435 H   0  0  0  0  0  0  0  0  0  0  0  0  # atno 7974 bound_to 7965
  154.4032  140.1316  156.4372 H   0  0  0  0  0  0  0  0  0  0  0  0  # atno 8008 bound_to 7997
  155.7494  140.3488  155.5123 H   0  0  0  0  0  0  0  0  0  0  0  0  # atno 8009 bound_to 7997
  155.8964  140.1012  157.1372 H   0  0  0  0  0  0  0  0  0  0  0  0  # atno 8010 bound_to 7997
  140.6521  143.2573  151.4694 H   0  0  0  0  0  0  0  0  0  0  0  0  # atno 10167 bound_to 10162
  157.6446  130.9523  150.0775 H   0  0  0  0  0  0  0  0  0  0  0  0  # atno 10718 bound_to 10713
  153.0277  135.6420  154.1312 H   0  0  0  0  0  0  0  0  0  0  0  0  # atno 10763 bound_to 10752
  154.1039  135.2857  155.3247 H   0  0  0  0  0  0  0  0  0  0  0  0  # atno 10764 bound_to 10752
  154.6379  135.5470  153.7818 H   0  0  0  0  0  0  0  0  0  0  0  0  # atno 10765 bound_to 10752
  140.7027  134.3920  157.5208 H   0  0  0  0  0  0  0  0  0  0  0  0  # atno 11005 bound_to 11000
  144.6825  140.2665  143.7312 LP  0  0  0  0  0  0  0  0  0  0  0  0  # atno 17320 bound_to 7965
  145.7977  139.1952  143.2066 LP  0  0  0  0  0  0  0  0  0  0  0  0  # atno 17321 bound_to 7965
  139.5737  144.1868  152.1873 LP  0  0  0  0  0  0  0  0  0  0  0  0  # atno 17342 bound_to 10162
  140.1172  144.5405  150.6886 LP  0  0  0  0  0  0  0  0  0  0  0  0  # atno 17343 bound_to 10162
  156.1761  130.3648  149.9098 LP  0  0  0  0  0  0  0  0  0  0  0  0  # atno 17370 bound_to 10713
  156.7062  130.8952  151.3604 LP  0  0  0  0  0  0  0  0  0  0  0  0  # atno 17371 bound_to 10713
  139.8892  134.8835  156.2431 LP  0  0  0  0  0  0  0  0  0  0  0  0  # atno 17394 bound_to 11000
  141.0150  133.7073  156.1174 LP  0  0  0  0  0  0  0  0  0  0  0  0  # atno 17395 bound_to 11000

$$$$
