AV-unprocessed.smi:3011|AV-procd|sdf|11459|dock7
  -GOLD-   2272016393D 1   1.00000     0.00000
 Structure written by MMmdl.
 47 49  0  0  0  0  0  0  0  0  2 V2000
  147.1090  136.9439  162.5560 C   0  0  0  0  0  0  0  0  0  0  0  0
  147.8082  137.3515  161.3894 O   0  0  0  0  0  0  0  0  0  0  0  0
  147.9709  136.4346  160.3706 C   0  0  0  0  0  0  0  0  0  0  0  0
  147.4715  135.1082  160.4185 C   0  0  0  0  0  0  0  0  0  0  0  0
  147.6752  134.2298  159.3390 C   0  0  0  0  0  0  0  0  0  0  0  0
  148.3776  134.6638  158.2019 C   0  0  0  0  0  0  0  0  0  0  0  0
  148.8775  135.9772  158.1435 C   0  0  0  0  0  0  0  0  0  0  0  0
  148.6778  136.8698  159.2262 C   0  0  0  0  0  0  0  0  0  0  0  0
  149.1397  138.1676  159.2426 O   0  0  0  0  0  0  0  0  0  0  0  0
  149.4199  138.8151  158.0098 C   0  0  0  0  0  0  0  0  0  0  0  0
  150.8270  139.4241  158.0892 C   0  0  0  0  0  0  0  0  0  0  0  0
  150.8265  140.8609  157.7757 N   0  0  0  0  0  0  0  0  0  0  0  0
  150.2112  141.5469  156.7675 C   0  0  0  0  0  0  0  0  0  0  0  0
  149.3157  140.9702  155.7058 C   0  0  2  0  0  0  0  0  0  0  0  0
  150.0344  139.9205  154.8376 C   0  0  0  0  0  0  0  0  0  0  0  0
  148.6834  142.0019  154.8868 N   0  0  0  0  0  0  0  0  0  0  0  0
  147.8260  141.7817  153.8806 C   0  0  0  0  0  0  0  0  0  0  0  0
  147.4728  140.6584  153.5321 O   0  0  0  0  0  0  0  0  0  0  0  0
  150.5255  142.8645  156.9336 N   0  3  0  0  0  0  0  0  0  0  0  0
  151.3637  143.0184  158.0375 C   0  0  0  0  0  0  0  0  0  0  0  0
  151.9450  144.1561  158.5886 C   0  0  0  0  0  0  0  0  0  0  0  0
  152.7576  143.9636  159.7252 C   0  0  0  0  0  0  0  0  0  0  0  0
  152.9669  142.6797  160.2693 C   0  0  0  0  0  0  0  0  0  0  0  0
  152.3705  141.5340  159.7023 C   0  0  0  0  0  0  0  0  0  0  0  0
  151.5660  141.7338  158.5808 C   0  0  0  0  0  0  0  0  0  0  0  0
  147.0706  137.7744  163.2605 H   0  0  0  0  0  0  0  0  0  0  0  0
  147.6127  136.1139  163.0532 H   0  0  0  0  0  0  0  0  0  0  0  0
  146.0815  136.6592  162.3260 H   0  0  0  0  0  0  0  0  0  0  0  0
  146.9272  134.7387  161.2742 H   0  0  0  0  0  0  0  0  0  0  0  0
  147.2914  133.2212  159.3838 H   0  0  0  0  0  0  0  0  0  0  0  0
  148.5337  133.9886  157.3736 H   0  0  0  0  0  0  0  0  0  0  0  0
  149.4136  136.2760  157.2558 H   0  0  0  0  0  0  0  0  0  0  0  0
  149.3758  138.1032  157.1846 H   0  0  0  0  0  0  0  0  0  0  0  0
  148.6861  139.6004  157.8214 H   0  0  0  0  0  0  0  0  0  0  0  0
  151.2290  139.3046  159.0956 H   0  0  0  0  0  0  0  0  0  0  0  0
  151.5186  138.9106  157.4209 H   0  0  0  0  0  0  0  0  0  0  0  0
  148.5002  140.4551  156.2128 H   0  0  0  0  0  0  0  0  0  0  0  0
  150.4274  139.1102  155.4526 H   0  0  0  0  0  0  0  0  0  0  0  0
  150.8691  140.3492  154.2820 H   0  0  0  0  0  0  0  0  0  0  0  0
  149.3490  139.4774  154.1148 H   0  0  0  0  0  0  0  0  0  0  0  0
  148.9236  142.9600  155.0983 H   0  0  0  0  0  0  0  0  0  0  0  0
  147.4861  142.7204  153.4155 H   0  0  0  0  0  0  0  0  0  0  0  0
  151.7869  145.1403  158.1725 H   0  0  0  0  0  0  0  0  0  0  0  0
  153.2306  144.8177  160.1882 H   0  0  0  0  0  0  0  0  0  0  0  0
  153.5971  142.5708  161.1400 H   0  0  0  0  0  0  0  0  0  0  0  0
  152.5379  140.5552  160.1264 H   0  0  0  0  0  0  0  0  0  0  0  0
  150.1903  143.6030  156.3284 H   0  0  0  0  0  0  0  0  0  0  0  0
  1  2  1  0  0  0  0
  1 26  1  0  0  0  0
  1 27  1  0  0  0  0
  1 28  1  0  0  0  0
  2  3  1  0  0  0  0
  3  8  1  0  0  0  0
  3  4  2  0  0  0  0
  4  5  1  0  0  0  0
  4 29  1  0  0  0  0
  5  6  2  0  0  0  0
  5 30  1  0  0  0  0
  6  7  1  0  0  0  0
  6 31  1  0  0  0  0
  7  8  2  0  0  0  0
  7 32  1  0  0  0  0
  8  9  1  0  0  0  0
  9 10  1  0  0  0  0
 10 11  1  0  0  0  0
 10 33  1  0  0  0  0
 10 34  1  0  0  0  0
 11 12  1  0  0  0  0
 11 35  1  0  0  0  0
 11 36  1  0  0  0  0
 12 25  1  0  0  0  0
 12 13  1  0  0  0  0
 13 14  1  0  0  0  0
 13 19  2  0  0  0  0
 14 15  1  0  0  0  0
 14 16  1  0  0  0  0
 14 37  1  0  0  0  0
 15 38  1  0  0  0  0
 15 39  1  0  0  0  0
 15 40  1  0  0  0  0
 16 17  1  0  0  0  0
 16 41  1  0  0  0  0
 17 18  2  0  0  0  0
 17 42  1  0  0  0  0
 19 20  1  0  0  0  0
 19 47  1  0  0  0  0
 20 25  2  0  0  0  0
 20 21  1  0  0  0  0
 21 22  2  0  0  0  0
 21 43  1  0  0  0  0
 22 23  1  0  0  0  0
 22 44  1  0  0  0  0
 23 24  2  0  0  0  0
 23 45  1  0  0  0  0
 24 25  1  0  0  0  0
 24 46  1  0  0  0  0
M  CHG  1  19   1
M  END
> <s_m_source_file>
AV-unprocessed.smi

> <i_m_source_file_index>
3011

> <i_lp_mmshare_version>
43012

> <i_f3d_flags>
0

> <s_epik_input>
W0NIM11PYzFbY0hdW2NIXVtjSF1bY0hdYzFPW0NIMl1bQ0gyXW4oYyhuMilbQ0BIXShbQ0gzXSlbTkhdW0NIXT1PKWMoYzIzKVtjSF1bY0hdW2NIXVtjSF0z

> <s_epik_cmdline>
J2VwaWtfcHl0aG9uJywgJy1waCcsICc3LjAnLCAnLXRuJywgJzgnLCAnLW1hJywgJzIwMCcsICctbWV0YWxfYmluZGluZycsICctaW1hZScsICc8aW5maWxlLm1hZT4nLCAnLW9tYWUnLCAnPG91dGZpbGUubWFlPic=

> <r_lp_tautomer_probability>
1

> <r_epik_Ionization_Penalty>
1.14644

> <r_epik_Ionization_Penalty_Charging>
1.14644

> <r_epik_Ionization_Penalty_Neutral>
5.5802e-08

> <r_epik_State_Penalty>
1.20743

> <r_epik_Charging_Adjusted_Penalty>
2.35387

> <i_epik_Tot_Q>
1

> <i_epik_Tot_abs_Q>
1

> <r_epik_Metal_State_Penalty>
1.28856

> <b_epik_Metal_Only>
0

> <s_lp_Force_Field>
OPLS_2005

> <r_lp_Energy>
19.8167

> <b_lp_Chiralities_Consistent>
1

> <s_lp_Variant>
AV-unprocessed.smi:3011-3

> <Gold.Version>
5.8.1

> <Gold.Id.Protein>
6NUR|6NUR_protein|mol2

> <Gold.PLP.Fitness>
62.2569

> <Gold.PLP.PLP>
-50.5897

> <Gold.PLP.part.hbond>
-5.5688

> <Gold.PLP.part.metal>
0.0000

> <Gold.PLP.part.buried>
-5.6503

> <Gold.PLP.part.nonpolar>
-39.2742

> <Gold.PLP.part.repulsive>
0.3781

> <Gold.PLP.ligand.clash>
0.0000

> <Gold.PLP.ligand.torsion>
1.2922

> <Gold.PLP.Chemscore.Hbond>
4.7040

> <Gold.PLP.Chemscore.CHOScore>
0.0000

> <Gold.PLP.Chemscore.Metal>
0.0000

> <Gold.Chemscore.Hbonds>
donor molecule, donor type, donor heavy atom, donor atom, acceptor molecule, acceptor atom, score
      L1  H    16    41       P1  8028  1.00
      L1  H    19    47       P1  8028  2.00
      P1  H  6931  6943       L1     2  0.94
      P1  H  6934  6947       L1     2  0.72

> <Gold.PLP.Chemscore.Internal.Correction>
0.1396

> <Gold.Rescore>
     Score         DG    S(hbond)    S(metal)    S(lipo)     H(rot)  DE(clash)    DE(int)     intcor
     20.31     -22.69       3.34        0.00     110.04       2.66       0.08       2.29       ----

> <Gold.Chemscore.Fitness>
20.3119

> <Gold.Chemscore.DG>
-22.6868

> <Gold.Chemscore.ZeroCoef>
-5.4800

> <Gold.Chemscore.Hbond>
3.3362

> <Gold.Chemscore.Metal>
0.0000

> <Gold.Chemscore.Lipo>
110.0390

> <Gold.Chemscore.Internal_Hbond>
0.0000

> <Gold.Chemscore.DEClash>
0.0801

> <Gold.Chemscore.DEInternal>
2.2948

> <Gold.Chemscore.Rot>
2.6604

> <Gold.Chemscore.Internal.Correction>
   9.000000E+99

> <Gold.Chemscore.Hbonds>
donor molecule, donor type, donor heavy atom, donor atom, acceptor molecule, acceptor atom, score
      L1  H    16    41       P1  8028  1.00
      L1  H    19    47       P1  8028  0.98
      P1  H  6931  6943       L1     2  0.49
      P1  H  6934  6947       L1     2  0.42

> <Gold.Chemscore.Hbond.Weighted>
-11.1429

> <Gold.Chemscore.Metal.Weighted>
-0.0000

> <Gold.Chemscore.Lipo.Weighted>
-12.8746

> <Gold.Chemscore.Internal_Hbond.Weighted>
0.0000

> <Gold.Chemscore.DEClash.Weighted>
0.0801

> <Gold.Chemscore.DEInternal.Weighted>
2.2948

> <Gold.Chemscore.Rot.Weighted>
6.8106

> <Gold.Chemscore.Internal.Correction.Weighted>
   9.000000E+99

> <Gold.Protein.RotatedTorsions>
[ 6907 6896 6895 6894 ] final -145.86 input  -60.11 | X-H torsion
[ 7974 7965 7964 7962 ] final    3.38 input  175.53 | X-H torsion
[ 8008 7997 7996 7995 ] final  154.17 input   59.86 | X-H torsion
[ 10167 10162 10161 10158 ] final  110.40 input  -65.29 | X-H torsion
[ 10718 10713 10712 10709 ] final   69.01 input   66.30 | X-H torsion
[ 10763 10752 10751 10750 ] final   80.31 input  -60.55 | X-H torsion
[ 11005 11000 10999 10996 ] final  -34.39 input  -57.11 | X-H torsion

> <Gold.Protein.ActiveResidues>
 VAL166  LYS551  ARG553  GLY616  TRP617  ASP618  TYR619  PRO620  LYS621  CYS622 
 ASP623  PHE694  ASN695  SER759  ASP760  ASP761  ALA762  ILE779  LEU786  VAL792 
 PHE793  MET794  SER795  GLU796  ALA797  LYS798  CYS799  TRP800  GLU811  SER814 

> <Gold.Protein.RotatedAtoms>
  151.1336  133.5020  159.2598 H   0  0  0  0  0  0  0  0  0  0  0  0  # atno 6907 bound_to 6896
  151.1731  135.0326  159.8770 H   0  0  0  0  0  0  0  0  0  0  0  0  # atno 6908 bound_to 6896
  152.5460  134.1197  159.8447 H   0  0  0  0  0  0  0  0  0  0  0  0  # atno 6909 bound_to 6896
  146.2445  140.0694  142.8363 H   0  0  0  0  0  0  0  0  0  0  0  0  # atno 7974 bound_to 7965
  156.2545  140.1974  156.6604 H   0  0  0  0  0  0  0  0  0  0  0  0  # atno 8008 bound_to 7997
  154.6469  140.0576  156.9936 H   0  0  0  0  0  0  0  0  0  0  0  0  # atno 8009 bound_to 7997
  155.1478  140.3248  155.4440 H   0  0  0  0  0  0  0  0  0  0  0  0  # atno 8010 bound_to 7997
  139.6691  144.7126  151.1721 H   0  0  0  0  0  0  0  0  0  0  0  0  # atno 10167 bound_to 10162
  157.6322  130.9403  150.0455 H   0  0  0  0  0  0  0  0  0  0  0  0  # atno 10718 bound_to 10713
  153.1023  135.4807  154.8889 H   0  0  0  0  0  0  0  0  0  0  0  0  # atno 10763 bound_to 10752
  154.7392  135.3078  154.8760 H   0  0  0  0  0  0  0  0  0  0  0  0  # atno 10764 bound_to 10752
  153.9372  135.6838  153.4798 H   0  0  0  0  0  0  0  0  0  0  0  0  # atno 10765 bound_to 10752
  140.9713  133.7108  156.1528 H   0  0  0  0  0  0  0  0  0  0  0  0  # atno 11005 bound_to 11000
  145.0829  140.9233  143.4814 LP  0  0  0  0  0  0  0  0  0  0  0  0  # atno 17320 bound_to 7965
  145.0851  139.2931  143.5763 LP  0  0  0  0  0  0  0  0  0  0  0  0  # atno 17321 bound_to 7965
  140.7611  143.5872  150.8833 LP  0  0  0  0  0  0  0  0  0  0  0  0  # atno 17342 bound_to 10162
  139.9536  143.6244  152.3022 LP  0  0  0  0  0  0  0  0  0  0  0  0  # atno 17343 bound_to 10162
  156.1533  130.3643  149.9406 LP  0  0  0  0  0  0  0  0  0  0  0  0  # atno 17370 bound_to 10713
  156.7420  130.9083  151.3632 LP  0  0  0  0  0  0  0  0  0  0  0  0  # atno 17371 bound_to 10713
  140.7325  134.4239  157.5564 LP  0  0  0  0  0  0  0  0  0  0  0  0  # atno 17394 bound_to 11000
  139.8913  134.8783  156.2326 LP  0  0  0  0  0  0  0  0  0  0  0  0  # atno 17395 bound_to 11000

$$$$
