AV-unprocessed.smi:1475|AV-procd|sdf|5978|dock3
  -GOLD-   22720 6 73D 1   1.00000     0.00000
 Structure written by MMmdl.
 50 51  0  0  0  0  0  0  0  0  2 V2000
  148.1700  141.5086  154.3847 C   0  0  0  0  0  0  0  0  0  0  0  0
  149.3710  141.1482  155.2083 C   0  0  0  0  0  0  0  0  0  0  0  0
  149.7247  141.6199  156.5033 C   0  0  0  0  0  0  0  0  0  0  0  0
  150.9001  140.9829  156.7854 C   0  0  0  0  0  0  0  0  0  0  0  0
  151.7710  141.0632  157.9962 C   0  0  0  0  0  0  0  0  0  0  0  0
  151.1951  140.1834  155.6952 N   0  0  0  0  0  0  0  0  0  0  0  0
  152.3256  139.2922  155.4889 C   0  0  0  0  0  0  0  0  0  0  0  0
  151.8748  137.8311  155.4674 C   0  0  0  0  0  0  0  0  0  0  0  0
  152.0822  137.1353  154.4735 O   0  0  0  0  0  0  0  0  0  0  0  0
  151.2617  137.3769  156.5716 N   0  0  0  0  0  0  0  0  0  0  0  0
  150.7883  136.0119  156.7659 C   0  0  0  0  0  0  0  0  0  0  0  0
  150.0996  135.4597  155.5014 C   0  0  0  0  0  0  0  0  0  0  0  0
  149.5204  134.1087  155.7101 N   0  3  1  0  0  0  0  0  0  0  0  0
  148.6148  133.7121  154.6006 C   0  0  0  0  0  0  0  0  0  0  0  0
  147.8904  132.3869  154.9077 C   0  0  1  0  0  0  0  0  0  0  0  0
  146.9632  131.9745  153.7553 C   0  0  0  0  0  0  0  0  0  0  0  0
  148.9119  131.2800  155.2249 C   0  0  0  0  0  0  0  0  0  0  0  0
  149.8944  131.7103  156.3294 C   0  0  2  0  0  0  0  0  0  0  0  0
  149.2559  131.7195  157.7297 C   0  0  0  0  0  0  0  0  0  0  0  0
  150.5444  133.0625  155.9758 C   0  0  0  0  0  0  0  0  0  0  0  0
  150.2545  140.2870  154.7304 N   0  0  0  0  0  0  0  0  0  0  0  0
  147.5517  142.2486  154.8929 H   0  0  0  0  0  0  0  0  0  0  0  0
  147.5492  140.6335  154.1919 H   0  0  0  0  0  0  0  0  0  0  0  0
  148.4650  141.9279  153.4227 H   0  0  0  0  0  0  0  0  0  0  0  0
  149.1950  142.3213  157.1309 H   0  0  0  0  0  0  0  0  0  0  0  0
  151.3333  141.7206  158.7474 H   0  0  0  0  0  0  0  0  0  0  0  0
  152.7555  141.4557  157.7411 H   0  0  0  0  0  0  0  0  0  0  0  0
  151.9023  140.0804  158.4487 H   0  0  0  0  0  0  0  0  0  0  0  0
  152.8245  139.5503  154.5530 H   0  0  0  0  0  0  0  0  0  0  0  0
  153.0540  139.4448  156.2857 H   0  0  0  0  0  0  0  0  0  0  0  0
  151.1436  138.0183  157.3431 H   0  0  0  0  0  0  0  0  0  0  0  0
  151.6312  135.3912  157.0699 H   0  0  0  0  0  0  0  0  0  0  0  0
  150.0866  136.0137  157.6004 H   0  0  0  0  0  0  0  0  0  0  0  0
  149.3034  136.1523  155.2243 H   0  0  0  0  0  0  0  0  0  0  0  0
  150.7887  135.4298  154.6560 H   0  0  0  0  0  0  0  0  0  0  0  0
  147.8717  134.4944  154.4394 H   0  0  0  0  0  0  0  0  0  0  0  0
  149.1899  133.6273  153.6766 H   0  0  0  0  0  0  0  0  0  0  0  0
  147.2632  132.5398  155.7868 H   0  0  0  0  0  0  0  0  0  0  0  0
  147.5237  131.8078  152.8348 H   0  0  0  0  0  0  0  0  0  0  0  0
  146.2166  132.7435  153.5555 H   0  0  0  0  0  0  0  0  0  0  0  0
  146.4308  131.0527  153.9913 H   0  0  0  0  0  0  0  0  0  0  0  0
  148.4003  130.3606  155.5127 H   0  0  0  0  0  0  0  0  0  0  0  0
  149.4764  131.0433  154.3216 H   0  0  0  0  0  0  0  0  0  0  0  0
  150.6898  130.9646  156.3618 H   0  0  0  0  0  0  0  0  0  0  0  0
  148.4638  132.4635  157.8138 H   0  0  0  0  0  0  0  0  0  0  0  0
  149.9987  131.9442  158.4956 H   0  0  0  0  0  0  0  0  0  0  0  0
  148.8239  130.7474  157.9697 H   0  0  0  0  0  0  0  0  0  0  0  0
  151.1746  132.9494  155.0921 H   0  0  0  0  0  0  0  0  0  0  0  0
  151.2056  133.3618  156.7879 H   0  0  0  0  0  0  0  0  0  0  0  0
  148.9428  134.1713  156.5363 H   0  0  0  0  0  0  0  0  0  0  0  0
  1  2  1  0  0  0  0
  1 22  1  0  0  0  0
  1 23  1  0  0  0  0
  1 24  1  0  0  0  0
  2 21  2  0  0  0  0
  2  3  1  0  0  0  0
  3  4  2  0  0  0  0
  3 25  1  0  0  0  0
  4  5  1  0  0  0  0
  4  6  1  0  0  0  0
  5 26  1  0  0  0  0
  5 27  1  0  0  0  0
  5 28  1  0  0  0  0
  6  7  1  0  0  0  0
  6 21  1  0  0  0  0
  7  8  1  0  0  0  0
  7 29  1  0  0  0  0
  7 30  1  0  0  0  0
  8  9  2  0  0  0  0
  8 10  1  0  0  0  0
 10 11  1  0  0  0  0
 10 31  1  0  0  0  0
 11 12  1  0  0  0  0
 11 32  1  0  0  0  0
 11 33  1  0  0  0  0
 12 13  1  0  0  0  0
 12 34  1  0  0  0  0
 12 35  1  0  0  0  0
 13 20  1  0  0  0  0
 13 14  1  0  0  0  0
 13 50  1  0  0  0  0
 14 15  1  0  0  0  0
 14 36  1  0  0  0  0
 14 37  1  0  0  0  0
 15 16  1  0  0  0  0
 15 17  1  0  0  0  0
 15 38  1  0  0  0  0
 16 39  1  0  0  0  0
 16 40  1  0  0  0  0
 16 41  1  0  0  0  0
 17 18  1  0  0  0  0
 17 42  1  0  0  0  0
 17 43  1  0  0  0  0
 18 19  1  0  0  0  0
 18 20  1  0  0  0  0
 18 44  1  0  0  0  0
 19 45  1  0  0  0  0
 19 46  1  0  0  0  0
 19 47  1  0  0  0  0
 20 48  1  0  0  0  0
 20 49  1  0  0  0  0
M  CHG  1  13   1
M  END
> <s_m_source_file>
AV-unprocessed.smi

> <i_m_source_file_index>
1475

> <i_lp_mmshare_version>
43012

> <i_f3d_flags>
0

> <s_epik_input>
W0NIM11jMVtjSF1jKFtDSDNdKW4objEpW0NIMl1DKD1PKVtOSF1bQ0gyXVtDSDJdTjJbQ0gyXVtDQEBIXShbQ0gzXSlbQ0gyXVtDQEBIXShbQ0gzXSlbQ0gyXTI=

> <s_epik_cmdline>
J2VwaWtfcHl0aG9uJywgJy1waCcsICc3LjAnLCAnLXRuJywgJzgnLCAnLW1hJywgJzIwMCcsICctbWV0YWxfYmluZGluZycsICctaW1hZScsICc8aW5maWxlLm1hZT4nLCAnLW9tYWUnLCAnPG91dGZpbGUubWFlPic=

> <r_lp_tautomer_probability>
1

> <r_epik_Ionization_Penalty>
0.00206431

> <r_epik_Ionization_Penalty_Charging>
0.00187095

> <r_epik_Ionization_Penalty_Neutral>
0.000193364

> <r_epik_State_Penalty>
-0

> <r_epik_Charging_Adjusted_Penalty>
0.00187095

> <i_epik_Tot_Q>
1

> <i_epik_Tot_abs_Q>
1

> <r_epik_Metal_State_Penalty>
-0

> <b_epik_Metal_Only>
0

> <s_lp_Force_Field>
OPLS_2005

> <r_lp_Energy>
16.2356

> <b_lp_Chiralities_Consistent>
1

> <s_lp_Variant>
AV-unprocessed.smi:1475-3

> <Gold.Version>
5.8.1

> <Gold.Id.Protein>
6NUR|6NUR_protein|mol2

> <Gold.PLP.Fitness>
41.5263

> <Gold.PLP.PLP>
-36.7627

> <Gold.PLP.part.hbond>
-2.0000

> <Gold.PLP.part.metal>
0.0000

> <Gold.PLP.part.buried>
-2.1044

> <Gold.PLP.part.nonpolar>
-33.0963

> <Gold.PLP.part.repulsive>
0.3239

> <Gold.PLP.ligand.clash>
0.0000

> <Gold.PLP.ligand.torsion>
0.2268

> <Gold.PLP.Chemscore.Hbond>
1.7300

> <Gold.PLP.Chemscore.CHOScore>
0.0000

> <Gold.PLP.Chemscore.Metal>
0.0000

> <Gold.Chemscore.Hbonds>
donor molecule, donor type, donor heavy atom, donor atom, acceptor molecule, acceptor atom, score
      P1  H  7989  7998       L1    21  0.45
      P1  H 10752 10765       L1     9  0.93

> <Gold.PLP.Chemscore.Internal.Correction>
0.0273

> <Gold.Rescore>
     Score         DG    S(hbond)    S(metal)    S(lipo)     H(rot)  DE(clash)    DE(int)     intcor
     12.55     -14.26       0.92        0.00      84.68       1.64       0.11       1.60       ----

> <Gold.Chemscore.Fitness>
12.5491

> <Gold.Chemscore.DG>
-14.2588

> <Gold.Chemscore.ZeroCoef>
-5.4800

> <Gold.Chemscore.Hbond>
0.9189

> <Gold.Chemscore.Metal>
0.0000

> <Gold.Chemscore.Lipo>
84.6825

> <Gold.Chemscore.Internal_Hbond>
0.0000

> <Gold.Chemscore.DEClash>
0.1054

> <Gold.Chemscore.DEInternal>
1.6043

> <Gold.Chemscore.Rot>
1.6399

> <Gold.Chemscore.Internal.Correction>
   9.000000E+99

> <Gold.Chemscore.Hbonds>
donor molecule, donor type, donor heavy atom, donor atom, acceptor molecule, acceptor atom, score
      P1  H  7989  7998       L1    21  0.01
      P1  H 10752 10765       L1     9  0.90

> <Gold.Chemscore.Hbond.Weighted>
-3.0691

> <Gold.Chemscore.Metal.Weighted>
-0.0000

> <Gold.Chemscore.Lipo.Weighted>
-9.9079

> <Gold.Chemscore.Internal_Hbond.Weighted>
0.0000

> <Gold.Chemscore.DEClash.Weighted>
0.1054

> <Gold.Chemscore.DEInternal.Weighted>
1.6043

> <Gold.Chemscore.Rot.Weighted>
4.1982

> <Gold.Chemscore.Internal.Correction.Weighted>
   9.000000E+99

> <Gold.Protein.RotatedTorsions>
[ 6907 6896 6895 6894 ] final  158.86 input  -60.11 | X-H torsion
[ 7974 7965 7964 7962 ] final  165.10 input  175.53 | X-H torsion
[ 8008 7997 7996 7995 ] final  142.19 input   59.86 | X-H torsion
[ 10167 10162 10161 10158 ] final   71.28 input  -65.29 | X-H torsion
[ 10718 10713 10712 10709 ] final -104.45 input   66.30 | X-H torsion
[ 10763 10752 10751 10750 ] final  158.55 input  -60.55 | X-H torsion
[ 11005 11000 10999 10996 ] final  146.38 input  -57.11 | X-H torsion

> <Gold.Protein.ActiveResidues>
 VAL166  LYS551  ARG553  GLY616  TRP617  ASP618  TYR619  PRO620  LYS621  CYS622 
 ASP623  PHE694  ASN695  SER759  ASP760  ASP761  ALA762  ILE779  LEU786  VAL792 
 PHE793  MET794  SER795  GLU796  ALA797  LYS798  CYS799  TRP800  GLU811  SER814 

> <Gold.Protein.RotatedAtoms>
  151.9942  133.3802  159.4155 H   0  0  0  0  0  0  0  0  0  0  0  0  # atno 6907 bound_to 6896
  150.6918  134.3904  159.5083 H   0  0  0  0  0  0  0  0  0  0  0  0  # atno 6908 bound_to 6896
  152.1642  134.8887  160.0590 H   0  0  0  0  0  0  0  0  0  0  0  0  # atno 6909 bound_to 6896
  144.7517  139.8422  143.6364 H   0  0  0  0  0  0  0  0  0  0  0  0  # atno 7974 bound_to 7965
  156.2953  140.2295  156.4687 H   0  0  0  0  0  0  0  0  0  0  0  0  # atno 8008 bound_to 7997
  154.7955  140.0451  157.1254 H   0  0  0  0  0  0  0  0  0  0  0  0  # atno 8009 bound_to 7997
  154.9595  140.3052  155.5041 H   0  0  0  0  0  0  0  0  0  0  0  0  # atno 8010 bound_to 7997
  140.0478  144.5337  150.7386 H   0  0  0  0  0  0  0  0  0  0  0  0  # atno 10167 bound_to 10162
  156.0305  130.5516  150.7398 H   0  0  0  0  0  0  0  0  0  0  0  0  # atno 10718 bound_to 10713
  154.2178  135.2783  155.2935 H   0  0  0  0  0  0  0  0  0  0  0  0  # atno 10763 bound_to 10752
  154.5726  135.5614  153.7113 H   0  0  0  0  0  0  0  0  0  0  0  0  # atno 10764 bound_to 10752
  153.0049  135.6325  154.2318 H   0  0  0  0  0  0  0  0  0  0  0  0  # atno 10765 bound_to 10752
  140.0788  134.9109  157.1467 H   0  0  0  0  0  0  0  0  0  0  0  0  # atno 11005 bound_to 11000
  146.1475  139.4548  143.0070 LP  0  0  0  0  0  0  0  0  0  0  0  0  # atno 17320 bound_to 7965
  145.6922  141.0161  143.1549 LP  0  0  0  0  0  0  0  0  0  0  0  0  # atno 17321 bound_to 7965
  140.7231  143.2608  151.4213 LP  0  0  0  0  0  0  0  0  0  0  0  0  # atno 17342 bound_to 10162
  139.5972  144.1371  152.2158 LP  0  0  0  0  0  0  0  0  0  0  0  0  # atno 17343 bound_to 10162
  157.4970  131.0915  151.0360 LP  0  0  0  0  0  0  0  0  0  0  0  0  # atno 17370 bound_to 10713
  157.0751  130.5880  149.5410 LP  0  0  0  0  0  0  0  0  0  0  0  0  # atno 17371 bound_to 10713
  140.3518  134.2590  155.7197 LP  0  0  0  0  0  0  0  0  0  0  0  0  # atno 17394 bound_to 11000
  141.2039  133.7900  157.0314 LP  0  0  0  0  0  0  0  0  0  0  0  0  # atno 17395 bound_to 11000

$$$$
