AV-unprocessed.smi:3188|AV-procd|sdf|12186|dock5
  -GOLD-   2272018 23D 1   1.00000     0.00000
 Structure written by MMmdl.
 40 41  0  0  0  0  0  0  0  0  2 V2000
  153.1040  140.5666  158.9952 C   0  0  0  0  0  0  0  0  0  0  0  0
  152.7887  141.8130  159.8055 C   0  0  0  0  0  0  0  0  0  0  0  0
  153.0446  141.8567  161.1281 C   0  0  0  0  0  0  0  0  0  0  0  0
  152.8094  143.0653  162.0167 C   0  0  0  0  0  0  0  0  0  0  0  0
  152.0517  144.1980  161.3052 C   0  0  0  0  0  0  0  0  0  0  0  0
  152.4904  144.3295  159.8369 C   0  0  2  0  0  0  0  0  0  0  0  0
  151.9312  145.6025  159.1782 C   0  0  0  0  0  0  0  0  0  0  0  0
  152.2074  143.0173  159.0512 C   0  0  2  0  0  0  0  0  0  0  0  0
  150.7061  142.8222  158.7129 C   0  0  0  0  0  0  0  0  0  0  0  0
  150.4493  142.7960  157.2601 N   0  3  0  0  0  0  0  0  0  0  0  0
  149.8647  141.5324  156.7672 C   0  0  0  0  0  0  0  0  0  0  0  0
  150.1312  141.3333  155.2667 C   0  0  0  0  0  0  0  0  0  0  0  0
  150.6387  140.0047  154.9749 N   0  0  0  0  0  0  0  0  0  0  0  0
  150.1517  139.0766  154.0785 C   0  0  0  0  0  0  0  0  0  0  0  0
  150.9924  138.0121  154.2360 C   0  0  0  0  0  0  0  0  0  0  0  0
  151.9408  138.3319  155.2061 N   0  0  0  0  0  0  0  0  0  0  0  0
  151.7220  139.5337  155.6378 N   0  0  0  0  0  0  0  0  0  0  0  0
  153.6271  140.8262  158.0747 H   0  0  0  0  0  0  0  0  0  0  0  0
  152.1978  140.0194  158.7423 H   0  0  0  0  0  0  0  0  0  0  0  0
  153.7433  139.8854  159.5578 H   0  0  0  0  0  0  0  0  0  0  0  0
  153.4739  140.9945  161.6176 H   0  0  0  0  0  0  0  0  0  0  0  0
  152.2714  142.7590  162.9141 H   0  0  0  0  0  0  0  0  0  0  0  0
  153.7857  143.4254  162.3427 H   0  0  0  0  0  0  0  0  0  0  0  0
  150.9790  144.0100  161.3539 H   0  0  0  0  0  0  0  0  0  0  0  0
  152.2180  145.1337  161.8401 H   0  0  0  0  0  0  0  0  0  0  0  0
  153.5745  144.4577  159.8445 H   0  0  0  0  0  0  0  0  0  0  0  0
  150.8451  145.6576  159.2489 H   0  0  0  0  0  0  0  0  0  0  0  0
  152.2071  145.6576  158.1248 H   0  0  0  0  0  0  0  0  0  0  0  0
  152.3276  146.4933  159.6661 H   0  0  0  0  0  0  0  0  0  0  0  0
  152.7527  143.0989  158.1096 H   0  0  0  0  0  0  0  0  0  0  0  0
  150.3410  141.8956  159.1570 H   0  0  0  0  0  0  0  0  0  0  0  0
  150.1038  143.6313  159.1234 H   0  0  0  0  0  0  0  0  0  0  0  0
  149.8267  143.5567  157.0279 H   0  0  0  0  0  0  0  0  0  0  0  0
  150.2764  140.6955  157.3331 H   0  0  0  0  0  0  0  0  0  0  0  0
  148.7897  141.5437  156.9497 H   0  0  0  0  0  0  0  0  0  0  0  0
  149.2077  141.4736  154.7038 H   0  0  0  0  0  0  0  0  0  0  0  0
  150.8371  142.0797  154.8986 H   0  0  0  0  0  0  0  0  0  0  0  0
  149.2947  139.2436  153.4427 H   0  0  0  0  0  0  0  0  0  0  0  0
  150.9932  137.0528  153.7394 H   0  0  0  0  0  0  0  0  0  0  0  0
  151.3279  142.9433  156.7836 H   0  0  0  0  0  0  0  0  0  0  0  0
  1  2  1  0  0  0  0
  1 18  1  0  0  0  0
  1 19  1  0  0  0  0
  1 20  1  0  0  0  0
  2  8  1  0  0  0  0
  2  3  2  0  0  0  0
  3  4  1  0  0  0  0
  3 21  1  0  0  0  0
  4  5  1  0  0  0  0
  4 22  1  0  0  0  0
  4 23  1  0  0  0  0
  5  6  1  0  0  0  0
  5 24  1  0  0  0  0
  5 25  1  0  0  0  0
  6  7  1  0  0  0  0
  6  8  1  0  0  0  0
  6 26  1  0  0  0  0
  7 27  1  0  0  0  0
  7 28  1  0  0  0  0
  7 29  1  0  0  0  0
  8  9  1  0  0  0  0
  8 30  1  0  0  0  0
  9 10  1  0  0  0  0
  9 31  1  0  0  0  0
  9 32  1  0  0  0  0
 10 11  1  0  0  0  0
 10 33  1  0  0  0  0
 10 40  1  0  0  0  0
 11 12  1  0  0  0  0
 11 34  1  0  0  0  0
 11 35  1  0  0  0  0
 12 13  1  0  0  0  0
 12 36  1  0  0  0  0
 12 37  1  0  0  0  0
 13 17  1  0  0  0  0
 13 14  1  0  0  0  0
 14 15  2  0  0  0  0
 14 38  1  0  0  0  0
 15 16  1  0  0  0  0
 15 39  1  0  0  0  0
 16 17  2  0  0  0  0
M  CHG  1  10   1
M  END
> <s_m_source_file>
AV-unprocessed.smi

> <i_m_source_file_index>
3188

> <i_lp_mmshare_version>
43012

> <i_f3d_flags>
0

> <s_epik_input>
W0NIM11DMT1bQ0hdW0NIMl1bQ0gyXVtDQEBIXShbQ0gzXSlbQ0BIXTFbQ0gyXVtOSF1bQ0gyXVtDSDJdbjJbY0hdW2NIXW5uMg==

> <s_epik_cmdline>
J2VwaWtfcHl0aG9uJywgJy1waCcsICc3LjAnLCAnLXRuJywgJzgnLCAnLW1hJywgJzIwMCcsICctbWV0YWxfYmluZGluZycsICctaW1hZScsICc8aW5maWxlLm1hZT4nLCAnLW9tYWUnLCAnPG91dGZpbGUubWFlPic=

> <r_lp_tautomer_probability>
1

> <r_epik_Ionization_Penalty>
0.007268

> <r_epik_Ionization_Penalty_Charging>
0.00726786

> <r_epik_Ionization_Penalty_Neutral>
1.34882e-07

> <r_epik_State_Penalty>
0.00542069

> <r_epik_Charging_Adjusted_Penalty>
0.0126886

> <i_epik_Tot_Q>
1

> <i_epik_Tot_abs_Q>
1

> <r_epik_Metal_State_Penalty>
-0

> <b_epik_Metal_Only>
0

> <s_lp_Force_Field>
OPLS_2005

> <r_lp_Energy>
14.4229

> <b_lp_Chiralities_Consistent>
1

> <s_lp_Variant>
AV-unprocessed.smi:3188-4

> <Gold.Version>
5.8.1

> <Gold.Id.Protein>
6NUR|6NUR_protein|mol2

> <Gold.PLP.Fitness>
52.7328

> <Gold.PLP.PLP>
-44.3735

> <Gold.PLP.part.hbond>
-1.0000

> <Gold.PLP.part.metal>
0.0000

> <Gold.PLP.part.buried>
-1.6304

> <Gold.PLP.part.nonpolar>
-39.6973

> <Gold.PLP.part.repulsive>
0.0406

> <Gold.PLP.ligand.clash>
0.0000

> <Gold.PLP.ligand.torsion>
1.6189

> <Gold.PLP.Chemscore.Hbond>
2.0000

> <Gold.PLP.Chemscore.CHOScore>
1.8379

> <Gold.PLP.Chemscore.Metal>
0.0000

> <Gold.Chemscore.Hbonds>
donor molecule, donor type, donor heavy atom, donor atom, acceptor molecule, acceptor atom, score
      L1  H    10    33       P1  8028  2.00
      L1  C    14    38       P1  7957  0.80
      L1  C    15    39       P1  7948  0.06
      L1  C    15    39       P1  7949  1.00

> <Gold.PLP.Chemscore.Internal.Correction>
0.0834

> <Gold.Rescore>
     Score         DG    S(hbond)    S(metal)    S(lipo)     H(rot)  DE(clash)    DE(int)     intcor
     17.25     -18.94       0.93        0.00     127.57       1.78       0.10       1.60       ----

> <Gold.Chemscore.Fitness>
17.2479

> <Gold.Chemscore.DG>
-18.9432

> <Gold.Chemscore.ZeroCoef>
-5.4800

> <Gold.Chemscore.Hbond>
0.9270

> <Gold.Chemscore.Metal>
0.0000

> <Gold.Chemscore.Lipo>
127.5725

> <Gold.Chemscore.Internal_Hbond>
0.0000

> <Gold.Chemscore.DEClash>
0.0976

> <Gold.Chemscore.DEInternal>
1.5977

> <Gold.Chemscore.Rot>
1.7809

> <Gold.Chemscore.Internal.Correction>
   9.000000E+99

> <Gold.Chemscore.Hbonds>
donor molecule, donor type, donor heavy atom, donor atom, acceptor molecule, acceptor atom, score
      L1  H    10    33       P1  8028  0.89

> <Gold.Chemscore.Hbond.Weighted>
-3.0962

> <Gold.Chemscore.Metal.Weighted>
-0.0000

> <Gold.Chemscore.Lipo.Weighted>
-14.9260

> <Gold.Chemscore.Internal_Hbond.Weighted>
0.0000

> <Gold.Chemscore.DEClash.Weighted>
0.0976

> <Gold.Chemscore.DEInternal.Weighted>
1.5977

> <Gold.Chemscore.Rot.Weighted>
4.5590

> <Gold.Chemscore.Internal.Correction.Weighted>
   9.000000E+99

> <Gold.Protein.RotatedTorsions>
[ 6907 6896 6895 6894 ] final -132.80 input  -60.11 | X-H torsion
[ 7974 7965 7964 7962 ] final  -37.45 input  175.53 | X-H torsion
[ 8008 7997 7996 7995 ] final   59.00 input   59.86 | X-H torsion
[ 10167 10162 10161 10158 ] final -127.46 input  -65.29 | X-H torsion
[ 10718 10713 10712 10709 ] final    7.94 input   66.30 | X-H torsion
[ 10763 10752 10751 10750 ] final   21.64 input  -60.55 | X-H torsion
[ 11005 11000 10999 10996 ] final -122.53 input  -57.11 | X-H torsion

> <Gold.Protein.ActiveResidues>
 VAL166  LYS551  ARG553  GLY616  TRP617  ASP618  TYR619  PRO620  LYS621  CYS622 
 ASP623  PHE694  ASN695  SER759  ASP760  ASP761  ALA762  ILE779  LEU786  VAL792 
 PHE793  MET794  SER795  GLU796  ALA797  LYS798  CYS799  TRP800  GLU811  SER814 

> <Gold.Protein.RotatedAtoms>
  150.9666  133.6389  159.2744 H   0  0  0  0  0  0  0  0  0  0  0  0  # atno 6907 bound_to 6896
  151.3692  135.0918  159.9470 H   0  0  0  0  0  0  0  0  0  0  0  0  # atno 6908 bound_to 6896
  152.5167  133.9223  159.7595 H   0  0  0  0  0  0  0  0  0  0  0  0  # atno 6909 bound_to 6896
  146.0574  140.6397  142.9013 H   0  0  0  0  0  0  0  0  0  0  0  0  # atno 7974 bound_to 7965
  155.5590  140.3488  155.4487 H   0  0  0  0  0  0  0  0  0  0  0  0  # atno 8008 bound_to 7997
  156.0528  140.1321  157.0057 H   0  0  0  0  0  0  0  0  0  0  0  0  # atno 8009 bound_to 7997
  154.4442  140.1001  156.6386 H   0  0  0  0  0  0  0  0  0  0  0  0  # atno 8010 bound_to 7997
  139.9606  143.5954  152.2446 H   0  0  0  0  0  0  0  0  0  0  0  0  # atno 10167 bound_to 10162
  156.9443  130.5873  149.5654 H   0  0  0  0  0  0  0  0  0  0  0  0  # atno 10718 bound_to 10713
  153.0978  135.6664  153.9729 H   0  0  0  0  0  0  0  0  0  0  0  0  # atno 10763 bound_to 10752
  153.9308  135.3004  155.3447 H   0  0  0  0  0  0  0  0  0  0  0  0  # atno 10764 bound_to 10752
  154.7398  135.5085  153.9178 H   0  0  0  0  0  0  0  0  0  0  0  0  # atno 10765 bound_to 10752
  140.9988  134.0433  157.3564 H   0  0  0  0  0  0  0  0  0  0  0  0  # atno 11005 bound_to 11000
  144.7155  140.4195  143.7047 LP  0  0  0  0  0  0  0  0  0  0  0  0  # atno 17320 bound_to 7965
  145.6620  139.1583  143.2803 LP  0  0  0  0  0  0  0  0  0  0  0  0  # atno 17321 bound_to 7965
  139.6557  144.7662  151.2061 LP  0  0  0  0  0  0  0  0  0  0  0  0  # atno 17342 bound_to 10162
  140.7554  143.6090  150.8624 LP  0  0  0  0  0  0  0  0  0  0  0  0  # atno 17343 bound_to 10162
  156.0391  130.5475  150.8726 LP  0  0  0  0  0  0  0  0  0  0  0  0  # atno 17370 bound_to 10713
  157.5764  131.0946  150.9338 LP  0  0  0  0  0  0  0  0  0  0  0  0  # atno 17371 bound_to 10713
  139.9028  135.0170  156.7349 LP  0  0  0  0  0  0  0  0  0  0  0  0  # atno 17394 bound_to 11000
  140.6922  133.9380  155.7973 LP  0  0  0  0  0  0  0  0  0  0  0  0  # atno 17395 bound_to 11000

$$$$
