AV-unprocessed.smi:1423|AV-procd|sdf|5794|dock4
  -GOLD-   22720 5443D 1   1.00000     0.00000
 Structure written by MMmdl.
 43 44  0  0  0  0  0  0  0  0  1 V2000
  153.3333  143.4108  163.8016 C   0  0  0  0  0  0  0  0  0  0  0  0
  153.7118  142.4663  162.8060 O   0  0  0  0  0  0  0  0  0  0  0  0
  153.0080  142.4482  161.6193 C   0  0  0  0  0  0  0  0  0  0  0  0
  153.1901  141.3606  160.7426 C   0  0  0  0  0  0  0  0  0  0  0  0
  152.4752  141.3338  159.5294 C   0  0  0  0  0  0  0  0  0  0  0  0
  151.5928  142.4007  159.2308 C   0  0  0  0  0  0  0  0  0  0  0  0
  150.8046  142.5069  158.0509 N   0  0  0  0  0  0  0  0  0  0  0  0
  150.6624  141.6413  157.0320 C   0  0  0  0  0  0  0  0  0  0  0  0
  151.2544  140.5696  156.9112 O   0  0  0  0  0  0  0  0  0  0  0  0
  149.7743  142.0972  156.1372 N   0  0  0  0  0  0  0  0  0  0  0  0
  149.3672  141.3978  154.9223 C   0  0  0  0  0  0  0  0  0  0  0  0
  148.0443  141.9600  154.3786 C   0  0  0  0  0  0  0  0  0  0  0  0
  147.5512  141.1397  153.1738 C   0  0  0  0  0  0  0  0  0  0  0  0
  147.3754  139.7297  153.5386 N   0  0  0  0  0  0  0  0  0  0  0  0
  146.7899  139.0020  152.3889 C   0  0  0  0  0  0  0  0  0  0  0  0
  146.1238  137.6675  152.7474 C   0  0  0  0  0  0  0  0  0  0  0  0
  145.2809  137.1471  151.8521 N   0  0  0  0  0  0  0  0  0  0  0  0
  146.3702  137.1132  153.8164 O   0  0  0  0  0  0  0  0  0  0  0  0
  148.6543  139.1533  153.9797 C   0  0  0  0  0  0  0  0  0  0  0  0
  149.1876  139.9020  155.2142 C   0  0  0  0  0  0  0  0  0  0  0  0
  151.4859  143.4425  160.1756 C   0  0  0  0  0  0  0  0  0  0  0  0
  152.1686  143.4750  161.3390 N   0  0  0  0  0  0  0  0  0  0  0  0
  153.9800  143.2976  164.6714 H   0  0  0  0  0  0  0  0  0  0  0  0
  152.3054  143.2538  164.1320 H   0  0  0  0  0  0  0  0  0  0  0  0
  153.4408  144.4346  163.4403 H   0  0  0  0  0  0  0  0  0  0  0  0
  153.8684  140.5593  160.9958 H   0  0  0  0  0  0  0  0  0  0  0  0
  152.6258  140.4978  158.8662 H   0  0  0  0  0  0  0  0  0  0  0  0
  150.2471  143.3463  157.9884 H   0  0  0  0  0  0  0  0  0  0  0  0
  149.3375  142.9900  156.3134 H   0  0  0  0  0  0  0  0  0  0  0  0
  150.1432  141.5085  154.1623 H   0  0  0  0  0  0  0  0  0  0  0  0
  147.2834  141.9504  155.1606 H   0  0  0  0  0  0  0  0  0  0  0  0
  148.1715  143.0024  154.0840 H   0  0  0  0  0  0  0  0  0  0  0  0
  146.6015  141.5537  152.8328 H   0  0  0  0  0  0  0  0  0  0  0  0
  148.2536  141.2324  152.3433 H   0  0  0  0  0  0  0  0  0  0  0  0
  146.0233  139.6222  151.9220 H   0  0  0  0  0  0  0  0  0  0  0  0
  147.5579  138.8376  151.6303 H   0  0  0  0  0  0  0  0  0  0  0  0
  144.8196  136.2697  152.0430 H   0  0  0  0  0  0  0  0  0  0  0  0
  145.1090  137.6345  150.9845 H   0  0  0  0  0  0  0  0  0  0  0  0
  148.5369  138.1037  154.2488 H   0  0  0  0  0  0  0  0  0  0  0  0
  149.3838  139.1918  153.1688 H   0  0  0  0  0  0  0  0  0  0  0  0
  150.1376  139.4666  155.5263 H   0  0  0  0  0  0  0  0  0  0  0  0
  148.4957  139.7631  156.0468 H   0  0  0  0  0  0  0  0  0  0  0  0
  150.8276  144.2798  159.9947 H   0  0  0  0  0  0  0  0  0  0  0  0
  1  2  1  0  0  0  0
  1 23  1  0  0  0  0
  1 24  1  0  0  0  0
  1 25  1  0  0  0  0
  2  3  1  0  0  0  0
  3 22  1  0  0  0  0
  3  4  2  0  0  0  0
  4  5  1  0  0  0  0
  4 26  1  0  0  0  0
  5  6  2  0  0  0  0
  5 27  1  0  0  0  0
  6  7  1  0  0  0  0
  6 21  1  0  0  0  0
  7  8  1  0  0  0  0
  7 28  1  0  0  0  0
  8  9  2  0  0  0  0
  8 10  1  0  0  0  0
 10 11  1  0  0  0  0
 10 29  1  0  0  0  0
 11 20  1  0  0  0  0
 11 12  1  0  0  0  0
 11 30  1  0  0  0  0
 12 13  1  0  0  0  0
 12 31  1  0  0  0  0
 12 32  1  0  0  0  0
 13 14  1  0  0  0  0
 13 33  1  0  0  0  0
 13 34  1  0  0  0  0
 14 15  1  0  0  0  0
 14 19  1  0  0  0  0
 15 16  1  0  0  0  0
 15 35  1  0  0  0  0
 15 36  1  0  0  0  0
 16 17  1  0  0  0  0
 16 18  2  0  0  0  0
 17 37  1  0  0  0  0
 17 38  1  0  0  0  0
 19 20  1  0  0  0  0
 19 39  1  0  0  0  0
 19 40  1  0  0  0  0
 20 41  1  0  0  0  0
 20 42  1  0  0  0  0
 21 22  2  0  0  0  0
 21 43  1  0  0  0  0
M  END
> <s_m_source_file>
AV-unprocessed.smi

> <i_m_source_file_index>
1423

> <i_lp_mmshare_version>
43012

> <i_f3d_flags>
0

> <s_epik_input>
W0NIM11PYzFbY0hdW2NIXWMoW2NIXW4xKVtOSF1DKD1PKVtOSF1bQ0hdMltDSDJdW0NIMl1OKFtDSDJdW0NIMl0yKVtDSDJdQyg9TylbTkgyXQ==

> <s_epik_cmdline>
J2VwaWtfcHl0aG9uJywgJy1waCcsICc3LjAnLCAnLXRuJywgJzgnLCAnLW1hJywgJzIwMCcsICctbWV0YWxfYmluZGluZycsICctaW1hZScsICc8aW5maWxlLm1hZT4nLCAnLW9tYWUnLCAnPG91dGZpbGUubWFlPic=

> <r_lp_tautomer_probability>
1

> <r_epik_Ionization_Penalty>
0.16483

> <r_epik_Ionization_Penalty_Charging>
0

> <r_epik_Ionization_Penalty_Neutral>
0.16483

> <r_epik_State_Penalty>
0.154069

> <r_epik_Charging_Adjusted_Penalty>
0.154069

> <i_epik_Tot_Q>
0

> <i_epik_Tot_abs_Q>
0

> <r_epik_Metal_State_Penalty>
0.171364

> <b_epik_Metal_Only>
0

> <s_lp_Force_Field>
OPLS_2005

> <r_lp_Energy>
14.563

> <b_lp_Chiralities_Consistent>
1

> <s_lp_Variant>
AV-unprocessed.smi:1423-1

> <Gold.Version>
5.8.1

> <Gold.Id.Protein>
6NUR|6NUR_protein|mol2

> <Gold.PLP.Fitness>
44.1878

> <Gold.PLP.PLP>
-39.7635

> <Gold.PLP.part.hbond>
-2.7925

> <Gold.PLP.part.metal>
0.0000

> <Gold.PLP.part.buried>
-1.8273

> <Gold.PLP.part.nonpolar>
-34.7236

> <Gold.PLP.part.repulsive>
0.6286

> <Gold.PLP.ligand.clash>
0.0000

> <Gold.PLP.ligand.torsion>
0.7918

> <Gold.PLP.Chemscore.Hbond>
2.0000

> <Gold.PLP.Chemscore.CHOScore>
0.0000

> <Gold.PLP.Chemscore.Metal>
0.0000

> <Gold.Chemscore.Hbonds>
donor molecule, donor type, donor heavy atom, donor atom, acceptor molecule, acceptor atom, score
      L1  H    10    29       P1  8028  0.96
      L1  H    17    38       P1 10171  0.99

> <Gold.PLP.Chemscore.Internal.Correction>
0.0079

> <Gold.Rescore>
     Score         DG    S(hbond)    S(metal)    S(lipo)     H(rot)  DE(clash)    DE(int)     intcor
     12.59     -16.91       1.95        0.00      92.28       2.29       0.84       3.48       ----

> <Gold.Chemscore.Fitness>
12.5930

> <Gold.Chemscore.DG>
-16.9116

> <Gold.Chemscore.ZeroCoef>
-5.4800

> <Gold.Chemscore.Hbond>
1.9489

> <Gold.Chemscore.Metal>
0.0000

> <Gold.Chemscore.Lipo>
92.2835

> <Gold.Chemscore.Internal_Hbond>
0.0000

> <Gold.Chemscore.DEClash>
0.8428

> <Gold.Chemscore.DEInternal>
3.4759

> <Gold.Chemscore.Rot>
2.2949

> <Gold.Chemscore.Internal.Correction>
   9.000000E+99

> <Gold.Chemscore.Hbonds>
donor molecule, donor type, donor heavy atom, donor atom, acceptor molecule, acceptor atom, score
      L1  H    10    29       P1  8028  0.92
      L1  H    17    38       P1 10171  0.93

> <Gold.Chemscore.Hbond.Weighted>
-6.5095

> <Gold.Chemscore.Metal.Weighted>
-0.0000

> <Gold.Chemscore.Lipo.Weighted>
-10.7972

> <Gold.Chemscore.Internal_Hbond.Weighted>
0.0000

> <Gold.Chemscore.DEClash.Weighted>
0.8428

> <Gold.Chemscore.DEInternal.Weighted>
3.4759

> <Gold.Chemscore.Rot.Weighted>
5.8750

> <Gold.Chemscore.Internal.Correction.Weighted>
   9.000000E+99

> <Gold.Protein.RotatedTorsions>
[ 6907 6896 6895 6894 ] final  137.25 input  -60.11 | X-H torsion
[ 7974 7965 7964 7962 ] final  164.07 input  175.53 | X-H torsion
[ 8008 7997 7996 7995 ] final  -88.77 input   59.86 | X-H torsion
[ 10167 10162 10161 10158 ] final  -65.11 input  -65.29 | X-H torsion
[ 10718 10713 10712 10709 ] final  -87.69 input   66.30 | X-H torsion
[ 10763 10752 10751 10750 ] final -177.79 input  -60.55 | X-H torsion
[ 11005 11000 10999 10996 ] final    7.38 input  -57.11 | X-H torsion

> <Gold.Protein.ActiveResidues>
 VAL166  LYS551  ARG553  GLY616  TRP617  ASP618  TYR619  PRO620  LYS621  CYS622 
 ASP623  PHE694  ASN695  SER759  ASP760  ASP761  ALA762  ILE779  LEU786  VAL792 
 PHE793  MET794  SER795  GLU796  ALA797  LYS798  CYS799  TRP800  GLU811  SER814 

> <Gold.Protein.RotatedAtoms>
  152.2801  133.5463  159.5492 H   0  0  0  0  0  0  0  0  0  0  0  0  # atno 6907 bound_to 6896
  150.7193  134.0575  159.3829 H   0  0  0  0  0  0  0  0  0  0  0  0  # atno 6908 bound_to 6896
  151.8486  135.0565  160.0507 H   0  0  0  0  0  0  0  0  0  0  0  0  # atno 6909 bound_to 6896
  144.7561  139.8274  143.6349 H   0  0  0  0  0  0  0  0  0  0  0  0  # atno 7974 bound_to 7965
  154.6787  140.0549  157.0243 H   0  0  0  0  0  0  0  0  0  0  0  0  # atno 8008 bound_to 7997
  155.0983  140.3226  155.4535 H   0  0  0  0  0  0  0  0  0  0  0  0  # atno 8009 bound_to 7997
  156.2686  140.2036  156.6109 H   0  0  0  0  0  0  0  0  0  0  0  0  # atno 8010 bound_to 7997
  140.5753  143.2321  151.6454 H   0  0  0  0  0  0  0  0  0  0  0  0  # atno 10167 bound_to 10162
  155.9985  130.4809  150.4906 H   0  0  0  0  0  0  0  0  0  0  0  0  # atno 10718 bound_to 10713
  154.5558  135.2816  155.0966 H   0  0  0  0  0  0  0  0  0  0  0  0  # atno 10763 bound_to 10752
  154.2394  135.6359  153.5206 H   0  0  0  0  0  0  0  0  0  0  0  0  # atno 10764 bound_to 10752
  153.0015  135.5556  154.6137 H   0  0  0  0  0  0  0  0  0  0  0  0  # atno 10765 bound_to 10752
  140.5488  134.0303  155.7929 H   0  0  0  0  0  0  0  0  0  0  0  0  # atno 11005 bound_to 11000
  146.1573  139.4675  143.0011 LP  0  0  0  0  0  0  0  0  0  0  0  0  # atno 17320 bound_to 7965
  145.6775  141.0200  143.1624 LP  0  0  0  0  0  0  0  0  0  0  0  0  # atno 17321 bound_to 7965
  139.5139  144.3427  152.0726 LP  0  0  0  0  0  0  0  0  0  0  0  0  # atno 17342 bound_to 10162
  140.2569  144.4109  150.6200 LP  0  0  0  0  0  0  0  0  0  0  0  0  # atno 17343 bound_to 10162
  157.2901  131.0624  151.2139 LP  0  0  0  0  0  0  0  0  0  0  0  0  # atno 17370 bound_to 10713
  157.3155  130.6911  149.6239 LP  0  0  0  0  0  0  0  0  0  0  0  0  # atno 17371 bound_to 10713
  141.1184  133.9503  157.2778 LP  0  0  0  0  0  0  0  0  0  0  0  0  # atno 17394 bound_to 11000
  139.9466  135.0183  156.8869 LP  0  0  0  0  0  0  0  0  0  0  0  0  # atno 17395 bound_to 11000

$$$$
