AV-unprocessed.smi:2857|AV-procd|sdf|10998|dock1
  -GOLD-   2272015453D 1   1.00000     0.00000
 Structure written by MMmdl.
 44 46  0  0  0  0  0  0  0  0  1 V2000
  154.0798  140.1767  160.6989 C   0  0  0  0  0  0  0  0  0  0  0  0
  153.2657  141.4536  160.6566 C   0  0  0  0  0  0  0  0  0  0  0  0
  153.3408  142.3820  161.7127 C   0  0  0  0  0  0  0  0  0  0  0  0
  152.5808  143.5644  161.6634 C   0  0  0  0  0  0  0  0  0  0  0  0
  151.7410  143.8255  160.5608 C   0  0  0  0  0  0  0  0  0  0  0  0
  150.9296  145.1068  160.5234 C   0  0  0  0  0  0  0  0  0  0  0  0
  151.6539  142.9007  159.4945 C   0  0  0  0  0  0  0  0  0  0  0  0
  150.8104  143.2150  158.4481 O   0  0  0  0  0  0  0  0  0  0  0  0
  150.5865  142.2338  157.4456 C   0  0  0  0  0  0  0  0  0  0  0  0
  149.1109  141.7961  157.4815 C   0  0  1  0  0  0  0  0  0  0  0  0
  148.4751  142.2732  156.3132 O   0  0  0  0  0  0  0  0  0  0  0  0
  148.9145  140.2658  157.5124 C   0  0  0  0  0  0  0  0  0  0  0  0
  149.3920  139.6060  156.3061 N   0  0  0  0  0  0  0  0  0  0  0  0
  148.7964  139.8782  155.1165 N   0  0  0  0  0  0  0  0  0  0  0  0
  149.4313  139.1336  154.2136 C   0  0  0  0  0  0  0  0  0  0  0  0
  150.4626  138.3495  154.7995 C   0  0  0  0  0  0  0  0  0  0  0  0
  151.4348  137.3808  154.3025 C   0  0  0  0  0  0  0  0  0  0  0  0
  152.2457  136.8336  155.1532 N   0  0  0  0  0  0  0  0  0  0  0  0
  152.1977  137.1552  156.5145 N   0  0  0  0  0  0  0  0  0  0  0  0
  153.1701  136.4484  157.3450 C   0  0  0  0  0  0  0  0  0  0  0  0
  151.3305  138.0481  157.0793 C   0  0  0  0  0  0  0  0  0  0  0  0
  151.2983  138.3108  158.2816 O   0  0  0  0  0  0  0  0  0  0  0  0
  150.4012  138.6823  156.1125 C   0  0  0  0  0  0  0  0  0  0  0  0
  152.4265  141.7120  159.5546 C   0  0  0  0  0  0  0  0  0  0  0  0
  154.7807  140.1786  161.5342 H   0  0  0  0  0  0  0  0  0  0  0  0
  154.6511  140.0601  159.7774 H   0  0  0  0  0  0  0  0  0  0  0  0
  153.4214  139.3143  160.8066 H   0  0  0  0  0  0  0  0  0  0  0  0
  153.9793  142.1924  162.5631 H   0  0  0  0  0  0  0  0  0  0  0  0
  152.6457  144.2711  162.4776 H   0  0  0  0  0  0  0  0  0  0  0  0
  149.8673  144.8807  160.4265 H   0  0  0  0  0  0  0  0  0  0  0  0
  151.2294  145.7180  159.6718 H   0  0  0  0  0  0  0  0  0  0  0  0
  151.0686  145.6956  161.4305 H   0  0  0  0  0  0  0  0  0  0  0  0
  150.8577  142.6024  156.4545 H   0  0  0  0  0  0  0  0  0  0  0  0
  151.2274  141.3834  157.6749 H   0  0  0  0  0  0  0  0  0  0  0  0
  148.6202  142.2338  158.3520 H   0  0  0  0  0  0  0  0  0  0  0  0
  148.4501  143.2171  156.3488 H   0  0  0  0  0  0  0  0  0  0  0  0
  149.4489  139.8415  158.3641 H   0  0  0  0  0  0  0  0  0  0  0  0
  147.8653  140.0147  157.6643 H   0  0  0  0  0  0  0  0  0  0  0  0
  149.1233  139.1845  153.1796 H   0  0  0  0  0  0  0  0  0  0  0  0
  151.4723  137.1278  153.2431 H   0  0  0  0  0  0  0  0  0  0  0  0
  153.8705  137.1525  157.7963 H   0  0  0  0  0  0  0  0  0  0  0  0
  153.7511  135.7263  156.7692 H   0  0  0  0  0  0  0  0  0  0  0  0
  152.6700  135.9019  158.1460 H   0  0  0  0  0  0  0  0  0  0  0  0
  152.3919  140.9778  158.7638 H   0  0  0  0  0  0  0  0  0  0  0  0
  1  2  1  0  0  0  0
  1 25  1  0  0  0  0
  1 26  1  0  0  0  0
  1 27  1  0  0  0  0
  2 24  1  0  0  0  0
  2  3  2  0  0  0  0
  3  4  1  0  0  0  0
  3 28  1  0  0  0  0
  4  5  2  0  0  0  0
  4 29  1  0  0  0  0
  5  6  1  0  0  0  0
  5  7  1  0  0  0  0
  6 30  1  0  0  0  0
  6 31  1  0  0  0  0
  6 32  1  0  0  0  0
  7  8  1  0  0  0  0
  7 24  2  0  0  0  0
  8  9  1  0  0  0  0
  9 10  1  0  0  0  0
  9 33  1  0  0  0  0
  9 34  1  0  0  0  0
 10 11  1  0  0  0  0
 10 12  1  0  0  0  0
 10 35  1  0  0  0  0
 11 36  1  0  0  0  0
 12 13  1  0  0  0  0
 12 37  1  0  0  0  0
 12 38  1  0  0  0  0
 13 23  1  0  0  0  0
 13 14  1  0  0  0  0
 14 15  2  0  0  0  0
 15 16  1  0  0  0  0
 15 39  1  0  0  0  0
 16 23  2  0  0  0  0
 16 17  1  0  0  0  0
 17 18  2  0  0  0  0
 17 40  1  0  0  0  0
 18 19  1  0  0  0  0
 19 20  1  0  0  0  0
 19 21  1  0  0  0  0
 20 41  1  0  0  0  0
 20 42  1  0  0  0  0
 20 43  1  0  0  0  0
 21 22  2  0  0  0  0
 21 23  1  0  0  0  0
 24 44  1  0  0  0  0
M  END
> <s_m_source_file>
AV-unprocessed.smi

> <i_m_source_file_index>
2857

> <i_lp_mmshare_version>
43012

> <i_f3d_flags>
0

> <s_epik_input>
W0NIM11jMVtjSF1bY0hdYyhbQ0gzXSljKFtjSF0xKU9bQ0gyXVtDQEhdKFtPSF0pW0NIMl1uKG5bY0hdMiljKGMyMyljKD1PKW4oW0NIM10pbltjSF0z

> <s_epik_cmdline>
J2VwaWtfcHl0aG9uJywgJy1waCcsICc3LjAnLCAnLXRuJywgJzgnLCAnLW1hJywgJzIwMCcsICctbWV0YWxfYmluZGluZycsICctaW1hZScsICc8aW5maWxlLm1hZT4nLCAnLW9tYWUnLCAnPG91dGZpbGUubWFlPic=

> <r_lp_tautomer_probability>
1

> <r_epik_Ionization_Penalty>
2.24607e-06

> <r_epik_Ionization_Penalty_Charging>
1.42095e-10

> <r_epik_Ionization_Penalty_Neutral>
2.24593e-06

> <r_epik_State_Penalty>
-0

> <r_epik_Charging_Adjusted_Penalty>
1.42095e-10

> <i_epik_Tot_Q>
0

> <i_epik_Tot_abs_Q>
0

> <r_epik_Metal_State_Penalty>
-0

> <b_epik_Metal_Only>
0

> <s_lp_Force_Field>
OPLS_2005

> <r_lp_Energy>
31.6427

> <b_lp_Chiralities_Consistent>
1

> <s_lp_Variant>
AV-unprocessed.smi:2857-2

> <Gold.Version>
5.8.1

> <Gold.Id.Protein>
6NUR|6NUR_protein|mol2

> <Gold.PLP.Fitness>
49.9551

> <Gold.PLP.PLP>
-40.2560

> <Gold.PLP.part.hbond>
-1.7989

> <Gold.PLP.part.metal>
0.0000

> <Gold.PLP.part.buried>
-5.2070

> <Gold.PLP.part.nonpolar>
-33.9346

> <Gold.PLP.part.repulsive>
0.2500

> <Gold.PLP.ligand.clash>
0.0000

> <Gold.PLP.ligand.torsion>
1.1480

> <Gold.PLP.Chemscore.Hbond>
1.9600

> <Gold.PLP.Chemscore.CHOScore>
2.0000

> <Gold.PLP.Chemscore.Metal>
0.0000

> <Gold.Chemscore.Hbonds>
donor molecule, donor type, donor heavy atom, donor atom, acceptor molecule, acceptor atom, score
      L1  H    11    36       P1  8028  0.99
      P1  H 10752 10765       L1    18  0.86
      L1  C    15    39       P1  7957  1.00
      L1  C    17    40       P1  7949  1.00

> <Gold.PLP.Chemscore.Internal.Correction>
0.1150

> <Gold.Rescore>
     Score         DG    S(hbond)    S(metal)    S(lipo)     H(rot)  DE(clash)    DE(int)     intcor
     17.12     -19.74       1.73        0.00     123.34       2.32       0.01       2.61       ----

> <Gold.Chemscore.Fitness>
17.1180

> <Gold.Chemscore.DG>
-19.7411

> <Gold.Chemscore.ZeroCoef>
-5.4800

> <Gold.Chemscore.Hbond>
1.7300

> <Gold.Chemscore.Metal>
0.0000

> <Gold.Chemscore.Lipo>
123.3448

> <Gold.Chemscore.Internal_Hbond>
0.0000

> <Gold.Chemscore.DEClash>
0.0085

> <Gold.Chemscore.DEInternal>
2.6146

> <Gold.Chemscore.Rot>
2.3236

> <Gold.Chemscore.Internal.Correction>
   9.000000E+99

> <Gold.Chemscore.Hbonds>
donor molecule, donor type, donor heavy atom, donor atom, acceptor molecule, acceptor atom, score
      L1  H    11    36       P1  8028  0.70
      P1  H 10752 10765       L1    18  0.74

> <Gold.Chemscore.Hbond.Weighted>
-5.7781

> <Gold.Chemscore.Metal.Weighted>
-0.0000

> <Gold.Chemscore.Lipo.Weighted>
-14.4313

> <Gold.Chemscore.Internal_Hbond.Weighted>
0.0000

> <Gold.Chemscore.DEClash.Weighted>
0.0085

> <Gold.Chemscore.DEInternal.Weighted>
2.6146

> <Gold.Chemscore.Rot.Weighted>
5.9484

> <Gold.Chemscore.Internal.Correction.Weighted>
   9.000000E+99

> <Gold.Protein.RotatedTorsions>
[ 6907 6896 6895 6894 ] final   43.07 input  -60.11 | X-H torsion
[ 7974 7965 7964 7962 ] final   46.98 input  175.53 | X-H torsion
[ 8008 7997 7996 7995 ] final  -29.26 input   59.86 | X-H torsion
[ 10167 10162 10161 10158 ] final -100.12 input  -65.29 | X-H torsion
[ 10718 10713 10712 10709 ] final  138.07 input   66.30 | X-H torsion
[ 10763 10752 10751 10750 ] final -173.13 input  -60.55 | X-H torsion
[ 11005 11000 10999 10996 ] final  121.43 input  -57.11 | X-H torsion

> <Gold.Protein.ActiveResidues>
 VAL166  LYS551  ARG553  GLY616  TRP617  ASP618  TYR619  PRO620  LYS621  CYS622 
 ASP623  PHE694  ASN695  SER759  ASP760  ASP761  ALA762  ILE779  LEU786  VAL792 
 PHE793  MET794  SER795  GLU796  ALA797  LYS798  CYS799  TRP800  GLU811  SER814 

> <Gold.Protein.RotatedAtoms>
  152.2157  134.8460  160.0491 H   0  0  0  0  0  0  0  0  0  0  0  0  # atno 6907 bound_to 6896
  151.9262  133.3593  159.3922 H   0  0  0  0  0  0  0  0  0  0  0  0  # atno 6908 bound_to 6896
  150.6987  134.4509  159.5380 H   0  0  0  0  0  0  0  0  0  0  0  0  # atno 6909 bound_to 6896
  146.0340  139.4798  142.9820 H   0  0  0  0  0  0  0  0  0  0  0  0  # atno 7974 bound_to 7965
  154.4297  140.1823  156.1220 H   0  0  0  0  0  0  0  0  0  0  0  0  # atno 8008 bound_to 7997
  156.0136  140.3348  155.6940 H   0  0  0  0  0  0  0  0  0  0  0  0  # atno 8009 bound_to 7997
  155.6076  140.0647  157.2706 H   0  0  0  0  0  0  0  0  0  0  0  0  # atno 8010 bound_to 7997
  140.2553  143.3445  152.0677 H   0  0  0  0  0  0  0  0  0  0  0  0  # atno 10167 bound_to 10162
  157.4292  131.1047  151.0268 H   0  0  0  0  0  0  0  0  0  0  0  0  # atno 10718 bound_to 10713
  154.6114  135.2865  155.0428 H   0  0  0  0  0  0  0  0  0  0  0  0  # atno 10763 bound_to 10752
  154.1656  135.6481  153.5000 H   0  0  0  0  0  0  0  0  0  0  0  0  # atno 10764 bound_to 10752
  153.0197  135.5388  154.6869 H   0  0  0  0  0  0  0  0  0  0  0  0  # atno 10765 bound_to 10752
  139.9226  134.9639  156.7957 H   0  0  0  0  0  0  0  0  0  0  0  0  # atno 11005 bound_to 11000
  145.6994  141.0140  143.1512 LP  0  0  0  0  0  0  0  0  0  0  0  0  # atno 17320 bound_to 7965
  144.7043  139.8627  143.7435 LP  0  0  0  0  0  0  0  0  0  0  0  0  # atno 17321 bound_to 7965
  139.5033  144.6753  151.6142 LP  0  0  0  0  0  0  0  0  0  0  0  0  # atno 17342 bound_to 10162
  140.6009  143.9612  150.6385 LP  0  0  0  0  0  0  0  0  0  0  0  0  # atno 17343 bound_to 10162
  157.1171  130.6046  149.5496 LP  0  0  0  0  0  0  0  0  0  0  0  0  # atno 17370 bound_to 10713
  155.9907  130.4959  150.7269 LP  0  0  0  0  0  0  0  0  0  0  0  0  # atno 17371 bound_to 10713
  140.6430  133.9800  155.7717 LP  0  0  0  0  0  0  0  0  0  0  0  0  # atno 17394 bound_to 11000
  141.0758  134.0136  157.3459 LP  0  0  0  0  0  0  0  0  0  0  0  0  # atno 17395 bound_to 11000

$$$$
