AV-unprocessed.smi:287|AV-procd|sdf|2205|dock6
  -GOLD-   2262022 33D 1   1.00000     0.00000
 Structure written by MMmdl.
 55 58  0  0  0  0  0  0  0  0  1 V2000
  154.4742  140.4899  160.5438 C   0  0  0  0  0  0  0  0  0  0  0  0
  153.4480  141.3215  159.8542 C   0  0  0  0  0  0  0  0  0  0  0  0
  152.5876  141.0938  158.8204 C   0  0  0  0  0  0  0  0  0  0  0  0
  151.8510  142.2967  158.6056 C   0  0  0  0  0  0  0  0  0  0  0  0
  150.7835  142.5075  157.5397 C   0  0  1  0  0  0  0  0  0  0  0  0
  149.4293  142.8038  158.2057 C   0  0  0  0  0  0  0  0  0  0  0  0
  151.0431  143.6248  156.7120 O   0  0  0  0  0  0  0  0  0  0  0  0
  150.6587  141.2917  156.5930 C   0  0  0  0  0  0  0  0  0  0  0  0
  149.9874  141.6203  155.3395 N   0  0  0  0  0  0  0  0  0  0  0  0
  148.7352  141.1778  155.1025 C   0  0  0  0  0  0  0  0  0  0  0  0
  147.6724  142.0222  155.1524 N   0  0  0  0  0  0  0  0  0  0  0  0
  146.4415  141.5570  154.9200 C   0  0  0  0  0  0  0  0  0  0  0  0
  146.0621  140.3111  154.6277 N   0  0  0  0  0  0  0  0  0  0  0  0
  147.1261  139.4584  154.5740 C   0  0  0  0  0  0  0  0  0  0  0  0
  148.4854  139.8150  154.7980 C   0  0  0  0  0  0  0  0  0  0  0  0
  149.2951  138.6948  154.6678 N   0  0  0  0  0  0  0  0  0  0  0  0
  148.4587  137.7332  154.3844 C   0  0  0  0  0  0  0  0  0  0  0  0
  147.1332  138.1013  154.3117 N   0  0  0  0  0  0  0  0  0  0  0  0
  145.9643  137.2095  154.0147 C   0  0  2  0  0  0  0  0  0  0  0  0
  146.4121  135.9010  153.8087 O   0  0  0  0  0  0  0  0  0  0  0  0
  146.0642  135.4511  152.4989 C   0  0  1  0  0  0  0  0  0  0  0  0
  145.8057  133.9368  152.5204 C   0  0  0  0  0  0  0  0  0  0  0  0
  144.7857  133.6309  153.4466 O   0  0  0  0  0  0  0  0  0  0  0  0
  144.8194  136.2795  152.1764 C   0  0  2  0  0  0  0  0  0  0  0  0
  144.5211  136.3363  150.7946 O   0  0  0  0  0  0  0  0  0  0  0  0
  145.1741  137.6377  152.7633 C   0  0  2  0  0  0  0  0  0  0  0  0
  145.9233  138.4417  151.8638 O   0  0  0  0  0  0  0  0  0  0  0  0
  152.3262  143.1726  159.5523 C   0  0  0  0  0  0  0  0  0  0  0  0
  152.0134  144.5888  159.9076 C   0  0  0  0  0  0  0  0  0  0  0  0
  153.2954  142.5893  160.3118 O   0  0  0  0  0  0  0  0  0  0  0  0
  145.3612  137.2339  154.9233 H   0  0  0  0  0  0  0  0  0  0  0  0
  146.8606  135.7044  151.7971 H   0  0  0  0  0  0  0  0  0  0  0  0
  143.9595  135.8698  152.7089 H   0  0  0  0  0  0  0  0  0  0  0  0
  144.2863  138.1950  153.0642 H   0  0  0  0  0  0  0  0  0  0  0  0
  154.5332  139.4964  160.0991 H   0  0  0  0  0  0  0  0  0  0  0  0
  154.2317  140.3737  161.6002 H   0  0  0  0  0  0  0  0  0  0  0  0
  155.4588  140.9517  160.4704 H   0  0  0  0  0  0  0  0  0  0  0  0
  152.5006  140.1682  158.2707 H   0  0  0  0  0  0  0  0  0  0  0  0
  149.1131  141.9788  158.8451 H   0  0  0  0  0  0  0  0  0  0  0  0
  148.6446  142.9612  157.4646 H   0  0  0  0  0  0  0  0  0  0  0  0
  149.4808  143.6984  158.8279 H   0  0  0  0  0  0  0  0  0  0  0  0
  150.2388  144.1082  156.6008 H   0  0  0  0  0  0  0  0  0  0  0  0
  151.6628  140.9482  156.3388 H   0  0  0  0  0  0  0  0  0  0  0  0
  150.1595  140.4570  157.0874 H   0  0  0  0  0  0  0  0  0  0  0  0
  150.5533  142.0882  154.6455 H   0  0  0  0  0  0  0  0  0  0  0  0
  145.6465  142.2856  154.9778 H   0  0  0  0  0  0  0  0  0  0  0  0
  148.7890  136.7172  154.2237 H   0  0  0  0  0  0  0  0  0  0  0  0
  145.5446  133.5644  151.5294 H   0  0  0  0  0  0  0  0  0  0  0  0
  146.7041  133.4074  152.8391 H   0  0  0  0  0  0  0  0  0  0  0  0
  145.0772  132.9153  153.9904 H   0  0  0  0  0  0  0  0  0  0  0  0
  144.3992  137.2433  150.5566 H   0  0  0  0  0  0  0  0  0  0  0  0
  145.3707  138.6644  151.1303 H   0  0  0  0  0  0  0  0  0  0  0  0
  150.9551  144.7037  160.1415 H   0  0  0  0  0  0  0  0  0  0  0  0
  152.2534  145.2566  159.0800 H   0  0  0  0  0  0  0  0  0  0  0  0
  152.5857  144.9138  160.7770 H   0  0  0  0  0  0  0  0  0  0  0  0
  1  2  1  0  0  0  0
  1 35  1  0  0  0  0
  1 36  1  0  0  0  0
  1 37  1  0  0  0  0
  2 30  1  0  0  0  0
  2  3  2  0  0  0  0
  3  4  1  0  0  0  0
  3 38  1  0  0  0  0
  4  5  1  0  0  0  0
  4 28  2  0  0  0  0
  5  6  1  0  0  0  0
  5  7  1  0  0  0  0
  5  8  1  0  0  0  0
  6 39  1  0  0  0  0
  6 40  1  0  0  0  0
  6 41  1  0  0  0  0
  7 42  1  0  0  0  0
  8  9  1  0  0  0  0
  8 43  1  0  0  0  0
  8 44  1  0  0  0  0
  9 10  1  0  0  0  0
  9 45  1  0  0  0  0
 10 15  1  0  0  0  0
 10 11  2  0  0  0  0
 11 12  1  0  0  0  0
 12 13  2  0  0  0  0
 12 46  1  0  0  0  0
 13 14  1  0  0  0  0
 14 18  1  0  0  0  0
 14 15  2  0  0  0  0
 15 16  1  0  0  0  0
 16 17  2  0  0  0  0
 17 18  1  0  0  0  0
 17 47  1  0  0  0  0
 18 19  1  0  0  0  0
 19 31  1  0  0  0  0
 19 26  1  0  0  0  0
 19 20  1  0  0  0  0
 20 21  1  0  0  0  0
 21 32  1  0  0  0  0
 21 22  1  0  0  0  0
 21 24  1  0  0  0  0
 22 23  1  0  0  0  0
 22 48  1  0  0  0  0
 22 49  1  0  0  0  0
 23 50  1  0  0  0  0
 24 33  1  0  0  0  0
 24 25  1  0  0  0  0
 24 26  1  0  0  0  0
 25 51  1  0  0  0  0
 26 34  1  0  0  0  0
 26 27  1  0  0  0  0
 27 52  1  0  0  0  0
 28 29  1  0  0  0  0
 28 30  1  0  0  0  0
 29 53  1  0  0  0  0
 29 54  1  0  0  0  0
 29 55  1  0  0  0  0
M  END
> <s_m_source_file>
AV-unprocessed.smi

> <i_m_source_file_index>
287

> <i_lp_mmshare_version>
43012

> <i_f3d_flags>
0

> <s_epik_input>
W0NIM11jMVtjSF1jKGMobzEpW0NIM10pW0NAQF0oW0NIM10pKFtPSF0pW0NIMl1bTkhdYyhuW2NIXW4yKWMoYzIzKW5bY0hdbjNbQ0BASF00T1tDQEhdKFtDSDJdW09IXSlbQ0BASF0oW09IXSlbQ0BIXTRbT0hd

> <s_epik_cmdline>
J2VwaWtfcHl0aG9uJywgJy1waCcsICc3LjAnLCAnLXRuJywgJzgnLCAnLW1hJywgJzIwMCcsICctbWV0YWxfYmluZGluZycsICctaW1hZScsICc8aW5maWxlLm1hZT4nLCAnLW9tYWUnLCAnPG91dGZpbGUubWFlPic=

> <r_lp_tautomer_probability>
1

> <r_epik_Ionization_Penalty>
0.000992612

> <r_epik_Ionization_Penalty_Charging>
0

> <r_epik_Ionization_Penalty_Neutral>
0.000992612

> <r_epik_State_Penalty>
-0

> <r_epik_Charging_Adjusted_Penalty>
0

> <i_epik_Tot_Q>
0

> <i_epik_Tot_abs_Q>
0

> <r_epik_Metal_State_Penalty>
-0

> <b_epik_Metal_Only>
0

> <s_epik_Chemistry_Notes>
This compound contains an acetal/aminal-like group ( X-CH(R)-Y where X, Y are N, S, or O) that may be acid/base labile, releasing an aldehyde.

> <s_lp_Force_Field>
OPLS_2005

> <r_lp_Energy>
50.5208

> <b_lp_Chiralities_Consistent>
1

> <s_lp_Variant>
AV-unprocessed.smi:287-29

> <Gold.Version>
5.8.1

> <Gold.Id.Protein>
6NUR|6NUR_protein|mol2

> <Gold.PLP.Fitness>
50.2180

> <Gold.PLP.PLP>
-41.4918

> <Gold.PLP.part.hbond>
-4.9836

> <Gold.PLP.part.metal>
0.0000

> <Gold.PLP.part.buried>
-5.8119

> <Gold.PLP.part.nonpolar>
-32.7631

> <Gold.PLP.part.repulsive>
1.6656

> <Gold.PLP.ligand.clash>
0.0000

> <Gold.PLP.ligand.torsion>
1.0841

> <Gold.PLP.Chemscore.Hbond>
3.0000

> <Gold.PLP.Chemscore.CHOScore>
0.6138

> <Gold.PLP.Chemscore.Metal>
0.0000

> <Gold.Chemscore.Hbonds>
donor molecule, donor type, donor heavy atom, donor atom, acceptor molecule, acceptor atom, score
      L1  H     7    42       P1  8028  1.00
      L1  H    25    51       P1 10171  1.00
      L1  H    27    52       P1 10171  1.00
      L1  C    17    47       P1  7948  0.62

> <Gold.PLP.Chemscore.Internal.Correction>
0.0530

> <Gold.Rescore>
     Score         DG    S(hbond)    S(metal)    S(lipo)     H(rot)  DE(clash)    DE(int)     intcor
     11.80     -13.42       2.98        0.00      97.96       5.27       0.64       0.98       ----

> <Gold.Chemscore.Fitness>
11.7950

> <Gold.Chemscore.DG>
-13.4151

> <Gold.Chemscore.ZeroCoef>
-5.4800

> <Gold.Chemscore.Hbond>
2.9813

> <Gold.Chemscore.Metal>
0.0000

> <Gold.Chemscore.Lipo>
97.9616

> <Gold.Chemscore.Internal_Hbond>
0.0000

> <Gold.Chemscore.DEClash>
0.6449

> <Gold.Chemscore.DEInternal>
0.9751

> <Gold.Chemscore.Rot>
5.2672

> <Gold.Chemscore.Internal.Correction>
   9.000000E+99

> <Gold.Chemscore.Hbonds>
donor molecule, donor type, donor heavy atom, donor atom, acceptor molecule, acceptor atom, score
      L1  H     7    42       P1  8028  0.97
      L1  H    25    51       P1 10171  0.99
      L1  H    27    52       P1 10171  0.97

> <Gold.Chemscore.Hbond.Weighted>
-9.9575

> <Gold.Chemscore.Metal.Weighted>
-0.0000

> <Gold.Chemscore.Lipo.Weighted>
-11.4615

> <Gold.Chemscore.Internal_Hbond.Weighted>
0.0000

> <Gold.Chemscore.DEClash.Weighted>
0.6449

> <Gold.Chemscore.DEInternal.Weighted>
0.9751

> <Gold.Chemscore.Rot.Weighted>
13.4839

> <Gold.Chemscore.Internal.Correction.Weighted>
   9.000000E+99

> <Gold.Protein.RotatedTorsions>
[ 6907 6896 6895 6894 ] final  132.16 input  -60.11 | X-H torsion
[ 7974 7965 7964 7962 ] final -169.57 input  175.53 | X-H torsion
[ 8008 7997 7996 7995 ] final  122.60 input   59.86 | X-H torsion
[ 10167 10162 10161 10158 ] final   -6.92 input  -65.29 | X-H torsion
[ 10718 10713 10712 10709 ] final   92.12 input   66.30 | X-H torsion
[ 10763 10752 10751 10750 ] final  176.03 input  -60.55 | X-H torsion
[ 11005 11000 10999 10996 ] final   97.31 input  -57.11 | X-H torsion

> <Gold.Protein.ActiveResidues>
 VAL166  LYS551  ARG553  GLY616  TRP617  ASP618  TYR619  PRO620  LYS621  CYS622 
 ASP623  PHE694  ASN695  SER759  ASP760  ASP761  ALA762  ILE779  LEU786  VAL792 
 PHE793  MET794  SER795  GLU796  ALA797  LYS798  CYS799  TRP800  GLU811  SER814 

> <Gold.Protein.RotatedAtoms>
  152.3353  133.6004  159.5837 H   0  0  0  0  0  0  0  0  0  0  0  0  # atno 6907 bound_to 6896
  150.7446  133.9806  159.3584 H   0  0  0  0  0  0  0  0  0  0  0  0  # atno 6908 bound_to 6896
  151.7676  135.0795  160.0406 H   0  0  0  0  0  0  0  0  0  0  0  0  # atno 6909 bound_to 6896
  144.7183  140.2202  143.6317 H   0  0  0  0  0  0  0  0  0  0  0  0  # atno 7974 bound_to 7965
  156.2734  140.2782  156.1494 H   0  0  0  0  0  0  0  0  0  0  0  0  # atno 8008 bound_to 7997
  155.0869  140.0388  157.2674 H   0  0  0  0  0  0  0  0  0  0  0  0  # atno 8009 bound_to 7997
  154.6920  140.2631  155.6809 H   0  0  0  0  0  0  0  0  0  0  0  0  # atno 8010 bound_to 7997
  140.7012  143.6139  150.8677 H   0  0  0  0  0  0  0  0  0  0  0  0  # atno 10167 bound_to 10162
  157.6959  131.0432  150.3833 H   0  0  0  0  0  0  0  0  0  0  0  0  # atno 10718 bound_to 10713
  154.4756  135.2773  155.1609 H   0  0  0  0  0  0  0  0  0  0  0  0  # atno 10763 bound_to 10752
  154.3340  135.6184  153.5568 H   0  0  0  0  0  0  0  0  0  0  0  0  # atno 10764 bound_to 10752
  152.9869  135.5772  154.5146 H   0  0  0  0  0  0  0  0  0  0  0  0  # atno 10765 bound_to 10752
  139.8776  134.8994  156.4289 H   0  0  0  0  0  0  0  0  0  0  0  0  # atno 11005 bound_to 11000
  145.8509  139.2175  143.1773 LP  0  0  0  0  0  0  0  0  0  0  0  0  # atno 17320 bound_to 7965
  146.0262  140.8302  142.9899 LP  0  0  0  0  0  0  0  0  0  0  0  0  # atno 17321 bound_to 7965
  139.9861  143.5898  152.2926 LP  0  0  0  0  0  0  0  0  0  0  0  0  # atno 17342 bound_to 10162
  139.6536  144.7661  151.2099 LP  0  0  0  0  0  0  0  0  0  0  0  0  # atno 17343 bound_to 10162
  156.4244  130.3959  149.6802 LP  0  0  0  0  0  0  0  0  0  0  0  0  # atno 17370 bound_to 10713
  156.4042  130.7690  151.2699 LP  0  0  0  0  0  0  0  0  0  0  0  0  # atno 17371 bound_to 10713
  140.9081  133.7731  155.9759 LP  0  0  0  0  0  0  0  0  0  0  0  0  # atno 17394 bound_to 11000
  140.8577  134.2878  157.5248 LP  0  0  0  0  0  0  0  0  0  0  0  0  # atno 17395 bound_to 11000

$$$$
