AV-unprocessed.smi:573|AV-procd|sdf|2970|dock10
  -GOLD-   2262023473D 1   1.00000     0.00000
 Structure written by MMmdl.
 45 47  0  0  0  0  0  0  0  0  2 V2000
  146.9247  140.3971  153.7226 C   0  0  0  0  0  0  0  0  0  0  0  0
  147.5329  139.6033  152.5549 C   0  0  1  0  0  0  0  0  0  0  0  0
  148.5852  138.7829  153.0179 O   0  0  0  0  0  0  0  0  0  0  0  0
  146.5267  138.7710  151.7282 C   0  0  0  0  0  0  0  0  0  0  0  0
  146.2331  137.4597  152.2928 N   0  0  0  0  0  0  0  0  0  0  0  0
  144.9243  137.1386  152.6712 C   0  0  0  0  0  0  0  0  0  0  0  0
  143.9057  138.0171  152.8686 N   0  3  0  0  0  0  0  0  0  0  0  0
  142.7618  137.2937  153.2159 C   0  0  0  0  0  0  0  0  0  0  0  0
  141.4703  137.7233  153.5054 C   0  0  0  0  0  0  0  0  0  0  0  0
  140.5240  136.7241  153.8133 C   0  0  0  0  0  0  0  0  0  0  0  0
  140.8743  135.3585  153.8248 C   0  0  0  0  0  0  0  0  0  0  0  0
  142.1863  134.9318  153.5327 C   0  0  0  0  0  0  0  0  0  0  0  0
  143.1197  135.9237  153.2323 C   0  0  0  0  0  0  0  0  0  0  0  0
  144.4800  135.8762  152.8989 N   0  0  0  0  0  0  0  0  0  0  0  0
  145.1781  134.5849  152.8172 C   0  0  0  0  0  0  0  0  0  0  0  0
  145.1016  133.9806  151.4061 C   0  0  1  0  0  0  0  0  0  0  0  0
  145.6275  132.5341  151.3612 C   0  0  0  0  0  0  0  0  0  0  0  0
  145.4847  131.9572  149.9480 C   0  0  0  0  0  0  0  0  0  0  0  0
  144.0397  132.1210  149.4644 C   0  0  0  0  0  0  0  0  0  0  0  0
  143.5880  133.5827  149.6112 C   0  0  0  0  0  0  0  0  0  0  0  0
  143.7461  134.0036  150.9622 O   0  0  0  0  0  0  0  0  0  0  0  0
  146.1000  141.0241  153.3838 H   0  0  0  0  0  0  0  0  0  0  0  0
  147.6692  141.0502  154.1791 H   0  0  0  0  0  0  0  0  0  0  0  0
  146.5482  139.7382  154.5049 H   0  0  0  0  0  0  0  0  0  0  0  0
  147.9984  140.3174  151.8749 H   0  0  0  0  0  0  0  0  0  0  0  0
  148.5197  137.9422  152.5914 H   0  0  0  0  0  0  0  0  0  0  0  0
  145.5775  139.3065  151.7028 H   0  0  0  0  0  0  0  0  0  0  0  0
  146.8464  138.6842  150.6890 H   0  0  0  0  0  0  0  0  0  0  0  0
  146.8895  136.7103  152.1261 H   0  0  0  0  0  0  0  0  0  0  0  0
  141.1970  138.7682  153.4925 H   0  0  0  0  0  0  0  0  0  0  0  0
  139.5076  137.0105  154.0422 H   0  0  0  0  0  0  0  0  0  0  0  0
  140.1206  134.6213  154.0607 H   0  0  0  0  0  0  0  0  0  0  0  0
  142.4389  133.8819  153.5375 H   0  0  0  0  0  0  0  0  0  0  0  0
  146.2180  134.7535  153.0994 H   0  0  0  0  0  0  0  0  0  0  0  0
  144.7654  133.9042  153.5613 H   0  0  0  0  0  0  0  0  0  0  0  0
  145.7007  134.5992  150.7363 H   0  0  0  0  0  0  0  0  0  0  0  0
  146.6717  132.5010  151.6734 H   0  0  0  0  0  0  0  0  0  0  0  0
  145.0694  131.9163  152.0659 H   0  0  0  0  0  0  0  0  0  0  0  0
  146.1599  132.4790  149.2684 H   0  0  0  0  0  0  0  0  0  0  0  0
  145.7747  130.9063  149.9343 H   0  0  0  0  0  0  0  0  0  0  0  0
  143.9498  131.8000  148.4261 H   0  0  0  0  0  0  0  0  0  0  0  0
  143.3822  131.4772  150.0497 H   0  0  0  0  0  0  0  0  0  0  0  0
  144.1553  134.2364  148.9469 H   0  0  0  0  0  0  0  0  0  0  0  0
  142.5386  133.6813  149.3330 H   0  0  0  0  0  0  0  0  0  0  0  0
  143.9834  139.0197  152.7597 H   0  0  0  0  0  0  0  0  0  0  0  0
  1  2  1  0  0  0  0
  1 22  1  0  0  0  0
  1 23  1  0  0  0  0
  1 24  1  0  0  0  0
  2  3  1  0  0  0  0
  2  4  1  0  0  0  0
  2 25  1  0  0  0  0
  3 26  1  0  0  0  0
  4  5  1  0  0  0  0
  4 27  1  0  0  0  0
  4 28  1  0  0  0  0
  5  6  1  0  0  0  0
  5 29  1  0  0  0  0
  6 14  1  0  0  0  0
  6  7  2  0  0  0  0
  7  8  1  0  0  0  0
  7 45  1  0  0  0  0
  8 13  2  0  0  0  0
  8  9  1  0  0  0  0
  9 10  2  0  0  0  0
  9 30  1  0  0  0  0
 10 11  1  0  0  0  0
 10 31  1  0  0  0  0
 11 12  2  0  0  0  0
 11 32  1  0  0  0  0
 12 13  1  0  0  0  0
 12 33  1  0  0  0  0
 13 14  1  0  0  0  0
 14 15  1  0  0  0  0
 15 16  1  0  0  0  0
 15 34  1  0  0  0  0
 15 35  1  0  0  0  0
 16 21  1  0  0  0  0
 16 17  1  0  0  0  0
 16 36  1  0  0  0  0
 17 18  1  0  0  0  0
 17 37  1  0  0  0  0
 17 38  1  0  0  0  0
 18 19  1  0  0  0  0
 18 39  1  0  0  0  0
 18 40  1  0  0  0  0
 19 20  1  0  0  0  0
 19 41  1  0  0  0  0
 19 42  1  0  0  0  0
 20 21  1  0  0  0  0
 20 43  1  0  0  0  0
 20 44  1  0  0  0  0
M  CHG  1   7   1
M  END
> <s_m_source_file>
AV-unprocessed.smi

> <i_m_source_file_index>
573

> <i_lp_mmshare_version>
43012

> <i_f3d_flags>
0

> <s_epik_input>
W0NIM11bQ0BIXShbT0hdKVtDSDJdW05IXWMobjEpbihjKGMxMilbY0hdW2NIXVtjSF1bY0hdMilbQ0gyXVtDQEBIXTNbQ0gyXVtDSDJdW0NIMl1bQ0gyXU8z

> <s_epik_cmdline>
J2VwaWtfcHl0aG9uJywgJy1waCcsICc3LjAnLCAnLXRuJywgJzgnLCAnLW1hJywgJzIwMCcsICctbWV0YWxfYmluZGluZycsICctaW1hZScsICc8aW5maWxlLm1hZT4nLCAnLW9tYWUnLCAnPG91dGZpbGUubWFlPic=

> <r_epik_Ionization_Penalty>
0.0692245

> <r_epik_Ionization_Penalty_Charging>
0.0692223

> <r_epik_Ionization_Penalty_Neutral>
2.1869e-06

> <r_epik_State_Penalty>
0.0606215

> <r_epik_Charging_Adjusted_Penalty>
0.129844

> <i_epik_Tot_Q>
1

> <i_epik_Tot_abs_Q>
1

> <r_epik_Metal_State_Penalty>
2.77811

> <b_epik_Metal_Only>
0

> <s_lp_Force_Field>
OPLS_2005

> <r_lp_Energy>
24.0167

> <b_lp_Chiralities_Consistent>
1

> <s_lp_Variant>
AV-unprocessed.smi:573-4

> <Gold.Version>
5.8.1

> <Gold.Id.Protein>
6NUR|6NUR_protein|mol2

> <Gold.PLP.Fitness>
54.3346

> <Gold.PLP.PLP>
-40.5820

> <Gold.PLP.part.hbond>
-4.7656

> <Gold.PLP.part.metal>
0.0000

> <Gold.PLP.part.buried>
-0.1663

> <Gold.PLP.part.nonpolar>
-38.5003

> <Gold.PLP.part.repulsive>
0.2465

> <Gold.PLP.ligand.clash>
0.0000

> <Gold.PLP.ligand.torsion>
0.6342

> <Gold.PLP.Chemscore.Hbond>
5.0000

> <Gold.PLP.Chemscore.CHOScore>
0.0000

> <Gold.PLP.Chemscore.Metal>
0.0000

> <Gold.Chemscore.Hbonds>
donor molecule, donor type, donor heavy atom, donor atom, acceptor molecule, acceptor atom, score
      L1  H     3    26       P1  7948  1.00
      L1  H     5    29       P1  7948  1.40
      L1  H     7    45       P1 10175  1.79

> <Gold.PLP.Chemscore.Internal.Correction>
0.0209

> <Gold.Rescore>
     Score         DG    S(hbond)    S(metal)    S(lipo)     H(rot)  DE(clash)    DE(int)     intcor
     18.48     -22.85       2.93        0.00     110.24       2.07       2.47       1.90       ----

> <Gold.Chemscore.Fitness>
18.4784

> <Gold.Chemscore.DG>
-22.8510

> <Gold.Chemscore.ZeroCoef>
-5.4800

> <Gold.Chemscore.Hbond>
2.9257

> <Gold.Chemscore.Metal>
0.0000

> <Gold.Chemscore.Lipo>
110.2409

> <Gold.Chemscore.Internal_Hbond>
0.0000

> <Gold.Chemscore.DEClash>
2.4717

> <Gold.Chemscore.DEInternal>
1.9008

> <Gold.Chemscore.Rot>
2.0699

> <Gold.Chemscore.Internal.Correction>
   9.000000E+99

> <Gold.Chemscore.Hbonds>
donor molecule, donor type, donor heavy atom, donor atom, acceptor molecule, acceptor atom, score
      L1  H     3    26       P1  7948  1.00
      L1  H     5    29       P1  7948  0.68
      L1  H     7    45       P1 10175  0.87

> <Gold.Chemscore.Hbond.Weighted>
-9.7719

> <Gold.Chemscore.Metal.Weighted>
-0.0000

> <Gold.Chemscore.Lipo.Weighted>
-12.8982

> <Gold.Chemscore.Internal_Hbond.Weighted>
0.0000

> <Gold.Chemscore.DEClash.Weighted>
2.4717

> <Gold.Chemscore.DEInternal.Weighted>
1.9008

> <Gold.Chemscore.Rot.Weighted>
5.2991

> <Gold.Chemscore.Internal.Correction.Weighted>
   9.000000E+99

> <Gold.Protein.RotatedTorsions>
[ 6907 6896 6895 6894 ] final -157.42 input  -60.11 | X-H torsion
[ 7974 7965 7964 7962 ] final   52.56 input  175.53 | X-H torsion
[ 8008 7997 7996 7995 ] final  -11.57 input   59.86 | X-H torsion
[ 10167 10162 10161 10158 ] final   63.89 input  -65.29 | X-H torsion
[ 10718 10713 10712 10709 ] final  164.14 input   66.30 | X-H torsion
[ 10763 10752 10751 10750 ] final  -35.69 input  -60.55 | X-H torsion
[ 11005 11000 10999 10996 ] final -127.30 input  -57.11 | X-H torsion

> <Gold.Protein.ActiveResidues>
 VAL166  LYS551  ARG553  GLY616  TRP617  ASP618  TYR619  PRO620  LYS621  CYS622 
 ASP623  PHE694  ASN695  SER759  ASP760  ASP761  ALA762  ILE779  LEU786  VAL792 
 PHE793  MET794  SER795  GLU796  ALA797  LYS798  CYS799  TRP800  GLU811  SER814 

> <Gold.Protein.RotatedAtoms>
  151.3026  133.4115  159.2640 H   0  0  0  0  0  0  0  0  0  0  0  0  # atno 6907 bound_to 6896
  151.0182  134.9450  159.8055 H   0  0  0  0  0  0  0  0  0  0  0  0  # atno 6908 bound_to 6896
  152.5318  134.2989  159.9123 H   0  0  0  0  0  0  0  0  0  0  0  0  # atno 6909 bound_to 6896
  145.9801  139.4234  143.0137 H   0  0  0  0  0  0  0  0  0  0  0  0  # atno 7974 bound_to 7965
  154.5453  140.2299  155.8573 H   0  0  0  0  0  0  0  0  0  0  0  0  # atno 8008 bound_to 7997
  156.1897  140.3080  155.9270 H   0  0  0  0  0  0  0  0  0  0  0  0  # atno 8009 bound_to 7997
  155.3176  140.0439  157.3028 H   0  0  0  0  0  0  0  0  0  0  0  0  # atno 8010 bound_to 7997
  140.1281  144.4668  150.6881 H   0  0  0  0  0  0  0  0  0  0  0  0  # atno 10167 bound_to 10162
  157.0986  131.0437  151.2507 H   0  0  0  0  0  0  0  0  0  0  0  0  # atno 10718 bound_to 10713
  153.8675  135.6834  153.4777 H   0  0  0  0  0  0  0  0  0  0  0  0  # atno 10763 bound_to 10752
  153.1306  135.4699  154.9341 H   0  0  0  0  0  0  0  0  0  0  0  0  # atno 10764 bound_to 10752
  154.7730  135.3244  154.8101 H   0  0  0  0  0  0  0  0  0  0  0  0  # atno 10765 bound_to 10752
  140.9611  134.0935  157.3967 H   0  0  0  0  0  0  0  0  0  0  0  0  # atno 11005 bound_to 11000
  145.7781  140.9868  143.1113 LP  0  0  0  0  0  0  0  0  0  0  0  0  # atno 17320 bound_to 7965
  144.6859  139.9531  143.7478 LP  0  0  0  0  0  0  0  0  0  0  0  0  # atno 17321 bound_to 7965
  140.6833  143.2337  151.5327 LP  0  0  0  0  0  0  0  0  0  0  0  0  # atno 17342 bound_to 10162
  139.5534  144.2338  152.1569 LP  0  0  0  0  0  0  0  0  0  0  0  0  # atno 17343 bound_to 10162
  157.4660  130.7681  149.7279 LP  0  0  0  0  0  0  0  0  0  0  0  0  # atno 17370 bound_to 10713
  155.9879  130.3963  150.3142 LP  0  0  0  0  0  0  0  0  0  0  0  0  # atno 17371 bound_to 10713
  139.8878  135.0093  156.6584 LP  0  0  0  0  0  0  0  0  0  0  0  0  # atno 17394 bound_to 11000
  140.7466  133.8933  155.8316 LP  0  0  0  0  0  0  0  0  0  0  0  0  # atno 17395 bound_to 11000

$$$$
