AV-unprocessed.smi:228|AV-procd|sdf|1746|dock4
  -GOLD-   2262020263D 1   1.00000     0.00000
 Structure written by MMmdl.
 59 62  0  0  0  0  0  0  0  0  1 V2000
  147.7016  141.6552  154.0009 C   0  0  0  0  0  0  0  0  0  0  0  0
  148.1983  140.5225  154.7720 N   0  0  0  0  0  0  0  0  0  0  0  0
  149.5861  140.5642  155.2413 C   0  0  0  0  0  0  0  0  0  0  0  0
  149.7876  141.5236  156.4318 C   0  0  1  0  0  0  0  0  0  0  0  0
  148.8177  141.1901  157.4032 O   0  0  0  0  0  0  0  0  0  0  0  0
  151.1830  141.3957  157.0833 C   0  0  0  0  0  0  0  0  0  0  0  0
  151.3810  142.1547  158.3186 N   0  0  0  0  0  0  0  0  0  0  0  0
  151.6868  143.5632  158.0705 C   0  0  0  0  0  0  0  0  0  0  0  0
  151.9377  144.3369  159.3769 C   0  0  0  0  0  0  0  0  0  0  0  0
  152.9844  143.7119  160.1121 O   0  0  0  0  0  0  0  0  0  0  0  0
  152.7007  142.3506  160.4173 C   0  0  0  0  0  0  0  0  0  0  0  0
  152.4584  141.5728  159.1128 C   0  0  0  0  0  0  0  0  0  0  0  0
  147.5149  139.3432  154.7641 C   0  0  0  0  0  0  0  0  0  0  0  0
  147.3814  138.6731  155.9398 N   0  0  0  0  0  0  0  0  0  0  0  0
  146.7277  137.5105  155.9966 C   0  0  0  0  0  0  0  0  0  0  0  0
  146.1406  136.8371  155.0081 N   0  0  0  0  0  0  0  0  0  0  0  0
  146.2727  137.4913  153.8195 C   0  0  0  0  0  0  0  0  0  0  0  0
  146.9293  138.7394  153.6080 C   0  0  0  0  0  0  0  0  0  0  0  0
  146.8465  139.0779  152.2605 N   0  0  0  0  0  0  0  0  0  0  0  0
  146.1719  138.1029  151.7170 C   0  0  0  0  0  0  0  0  0  0  0  0
  145.8131  137.0915  152.5769 N   0  0  0  0  0  0  0  0  0  0  0  0
  145.0433  135.9233  152.2626 C   0  0  0  0  0  0  0  0  0  0  0  0
  145.6364  134.5220  152.4337 C   0  0  0  0  0  0  0  0  0  0  0  0
  144.8740  134.0332  151.1824 C   0  0  0  0  0  0  0  0  0  0  0  0
  145.7066  133.2053  150.1910 C   0  0  0  0  0  0  0  0  0  0  0  0
  145.0481  133.0720  148.9474 O   0  0  0  0  0  0  0  0  0  0  0  0
  143.5544  133.2644  151.4189 C   0  0  0  0  0  0  0  0  0  0  0  0
  142.9005  132.8891  150.2236 O   0  0  0  0  0  0  0  0  0  0  0  0
  144.7427  135.5281  150.8127 C   0  0  0  0  0  0  0  0  0  0  0  0
  146.6352  141.8060  154.1715 H   0  0  0  0  0  0  0  0  0  0  0  0
  147.8718  141.5001  152.9352 H   0  0  0  0  0  0  0  0  0  0  0  0
  148.2133  142.5732  154.2910 H   0  0  0  0  0  0  0  0  0  0  0  0
  149.8483  139.5526  155.5535 H   0  0  0  0  0  0  0  0  0  0  0  0
  150.2863  140.8025  154.4407 H   0  0  0  0  0  0  0  0  0  0  0  0
  149.5923  142.5417  156.0982 H   0  0  0  0  0  0  0  0  0  0  0  0
  147.9811  141.1009  156.9730 H   0  0  0  0  0  0  0  0  0  0  0  0
  151.3706  140.3378  157.2734 H   0  0  0  0  0  0  0  0  0  0  0  0
  151.9487  141.7034  156.3718 H   0  0  0  0  0  0  0  0  0  0  0  0
  152.5663  143.6444  157.4299 H   0  0  0  0  0  0  0  0  0  0  0  0
  150.8678  144.0448  157.5387 H   0  0  0  0  0  0  0  0  0  0  0  0
  152.2206  145.3670  159.1594 H   0  0  0  0  0  0  0  0  0  0  0  0
  151.0313  144.3744  159.9832 H   0  0  0  0  0  0  0  0  0  0  0  0
  153.5430  141.9242  160.9623 H   0  0  0  0  0  0  0  0  0  0  0  0
  151.8300  142.2896  161.0719 H   0  0  0  0  0  0  0  0  0  0  0  0
  152.2221  140.5356  159.3532 H   0  0  0  0  0  0  0  0  0  0  0  0
  153.3801  141.5546  158.5290 H   0  0  0  0  0  0  0  0  0  0  0  0
  146.6685  137.0537  156.9735 H   0  0  0  0  0  0  0  0  0  0  0  0
  145.9241  138.0944  150.6654 H   0  0  0  0  0  0  0  0  0  0  0  0
  144.1195  136.0202  152.8337 H   0  0  0  0  0  0  0  0  0  0  0  0
  146.7196  134.5125  152.3002 H   0  0  0  0  0  0  0  0  0  0  0  0
  145.3557  134.0261  153.3634 H   0  0  0  0  0  0  0  0  0  0  0  0
  146.6861  133.6555  150.0253 H   0  0  0  0  0  0  0  0  0  0  0  0
  145.8902  132.2025  150.5780 H   0  0  0  0  0  0  0  0  0  0  0  0
  145.1560  133.8756  148.4620 H   0  0  0  0  0  0  0  0  0  0  0  0
  143.7343  132.3565  151.9954 H   0  0  0  0  0  0  0  0  0  0  0  0
  142.8517  133.8657  151.9964 H   0  0  0  0  0  0  0  0  0  0  0  0
  142.4303  133.6382  149.8906 H   0  0  0  0  0  0  0  0  0  0  0  0
  143.7555  135.8298  150.4613 H   0  0  0  0  0  0  0  0  0  0  0  0
  145.5184  135.8625  150.1219 H   0  0  0  0  0  0  0  0  0  0  0  0
  1  2  1  0  0  0  0
  1 30  1  0  0  0  0
  1 31  1  0  0  0  0
  1 32  1  0  0  0  0
  2  3  1  0  0  0  0
  2 13  1  0  0  0  0
  3  4  1  0  0  0  0
  3 33  1  0  0  0  0
  3 34  1  0  0  0  0
  4  5  1  0  0  0  0
  4  6  1  0  0  0  0
  4 35  1  0  0  0  0
  5 36  1  0  0  0  0
  6  7  1  0  0  0  0
  6 37  1  0  0  0  0
  6 38  1  0  0  0  0
  7 12  1  0  0  0  0
  7  8  1  0  0  0  0
  8  9  1  0  0  0  0
  8 39  1  0  0  0  0
  8 40  1  0  0  0  0
  9 10  1  0  0  0  0
  9 41  1  0  0  0  0
  9 42  1  0  0  0  0
 10 11  1  0  0  0  0
 11 12  1  0  0  0  0
 11 43  1  0  0  0  0
 11 44  1  0  0  0  0
 12 45  1  0  0  0  0
 12 46  1  0  0  0  0
 13 18  1  0  0  0  0
 13 14  2  0  0  0  0
 14 15  1  0  0  0  0
 15 16  2  0  0  0  0
 15 47  1  0  0  0  0
 16 17  1  0  0  0  0
 17 21  1  0  0  0  0
 17 18  2  0  0  0  0
 18 19  1  0  0  0  0
 19 20  2  0  0  0  0
 20 21  1  0  0  0  0
 20 48  1  0  0  0  0
 21 22  1  0  0  0  0
 22 29  1  0  0  0  0
 22 23  1  0  0  0  0
 22 49  1  0  0  0  0
 23 24  1  0  0  0  0
 23 50  1  0  0  0  0
 23 51  1  0  0  0  0
 24 25  1  0  0  0  0
 24 27  1  0  0  0  0
 24 29  1  0  0  0  0
 25 26  1  0  0  0  0
 25 52  1  0  0  0  0
 25 53  1  0  0  0  0
 26 54  1  0  0  0  0
 27 28  1  0  0  0  0
 27 55  1  0  0  0  0
 27 56  1  0  0  0  0
 28 57  1  0  0  0  0
 29 58  1  0  0  0  0
 29 59  1  0  0  0  0
M  END
> <s_m_source_file>
AV-unprocessed.smi

> <i_m_source_file_index>
228

> <i_lp_mmshare_version>
43012

> <i_f3d_flags>
0

> <s_epik_input>
W0NIMl0xW0NIMl1PW0NIMl1bQ0gyXU4xW0NIMl1bQ0BASF0oW09IXSlbQ0gyXU4oW0NIM10pYyhuW2NIXW4yKWMoYzIzKW5bY0hdbjNbQ0hdKFtDSDJdNClbQ0gyXUM0KFtDSDJdW09IXSlbQ0gyXVtPSF0=

> <s_epik_cmdline>
J2VwaWtfcHl0aG9uJywgJy1waCcsICc3LjAnLCAnLXRuJywgJzgnLCAnLW1hJywgJzIwMCcsICctbWV0YWxfYmluZGluZycsICctaW1hZScsICc8aW5maWxlLm1hZT4nLCAnLW9tYWUnLCAnPG91dGZpbGUubWFlPic=

> <r_lp_tautomer_probability>
1

> <r_epik_Ionization_Penalty>
0.423559

> <r_epik_Ionization_Penalty_Charging>
0

> <r_epik_Ionization_Penalty_Neutral>
0.423559

> <r_epik_State_Penalty>
0.438466

> <r_epik_Charging_Adjusted_Penalty>
0.438466

> <i_epik_Tot_Q>
0

> <i_epik_Tot_abs_Q>
0

> <r_epik_Metal_State_Penalty>
0.436601

> <b_epik_Metal_Only>
0

> <s_lp_Force_Field>
OPLS_2005

> <r_lp_Energy>
57.656

> <b_lp_Chiralities_Consistent>
1

> <s_lp_Variant>
AV-unprocessed.smi:228-4

> <Gold.Version>
5.8.1

> <Gold.Id.Protein>
6NUR|6NUR_protein|mol2

> <Gold.PLP.Fitness>
57.0209

> <Gold.PLP.PLP>
-50.6668

> <Gold.PLP.part.hbond>
-2.7859

> <Gold.PLP.part.metal>
0.0000

> <Gold.PLP.part.buried>
-4.1265

> <Gold.PLP.part.nonpolar>
-43.2714

> <Gold.PLP.part.repulsive>
0.9222

> <Gold.PLP.ligand.clash>
0.0000

> <Gold.PLP.ligand.torsion>
1.5367

> <Gold.PLP.Chemscore.Hbond>
2.0000

> <Gold.PLP.Chemscore.CHOScore>
0.7152

> <Gold.PLP.Chemscore.Metal>
0.0000

> <Gold.Chemscore.Hbonds>
donor molecule, donor type, donor heavy atom, donor atom, acceptor molecule, acceptor atom, score
      L1  H    26    54       P1  7921  0.93
      L1  H    28    57       P1 10186  1.00
      L1  C    20    48       P1 10171  0.91

> <Gold.PLP.Chemscore.Internal.Correction>
1.2821

> <Gold.Rescore>
     Score         DG    S(hbond)    S(metal)    S(lipo)     H(rot)  DE(clash)    DE(int)     intcor
     10.79     -12.92       1.88        0.00     111.85       4.66       0.58       1.55       ----

> <Gold.Chemscore.Fitness>
10.7854

> <Gold.Chemscore.DG>
-12.9177

> <Gold.Chemscore.ZeroCoef>
-5.4800

> <Gold.Chemscore.Hbond>
1.8806

> <Gold.Chemscore.Metal>
0.0000

> <Gold.Chemscore.Lipo>
111.8477

> <Gold.Chemscore.Internal_Hbond>
0.0000

> <Gold.Chemscore.DEClash>
0.5788

> <Gold.Chemscore.DEInternal>
1.5535

> <Gold.Chemscore.Rot>
4.6600

> <Gold.Chemscore.Internal.Correction>
   9.000000E+99

> <Gold.Chemscore.Hbonds>
donor molecule, donor type, donor heavy atom, donor atom, acceptor molecule, acceptor atom, score
      L1  H    26    54       P1  7921  0.82
      L1  H    28    57       P1 10186  0.95

> <Gold.Chemscore.Hbond.Weighted>
-6.2812

> <Gold.Chemscore.Metal.Weighted>
-0.0000

> <Gold.Chemscore.Lipo.Weighted>
-13.0862

> <Gold.Chemscore.Internal_Hbond.Weighted>
0.0000

> <Gold.Chemscore.DEClash.Weighted>
0.5788

> <Gold.Chemscore.DEInternal.Weighted>
1.5535

> <Gold.Chemscore.Rot.Weighted>
11.9297

> <Gold.Chemscore.Internal.Correction.Weighted>
   9.000000E+99

> <Gold.Protein.RotatedTorsions>
[ 6907 6896 6895 6894 ] final -104.52 input  -60.11 | X-H torsion
[ 7974 7965 7964 7962 ] final  101.09 input  175.53 | X-H torsion
[ 8008 7997 7996 7995 ] final  152.45 input   59.86 | X-H torsion
[ 10167 10162 10161 10158 ] final   38.91 input  -65.29 | X-H torsion
[ 10718 10713 10712 10709 ] final -144.94 input   66.30 | X-H torsion
[ 10763 10752 10751 10750 ] final -158.83 input  -60.55 | X-H torsion
[ 11005 11000 10999 10996 ] final   15.49 input  -57.11 | X-H torsion

> <Gold.Protein.ActiveResidues>
 VAL166  LYS551  ARG553  GLY616  TRP617  ASP618  TYR619  PRO620  LYS621  CYS622 
 ASP623  PHE694  ASN695  SER759  ASP760  ASP761  ALA762  ILE779  LEU786  VAL792 
 PHE793  MET794  SER795  GLU796  ALA797  LYS798  CYS799  TRP800  GLU811  SER814 

> <Gold.Protein.RotatedAtoms>
  150.7291  134.0264  159.3718 H   0  0  0  0  0  0  0  0  0  0  0  0  # atno 6907 bound_to 6896
  151.8232  135.0643  160.0437 H   0  0  0  0  0  0  0  0  0  0  0  0  # atno 6908 bound_to 6896
  152.2988  133.5598  159.5641 H   0  0  0  0  0  0  0  0  0  0  0  0  # atno 6909 bound_to 6896
  145.3769  139.2387  143.3424 H   0  0  0  0  0  0  0  0  0  0  0  0  # atno 7974 bound_to 7965
  156.2628  140.2020  156.6336 H   0  0  0  0  0  0  0  0  0  0  0  0  # atno 8008 bound_to 7997
  154.6664  140.0555  157.0142 H   0  0  0  0  0  0  0  0  0  0  0  0  # atno 8009 bound_to 7997
  155.1201  140.3224  155.4502 H   0  0  0  0  0  0  0  0  0  0  0  0  # atno 8010 bound_to 7997
  140.3891  144.1877  150.6130 H   0  0  0  0  0  0  0  0  0  0  0  0  # atno 10167 bound_to 10162
  156.3763  130.7814  151.2000 H   0  0  0  0  0  0  0  0  0  0  0  0  # atno 10718 bound_to 10713
  154.7524  135.3096  154.8532 H   0  0  0  0  0  0  0  0  0  0  0  0  # atno 10763 bound_to 10752
  153.9315  135.6784  153.4749 H   0  0  0  0  0  0  0  0  0  0  0  0  # atno 10764 bound_to 10752
  153.1121  135.4862  154.8981 H   0  0  0  0  0  0  0  0  0  0  0  0  # atno 10765 bound_to 10752
  140.4577  134.1159  155.7712 H   0  0  0  0  0  0  0  0  0  0  0  0  # atno 11005 bound_to 11000
  146.2860  140.4430  142.8758 LP  0  0  0  0  0  0  0  0  0  0  0  0  # atno 17320 bound_to 7965
  144.8535  140.7036  143.6153 LP  0  0  0  0  0  0  0  0  0  0  0  0  # atno 17321 bound_to 7965
  140.4859  143.2363  151.8889 LP  0  0  0  0  0  0  0  0  0  0  0  0  # atno 17342 bound_to 10162
  139.4790  144.5219  151.8789 LP  0  0  0  0  0  0  0  0  0  0  0  0  # atno 17343 bound_to 10162
  157.7488  131.0357  150.4377 LP  0  0  0  0  0  0  0  0  0  0  0  0  # atno 17370 bound_to 10713
  156.4613  130.4032  149.6574 LP  0  0  0  0  0  0  0  0  0  0  0  0  # atno 17371 bound_to 10713
  141.1635  133.8747  157.1781 LP  0  0  0  0  0  0  0  0  0  0  0  0  # atno 17394 bound_to 11000
  139.9965  135.0044  157.0094 LP  0  0  0  0  0  0  0  0  0  0  0  0  # atno 17395 bound_to 11000

$$$$
