AV-unprocessed.smi:2186|AV-procd|sdf|8876|dock9
  -GOLD-   2272012 73D 1   1.00000     0.00000
 Structure written by MMmdl.
 43 44  0  0  0  0  0  0  0  0  1 V2000
  152.6339  144.0581  158.7428 C   0  0  0  0  0  0  0  0  0  0  0  0
  152.0296  142.7994  159.3823 C   0  0  0  0  0  0  0  0  0  0  0  0
  152.9392  142.1678  160.4460 C   0  0  0  0  0  0  0  0  0  0  0  0
  151.5889  141.8051  158.3548 C   0  0  0  0  0  0  0  0  0  0  0  0
  151.9315  140.5135  158.3788 N   0  0  0  0  0  0  0  0  0  0  0  0
  151.4067  139.7933  157.3006 C   0  0  0  0  0  0  0  0  0  0  0  0
  151.7043  138.3286  157.1610 C   0  0  0  0  0  0  0  0  0  0  0  0
  151.2295  137.5773  158.4056 C   0  0  0  0  0  0  0  0  0  0  0  0
  152.0386  136.9644  159.1019 O   0  0  0  0  0  0  0  0  0  0  0  0
  149.9164  137.6386  158.6768 N   0  0  0  0  0  0  0  0  0  0  0  0
  149.2714  137.0352  159.8353 C   0  0  0  0  0  0  0  0  0  0  0  0
  147.9126  136.4206  159.4517 C   0  0  0  0  0  0  0  0  0  0  0  0
  147.1866  135.7931  160.5540 N   0  0  0  0  0  0  0  0  0  0  0  0
  147.4075  136.5149  161.8025 C   0  0  0  0  0  0  0  0  0  0  0  0
  146.6501  135.8746  162.9783 C   0  0  0  0  0  0  0  0  0  0  0  0
  147.0450  134.5134  163.1120 O   0  0  0  0  0  0  0  0  0  0  0  0
  146.8089  133.7559  161.9297 C   0  0  0  0  0  0  0  0  0  0  0  0
  147.5579  134.3924  160.7454 C   0  0  0  0  0  0  0  0  0  0  0  0
  150.6433  140.5631  156.4581 C   0  0  0  0  0  0  0  0  0  0  0  0
  150.5671  142.2221  156.9833 S   0  0  0  0  0  0  0  0  0  0  0  0
  151.9279  144.5256  158.0556 H   0  0  0  0  0  0  0  0  0  0  0  0
  153.5389  143.8230  158.1816 H   0  0  0  0  0  0  0  0  0  0  0  0
  152.8962  144.7965  159.5007 H   0  0  0  0  0  0  0  0  0  0  0  0
  151.1274  143.1226  159.9029 H   0  0  0  0  0  0  0  0  0  0  0  0
  152.4439  141.3302  160.9380 H   0  0  0  0  0  0  0  0  0  0  0  0
  153.2054  142.8923  161.2158 H   0  0  0  0  0  0  0  0  0  0  0  0
  153.8652  141.7958  160.0064 H   0  0  0  0  0  0  0  0  0  0  0  0
  151.2172  137.9129  156.2778 H   0  0  0  0  0  0  0  0  0  0  0  0
  152.7744  138.1656  157.0276 H   0  0  0  0  0  0  0  0  0  0  0  0
  149.3279  138.1703  158.0515 H   0  0  0  0  0  0  0  0  0  0  0  0
  149.9321  136.2605  160.2253 H   0  0  0  0  0  0  0  0  0  0  0  0
  149.1658  137.7822  160.6228 H   0  0  0  0  0  0  0  0  0  0  0  0
  147.2833  137.1788  158.9829 H   0  0  0  0  0  0  0  0  0  0  0  0
  148.0977  135.6692  158.6823 H   0  0  0  0  0  0  0  0  0  0  0  0
  148.4739  136.5388  162.0323 H   0  0  0  0  0  0  0  0  0  0  0  0
  147.0892  137.5520  161.6925 H   0  0  0  0  0  0  0  0  0  0  0  0
  146.8703  136.4040  163.9056 H   0  0  0  0  0  0  0  0  0  0  0  0
  145.5719  135.9347  162.8225 H   0  0  0  0  0  0  0  0  0  0  0  0
  147.1495  132.7326  162.0881 H   0  0  0  0  0  0  0  0  0  0  0  0
  145.7377  133.7093  161.7280 H   0  0  0  0  0  0  0  0  0  0  0  0
  147.3405  133.8150  159.8475 H   0  0  0  0  0  0  0  0  0  0  0  0
  148.6330  134.3144  160.9155 H   0  0  0  0  0  0  0  0  0  0  0  0
  150.1279  140.2558  155.5601 H   0  0  0  0  0  0  0  0  0  0  0  0
  1  2  1  0  0  0  0
  1 21  1  0  0  0  0
  1 22  1  0  0  0  0
  1 23  1  0  0  0  0
  2  3  1  0  0  0  0
  2  4  1  0  0  0  0
  2 24  1  0  0  0  0
  3 25  1  0  0  0  0
  3 26  1  0  0  0  0
  3 27  1  0  0  0  0
  4 20  1  0  0  0  0
  4  5  2  0  0  0  0
  5  6  1  0  0  0  0
  6  7  1  0  0  0  0
  6 19  2  0  0  0  0
  7  8  1  0  0  0  0
  7 28  1  0  0  0  0
  7 29  1  0  0  0  0
  8  9  2  0  0  0  0
  8 10  1  0  0  0  0
 10 11  1  0  0  0  0
 10 30  1  0  0  0  0
 11 12  1  0  0  0  0
 11 31  1  0  0  0  0
 11 32  1  0  0  0  0
 12 13  1  0  0  0  0
 12 33  1  0  0  0  0
 12 34  1  0  0  0  0
 13 18  1  0  0  0  0
 13 14  1  0  0  0  0
 14 15  1  0  0  0  0
 14 35  1  0  0  0  0
 14 36  1  0  0  0  0
 15 16  1  0  0  0  0
 15 37  1  0  0  0  0
 15 38  1  0  0  0  0
 16 17  1  0  0  0  0
 17 18  1  0  0  0  0
 17 39  1  0  0  0  0
 17 40  1  0  0  0  0
 18 41  1  0  0  0  0
 18 42  1  0  0  0  0
 19 20  1  0  0  0  0
 19 43  1  0  0  0  0
M  END
> <s_m_source_file>
AV-unprocessed.smi

> <i_m_source_file_index>
2186

> <i_lp_mmshare_version>
43012

> <i_f3d_flags>
0

> <s_epik_input>
W0NIM11bQ0hdKFtDSDNdKWMxbmMoW2NIXXMxKVtDSDJdQyg9TylbTkhdW0NIMl1bQ0gyXU4yW0NIMl1bQ0gyXU9bQ0gyXVtDSDJdMg==

> <s_epik_cmdline>
J2VwaWtfcHl0aG9uJywgJy1waCcsICc3LjAnLCAnLXRuJywgJzgnLCAnLW1hJywgJzIwMCcsICctbWV0YWxfYmluZGluZycsICctaW1hZScsICc8aW5maWxlLm1hZT4nLCAnLW9tYWUnLCAnPG91dGZpbGUubWFlPic=

> <r_epik_Ionization_Penalty>
0.226788

> <r_epik_Ionization_Penalty_Charging>
0

> <r_epik_Ionization_Penalty_Neutral>
0.226788

> <r_epik_State_Penalty>
0.21727

> <r_epik_Charging_Adjusted_Penalty>
0.21727

> <i_epik_Tot_Q>
0

> <i_epik_Tot_abs_Q>
0

> <r_epik_Metal_State_Penalty>
0.217263

> <b_epik_Metal_Only>
0

> <s_lp_Force_Field>
OPLS_2005

> <r_lp_Energy>
12.6153

> <b_lp_Chiralities_Consistent>
1

> <s_lp_Variant>
AV-unprocessed.smi:2186-1

> <Gold.Version>
5.8.1

> <Gold.Id.Protein>
6NUR|6NUR_protein|mol2

> <Gold.PLP.Fitness>
41.1469

> <Gold.PLP.PLP>
-39.2441

> <Gold.PLP.part.hbond>
-1.6304

> <Gold.PLP.part.metal>
0.0000

> <Gold.PLP.part.buried>
-5.1132

> <Gold.PLP.part.nonpolar>
-33.7723

> <Gold.PLP.part.repulsive>
0.1815

> <Gold.PLP.ligand.clash>
0.0000

> <Gold.PLP.ligand.torsion>
0.5421

> <Gold.PLP.Chemscore.Hbond>
0.9600

> <Gold.PLP.Chemscore.CHOScore>
0.0000

> <Gold.PLP.Chemscore.Metal>
0.0000

> <Gold.Chemscore.Hbonds>
donor molecule, donor type, donor heavy atom, donor atom, acceptor molecule, acceptor atom, score
      P1  H  6896  6907       L1     9  0.96

> <Gold.PLP.Chemscore.Internal.Correction>
0.1071

> <Gold.Rescore>
     Score         DG    S(hbond)    S(metal)    S(lipo)     H(rot)  DE(clash)    DE(int)     intcor
     16.43     -16.84       0.93        0.00     108.27       1.73       0.02       0.38       ----

> <Gold.Chemscore.Fitness>
16.4349

> <Gold.Chemscore.DG>
-16.8377

> <Gold.Chemscore.ZeroCoef>
-5.4800

> <Gold.Chemscore.Hbond>
0.9305

> <Gold.Chemscore.Metal>
0.0000

> <Gold.Chemscore.Lipo>
108.2745

> <Gold.Chemscore.Internal_Hbond>
0.0000

> <Gold.Chemscore.DEClash>
0.0195

> <Gold.Chemscore.DEInternal>
0.3832

> <Gold.Chemscore.Rot>
1.7259

> <Gold.Chemscore.Internal.Correction>
   9.000000E+99

> <Gold.Chemscore.Hbonds>
donor molecule, donor type, donor heavy atom, donor atom, acceptor molecule, acceptor atom, score
      P1  H  6896  6907       L1     9  0.85

> <Gold.Chemscore.Hbond.Weighted>
-3.1078

> <Gold.Chemscore.Metal.Weighted>
-0.0000

> <Gold.Chemscore.Lipo.Weighted>
-12.6681

> <Gold.Chemscore.Internal_Hbond.Weighted>
0.0000

> <Gold.Chemscore.DEClash.Weighted>
0.0195

> <Gold.Chemscore.DEInternal.Weighted>
0.3832

> <Gold.Chemscore.Rot.Weighted>
4.4182

> <Gold.Chemscore.Internal.Correction.Weighted>
   9.000000E+99

> <Gold.Protein.RotatedTorsions>
[ 6907 6896 6895 6894 ] final   11.02 input  -60.11 | X-H torsion
[ 7974 7965 7964 7962 ] final -108.43 input  175.53 | X-H torsion
[ 8008 7997 7996 7995 ] final   61.19 input   59.86 | X-H torsion
[ 10167 10162 10161 10158 ] final   64.78 input  -65.29 | X-H torsion
[ 10718 10713 10712 10709 ] final   49.54 input   66.30 | X-H torsion
[ 10763 10752 10751 10750 ] final   18.67 input  -60.55 | X-H torsion
[ 11005 11000 10999 10996 ] final   61.18 input  -57.11 | X-H torsion

> <Gold.Protein.ActiveResidues>
 VAL166  LYS551  ARG553  GLY616  TRP617  ASP618  TYR619  PRO620  LYS621  CYS622 
 ASP623  PHE694  ASN695  SER759  ASP760  ASP761  ALA762  ILE779  LEU786  VAL792 
 PHE793  MET794  SER795  GLU796  ALA797  LYS798  CYS799  TRP800  GLU811  SER814 

> <Gold.Protein.RotatedAtoms>
  151.7476  135.0840  160.0325 H   0  0  0  0  0  0  0  0  0  0  0  0  # atno 6907 bound_to 6896
  152.3438  133.6094  159.5904 H   0  0  0  0  0  0  0  0  0  0  0  0  # atno 6908 bound_to 6896
  150.7496  133.9597  159.3553 H   0  0  0  0  0  0  0  0  0  0  0  0  # atno 6909 bound_to 6896
  145.1929  140.9023  143.3414 H   0  0  0  0  0  0  0  0  0  0  0  0  # atno 7974 bound_to 7965
  155.5944  140.3493  155.4576 H   0  0  0  0  0  0  0  0  0  0  0  0  # atno 8008 bound_to 7997
  156.0276  140.1267  157.0317 H   0  0  0  0  0  0  0  0  0  0  0  0  # atno 8009 bound_to 7997
  154.4339  140.1050  156.6039 H   0  0  0  0  0  0  0  0  0  0  0  0  # atno 8010 bound_to 7997
  140.1184  144.4754  150.6935 H   0  0  0  0  0  0  0  0  0  0  0  0  # atno 10167 bound_to 10162
  157.4796  130.8307  149.8078 H   0  0  0  0  0  0  0  0  0  0  0  0  # atno 10718 bound_to 10713
  153.1229  135.6723  153.9306 H   0  0  0  0  0  0  0  0  0  0  0  0  # atno 10763 bound_to 10752
  153.8816  135.3057  155.3446 H   0  0  0  0  0  0  0  0  0  0  0  0  # atno 10764 bound_to 10752
  154.7638  135.4974  153.9594 H   0  0  0  0  0  0  0  0  0  0  0  0  # atno 10765 bound_to 10752
  140.0179  134.6197  155.9682 H   0  0  0  0  0  0  0  0  0  0  0  0  # atno 11005 bound_to 11000
  145.0023  139.3587  143.6161 LP  0  0  0  0  0  0  0  0  0  0  0  0  # atno 17320 bound_to 7965
  146.3432  139.9251  142.8761 LP  0  0  0  0  0  0  0  0  0  0  0  0  # atno 17321 bound_to 7965
  140.6886  143.2363  151.5193 LP  0  0  0  0  0  0  0  0  0  0  0  0  # atno 17342 bound_to 10162
  139.5581  144.2224  152.1647 LP  0  0  0  0  0  0  0  0  0  0  0  0  # atno 17343 bound_to 10162
  156.0115  130.3831  150.2250 LP  0  0  0  0  0  0  0  0  0  0  0  0  # atno 17370 bound_to 10713
  157.0436  131.0042  151.3276 LP  0  0  0  0  0  0  0  0  0  0  0  0  # atno 17371 bound_to 10713
  141.1755  133.6540  156.4812 LP  0  0  0  0  0  0  0  0  0  0  0  0  # atno 17394 bound_to 11000
  140.4438  134.6991  157.5005 LP  0  0  0  0  0  0  0  0  0  0  0  0  # atno 17395 bound_to 11000

$$$$
