AV-unprocessed.smi:701|AV-procd|sdf|3412|dock7
  -GOLD-   22720 0393D 1   1.00000     0.00000
 Structure written by MMmdl.
 48 50  0  0  0  0  0  0  0  0  2 V2000
  151.0288  145.1051  159.2365 C   0  0  0  0  0  0  0  0  0  0  0  0
  152.0972  144.4135  158.3873 C   0  0  0  0  0  0  0  0  0  0  0  0
  151.4618  143.4896  157.5201 O   0  0  0  0  0  0  0  0  0  0  0  0
  150.8753  142.3905  158.2064 C   0  0  2  0  0  0  0  0  0  0  0  0
  151.8345  141.7738  159.2328 C   0  0  0  0  0  0  0  0  0  0  0  0
  152.3276  140.8750  158.0981 C   0  0  1  0  0  0  0  0  0  0  0  0
  152.5913  139.5129  158.5415 N   0  0  0  0  0  0  0  0  0  0  0  0
  153.8040  139.0188  158.8367 C   0  0  0  0  0  0  0  0  0  0  0  0
  154.8258  139.7041  158.8158 O   0  0  0  0  0  0  0  0  0  0  0  0
  153.9057  137.5270  159.1994 C   0  0  0  0  0  0  0  0  0  0  0  0
  154.3277  137.2603  160.5871 N   0  0  0  0  0  0  0  0  0  0  0  0
  154.2326  138.3154  161.5116 C   0  0  0  0  0  0  0  0  0  0  0  0
  154.5714  138.1592  162.8054 C   0  0  0  0  0  0  0  0  0  0  0  0
  155.0475  136.8522  163.2412 C   0  0  0  0  0  0  0  0  0  0  0  0
  155.3571  136.6901  164.4197 O   0  0  0  0  0  0  0  0  0  0  0  0
  155.1244  135.8607  162.3061 N   0  5  0  0  0  0  0  0  0  0  0  0
  154.7758  136.0336  160.9938 C   0  0  0  0  0  0  0  0  0  0  0  0
  154.8423  135.1218  160.1692 O   0  0  0  0  0  0  0  0  0  0  0  0
  150.9571  141.0677  157.3974 C   0  0  0  0  0  0  0  0  0  0  0  0
  151.0069  141.1912  155.8642 C   0  0  0  0  0  0  0  0  0  0  0  0
  149.6630  141.6313  155.2605 C   0  0  0  0  0  0  0  0  0  0  0  0
  148.5436  140.6503  155.6327 C   0  0  0  0  0  0  0  0  0  0  0  0
  148.4761  140.4318  157.1497 C   0  0  0  0  0  0  0  0  0  0  0  0
  149.8497  140.0351  157.7186 C   0  0  0  0  0  0  0  0  0  0  0  0
  151.4794  145.8254  159.9197 H   0  0  0  0  0  0  0  0  0  0  0  0
  150.4732  144.3804  159.8321 H   0  0  0  0  0  0  0  0  0  0  0  0
  150.3164  145.6400  158.6079 H   0  0  0  0  0  0  0  0  0  0  0  0
  152.6551  145.1558  157.8154 H   0  0  0  0  0  0  0  0  0  0  0  0
  152.8062  143.8933  159.0330 H   0  0  0  0  0  0  0  0  0  0  0  0
  149.8798  142.6077  158.5964 H   0  0  0  0  0  0  0  0  0  0  0  0
  152.5901  142.4493  159.6340 H   0  0  0  0  0  0  0  0  0  0  0  0
  151.3151  141.2359  160.0279 H   0  0  0  0  0  0  0  0  0  0  0  0
  153.1532  141.3360  157.5508 H   0  0  0  0  0  0  0  0  0  0  0  0
  151.8037  138.8815  158.5783 H   0  0  0  0  0  0  0  0  0  0  0  0
  152.9411  137.0554  159.0040 H   0  0  0  0  0  0  0  0  0  0  0  0
  154.5969  137.0564  158.4992 H   0  0  0  0  0  0  0  0  0  0  0  0
  153.8643  139.2477  161.1091 H   0  0  0  0  0  0  0  0  0  0  0  0
  154.4890  138.9790  163.5035 H   0  0  0  0  0  0  0  0  0  0  0  0
  151.7820  141.8942  155.5583 H   0  0  0  0  0  0  0  0  0  0  0  0
  151.2990  140.2359  155.4260 H   0  0  0  0  0  0  0  0  0  0  0  0
  149.4109  142.6303  155.6180 H   0  0  0  0  0  0  0  0  0  0  0  0
  149.7477  141.7029  154.1760 H   0  0  0  0  0  0  0  0  0  0  0  0
  147.5850  141.0154  155.2628 H   0  0  0  0  0  0  0  0  0  0  0  0
  148.7225  139.6946  155.1386 H   0  0  0  0  0  0  0  0  0  0  0  0
  148.1230  141.3421  157.6346 H   0  0  0  0  0  0  0  0  0  0  0  0
  147.7427  139.6583  157.3794 H   0  0  0  0  0  0  0  0  0  0  0  0
  150.1215  139.0583  157.3162 H   0  0  0  0  0  0  0  0  0  0  0  0
  149.7536  139.8887  158.7949 H   0  0  0  0  0  0  0  0  0  0  0  0
  1  2  1  0  0  0  0
  1 25  1  0  0  0  0
  1 26  1  0  0  0  0
  1 27  1  0  0  0  0
  2  3  1  0  0  0  0
  2 28  1  0  0  0  0
  2 29  1  0  0  0  0
  3  4  1  0  0  0  0
  4 19  1  0  0  0  0
  4  5  1  0  0  0  0
  4 30  1  0  0  0  0
  5  6  1  0  0  0  0
  5 31  1  0  0  0  0
  5 32  1  0  0  0  0
  6  7  1  0  0  0  0
  6 19  1  0  0  0  0
  6 33  1  0  0  0  0
  7  8  1  0  0  0  0
  7 34  1  0  0  0  0
  8  9  2  0  0  0  0
  8 10  1  0  0  0  0
 10 11  1  0  0  0  0
 10 35  1  0  0  0  0
 10 36  1  0  0  0  0
 11 17  1  0  0  0  0
 11 12  1  0  0  0  0
 12 13  2  0  0  0  0
 12 37  1  0  0  0  0
 13 14  1  0  0  0  0
 13 38  1  0  0  0  0
 14 15  2  0  0  0  0
 14 16  1  0  0  0  0
 16 17  1  0  0  0  0
 17 18  2  0  0  0  0
 19 24  1  0  0  0  0
 19 20  1  0  0  0  0
 20 21  1  0  0  0  0
 20 39  1  0  0  0  0
 20 40  1  0  0  0  0
 21 22  1  0  0  0  0
 21 41  1  0  0  0  0
 21 42  1  0  0  0  0
 22 23  1  0  0  0  0
 22 43  1  0  0  0  0
 22 44  1  0  0  0  0
 23 24  1  0  0  0  0
 23 45  1  0  0  0  0
 23 46  1  0  0  0  0
 24 47  1  0  0  0  0
 24 48  1  0  0  0  0
M  CHG  1  16  -1
M  END
> <s_m_source_file>
AV-unprocessed.smi

> <i_m_source_file_index>
701

> <i_lp_mmshare_version>
43012

> <i_f3d_flags>
0

> <s_epik_input>
W0NIMl0xW0NIMl1bQ0gyXVtDSDJdW0NIMl1DMTJbQ0BIXShPW0NIMl1bQ0gzXSlbQ0gyXVtDQEhdMltOSF1DKD1PKVtDSDJdbjNbY0hdW2NIXWMoPU8pW25IXWMzPU8=

> <s_epik_cmdline>
J2VwaWtfcHl0aG9uJywgJy1waCcsICc3LjAnLCAnLXRuJywgJzgnLCAnLW1hJywgJzIwMCcsICctbWV0YWxfYmluZGluZycsICctaW1hZScsICc8aW5maWxlLm1hZT4nLCAnLW9tYWUnLCAnPG91dGZpbGUubWFlPic=

> <r_lp_tautomer_probability>
0.999537

> <r_epik_Ionization_Penalty>
3.12423

> <r_epik_Ionization_Penalty_Charging>
2.92877e-08

> <r_epik_Ionization_Penalty_Neutral>
3.12423

> <r_epik_State_Penalty>
3.12332

> <r_epik_Charging_Adjusted_Penalty>
3.12332

> <i_epik_Tot_Q>
-1

> <i_epik_Tot_abs_Q>
1

> <r_epik_Metal_State_Penalty>
0.463873

> <b_epik_Metal_Only>
1

> <s_lp_Force_Field>
OPLS_2005

> <r_lp_Energy>
34.5124

> <b_lp_Chiralities_Consistent>
1

> <s_lp_Variant>
AV-unprocessed.smi:701-5

> <Gold.Version>
5.8.1

> <Gold.Id.Protein>
6NUR|6NUR_protein|mol2

> <Gold.PLP.Fitness>
43.6487

> <Gold.PLP.PLP>
-38.9181

> <Gold.PLP.part.hbond>
-2.0000

> <Gold.PLP.part.metal>
0.0000

> <Gold.PLP.part.buried>
-4.8013

> <Gold.PLP.part.nonpolar>
-31.6321

> <Gold.PLP.part.repulsive>
0.2879

> <Gold.PLP.ligand.clash>
0.0000

> <Gold.PLP.ligand.torsion>
0.8049

> <Gold.PLP.Chemscore.Hbond>
2.0000

> <Gold.PLP.Chemscore.CHOScore>
0.0000

> <Gold.PLP.Chemscore.Metal>
0.0000

> <Gold.Chemscore.Hbonds>
donor molecule, donor type, donor heavy atom, donor atom, acceptor molecule, acceptor atom, score
      P1  H  6896  6909       L1    18  0.03
      P1  H  7997  8010       L1     9  1.00

> <Gold.PLP.Chemscore.Internal.Correction>
0.3404

> <Gold.Rescore>
     Score         DG    S(hbond)    S(metal)    S(lipo)     H(rot)  DE(clash)    DE(int)     intcor
     17.00     -17.76       1.94        0.00      94.12       2.04       0.19       0.57       ----

> <Gold.Chemscore.Fitness>
17.0010

> <Gold.Chemscore.DG>
-17.7607

> <Gold.Chemscore.ZeroCoef>
-5.4800

> <Gold.Chemscore.Hbond>
1.9434

> <Gold.Chemscore.Metal>
0.0000

> <Gold.Chemscore.Lipo>
94.1198

> <Gold.Chemscore.Internal_Hbond>
0.0000

> <Gold.Chemscore.DEClash>
0.1866

> <Gold.Chemscore.DEInternal>
0.5731

> <Gold.Chemscore.Rot>
2.0399

> <Gold.Chemscore.Internal.Correction>
   9.000000E+99

> <Gold.Chemscore.Hbonds>
donor molecule, donor type, donor heavy atom, donor atom, acceptor molecule, acceptor atom, score
      P1  H  6896  6909       L1    18  0.05
      P1  H  7997  8010       L1     9  0.70

> <Gold.Chemscore.Hbond.Weighted>
-6.4909

> <Gold.Chemscore.Metal.Weighted>
-0.0000

> <Gold.Chemscore.Lipo.Weighted>
-11.0120

> <Gold.Chemscore.Internal_Hbond.Weighted>
0.0000

> <Gold.Chemscore.DEClash.Weighted>
0.1866

> <Gold.Chemscore.DEInternal.Weighted>
0.5731

> <Gold.Chemscore.Rot.Weighted>
5.2222

> <Gold.Chemscore.Internal.Correction.Weighted>
   9.000000E+99

> <Gold.Protein.RotatedTorsions>
[ 6907 6896 6895 6894 ] final -151.94 input  -60.11 | X-H torsion
[ 7974 7965 7964 7962 ] final  -68.60 input  175.53 | X-H torsion
[ 8008 7997 7996 7995 ] final   -6.73 input   59.86 | X-H torsion
[ 10167 10162 10161 10158 ] final  -94.75 input  -65.29 | X-H torsion
[ 10718 10713 10712 10709 ] final -144.41 input   66.30 | X-H torsion
[ 10763 10752 10751 10750 ] final  171.70 input  -60.55 | X-H torsion
[ 11005 11000 10999 10996 ] final  -90.07 input  -57.11 | X-H torsion

> <Gold.Protein.ActiveResidues>
 VAL166  LYS551  ARG553  GLY616  TRP617  ASP618  TYR619  PRO620  LYS621  CYS622 
 ASP623  PHE694  ASN695  SER759  ASP760  ASP761  ALA762  ILE779  LEU786  VAL792 
 PHE793  MET794  SER795  GLU796  ALA797  LYS798  CYS799  TRP800  GLU811  SER814 

> <Gold.Protein.RotatedAtoms>
  151.2204  133.4505  159.2600 H   0  0  0  0  0  0  0  0  0  0  0  0  # atno 6907 bound_to 6896
  151.0890  134.9904  159.8403 H   0  0  0  0  0  0  0  0  0  0  0  0  # atno 6908 bound_to 6896
  152.5432  134.2139  159.8814 H   0  0  0  0  0  0  0  0  0  0  0  0  # atno 6909 bound_to 6896
  145.7144  140.9065  143.0663 H   0  0  0  0  0  0  0  0  0  0  0  0  # atno 7974 bound_to 7965
  154.5909  140.2425  155.7922 H   0  0  0  0  0  0  0  0  0  0  0  0  # atno 8008 bound_to 7997
  156.2246  140.2986  155.9990 H   0  0  0  0  0  0  0  0  0  0  0  0  # atno 8009 bound_to 7997
  155.2376  140.0406  157.2961 H   0  0  0  0  0  0  0  0  0  0  0  0  # atno 8010 bound_to 7997
  140.3112  143.3103  152.0146 H   0  0  0  0  0  0  0  0  0  0  0  0  # atno 10167 bound_to 10162
  156.3698  130.7782  151.1961 H   0  0  0  0  0  0  0  0  0  0  0  0  # atno 10718 bound_to 10713
  154.4157  135.2757  155.2008 H   0  0  0  0  0  0  0  0  0  0  0  0  # atno 10763 bound_to 10752
  154.3975  135.6052  153.5882 H   0  0  0  0  0  0  0  0  0  0  0  0  # atno 10764 bound_to 10752
  152.9832  135.5918  154.4445 H   0  0  0  0  0  0  0  0  0  0  0  0  # atno 10765 bound_to 10752
  141.1573  133.7669  156.9685 H   0  0  0  0  0  0  0  0  0  0  0  0  # atno 11005 bound_to 11000
  144.6933  139.9118  143.7464 LP  0  0  0  0  0  0  0  0  0  0  0  0  # atno 17320 bound_to 7965
  146.0683  139.3673  143.0539 LP  0  0  0  0  0  0  0  0  0  0  0  0  # atno 17321 bound_to 7965
  139.4893  144.6383  151.6931 LP  0  0  0  0  0  0  0  0  0  0  0  0  # atno 17342 bound_to 10162
  140.5566  144.0338  150.6150 LP  0  0  0  0  0  0  0  0  0  0  0  0  # atno 17343 bound_to 10162
  157.7482  131.0376  150.4462 LP  0  0  0  0  0  0  0  0  0  0  0  0  # atno 17370 bound_to 10713
  156.4687  130.4048  149.6531 LP  0  0  0  0  0  0  0  0  0  0  0  0  # atno 17371 bound_to 10713
  140.1145  134.9456  157.2114 LP  0  0  0  0  0  0  0  0  0  0  0  0  # atno 17394 bound_to 11000
  140.3150  134.2980  155.7258 LP  0  0  0  0  0  0  0  0  0  0  0  0  # atno 17395 bound_to 11000

$$$$
