AV-unprocessed.smi:2772|AV-procd|sdf|10674|dock5
  -GOLD-   2272015123D 1   1.00000     0.00000
 Structure written by MMmdl.
 56 58  0  0  0  0  0  0  0  0  4 V2000
  150.8229  144.9662  159.1195 C   0  0  0  0  0  0  0  0  0  0  0  0
  151.6754  143.9851  159.8961 C   0  0  0  0  0  0  0  0  0  0  0  0
  152.3096  142.8835  159.2844 C   0  0  0  0  0  0  0  0  0  0  0  0
  153.0850  142.0098  160.0748 C   0  0  0  0  0  0  0  0  0  0  0  0
  153.2094  142.2424  161.4626 C   0  0  0  0  0  0  0  0  0  0  0  0
  154.0079  141.3384  162.2170 N   0  0  0  0  0  0  0  0  0  0  0  0
  154.2873  140.0490  161.9552 C   0  0  0  0  0  0  0  0  0  0  0  0
  153.8965  139.4257  160.9688 O   0  0  0  0  0  0  0  0  0  0  0  0
  155.0706  139.5171  162.9058 N   0  0  0  0  0  0  0  0  0  0  0  0
  155.5702  138.1433  162.9256 C   0  0  2  0  0  0  0  0  0  0  0  0
  154.4313  137.1579  162.6490 C   0  0  0  0  0  0  0  0  0  0  0  0
  154.9233  135.7027  162.7282 C   0  0  0  0  0  0  0  0  0  0  0  0
  155.5570  135.3807  164.0428 N   0  3  1  0  0  0  0  0  0  0  0  0
  155.9946  133.9452  164.1573 C   0  0  2  0  0  0  0  0  0  0  0  0
  154.9608  132.9238  163.6185 C   0  0  0  0  0  0  0  0  0  0  0  0
  153.6951  132.8690  164.4945 C   0  0  0  0  0  0  0  0  0  0  0  0
  154.0334  132.5252  165.8985 N   0  3  2  0  0  0  0  0  0  0  0  0
  152.8332  132.3876  166.7517 C   0  0  0  0  0  0  0  0  0  0  0  0
  155.0397  133.4491  166.4795 C   0  0  0  0  0  0  0  0  0  0  0  0
  156.3085  133.5013  165.6082 C   0  0  0  0  0  0  0  0  0  0  0  0
  156.6488  136.3526  164.3543 C   0  0  0  0  0  0  0  0  0  0  0  0
  156.1754  137.8148  164.2933 C   0  0  0  0  0  0  0  0  0  0  0  0
  152.5596  143.3747  162.0151 C   0  0  0  0  0  0  0  0  0  0  0  0
  151.8270  144.1876  161.2232 N   0  3  0  0  0  0  0  0  0  0  0  0
  150.7584  144.6854  158.0678 H   0  0  0  0  0  0  0  0  0  0  0  0
  151.2472  145.9688  159.1794 H   0  0  0  0  0  0  0  0  0  0  0  0
  149.8115  144.9954  159.5262 H   0  0  0  0  0  0  0  0  0  0  0  0
  152.2049  142.7067  158.2237 H   0  0  0  0  0  0  0  0  0  0  0  0
  153.5746  141.1634  159.6151 H   0  0  0  0  0  0  0  0  0  0  0  0
  154.4593  141.7340  163.0290 H   0  0  0  0  0  0  0  0  0  0  0  0
  155.3435  140.1091  163.6768 H   0  0  0  0  0  0  0  0  0  0  0  0
  156.3397  138.0034  162.1640 H   0  0  0  0  0  0  0  0  0  0  0  0
  153.6234  137.3086  163.3668 H   0  0  0  0  0  0  0  0  0  0  0  0
  154.0067  137.3470  161.6621 H   0  0  0  0  0  0  0  0  0  0  0  0
  154.0520  135.0766  162.5511 H   0  0  0  0  0  0  0  0  0  0  0  0
  155.6321  135.5022  161.9232 H   0  0  0  0  0  0  0  0  0  0  0  0
  156.9066  133.8445  163.5666 H   0  0  0  0  0  0  0  0  0  0  0  0
  154.7046  133.0938  162.5747 H   0  0  0  0  0  0  0  0  0  0  0  0
  155.4191  131.9335  163.6188 H   0  0  0  0  0  0  0  0  0  0  0  0
  153.1696  133.8247  164.4636 H   0  0  0  0  0  0  0  0  0  0  0  0
  153.0104  132.1190  164.0961 H   0  0  0  0  0  0  0  0  0  0  0  0
  152.2932  133.3324  166.8252 H   0  0  0  0  0  0  0  0  0  0  0  0
  153.1098  132.0723  167.7584 H   0  0  0  0  0  0  0  0  0  0  0  0
  152.1554  131.6368  166.3437 H   0  0  0  0  0  0  0  0  0  0  0  0
  154.6094  134.4463  166.5855 H   0  0  0  0  0  0  0  0  0  0  0  0
  155.3022  133.1102  167.4825 H   0  0  0  0  0  0  0  0  0  0  0  0
  156.7447  132.5014  165.5794 H   0  0  0  0  0  0  0  0  0  0  0  0
  157.0770  134.1101  166.0797 H   0  0  0  0  0  0  0  0  0  0  0  0
  157.0361  136.1978  165.3586 H   0  0  0  0  0  0  0  0  0  0  0  0
  157.4798  136.2001  163.6638 H   0  0  0  0  0  0  0  0  0  0  0  0
  157.0155  138.4799  164.4982 H   0  0  0  0  0  0  0  0  0  0  0  0
  155.4409  137.9932  165.0804 H   0  0  0  0  0  0  0  0  0  0  0  0
  152.5999  143.6742  163.0511 H   0  0  0  0  0  0  0  0  0  0  0  0
  154.8427  135.5232  164.7421 H   0  0  0  0  0  0  0  0  0  0  0  0
  154.4667  131.6126  165.8724 H   0  0  0  0  0  0  0  0  0  0  0  0
  151.3680  144.9939  161.6480 H   0  0  0  0  0  0  0  0  0  0  0  0
  1  2  1  0  0  0  0
  1 25  1  0  0  0  0
  1 26  1  0  0  0  0
  1 27  1  0  0  0  0
  2 24  1  0  0  0  0
  2  3  2  0  0  0  0
  3  4  1  0  0  0  0
  3 28  1  0  0  0  0
  4  5  2  0  0  0  0
  4 29  1  0  0  0  0
  5  6  1  0  0  0  0
  5 23  1  0  0  0  0
  6  7  1  0  0  0  0
  6 30  1  0  0  0  0
  7  8  2  0  0  0  0
  7  9  1  0  0  0  0
  9 10  1  0  0  0  0
  9 31  1  0  0  0  0
 10 22  1  0  0  0  0
 10 11  1  0  0  0  0
 10 32  1  0  0  0  0
 11 12  1  0  0  0  0
 11 33  1  0  0  0  0
 11 34  1  0  0  0  0
 12 13  1  0  0  0  0
 12 35  1  0  0  0  0
 12 36  1  0  0  0  0
 13 14  1  0  0  0  0
 13 21  1  0  0  0  0
 13 54  1  0  0  0  0
 14 20  1  0  0  0  0
 14 15  1  0  0  0  0
 14 37  1  0  0  0  0
 15 16  1  0  0  0  0
 15 38  1  0  0  0  0
 15 39  1  0  0  0  0
 16 17  1  0  0  0  0
 16 40  1  0  0  0  0
 16 41  1  0  0  0  0
 17 18  1  0  0  0  0
 17 19  1  0  0  0  0
 17 55  1  0  0  0  0
 18 42  1  0  0  0  0
 18 43  1  0  0  0  0
 18 44  1  0  0  0  0
 19 20  1  0  0  0  0
 19 45  1  0  0  0  0
 19 46  1  0  0  0  0
 20 47  1  0  0  0  0
 20 48  1  0  0  0  0
 21 22  1  0  0  0  0
 21 49  1  0  0  0  0
 21 50  1  0  0  0  0
 22 51  1  0  0  0  0
 22 52  1  0  0  0  0
 23 24  2  0  0  0  0
 23 53  1  0  0  0  0
 24 56  1  0  0  0  0
M  CHG  1  13   1
M  CHG  1  17   1
M  CHG  1  24   1
M  END
> <s_m_source_file>
AV-unprocessed.smi

> <i_m_source_file_index>
2772

> <i_lp_mmshare_version>
43012

> <i_f3d_flags>
0

> <s_epik_input>
W0NIM11jMVtjSF1bY0hdYyhbY0hdbjEpW05IXUMoPU8pW05IXVtDSF0yW0NIMl1bQ0gyXU4oW0NIMl1bQ0gyXTIpW0NIXTNbQ0gyXVtDSDJdTihbQ0gzXSlbQ0gyXVtDSDJdMw==

> <s_epik_cmdline>
J2VwaWtfcHl0aG9uJywgJy1waCcsICc3LjAnLCAnLXRuJywgJzgnLCAnLW1hJywgJzIwMCcsICctbWV0YWxfYmluZGluZycsICctaW1hZScsICc8aW5maWxlLm1hZT4nLCAnLW9tYWUnLCAnPG91dGZpbGUubWFlPic=

> <r_epik_Ionization_Penalty>
2.34117

> <r_epik_Ionization_Penalty_Charging>
2.34115

> <r_epik_Ionization_Penalty_Neutral>
2.22786e-05

> <r_epik_State_Penalty>
2.43944

> <r_epik_Charging_Adjusted_Penalty>
4.78059

> <i_epik_Tot_Q>
3

> <i_epik_Tot_abs_Q>
3

> <r_epik_Metal_State_Penalty>
2.45906

> <b_epik_Metal_Only>
0

> <s_lp_Force_Field>
OPLS_2005

> <r_lp_Energy>
56.0688

> <b_lp_Chiralities_Consistent>
1

> <s_lp_Variant>
AV-unprocessed.smi:2772-11

> <Gold.Version>
5.8.1

> <Gold.Id.Protein>
6NUR|6NUR_protein|mol2

> <Gold.PLP.Fitness>
42.4329

> <Gold.PLP.PLP>
-43.2591

> <Gold.PLP.part.hbond>
-0.5481

> <Gold.PLP.part.metal>
0.0000

> <Gold.PLP.part.buried>
-6.7152

> <Gold.PLP.part.nonpolar>
-35.7927

> <Gold.PLP.part.repulsive>
0.0578

> <Gold.PLP.ligand.clash>
0.0000

> <Gold.PLP.ligand.torsion>
0.4273

> <Gold.PLP.Chemscore.Hbond>
0.0000

> <Gold.PLP.Chemscore.CHOScore>
0.0000

> <Gold.PLP.Chemscore.Metal>
0.0000

> <Gold.PLP.Chemscore.Internal.Correction>
0.0285

> <Gold.Rescore>
     Score         DG    S(hbond)    S(metal)    S(lipo)     H(rot)  DE(clash)    DE(int)     intcor
     14.93     -18.20       0.00        0.00     135.44       1.22       0.09       3.18       ----

> <Gold.Chemscore.Fitness>
14.9298

> <Gold.Chemscore.DG>
-18.1970

> <Gold.Chemscore.ZeroCoef>
-5.4800

> <Gold.Chemscore.Hbond>
0.0000

> <Gold.Chemscore.Metal>
0.0000

> <Gold.Chemscore.Lipo>
135.4354

> <Gold.Chemscore.Internal_Hbond>
0.0000

> <Gold.Chemscore.DEClash>
0.0912

> <Gold.Chemscore.DEInternal>
3.1760

> <Gold.Chemscore.Rot>
1.2222

> <Gold.Chemscore.Internal.Correction>
   9.000000E+99

> <Gold.Chemscore.Hbond.Weighted>
-0.0000

> <Gold.Chemscore.Metal.Weighted>
-0.0000

> <Gold.Chemscore.Lipo.Weighted>
-15.8459

> <Gold.Chemscore.Internal_Hbond.Weighted>
0.0000

> <Gold.Chemscore.DEClash.Weighted>
0.0912

> <Gold.Chemscore.DEInternal.Weighted>
3.1760

> <Gold.Chemscore.Rot.Weighted>
3.1289

> <Gold.Chemscore.Internal.Correction.Weighted>
   9.000000E+99

> <Gold.Protein.RotatedTorsions>
[ 6907 6896 6895 6894 ] final  126.08 input  -60.11 | X-H torsion
[ 7974 7965 7964 7962 ] final   71.20 input  175.53 | X-H torsion
[ 8008 7997 7996 7995 ] final   58.13 input   59.86 | X-H torsion
[ 10167 10162 10161 10158 ] final  109.08 input  -65.29 | X-H torsion
[ 10718 10713 10712 10709 ] final -130.67 input   66.30 | X-H torsion
[ 10763 10752 10751 10750 ] final   59.43 input  -60.55 | X-H torsion
[ 11005 11000 10999 10996 ] final  -41.57 input  -57.11 | X-H torsion

> <Gold.Protein.ActiveResidues>
 VAL166  LYS551  ARG553  GLY616  TRP617  ASP618  TYR619  PRO620  LYS621  CYS622 
 ASP623  PHE694  ASN695  SER759  ASP760  ASP761  ALA762  ILE779  LEU786  VAL792 
 PHE793  MET794  SER795  GLU796  ALA797  LYS798  CYS799  TRP800  GLU811  SER814 

> <Gold.Protein.RotatedAtoms>
  152.3936  133.6714  159.6257 H   0  0  0  0  0  0  0  0  0  0  0  0  # atno 6907 bound_to 6896
  150.7839  133.8913  159.3323 H   0  0  0  0  0  0  0  0  0  0  0  0  # atno 6908 bound_to 6896
  151.6694  135.0979  160.0246 H   0  0  0  0  0  0  0  0  0  0  0  0  # atno 6909 bound_to 6896
  145.7687  139.2833  143.1334 H   0  0  0  0  0  0  0  0  0  0  0  0  # atno 7974 bound_to 7965
  155.5450  140.3485  155.4455 H   0  0  0  0  0  0  0  0  0  0  0  0  # atno 8008 bound_to 7997
  156.0624  140.1343  156.9952 H   0  0  0  0  0  0  0  0  0  0  0  0  # atno 8009 bound_to 7997
  154.4486  140.0982  156.6521 H   0  0  0  0  0  0  0  0  0  0  0  0  # atno 8010 bound_to 7997
  139.6795  144.7119  151.1541 H   0  0  0  0  0  0  0  0  0  0  0  0  # atno 10167 bound_to 10162
  156.2167  130.6953  151.0711 H   0  0  0  0  0  0  0  0  0  0  0  0  # atno 10718 bound_to 10713
  152.9894  135.5572  154.5711 H   0  0  0  0  0  0  0  0  0  0  0  0  # atno 10763 bound_to 10752
  154.5111  135.2802  155.1343 H   0  0  0  0  0  0  0  0  0  0  0  0  # atno 10764 bound_to 10752
  154.2735  135.6358  153.5372 H   0  0  0  0  0  0  0  0  0  0  0  0  # atno 10765 bound_to 10752
  141.0255  133.6843  156.2476 H   0  0  0  0  0  0  0  0  0  0  0  0  # atno 11005 bound_to 11000
  146.0191  140.8364  142.9932 LP  0  0  0  0  0  0  0  0  0  0  0  0  # atno 17320 bound_to 7965
  144.6816  140.2603  143.7320 LP  0  0  0  0  0  0  0  0  0  0  0  0  # atno 17321 bound_to 7965
  140.7647  143.5721  150.8985 LP  0  0  0  0  0  0  0  0  0  0  0  0  # atno 17342 bound_to 10162
  139.9392  143.6402  152.3058 LP  0  0  0  0  0  0  0  0  0  0  0  0  # atno 17343 bound_to 10162
  157.7067  131.0753  150.6643 LP  0  0  0  0  0  0  0  0  0  0  0  0  # atno 17370 bound_to 10713
  156.6705  130.4538  149.5659 LP  0  0  0  0  0  0  0  0  0  0  0  0  # atno 17371 bound_to 10713
  140.6498  134.5079  157.5576 LP  0  0  0  0  0  0  0  0  0  0  0  0  # atno 17394 bound_to 11000
  139.9173  134.8219  156.1323 LP  0  0  0  0  0  0  0  0  0  0  0  0  # atno 17395 bound_to 11000

$$$$
