AV-unprocessed.smi:37|AV-procd|sdf|329|dock3
  -GOLD-   2262016153D 1   1.00000     0.00000
 Structure written by MMmdl.
 43 44  0  0  0  0  0  0  0  0  2 V2000
  147.8193  141.6907  154.4412 C   0  0  0  0  0  0  0  0  0  0  0  0
  146.8387  141.2523  155.5387 C   0  0  0  0  0  0  0  0  0  0  0  0
  147.5158  140.5734  156.7313 C   0  0  0  0  0  0  0  0  0  0  0  0
  148.3382  141.1501  157.4452 O   0  0  0  0  0  0  0  0  0  0  0  0
  147.0972  139.3119  156.8841 O   0  0  0  0  0  0  0  0  0  0  0  0
  147.5746  138.5242  157.9627 C   0  0  0  0  0  0  0  0  0  0  0  0
  149.1137  138.4710  157.9808 C   0  0  2  0  0  0  0  0  0  0  0  0
  149.6761  138.0952  156.7246 O   0  0  0  0  0  0  0  0  0  0  0  0
  150.8367  137.3323  156.9142 C   0  0  2  0  0  0  0  0  0  0  0  0
  150.5890  135.9074  156.4484 N   0  0  0  0  0  0  0  0  0  0  0  0
  149.4332  135.5563  155.7684 C   0  0  0  0  0  0  0  0  0  0  0  0
  149.2179  134.2917  155.3538 C   0  0  0  0  0  0  0  0  0  0  0  0
  148.0824  133.9856  154.7027 F   0  0  0  0  0  0  0  0  0  0  0  0
  150.2223  133.2641  155.6167 C   0  0  0  0  0  0  0  0  0  0  0  0
  150.0064  132.1052  155.2661 O   0  0  0  0  0  0  0  0  0  0  0  0
  151.3714  133.6441  156.2459 N   0  5  0  0  0  0  0  0  0  0  0  0
  151.5997  134.9270  156.6530 C   0  0  0  0  0  0  0  0  0  0  0  0
  152.6480  135.2829  157.1914 O   0  0  0  0  0  0  0  0  0  0  0  0
  151.1568  137.3761  158.4209 C   0  0  1  0  0  0  0  0  0  0  0  0
  152.3310  138.9409  158.7979 Br  0  0  0  0  0  0  0  0  0  0  0  0
  149.7940  137.6084  159.0528 C   0  0  2  0  0  0  0  0  0  0  0  0
  149.1132  136.3740  159.2526 O   0  0  0  0  0  0  0  0  0  0  0  0
  148.1773  136.2531  160.2119 C   0  0  0  0  0  0  0  0  0  0  0  0
  147.6996  137.1761  160.8717 O   0  0  0  0  0  0  0  0  0  0  0  0
  147.7107  134.8118  160.4107 C   0  0  0  0  0  0  0  0  0  0  0  0
  147.6251  134.4127  161.8902 C   0  0  0  0  0  0  0  0  0  0  0  0
  147.2864  142.1745  153.6228 H   0  0  0  0  0  0  0  0  0  0  0  0
  148.3573  140.8379  154.0255 H   0  0  0  0  0  0  0  0  0  0  0  0
  148.5533  142.4018  154.8222 H   0  0  0  0  0  0  0  0  0  0  0  0
  146.2872  142.1188  155.9046 H   0  0  0  0  0  0  0  0  0  0  0  0
  146.1027  140.5649  155.1208 H   0  0  0  0  0  0  0  0  0  0  0  0
  147.2091  138.9412  158.9019 H   0  0  0  0  0  0  0  0  0  0  0  0
  147.1762  137.5119  157.8812 H   0  0  0  0  0  0  0  0  0  0  0  0
  149.4561  139.4938  158.1437 H   0  0  0  0  0  0  0  0  0  0  0  0
  151.6468  137.6903  156.2767 H   0  0  0  0  0  0  0  0  0  0  0  0
  148.6797  136.2936  155.5475 H   0  0  0  0  0  0  0  0  0  0  0  0
  151.6699  136.4854  158.7827 H   0  0  0  0  0  0  0  0  0  0  0  0
  149.8650  138.1435  160.0011 H   0  0  0  0  0  0  0  0  0  0  0  0
  146.7294  134.7030  159.9478 H   0  0  0  0  0  0  0  0  0  0  0  0
  148.3863  134.1417  159.8791 H   0  0  0  0  0  0  0  0  0  0  0  0
  147.1401  133.4429  161.9994 H   0  0  0  0  0  0  0  0  0  0  0  0
  147.0523  135.1372  162.4706 H   0  0  0  0  0  0  0  0  0  0  0  0
  148.6176  134.3324  162.3334 H   0  0  0  0  0  0  0  0  0  0  0  0
  1  2  1  0  0  0  0
  1 27  1  0  0  0  0
  1 28  1  0  0  0  0
  1 29  1  0  0  0  0
  2  3  1  0  0  0  0
  2 30  1  0  0  0  0
  2 31  1  0  0  0  0
  3  4  2  0  0  0  0
  3  5  1  0  0  0  0
  5  6  1  0  0  0  0
  6  7  1  0  0  0  0
  6 32  1  0  0  0  0
  6 33  1  0  0  0  0
  7 21  1  0  0  0  0
  7  8  1  0  0  0  0
  7 34  1  0  0  0  0
  8  9  1  0  0  0  0
  9 10  1  0  0  0  0
  9 19  1  0  0  0  0
  9 35  1  0  0  0  0
 10 17  1  0  0  0  0
 10 11  1  0  0  0  0
 11 12  2  0  0  0  0
 11 36  1  0  0  0  0
 12 13  1  0  0  0  0
 12 14  1  0  0  0  0
 14 15  2  0  0  0  0
 14 16  1  0  0  0  0
 16 17  1  0  0  0  0
 17 18  2  0  0  0  0
 19 20  1  0  0  0  0
 19 21  1  0  0  0  0
 19 37  1  0  0  0  0
 21 22  1  0  0  0  0
 21 38  1  0  0  0  0
 22 23  1  0  0  0  0
 23 24  2  0  0  0  0
 23 25  1  0  0  0  0
 25 26  1  0  0  0  0
 25 39  1  0  0  0  0
 25 40  1  0  0  0  0
 26 41  1  0  0  0  0
 26 42  1  0  0  0  0
 26 43  1  0  0  0  0
M  CHG  1  16  -1
M  END
> <s_m_source_file>
AV-unprocessed.smi

> <i_m_source_file_index>
37

> <i_lp_mmshare_version>
43012

> <i_f3d_flags>
0

> <s_epik_input>
W0NIM11bQ0gyXUMoPU8pT1tDSDJdW0NAQEhdMU9bQ0BASF0objJbY0hdYyhGKWMoPU8pW25IXWMyPU8pW0NAQEhdKEJyKVtDQEhdMU9DKD1PKVtDSDJdW0NIM10=

> <s_epik_cmdline>
J2VwaWtfcHl0aG9uJywgJy1waCcsICc3LjAnLCAnLXRuJywgJzgnLCAnLW1hJywgJzIwMCcsICctbWV0YWxfYmluZGluZycsICctaW1hZScsICc8aW5maWxlLm1hZT4nLCAnLW9tYWUnLCAnPG91dGZpbGUubWFlPic=

> <r_epik_Ionization_Penalty>
1.08158

> <r_epik_Ionization_Penalty_Charging>
9.05154e-09

> <r_epik_Ionization_Penalty_Neutral>
1.08158

> <r_epik_State_Penalty>
1.13706

> <r_epik_Charging_Adjusted_Penalty>
1.13706

> <i_epik_Tot_Q>
-1

> <i_epik_Tot_abs_Q>
1

> <r_epik_Metal_State_Penalty>
0.00343535

> <b_epik_Metal_Only>
0

> <s_epik_Chemistry_Notes>
This compound has an ester and may undergo hydrolysis at high or low pH. This compound contains an acetal/aminal-like group ( X-CH(R)-Y where X, Y are N, S, or O) that may be acid/base labile, releasing an aldehyde.

> <s_lp_Force_Field>
OPLS_2005

> <r_lp_Energy>
30.7461

> <b_lp_Chiralities_Consistent>
1

> <s_lp_Variant>
AV-unprocessed.smi:37-27

> <Gold.Version>
5.8.1

> <Gold.Id.Protein>
6NUR|6NUR_protein|mol2

> <Gold.PLP.Fitness>
36.1877

> <Gold.PLP.PLP>
-29.0462

> <Gold.PLP.part.hbond>
-3.3137

> <Gold.PLP.part.metal>
0.0000

> <Gold.PLP.part.buried>
-5.9111

> <Gold.PLP.part.nonpolar>
-20.3817

> <Gold.PLP.part.repulsive>
0.0589

> <Gold.PLP.ligand.clash>
0.0000

> <Gold.PLP.ligand.torsion>
0.7276

> <Gold.PLP.Chemscore.Hbond>
2.7600

> <Gold.PLP.Chemscore.CHOScore>
0.0000

> <Gold.PLP.Chemscore.Metal>
0.0000

> <Gold.Chemscore.Hbonds>
donor molecule, donor type, donor heavy atom, donor atom, acceptor molecule, acceptor atom, score
      P1  H  6931  6943       L1    24  0.86
      P1  H  6934  6947       L1    24  0.91
      P1  H 10752 10764       L1    18  0.28

> <Gold.PLP.Chemscore.Internal.Correction>
0.3168

> <Gold.Rescore>
     Score         DG    S(hbond)    S(metal)    S(lipo)     H(rot)  DE(clash)    DE(int)     intcor
      7.27     -10.47       2.45        0.00      44.10       3.27       0.06       3.14       ----

> <Gold.Chemscore.Fitness>
7.2693

> <Gold.Chemscore.DG>
-10.4733

> <Gold.Chemscore.ZeroCoef>
-5.4800

> <Gold.Chemscore.Hbond>
2.4542

> <Gold.Chemscore.Metal>
0.0000

> <Gold.Chemscore.Lipo>
44.0996

> <Gold.Chemscore.Internal_Hbond>
0.0000

> <Gold.Chemscore.DEClash>
0.0613

> <Gold.Chemscore.DEInternal>
3.1427

> <Gold.Chemscore.Rot>
3.2669

> <Gold.Chemscore.Internal.Correction>
   9.000000E+99

> <Gold.Chemscore.Hbonds>
donor molecule, donor type, donor heavy atom, donor atom, acceptor molecule, acceptor atom, score
      P1  H  6931  6943       L1    24  0.74
      P1  H  6934  6947       L1    24  0.88

> <Gold.Chemscore.Hbond.Weighted>
-8.1970

> <Gold.Chemscore.Metal.Weighted>
-0.0000

> <Gold.Chemscore.Lipo.Weighted>
-5.1597

> <Gold.Chemscore.Internal_Hbond.Weighted>
0.0000

> <Gold.Chemscore.DEClash.Weighted>
0.0613

> <Gold.Chemscore.DEInternal.Weighted>
3.1427

> <Gold.Chemscore.Rot.Weighted>
8.3634

> <Gold.Chemscore.Internal.Correction.Weighted>
   9.000000E+99

> <Gold.Protein.RotatedTorsions>
[ 6907 6896 6895 6894 ] final  -40.25 input  -60.11 | X-H torsion
[ 7974 7965 7964 7962 ] final  -64.38 input  175.53 | X-H torsion
[ 8008 7997 7996 7995 ] final -142.62 input   59.86 | X-H torsion
[ 10167 10162 10161 10158 ] final  -43.75 input  -65.29 | X-H torsion
[ 10718 10713 10712 10709 ] final  -74.94 input   66.30 | X-H torsion
[ 10763 10752 10751 10750 ] final   -9.39 input  -60.55 | X-H torsion
[ 11005 11000 10999 10996 ] final   14.54 input  -57.11 | X-H torsion

> <Gold.Protein.ActiveResidues>
 VAL166  LYS551  ARG553  GLY616  TRP617  ASP618  TYR619  PRO620  LYS621  CYS622 
 ASP623  PHE694  ASN695  SER759  ASP760  ASP761  ALA762  ILE779  LEU786  VAL792 
 PHE793  MET794  SER795  GLU796  ALA797  LYS798  CYS799  TRP800  GLU811  SER814 

> <Gold.Protein.RotatedAtoms>
  150.9806  134.9162  159.7841 H   0  0  0  0  0  0  0  0  0  0  0  0  # atno 6907 bound_to 6896
  152.5220  134.3415  159.9229 H   0  0  0  0  0  0  0  0  0  0  0  0  # atno 6908 bound_to 6896
  151.3422  133.3917  159.2707 H   0  0  0  0  0  0  0  0  0  0  0  0  # atno 6909 bound_to 6896
  145.7674  140.8830  143.0398 H   0  0  0  0  0  0  0  0  0  0  0  0  # atno 7974 bound_to 7965
  155.4971  140.0572  157.2945 H   0  0  0  0  0  0  0  0  0  0  0  0  # atno 8008 bound_to 7997
  154.4601  140.1992  156.0219 H   0  0  0  0  0  0  0  0  0  0  0  0  # atno 8009 bound_to 7997
  156.0873  140.3238  155.7775 H   0  0  0  0  0  0  0  0  0  0  0  0  # atno 8010 bound_to 7997
  140.6922  143.2966  151.3396 H   0  0  0  0  0  0  0  0  0  0  0  0  # atno 10167 bound_to 10162
  156.0225  130.4429  150.2968 H   0  0  0  0  0  0  0  0  0  0  0  0  # atno 10718 bound_to 10713
  153.4541  135.7015  153.6091 H   0  0  0  0  0  0  0  0  0  0  0  0  # atno 10763 bound_to 10752
  153.4413  135.3779  155.2230 H   0  0  0  0  0  0  0  0  0  0  0  0  # atno 10764 bound_to 10752
  154.8728  135.3974  154.3957 H   0  0  0  0  0  0  0  0  0  0  0  0  # atno 10765 bound_to 10752
  140.4684  134.1056  155.7728 H   0  0  0  0  0  0  0  0  0  0  0  0  # atno 11005 bound_to 11000
  144.6819  139.9807  143.7483 LP  0  0  0  0  0  0  0  0  0  0  0  0  # atno 17320 bound_to 7965
  146.0204  139.3246  143.0816 LP  0  0  0  0  0  0  0  0  0  0  0  0  # atno 17321 bound_to 7965
  139.6338  144.0670  152.2498 LP  0  0  0  0  0  0  0  0  0  0  0  0  # atno 17342 bound_to 10162
  140.0153  144.6193  150.7612 LP  0  0  0  0  0  0  0  0  0  0  0  0  # atno 17343 bound_to 10162
  157.1071  131.0211  151.3063 LP  0  0  0  0  0  0  0  0  0  0  0  0  # atno 17370 bound_to 10713
  157.4734  130.7722  149.7345 LP  0  0  0  0  0  0  0  0  0  0  0  0  # atno 17371 bound_to 10713
  141.1588  133.8831  157.1904 LP  0  0  0  0  0  0  0  0  0  0  0  0  # atno 17394 bound_to 11000
  139.9900  135.0068  156.9954 LP  0  0  0  0  0  0  0  0  0  0  0  0  # atno 17395 bound_to 11000

$$$$
