AV-unprocessed.smi:2640|AV-procd|sdf|10270|dock9
  -GOLD-   2272014283D 1   1.00000     0.00000
 Structure written by MMmdl.
 41 42  0  0  0  0  0  0  0  0  1 V2000
  144.8125  136.2423  154.1622 O   0  0  0  0  0  0  0  0  0  0  0  0
  145.9526  136.3075  153.7034 C   0  0  0  0  0  0  0  0  0  0  0  0
  146.9097  137.3946  154.1862 C   0  0  0  0  0  0  0  0  0  0  0  0
  147.6242  138.0141  153.0670 N   0  0  0  0  0  0  0  0  0  0  0  0
  146.6885  138.6235  152.1330 C   0  0  0  0  0  0  0  0  0  0  0  0
  147.0458  140.1017  151.9035 C   0  0  0  0  0  0  0  0  0  0  0  0
  147.3235  140.8013  153.1455 N   0  0  0  0  0  0  0  0  0  0  0  0
  146.4636  141.0607  154.1920 C   0  0  0  0  0  0  0  0  0  0  0  0
  147.1686  141.7515  155.1356 C   0  0  0  0  0  0  0  0  0  0  0  0
  148.4690  141.8659  154.5691 C   0  0  0  0  0  0  0  0  0  0  0  0
  148.5586  141.2962  153.3783 N   0  0  0  0  0  0  0  0  0  0  0  0
  146.4291  135.4595  152.7772 N   0  0  0  0  0  0  0  0  0  0  0  0
  145.6765  134.3664  152.1580 C   0  0  2  0  0  0  0  0  0  0  0  0
  146.5430  133.7935  151.0132 C   0  0  0  0  0  0  0  0  0  0  0  0
  146.1748  132.3525  150.6193 C   0  0  0  0  0  0  0  0  0  0  0  0
  144.7743  132.1848  150.0109 C   0  0  0  0  0  0  0  0  0  0  0  0
  143.6332  132.5600  150.9716 C   0  0  0  0  0  0  0  0  0  0  0  0
  143.4600  134.0026  151.0811 N   0  0  0  0  0  0  0  0  0  0  0  0
  144.3412  134.8860  151.5747 C   0  0  0  0  0  0  0  0  0  0  0  0
  144.0877  136.0906  151.5577 O   0  0  0  0  0  0  0  0  0  0  0  0
  146.3470  138.1541  154.7314 H   0  0  0  0  0  0  0  0  0  0  0  0
  147.6222  136.9539  154.8853 H   0  0  0  0  0  0  0  0  0  0  0  0
  148.1903  137.3379  152.5732 H   0  0  0  0  0  0  0  0  0  0  0  0
  146.6968  138.0857  151.1834 H   0  0  0  0  0  0  0  0  0  0  0  0
  145.6781  138.5504  152.5370 H   0  0  0  0  0  0  0  0  0  0  0  0
  147.9343  140.1710  151.2750 H   0  0  0  0  0  0  0  0  0  0  0  0
  146.2461  140.6153  151.3671 H   0  0  0  0  0  0  0  0  0  0  0  0
  145.4328  140.7384  154.1760 H   0  0  0  0  0  0  0  0  0  0  0  0
  146.8102  142.1195  156.0854 H   0  0  0  0  0  0  0  0  0  0  0  0
  149.3445  142.3426  154.9847 H   0  0  0  0  0  0  0  0  0  0  0  0
  147.3738  135.6024  152.4514 H   0  0  0  0  0  0  0  0  0  0  0  0
  145.4841  133.5949  152.9057 H   0  0  0  0  0  0  0  0  0  0  0  0
  146.5151  134.4438  150.1369 H   0  0  0  0  0  0  0  0  0  0  0  0
  147.5869  133.7790  151.3313 H   0  0  0  0  0  0  0  0  0  0  0  0
  146.9095  131.9913  149.8991 H   0  0  0  0  0  0  0  0  0  0  0  0
  146.2716  131.7035  151.4908 H   0  0  0  0  0  0  0  0  0  0  0  0
  144.6934  132.7596  149.0871 H   0  0  0  0  0  0  0  0  0  0  0  0
  144.6538  131.1399  149.7232 H   0  0  0  0  0  0  0  0  0  0  0  0
  142.6964  132.1536  150.5901 H   0  0  0  0  0  0  0  0  0  0  0  0
  143.7815  132.1154  151.9568 H   0  0  0  0  0  0  0  0  0  0  0  0
  142.5941  134.3751  150.7190 H   0  0  0  0  0  0  0  0  0  0  0  0
  1  2  2  0  0  0  0
  2  3  1  0  0  0  0
  2 12  1  0  0  0  0
  3  4  1  0  0  0  0
  3 21  1  0  0  0  0
  3 22  1  0  0  0  0
  4  5  1  0  0  0  0
  4 23  1  0  0  0  0
  5  6  1  0  0  0  0
  5 24  1  0  0  0  0
  5 25  1  0  0  0  0
  6  7  1  0  0  0  0
  6 26  1  0  0  0  0
  6 27  1  0  0  0  0
  7 11  1  0  0  0  0
  7  8  1  0  0  0  0
  8  9  2  0  0  0  0
  8 28  1  0  0  0  0
  9 10  1  0  0  0  0
  9 29  1  0  0  0  0
 10 11  2  0  0  0  0
 10 30  1  0  0  0  0
 12 13  1  0  0  0  0
 12 31  1  0  0  0  0
 13 19  1  0  0  0  0
 13 14  1  0  0  0  0
 13 32  1  0  0  0  0
 14 15  1  0  0  0  0
 14 33  1  0  0  0  0
 14 34  1  0  0  0  0
 15 16  1  0  0  0  0
 15 35  1  0  0  0  0
 15 36  1  0  0  0  0
 16 17  1  0  0  0  0
 16 37  1  0  0  0  0
 16 38  1  0  0  0  0
 17 18  1  0  0  0  0
 17 39  1  0  0  0  0
 17 40  1  0  0  0  0
 18 19  1  0  0  0  0
 18 41  1  0  0  0  0
 19 20  2  0  0  0  0
M  END
> <s_m_source_file>
AV-unprocessed.smi

> <i_m_source_file_index>
2640

> <i_lp_mmshare_version>
43012

> <i_f3d_flags>
0

> <s_epik_input>
Tz1DMVtOSF1bQ0gyXVtDSDJdW0NIMl1bQ0gyXVtDQEhdMVtOSF1DKD1PKVtDSDJdW05IXVtDSDJdW0NIMl1uMltjSF1bY0hdW2NIXW4y

> <s_epik_cmdline>
J2VwaWtfcHl0aG9uJywgJy1waCcsICc3LjAnLCAnLXRuJywgJzgnLCAnLW1hJywgJzIwMCcsICctbWV0YWxfYmluZGluZycsICctaW1hZScsICc8aW5maWxlLm1hZT4nLCAnLW9tYWUnLCAnPG91dGZpbGUubWFlPic=

> <r_lp_tautomer_probability>
1

> <r_epik_Ionization_Penalty>
0.641667

> <r_epik_Ionization_Penalty_Charging>
0

> <r_epik_Ionization_Penalty_Neutral>
0.641667

> <r_epik_State_Penalty>
0.657743

> <r_epik_Charging_Adjusted_Penalty>
0.657743

> <i_epik_Tot_Q>
0

> <i_epik_Tot_abs_Q>
0

> <r_epik_Metal_State_Penalty>
0.656014

> <b_epik_Metal_Only>
0

> <s_lp_Force_Field>
OPLS_2005

> <r_lp_Energy>
11.9791

> <b_lp_Chiralities_Consistent>
1

> <s_lp_Variant>
AV-unprocessed.smi:2640-3

> <Gold.Version>
5.8.1

> <Gold.Id.Protein>
6NUR|6NUR_protein|mol2

> <Gold.PLP.Fitness>
46.5294

> <Gold.PLP.PLP>
-31.5616

> <Gold.PLP.part.hbond>
-4.0000

> <Gold.PLP.part.metal>
0.0000

> <Gold.PLP.part.buried>
-1.0755

> <Gold.PLP.part.nonpolar>
-29.0366

> <Gold.PLP.part.repulsive>
2.5142

> <Gold.PLP.ligand.clash>
0.0000

> <Gold.PLP.ligand.torsion>
0.6929

> <Gold.PLP.Chemscore.Hbond>
3.8268

> <Gold.PLP.Chemscore.CHOScore>
1.6191

> <Gold.PLP.Chemscore.Metal>
0.0000

> <Gold.Chemscore.Hbonds>
donor molecule, donor type, donor heavy atom, donor atom, acceptor molecule, acceptor atom, score
      L1  H     4    23       P1  7948  0.94
      L1  H    12    31       P1  7948  1.00
      L1  H    18    41       P1 10186  1.00
      P1  H  8011  8017       L1    11  0.86
      L1  C     8    28       P1 10175  1.00
      L1  C    10    30       P1  8028  0.63

> <Gold.PLP.Chemscore.Internal.Correction>
0.0160

> <Gold.Rescore>
     Score         DG    S(hbond)    S(metal)    S(lipo)     H(rot)  DE(clash)    DE(int)     intcor
     13.14     -18.79       3.13        0.00      76.43       2.37       3.28       2.38       ----

> <Gold.Chemscore.Fitness>
13.1361

> <Gold.Chemscore.DG>
-18.7924

> <Gold.Chemscore.ZeroCoef>
-5.4800

> <Gold.Chemscore.Hbond>
3.1275

> <Gold.Chemscore.Metal>
0.0000

> <Gold.Chemscore.Lipo>
76.4271

> <Gold.Chemscore.Internal_Hbond>
0.0000

> <Gold.Chemscore.DEClash>
3.2769

> <Gold.Chemscore.DEInternal>
2.3794

> <Gold.Chemscore.Rot>
2.3732

> <Gold.Chemscore.Internal.Correction>
   9.000000E+99

> <Gold.Chemscore.Hbonds>
donor molecule, donor type, donor heavy atom, donor atom, acceptor molecule, acceptor atom, score
      L1  H     4    23       P1  7948  0.90
      L1  H    12    31       P1  7948  1.00
      L1  H    18    41       P1 10186  0.34
      P1  H  8011  8017       L1    11  0.46

> <Gold.Chemscore.Hbond.Weighted>
-10.4458

> <Gold.Chemscore.Metal.Weighted>
-0.0000

> <Gold.Chemscore.Lipo.Weighted>
-8.9420

> <Gold.Chemscore.Internal_Hbond.Weighted>
0.0000

> <Gold.Chemscore.DEClash.Weighted>
3.2769

> <Gold.Chemscore.DEInternal.Weighted>
2.3794

> <Gold.Chemscore.Rot.Weighted>
6.0753

> <Gold.Chemscore.Internal.Correction.Weighted>
   9.000000E+99

> <Gold.Protein.RotatedTorsions>
[ 6907 6896 6895 6894 ] final  -28.25 input  -60.11 | X-H torsion
[ 7974 7965 7964 7962 ] final  166.81 input  175.53 | X-H torsion
[ 8008 7997 7996 7995 ] final -137.50 input   59.86 | X-H torsion
[ 10167 10162 10161 10158 ] final -120.81 input  -65.29 | X-H torsion
[ 10718 10713 10712 10709 ] final   -5.75 input   66.30 | X-H torsion
[ 10763 10752 10751 10750 ] final  -52.67 input  -60.55 | X-H torsion
[ 11005 11000 10999 10996 ] final   54.02 input  -57.11 | X-H torsion

> <Gold.Protein.ActiveResidues>
 VAL166  LYS551  ARG553  GLY616  TRP617  ASP618  TYR619  PRO620  LYS621  CYS622 
 ASP623  PHE694  ASN695  SER759  ASP760  ASP761  ALA762  ILE779  LEU786  VAL792 
 PHE793  MET794  SER795  GLU796  ALA797  LYS798  CYS799  TRP800  GLU811  SER814 

> <Gold.Protein.RotatedAtoms>
  151.1356  135.0153  159.8601 H   0  0  0  0  0  0  0  0  0  0  0  0  # atno 6907 bound_to 6896
  152.5452  134.1559  159.8548 H   0  0  0  0  0  0  0  0  0  0  0  0  # atno 6908 bound_to 6896
  151.1630  133.4787  159.2627 H   0  0  0  0  0  0  0  0  0  0  0  0  # atno 6909 bound_to 6896
  144.7448  139.8669  143.6385 H   0  0  0  0  0  0  0  0  0  0  0  0  # atno 7974 bound_to 7965
  155.4128  140.0513  157.3030 H   0  0  0  0  0  0  0  0  0  0  0  0  # atno 8008 bound_to 7997
  154.4938  140.2130  155.9450 H   0  0  0  0  0  0  0  0  0  0  0  0  # atno 8009 bound_to 7997
  156.1378  140.3160  155.8453 H   0  0  0  0  0  0  0  0  0  0  0  0  # atno 8010 bound_to 7997
  140.0318  143.5241  152.2173 H   0  0  0  0  0  0  0  0  0  0  0  0  # atno 10167 bound_to 10162
  156.7420  130.5212  149.5822 H   0  0  0  0  0  0  0  0  0  0  0  0  # atno 10718 bound_to 10713
  154.1466  135.6497  153.4954 H   0  0  0  0  0  0  0  0  0  0  0  0  # atno 10763 bound_to 10752
  153.0150  135.5328  154.6851 H   0  0  0  0  0  0  0  0  0  0  0  0  # atno 10764 bound_to 10752
  154.6127  135.2955  155.0385 H   0  0  0  0  0  0  0  0  0  0  0  0  # atno 10765 bound_to 10752
  140.0720  134.5456  155.9036 H   0  0  0  0  0  0  0  0  0  0  0  0  # atno 11005 bound_to 11000
  146.1308  139.4343  143.0170 LP  0  0  0  0  0  0  0  0  0  0  0  0  # atno 17320 bound_to 7965
  145.7166  141.0089  143.1425 LP  0  0  0  0  0  0  0  0  0  0  0  0  # atno 17321 bound_to 7965
  139.6071  144.7599  151.3036 LP  0  0  0  0  0  0  0  0  0  0  0  0  # atno 17342 bound_to 10162
  140.7299  143.6895  150.7933 LP  0  0  0  0  0  0  0  0  0  0  0  0  # atno 17343 bound_to 10162
  156.1458  130.6276  151.0529 LP  0  0  0  0  0  0  0  0  0  0  0  0  # atno 17370 bound_to 10713
  157.6814  131.0837  150.7359 LP  0  0  0  0  0  0  0  0  0  0  0  0  # atno 17371 bound_to 10713
  141.2015  133.6619  156.5956 LP  0  0  0  0  0  0  0  0  0  0  0  0  # atno 17394 bound_to 11000
  140.3613  134.7685  157.4535 LP  0  0  0  0  0  0  0  0  0  0  0  0  # atno 17395 bound_to 11000

$$$$
