AV-unprocessed.smi:1976|AV-procd|sdf|7989|dock9
  -GOLD-   2272010173D 1   1.00000     0.00000
 Structure written by MMmdl.
 45 47  0  0  0  0  0  0  0  0  2 V2000
  150.8929  137.9178  159.3924 O   0  0  0  0  0  0  0  0  0  0  0  0
  151.3046  138.7799  158.6149 C   0  0  0  0  0  0  0  0  0  0  0  0
  152.7444  139.3065  158.6987 C   0  0  0  0  0  0  0  0  0  0  0  0
  152.8765  140.5355  159.4993 N   0  0  0  0  0  0  0  0  0  0  0  0
  152.3753  141.7226  158.9299 C   0  0  0  0  0  0  0  0  0  0  0  0
  152.4375  142.9163  159.5501 C   0  0  0  0  0  0  0  0  0  0  0  0
  151.8325  144.1689  158.9355 C   0  0  0  0  0  0  0  0  0  0  0  0
  151.9493  145.2118  159.7579 F   0  0  0  0  0  0  0  0  0  0  0  0
  152.4611  144.4642  157.7984 F   0  0  0  0  0  0  0  0  0  0  0  0
  150.5390  143.9945  158.6611 F   0  0  0  0  0  0  0  0  0  0  0  0
  153.0270  142.9248  160.8746 C   0  0  0  0  0  0  0  0  0  0  0  0
  153.4987  141.7959  161.4394 C   0  0  0  0  0  0  0  0  0  0  0  0
  153.4395  140.5080  160.7443 C   0  0  0  0  0  0  0  0  0  0  0  0
  153.8658  139.4697  161.2502 O   0  0  0  0  0  0  0  0  0  0  0  0
  150.5385  139.3278  157.6591 N   0  0  0  0  0  0  0  0  0  0  0  0
  149.1437  138.9802  157.3930 C   0  0  2  0  0  0  0  0  0  0  0  0
  148.9480  137.4871  157.0675 C   0  0  0  0  0  0  0  0  0  0  0  0
  147.9116  137.4692  155.9392 C   0  0  0  0  0  0  0  0  0  0  0  0
  148.2126  138.7000  155.1991 N   0  3  1  0  0  0  0  0  0  0  0  0
  147.2582  139.1582  154.1695 C   0  0  0  0  0  0  0  0  0  0  0  0
  147.8898  140.3484  153.4156 C   0  0  0  0  0  0  0  0  0  0  0  0
  148.3748  141.4585  154.3755 C   0  0  0  0  0  0  0  0  0  0  0  0
  149.2634  140.8931  155.5049 C   0  0  0  0  0  0  0  0  0  0  0  0
  148.5165  139.7392  156.1985 C   0  0  2  0  0  0  0  0  0  0  0  0
  153.3839  138.5160  159.0955 H   0  0  0  0  0  0  0  0  0  0  0  0
  153.1084  139.4834  157.6854 H   0  0  0  0  0  0  0  0  0  0  0  0
  151.9263  141.5972  157.9551 H   0  0  0  0  0  0  0  0  0  0  0  0
  153.0948  143.8527  161.4233 H   0  0  0  0  0  0  0  0  0  0  0  0
  153.9329  141.8402  162.4277 H   0  0  0  0  0  0  0  0  0  0  0  0
  150.9568  140.0288  157.0645 H   0  0  0  0  0  0  0  0  0  0  0  0
  148.5540  139.2033  158.2846 H   0  0  0  0  0  0  0  0  0  0  0  0
  149.8808  137.0533  156.7034 H   0  0  0  0  0  0  0  0  0  0  0  0
  148.6313  136.9055  157.9340 H   0  0  0  0  0  0  0  0  0  0  0  0
  147.9905  136.5831  155.3085 H   0  0  0  0  0  0  0  0  0  0  0  0
  146.8997  137.5193  156.3449 H   0  0  0  0  0  0  0  0  0  0  0  0
  147.0444  138.3440  153.4761 H   0  0  0  0  0  0  0  0  0  0  0  0
  146.3136  139.4463  154.6331 H   0  0  0  0  0  0  0  0  0  0  0  0
  148.7383  139.9900  152.8311 H   0  0  0  0  0  0  0  0  0  0  0  0
  147.1774  140.7582  152.6991 H   0  0  0  0  0  0  0  0  0  0  0  0
  148.9164  142.2247  153.8203 H   0  0  0  0  0  0  0  0  0  0  0  0
  147.5087  141.9547  154.8152 H   0  0  0  0  0  0  0  0  0  0  0  0
  150.2122  140.5427  155.0963 H   0  0  0  0  0  0  0  0  0  0  0  0
  149.4954  141.6853  156.2173 H   0  0  0  0  0  0  0  0  0  0  0  0
  147.5633  140.1324  156.5591 H   0  0  0  0  0  0  0  0  0  0  0  0
  149.0814  138.5149  154.7183 H   0  0  0  0  0  0  0  0  0  0  0  0
  1  2  2  0  0  0  0
  2  3  1  0  0  0  0
  2 15  1  0  0  0  0
  3  4  1  0  0  0  0
  3 25  1  0  0  0  0
  3 26  1  0  0  0  0
  4 13  1  0  0  0  0
  4  5  1  0  0  0  0
  5  6  2  0  0  0  0
  5 27  1  0  0  0  0
  6  7  1  0  0  0  0
  6 11  1  0  0  0  0
  7  8  1  0  0  0  0
  7  9  1  0  0  0  0
  7 10  1  0  0  0  0
 11 12  2  0  0  0  0
 11 28  1  0  0  0  0
 12 13  1  0  0  0  0
 12 29  1  0  0  0  0
 13 14  2  0  0  0  0
 15 16  1  0  0  0  0
 15 30  1  0  0  0  0
 16 24  1  0  0  0  0
 16 17  1  0  0  0  0
 16 31  1  0  0  0  0
 17 18  1  0  0  0  0
 17 32  1  0  0  0  0
 17 33  1  0  0  0  0
 18 19  1  0  0  0  0
 18 34  1  0  0  0  0
 18 35  1  0  0  0  0
 19 24  1  0  0  0  0
 19 20  1  0  0  0  0
 19 45  1  0  0  0  0
 20 21  1  0  0  0  0
 20 36  1  0  0  0  0
 20 37  1  0  0  0  0
 21 22  1  0  0  0  0
 21 38  1  0  0  0  0
 21 39  1  0  0  0  0
 22 23  1  0  0  0  0
 22 40  1  0  0  0  0
 22 41  1  0  0  0  0
 23 24  1  0  0  0  0
 23 42  1  0  0  0  0
 23 43  1  0  0  0  0
 24 44  1  0  0  0  0
M  CHG  1  19   1
M  END
> <s_m_source_file>
AV-unprocessed.smi

> <i_m_source_file_index>
1976

> <i_lp_mmshare_version>
43012

> <i_f3d_flags>
0

> <s_epik_input>
W0NIMl0xW0NIMl1bQ0gyXVtDSDJdW0NASF0oTjEyKVtDQEBIXShbQ0gyXVtDSDJdMilbTkhdQyg9TylbQ0gyXW4zW2NIXWMoQyhGKShGKUYpW2NIXVtjSF1jMz1P

> <s_epik_cmdline>
J2VwaWtfcHl0aG9uJywgJy1waCcsICc3LjAnLCAnLXRuJywgJzgnLCAnLW1hJywgJzIwMCcsICctbWV0YWxfYmluZGluZycsICctaW1hZScsICc8aW5maWxlLm1hZT4nLCAnLW9tYWUnLCAnPG91dGZpbGUubWFlPic=

> <r_lp_tautomer_probability>
1

> <r_epik_Ionization_Penalty>
0.00171506

> <r_epik_Ionization_Penalty_Charging>
0.00171498

> <r_epik_Ionization_Penalty_Neutral>
7.81737e-08

> <r_epik_State_Penalty>
0.00115937

> <r_epik_Charging_Adjusted_Penalty>
0.00287436

> <i_epik_Tot_Q>
1

> <i_epik_Tot_abs_Q>
1

> <r_epik_Metal_State_Penalty>
-0

> <b_epik_Metal_Only>
0

> <s_lp_Force_Field>
OPLS_2005

> <r_lp_Energy>
53.4145

> <b_lp_Chiralities_Consistent>
1

> <s_lp_Variant>
AV-unprocessed.smi:1976-7

> <Gold.Version>
5.8.1

> <Gold.Id.Protein>
6NUR|6NUR_protein|mol2

> <Gold.PLP.Fitness>
45.3247

> <Gold.PLP.PLP>
-46.3387

> <Gold.PLP.part.hbond>
-0.0314

> <Gold.PLP.part.metal>
0.0000

> <Gold.PLP.part.buried>
-6.1205

> <Gold.PLP.part.nonpolar>
-40.2861

> <Gold.PLP.part.repulsive>
0.0585

> <Gold.PLP.ligand.clash>
0.0000

> <Gold.PLP.ligand.torsion>
0.5246

> <Gold.PLP.Chemscore.Hbond>
0.0000

> <Gold.PLP.Chemscore.CHOScore>
0.0000

> <Gold.PLP.Chemscore.Metal>
0.0000

> <Gold.PLP.Chemscore.Internal.Correction>
0.0351

> <Gold.Rescore>
     Score         DG    S(hbond)    S(metal)    S(lipo)     H(rot)  DE(clash)    DE(int)     intcor
     10.35     -12.11       0.00        0.00      91.34       1.58       0.06       1.71       ----

> <Gold.Chemscore.Fitness>
10.3480

> <Gold.Chemscore.DG>
-12.1143

> <Gold.Chemscore.ZeroCoef>
-5.4800

> <Gold.Chemscore.Hbond>
0.0000

> <Gold.Chemscore.Metal>
0.0000

> <Gold.Chemscore.Lipo>
91.3389

> <Gold.Chemscore.Internal_Hbond>
0.0000

> <Gold.Chemscore.DEClash>
0.0607

> <Gold.Chemscore.DEInternal>
1.7056

> <Gold.Chemscore.Rot>
1.5830

> <Gold.Chemscore.Internal.Correction>
   9.000000E+99

> <Gold.Chemscore.Hbond.Weighted>
-0.0000

> <Gold.Chemscore.Metal.Weighted>
-0.0000

> <Gold.Chemscore.Lipo.Weighted>
-10.6867

> <Gold.Chemscore.Internal_Hbond.Weighted>
0.0000

> <Gold.Chemscore.DEClash.Weighted>
0.0607

> <Gold.Chemscore.DEInternal.Weighted>
1.7056

> <Gold.Chemscore.Rot.Weighted>
4.0524

> <Gold.Chemscore.Internal.Correction.Weighted>
   9.000000E+99

> <Gold.Protein.RotatedTorsions>
[ 6907 6896 6895 6894 ] final   93.48 input  -60.11 | X-H torsion
[ 7974 7965 7964 7962 ] final -152.10 input  175.53 | X-H torsion
[ 8008 7997 7996 7995 ] final -144.41 input   59.86 | X-H torsion
[ 10167 10162 10161 10158 ] final -131.27 input  -65.29 | X-H torsion
[ 10718 10713 10712 10709 ] final  114.72 input   66.30 | X-H torsion
[ 10763 10752 10751 10750 ] final  -90.31 input  -60.55 | X-H torsion
[ 11005 11000 10999 10996 ] final    1.24 input  -57.11 | X-H torsion

> <Gold.Protein.ActiveResidues>
 VAL166  LYS551  ARG553  GLY616  TRP617  ASP618  TYR619  PRO620  LYS621  CYS622 
 ASP623  PHE694  ASN695  SER759  ASP760  ASP761  ALA762  ILE779  LEU786  VAL792 
 PHE793  MET794  SER795  GLU796  ALA797  LYS798  CYS799  TRP800  GLU811  SER814 

> <Gold.Protein.RotatedAtoms>
  152.5452  134.1342  159.8451 H   0  0  0  0  0  0  0  0  0  0  0  0  # atno 6907 bound_to 6896
  151.1384  133.4981  159.2605 H   0  0  0  0  0  0  0  0  0  0  0  0  # atno 6908 bound_to 6896
  151.1599  135.0278  159.8760 H   0  0  0  0  0  0  0  0  0  0  0  0  # atno 6909 bound_to 6896
  144.7813  140.4708  143.5837 H   0  0  0  0  0  0  0  0  0  0  0  0  # atno 7974 bound_to 7965
  155.5264  140.0596  157.2897 H   0  0  0  0  0  0  0  0  0  0  0  0  # atno 8008 bound_to 7997
  154.4499  140.1943  156.0495 H   0  0  0  0  0  0  0  0  0  0  0  0  # atno 8009 bound_to 7997
  156.0683  140.3263  155.7548 H   0  0  0  0  0  0  0  0  0  0  0  0  # atno 8010 bound_to 7997
  139.9206  143.6386  152.2554 H   0  0  0  0  0  0  0  0  0  0  0  0  # atno 10167 bound_to 10162
  157.6264  131.1002  150.7226 H   0  0  0  0  0  0  0  0  0  0  0  0  # atno 10718 bound_to 10713
  154.6644  135.5309  153.8059 H   0  0  0  0  0  0  0  0  0  0  0  0  # atno 10763 bound_to 10752
  153.0462  135.6513  154.0822 H   0  0  0  0  0  0  0  0  0  0  0  0  # atno 10764 bound_to 10752
  154.0727  135.2953  155.3285 H   0  0  0  0  0  0  0  0  0  0  0  0  # atno 10765 bound_to 10752
  140.6176  133.9691  155.8208 H   0  0  0  0  0  0  0  0  0  0  0  0  # atno 11005 bound_to 11000
  145.6043  139.1507  143.3111 LP  0  0  0  0  0  0  0  0  0  0  0  0  # atno 17320 bound_to 7965
  146.2022  140.6163  142.9097 LP  0  0  0  0  0  0  0  0  0  0  0  0  # atno 17321 bound_to 7965
  139.6864  144.7651  151.1516 LP  0  0  0  0  0  0  0  0  0  0  0  0  # atno 17342 bound_to 10162
  140.7663  143.5651  150.9057 LP  0  0  0  0  0  0  0  0  0  0  0  0  # atno 17343 bound_to 10162
  156.7574  130.4788  149.5444 LP  0  0  0  0  0  0  0  0  0  0  0  0  # atno 17370 bound_to 10713
  156.1440  130.6264  151.0505 LP  0  0  0  0  0  0  0  0  0  0  0  0  # atno 17371 bound_to 10713
  141.0765  134.0127  157.3450 LP  0  0  0  0  0  0  0  0  0  0  0  0  # atno 17394 bound_to 11000
  139.9166  135.0197  156.7906 LP  0  0  0  0  0  0  0  0  0  0  0  0  # atno 17395 bound_to 11000

$$$$
