AV-unprocessed.smi:3011|AV-procd|sdf|11458|dock8
  -GOLD-   2272016393D 1   1.00000     0.00000
 Structure written by MMmdl.
 46 48  0  0  0  0  0  0  0  0  1 V2000
  147.6125  135.0244  154.8326 C   0  0  0  0  0  0  0  0  0  0  0  0
  148.5788  136.0597  154.9363 O   0  0  0  0  0  0  0  0  0  0  0  0
  148.1577  137.3661  154.7987 C   0  0  0  0  0  0  0  0  0  0  0  0
  146.8307  137.7296  154.4557 C   0  0  0  0  0  0  0  0  0  0  0  0
  146.4666  139.0835  154.3438 C   0  0  0  0  0  0  0  0  0  0  0  0
  147.4212  140.0882  154.5744 C   0  0  0  0  0  0  0  0  0  0  0  0
  148.7405  139.7395  154.9151 C   0  0  0  0  0  0  0  0  0  0  0  0
  149.1196  138.3777  155.0279 C   0  0  0  0  0  0  0  0  0  0  0  0
  150.3965  137.9662  155.3493 O   0  0  0  0  0  0  0  0  0  0  0  0
  151.3005  138.9232  155.8836 C   0  0  0  0  0  0  0  0  0  0  0  0
  151.0511  139.0895  157.3890 C   0  0  0  0  0  0  0  0  0  0  0  0
  151.9005  140.1130  157.9843 N   0  0  0  0  0  0  0  0  0  0  0  0
  153.0867  139.9793  158.6365 C   0  0  0  0  0  0  0  0  0  0  0  0
  153.7666  138.6506  158.8515 C   0  0  1  0  0  0  0  0  0  0  0  0
  154.1419  137.9720  157.5261 C   0  0  0  0  0  0  0  0  0  0  0  0
  154.9593  138.8703  159.6621 N   0  0  0  0  0  0  0  0  0  0  0  0
  155.8160  137.9051  160.0172 C   0  0  0  0  0  0  0  0  0  0  0  0
  155.6774  136.7294  159.6901 O   0  0  0  0  0  0  0  0  0  0  0  0
  153.6092  141.1123  159.1140 N   0  0  0  0  0  0  0  0  0  0  0  0
  152.7025  142.0683  158.7062 C   0  0  0  0  0  0  0  0  0  0  0  0
  152.6998  143.4692  158.8918 C   0  0  0  0  0  0  0  0  0  0  0  0
  151.6497  144.2556  158.3742 C   0  0  0  0  0  0  0  0  0  0  0  0
  150.5900  143.6530  157.6664 C   0  0  0  0  0  0  0  0  0  0  0  0
  150.5728  142.2582  157.4731 C   0  0  0  0  0  0  0  0  0  0  0  0
  151.6236  141.4774  157.9921 C   0  0  0  0  0  0  0  0  0  0  0  0
  148.1065  134.0601  154.9492 H   0  0  0  0  0  0  0  0  0  0  0  0
  147.1265  135.0288  153.8561 H   0  0  0  0  0  0  0  0  0  0  0  0
  146.8569  135.1040  155.6150 H   0  0  0  0  0  0  0  0  0  0  0  0
  146.0689  136.9866  154.2751 H   0  0  0  0  0  0  0  0  0  0  0  0
  145.4532  139.3507  154.0828 H   0  0  0  0  0  0  0  0  0  0  0  0
  147.1423  141.1282  154.4891 H   0  0  0  0  0  0  0  0  0  0  0  0
  149.4453  140.5393  155.0812 H   0  0  0  0  0  0  0  0  0  0  0  0
  152.3332  138.6129  155.7180 H   0  0  0  0  0  0  0  0  0  0  0  0
  151.1538  139.8835  155.3871 H   0  0  0  0  0  0  0  0  0  0  0  0
  150.0124  139.3791  157.5498 H   0  0  0  0  0  0  0  0  0  0  0  0
  151.1743  138.1453  157.9181 H   0  0  0  0  0  0  0  0  0  0  0  0
  153.1069  137.9659  159.3821 H   0  0  0  0  0  0  0  0  0  0  0  0
  153.2603  137.8201  156.9031 H   0  0  0  0  0  0  0  0  0  0  0  0
  154.5985  136.9973  157.6998 H   0  0  0  0  0  0  0  0  0  0  0  0
  154.8501  138.5720  156.9537 H   0  0  0  0  0  0  0  0  0  0  0  0
  155.1346  139.8115  159.9822 H   0  0  0  0  0  0  0  0  0  0  0  0
  156.6446  138.2953  160.6284 H   0  0  0  0  0  0  0  0  0  0  0  0
  153.5076  143.9392  159.4329 H   0  0  0  0  0  0  0  0  0  0  0  0
  151.6574  145.3257  158.5210 H   0  0  0  0  0  0  0  0  0  0  0  0
  149.7896  144.2621  157.2724 H   0  0  0  0  0  0  0  0  0  0  0  0
  149.7617  141.7953  156.9312 H   0  0  0  0  0  0  0  0  0  0  0  0
  1  2  1  0  0  0  0
  1 26  1  0  0  0  0
  1 27  1  0  0  0  0
  1 28  1  0  0  0  0
  2  3  1  0  0  0  0
  3  8  1  0  0  0  0
  3  4  2  0  0  0  0
  4  5  1  0  0  0  0
  4 29  1  0  0  0  0
  5  6  2  0  0  0  0
  5 30  1  0  0  0  0
  6  7  1  0  0  0  0
  6 31  1  0  0  0  0
  7  8  2  0  0  0  0
  7 32  1  0  0  0  0
  8  9  1  0  0  0  0
  9 10  1  0  0  0  0
 10 11  1  0  0  0  0
 10 33  1  0  0  0  0
 10 34  1  0  0  0  0
 11 12  1  0  0  0  0
 11 35  1  0  0  0  0
 11 36  1  0  0  0  0
 12 25  1  0  0  0  0
 12 13  1  0  0  0  0
 13 14  1  0  0  0  0
 13 19  2  0  0  0  0
 14 15  1  0  0  0  0
 14 16  1  0  0  0  0
 14 37  1  0  0  0  0
 15 38  1  0  0  0  0
 15 39  1  0  0  0  0
 15 40  1  0  0  0  0
 16 17  1  0  0  0  0
 16 41  1  0  0  0  0
 17 18  2  0  0  0  0
 17 42  1  0  0  0  0
 19 20  1  0  0  0  0
 20 25  2  0  0  0  0
 20 21  1  0  0  0  0
 21 22  2  0  0  0  0
 21 43  1  0  0  0  0
 22 23  1  0  0  0  0
 22 44  1  0  0  0  0
 23 24  2  0  0  0  0
 23 45  1  0  0  0  0
 24 25  1  0  0  0  0
 24 46  1  0  0  0  0
M  END
> <s_m_source_file>
AV-unprocessed.smi

> <i_m_source_file_index>
3011

> <i_lp_mmshare_version>
43012

> <i_f3d_flags>
0

> <s_epik_input>
W0NIM11PYzFbY0hdW2NIXVtjSF1bY0hdYzFPW0NIMl1bQ0gyXW4oYyhuMilbQ0BIXShbQ0gzXSlbTkhdW0NIXT1PKWMoYzIzKVtjSF1bY0hdW2NIXVtjSF0z

> <s_epik_cmdline>
J2VwaWtfcHl0aG9uJywgJy1waCcsICc3LjAnLCAnLXRuJywgJzgnLCAnLW1hJywgJzIwMCcsICctbWV0YWxfYmluZGluZycsICctaW1hZScsICc8aW5maWxlLm1hZT4nLCAnLW9tYWUnLCAnPG91dGZpbGUubWFlPic=

> <r_lp_tautomer_probability>
1

> <r_epik_Ionization_Penalty>
0.0924205

> <r_epik_Ionization_Penalty_Charging>
0

> <r_epik_Ionization_Penalty_Neutral>
0.0924205

> <r_epik_State_Penalty>
0.0827154

> <r_epik_Charging_Adjusted_Penalty>
0.0827154

> <i_epik_Tot_Q>
0

> <i_epik_Tot_abs_Q>
0

> <r_epik_Metal_State_Penalty>
0.071464

> <b_epik_Metal_Only>
0

> <s_lp_Force_Field>
OPLS_2005

> <r_lp_Energy>
16.1318

> <b_lp_Chiralities_Consistent>
1

> <s_lp_Variant>
AV-unprocessed.smi:3011-2

> <Gold.Version>
5.8.1

> <Gold.Id.Protein>
6NUR|6NUR_protein|mol2

> <Gold.PLP.Fitness>
48.3393

> <Gold.PLP.PLP>
-46.5986

> <Gold.PLP.part.hbond>
-1.0000

> <Gold.PLP.part.metal>
0.0000

> <Gold.PLP.part.buried>
-5.9834

> <Gold.PLP.part.nonpolar>
-40.7503

> <Gold.PLP.part.repulsive>
0.2459

> <Gold.PLP.ligand.clash>
0.0000

> <Gold.PLP.ligand.torsion>
0.6846

> <Gold.PLP.Chemscore.Hbond>
1.0000

> <Gold.PLP.Chemscore.CHOScore>
0.0000

> <Gold.PLP.Chemscore.Metal>
0.0000

> <Gold.PLP.Chemscore.Internal.Correction>
0.1100

> <Gold.Rescore>
     Score         DG    S(hbond)    S(metal)    S(lipo)     H(rot)  DE(clash)    DE(int)     intcor
     15.22     -17.10       1.00        0.00     127.59       2.59       0.08       1.81       ----

> <Gold.Chemscore.Fitness>
15.2196

> <Gold.Chemscore.DG>
-17.1032

> <Gold.Chemscore.ZeroCoef>
-5.4800

> <Gold.Chemscore.Hbond>
0.9968

> <Gold.Chemscore.Metal>
0.0000

> <Gold.Chemscore.Lipo>
127.5887

> <Gold.Chemscore.Internal_Hbond>
0.0000

> <Gold.Chemscore.DEClash>
0.0751

> <Gold.Chemscore.DEInternal>
1.8086

> <Gold.Chemscore.Rot>
2.5914

> <Gold.Chemscore.Internal.Correction>
   9.000000E+99

> <Gold.Chemscore.Hbond.Weighted>
-3.3294

> <Gold.Chemscore.Metal.Weighted>
-0.0000

> <Gold.Chemscore.Lipo.Weighted>
-14.9279

> <Gold.Chemscore.Internal_Hbond.Weighted>
0.0000

> <Gold.Chemscore.DEClash.Weighted>
0.0751

> <Gold.Chemscore.DEInternal.Weighted>
1.8086

> <Gold.Chemscore.Rot.Weighted>
6.6340

> <Gold.Chemscore.Internal.Correction.Weighted>
   9.000000E+99

> <Gold.Protein.RotatedTorsions>
[ 6907 6896 6895 6894 ] final   57.69 input  -60.11 | X-H torsion
[ 7974 7965 7964 7962 ] final  126.00 input  175.53 | X-H torsion
[ 8008 7997 7996 7995 ] final   39.72 input   59.86 | X-H torsion
[ 10167 10162 10161 10158 ] final  167.94 input  -65.29 | X-H torsion
[ 10718 10713 10712 10709 ] final  -63.29 input   66.30 | X-H torsion
[ 10763 10752 10751 10750 ] final   30.50 input  -60.55 | X-H torsion
[ 11005 11000 10999 10996 ] final -158.82 input  -57.11 | X-H torsion

> <Gold.Protein.ActiveResidues>
 VAL166  LYS551  ARG553  GLY616  TRP617  ASP618  TYR619  PRO620  LYS621  CYS622 
 ASP623  PHE694  ASN695  SER759  ASP760  ASP761  ALA762  ILE779  LEU786  VAL792 
 PHE793  MET794  SER795  GLU796  ALA797  LYS798  CYS799  TRP800  GLU811  SER814 

> <Gold.Protein.RotatedAtoms>
  152.3755  134.6670  160.0161 H   0  0  0  0  0  0  0  0  0  0  0  0  # atno 6907 bound_to 6896
  151.6950  133.3305  159.3260 H   0  0  0  0  0  0  0  0  0  0  0  0  # atno 6908 bound_to 6896
  150.7706  134.6601  159.6379 H   0  0  0  0  0  0  0  0  0  0  0  0  # atno 6909 bound_to 6896
  145.0666  139.3763  143.4979 H   0  0  0  0  0  0  0  0  0  0  0  0  # atno 7974 bound_to 7965
  155.2413  140.3345  155.4292 H   0  0  0  0  0  0  0  0  0  0  0  0  # atno 8008 bound_to 7997
  156.2254  140.1827  156.7420 H   0  0  0  0  0  0  0  0  0  0  0  0  # atno 8009 bound_to 7997
  154.5891  140.0641  156.9198 H   0  0  0  0  0  0  0  0  0  0  0  0  # atno 8010 bound_to 7997
  139.4956  144.3868  151.9561 H   0  0  0  0  0  0  0  0  0  0  0  0  # atno 10167 bound_to 10162
  156.0800  130.4219  150.1257 H   0  0  0  0  0  0  0  0  0  0  0  0  # atno 10718 bound_to 10713
  153.0368  135.6462  154.1054 H   0  0  0  0  0  0  0  0  0  0  0  0  # atno 10763 bound_to 10752
  154.0767  135.2876  155.3299 H   0  0  0  0  0  0  0  0  0  0  0  0  # atno 10764 bound_to 10752
  154.6558  135.5409  153.8021 H   0  0  0  0  0  0  0  0  0  0  0  0  # atno 10765 bound_to 10752
  140.6494  134.4466  157.5235 H   0  0  0  0  0  0  0  0  0  0  0  0  # atno 11005 bound_to 11000
  146.3527  140.0390  142.8644 LP  0  0  0  0  0  0  0  0  0  0  0  0  # atno 17320 bound_to 7965
  145.1343  140.9536  143.4526 LP  0  0  0  0  0  0  0  0  0  0  0  0  # atno 17321 bound_to 7965
  140.3305  144.3321  150.5988 LP  0  0  0  0  0  0  0  0  0  0  0  0  # atno 17342 bound_to 10162
  140.5649  143.2187  151.7701 LP  0  0  0  0  0  0  0  0  0  0  0  0  # atno 17343 bound_to 10162
  156.9290  130.9707  151.3536 LP  0  0  0  0  0  0  0  0  0  0  0  0  # atno 17370 bound_to 10713
  157.5913  130.8445  149.8663 LP  0  0  0  0  0  0  0  0  0  0  0  0  # atno 17371 bound_to 10713
  139.9051  134.8467  156.1738 LP  0  0  0  0  0  0  0  0  0  0  0  0  # atno 17394 bound_to 11000
  141.0548  133.6871  156.1839 LP  0  0  0  0  0  0  0  0  0  0  0  0  # atno 17395 bound_to 11000

$$$$
