AV-unprocessed.smi:1444|AV-procd|sdf|5882|dock6
  -GOLD-   22720 5563D 1   1.00000     0.00000
 Structure written by MMmdl.
 43 44  0  0  0  0  0  0  0  0  1 V2000
  151.6438  140.0891  156.1027 C   0  0  0  0  0  0  0  0  0  0  0  0
  152.3727  140.3317  157.3011 O   0  0  0  0  0  0  0  0  0  0  0  0
  152.1634  141.5217  157.9718 C   0  0  0  0  0  0  0  0  0  0  0  0
  151.2349  142.3824  157.4839 N   0  0  0  0  0  0  0  0  0  0  0  0
  151.0269  143.5431  158.1391 C   0  0  0  0  0  0  0  0  0  0  0  0
  151.7206  143.9024  159.3090 C   0  0  0  0  0  0  0  0  0  0  0  0
  152.6842  143.0115  159.8169 C   0  0  0  0  0  0  0  0  0  0  0  0
  152.9255  141.7963  159.1314 C   0  0  0  0  0  0  0  0  0  0  0  0
  153.8610  140.8195  159.5704 N   0  0  0  0  0  0  0  0  0  0  0  0
  154.2812  140.5697  160.8221 C   0  0  0  0  0  0  0  0  0  0  0  0
  153.9210  141.1802  161.8284 O   0  0  0  0  0  0  0  0  0  0  0  0
  155.1773  139.5724  160.8411 N   0  0  0  0  0  0  0  0  0  0  0  0
  155.8522  139.0578  162.0306 C   0  0  1  0  0  0  0  0  0  0  0  0
  156.6034  140.2294  162.6824 C   0  0  0  0  0  0  0  0  0  0  0  0
  154.8070  138.3612  162.9376 C   0  0  0  0  0  0  0  0  0  0  0  0
  155.0947  136.9776  163.3274 N   0  0  0  0  0  0  0  0  0  0  0  0
  154.1128  136.4394  164.2696 C   0  0  0  0  0  0  0  0  0  0  0  0
  154.4108  134.9766  164.6426 C   0  0  0  0  0  0  0  0  0  0  0  0
  154.4542  134.1810  163.4634 O   0  0  0  0  0  0  0  0  0  0  0  0
  155.4244  134.6422  162.5302 C   0  0  0  0  0  0  0  0  0  0  0  0
  155.1230  136.1040  162.1566 C   0  0  0  0  0  0  0  0  0  0  0  0
  151.9296  139.1187  155.6973 H   0  0  0  0  0  0  0  0  0  0  0  0
  151.8615  140.8411  155.3429 H   0  0  0  0  0  0  0  0  0  0  0  0
  150.5689  140.0666  156.2875 H   0  0  0  0  0  0  0  0  0  0  0  0
  150.2799  144.2022  157.7221 H   0  0  0  0  0  0  0  0  0  0  0  0
  151.5151  144.8375  159.8086 H   0  0  0  0  0  0  0  0  0  0  0  0
  153.2059  143.2695  160.7254 H   0  0  0  0  0  0  0  0  0  0  0  0
  154.3170  140.2992  158.8351 H   0  0  0  0  0  0  0  0  0  0  0  0
  155.4143  139.1337  159.9633 H   0  0  0  0  0  0  0  0  0  0  0  0
  156.5935  138.3209  161.7155 H   0  0  0  0  0  0  0  0  0  0  0  0
  157.3494  139.8801  163.3939 H   0  0  0  0  0  0  0  0  0  0  0  0
  155.9214  140.9074  163.1966 H   0  0  0  0  0  0  0  0  0  0  0  0
  157.1469  140.8096  161.9356 H   0  0  0  0  0  0  0  0  0  0  0  0
  154.6063  138.9679  163.8220 H   0  0  0  0  0  0  0  0  0  0  0  0
  153.8700  138.3627  162.3783 H   0  0  0  0  0  0  0  0  0  0  0  0
  154.0845  137.0248  165.1831 H   0  0  0  0  0  0  0  0  0  0  0  0
  153.1133  136.4993  163.8360 H   0  0  0  0  0  0  0  0  0  0  0  0
  155.3583  134.8994  165.1781 H   0  0  0  0  0  0  0  0  0  0  0  0
  153.6356  134.5892  165.3038 H   0  0  0  0  0  0  0  0  0  0  0  0
  156.4243  134.5506  162.9575 H   0  0  0  0  0  0  0  0  0  0  0  0
  155.3949  134.0095  161.6431 H   0  0  0  0  0  0  0  0  0  0  0  0
  154.1662  136.1529  161.6344 H   0  0  0  0  0  0  0  0  0  0  0  0
  155.8804  136.4516  161.4528 H   0  0  0  0  0  0  0  0  0  0  0  0
  1  2  1  0  0  0  0
  1 22  1  0  0  0  0
  1 23  1  0  0  0  0
  1 24  1  0  0  0  0
  2  3  1  0  0  0  0
  3  8  1  0  0  0  0
  3  4  2  0  0  0  0
  4  5  1  0  0  0  0
  5  6  2  0  0  0  0
  5 25  1  0  0  0  0
  6  7  1  0  0  0  0
  6 26  1  0  0  0  0
  7  8  2  0  0  0  0
  7 27  1  0  0  0  0
  8  9  1  0  0  0  0
  9 10  1  0  0  0  0
  9 28  1  0  0  0  0
 10 11  2  0  0  0  0
 10 12  1  0  0  0  0
 12 13  1  0  0  0  0
 12 29  1  0  0  0  0
 13 14  1  0  0  0  0
 13 15  1  0  0  0  0
 13 30  1  0  0  0  0
 14 31  1  0  0  0  0
 14 32  1  0  0  0  0
 14 33  1  0  0  0  0
 15 16  1  0  0  0  0
 15 34  1  0  0  0  0
 15 35  1  0  0  0  0
 16 21  1  0  0  0  0
 16 17  1  0  0  0  0
 17 18  1  0  0  0  0
 17 36  1  0  0  0  0
 17 37  1  0  0  0  0
 18 19  1  0  0  0  0
 18 38  1  0  0  0  0
 18 39  1  0  0  0  0
 19 20  1  0  0  0  0
 20 21  1  0  0  0  0
 20 40  1  0  0  0  0
 20 41  1  0  0  0  0
 21 42  1  0  0  0  0
 21 43  1  0  0  0  0
M  END
> <s_m_source_file>
AV-unprocessed.smi

> <i_m_source_file_index>
1444

> <i_lp_mmshare_version>
43012

> <i_f3d_flags>
0

> <s_epik_input>
W0NIM11PYzFuW2NIXVtjSF1bY0hdYzFbTkhdQyg9TylbTkhdW0NASF0oW0NIM10pW0NIMl1OMltDSDJdW0NIMl1PW0NIMl1bQ0gyXTI=

> <s_epik_cmdline>
J2VwaWtfcHl0aG9uJywgJy1waCcsICc3LjAnLCAnLXRuJywgJzgnLCAnLW1hJywgJzIwMCcsICctbWV0YWxfYmluZGluZycsICctaW1hZScsICc8aW5maWxlLm1hZT4nLCAnLW9tYWUnLCAnPG91dGZpbGUubWFlPic=

> <r_lp_tautomer_probability>
1

> <r_epik_Ionization_Penalty>
0.266086

> <r_epik_Ionization_Penalty_Charging>
0

> <r_epik_Ionization_Penalty_Neutral>
0.266086

> <r_epik_State_Penalty>
0.257924

> <r_epik_Charging_Adjusted_Penalty>
0.257924

> <i_epik_Tot_Q>
0

> <i_epik_Tot_abs_Q>
0

> <r_epik_Metal_State_Penalty>
0.25792

> <b_epik_Metal_Only>
0

> <s_lp_Force_Field>
OPLS_2005

> <r_lp_Energy>
29.2348

> <b_lp_Chiralities_Consistent>
1

> <s_lp_Variant>
AV-unprocessed.smi:1444-2

> <Gold.Version>
5.8.1

> <Gold.Id.Protein>
6NUR|6NUR_protein|mol2

> <Gold.PLP.Fitness>
36.7716

> <Gold.PLP.PLP>
-33.2353

> <Gold.PLP.part.hbond>
-1.0000

> <Gold.PLP.part.metal>
0.0000

> <Gold.PLP.part.buried>
-1.6257

> <Gold.PLP.part.nonpolar>
-29.0005

> <Gold.PLP.part.repulsive>
0.2180

> <Gold.PLP.ligand.clash>
0.0000

> <Gold.PLP.ligand.torsion>
0.9446

> <Gold.PLP.Chemscore.Hbond>
0.7977

> <Gold.PLP.Chemscore.CHOScore>
0.9973

> <Gold.PLP.Chemscore.Metal>
0.0000

> <Gold.Chemscore.Hbonds>
donor molecule, donor type, donor heavy atom, donor atom, acceptor molecule, acceptor atom, score
      P1  H  7997  8010       L1     2  0.76
      L1  C     5    25       P1  8028  1.00

> <Gold.PLP.Chemscore.Internal.Correction>
0.0403

> <Gold.Rescore>
     Score         DG    S(hbond)    S(metal)    S(lipo)     H(rot)  DE(clash)    DE(int)     intcor
      9.55     -12.77       0.06        0.00      98.17       1.72       0.17       3.05       ----

> <Gold.Chemscore.Fitness>
9.5516

> <Gold.Chemscore.DG>
-12.7685

> <Gold.Chemscore.ZeroCoef>
-5.4800

> <Gold.Chemscore.Hbond>
0.0609

> <Gold.Chemscore.Metal>
0.0000

> <Gold.Chemscore.Lipo>
98.1660

> <Gold.Chemscore.Internal_Hbond>
0.0000

> <Gold.Chemscore.DEClash>
0.1716

> <Gold.Chemscore.DEInternal>
3.0453

> <Gold.Chemscore.Rot>
1.7189

> <Gold.Chemscore.Internal.Correction>
   9.000000E+99

> <Gold.Chemscore.Hbonds>
donor molecule, donor type, donor heavy atom, donor atom, acceptor molecule, acceptor atom, score
      P1  H  7997  8010       L1     2  0.21

> <Gold.Chemscore.Hbond.Weighted>
-0.2035

> <Gold.Chemscore.Metal.Weighted>
-0.0000

> <Gold.Chemscore.Lipo.Weighted>
-11.4854

> <Gold.Chemscore.Internal_Hbond.Weighted>
0.0000

> <Gold.Chemscore.DEClash.Weighted>
0.1716

> <Gold.Chemscore.DEInternal.Weighted>
3.0453

> <Gold.Chemscore.Rot.Weighted>
4.4004

> <Gold.Chemscore.Internal.Correction.Weighted>
   9.000000E+99

> <Gold.Protein.RotatedTorsions>
[ 6907 6896 6895 6894 ] final -103.96 input  -60.11 | X-H torsion
[ 7974 7965 7964 7962 ] final  137.71 input  175.53 | X-H torsion
[ 8008 7997 7996 7995 ] final   60.13 input   59.86 | X-H torsion
[ 10167 10162 10161 10158 ] final -163.17 input  -65.29 | X-H torsion
[ 10718 10713 10712 10709 ] final -134.00 input   66.30 | X-H torsion
[ 10763 10752 10751 10750 ] final -109.22 input  -60.55 | X-H torsion
[ 11005 11000 10999 10996 ] final   52.73 input  -57.11 | X-H torsion

> <Gold.Protein.ActiveResidues>
 VAL166  LYS551  ARG553  GLY616  TRP617  ASP618  TYR619  PRO620  LYS621  CYS622 
 ASP623  PHE694  ASN695  SER759  ASP760  ASP761  ALA762  ILE779  LEU786  VAL792 
 PHE793  MET794  SER795  GLU796  ALA797  LYS798  CYS799  TRP800  GLU811  SER814 

> <Gold.Protein.RotatedAtoms>
  150.7264  134.0350  159.3745 H   0  0  0  0  0  0  0  0  0  0  0  0  # atno 6907 bound_to 6896
  151.8321  135.0616  160.0447 H   0  0  0  0  0  0  0  0  0  0  0  0  # atno 6908 bound_to 6896
  152.2926  133.5540  159.5603 H   0  0  0  0  0  0  0  0  0  0  0  0  # atno 6909 bound_to 6896
  144.9442  139.4895  143.5557 H   0  0  0  0  0  0  0  0  0  0  0  0  # atno 7974 bound_to 7965
  155.5774  140.3491  155.4531 H   0  0  0  0  0  0  0  0  0  0  0  0  # atno 8008 bound_to 7997
  156.0399  140.1293  157.0192 H   0  0  0  0  0  0  0  0  0  0  0  0  # atno 8009 bound_to 7997
  154.4387  140.1026  156.6207 H   0  0  0  0  0  0  0  0  0  0  0  0  # atno 8010 bound_to 7997
  139.6340  144.0386  152.2039 H   0  0  0  0  0  0  0  0  0  0  0  0  # atno 10167 bound_to 10162
  156.2508  130.7152  151.1050 H   0  0  0  0  0  0  0  0  0  0  0  0  # atno 10718 bound_to 10713
  154.8180  135.4609  154.0699 H   0  0  0  0  0  0  0  0  0  0  0  0  # atno 10763 bound_to 10752
  153.2076  135.6877  153.8161 H   0  0  0  0  0  0  0  0  0  0  0  0  # atno 10764 bound_to 10752
  153.7623  135.3282  155.3316 H   0  0  0  0  0  0  0  0  0  0  0  0  # atno 10765 bound_to 10752
  140.0825  134.5319  155.8932 H   0  0  0  0  0  0  0  0  0  0  0  0  # atno 11005 bound_to 11000
  146.3297  139.8482  142.8878 LP  0  0  0  0  0  0  0  0  0  0  0  0  # atno 17320 bound_to 7965
  145.2944  141.0176  143.3644 LP  0  0  0  0  0  0  0  0  0  0  0  0  # atno 17321 bound_to 7965
  140.0058  144.6260  150.7690 LP  0  0  0  0  0  0  0  0  0  0  0  0  # atno 17342 bound_to 10162
  140.7455  143.2876  151.3420 LP  0  0  0  0  0  0  0  0  0  0  0  0  # atno 17343 bound_to 10162
  157.7214  131.0679  150.6121 LP  0  0  0  0  0  0  0  0  0  0  0  0  # atno 17370 bound_to 10713
  156.6201  130.4403  149.5825 LP  0  0  0  0  0  0  0  0  0  0  0  0  # atno 17371 bound_to 10713
  141.2051  133.6644  156.6163 LP  0  0  0  0  0  0  0  0  0  0  0  0  # atno 17394 bound_to 11000
  140.3467  134.7803  157.4438 LP  0  0  0  0  0  0  0  0  0  0  0  0  # atno 17395 bound_to 11000

$$$$
