AV-unprocessed.smi:1829|AV-procd|sdf|7428|dock2
  -GOLD-   22720 9113D 1   1.00000     0.00000
 Structure written by MMmdl.
 45 47  0  0  0  0  0  0  0  0  1 V2000
  144.8629  144.9764  153.5122 C   0  0  0  0  0  0  0  0  0  0  0  0
  144.4384  143.8017  154.4079 C   0  0  0  0  0  0  0  0  0  0  0  0
  143.5827  144.2733  155.5938 C   0  0  0  0  0  0  0  0  0  0  0  0
  145.6365  142.9847  154.8757 C   0  0  0  0  0  0  0  0  0  0  0  0
  145.8162  142.7164  156.2495 C   0  0  0  0  0  0  0  0  0  0  0  0
  146.9275  141.9716  156.6897 C   0  0  0  0  0  0  0  0  0  0  0  0
  147.8734  141.4862  155.7627 C   0  0  0  0  0  0  0  0  0  0  0  0
  149.0653  140.6782  156.2526 C   0  0  2  0  0  0  0  0  0  0  0  0
  148.8726  140.1678  157.5581 O   0  0  0  0  0  0  0  0  0  0  0  0
  150.3630  141.5096  156.1930 C   0  0  0  0  0  0  0  0  0  0  0  0
  151.4213  140.9723  157.0383 N   0  0  0  0  0  0  0  0  0  0  0  0
  152.0917  139.8008  156.8992 C   0  0  0  0  0  0  0  0  0  0  0  0
  151.8135  138.8465  155.7780 C   0  0  0  0  0  0  0  0  0  0  0  0
  152.1183  139.3900  154.5117 O   0  0  0  0  0  0  0  0  0  0  0  0
  153.0228  139.5519  157.8208 N   0  0  0  0  0  0  0  0  0  0  0  0
  152.9525  140.6673  158.6325 C   0  0  0  0  0  0  0  0  0  0  0  0
  153.6884  141.0080  159.7900 C   0  0  0  0  0  0  0  0  0  0  0  0
  153.4373  142.2210  160.4644 C   0  0  0  0  0  0  0  0  0  0  0  0
  152.4491  143.1090  159.9923 C   0  0  0  0  0  0  0  0  0  0  0  0
  151.7052  142.7890  158.8402 C   0  0  0  0  0  0  0  0  0  0  0  0
  151.9599  141.5771  158.1703 C   0  0  0  0  0  0  0  0  0  0  0  0
  147.6896  141.7459  154.3873 C   0  0  0  0  0  0  0  0  0  0  0  0
  146.5799  142.4927  153.9476 C   0  0  0  0  0  0  0  0  0  0  0  0
  145.4227  144.6246  152.6452 H   0  0  0  0  0  0  0  0  0  0  0  0
  145.4914  145.6869  154.0496 H   0  0  0  0  0  0  0  0  0  0  0  0
  143.9935  145.5212  153.1430 H   0  0  0  0  0  0  0  0  0  0  0  0
  143.8098  143.1497  153.7997 H   0  0  0  0  0  0  0  0  0  0  0  0
  143.2418  143.4271  156.1910 H   0  0  0  0  0  0  0  0  0  0  0  0
  142.6984  144.8101  155.2502 H   0  0  0  0  0  0  0  0  0  0  0  0
  144.1394  144.9418  156.2508 H   0  0  0  0  0  0  0  0  0  0  0  0
  145.1035  143.0821  156.9742 H   0  0  0  0  0  0  0  0  0  0  0  0
  147.0506  141.7738  157.7445 H   0  0  0  0  0  0  0  0  0  0  0  0
  149.1694  139.8101  155.6016 H   0  0  0  0  0  0  0  0  0  0  0  0
  148.1112  140.5839  157.9325 H   0  0  0  0  0  0  0  0  0  0  0  0
  150.7286  141.5654  155.1673 H   0  0  0  0  0  0  0  0  0  0  0  0
  150.1659  142.5386  156.4963 H   0  0  0  0  0  0  0  0  0  0  0  0
  152.4062  137.9420  155.9203 H   0  0  0  0  0  0  0  0  0  0  0  0
  150.7682  138.5407  155.7985 H   0  0  0  0  0  0  0  0  0  0  0  0
  153.0436  139.2821  154.3535 H   0  0  0  0  0  0  0  0  0  0  0  0
  154.4473  140.3346  160.1595 H   0  0  0  0  0  0  0  0  0  0  0  0
  154.0055  142.4709  161.3485 H   0  0  0  0  0  0  0  0  0  0  0  0
  152.2613  144.0353  160.5154 H   0  0  0  0  0  0  0  0  0  0  0  0
  150.9448  143.4644  158.4775 H   0  0  0  0  0  0  0  0  0  0  0  0
  148.3988  141.3735  153.6626 H   0  0  0  0  0  0  0  0  0  0  0  0
  146.4576  142.6867  152.8922 H   0  0  0  0  0  0  0  0  0  0  0  0
  1  2  1  0  0  0  0
  1 24  1  0  0  0  0
  1 25  1  0  0  0  0
  1 26  1  0  0  0  0
  2  3  1  0  0  0  0
  2  4  1  0  0  0  0
  2 27  1  0  0  0  0
  3 28  1  0  0  0  0
  3 29  1  0  0  0  0
  3 30  1  0  0  0  0
  4 23  1  0  0  0  0
  4  5  2  0  0  0  0
  5  6  1  0  0  0  0
  5 31  1  0  0  0  0
  6  7  2  0  0  0  0
  6 32  1  0  0  0  0
  7  8  1  0  0  0  0
  7 22  1  0  0  0  0
  8  9  1  0  0  0  0
  8 10  1  0  0  0  0
  8 33  1  0  0  0  0
  9 34  1  0  0  0  0
 10 11  1  0  0  0  0
 10 35  1  0  0  0  0
 10 36  1  0  0  0  0
 11 21  1  0  0  0  0
 11 12  1  0  0  0  0
 12 13  1  0  0  0  0
 12 15  2  0  0  0  0
 13 14  1  0  0  0  0
 13 37  1  0  0  0  0
 13 38  1  0  0  0  0
 14 39  1  0  0  0  0
 15 16  1  0  0  0  0
 16 21  2  0  0  0  0
 16 17  1  0  0  0  0
 17 18  2  0  0  0  0
 17 40  1  0  0  0  0
 18 19  1  0  0  0  0
 18 41  1  0  0  0  0
 19 20  2  0  0  0  0
 19 42  1  0  0  0  0
 20 21  1  0  0  0  0
 20 43  1  0  0  0  0
 22 23  2  0  0  0  0
 22 44  1  0  0  0  0
 23 45  1  0  0  0  0
M  END
> <s_m_source_file>
AV-unprocessed.smi

> <i_m_source_file_index>
1829

> <i_lp_mmshare_version>
43012

> <i_f3d_flags>
0

> <s_epik_input>
W0NIM11bQ0hdKFtDSDNdKWMxW2NIXVtjSF1jKFtjSF1bY0hdMSlbQ0BIXShbT0hdKVtDSDJdbihjKG4yKVtDSDJdW09IXSljKGMyMylbY0hdW2NIXVtjSF1bY0hdMw==

> <s_epik_cmdline>
J2VwaWtfcHl0aG9uJywgJy1waCcsICc3LjAnLCAnLXRuJywgJzgnLCAnLW1hJywgJzIwMCcsICctbWV0YWxfYmluZGluZycsICctaW1hZScsICc8aW5maWxlLm1hZT4nLCAnLW9tYWUnLCAnPG91dGZpbGUubWFlPic=

> <r_epik_Ionization_Penalty>
0.0634718

> <r_epik_Ionization_Penalty_Charging>
0

> <r_epik_Ionization_Penalty_Neutral>
0.0634718

> <r_epik_State_Penalty>
0.0551572

> <r_epik_Charging_Adjusted_Penalty>
0.0551572

> <i_epik_Tot_Q>
0

> <i_epik_Tot_abs_Q>
0

> <r_epik_Metal_State_Penalty>
5.78034e-05

> <b_epik_Metal_Only>
0

> <s_lp_Force_Field>
OPLS_2005

> <r_lp_Energy>
12.4565

> <b_lp_Chiralities_Consistent>
1

> <s_lp_Variant>
AV-unprocessed.smi:1829-1

> <Gold.Version>
5.8.1

> <Gold.Id.Protein>
6NUR|6NUR_protein|mol2

> <Gold.PLP.Fitness>
52.0486

> <Gold.PLP.PLP>
-47.6188

> <Gold.PLP.part.hbond>
-2.0000

> <Gold.PLP.part.metal>
0.0000

> <Gold.PLP.part.buried>
-5.0931

> <Gold.PLP.part.nonpolar>
-40.6820

> <Gold.PLP.part.repulsive>
0.0000

> <Gold.PLP.ligand.clash>
0.0000

> <Gold.PLP.ligand.torsion>
0.7718

> <Gold.PLP.Chemscore.Hbond>
1.9600

> <Gold.PLP.Chemscore.CHOScore>
0.0000

> <Gold.PLP.Chemscore.Metal>
0.0000

> <Gold.Chemscore.Hbonds>
donor molecule, donor type, donor heavy atom, donor atom, acceptor molecule, acceptor atom, score
      P1  H  7989  7998       L1    14  0.82
      P1  H  7997  8009       L1    15  0.81

> <Gold.PLP.Chemscore.Internal.Correction>
0.0935

> <Gold.Rescore>
     Score         DG    S(hbond)    S(metal)    S(lipo)     H(rot)  DE(clash)    DE(int)     intcor
     14.12     -15.31       0.70        0.00     122.48       2.68       0.78       0.41       ----

> <Gold.Chemscore.Fitness>
14.1207

> <Gold.Chemscore.DG>
-15.3101

> <Gold.Chemscore.ZeroCoef>
-5.4800

> <Gold.Chemscore.Hbond>
0.7039

> <Gold.Chemscore.Metal>
0.0000

> <Gold.Chemscore.Lipo>
122.4770

> <Gold.Chemscore.Internal_Hbond>
0.0000

> <Gold.Chemscore.DEClash>
0.7777

> <Gold.Chemscore.DEInternal>
0.4116

> <Gold.Chemscore.Rot>
2.6761

> <Gold.Chemscore.Internal.Correction>
   9.000000E+99

> <Gold.Chemscore.Hbonds>
donor molecule, donor type, donor heavy atom, donor atom, acceptor molecule, acceptor atom, score
      P1  H  7989  7998       L1    14  0.32
      P1  H  7997  8009       L1    15  0.03

> <Gold.Chemscore.Hbond.Weighted>
-2.3510

> <Gold.Chemscore.Metal.Weighted>
-0.0000

> <Gold.Chemscore.Lipo.Weighted>
-14.3298

> <Gold.Chemscore.Internal_Hbond.Weighted>
0.0000

> <Gold.Chemscore.DEClash.Weighted>
0.7777

> <Gold.Chemscore.DEInternal.Weighted>
0.4116

> <Gold.Chemscore.Rot.Weighted>
6.8507

> <Gold.Chemscore.Internal.Correction.Weighted>
   9.000000E+99

> <Gold.Protein.RotatedTorsions>
[ 6907 6896 6895 6894 ] final  -30.80 input  -60.11 | X-H torsion
[ 7974 7965 7964 7962 ] final   37.14 input  175.53 | X-H torsion
[ 8008 7997 7996 7995 ] final  164.53 input   59.86 | X-H torsion
[ 10167 10162 10161 10158 ] final  169.68 input  -65.29 | X-H torsion
[ 10718 10713 10712 10709 ] final  -31.82 input   66.30 | X-H torsion
[ 10763 10752 10751 10750 ] final -140.50 input  -60.55 | X-H torsion
[ 11005 11000 10999 10996 ] final  115.54 input  -57.11 | X-H torsion

> <Gold.Protein.ActiveResidues>
 VAL166  LYS551  ARG553  GLY616  TRP617  ASP618  TYR619  PRO620  LYS621  CYS622 
 ASP623  PHE694  ASN695  SER759  ASP760  ASP761  ALA762  ILE779  LEU786  VAL792 
 PHE793  MET794  SER795  GLU796  ALA797  LYS798  CYS799  TRP800  GLU811  SER814 

> <Gold.Protein.RotatedAtoms>
  151.1007  134.9970  159.8446 H   0  0  0  0  0  0  0  0  0  0  0  0  # atno 6907 bound_to 6896
  152.5436  134.1954  159.8700 H   0  0  0  0  0  0  0  0  0  0  0  0  # atno 6908 bound_to 6896
  151.1996  133.4574  159.2629 H   0  0  0  0  0  0  0  0  0  0  0  0  # atno 6909 bound_to 6896
  146.1159  139.5931  142.9321 H   0  0  0  0  0  0  0  0  0  0  0  0  # atno 7974 bound_to 7965
  156.1873  140.1694  156.8161 H   0  0  0  0  0  0  0  0  0  0  0  0  # atno 8008 bound_to 7997
  154.5429  140.0733  156.8572 H   0  0  0  0  0  0  0  0  0  0  0  0  # atno 8009 bound_to 7997
  155.3180  140.3371  155.4244 H   0  0  0  0  0  0  0  0  0  0  0  0  # atno 8010 bound_to 7997
  139.4998  144.3679  151.9756 H   0  0  0  0  0  0  0  0  0  0  0  0  # atno 10167 bound_to 10162
  156.3825  130.4358  149.7457 H   0  0  0  0  0  0  0  0  0  0  0  0  # atno 10718 bound_to 10713
  154.8576  135.3551  154.5717 H   0  0  0  0  0  0  0  0  0  0  0  0  # atno 10763 bound_to 10752
  153.6330  135.7001  153.5273 H   0  0  0  0  0  0  0  0  0  0  0  0  # atno 10764 bound_to 10752
  153.3034  135.4200  155.1232 H   0  0  0  0  0  0  0  0  0  0  0  0  # atno 10765 bound_to 10752
  139.9013  134.9585  156.7061 H   0  0  0  0  0  0  0  0  0  0  0  0  # atno 11005 bound_to 11000
  145.5567  141.0408  143.2249 LP  0  0  0  0  0  0  0  0  0  0  0  0  # atno 17320 bound_to 7965
  144.7553  139.7090  143.7256 LP  0  0  0  0  0  0  0  0  0  0  0  0  # atno 17321 bound_to 7965
  140.3115  144.3532  150.6032 LP  0  0  0  0  0  0  0  0  0  0  0  0  # atno 17342 bound_to 10162
  140.5795  143.2174  151.7455 LP  0  0  0  0  0  0  0  0  0  0  0  0  # atno 17343 bound_to 10162
  156.4542  130.7921  151.2942 LP  0  0  0  0  0  0  0  0  0  0  0  0  # atno 17370 bound_to 10713
  157.7493  131.0086  150.3234 LP  0  0  0  0  0  0  0  0  0  0  0  0  # atno 17371 bound_to 10713
  140.7112  133.9221  155.8086 LP  0  0  0  0  0  0  0  0  0  0  0  0  # atno 17394 bound_to 11000
  141.0298  134.0771  157.4026 LP  0  0  0  0  0  0  0  0  0  0  0  0  # atno 17395 bound_to 11000

$$$$
