AV-unprocessed.smi:92|AV-procd|sdf|843|dock10
  -GOLD-   2262017283D 1   1.00000     0.00000
 Structure written by MMmdl.
 61 64  0  0  0  0  0  0  0  0  2 V2000
  151.8055  141.5893  159.0167 C   0  0  0  0  0  0  0  0  0  0  0  0
  151.4661  140.4798  158.0116 C   0  0  0  0  0  0  0  0  0  0  0  0
  151.2518  141.0038  156.6359 N   0  3  2  0  0  0  0  0  0  0  0  0
  150.0374  141.8435  156.5016 C   0  0  0  0  0  0  0  0  0  0  0  0
  148.7646  140.9874  156.5430 C   0  0  0  0  0  0  0  0  0  0  0  0
  148.7612  139.9070  155.4358 C   0  0  2  0  0  0  0  0  0  0  0  0
  147.5190  139.1161  155.4511 N   0  0  0  0  0  0  0  0  0  0  0  0
  146.4915  139.3556  156.4570 C   0  0  0  0  0  0  0  0  0  0  0  0
  147.0629  138.5834  154.2935 C   0  0  0  0  0  0  0  0  0  0  0  0
  147.2275  139.3138  153.1623 N   0  0  0  0  0  0  0  0  0  0  0  0
  146.7912  138.8420  151.9907 C   0  0  0  0  0  0  0  0  0  0  0  0
  146.1743  137.6869  151.7344 N   0  0  0  0  0  0  0  0  0  0  0  0
  146.0168  136.9448  152.8680 C   0  0  0  0  0  0  0  0  0  0  0  0
  146.4387  137.3095  154.1778 C   0  0  0  0  0  0  0  0  0  0  0  0
  146.1261  136.2944  155.0732 N   0  0  0  0  0  0  0  0  0  0  0  0
  145.5576  135.3806  154.3356 C   0  0  0  0  0  0  0  0  0  0  0  0
  145.4172  135.7047  153.0052 N   0  0  0  0  0  0  0  0  0  0  0  0
  144.8567  134.8794  151.9755 C   0  0  0  0  0  0  0  0  0  0  0  0
  144.5583  133.3989  152.2292 C   0  0  0  0  0  0  0  0  0  0  0  0
  144.9882  133.0497  150.7875 C   0  0  0  0  0  0  0  0  0  0  0  0
  145.9318  131.8434  150.6626 C   0  0  0  0  0  0  0  0  0  0  0  0
  146.5902  131.8284  149.4120 O   0  0  0  0  0  0  0  0  0  0  0  0
  143.8638  132.8584  149.7454 C   0  0  0  0  0  0  0  0  0  0  0  0
  143.2723  131.5759  149.7902 O   0  0  0  0  0  0  0  0  0  0  0  0
  145.7017  134.4203  150.7822 C   0  0  0  0  0  0  0  0  0  0  0  0
  150.0689  139.0628  155.5043 C   0  0  1  0  0  0  0  0  0  0  0  0
  150.2404  138.0951  154.3185 C   0  0  0  0  0  0  0  0  0  0  0  0
  151.3151  139.9822  155.5583 C   0  0  0  0  0  0  0  0  0  0  0  0
  151.8601  141.1853  160.0279 H   0  0  0  0  0  0  0  0  0  0  0  0
  151.0441  142.3697  159.0147 H   0  0  0  0  0  0  0  0  0  0  0  0
  152.7675  142.0549  158.8044 H   0  0  0  0  0  0  0  0  0  0  0  0
  152.2366  139.7091  158.0233 H   0  0  0  0  0  0  0  0  0  0  0  0
  150.5493  139.9963  158.3511 H   0  0  0  0  0  0  0  0  0  0  0  0
  150.0148  142.6041  157.2832 H   0  0  0  0  0  0  0  0  0  0  0  0
  150.0865  142.3817  155.5540 H   0  0  0  0  0  0  0  0  0  0  0  0
  148.6814  140.5330  157.5303 H   0  0  0  0  0  0  0  0  0  0  0  0
  147.8926  141.6326  156.4291 H   0  0  0  0  0  0  0  0  0  0  0  0
  148.7687  140.4380  154.4829 H   0  0  0  0  0  0  0  0  0  0  0  0
  145.6317  139.8851  156.0472 H   0  0  0  0  0  0  0  0  0  0  0  0
  146.8865  139.9409  157.2874 H   0  0  0  0  0  0  0  0  0  0  0  0
  146.1394  138.4051  156.8585 H   0  0  0  0  0  0  0  0  0  0  0  0
  146.9563  139.4832  151.1372 H   0  0  0  0  0  0  0  0  0  0  0  0
  145.2139  134.4432  154.7484 H   0  0  0  0  0  0  0  0  0  0  0  0
  143.9599  135.3989  151.6357 H   0  0  0  0  0  0  0  0  0  0  0  0
  145.2186  132.9671  152.9833 H   0  0  0  0  0  0  0  0  0  0  0  0
  143.5141  133.1846  152.4595 H   0  0  0  0  0  0  0  0  0  0  0  0
  146.6793  131.8426  151.4567 H   0  0  0  0  0  0  0  0  0  0  0  0
  145.3810  130.9070  150.7574 H   0  0  0  0  0  0  0  0  0  0  0  0
  147.4189  131.3857  149.5134 H   0  0  0  0  0  0  0  0  0  0  0  0
  143.0719  133.5936  149.8921 H   0  0  0  0  0  0  0  0  0  0  0  0
  144.2415  133.0054  148.7333 H   0  0  0  0  0  0  0  0  0  0  0  0
  142.3443  131.6780  149.9367 H   0  0  0  0  0  0  0  0  0  0  0  0
  145.5568  135.0101  149.8765 H   0  0  0  0  0  0  0  0  0  0  0  0
  146.7621  134.3465  151.0293 H   0  0  0  0  0  0  0  0  0  0  0  0
  150.0519  138.4658  156.4156 H   0  0  0  0  0  0  0  0  0  0  0  0
  150.1959  138.6230  153.3653 H   0  0  0  0  0  0  0  0  0  0  0  0
  149.4801  137.3176  154.3054 H   0  0  0  0  0  0  0  0  0  0  0  0
  151.2024  137.5842  154.3676 H   0  0  0  0  0  0  0  0  0  0  0  0
  151.4120  140.5108  154.6089 H   0  0  0  0  0  0  0  0  0  0  0  0
  152.2232  139.3886  155.6571 H   0  0  0  0  0  0  0  0  0  0  0  0
  152.0280  141.6297  156.4737 H   0  0  0  0  0  0  0  0  0  0  0  0
  1  2  1  0  0  0  0
  1 29  1  0  0  0  0
  1 30  1  0  0  0  0
  1 31  1  0  0  0  0
  2  3  1  0  0  0  0
  2 32  1  0  0  0  0
  2 33  1  0  0  0  0
  3 28  1  0  0  0  0
  3  4  1  0  0  0  0
  3 61  1  0  0  0  0
  4  5  1  0  0  0  0
  4 34  1  0  0  0  0
  4 35  1  0  0  0  0
  5  6  1  0  0  0  0
  5 36  1  0  0  0  0
  5 37  1  0  0  0  0
  6  7  1  0  0  0  0
  6 26  1  0  0  0  0
  6 38  1  0  0  0  0
  7  8  1  0  0  0  0
  7  9  1  0  0  0  0
  8 39  1  0  0  0  0
  8 40  1  0  0  0  0
  8 41  1  0  0  0  0
  9 14  1  0  0  0  0
  9 10  2  0  0  0  0
 10 11  1  0  0  0  0
 11 12  2  0  0  0  0
 11 42  1  0  0  0  0
 12 13  1  0  0  0  0
 13 17  1  0  0  0  0
 13 14  2  0  0  0  0
 14 15  1  0  0  0  0
 15 16  2  0  0  0  0
 16 17  1  0  0  0  0
 16 43  1  0  0  0  0
 17 18  1  0  0  0  0
 18 25  1  0  0  0  0
 18 19  1  0  0  0  0
 18 44  1  0  0  0  0
 19 20  1  0  0  0  0
 19 45  1  0  0  0  0
 19 46  1  0  0  0  0
 20 21  1  0  0  0  0
 20 23  1  0  0  0  0
 20 25  1  0  0  0  0
 21 22  1  0  0  0  0
 21 47  1  0  0  0  0
 21 48  1  0  0  0  0
 22 49  1  0  0  0  0
 23 24  1  0  0  0  0
 23 50  1  0  0  0  0
 23 51  1  0  0  0  0
 24 52  1  0  0  0  0
 25 53  1  0  0  0  0
 25 54  1  0  0  0  0
 26 27  1  0  0  0  0
 26 28  1  0  0  0  0
 26 55  1  0  0  0  0
 27 56  1  0  0  0  0
 27 57  1  0  0  0  0
 27 58  1  0  0  0  0
 28 59  1  0  0  0  0
 28 60  1  0  0  0  0
M  CHG  1   3   1
M  END
> <s_m_source_file>
AV-unprocessed.smi

> <i_m_source_file_index>
92

> <i_lp_mmshare_version>
43012

> <i_f3d_flags>
0

> <s_epik_input>
W0NIM11bQ0gyXU4xW0NIMl1bQ0gyXVtDQEhdKFtDQEBIXShbQ0gzXSlbQ0gyXTEpTihbQ0gzXSljKG5bY0hdbjIpYyhjMjMpbltjSF1uM1tDSF0oW0NIMl00KVtDSDJdQzQoW0NIMl1bT0hdKVtDSDJdW09IXQ==

> <s_epik_cmdline>
J2VwaWtfcHl0aG9uJywgJy1waCcsICc3LjAnLCAnLXRuJywgJzgnLCAnLW1hJywgJzIwMCcsICctbWV0YWxfYmluZGluZycsICctaW1hZScsICc8aW5maWxlLm1hZT4nLCAnLW9tYWUnLCAnPG91dGZpbGUubWFlPic=

> <r_lp_tautomer_probability>
1

> <r_epik_Ionization_Penalty>
0.00235514

> <r_epik_Ionization_Penalty_Charging>
0.00137877

> <r_epik_Ionization_Penalty_Neutral>
0.000976366

> <r_epik_State_Penalty>
-0

> <r_epik_Charging_Adjusted_Penalty>
0.00137877

> <i_epik_Tot_Q>
1

> <i_epik_Tot_abs_Q>
1

> <r_epik_Metal_State_Penalty>
-0

> <b_epik_Metal_Only>
0

> <s_lp_Force_Field>
OPLS_2005

> <r_lp_Energy>
56.5643

> <b_lp_Chiralities_Consistent>
1

> <s_lp_Variant>
AV-unprocessed.smi:92-3

> <Gold.Version>
5.8.1

> <Gold.Id.Protein>
6NUR|6NUR_protein|mol2

> <Gold.PLP.Fitness>
44.7053

> <Gold.PLP.PLP>
-37.7783

> <Gold.PLP.part.hbond>
-3.0000

> <Gold.PLP.part.metal>
0.0000

> <Gold.PLP.part.buried>
-6.1606

> <Gold.PLP.part.nonpolar>
-30.2579

> <Gold.PLP.part.repulsive>
1.0167

> <Gold.PLP.ligand.clash>
0.0000

> <Gold.PLP.ligand.torsion>
1.6860

> <Gold.PLP.Chemscore.Hbond>
2.5760

> <Gold.PLP.Chemscore.CHOScore>
0.4392

> <Gold.PLP.Chemscore.Metal>
0.0000

> <Gold.Chemscore.Hbonds>
donor molecule, donor type, donor heavy atom, donor atom, acceptor molecule, acceptor atom, score
      L1  H    22    49       P1 10747  1.00
      L1  H    24    52       P1 10952  0.56
      P1  H 10785 10796       L1    24  0.90
      L1  C    11    42       P1  7957  0.36

> <Gold.PLP.Chemscore.Internal.Correction>
1.2535

> <Gold.Rescore>
     Score         DG    S(hbond)    S(metal)    S(lipo)     H(rot)  DE(clash)    DE(int)     intcor
     12.55     -14.68       2.04        0.00      90.98       3.22       0.49       1.64       ----

> <Gold.Chemscore.Fitness>
12.5546

> <Gold.Chemscore.DG>
-14.6812

> <Gold.Chemscore.ZeroCoef>
-5.4800

> <Gold.Chemscore.Hbond>
2.0373

> <Gold.Chemscore.Metal>
0.0000

> <Gold.Chemscore.Lipo>
90.9813

> <Gold.Chemscore.Internal_Hbond>
0.0000

> <Gold.Chemscore.DEClash>
0.4896

> <Gold.Chemscore.DEInternal>
1.6370

> <Gold.Chemscore.Rot>
3.2219

> <Gold.Chemscore.Internal.Correction>
   9.000000E+99

> <Gold.Chemscore.Hbonds>
donor molecule, donor type, donor heavy atom, donor atom, acceptor molecule, acceptor atom, score
      L1  H    22    49       P1 10747  1.00
      L1  H    24    52       P1 10952  0.52
      P1  H 10785 10796       L1    24  0.18

> <Gold.Chemscore.Hbond.Weighted>
-6.8046

> <Gold.Chemscore.Metal.Weighted>
-0.0000

> <Gold.Chemscore.Lipo.Weighted>
-10.6448

> <Gold.Chemscore.Internal_Hbond.Weighted>
0.0000

> <Gold.Chemscore.DEClash.Weighted>
0.4896

> <Gold.Chemscore.DEInternal.Weighted>
1.6370

> <Gold.Chemscore.Rot.Weighted>
8.2482

> <Gold.Chemscore.Internal.Correction.Weighted>
   9.000000E+99

> <Gold.Protein.RotatedTorsions>
[ 6907 6896 6895 6894 ] final   64.31 input  -60.11 | X-H torsion
[ 7974 7965 7964 7962 ] final  -74.84 input  175.53 | X-H torsion
[ 8008 7997 7996 7995 ] final   65.11 input   59.86 | X-H torsion
[ 10167 10162 10161 10158 ] final  -46.36 input  -65.29 | X-H torsion
[ 10718 10713 10712 10709 ] final  164.21 input   66.30 | X-H torsion
[ 10763 10752 10751 10750 ] final -165.24 input  -60.55 | X-H torsion
[ 11005 11000 10999 10996 ] final -141.69 input  -57.11 | X-H torsion

> <Gold.Protein.ActiveResidues>
 VAL166  LYS551  ARG553  GLY616  TRP617  ASP618  TYR619  PRO620  LYS621  CYS622 
 ASP623  PHE694  ASN695  SER759  ASP760  ASP761  ALA762  ILE779  LEU786  VAL792 
 PHE793  MET794  SER795  GLU796  ALA797  LYS798  CYS799  TRP800  GLU811  SER814 

> <Gold.Protein.RotatedAtoms>
  152.4322  134.5756  159.9933 H   0  0  0  0  0  0  0  0  0  0  0  0  # atno 6907 bound_to 6896
  151.5876  133.3364  159.3029 H   0  0  0  0  0  0  0  0  0  0  0  0  # atno 6908 bound_to 6896
  150.8216  134.7461  159.6841 H   0  0  0  0  0  0  0  0  0  0  0  0  # atno 6909 bound_to 6896
  145.6338  140.9330  143.1072 H   0  0  0  0  0  0  0  0  0  0  0  0  # atno 7974 bound_to 7965
  155.6566  140.3497  155.4767 H   0  0  0  0  0  0  0  0  0  0  0  0  # atno 8008 bound_to 7997
  155.9804  140.1173  157.0755 H   0  0  0  0  0  0  0  0  0  0  0  0  # atno 8009 bound_to 7997
  154.4190  140.1139  156.5413 H   0  0  0  0  0  0  0  0  0  0  0  0  # atno 8010 bound_to 7997
  140.6820  143.2835  151.3771 H   0  0  0  0  0  0  0  0  0  0  0  0  # atno 10167 bound_to 10162
  157.0976  131.0434  151.2511 H   0  0  0  0  0  0  0  0  0  0  0  0  # atno 10718 bound_to 10713
  154.6951  135.2977  154.9423 H   0  0  0  0  0  0  0  0  0  0  0  0  # atno 10763 bound_to 10752
  154.0374  135.6662  153.4790 H   0  0  0  0  0  0  0  0  0  0  0  0  # atno 10764 bound_to 10752
  153.0640  135.5099  154.8064 H   0  0  0  0  0  0  0  0  0  0  0  0  # atno 10765 bound_to 10752
  140.8299  134.2529  157.4861 H   0  0  0  0  0  0  0  0  0  0  0  0  # atno 11005 bound_to 11000
  144.7183  139.8118  143.7391 LP  0  0  0  0  0  0  0  0  0  0  0  0  # atno 17320 bound_to 7965
  146.1335  139.4376  143.0153 LP  0  0  0  0  0  0  0  0  0  0  0  0  # atno 17321 bound_to 7965
  139.6150  144.1021  152.2337 LP  0  0  0  0  0  0  0  0  0  0  0  0  # atno 17342 bound_to 10162
  140.0447  144.5980  150.7383 LP  0  0  0  0  0  0  0  0  0  0  0  0  # atno 17343 bound_to 10162
  157.4668  130.7685  149.7286 LP  0  0  0  0  0  0  0  0  0  0  0  0  # atno 17370 bound_to 10713
  155.9882  130.3961  150.3131 LP  0  0  0  0  0  0  0  0  0  0  0  0  # atno 17371 bound_to 10713
  139.8705  134.9580  156.4288 LP  0  0  0  0  0  0  0  0  0  0  0  0  # atno 17394 bound_to 11000
  140.9009  133.7780  155.9679 LP  0  0  0  0  0  0  0  0  0  0  0  0  # atno 17395 bound_to 11000

$$$$
