AV-unprocessed.smi:756|AV-procd|sdf|3612|dock5
  -GOLD-   22720 1 13D 1   1.00000     0.00000
 Structure written by MMmdl.
 42 43  0  0  0  0  0  0  0  0  1 V2000
  151.9510  144.0557  160.3161 C   0  0  0  0  0  0  0  0  0  0  0  0
  152.5871  142.7345  159.9211 C   0  0  0  0  0  0  0  0  0  0  0  0
  153.4479  142.0316  160.6647 C   0  0  0  0  0  0  0  0  0  0  0  0
  153.9422  140.5415  159.8992 S   0  0  0  0  0  0  0  0  0  0  0  0
  152.8977  140.9135  158.4809 C   0  0  0  0  0  0  0  0  0  0  0  0
  152.8036  140.1674  157.5076 O   0  0  0  0  0  0  0  0  0  0  0  0
  152.2640  142.1375  158.6944 N   0  0  0  0  0  0  0  0  0  0  0  0
  151.3472  142.7364  157.7152 C   0  0  0  0  0  0  0  0  0  0  0  0
  150.2104  141.7943  157.2969 C   0  0  0  0  0  0  0  0  0  0  0  0
  149.7331  140.9818  158.0903 O   0  0  0  0  0  0  0  0  0  0  0  0
  149.7729  141.9296  156.0378 N   0  0  0  0  0  0  0  0  0  0  0  0
  148.7010  141.1378  155.4445 C   0  0  0  0  0  0  0  0  0  0  0  0
  149.2186  140.0827  154.4334 C   0  0  1  0  0  0  0  0  0  0  0  0
  148.0709  139.2412  153.8321 C   0  0  0  0  0  0  0  0  0  0  0  0
  149.8423  140.7859  153.3741 O   0  0  0  0  0  0  0  0  0  0  0  0
  150.2773  139.1640  155.1104 C   0  0  0  0  0  0  0  0  0  0  0  0
  151.0243  138.2002  154.1773 C   0  0  0  0  0  0  0  0  0  0  0  0
  151.6975  137.2073  155.1241 C   0  0  0  0  0  0  0  0  0  0  0  0
  150.7566  137.0801  156.3287 C   0  0  0  0  0  0  0  0  0  0  0  0
  149.7600  138.2454  156.2328 C   0  0  0  0  0  0  0  0  0  0  0  0
  152.0874  144.2390  161.3824 H   0  0  0  0  0  0  0  0  0  0  0  0
  150.8790  144.0583  160.1179 H   0  0  0  0  0  0  0  0  0  0  0  0
  152.4127  144.8784  159.7697 H   0  0  0  0  0  0  0  0  0  0  0  0
  153.8203  142.3028  161.6416 H   0  0  0  0  0  0  0  0  0  0  0  0
  150.9218  143.6664  158.0913 H   0  0  0  0  0  0  0  0  0  0  0  0
  151.9108  143.0190  156.8242 H   0  0  0  0  0  0  0  0  0  0  0  0
  150.2173  142.6150  155.4443 H   0  0  0  0  0  0  0  0  0  0  0  0
  148.1277  140.6640  156.2431 H   0  0  0  0  0  0  0  0  0  0  0  0
  148.0197  141.8206  154.9338 H   0  0  0  0  0  0  0  0  0  0  0  0
  147.5373  138.6952  154.6106 H   0  0  0  0  0  0  0  0  0  0  0  0
  148.4397  138.5106  153.1122 H   0  0  0  0  0  0  0  0  0  0  0  0
  147.3424  139.8558  153.3025 H   0  0  0  0  0  0  0  0  0  0  0  0
  149.8743  140.2214  152.6169 H   0  0  0  0  0  0  0  0  0  0  0  0
  151.0333  139.8108  155.5595 H   0  0  0  0  0  0  0  0  0  0  0  0
  150.3249  137.6688  153.5309 H   0  0  0  0  0  0  0  0  0  0  0  0
  151.7485  138.7068  153.5386 H   0  0  0  0  0  0  0  0  0  0  0  0
  151.8947  136.2478  154.6455 H   0  0  0  0  0  0  0  0  0  0  0  0
  152.6553  137.6131  155.4529 H   0  0  0  0  0  0  0  0  0  0  0  0
  150.2250  136.1281  156.3065 H   0  0  0  0  0  0  0  0  0  0  0  0
  151.3209  137.1151  157.2613 H   0  0  0  0  0  0  0  0  0  0  0  0
  149.6682  138.7753  157.1813 H   0  0  0  0  0  0  0  0  0  0  0  0
  148.7743  137.8486  155.9883 H   0  0  0  0  0  0  0  0  0  0  0  0
  1  2  1  0  0  0  0
  1 21  1  0  0  0  0
  1 22  1  0  0  0  0
  1 23  1  0  0  0  0
  2  7  1  0  0  0  0
  2  3  2  0  0  0  0
  3  4  1  0  0  0  0
  3 24  1  0  0  0  0
  4  5  1  0  0  0  0
  5  6  2  0  0  0  0
  5  7  1  0  0  0  0
  7  8  1  0  0  0  0
  8  9  1  0  0  0  0
  8 25  1  0  0  0  0
  8 26  1  0  0  0  0
  9 10  2  0  0  0  0
  9 11  1  0  0  0  0
 11 12  1  0  0  0  0
 11 27  1  0  0  0  0
 12 13  1  0  0  0  0
 12 28  1  0  0  0  0
 12 29  1  0  0  0  0
 13 14  1  0  0  0  0
 13 15  1  0  0  0  0
 13 16  1  0  0  0  0
 14 30  1  0  0  0  0
 14 31  1  0  0  0  0
 14 32  1  0  0  0  0
 15 33  1  0  0  0  0
 16 20  1  0  0  0  0
 16 17  1  0  0  0  0
 16 34  1  0  0  0  0
 17 18  1  0  0  0  0
 17 35  1  0  0  0  0
 17 36  1  0  0  0  0
 18 19  1  0  0  0  0
 18 37  1  0  0  0  0
 18 38  1  0  0  0  0
 19 20  1  0  0  0  0
 19 39  1  0  0  0  0
 19 40  1  0  0  0  0
 20 41  1  0  0  0  0
 20 42  1  0  0  0  0
M  END
> <s_m_source_file>
AV-unprocessed.smi

> <i_m_source_file_index>
756

> <i_lp_mmshare_version>
43012

> <i_f3d_flags>
0

> <s_epik_input>
W0NIM11jMVtjSF1zYyg9TyluMVtDSDJdQyg9TylbTkhdW0NIMl1bQ0BAXShbQ0gzXSkoW09IXSlbQ0hdMltDSDJdW0NIMl1bQ0gyXVtDSDJdMg==

> <s_epik_cmdline>
J2VwaWtfcHl0aG9uJywgJy1waCcsICc3LjAnLCAnLXRuJywgJzgnLCAnLW1hJywgJzIwMCcsICctbWV0YWxfYmluZGluZycsICctaW1hZScsICc8aW5maWxlLm1hZT4nLCAnLW9tYWUnLCAnPG91dGZpbGUubWFlPic=

> <r_lp_tautomer_probability>
1

> <r_epik_Ionization_Penalty>
1.53576e-06

> <r_epik_Ionization_Penalty_Charging>
1.31044e-06

> <r_epik_Ionization_Penalty_Neutral>
2.25323e-07

> <r_epik_State_Penalty>
-0

> <r_epik_Charging_Adjusted_Penalty>
1.31044e-06

> <i_epik_Tot_Q>
0

> <i_epik_Tot_abs_Q>
0

> <r_epik_Metal_State_Penalty>
-0

> <b_epik_Metal_Only>
0

> <s_lp_Force_Field>
OPLS_2005

> <r_lp_Energy>
32.8559

> <b_lp_Chiralities_Consistent>
1

> <s_lp_Variant>
AV-unprocessed.smi:756-1

> <Gold.Version>
5.8.1

> <Gold.Id.Protein>
6NUR|6NUR_protein|mol2

> <Gold.PLP.Fitness>
47.5619

> <Gold.PLP.PLP>
-39.9108

> <Gold.PLP.part.hbond>
-4.0345

> <Gold.PLP.part.metal>
0.0000

> <Gold.PLP.part.buried>
-4.0246

> <Gold.PLP.part.nonpolar>
-31.6274

> <Gold.PLP.part.repulsive>
0.1488

> <Gold.PLP.ligand.clash>
0.0000

> <Gold.PLP.ligand.torsion>
0.5391

> <Gold.PLP.Chemscore.Hbond>
2.8944

> <Gold.PLP.Chemscore.CHOScore>
0.0000

> <Gold.PLP.Chemscore.Metal>
0.0000

> <Gold.Chemscore.Hbonds>
donor molecule, donor type, donor heavy atom, donor atom, acceptor molecule, acceptor atom, score
      L1  H    15    33       P1  7957  0.86
      P1  H  7989  7998       L1    15  0.18
      P1  H  7997  8010       L1     6  1.00
      P1  H  8011  8017       L1    15  0.70

> <Gold.PLP.Chemscore.Internal.Correction>
0.0462

> <Gold.Rescore>
     Score         DG    S(hbond)    S(metal)    S(lipo)     H(rot)  DE(clash)    DE(int)     intcor
     15.88     -16.55       1.85        0.00      93.59       2.37       0.17       0.50       ----

> <Gold.Chemscore.Fitness>
15.8796

> <Gold.Chemscore.DG>
-16.5496

> <Gold.Chemscore.ZeroCoef>
-5.4800

> <Gold.Chemscore.Hbond>
1.8536

> <Gold.Chemscore.Metal>
0.0000

> <Gold.Chemscore.Lipo>
93.5916

> <Gold.Chemscore.Internal_Hbond>
0.0000

> <Gold.Chemscore.DEClash>
0.1680

> <Gold.Chemscore.DEInternal>
0.5021

> <Gold.Chemscore.Rot>
2.3717

> <Gold.Chemscore.Internal.Correction>
   9.000000E+99

> <Gold.Chemscore.Hbonds>
donor molecule, donor type, donor heavy atom, donor atom, acceptor molecule, acceptor atom, score
      L1  H    15    33       P1  7957  0.79
      P1  H  7989  7998       L1    15  0.01
      P1  H  7997  8010       L1     6  0.58
      P1  H  8011  8017       L1    15  0.07

> <Gold.Chemscore.Hbond.Weighted>
-6.1910

> <Gold.Chemscore.Metal.Weighted>
-0.0000

> <Gold.Chemscore.Lipo.Weighted>
-10.9502

> <Gold.Chemscore.Internal_Hbond.Weighted>
0.0000

> <Gold.Chemscore.DEClash.Weighted>
0.1680

> <Gold.Chemscore.DEInternal.Weighted>
0.5021

> <Gold.Chemscore.Rot.Weighted>
6.0715

> <Gold.Chemscore.Internal.Correction.Weighted>
   9.000000E+99

> <Gold.Protein.RotatedTorsions>
[ 6907 6896 6895 6894 ] final   -8.01 input  -60.11 | X-H torsion
[ 7974 7965 7964 7962 ] final  161.96 input  175.53 | X-H torsion
[ 8008 7997 7996 7995 ] final   54.33 input   59.86 | X-H torsion
[ 10167 10162 10161 10158 ] final  -58.43 input  -65.29 | X-H torsion
[ 10718 10713 10712 10709 ] final -104.50 input   66.30 | X-H torsion
[ 10763 10752 10751 10750 ] final  -18.62 input  -60.55 | X-H torsion
[ 11005 11000 10999 10996 ] final  -98.09 input  -57.11 | X-H torsion

> <Gold.Protein.ActiveResidues>
 VAL166  LYS551  ARG553  GLY616  TRP617  ASP618  TYR619  PRO620  LYS621  CYS622 
 ASP623  PHE694  ASN695  SER759  ASP760  ASP761  ALA762  ILE779  LEU786  VAL792 
 PHE793  MET794  SER795  GLU796  ALA797  LYS798  CYS799  TRP800  GLU811  SER814 

> <Gold.Protein.RotatedAtoms>
  151.4404  135.1019  159.9668 H   0  0  0  0  0  0  0  0  0  0  0  0  # atno 6907 bound_to 6896
  152.4924  133.8534  159.7223 H   0  0  0  0  0  0  0  0  0  0  0  0  # atno 6908 bound_to 6896
  150.9092  133.6960  159.2886 H   0  0  0  0  0  0  0  0  0  0  0  0  # atno 6909 bound_to 6896
  144.7660  139.7972  143.6315 H   0  0  0  0  0  0  0  0  0  0  0  0  # atno 7974 bound_to 7965
  155.4829  140.3469  155.4342 H   0  0  0  0  0  0  0  0  0  0  0  0  # atno 8008 bound_to 7997
  156.1027  140.1440  156.9474 H   0  0  0  0  0  0  0  0  0  0  0  0  # atno 8009 bound_to 7997
  154.4704  140.0903  156.7108 H   0  0  0  0  0  0  0  0  0  0  0  0  # atno 8010 bound_to 7997
  140.6197  143.2415  151.5510 H   0  0  0  0  0  0  0  0  0  0  0  0  # atno 10167 bound_to 10162
  156.0307  130.5518  150.7406 H   0  0  0  0  0  0  0  0  0  0  0  0  # atno 10718 bound_to 10713
  153.5921  135.7002  153.5419 H   0  0  0  0  0  0  0  0  0  0  0  0  # atno 10763 bound_to 10752
  153.3169  135.4085  155.1384 H   0  0  0  0  0  0  0  0  0  0  0  0  # atno 10764 bound_to 10752
  154.8598  135.3686  154.5453 H   0  0  0  0  0  0  0  0  0  0  0  0  # atno 10765 bound_to 10752
  141.1357  133.8219  157.0793 H   0  0  0  0  0  0  0  0  0  0  0  0  # atno 11005 bound_to 11000
  146.1767  139.4941  142.9892 LP  0  0  0  0  0  0  0  0  0  0  0  0  # atno 17320 bound_to 7965
  145.6469  141.0272  143.1781 LP  0  0  0  0  0  0  0  0  0  0  0  0  # atno 17321 bound_to 7965
  139.5428  144.2600  152.1385 LP  0  0  0  0  0  0  0  0  0  0  0  0  # atno 17342 bound_to 10162
  140.1818  144.4837  150.6524 LP  0  0  0  0  0  0  0  0  0  0  0  0  # atno 17343 bound_to 10162
  157.4976  131.0916  151.0353 LP  0  0  0  0  0  0  0  0  0  0  0  0  # atno 17370 bound_to 10713
  157.0743  130.5877  149.5408 LP  0  0  0  0  0  0  0  0  0  0  0  0  # atno 17371 bound_to 10713
  140.0462  134.9829  157.1052 LP  0  0  0  0  0  0  0  0  0  0  0  0  # atno 17394 bound_to 11000
  140.4060  134.2032  155.7163 LP  0  0  0  0  0  0  0  0  0  0  0  0  # atno 17395 bound_to 11000

$$$$
