AV-unprocessed.smi:21|AV-procd|sdf|142|dock10
  -GOLD-   2262015353D 1   1.00000     0.00000
 Structure written by MMmdl.
 62 65  0  0  0  0  0  0  0  0  2 V2000
  145.6623  131.7999  150.2374 C   0  0  0  0  0  0  0  0  0  0  0  0
  144.6619  132.1155  151.1930 O   0  0  0  0  0  0  0  0  0  0  0  0
  144.0931  133.4077  151.0238 C   0  0  2  0  0  0  0  0  0  0  0  0
  145.1086  134.4532  151.4646 C   0  0  0  0  0  0  0  0  0  0  0  0
  144.9692  134.4820  152.9915 C   0  0  1  0  0  0  0  0  0  0  0  0
  145.4874  135.7837  153.6512 C   0  0  0  0  0  0  0  0  0  0  0  0
  145.8233  135.6003  155.0646 N   0  0  0  0  0  0  0  0  0  0  0  0
  145.7956  134.2496  155.6113 C   0  0  0  0  0  0  0  0  0  0  0  0
  146.4787  136.5877  155.7363 C   0  0  0  0  0  0  0  0  0  0  0  0
  146.4926  136.5356  157.0948 N   0  0  0  0  0  0  0  0  0  0  0  0
  147.1199  137.4735  157.8087 C   0  0  0  0  0  0  0  0  0  0  0  0
  147.7858  138.5431  157.3748 N   0  0  0  0  0  0  0  0  0  0  0  0
  147.7750  138.6130  156.0138 C   0  0  0  0  0  0  0  0  0  0  0  0
  147.1534  137.6885  155.1240 C   0  0  0  0  0  0  0  0  0  0  0  0
  147.3471  138.1103  153.8120 N   0  0  0  0  0  0  0  0  0  0  0  0
  148.0464  139.2058  153.9196 C   0  0  0  0  0  0  0  0  0  0  0  0
  148.3551  139.5763  155.2069 N   0  0  0  0  0  0  0  0  0  0  0  0
  149.1189  140.7452  155.6087 C   0  0  0  0  0  0  0  0  0  0  0  0
  150.3631  140.3967  156.4621 C   0  0  1  0  0  0  0  0  0  0  0  0
  151.5799  140.1090  155.5520 C   0  0  0  0  0  0  0  0  0  0  0  0
  152.5766  139.4056  156.2641 O   0  0  0  0  0  0  0  0  0  0  0  0
  150.6461  141.4574  157.5632 C   0  0  2  0  0  0  0  0  0  0  0  0
  151.1954  142.7945  157.0813 C   0  0  0  0  0  0  0  0  0  0  0  0
  151.9314  143.2971  158.3146 C   0  0  0  0  0  0  0  0  0  0  0  0
  152.5499  142.1208  158.8094 O   0  0  0  0  0  0  0  0  0  0  0  0
  151.6431  141.0334  158.6564 C   0  0  0  0  0  0  0  0  0  0  0  0
  143.5454  134.1333  153.2682 N   0  3  1  0  0  0  0  0  0  0  0  0
  142.7104  135.1514  153.9491 C   0  0  0  0  0  0  0  0  0  0  0  0
  142.9406  133.6388  152.0076 C   0  0  0  0  0  0  0  0  0  0  0  0
  143.7961  133.5662  149.9856 H   0  0  0  0  0  0  0  0  0  0  0  0
  145.5453  133.6458  153.3904 H   0  0  0  0  0  0  0  0  0  0  0  0
  146.0526  130.8021  150.4366 H   0  0  0  0  0  0  0  0  0  0  0  0
  146.4961  132.5009  150.2943 H   0  0  0  0  0  0  0  0  0  0  0  0
  145.2702  131.8070  149.2206 H   0  0  0  0  0  0  0  0  0  0  0  0
  146.1221  134.2253  151.1324 H   0  0  0  0  0  0  0  0  0  0  0  0
  144.8327  135.4230  151.0477 H   0  0  0  0  0  0  0  0  0  0  0  0
  146.3293  136.1897  153.0910 H   0  0  0  0  0  0  0  0  0  0  0  0
  144.7109  136.5477  153.6079 H   0  0  0  0  0  0  0  0  0  0  0  0
  145.5694  134.2643  156.6781 H   0  0  0  0  0  0  0  0  0  0  0  0
  146.7540  133.7525  155.4600 H   0  0  0  0  0  0  0  0  0  0  0  0
  145.0268  133.6521  155.1211 H   0  0  0  0  0  0  0  0  0  0  0  0
  147.0841  137.3486  158.8810 H   0  0  0  0  0  0  0  0  0  0  0  0
  148.3615  139.7766  153.0579 H   0  0  0  0  0  0  0  0  0  0  0  0
  149.4143  141.2712  154.7002 H   0  0  0  0  0  0  0  0  0  0  0  0
  148.4644  141.4246  156.1555 H   0  0  0  0  0  0  0  0  0  0  0  0
  150.1386  139.4705  156.9941 H   0  0  0  0  0  0  0  0  0  0  0  0
  151.2906  139.5195  154.6819 H   0  0  0  0  0  0  0  0  0  0  0  0
  152.0296  141.0276  155.1778 H   0  0  0  0  0  0  0  0  0  0  0  0
  152.1998  138.6059  156.5984 H   0  0  0  0  0  0  0  0  0  0  0  0
  149.7153  141.6692  158.0903 H   0  0  0  0  0  0  0  0  0  0  0  0
  151.9083  142.6681  156.2675 H   0  0  0  0  0  0  0  0  0  0  0  0
  150.4177  143.4805  156.7460 H   0  0  0  0  0  0  0  0  0  0  0  0
  152.6627  144.0723  158.0849 H   0  0  0  0  0  0  0  0  0  0  0  0
  151.2323  143.6864  159.0568 H   0  0  0  0  0  0  0  0  0  0  0  0
  151.1232  140.8582  159.5991 H   0  0  0  0  0  0  0  0  0  0  0  0
  152.1941  140.1244  158.4173 H   0  0  0  0  0  0  0  0  0  0  0  0
  142.6476  136.0705  153.3650 H   0  0  0  0  0  0  0  0  0  0  0  0
  143.1019  135.3882  154.9382 H   0  0  0  0  0  0  0  0  0  0  0  0
  141.6974  134.7719  154.0873 H   0  0  0  0  0  0  0  0  0  0  0  0
  142.2833  134.4060  151.5946 H   0  0  0  0  0  0  0  0  0  0  0  0
  142.3313  132.7528  152.1832 H   0  0  0  0  0  0  0  0  0  0  0  0
  143.5828  133.3411  153.8939 H   0  0  0  0  0  0  0  0  0  0  0  0
  1  2  1  0  0  0  0
  1 32  1  0  0  0  0
  1 33  1  0  0  0  0
  1 34  1  0  0  0  0
  2  3  1  0  0  0  0
  3 30  1  0  0  0  0
  3 29  1  0  0  0  0
  3  4  1  0  0  0  0
  4  5  1  0  0  0  0
  4 35  1  0  0  0  0
  4 36  1  0  0  0  0
  5 31  1  0  0  0  0
  5  6  1  0  0  0  0
  5 27  1  0  0  0  0
  6  7  1  0  0  0  0
  6 37  1  0  0  0  0
  6 38  1  0  0  0  0
  7  8  1  0  0  0  0
  7  9  1  0  0  0  0
  8 39  1  0  0  0  0
  8 40  1  0  0  0  0
  8 41  1  0  0  0  0
  9 14  1  0  0  0  0
  9 10  2  0  0  0  0
 10 11  1  0  0  0  0
 11 12  2  0  0  0  0
 11 42  1  0  0  0  0
 12 13  1  0  0  0  0
 13 17  1  0  0  0  0
 13 14  2  0  0  0  0
 14 15  1  0  0  0  0
 15 16  2  0  0  0  0
 16 17  1  0  0  0  0
 16 43  1  0  0  0  0
 17 18  1  0  0  0  0
 18 19  1  0  0  0  0
 18 44  1  0  0  0  0
 18 45  1  0  0  0  0
 19 20  1  0  0  0  0
 19 22  1  0  0  0  0
 19 46  1  0  0  0  0
 20 21  1  0  0  0  0
 20 47  1  0  0  0  0
 20 48  1  0  0  0  0
 21 49  1  0  0  0  0
 22 26  1  0  0  0  0
 22 23  1  0  0  0  0
 22 50  1  0  0  0  0
 23 24  1  0  0  0  0
 23 51  1  0  0  0  0
 23 52  1  0  0  0  0
 24 25  1  0  0  0  0
 24 53  1  0  0  0  0
 24 54  1  0  0  0  0
 25 26  1  0  0  0  0
 26 55  1  0  0  0  0
 26 56  1  0  0  0  0
 27 28  1  0  0  0  0
 27 29  1  0  0  0  0
 27 62  1  0  0  0  0
 28 57  1  0  0  0  0
 28 58  1  0  0  0  0
 28 59  1  0  0  0  0
 29 60  1  0  0  0  0
 29 61  1  0  0  0  0
M  CHG  1  27   1
M  END
> <s_m_source_file>
AV-unprocessed.smi

> <i_m_source_file_index>
21

> <i_lp_mmshare_version>
43012

> <i_f3d_flags>
0

> <s_epik_input>
W0NIM11PW0NASF0xW0NIMl1bQ0BIXShOKFtDSDNdKVtDSDJdMSlbQ0gyXU4oW0NIM10pYyhuW2NIXW4yKWMoYzIzKW5bY0hdbjNbQ0gyXVtDQEhdKFtDSDJdW09IXSlbQ0BASF00W0NIMl1bQ0gyXU9bQ0gyXTQ=

> <s_epik_cmdline>
J2VwaWtfcHl0aG9uJywgJy1waCcsICc3LjAnLCAnLXRuJywgJzgnLCAnLW1hJywgJzIwMCcsICctbWV0YWxfYmluZGluZycsICctaW1hZScsICc8aW5maWxlLm1hZT4nLCAnLW9tYWUnLCAnPG91dGZpbGUubWFlPic=

> <r_lp_tautomer_probability>
1

> <r_epik_Ionization_Penalty>
0.0157465

> <r_epik_Ionization_Penalty_Charging>
0.015354

> <r_epik_Ionization_Penalty_Neutral>
0.000392529

> <r_epik_State_Penalty>
0.0120612

> <r_epik_Charging_Adjusted_Penalty>
0.0274152

> <i_epik_Tot_Q>
1

> <i_epik_Tot_abs_Q>
1

> <r_epik_Metal_State_Penalty>
0.0121253

> <b_epik_Metal_Only>
0

> <s_lp_Force_Field>
OPLS_2005

> <r_lp_Energy>
62.7223

> <b_lp_Chiralities_Consistent>
1

> <s_lp_Variant>
AV-unprocessed.smi:21-22

> <Gold.Version>
5.8.1

> <Gold.Id.Protein>
6NUR|6NUR_protein|mol2

> <Gold.PLP.Fitness>
42.9936

> <Gold.PLP.PLP>
-32.9359

> <Gold.PLP.part.hbond>
-2.0000

> <Gold.PLP.part.metal>
0.0000

> <Gold.PLP.part.buried>
-6.0851

> <Gold.PLP.part.nonpolar>
-26.3195

> <Gold.PLP.part.repulsive>
0.3130

> <Gold.PLP.ligand.clash>
0.0000

> <Gold.PLP.ligand.torsion>
1.2176

> <Gold.PLP.Chemscore.Hbond>
3.0000

> <Gold.PLP.Chemscore.CHOScore>
1.0000

> <Gold.PLP.Chemscore.Metal>
0.0000

> <Gold.Chemscore.Hbonds>
donor molecule, donor type, donor heavy atom, donor atom, acceptor molecule, acceptor atom, score
      L1  H    27    62       P1 10957  1.98
      P1  H  7997  8010       L1    21  1.00
      L1  C    16    43       P1  7957  1.00

> <Gold.PLP.Chemscore.Internal.Correction>
0.4930

> <Gold.Rescore>
     Score         DG    S(hbond)    S(metal)    S(lipo)     H(rot)  DE(clash)    DE(int)     intcor
     11.75     -14.33       1.88        0.00      89.34       3.08       0.14       2.44       ----

> <Gold.Chemscore.Fitness>
11.7454

> <Gold.Chemscore.DG>
-14.3250

> <Gold.Chemscore.ZeroCoef>
-5.4800

> <Gold.Chemscore.Hbond>
1.8761

> <Gold.Chemscore.Metal>
0.0000

> <Gold.Chemscore.Lipo>
89.3423

> <Gold.Chemscore.Internal_Hbond>
0.0000

> <Gold.Chemscore.DEClash>
0.1378

> <Gold.Chemscore.DEInternal>
2.4418

> <Gold.Chemscore.Rot>
3.0758

> <Gold.Chemscore.Internal.Correction>
   9.000000E+99

> <Gold.Chemscore.Hbonds>
donor molecule, donor type, donor heavy atom, donor atom, acceptor molecule, acceptor atom, score
      L1  H    27    62       P1 10957  0.88
      P1  H  7997  8010       L1    21  0.97

> <Gold.Chemscore.Hbond.Weighted>
-6.2661

> <Gold.Chemscore.Metal.Weighted>
-0.0000

> <Gold.Chemscore.Lipo.Weighted>
-10.4531

> <Gold.Chemscore.Internal_Hbond.Weighted>
0.0000

> <Gold.Chemscore.DEClash.Weighted>
0.1378

> <Gold.Chemscore.DEInternal.Weighted>
2.4418

> <Gold.Chemscore.Rot.Weighted>
7.8741

> <Gold.Chemscore.Internal.Correction.Weighted>
   9.000000E+99

> <Gold.Protein.RotatedTorsions>
[ 6907 6896 6895 6894 ] final  -20.19 input  -60.11 | X-H torsion
[ 7974 7965 7964 7962 ] final -159.39 input  175.53 | X-H torsion
[ 8008 7997 7996 7995 ] final   78.69 input   59.86 | X-H torsion
[ 10167 10162 10161 10158 ] final -175.85 input  -65.29 | X-H torsion
[ 10718 10713 10712 10709 ] final   41.34 input   66.30 | X-H torsion
[ 10763 10752 10751 10750 ] final   13.18 input  -60.55 | X-H torsion
[ 11005 11000 10999 10996 ] final  -52.26 input  -57.11 | X-H torsion

> <Gold.Protein.ActiveResidues>
 VAL166  LYS551  ARG553  GLY616  TRP617  ASP618  TYR619  PRO620  LYS621  CYS622 
 ASP623  PHE694  ASN695  SER759  ASP760  ASP761  ALA762  ILE779  LEU786  VAL792 
 PHE793  MET794  SER795  GLU796  ALA797  LYS798  CYS799  TRP800  GLU811  SER814 

> <Gold.Protein.RotatedAtoms>
  151.2518  135.0625  159.9064 H   0  0  0  0  0  0  0  0  0  0  0  0  # atno 6907 bound_to 6896
  152.5379  134.0324  159.8041 H   0  0  0  0  0  0  0  0  0  0  0  0  # atno 6908 bound_to 6896
  151.0533  133.5556  159.2671 H   0  0  0  0  0  0  0  0  0  0  0  0  # atno 6909 bound_to 6896
  144.7467  140.3692  143.6079 H   0  0  0  0  0  0  0  0  0  0  0  0  # atno 7974 bound_to 7965
  155.8592  140.3454  155.5745 H   0  0  0  0  0  0  0  0  0  0  0  0  # atno 8008 bound_to 7997
  155.7952  140.0877  157.2007 H   0  0  0  0  0  0  0  0  0  0  0  0  # atno 8009 bound_to 7997
  154.4011  140.1476  156.3197 H   0  0  0  0  0  0  0  0  0  0  0  0  # atno 8010 bound_to 7997
  139.5559  144.1989  152.1159 H   0  0  0  0  0  0  0  0  0  0  0  0  # atno 10167 bound_to 10162
  157.3925  130.7814  149.7281 H   0  0  0  0  0  0  0  0  0  0  0  0  # atno 10718 bound_to 10713
  153.1747  135.6818  153.8559 H   0  0  0  0  0  0  0  0  0  0  0  0  # atno 10763 bound_to 10752
  153.7911  135.3169  155.3379 H   0  0  0  0  0  0  0  0  0  0  0  0  # atno 10764 bound_to 10752
  154.8021  135.4771  154.0395 H   0  0  0  0  0  0  0  0  0  0  0  0  # atno 10765 bound_to 10752
  141.0915  133.6632  156.3998 H   0  0  0  0  0  0  0  0  0  0  0  0  # atno 11005 bound_to 11000
  145.7096  139.1681  143.2546 LP  0  0  0  0  0  0  0  0  0  0  0  0  # atno 17320 bound_to 7965
  146.1357  140.7126  142.9391 LP  0  0  0  0  0  0  0  0  0  0  0  0  # atno 17321 bound_to 7965
  140.1494  144.5129  150.6696 LP  0  0  0  0  0  0  0  0  0  0  0  0  # atno 17342 bound_to 10162
  140.6832  143.2337  151.5329 LP  0  0  0  0  0  0  0  0  0  0  0  0  # atno 17343 bound_to 10162
  155.9802  130.4032  150.3543 LP  0  0  0  0  0  0  0  0  0  0  0  0  # atno 17370 bound_to 10713
  157.1661  131.0357  151.2818 LP  0  0  0  0  0  0  0  0  0  0  0  0  # atno 17371 bound_to 10713
  140.5241  134.6275  157.5328 LP  0  0  0  0  0  0  0  0  0  0  0  0  # atno 17394 bound_to 11000
  139.9741  134.7243  155.9983 LP  0  0  0  0  0  0  0  0  0  0  0  0  # atno 17395 bound_to 11000

$$$$
