AV-unprocessed.smi:1406|AV-procd|sdf|5710|dock4
  -GOLD-   22720 5343D 1   1.00000     0.00000
 Structure written by MMmdl.
 41 43  0  0  0  0  0  0  0  0  2 V2000
  152.1833  138.0960  154.1924 C   0  0  0  0  0  0  0  0  0  0  0  0
  151.3613  138.4674  155.4433 C   0  0  1  0  0  0  0  0  0  0  0  0
  152.1914  139.1915  156.5179 C   0  0  0  0  0  0  0  0  0  0  0  0
  153.2809  138.7485  156.8831 O   0  0  0  0  0  0  0  0  0  0  0  0
  151.6602  140.3171  157.0202 N   0  0  0  0  0  0  0  0  0  0  0  0
  152.3152  141.1852  157.9914 C   0  0  2  0  0  0  0  0  0  0  0  0
  153.0196  140.4339  159.1310 C   0  0  0  0  0  0  0  0  0  0  0  0
  152.7768  141.2883  160.3916 C   0  0  0  0  0  0  0  0  0  0  0  0
  152.0303  142.4918  159.9561 N   0  3  1  0  0  0  0  0  0  0  0  0
  152.9240  143.6683  159.7702 C   0  0  0  0  0  0  0  0  0  0  0  0
  152.2023  144.8414  159.0945 C   0  0  0  0  0  0  0  0  0  0  0  0
  151.6424  144.4066  157.7378 C   0  0  0  0  0  0  0  0  0  0  0  0
  150.6818  143.2291  157.9353 C   0  0  0  0  0  0  0  0  0  0  0  0
  151.3062  142.0636  158.7349 C   0  0  1  0  0  0  0  0  0  0  0  0
  150.1786  139.2487  155.0992 N   0  0  0  0  0  0  0  0  0  0  0  0
  148.8877  139.0013  155.3324 C   0  0  0  0  0  0  0  0  0  0  0  0
  148.0725  139.9622  154.9217 N   0  0  0  0  0  0  0  0  0  0  0  0
  148.9891  140.8356  154.4088 C   0  0  0  0  0  0  0  0  0  0  0  0
  150.2653  140.4621  154.4990 N   0  0  0  0  0  0  0  0  0  0  0  0
  153.0216  137.4471  154.4490 H   0  0  0  0  0  0  0  0  0  0  0  0
  152.5874  138.9778  153.6932 H   0  0  0  0  0  0  0  0  0  0  0  0
  151.5684  137.5606  153.4684 H   0  0  0  0  0  0  0  0  0  0  0  0
  151.0115  137.5358  155.8910 H   0  0  0  0  0  0  0  0  0  0  0  0
  150.7591  140.6126  156.6731 H   0  0  0  0  0  0  0  0  0  0  0  0
  153.0395  141.8224  157.4805 H   0  0  0  0  0  0  0  0  0  0  0  0
  152.5985  139.4374  159.2726 H   0  0  0  0  0  0  0  0  0  0  0  0
  154.0828  140.3134  158.9205 H   0  0  0  0  0  0  0  0  0  0  0  0
  152.1537  140.7337  161.0943 H   0  0  0  0  0  0  0  0  0  0  0  0
  153.7039  141.5364  160.9107 H   0  0  0  0  0  0  0  0  0  0  0  0
  153.3063  143.9800  160.7428 H   0  0  0  0  0  0  0  0  0  0  0  0
  153.7919  143.3861  159.1717 H   0  0  0  0  0  0  0  0  0  0  0  0
  151.3962  145.2031  159.7342 H   0  0  0  0  0  0  0  0  0  0  0  0
  152.8922  145.6753  158.9616 H   0  0  0  0  0  0  0  0  0  0  0  0
  151.1225  145.2379  157.2609 H   0  0  0  0  0  0  0  0  0  0  0  0
  152.4559  144.1234  157.0689 H   0  0  0  0  0  0  0  0  0  0  0  0
  149.8027  143.5874  158.4727 H   0  0  0  0  0  0  0  0  0  0  0  0
  150.3178  142.8743  156.9702 H   0  0  0  0  0  0  0  0  0  0  0  0
  150.4883  141.4212  159.0685 H   0  0  0  0  0  0  0  0  0  0  0  0
  148.5371  138.1035  155.8201 H   0  0  0  0  0  0  0  0  0  0  0  0
  148.7080  141.7784  153.9624 H   0  0  0  0  0  0  0  0  0  0  0  0
  151.3532  142.7406  160.6633 H   0  0  0  0  0  0  0  0  0  0  0  0
  1  2  1  0  0  0  0
  1 20  1  0  0  0  0
  1 21  1  0  0  0  0
  1 22  1  0  0  0  0
  2  3  1  0  0  0  0
  2 15  1  0  0  0  0
  2 23  1  0  0  0  0
  3  4  2  0  0  0  0
  3  5  1  0  0  0  0
  5  6  1  0  0  0  0
  5 24  1  0  0  0  0
  6 14  1  0  0  0  0
  6  7  1  0  0  0  0
  6 25  1  0  0  0  0
  7  8  1  0  0  0  0
  7 26  1  0  0  0  0
  7 27  1  0  0  0  0
  8  9  1  0  0  0  0
  8 28  1  0  0  0  0
  8 29  1  0  0  0  0
  9 14  1  0  0  0  0
  9 10  1  0  0  0  0
  9 41  1  0  0  0  0
 10 11  1  0  0  0  0
 10 30  1  0  0  0  0
 10 31  1  0  0  0  0
 11 12  1  0  0  0  0
 11 32  1  0  0  0  0
 11 33  1  0  0  0  0
 12 13  1  0  0  0  0
 12 34  1  0  0  0  0
 12 35  1  0  0  0  0
 13 14  1  0  0  0  0
 13 36  1  0  0  0  0
 13 37  1  0  0  0  0
 14 38  1  0  0  0  0
 15 19  1  0  0  0  0
 15 16  1  0  0  0  0
 16 17  2  0  0  0  0
 16 39  1  0  0  0  0
 17 18  1  0  0  0  0
 18 19  2  0  0  0  0
 18 40  1  0  0  0  0
M  CHG  1   9   1
M  END
> <s_m_source_file>
AV-unprocessed.smi

> <i_m_source_file_index>
1406

> <i_lp_mmshare_version>
43012

> <i_f3d_flags>
0

> <s_epik_input>
bjFbY0hdbltjSF1uMVtDQEhdKFtDSDNdKUMoPU8pW05IXVtDQEhdKFtDSDJdW0NIMl0yKVtDQEBIXShOMjMpW0NIMl1bQ0gyXVtDSDJdW0NIMl0z

> <s_epik_cmdline>
J2VwaWtfcHl0aG9uJywgJy1waCcsICc3LjAnLCAnLXRuJywgJzgnLCAnLW1hJywgJzIwMCcsICctbWV0YWxfYmluZGluZycsICctaW1hZScsICc8aW5maWxlLm1hZT4nLCAnLW9tYWUnLCAnPG91dGZpbGUubWFlPic=

> <r_lp_tautomer_probability>
1

> <r_epik_Ionization_Penalty>
0.00197066

> <r_epik_Ionization_Penalty_Charging>
0.00196223

> <r_epik_Ionization_Penalty_Neutral>
8.43107e-06

> <r_epik_State_Penalty>
0.00133866

> <r_epik_Charging_Adjusted_Penalty>
0.00330089

> <i_epik_Tot_Q>
1

> <i_epik_Tot_abs_Q>
1

> <r_epik_Metal_State_Penalty>
-0

> <b_epik_Metal_Only>
0

> <s_lp_Force_Field>
OPLS_2005

> <r_lp_Energy>
42.7017

> <b_lp_Chiralities_Consistent>
1

> <s_lp_Variant>
AV-unprocessed.smi:1406-2

> <Gold.Version>
5.8.1

> <Gold.Id.Protein>
6NUR|6NUR_protein|mol2

> <Gold.PLP.Fitness>
42.0144

> <Gold.PLP.PLP>
-36.9359

> <Gold.PLP.part.hbond>
-2.0000

> <Gold.PLP.part.metal>
0.0000

> <Gold.PLP.part.buried>
-6.1168

> <Gold.PLP.part.nonpolar>
-29.5241

> <Gold.PLP.part.repulsive>
0.3680

> <Gold.PLP.ligand.clash>
0.0000

> <Gold.PLP.ligand.torsion>
0.4531

> <Gold.PLP.Chemscore.Hbond>
1.9600

> <Gold.PLP.Chemscore.CHOScore>
0.0000

> <Gold.PLP.Chemscore.Metal>
0.0000

> <Gold.Chemscore.Hbonds>
donor molecule, donor type, donor heavy atom, donor atom, acceptor molecule, acceptor atom, score
      P1  H  7989  7998       L1    19  0.96
      P1  H  7997  8008       L1     4  1.00

> <Gold.PLP.Chemscore.Internal.Correction>
0.1048

> <Gold.Rescore>
     Score         DG    S(hbond)    S(metal)    S(lipo)     H(rot)  DE(clash)    DE(int)     intcor
     16.25     -18.45       1.85        0.00      99.24       1.89       0.14       2.06       ----

> <Gold.Chemscore.Fitness>
16.2471

> <Gold.Chemscore.DG>
-18.4474

> <Gold.Chemscore.ZeroCoef>
-5.4800

> <Gold.Chemscore.Hbond>
1.8521

> <Gold.Chemscore.Metal>
0.0000

> <Gold.Chemscore.Lipo>
99.2381

> <Gold.Chemscore.Internal_Hbond>
0.0000

> <Gold.Chemscore.DEClash>
0.1375

> <Gold.Chemscore.DEInternal>
2.0628

> <Gold.Chemscore.Rot>
1.8865

> <Gold.Chemscore.Internal.Correction>
   9.000000E+99

> <Gold.Chemscore.Hbonds>
donor molecule, donor type, donor heavy atom, donor atom, acceptor molecule, acceptor atom, score
      P1  H  7989  7998       L1    19  0.91
      P1  H  7997  8008       L1     4  0.64

> <Gold.Chemscore.Hbond.Weighted>
-6.1861

> <Gold.Chemscore.Metal.Weighted>
-0.0000

> <Gold.Chemscore.Lipo.Weighted>
-11.6109

> <Gold.Chemscore.Internal_Hbond.Weighted>
0.0000

> <Gold.Chemscore.DEClash.Weighted>
0.1375

> <Gold.Chemscore.DEInternal.Weighted>
2.0628

> <Gold.Chemscore.Rot.Weighted>
4.8295

> <Gold.Chemscore.Internal.Correction.Weighted>
   9.000000E+99

> <Gold.Protein.RotatedTorsions>
[ 6907 6896 6895 6894 ] final  -51.89 input  -60.11 | X-H torsion
[ 7974 7965 7964 7962 ] final  -65.20 input  175.53 | X-H torsion
[ 8008 7997 7996 7995 ] final  -69.53 input   59.86 | X-H torsion
[ 10167 10162 10161 10158 ] final   14.66 input  -65.29 | X-H torsion
[ 10718 10713 10712 10709 ] final  -81.28 input   66.30 | X-H torsion
[ 10763 10752 10751 10750 ] final -169.66 input  -60.55 | X-H torsion
[ 11005 11000 10999 10996 ] final  132.24 input  -57.11 | X-H torsion

> <Gold.Protein.ActiveResidues>
 VAL166  LYS551  ARG553  GLY616  TRP617  ASP618  TYR619  PRO620  LYS621  CYS622 
 ASP623  PHE694  ASN695  SER759  ASP760  ASP761  ALA762  ILE779  LEU786  VAL792 
 PHE793  MET794  SER795  GLU796  ALA797  LYS798  CYS799  TRP800  GLU811  SER814 

> <Gold.Protein.RotatedAtoms>
  150.8569  134.7910  159.7051 H   0  0  0  0  0  0  0  0  0  0  0  0  # atno 6907 bound_to 6896
  152.4617  134.5164  159.9779 H   0  0  0  0  0  0  0  0  0  0  0  0  # atno 6908 bound_to 6896
  151.5275  133.3417  159.2948 H   0  0  0  0  0  0  0  0  0  0  0  0  # atno 6909 bound_to 6896
  145.7572  140.8879  143.0449 H   0  0  0  0  0  0  0  0  0  0  0  0  # atno 7974 bound_to 7965
  154.4945  140.0852  156.7667 H   0  0  0  0  0  0  0  0  0  0  0  0  # atno 8008 bound_to 7997
  155.4149  140.3443  155.4248 H   0  0  0  0  0  0  0  0  0  0  0  0  # atno 8009 bound_to 7997
  156.1375  140.1519  156.8959 H   0  0  0  0  0  0  0  0  0  0  0  0  # atno 8010 bound_to 7997
  140.5921  143.8775  150.6883 H   0  0  0  0  0  0  0  0  0  0  0  0  # atno 10167 bound_to 10162
  156.0053  130.4599  150.3928 H   0  0  0  0  0  0  0  0  0  0  0  0  # atno 10718 bound_to 10713
  154.6499  135.2910  155.0000 H   0  0  0  0  0  0  0  0  0  0  0  0  # atno 10763 bound_to 10752
  154.1097  135.6564  153.4886 H   0  0  0  0  0  0  0  0  0  0  0  0  # atno 10764 bound_to 10752
  153.0371  135.5262  154.7402 H   0  0  0  0  0  0  0  0  0  0  0  0  # atno 10765 bound_to 10752
  139.9778  134.9558  156.9553 H   0  0  0  0  0  0  0  0  0  0  0  0  # atno 11005 bound_to 11000
  144.6837  139.9673  143.7481 LP  0  0  0  0  0  0  0  0  0  0  0  0  # atno 17320 bound_to 7965
  146.0299  139.3326  143.0761 LP  0  0  0  0  0  0  0  0  0  0  0  0  # atno 17321 bound_to 7965
  140.2301  143.3742  152.1573 LP  0  0  0  0  0  0  0  0  0  0  0  0  # atno 17342 bound_to 10162
  139.5234  144.7071  151.5321 LP  0  0  0  0  0  0  0  0  0  0  0  0  # atno 17343 bound_to 10162
  157.2002  131.0436  151.2654 LP  0  0  0  0  0  0  0  0  0  0  0  0  # atno 17370 bound_to 10713
  157.3982  130.7319  149.6748 LP  0  0  0  0  0  0  0  0  0  0  0  0  # atno 17371 bound_to 10713
  140.5158  134.0956  155.7280 LP  0  0  0  0  0  0  0  0  0  0  0  0  # atno 17394 bound_to 11000
  141.1453  133.9065  157.2229 LP  0  0  0  0  0  0  0  0  0  0  0  0  # atno 17395 bound_to 11000

$$$$
