AV-unprocessed.smi:1047|AV-procd|sdf|4588|dock5
  -GOLD-   22720 3 63D 1   1.00000     0.00000
 Structure written by MMmdl.
 57 59  0  0  0  0  0  0  0  0  3 V2000
  143.9933  132.3028  149.6273 C   0  0  0  0  0  0  0  0  0  0  0  0
  144.2004  133.4994  150.5670 C   0  0  0  0  0  0  0  0  0  0  0  0
  145.1333  133.2658  151.6683 N   0  0  0  0  0  0  0  0  0  0  0  0
  146.4538  132.8470  151.2052 C   0  0  0  0  0  0  0  0  0  0  0  0
  147.4311  132.6392  152.3742 C   0  0  0  0  0  0  0  0  0  0  0  0
  147.5076  133.8292  153.1527 O   0  0  0  0  0  0  0  0  0  0  0  0
  146.2447  134.2389  153.6723 C   0  0  1  0  0  0  0  0  0  0  0  0
  146.4597  135.5221  154.4862 C   0  0  0  0  0  0  0  0  0  0  0  0
  146.8441  136.6488  153.6131 N   0  3  0  0  0  0  0  0  0  0  0  0
  146.9063  137.9497  154.3088 C   0  0  0  0  0  0  0  0  0  0  0  0
  147.6827  138.9991  153.4892 C   0  0  2  0  0  0  0  0  0  0  0  0
  147.6147  138.6604  152.1187 O   0  0  0  0  0  0  0  0  0  0  0  0
  149.1768  139.0996  153.8597 C   0  0  0  0  0  0  0  0  0  0  0  0
  149.4845  140.2530  154.7181 N   0  0  0  0  0  0  0  0  0  0  0  0
  148.9966  141.5227  154.6678 C   0  0  0  0  0  0  0  0  0  0  0  0
  149.5912  142.2321  155.6663 N   0  3  0  0  0  0  0  0  0  0  0  0
  150.4766  141.4063  156.3617 C   0  0  0  0  0  0  0  0  0  0  0  0
  151.3039  141.6707  157.4468 C   0  0  0  0  0  0  0  0  0  0  0  0
  152.0926  140.6033  157.9320 C   0  0  0  0  0  0  0  0  0  0  0  0
  153.0057  140.8575  159.1195 C   0  0  0  0  0  0  0  0  0  0  0  0
  152.0360  139.3210  157.3274 C   0  0  0  0  0  0  0  0  0  0  0  0
  152.8879  138.1801  157.8574 C   0  0  0  0  0  0  0  0  0  0  0  0
  151.1883  139.0724  156.2241 C   0  0  0  0  0  0  0  0  0  0  0  0
  150.4164  140.1347  155.7578 C   0  0  0  0  0  0  0  0  0  0  0  0
  145.2772  134.4607  152.4924 C   0  0  0  0  0  0  0  0  0  0  0  0
  143.2031  132.5153  148.9070 H   0  0  0  0  0  0  0  0  0  0  0  0
  143.7027  131.4110  150.1830 H   0  0  0  0  0  0  0  0  0  0  0  0
  144.8935  132.0706  149.0585 H   0  0  0  0  0  0  0  0  0  0  0  0
  144.5195  134.3660  149.9860 H   0  0  0  0  0  0  0  0  0  0  0  0
  143.2259  133.7597  150.9822 H   0  0  0  0  0  0  0  0  0  0  0  0
  146.3805  131.9160  150.6437 H   0  0  0  0  0  0  0  0  0  0  0  0
  146.8610  133.5939  150.5218 H   0  0  0  0  0  0  0  0  0  0  0  0
  147.1109  131.8057  153.0014 H   0  0  0  0  0  0  0  0  0  0  0  0
  148.4244  132.3944  151.9983 H   0  0  0  0  0  0  0  0  0  0  0  0
  145.8480  133.4577  154.3236 H   0  0  0  0  0  0  0  0  0  0  0  0
  145.5521  135.7733  155.0369 H   0  0  0  0  0  0  0  0  0  0  0  0
  147.2504  135.3677  155.2218 H   0  0  0  0  0  0  0  0  0  0  0  0
  147.7501  136.4515  153.2126 H   0  0  0  0  0  0  0  0  0  0  0  0
  145.8808  138.2834  154.4674 H   0  0  0  0  0  0  0  0  0  0  0  0
  147.3567  137.8231  155.2944 H   0  0  0  0  0  0  0  0  0  0  0  0
  147.2225  139.9795  153.6208 H   0  0  0  0  0  0  0  0  0  0  0  0
  148.2419  139.1801  151.6396 H   0  0  0  0  0  0  0  0  0  0  0  0
  149.5279  138.1859  154.3392 H   0  0  0  0  0  0  0  0  0  0  0  0
  149.7751  139.2130  152.9543 H   0  0  0  0  0  0  0  0  0  0  0  0
  148.2705  141.9006  153.9620 H   0  0  0  0  0  0  0  0  0  0  0  0
  151.3427  142.6500  157.9015 H   0  0  0  0  0  0  0  0  0  0  0  0
  152.7670  140.1793  159.9391 H   0  0  0  0  0  0  0  0  0  0  0  0
  152.9022  141.8773  159.4921 H   0  0  0  0  0  0  0  0  0  0  0  0
  154.0487  140.7092  158.8386 H   0  0  0  0  0  0  0  0  0  0  0  0
  152.7670  137.2785  157.2561 H   0  0  0  0  0  0  0  0  0  0  0  0
  152.6061  137.9379  158.8825 H   0  0  0  0  0  0  0  0  0  0  0  0
  153.9443  138.4493  157.8424 H   0  0  0  0  0  0  0  0  0  0  0  0
  151.1470  138.0935  155.7701 H   0  0  0  0  0  0  0  0  0  0  0  0
  145.6358  135.2897  151.8794 H   0  0  0  0  0  0  0  0  0  0  0  0
  144.3019  134.7596  152.8784 H   0  0  0  0  0  0  0  0  0  0  0  0
  146.1678  136.7152  152.8656 H   0  0  0  0  0  0  0  0  0  0  0  0
  149.4083  143.2097  155.8546 H   0  0  0  0  0  0  0  0  0  0  0  0
  1  2  1  0  0  0  0
  1 26  1  0  0  0  0
  1 27  1  0  0  0  0
  1 28  1  0  0  0  0
  2  3  1  0  0  0  0
  2 29  1  0  0  0  0
  2 30  1  0  0  0  0
  3 25  1  0  0  0  0
  3  4  1  0  0  0  0
  4  5  1  0  0  0  0
  4 31  1  0  0  0  0
  4 32  1  0  0  0  0
  5  6  1  0  0  0  0
  5 33  1  0  0  0  0
  5 34  1  0  0  0  0
  6  7  1  0  0  0  0
  7  8  1  0  0  0  0
  7 25  1  0  0  0  0
  7 35  1  0  0  0  0
  8  9  1  0  0  0  0
  8 36  1  0  0  0  0
  8 37  1  0  0  0  0
  9 10  1  0  0  0  0
  9 38  1  0  0  0  0
  9 56  1  0  0  0  0
 10 11  1  0  0  0  0
 10 39  1  0  0  0  0
 10 40  1  0  0  0  0
 11 12  1  0  0  0  0
 11 13  1  0  0  0  0
 11 41  1  0  0  0  0
 12 42  1  0  0  0  0
 13 14  1  0  0  0  0
 13 43  1  0  0  0  0
 13 44  1  0  0  0  0
 14 24  1  0  0  0  0
 14 15  1  0  0  0  0
 15 16  2  0  0  0  0
 15 45  1  0  0  0  0
 16 17  1  0  0  0  0
 16 57  1  0  0  0  0
 17 24  2  0  0  0  0
 17 18  1  0  0  0  0
 18 19  2  0  0  0  0
 18 46  1  0  0  0  0
 19 20  1  0  0  0  0
 19 21  1  0  0  0  0
 20 47  1  0  0  0  0
 20 48  1  0  0  0  0
 20 49  1  0  0  0  0
 21 22  1  0  0  0  0
 21 23  2  0  0  0  0
 22 50  1  0  0  0  0
 22 51  1  0  0  0  0
 22 52  1  0  0  0  0
 23 24  1  0  0  0  0
 23 53  1  0  0  0  0
 25 54  1  0  0  0  0
 25 55  1  0  0  0  0
M  CHG  1   9   1
M  CHG  1  16   1
M  END
> <s_m_source_file>
AV-unprocessed.smi

> <i_m_source_file_index>
1047

> <i_lp_mmshare_version>
43012

> <i_f3d_flags>
0

> <s_epik_input>
W0NIM11bQ0gyXU4xW0NIMl1bQ0gyXU9bQ0BIXShbQ0gyXTEpW0NIMl1bTkhdW0NIMl1bQ0BIXShbT0hdKVtDSDJdbihbY0hdbjIpYyhjMjMpW2NIXWMoW0NIM10pYyhbY0hdMylbQ0gzXQ==

> <s_epik_cmdline>
J2VwaWtfcHl0aG9uJywgJy1waCcsICc3LjAnLCAnLXRuJywgJzgnLCAnLW1hJywgJzIwMCcsICctbWV0YWxfYmluZGluZycsICctaW1hZScsICc8aW5maWxlLm1hZT4nLCAnLW9tYWUnLCAnPG91dGZpbGUubWFlPic=

> <r_epik_Ionization_Penalty>
1.75732

> <r_epik_Ionization_Penalty_Charging>
1.18089

> <r_epik_Ionization_Penalty_Neutral>
0.576429

> <r_epik_State_Penalty>
1.69377

> <r_epik_Charging_Adjusted_Penalty>
2.87466

> <i_epik_Tot_Q>
2

> <i_epik_Tot_abs_Q>
2

> <r_epik_Metal_State_Penalty>
5.70174

> <b_epik_Metal_Only>
0

> <s_lp_Force_Field>
OPLS_2005

> <r_lp_Energy>
42.0789

> <b_lp_Chiralities_Consistent>
1

> <s_lp_Variant>
AV-unprocessed.smi:1047-29

> <Gold.Version>
5.8.1

> <Gold.Id.Protein>
6NUR|6NUR_protein|mol2

> <Gold.PLP.Fitness>
53.3079

> <Gold.PLP.PLP>
-41.0978

> <Gold.PLP.part.hbond>
-4.0322

> <Gold.PLP.part.metal>
0.0000

> <Gold.PLP.part.buried>
-4.0307

> <Gold.PLP.part.nonpolar>
-34.6819

> <Gold.PLP.part.repulsive>
0.4388

> <Gold.PLP.ligand.clash>
0.0000

> <Gold.PLP.ligand.torsion>
1.4594

> <Gold.PLP.Chemscore.Hbond>
5.0000

> <Gold.PLP.Chemscore.CHOScore>
0.0000

> <Gold.PLP.Chemscore.Metal>
0.0000

> <Gold.Chemscore.Hbonds>
donor molecule, donor type, donor heavy atom, donor atom, acceptor molecule, acceptor atom, score
      L1  H     9    38       P1  7948  2.00
      L1  H    12    42       P1  7957  1.00
      L1  H    16    57       P1  8028  2.00

> <Gold.PLP.Chemscore.Internal.Correction>
0.1288

> <Gold.Rescore>
     Score         DG    S(hbond)    S(metal)    S(lipo)     H(rot)  DE(clash)    DE(int)     intcor
     18.11     -19.97       2.93        0.00      99.22       2.69       0.45       1.41       ----

> <Gold.Chemscore.Fitness>
18.1088

> <Gold.Chemscore.DG>
-19.9729

> <Gold.Chemscore.ZeroCoef>
-5.4800

> <Gold.Chemscore.Hbond>
2.9266

> <Gold.Chemscore.Metal>
0.0000

> <Gold.Chemscore.Lipo>
99.2202

> <Gold.Chemscore.Internal_Hbond>
0.0000

> <Gold.Chemscore.DEClash>
0.4535

> <Gold.Chemscore.DEInternal>
1.4106

> <Gold.Chemscore.Rot>
2.6917

> <Gold.Chemscore.Internal.Correction>
   9.000000E+99

> <Gold.Chemscore.Hbonds>
donor molecule, donor type, donor heavy atom, donor atom, acceptor molecule, acceptor atom, score
      L1  H     9    38       P1  7948  0.98
      L1  H    12    42       P1  7957  0.94
      L1  H    16    57       P1  8028  0.98

> <Gold.Chemscore.Hbond.Weighted>
-9.7748

> <Gold.Chemscore.Metal.Weighted>
-0.0000

> <Gold.Chemscore.Lipo.Weighted>
-11.6088

> <Gold.Chemscore.Internal_Hbond.Weighted>
0.0000

> <Gold.Chemscore.DEClash.Weighted>
0.4535

> <Gold.Chemscore.DEInternal.Weighted>
1.4106

> <Gold.Chemscore.Rot.Weighted>
6.8907

> <Gold.Chemscore.Internal.Correction.Weighted>
   9.000000E+99

> <Gold.Protein.RotatedTorsions>
[ 6907 6896 6895 6894 ] final  159.30 input  -60.11 | X-H torsion
[ 7974 7965 7964 7962 ] final    1.46 input  175.53 | X-H torsion
[ 8008 7997 7996 7995 ] final -174.05 input   59.86 | X-H torsion
[ 10167 10162 10161 10158 ] final   80.90 input  -65.29 | X-H torsion
[ 10718 10713 10712 10709 ] final   69.02 input   66.30 | X-H torsion
[ 10763 10752 10751 10750 ] final   19.26 input  -60.55 | X-H torsion
[ 11005 11000 10999 10996 ] final  -61.33 input  -57.11 | X-H torsion

> <Gold.Protein.ActiveResidues>
 VAL166  LYS551  ARG553  GLY616  TRP617  ASP618  TYR619  PRO620  LYS621  CYS622 
 ASP623  PHE694  ASN695  SER759  ASP760  ASP761  ALA762  ILE779  LEU786  VAL792 
 PHE793  MET794  SER795  GLU796  ALA797  LYS798  CYS799  TRP800  GLU811  SER814 

> <Gold.Protein.RotatedAtoms>
  151.9876  133.3779  159.4131 H   0  0  0  0  0  0  0  0  0  0  0  0  # atno 6907 bound_to 6896
  150.6926  134.3971  159.5111 H   0  0  0  0  0  0  0  0  0  0  0  0  # atno 6908 bound_to 6896
  152.1699  134.8842  160.0586 H   0  0  0  0  0  0  0  0  0  0  0  0  # atno 6909 bound_to 6896
  146.2440  140.0983  142.8349 H   0  0  0  0  0  0  0  0  0  0  0  0  # atno 7974 bound_to 7965
  155.9652  140.1152  157.0861 H   0  0  0  0  0  0  0  0  0  0  0  0  # atno 8008 bound_to 7997
  154.4142  140.1174  156.5299 H   0  0  0  0  0  0  0  0  0  0  0  0  # atno 8009 bound_to 7997
  155.6669  140.3473  155.4806 H   0  0  0  0  0  0  0  0  0  0  0  0  # atno 8010 bound_to 7997
  139.9449  144.6065  150.8216 H   0  0  0  0  0  0  0  0  0  0  0  0  # atno 10167 bound_to 10162
  157.6322  130.9404  150.0456 H   0  0  0  0  0  0  0  0  0  0  0  0  # atno 10718 bound_to 10713
  153.1177  135.6712  153.9389 H   0  0  0  0  0  0  0  0  0  0  0  0  # atno 10763 bound_to 10752
  153.8913  135.3046  155.3449 H   0  0  0  0  0  0  0  0  0  0  0  0  # atno 10764 bound_to 10752
  154.7592  135.4996  153.9511 H   0  0  0  0  0  0  0  0  0  0  0  0  # atno 10765 bound_to 10752
  141.1320  133.6629  156.5358 H   0  0  0  0  0  0  0  0  0  0  0  0  # atno 11005 bound_to 11000
  145.0590  140.9074  143.4950 LP  0  0  0  0  0  0  0  0  0  0  0  0  # atno 17320 bound_to 7965
  145.1095  139.2767  143.5644 LP  0  0  0  0  0  0  0  0  0  0  0  0  # atno 17321 bound_to 7965
  140.7600  143.3141  151.2774 LP  0  0  0  0  0  0  0  0  0  0  0  0  # atno 17342 bound_to 10162
  139.6675  144.0079  152.2732 LP  0  0  0  0  0  0  0  0  0  0  0  0  # atno 17343 bound_to 10162
  156.1534  130.3643  149.9405 LP  0  0  0  0  0  0  0  0  0  0  0  0  # atno 17370 bound_to 10713
  156.7419  130.9083  151.3632 LP  0  0  0  0  0  0  0  0  0  0  0  0  # atno 17371 bound_to 10713
  140.4179  134.7214  157.4873 LP  0  0  0  0  0  0  0  0  0  0  0  0  # atno 17394 bound_to 11000
  140.0381  134.6308  155.9017 LP  0  0  0  0  0  0  0  0  0  0  0  0  # atno 17395 bound_to 11000

$$$$
