AV-unprocessed.smi:1867|AV-procd|sdf|7571|dock2
  -GOLD-   22720 9283D 1   1.00000     0.00000
 Structure written by MMmdl.
 53 56  0  0  0  0  0  0  0  0  3 V2000
  146.5308  139.4924  153.7683 O   0  0  0  0  0  0  0  0  0  0  0  0
  147.3917  138.7849  153.2514 C   0  0  0  0  0  0  0  0  0  0  0  0
  148.7165  138.9000  153.4720 N   0  0  0  0  0  0  0  0  0  0  0  0
  149.4009  139.7976  154.3363 C   0  0  0  0  0  0  0  0  0  0  0  0
  150.5378  139.3133  155.0175 C   0  0  0  0  0  0  0  0  0  0  0  0
  151.2437  140.1602  155.8962 C   0  0  0  0  0  0  0  0  0  0  0  0
  150.7992  141.4879  156.0975 C   0  0  0  0  0  0  0  0  0  0  0  0
  151.4551  142.3910  156.9552 N   0  0  0  0  0  0  0  0  0  0  0  0
  151.1680  143.8161  156.9249 C   0  0  0  0  0  0  0  0  0  0  0  0
  151.9580  144.3923  158.0987 C   0  0  0  0  0  0  0  0  0  0  0  0
  151.9354  143.2565  159.1220 C   0  0  0  0  0  0  0  0  0  0  0  0
  151.9318  141.9822  158.2691 C   0  0  0  0  0  0  0  0  0  0  0  0
  149.6993  141.9085  155.4286 N   0  3  0  0  0  0  0  0  0  0  0  0
  148.9948  141.1322  154.5774 C   0  0  0  0  0  0  0  0  0  0  0  0
  147.0600  137.8251  152.3691 N   0  0  0  0  0  0  0  0  0  0  0  0
  145.7246  137.4389  151.9068 C   0  0  1  0  0  0  0  0  0  0  0  0
  145.7320  136.1669  151.0681 C   0  0  0  0  0  0  0  0  0  0  0  0
  144.2715  135.7080  151.1178 C   0  0  0  0  0  0  0  0  0  0  0  0
  143.7022  136.2275  152.3852 N   0  3  1  0  0  0  0  0  0  0  0  0
  143.1210  135.1757  153.2620 C   0  0  0  0  0  0  0  0  0  0  0  0
  142.9047  135.7068  154.6868 C   0  0  0  0  0  0  0  0  0  0  0  0
  144.2343  136.1270  155.3413 C   0  0  0  0  0  0  0  0  0  0  0  0
  145.3215  136.4661  154.3038 C   0  0  0  0  0  0  0  0  0  0  0  0
  144.7200  137.1071  153.0289 C   0  0  1  0  0  0  0  0  0  0  0  0
  149.3084  138.2940  152.9234 H   0  0  0  0  0  0  0  0  0  0  0  0
  150.8757  138.2985  154.8655 H   0  0  0  0  0  0  0  0  0  0  0  0
  152.1205  139.7824  156.4013 H   0  0  0  0  0  0  0  0  0  0  0  0
  151.4650  144.2685  155.9781 H   0  0  0  0  0  0  0  0  0  0  0  0
  150.0979  143.9755  157.0658 H   0  0  0  0  0  0  0  0  0  0  0  0
  152.9858  144.5900  157.7914 H   0  0  0  0  0  0  0  0  0  0  0  0
  151.5353  145.3221  158.4801 H   0  0  0  0  0  0  0  0  0  0  0  0
  152.7720  143.2959  159.8200 H   0  0  0  0  0  0  0  0  0  0  0  0
  151.0134  143.3095  159.7024 H   0  0  0  0  0  0  0  0  0  0  0  0
  151.3004  141.2151  158.7186 H   0  0  0  0  0  0  0  0  0  0  0  0
  152.9411  141.5816  158.1686 H   0  0  0  0  0  0  0  0  0  0  0  0
  148.1342  141.6134  154.1382 H   0  0  0  0  0  0  0  0  0  0  0  0
  147.8289  137.3161  151.9566 H   0  0  0  0  0  0  0  0  0  0  0  0
  145.3125  138.2359  151.2843 H   0  0  0  0  0  0  0  0  0  0  0  0
  146.0880  136.3299  150.0501 H   0  0  0  0  0  0  0  0  0  0  0  0
  146.3708  135.4123  151.5301 H   0  0  0  0  0  0  0  0  0  0  0  0
  143.7127  136.1527  150.2938 H   0  0  0  0  0  0  0  0  0  0  0  0
  144.1870  134.6249  151.0192 H   0  0  0  0  0  0  0  0  0  0  0  0
  142.1785  134.8358  152.8316 H   0  0  0  0  0  0  0  0  0  0  0  0
  143.7821  134.3080  153.2996 H   0  0  0  0  0  0  0  0  0  0  0  0
  142.2311  136.5640  154.6463 H   0  0  0  0  0  0  0  0  0  0  0  0
  142.4066  134.9578  155.3034 H   0  0  0  0  0  0  0  0  0  0  0  0
  144.0547  136.9857  155.9892 H   0  0  0  0  0  0  0  0  0  0  0  0
  144.6011  135.3307  155.9898 H   0  0  0  0  0  0  0  0  0  0  0  0
  146.0586  137.1224  154.7666 H   0  0  0  0  0  0  0  0  0  0  0  0
  145.8565  135.5554  154.0306 H   0  0  0  0  0  0  0  0  0  0  0  0
  144.2185  138.0269  153.3334 H   0  0  0  0  0  0  0  0  0  0  0  0
  142.9390  136.8348  152.1227 H   0  0  0  0  0  0  0  0  0  0  0  0
  149.3811  142.8662  155.5780 H   0  0  0  0  0  0  0  0  0  0  0  0
  1  2  2  0  0  0  0
  2  3  1  0  0  0  0
  2 15  1  0  0  0  0
  3  4  1  0  0  0  0
  3 25  1  0  0  0  0
  4 14  1  0  0  0  0
  4  5  2  0  0  0  0
  5  6  1  0  0  0  0
  5 26  1  0  0  0  0
  6  7  2  0  0  0  0
  6 27  1  0  0  0  0
  7  8  1  0  0  0  0
  7 13  1  0  0  0  0
  8 12  1  0  0  0  0
  8  9  1  0  0  0  0
  9 10  1  0  0  0  0
  9 28  1  0  0  0  0
  9 29  1  0  0  0  0
 10 11  1  0  0  0  0
 10 30  1  0  0  0  0
 10 31  1  0  0  0  0
 11 12  1  0  0  0  0
 11 32  1  0  0  0  0
 11 33  1  0  0  0  0
 12 34  1  0  0  0  0
 12 35  1  0  0  0  0
 13 14  2  0  0  0  0
 13 53  1  0  0  0  0
 14 36  1  0  0  0  0
 15 16  1  0  0  0  0
 15 37  1  0  0  0  0
 16 24  1  0  0  0  0
 16 17  1  0  0  0  0
 16 38  1  0  0  0  0
 17 18  1  0  0  0  0
 17 39  1  0  0  0  0
 17 40  1  0  0  0  0
 18 19  1  0  0  0  0
 18 41  1  0  0  0  0
 18 42  1  0  0  0  0
 19 24  1  0  0  0  0
 19 20  1  0  0  0  0
 19 52  1  0  0  0  0
 20 21  1  0  0  0  0
 20 43  1  0  0  0  0
 20 44  1  0  0  0  0
 21 22  1  0  0  0  0
 21 45  1  0  0  0  0
 21 46  1  0  0  0  0
 22 23  1  0  0  0  0
 22 47  1  0  0  0  0
 22 48  1  0  0  0  0
 23 24  1  0  0  0  0
 23 49  1  0  0  0  0
 23 50  1  0  0  0  0
 24 51  1  0  0  0  0
M  CHG  1  13   1
M  CHG  1  19   1
M  END
> <s_m_source_file>
AV-unprocessed.smi

> <i_m_source_file_index>
1867

> <i_lp_mmshare_version>
43012

> <i_f3d_flags>
0

> <s_epik_input>
W0NIMl0xW0NIMl1bQ0gyXVtDSDJdW0NASF0oTjEyKVtDQEBIXShbQ0gyXVtDSDJdMilbTkhdQyg9TylbTkhdYzNbY0hdW2NIXWMobltjSF0zKU40W0NIMl1bQ0gyXVtDSDJdW0NIMl00

> <s_epik_cmdline>
J2VwaWtfcHl0aG9uJywgJy1waCcsICc3LjAnLCAnLXRuJywgJzgnLCAnLW1hJywgJzIwMCcsICctbWV0YWxfYmluZGluZycsICctaW1hZScsICc8aW5maWxlLm1hZT4nLCAnLW9tYWUnLCAnPG91dGZpbGUubWFlPic=

> <r_lp_tautomer_probability>
0.999994

> <r_epik_Ionization_Penalty>
1.27347

> <r_epik_Ionization_Penalty_Charging>
1.27345

> <r_epik_Ionization_Penalty_Neutral>
1.96458e-05

> <r_epik_State_Penalty>
1.34393

> <r_epik_Charging_Adjusted_Penalty>
2.61738

> <i_epik_Tot_Q>
2

> <i_epik_Tot_abs_Q>
2

> <r_epik_Metal_State_Penalty>
1.41094

> <b_epik_Metal_Only>
0

> <s_lp_Force_Field>
OPLS_2005

> <r_lp_Energy>
85.1711

> <b_lp_Chiralities_Consistent>
1

> <s_lp_Variant>
AV-unprocessed.smi:1867-12

> <Gold.Version>
5.8.1

> <Gold.Id.Protein>
6NUR|6NUR_protein|mol2

> <Gold.PLP.Fitness>
50.9755

> <Gold.PLP.PLP>
-42.5891

> <Gold.PLP.part.hbond>
-3.6780

> <Gold.PLP.part.metal>
0.0000

> <Gold.PLP.part.buried>
-1.2054

> <Gold.PLP.part.nonpolar>
-39.1604

> <Gold.PLP.part.repulsive>
0.4977

> <Gold.PLP.ligand.clash>
0.0000

> <Gold.PLP.ligand.torsion>
0.7152

> <Gold.PLP.Chemscore.Hbond>
3.2059

> <Gold.PLP.Chemscore.CHOScore>
0.0000

> <Gold.PLP.Chemscore.Metal>
0.0000

> <Gold.Chemscore.Hbonds>
donor molecule, donor type, donor heavy atom, donor atom, acceptor molecule, acceptor atom, score
      L1  H     3    25       P1  7948  0.21
      L1  H    13    53       P1  8028  2.00
      L1  H    15    37       P1  7948  1.00

> <Gold.PLP.Chemscore.Internal.Correction>
0.1990

> <Gold.Rescore>
     Score         DG    S(hbond)    S(metal)    S(lipo)     H(rot)  DE(clash)    DE(int)     intcor
     19.89     -21.42       1.99        0.00     101.40       1.00       0.41       1.13       ----

> <Gold.Chemscore.Fitness>
19.8851

> <Gold.Chemscore.DG>
-21.4201

> <Gold.Chemscore.ZeroCoef>
-5.4800

> <Gold.Chemscore.Hbond>
1.9870

> <Gold.Chemscore.Metal>
0.0000

> <Gold.Chemscore.Lipo>
101.3987

> <Gold.Chemscore.Internal_Hbond>
0.0000

> <Gold.Chemscore.DEClash>
0.4099

> <Gold.Chemscore.DEInternal>
1.1251

> <Gold.Chemscore.Rot>
1.0000

> <Gold.Chemscore.Internal.Correction>
   9.000000E+99

> <Gold.Chemscore.Hbonds>
donor molecule, donor type, donor heavy atom, donor atom, acceptor molecule, acceptor atom, score
      L1  H     3    25       P1  7948  0.20
      L1  H    13    53       P1  8028  1.00
      L1  H    15    37       P1  7948  0.94

> <Gold.Chemscore.Hbond.Weighted>
-6.6364

> <Gold.Chemscore.Metal.Weighted>
-0.0000

> <Gold.Chemscore.Lipo.Weighted>
-11.8637

> <Gold.Chemscore.Internal_Hbond.Weighted>
0.0000

> <Gold.Chemscore.DEClash.Weighted>
0.4099

> <Gold.Chemscore.DEInternal.Weighted>
1.1251

> <Gold.Chemscore.Rot.Weighted>
2.5600

> <Gold.Chemscore.Internal.Correction.Weighted>
   9.000000E+99

> <Gold.Protein.RotatedTorsions>
[ 6907 6896 6895 6894 ] final   63.83 input  -60.11 | X-H torsion
[ 7974 7965 7964 7962 ] final  -93.10 input  175.53 | X-H torsion
[ 8008 7997 7996 7995 ] final  105.08 input   59.86 | X-H torsion
[ 10167 10162 10161 10158 ] final -131.87 input  -65.29 | X-H torsion
[ 10718 10713 10712 10709 ] final  -56.09 input   66.30 | X-H torsion
[ 10763 10752 10751 10750 ] final  118.84 input  -60.55 | X-H torsion
[ 11005 11000 10999 10996 ] final -146.20 input  -57.11 | X-H torsion

> <Gold.Protein.ActiveResidues>
 VAL166  LYS551  ARG553  GLY616  TRP617  ASP618  TYR619  PRO620  LYS621  CYS622 
 ASP623  PHE694  ASN695  SER759  ASP760  ASP761  ALA762  ILE779  LEU786  VAL792 
 PHE793  MET794  SER795  GLU796  ALA797  LYS798  CYS799  TRP800  GLU811  SER814 

> <Gold.Protein.RotatedAtoms>
  152.4284  134.5825  159.9951 H   0  0  0  0  0  0  0  0  0  0  0  0  # atno 6907 bound_to 6896
  151.5955  133.3356  159.3044 H   0  0  0  0  0  0  0  0  0  0  0  0  # atno 6908 bound_to 6896
  150.8175  134.7401  159.6808 H   0  0  0  0  0  0  0  0  0  0  0  0  # atno 6909 bound_to 6896
  145.3910  140.9528  143.2340 H   0  0  0  0  0  0  0  0  0  0  0  0  # atno 7974 bound_to 7965
  156.1628  140.3136  155.8837 H   0  0  0  0  0  0  0  0  0  0  0  0  # atno 8008 bound_to 7997
  155.3746  140.0484  157.3062 H   0  0  0  0  0  0  0  0  0  0  0  0  # atno 8009 bound_to 7997
  154.5163  140.2182  155.9070 H   0  0  0  0  0  0  0  0  0  0  0  0  # atno 8010 bound_to 7997
  139.9145  143.6455  152.2568 H   0  0  0  0  0  0  0  0  0  0  0  0  # atno 10167 bound_to 10162
  156.1316  130.4159  150.0259 H   0  0  0  0  0  0  0  0  0  0  0  0  # atno 10718 bound_to 10713
  153.5738  135.3497  155.2848 H   0  0  0  0  0  0  0  0  0  0  0  0  # atno 10763 bound_to 10752
  154.8678  135.4166  154.2695 H   0  0  0  0  0  0  0  0  0  0  0  0  # atno 10764 bound_to 10752
  153.3467  135.7053  153.6892 H   0  0  0  0  0  0  0  0  0  0  0  0  # atno 10765 bound_to 10752
  140.7844  134.3042  157.5035 H   0  0  0  0  0  0  0  0  0  0  0  0  # atno 11005 bound_to 11000
  144.8440  139.5426  143.6887 LP  0  0  0  0  0  0  0  0  0  0  0  0  # atno 17320 bound_to 7965
  146.2797  139.6846  142.9237 LP  0  0  0  0  0  0  0  0  0  0  0  0  # atno 17321 bound_to 7965
  139.6914  144.7646  151.1432 LP  0  0  0  0  0  0  0  0  0  0  0  0  # atno 17342 bound_to 10162
  140.7677  143.5584  150.9127 LP  0  0  0  0  0  0  0  0  0  0  0  0  # atno 17343 bound_to 10162
  156.8170  130.9345  151.3642 LP  0  0  0  0  0  0  0  0  0  0  0  0  # atno 17370 bound_to 10713
  157.6493  130.8871  149.9601 LP  0  0  0  0  0  0  0  0  0  0  0  0  # atno 17371 bound_to 10713
  139.8738  134.9337  156.3588 LP  0  0  0  0  0  0  0  0  0  0  0  0  # atno 17394 bound_to 11000
  140.9451  133.7488  156.0198 LP  0  0  0  0  0  0  0  0  0  0  0  0  # atno 17395 bound_to 11000

$$$$
