AV-unprocessed.smi:1158|AV-procd|sdf|4911|dock5
  -GOLD-   22720 3493D 1   1.00000     0.00000
 Structure written by MMmdl.
 42 43  0  0  0  0  0  0  0  0  1 V2000
  146.5737  132.9968  151.1325 C   0  0  0  0  0  0  0  0  0  0  0  0
  147.4413  133.4332  152.1733 O   0  0  0  0  0  0  0  0  0  0  0  0
  148.1016  132.4801  152.9253 C   0  0  0  0  0  0  0  0  0  0  0  0
  147.7187  131.1843  152.8025 N   0  0  0  0  0  0  0  0  0  0  0  0
  148.3644  130.2512  153.5314 C   0  0  0  0  0  0  0  0  0  0  0  0
  149.4217  130.5549  154.4078 C   0  0  0  0  0  0  0  0  0  0  0  0
  149.8219  131.8976  154.5363 C   0  0  0  0  0  0  0  0  0  0  0  0
  149.1433  132.8921  153.7898 C   0  0  0  0  0  0  0  0  0  0  0  0
  149.4691  134.2769  153.8302 N   0  0  0  0  0  0  0  0  0  0  0  0
  150.2215  134.9445  154.7216 C   0  0  0  0  0  0  0  0  0  0  0  0
  150.7819  134.4489  155.6988 O   0  0  0  0  0  0  0  0  0  0  0  0
  150.2790  136.2495  154.4204 N   0  0  0  0  0  0  0  0  0  0  0  0
  151.0080  137.2590  155.1826 C   0  0  0  0  0  0  0  0  0  0  0  0
  150.3996  137.3967  156.5852 C   0  0  0  0  0  0  0  0  0  0  0  0
  151.0620  138.5469  157.3632 C   0  0  0  0  0  0  0  0  0  0  0  0
  150.9053  139.8130  156.6428 N   0  0  0  0  0  0  0  0  0  0  0  0
  151.4707  140.8893  157.4562 C   0  0  0  0  0  0  0  0  0  0  0  0
  150.8180  142.2519  157.1666 C   0  0  0  0  0  0  0  0  0  0  0  0
  149.5942  142.3092  157.6919 F   0  0  0  0  0  0  0  0  0  0  0  0
  151.5619  143.2211  157.6977 F   0  0  0  0  0  0  0  0  0  0  0  0
  151.5850  139.7254  155.3461 C   0  0  0  0  0  0  0  0  0  0  0  0
  150.9513  138.6242  154.4773 C   0  0  0  0  0  0  0  0  0  0  0  0
  146.1395  133.8652  150.6373 H   0  0  0  0  0  0  0  0  0  0  0  0
  145.7524  132.3944  151.5231 H   0  0  0  0  0  0  0  0  0  0  0  0
  147.1136  132.4222  150.3785 H   0  0  0  0  0  0  0  0  0  0  0  0
  148.0317  129.2313  153.4078 H   0  0  0  0  0  0  0  0  0  0  0  0
  149.9177  129.7747  154.9661 H   0  0  0  0  0  0  0  0  0  0  0  0
  150.6457  132.1299  155.1923 H   0  0  0  0  0  0  0  0  0  0  0  0
  149.0221  134.8405  153.1218 H   0  0  0  0  0  0  0  0  0  0  0  0
  149.7846  136.5699  153.6007 H   0  0  0  0  0  0  0  0  0  0  0  0
  152.0510  136.9540  155.2896 H   0  0  0  0  0  0  0  0  0  0  0  0
  149.3264  137.5804  156.5126 H   0  0  0  0  0  0  0  0  0  0  0  0
  150.5177  136.4633  157.1368 H   0  0  0  0  0  0  0  0  0  0  0  0
  150.5959  138.6243  158.3463 H   0  0  0  0  0  0  0  0  0  0  0  0
  152.1200  138.3349  157.5266 H   0  0  0  0  0  0  0  0  0  0  0  0
  151.3096  140.6597  158.5105 H   0  0  0  0  0  0  0  0  0  0  0  0
  152.5509  140.9433  157.3108 H   0  0  0  0  0  0  0  0  0  0  0  0
  150.7356  142.4725  156.1032 H   0  0  0  0  0  0  0  0  0  0  0  0
  151.5066  140.6711  154.8121 H   0  0  0  0  0  0  0  0  0  0  0  0
  152.6485  139.5275  155.4902 H   0  0  0  0  0  0  0  0  0  0  0  0
  151.4666  138.5734  153.5175 H   0  0  0  0  0  0  0  0  0  0  0  0
  149.9155  138.8890  154.2584 H   0  0  0  0  0  0  0  0  0  0  0  0
  1  2  1  0  0  0  0
  1 23  1  0  0  0  0
  1 24  1  0  0  0  0
  1 25  1  0  0  0  0
  2  3  1  0  0  0  0
  3  8  1  0  0  0  0
  3  4  2  0  0  0  0
  4  5  1  0  0  0  0
  5  6  2  0  0  0  0
  5 26  1  0  0  0  0
  6  7  1  0  0  0  0
  6 27  1  0  0  0  0
  7  8  2  0  0  0  0
  7 28  1  0  0  0  0
  8  9  1  0  0  0  0
  9 10  1  0  0  0  0
  9 29  1  0  0  0  0
 10 11  2  0  0  0  0
 10 12  1  0  0  0  0
 12 13  1  0  0  0  0
 12 30  1  0  0  0  0
 13 22  1  0  0  0  0
 13 14  1  0  0  0  0
 13 31  1  0  0  0  0
 14 15  1  0  0  0  0
 14 32  1  0  0  0  0
 14 33  1  0  0  0  0
 15 16  1  0  0  0  0
 15 34  1  0  0  0  0
 15 35  1  0  0  0  0
 16 17  1  0  0  0  0
 16 21  1  0  0  0  0
 17 18  1  0  0  0  0
 17 36  1  0  0  0  0
 17 37  1  0  0  0  0
 18 19  1  0  0  0  0
 18 20  1  0  0  0  0
 18 38  1  0  0  0  0
 21 22  1  0  0  0  0
 21 39  1  0  0  0  0
 21 40  1  0  0  0  0
 22 41  1  0  0  0  0
 22 42  1  0  0  0  0
M  END
> <s_m_source_file>
AV-unprocessed.smi

> <i_m_source_file_index>
1158

> <i_lp_mmshare_version>
43012

> <i_f3d_flags>
0

> <s_epik_input>
W0NIM11PYzFuW2NIXVtjSF1bY0hdYzFbTkhdQyg9TylbTkhdW0NIXTJbQ0gyXVtDSDJdTihbQ0gyXVtDSF0oRilGKVtDSDJdW0NIMl0y

> <s_epik_cmdline>
J2VwaWtfcHl0aG9uJywgJy1waCcsICc3LjAnLCAnLXRuJywgJzgnLCAnLW1hJywgJzIwMCcsICctbWV0YWxfYmluZGluZycsICctaW1hZScsICc8aW5maWxlLm1hZT4nLCAnLW9tYWUnLCAnPG91dGZpbGUubWFlPic=

> <r_lp_tautomer_probability>
1

> <r_epik_Ionization_Penalty>
0.177131

> <r_epik_Ionization_Penalty_Charging>
0

> <r_epik_Ionization_Penalty_Neutral>
0.177131

> <r_epik_State_Penalty>
0.166485

> <r_epik_Charging_Adjusted_Penalty>
0.166485

> <i_epik_Tot_Q>
0

> <i_epik_Tot_abs_Q>
0

> <r_epik_Metal_State_Penalty>
0.166483

> <b_epik_Metal_Only>
0

> <s_lp_Force_Field>
OPLS_2005

> <r_lp_Energy>
18.3974

> <b_lp_Chiralities_Consistent>
1

> <s_lp_Variant>
AV-unprocessed.smi:1158-1

> <Gold.Version>
5.8.1

> <Gold.Id.Protein>
6NUR|6NUR_protein|mol2

> <Gold.PLP.Fitness>
40.8136

> <Gold.PLP.PLP>
-36.1733

> <Gold.PLP.part.hbond>
-2.6578

> <Gold.PLP.part.metal>
0.0000

> <Gold.PLP.part.buried>
-3.9903

> <Gold.PLP.part.nonpolar>
-30.4236

> <Gold.PLP.part.repulsive>
1.1463

> <Gold.PLP.ligand.clash>
0.0000

> <Gold.PLP.ligand.torsion>
0.5915

> <Gold.PLP.Chemscore.Hbond>
1.9344

> <Gold.PLP.Chemscore.CHOScore>
0.0000

> <Gold.PLP.Chemscore.Metal>
0.0000

> <Gold.Chemscore.Hbonds>
donor molecule, donor type, donor heavy atom, donor atom, acceptor molecule, acceptor atom, score
      L1  H     9    29       P1  7948  0.75
      L1  H    12    30       P1  7948  1.00

> <Gold.PLP.Chemscore.Internal.Correction>
0.0200

> <Gold.Rescore>
     Score         DG    S(hbond)    S(metal)    S(lipo)     H(rot)  DE(clash)    DE(int)     intcor
     11.82     -13.80       1.37        0.00      65.85       1.55       0.04       1.94       ----

> <Gold.Chemscore.Fitness>
11.8199

> <Gold.Chemscore.DG>
-13.7954

> <Gold.Chemscore.ZeroCoef>
-5.4800

> <Gold.Chemscore.Hbond>
1.3721

> <Gold.Chemscore.Metal>
0.0000

> <Gold.Chemscore.Lipo>
65.8526

> <Gold.Chemscore.Internal_Hbond>
0.0000

> <Gold.Chemscore.DEClash>
0.0402

> <Gold.Chemscore.DEInternal>
1.9353

> <Gold.Chemscore.Rot>
1.5517

> <Gold.Chemscore.Internal.Correction>
   9.000000E+99

> <Gold.Chemscore.Hbonds>
donor molecule, donor type, donor heavy atom, donor atom, acceptor molecule, acceptor atom, score
      L1  H     9    29       P1  7948  0.09
      L1  H    12    30       P1  7948  0.37

> <Gold.Chemscore.Hbond.Weighted>
-4.5830

> <Gold.Chemscore.Metal.Weighted>
-0.0000

> <Gold.Chemscore.Lipo.Weighted>
-7.7048

> <Gold.Chemscore.Internal_Hbond.Weighted>
0.0000

> <Gold.Chemscore.DEClash.Weighted>
0.0402

> <Gold.Chemscore.DEInternal.Weighted>
1.9353

> <Gold.Chemscore.Rot.Weighted>
3.9723

> <Gold.Chemscore.Internal.Correction.Weighted>
   9.000000E+99

> <Gold.Protein.RotatedTorsions>
[ 6907 6896 6895 6894 ] final   54.16 input  -60.11 | X-H torsion
[ 7974 7965 7964 7962 ] final  -91.53 input  175.53 | X-H torsion
[ 8008 7997 7996 7995 ] final  -52.24 input   59.86 | X-H torsion
[ 10167 10162 10161 10158 ] final  140.04 input  -65.29 | X-H torsion
[ 10718 10713 10712 10709 ] final   78.22 input   66.30 | X-H torsion
[ 10763 10752 10751 10750 ] final  -46.71 input  -60.55 | X-H torsion
[ 11005 11000 10999 10996 ] final  110.83 input  -57.11 | X-H torsion

> <Gold.Protein.ActiveResidues>
 VAL166  LYS551  ARG553  GLY616  TRP617  ASP618  TYR619  PRO620  LYS621  CYS622 
 ASP623  PHE694  ASN695  SER759  ASP760  ASP761  ALA762  ILE779  LEU786  VAL792 
 PHE793  MET794  SER795  GLU796  ALA797  LYS798  CYS799  TRP800  GLU811  SER814 

> <Gold.Protein.RotatedAtoms>
  152.3411  134.7133  160.0263 H   0  0  0  0  0  0  0  0  0  0  0  0  # atno 6907 bound_to 6896
  151.7518  133.3322  159.3402 H   0  0  0  0  0  0  0  0  0  0  0  0  # atno 6908 bound_to 6896
  150.7480  134.6118  159.6134 H   0  0  0  0  0  0  0  0  0  0  0  0  # atno 6909 bound_to 6896
  145.4118  140.9545  143.2229 H   0  0  0  0  0  0  0  0  0  0  0  0  # atno 7974 bound_to 7965
  154.4102  140.1228  156.4960 H   0  0  0  0  0  0  0  0  0  0  0  0  # atno 8008 bound_to 7997
  155.6943  140.3495  155.4887 H   0  0  0  0  0  0  0  0  0  0  0  0  # atno 8009 bound_to 7997
  155.9441  140.1092  157.1021 H   0  0  0  0  0  0  0  0  0  0  0  0  # atno 8010 bound_to 7997
  139.5060  144.6258  151.5940 H   0  0  0  0  0  0  0  0  0  0  0  0  # atno 10167 bound_to 10162
  157.6737  130.9858  150.1755 H   0  0  0  0  0  0  0  0  0  0  0  0  # atno 10718 bound_to 10713
  154.0494  135.6633  153.4798 H   0  0  0  0  0  0  0  0  0  0  0  0  # atno 10763 bound_to 10752
  153.0470  135.5108  154.7765 H   0  0  0  0  0  0  0  0  0  0  0  0  # atno 10764 bound_to 10752
  154.6767  135.3038  154.9635 H   0  0  0  0  0  0  0  0  0  0  0  0  # atno 10765 bound_to 10752
  139.8890  134.9493  156.6339 H   0  0  0  0  0  0  0  0  0  0  0  0  # atno 11005 bound_to 11000
  144.8303  139.5639  143.6946 LP  0  0  0  0  0  0  0  0  0  0  0  0  # atno 17320 bound_to 7965
  146.2701  139.6614  142.9302 LP  0  0  0  0  0  0  0  0  0  0  0  0  # atno 17321 bound_to 7965
  140.5975  143.9670  150.6364 LP  0  0  0  0  0  0  0  0  0  0  0  0  # atno 17342 bound_to 10162
  140.2871  143.3350  152.1097 LP  0  0  0  0  0  0  0  0  0  0  0  0  # atno 17343 bound_to 10162
  156.2499  130.3699  149.8243 LP  0  0  0  0  0  0  0  0  0  0  0  0  # atno 17370 bound_to 10713
  156.6019  130.8550  151.3434 LP  0  0  0  0  0  0  0  0  0  0  0  0  # atno 17371 bound_to 10713
  140.7645  133.8789  155.8444 LP  0  0  0  0  0  0  0  0  0  0  0  0  # atno 17394 bound_to 11000
  140.9894  134.1299  157.4422 LP  0  0  0  0  0  0  0  0  0  0  0  0  # atno 17395 bound_to 11000

$$$$
