AV-unprocessed.smi:2279|AV-procd|sdf|9188|dock6
  -GOLD-   2272012403D 1   1.00000     0.00000
 Structure written by MMmdl.
 57 59  0  0  0  0  0  0  0  0  2 V2000
  156.3155  139.7806  163.3180 C   0  0  0  0  0  0  0  0  0  0  0  0
  155.1951  140.5469  162.6467 C   0  0  0  0  0  0  0  0  0  0  0  0
  154.5987  141.6551  163.2781 C   0  0  0  0  0  0  0  0  0  0  0  0
  153.5602  142.3256  162.6026 C   0  0  0  0  0  0  0  0  0  0  0  0
  152.8749  143.5253  163.2221 C   0  0  0  0  0  0  0  0  0  0  0  0
  153.1115  141.9516  161.3853 N   0  0  0  0  0  0  0  0  0  0  0  0
  153.6772  140.8848  160.7683 C   0  0  0  0  0  0  0  0  0  0  0  0
  153.2816  140.4139  159.4882 N   0  0  0  0  0  0  0  0  0  0  0  0
  152.5206  141.0376  158.5715 C   0  0  0  0  0  0  0  0  0  0  0  0
  152.0046  142.1473  158.7086 O   0  0  0  0  0  0  0  0  0  0  0  0
  152.3805  140.2889  157.4677 N   0  0  0  0  0  0  0  0  0  0  0  0
  151.6093  140.6676  156.2871 C   0  0  0  0  0  0  0  0  0  0  0  0
  150.3097  141.3792  156.6852 C   0  0  0  0  0  0  0  0  0  0  0  0
  149.4322  141.6490  155.4514 C   0  0  0  0  0  0  0  0  0  0  0  0
  149.0763  140.3995  154.7583 N   0  0  0  0  0  0  0  0  0  0  0  0
  148.1126  140.6796  153.6711 C   0  0  2  0  0  0  0  0  0  0  0  0
  147.0206  141.6820  154.1242 C   0  0  0  0  0  0  0  0  0  0  0  0
  146.0200  141.0443  155.1056 C   0  0  0  0  0  0  0  0  0  0  0  0
  145.3813  139.8413  154.5186 N   0  3  2  0  0  0  0  0  0  0  0  0
  144.3462  139.2648  155.4031 C   0  0  0  0  0  0  0  0  0  0  0  0
  146.3805  138.8337  154.0886 C   0  0  0  0  0  0  0  0  0  0  0  0
  147.3820  139.4416  153.0907 C   0  0  0  0  0  0  0  0  0  0  0  0
  150.3226  139.7701  154.2943 C   0  0  0  0  0  0  0  0  0  0  0  0
  151.2488  139.4210  155.4732 C   0  0  0  0  0  0  0  0  0  0  0  0
  154.7270  140.1591  161.3750 C   0  0  0  0  0  0  0  0  0  0  0  0
  156.6909  140.3138  164.1920 H   0  0  0  0  0  0  0  0  0  0  0  0
  157.1458  139.6357  162.6261 H   0  0  0  0  0  0  0  0  0  0  0  0
  155.9606  138.8016  163.6404 H   0  0  0  0  0  0  0  0  0  0  0  0
  154.9278  141.9820  164.2538 H   0  0  0  0  0  0  0  0  0  0  0  0
  153.4150  143.8796  164.1005 H   0  0  0  0  0  0  0  0  0  0  0  0
  151.8609  143.2644  163.5259 H   0  0  0  0  0  0  0  0  0  0  0  0
  152.8187  144.3454  162.5055 H   0  0  0  0  0  0  0  0  0  0  0  0
  153.6217  139.4970  159.2401 H   0  0  0  0  0  0  0  0  0  0  0  0
  152.8399  139.3906  157.4413 H   0  0  0  0  0  0  0  0  0  0  0  0
  152.2057  141.3308  155.6573 H   0  0  0  0  0  0  0  0  0  0  0  0
  149.7529  140.7750  157.4033 H   0  0  0  0  0  0  0  0  0  0  0  0
  150.5374  142.3218  157.1845 H   0  0  0  0  0  0  0  0  0  0  0  0
  148.5490  142.1830  155.7925 H   0  0  0  0  0  0  0  0  0  0  0  0
  149.9522  142.3190  154.7645 H   0  0  0  0  0  0  0  0  0  0  0  0
  148.6764  141.1255  152.8499 H   0  0  0  0  0  0  0  0  0  0  0  0
  147.4307  142.5918  154.5569 H   0  0  0  0  0  0  0  0  0  0  0  0
  146.4718  142.0177  153.2433 H   0  0  0  0  0  0  0  0  0  0  0  0
  146.5231  140.7767  156.0362 H   0  0  0  0  0  0  0  0  0  0  0  0
  145.2501  141.7730  155.3621 H   0  0  0  0  0  0  0  0  0  0  0  0
  144.7851  138.9015  156.3333 H   0  0  0  0  0  0  0  0  0  0  0  0
  143.8420  138.4309  154.9137 H   0  0  0  0  0  0  0  0  0  0  0  0
  143.5902  140.0111  155.6492 H   0  0  0  0  0  0  0  0  0  0  0  0
  146.9047  138.4398  154.9608 H   0  0  0  0  0  0  0  0  0  0  0  0
  145.8679  137.9924  153.6208 H   0  0  0  0  0  0  0  0  0  0  0  0
  146.8263  139.7583  152.2069 H   0  0  0  0  0  0  0  0  0  0  0  0
  148.0699  138.6863  152.7130 H   0  0  0  0  0  0  0  0  0  0  0  0
  150.1133  138.8321  153.7838 H   0  0  0  0  0  0  0  0  0  0  0  0
  150.8328  140.4219  153.5836 H   0  0  0  0  0  0  0  0  0  0  0  0
  152.1563  138.9459  155.0989 H   0  0  0  0  0  0  0  0  0  0  0  0
  150.7559  138.6865  156.1124 H   0  0  0  0  0  0  0  0  0  0  0  0
  155.1694  139.3110  160.8724 H   0  0  0  0  0  0  0  0  0  0  0  0
  144.9051  140.1486  153.6827 H   0  0  0  0  0  0  0  0  0  0  0  0
  1  2  1  0  0  0  0
  1 26  1  0  0  0  0
  1 27  1  0  0  0  0
  1 28  1  0  0  0  0
  2 25  1  0  0  0  0
  2  3  2  0  0  0  0
  3  4  1  0  0  0  0
  3 29  1  0  0  0  0
  4  5  1  0  0  0  0
  4  6  2  0  0  0  0
  5 30  1  0  0  0  0
  5 31  1  0  0  0  0
  5 32  1  0  0  0  0
  6  7  1  0  0  0  0
  7  8  1  0  0  0  0
  7 25  2  0  0  0  0
  8  9  1  0  0  0  0
  8 33  1  0  0  0  0
  9 10  2  0  0  0  0
  9 11  1  0  0  0  0
 11 12  1  0  0  0  0
 11 34  1  0  0  0  0
 12 24  1  0  0  0  0
 12 13  1  0  0  0  0
 12 35  1  0  0  0  0
 13 14  1  0  0  0  0
 13 36  1  0  0  0  0
 13 37  1  0  0  0  0
 14 15  1  0  0  0  0
 14 38  1  0  0  0  0
 14 39  1  0  0  0  0
 15 16  1  0  0  0  0
 15 23  1  0  0  0  0
 16 22  1  0  0  0  0
 16 17  1  0  0  0  0
 16 40  1  0  0  0  0
 17 18  1  0  0  0  0
 17 41  1  0  0  0  0
 17 42  1  0  0  0  0
 18 19  1  0  0  0  0
 18 43  1  0  0  0  0
 18 44  1  0  0  0  0
 19 20  1  0  0  0  0
 19 21  1  0  0  0  0
 19 57  1  0  0  0  0
 20 45  1  0  0  0  0
 20 46  1  0  0  0  0
 20 47  1  0  0  0  0
 21 22  1  0  0  0  0
 21 48  1  0  0  0  0
 21 49  1  0  0  0  0
 22 50  1  0  0  0  0
 22 51  1  0  0  0  0
 23 24  1  0  0  0  0
 23 52  1  0  0  0  0
 23 53  1  0  0  0  0
 24 54  1  0  0  0  0
 24 55  1  0  0  0  0
 25 56  1  0  0  0  0
M  CHG  1  19   1
M  END
> <s_m_source_file>
AV-unprocessed.smi

> <i_m_source_file_index>
2279

> <i_lp_mmshare_version>
43012

> <i_f3d_flags>
0

> <s_epik_input>
W0NIM11jMVtjSF1jKFtDSDNdKW5jKFtjSF0xKVtOSF1DKD1PKVtOSF1bQ0hdMltDSDJdW0NIMl1OKFtDSDJdW0NIMl0yKVtDSF0zW0NIMl1bQ0gyXU4oW0NIM10pW0NIMl1bQ0gyXTM=

> <s_epik_cmdline>
J2VwaWtfcHl0aG9uJywgJy1waCcsICc3LjAnLCAnLXRuJywgJzgnLCAnLW1hJywgJzIwMCcsICctbWV0YWxfYmluZGluZycsICctaW1hZScsICc8aW5maWxlLm1hZT4nLCAnLW9tYWUnLCAnPG91dGZpbGUubWFlPic=

> <r_epik_Ionization_Penalty>
1.01001

> <r_epik_Ionization_Penalty_Charging>
0.000974969

> <r_epik_Ionization_Penalty_Neutral>
1.00904

> <r_epik_State_Penalty>
1.10286

> <r_epik_Charging_Adjusted_Penalty>
1.10383

> <i_epik_Tot_Q>
1

> <i_epik_Tot_abs_Q>
1

> <r_epik_Metal_State_Penalty>
1.10279

> <b_epik_Metal_Only>
0

> <s_lp_Force_Field>
OPLS_2005

> <r_lp_Energy>
36.6633

> <b_lp_Chiralities_Consistent>
1

> <s_lp_Variant>
AV-unprocessed.smi:2279-6

> <Gold.Version>
5.8.1

> <Gold.Id.Protein>
6NUR|6NUR_protein|mol2

> <Gold.PLP.Fitness>
45.0037

> <Gold.PLP.PLP>
-40.1768

> <Gold.PLP.part.hbond>
-1.0000

> <Gold.PLP.part.metal>
0.0000

> <Gold.PLP.part.buried>
2.8255

> <Gold.PLP.part.nonpolar>
-40.5429

> <Gold.PLP.part.repulsive>
0.3147

> <Gold.PLP.ligand.clash>
0.0390

> <Gold.PLP.ligand.torsion>
0.5693

> <Gold.PLP.Chemscore.Hbond>
2.0000

> <Gold.PLP.Chemscore.CHOScore>
0.0000

> <Gold.PLP.Chemscore.Metal>
0.0000

> <Gold.Chemscore.Hbonds>
donor molecule, donor type, donor heavy atom, donor atom, acceptor molecule, acceptor atom, score
      L1  H    19    57       P1 10175  2.00

> <Gold.PLP.Chemscore.Internal.Correction>
0.0045

> <Gold.Rescore>
     Score         DG    S(hbond)    S(metal)    S(lipo)     H(rot)  DE(clash)    DE(int)     intcor
     14.50     -18.04       1.00        0.00     105.01       1.20       0.55       2.99       ----

> <Gold.Chemscore.Fitness>
14.4989

> <Gold.Chemscore.DG>
-18.0395

> <Gold.Chemscore.ZeroCoef>
-5.4800

> <Gold.Chemscore.Hbond>
1.0000

> <Gold.Chemscore.Metal>
0.0000

> <Gold.Chemscore.Lipo>
105.0148

> <Gold.Chemscore.Internal_Hbond>
0.0000

> <Gold.Chemscore.DEClash>
0.5490

> <Gold.Chemscore.DEInternal>
2.9915

> <Gold.Chemscore.Rot>
1.1981

> <Gold.Chemscore.Internal.Correction>
   9.000000E+99

> <Gold.Chemscore.Hbonds>
donor molecule, donor type, donor heavy atom, donor atom, acceptor molecule, acceptor atom, score
      L1  H    19    57       P1 10175  1.00

> <Gold.Chemscore.Hbond.Weighted>
-3.3400

> <Gold.Chemscore.Metal.Weighted>
-0.0000

> <Gold.Chemscore.Lipo.Weighted>
-12.2867

> <Gold.Chemscore.Internal_Hbond.Weighted>
0.0000

> <Gold.Chemscore.DEClash.Weighted>
0.5490

> <Gold.Chemscore.DEInternal.Weighted>
2.9915

> <Gold.Chemscore.Rot.Weighted>
3.0673

> <Gold.Chemscore.Internal.Correction.Weighted>
   9.000000E+99

> <Gold.Protein.RotatedTorsions>
[ 6907 6896 6895 6894 ] final   33.45 input  -60.11 | X-H torsion
[ 7974 7965 7964 7962 ] final  138.67 input  175.53 | X-H torsion
[ 8008 7997 7996 7995 ] final   37.87 input   59.86 | X-H torsion
[ 10167 10162 10161 10158 ] final -171.83 input  -65.29 | X-H torsion
[ 10718 10713 10712 10709 ] final -117.62 input   66.30 | X-H torsion
[ 10763 10752 10751 10750 ] final    5.32 input  -60.55 | X-H torsion
[ 11005 11000 10999 10996 ] final -114.42 input  -57.11 | X-H torsion

> <Gold.Protein.ActiveResidues>
 VAL166  LYS551  ARG553  GLY616  TRP617  ASP618  TYR619  PRO620  LYS621  CYS622 
 ASP623  PHE694  ASN695  SER759  ASP760  ASP761  ALA762  ILE779  LEU786  VAL792 
 PHE793  MET794  SER795  GLU796  ALA797  LYS798  CYS799  TRP800  GLU811  SER814 

> <Gold.Protein.RotatedAtoms>
  152.0886  134.9422  160.0572 H   0  0  0  0  0  0  0  0  0  0  0  0  # atno 6907 bound_to 6896
  152.0683  133.4089  159.4456 H   0  0  0  0  0  0  0  0  0  0  0  0  # atno 6908 bound_to 6896
  150.6836  134.3041  159.4762 H   0  0  0  0  0  0  0  0  0  0  0  0  # atno 6909 bound_to 6896
  144.9351  139.4999  143.5599 H   0  0  0  0  0  0  0  0  0  0  0  0  # atno 7974 bound_to 7965
  155.2108  140.3323  155.4329 H   0  0  0  0  0  0  0  0  0  0  0  0  # atno 8008 bound_to 7997
  156.2371  140.1877  156.7138 H   0  0  0  0  0  0  0  0  0  0  0  0  # atno 8009 bound_to 7997
  154.6079  140.0613  156.9441 H   0  0  0  0  0  0  0  0  0  0  0  0  # atno 8010 bound_to 7997
  139.5780  144.1489  152.1476 H   0  0  0  0  0  0  0  0  0  0  0  0  # atno 10167 bound_to 10162
  156.1047  130.6200  150.9187 H   0  0  0  0  0  0  0  0  0  0  0  0  # atno 10718 bound_to 10713
  153.2608  135.6923  153.7580 H   0  0  0  0  0  0  0  0  0  0  0  0  # atno 10763 bound_to 10752
  153.6640  135.3355  155.3136 H   0  0  0  0  0  0  0  0  0  0  0  0  # atno 10764 bound_to 10752
  154.8429  135.4484  154.1598 H   0  0  0  0  0  0  0  0  0  0  0  0  # atno 10765 bound_to 10752
  141.0553  133.9623  157.2765 H   0  0  0  0  0  0  0  0  0  0  0  0  # atno 11005 bound_to 11000
  146.3263  139.8329  142.8905 LP  0  0  0  0  0  0  0  0  0  0  0  0  # atno 17320 bound_to 7965
  145.3080  141.0212  143.3570 LP  0  0  0  0  0  0  0  0  0  0  0  0  # atno 17321 bound_to 7965
  140.1036  144.5518  150.6972 LP  0  0  0  0  0  0  0  0  0  0  0  0  # atno 17342 bound_to 10162
  140.7061  143.2469  151.4723 LP  0  0  0  0  0  0  0  0  0  0  0  0  # atno 17343 bound_to 10162
  157.6222  131.0929  150.8601 LP  0  0  0  0  0  0  0  0  0  0  0  0  # atno 17370 bound_to 10713
  156.8722  130.5150  149.5296 LP  0  0  0  0  0  0  0  0  0  0  0  0  # atno 17371 bound_to 10713
  139.9385  135.0194  156.8632 LP  0  0  0  0  0  0  0  0  0  0  0  0  # atno 17394 bound_to 11000
  140.5976  134.0202  155.7524 LP  0  0  0  0  0  0  0  0  0  0  0  0  # atno 17395 bound_to 11000

$$$$
