AV-unprocessed.smi:1194|AV-procd|sdf|4991|dock1
  -GOLD-   22720 3593D 1   1.00000     0.00000
 Structure written by MMmdl.
 47 48  0  0  0  0  0  0  0  0  1 V2000
  152.2004  145.0342  159.2263 C   0  0  0  0  0  0  0  0  0  0  0  0
  152.7522  143.6044  159.2025 C   0  0  0  0  0  0  0  0  0  0  0  0
  151.6368  142.5430  159.2670 C   0  0  0  0  0  0  0  0  0  0  0  0
  152.1492  141.0907  159.2454 C   0  0  0  0  0  0  0  0  0  0  0  0
  153.0838  140.7868  159.9886 O   0  0  0  0  0  0  0  0  0  0  0  0
  151.5517  140.1855  158.4255 N   0  0  0  0  0  0  0  0  0  0  0  0
  150.4740  140.5198  157.4707 C   0  0  0  0  0  0  0  0  0  0  0  0
  150.9848  140.3398  156.0306 C   0  0  0  0  0  0  0  0  0  0  0  0
  151.5413  138.9227  155.8135 C   0  0  0  0  0  0  0  0  0  0  0  0
  152.5857  138.5778  156.8900 C   0  0  0  0  0  0  0  0  0  0  0  0
  152.0374  138.7878  158.3233 C   0  0  2  0  0  0  0  0  0  0  0  0
  151.0058  137.7307  158.7744 C   0  0  0  0  0  0  0  0  0  0  0  0
  151.2240  137.0311  159.7638 O   0  0  0  0  0  0  0  0  0  0  0  0
  149.8803  137.6254  158.0506 N   0  0  0  0  0  0  0  0  0  0  0  0
  148.8048  136.6850  158.3268 C   0  0  0  0  0  0  0  0  0  0  0  0
  148.0265  137.1121  159.5777 C   0  0  0  0  0  0  0  0  0  0  0  0
  147.4913  135.9223  160.3491 C   0  0  0  0  0  0  0  0  0  0  0  0
  147.0195  136.0703  161.6695 C   0  0  0  0  0  0  0  0  0  0  0  0
  146.5376  134.9349  162.3487 C   0  0  0  0  0  0  0  0  0  0  0  0
  146.5484  133.6966  161.6761 C   0  0  0  0  0  0  0  0  0  0  0  0
  146.9984  133.5431  160.4120 N   0  0  0  0  0  0  0  0  0  0  0  0
  147.4592  134.6368  159.7679 C   0  0  0  0  0  0  0  0  0  0  0  0
  153.0092  145.7631  159.1722 H   0  0  0  0  0  0  0  0  0  0  0  0
  151.6414  145.2252  160.1427 H   0  0  0  0  0  0  0  0  0  0  0  0
  151.5339  145.2138  158.3824 H   0  0  0  0  0  0  0  0  0  0  0  0
  153.3431  143.4681  158.2957 H   0  0  0  0  0  0  0  0  0  0  0  0
  153.4369  143.4765  160.0422 H   0  0  0  0  0  0  0  0  0  0  0  0
  151.0593  142.6961  160.1795 H   0  0  0  0  0  0  0  0  0  0  0  0
  150.9614  142.6888  158.4229 H   0  0  0  0  0  0  0  0  0  0  0  0
  149.6197  139.8638  157.6375 H   0  0  0  0  0  0  0  0  0  0  0  0
  150.0731  141.5251  157.5799 H   0  0  0  0  0  0  0  0  0  0  0  0
  150.1818  140.5375  155.3201 H   0  0  0  0  0  0  0  0  0  0  0  0
  151.7659  141.0738  155.8279 H   0  0  0  0  0  0  0  0  0  0  0  0
  150.7248  138.2003  155.8446 H   0  0  0  0  0  0  0  0  0  0  0  0
  151.9855  138.8420  154.8211 H   0  0  0  0  0  0  0  0  0  0  0  0
  152.9384  137.5548  156.7533 H   0  0  0  0  0  0  0  0  0  0  0  0
  153.4619  139.2122  156.7496 H   0  0  0  0  0  0  0  0  0  0  0  0
  152.8835  138.6155  158.9894 H   0  0  0  0  0  0  0  0  0  0  0  0
  149.7647  138.2381  157.2563 H   0  0  0  0  0  0  0  0  0  0  0  0
  148.1375  136.6394  157.4648 H   0  0  0  0  0  0  0  0  0  0  0  0
  149.2217  135.6865  158.4684 H   0  0  0  0  0  0  0  0  0  0  0  0
  148.6686  137.6997  160.2355 H   0  0  0  0  0  0  0  0  0  0  0  0
  147.1945  137.7603  159.2994 H   0  0  0  0  0  0  0  0  0  0  0  0
  147.0286  137.0353  162.1549 H   0  0  0  0  0  0  0  0  0  0  0  0
  146.1694  135.0108  163.3610 H   0  0  0  0  0  0  0  0  0  0  0  0
  146.1861  132.8057  162.1672 H   0  0  0  0  0  0  0  0  0  0  0  0
  147.8142  134.4804  158.7599 H   0  0  0  0  0  0  0  0  0  0  0  0
  1  2  1  0  0  0  0
  1 23  1  0  0  0  0
  1 24  1  0  0  0  0
  1 25  1  0  0  0  0
  2  3  1  0  0  0  0
  2 26  1  0  0  0  0
  2 27  1  0  0  0  0
  3  4  1  0  0  0  0
  3 28  1  0  0  0  0
  3 29  1  0  0  0  0
  4  5  2  0  0  0  0
  4  6  1  0  0  0  0
  6 11  1  0  0  0  0
  6  7  1  0  0  0  0
  7  8  1  0  0  0  0
  7 30  1  0  0  0  0
  7 31  1  0  0  0  0
  8  9  1  0  0  0  0
  8 32  1  0  0  0  0
  8 33  1  0  0  0  0
  9 10  1  0  0  0  0
  9 34  1  0  0  0  0
  9 35  1  0  0  0  0
 10 11  1  0  0  0  0
 10 36  1  0  0  0  0
 10 37  1  0  0  0  0
 11 12  1  0  0  0  0
 11 38  1  0  0  0  0
 12 13  2  0  0  0  0
 12 14  1  0  0  0  0
 14 15  1  0  0  0  0
 14 39  1  0  0  0  0
 15 16  1  0  0  0  0
 15 40  1  0  0  0  0
 15 41  1  0  0  0  0
 16 17  1  0  0  0  0
 16 42  1  0  0  0  0
 16 43  1  0  0  0  0
 17 22  1  0  0  0  0
 17 18  2  0  0  0  0
 18 19  1  0  0  0  0
 18 44  1  0  0  0  0
 19 20  2  0  0  0  0
 19 45  1  0  0  0  0
 20 21  1  0  0  0  0
 20 46  1  0  0  0  0
 21 22  2  0  0  0  0
 22 47  1  0  0  0  0
M  END
> <s_m_source_file>
AV-unprocessed.smi

> <i_m_source_file_index>
1194

> <i_lp_mmshare_version>
43012

> <i_f3d_flags>
0

> <s_epik_input>
W0NIM11bQ0gyXVtDSDJdQyg9TylOMVtDSDJdW0NIMl1bQ0gyXVtDSDJdW0NASF0xQyg9TylbTkhdW0NIMl1bQ0gyXWMyW2NIXVtjSF1bY0hdbltjSF0y

> <s_epik_cmdline>
J2VwaWtfcHl0aG9uJywgJy1waCcsICc3LjAnLCAnLXRuJywgJzgnLCAnLW1hJywgJzIwMCcsICctbWV0YWxfYmluZGluZycsICctaW1hZScsICc8aW5maWxlLm1hZT4nLCAnLW9tYWUnLCAnPG91dGZpbGUubWFlPic=

> <r_epik_Ionization_Penalty>
0.0130932

> <r_epik_Ionization_Penalty_Charging>
0

> <r_epik_Ionization_Penalty_Neutral>
0.0130932

> <r_epik_State_Penalty>
0.0101714

> <r_epik_Charging_Adjusted_Penalty>
0.0101714

> <i_epik_Tot_Q>
0

> <i_epik_Tot_abs_Q>
0

> <r_epik_Metal_State_Penalty>
0.00995056

> <b_epik_Metal_Only>
0

> <s_lp_Force_Field>
OPLS_2005

> <r_lp_Energy>
25.0478

> <b_lp_Chiralities_Consistent>
1

> <s_lp_Variant>
AV-unprocessed.smi:1194-2

> <Gold.Version>
5.8.1

> <Gold.Id.Protein>
6NUR|6NUR_protein|mol2

> <Gold.PLP.Fitness>
47.1866

> <Gold.PLP.PLP>
-45.2544

> <Gold.PLP.part.hbond>
-1.0000

> <Gold.PLP.part.metal>
0.0000

> <Gold.PLP.part.buried>
-5.7131

> <Gold.PLP.part.nonpolar>
-39.6524

> <Gold.PLP.part.repulsive>
0.1063

> <Gold.PLP.ligand.clash>
0.0000

> <Gold.PLP.ligand.torsion>
0.6382

> <Gold.PLP.Chemscore.Hbond>
1.0000

> <Gold.PLP.Chemscore.CHOScore>
0.0000

> <Gold.PLP.Chemscore.Metal>
0.0000

> <Gold.Chemscore.Hbonds>
donor molecule, donor type, donor heavy atom, donor atom, acceptor molecule, acceptor atom, score
      P1  H  6896  6907       L1    13  1.00

> <Gold.PLP.Chemscore.Internal.Correction>
0.2086

> <Gold.Rescore>
     Score         DG    S(hbond)    S(metal)    S(lipo)     H(rot)  DE(clash)    DE(int)     intcor
     15.93     -17.86       1.00        0.00     114.12       1.68       0.31       1.61       ----

> <Gold.Chemscore.Fitness>
15.9297

> <Gold.Chemscore.DG>
-17.8565

> <Gold.Chemscore.ZeroCoef>
-5.4800

> <Gold.Chemscore.Hbond>
0.9974

> <Gold.Chemscore.Metal>
0.0000

> <Gold.Chemscore.Lipo>
114.1195

> <Gold.Chemscore.Internal_Hbond>
0.0000

> <Gold.Chemscore.DEClash>
0.3145

> <Gold.Chemscore.DEInternal>
1.6124

> <Gold.Chemscore.Rot>
1.6823

> <Gold.Chemscore.Internal.Correction>
   9.000000E+99

> <Gold.Chemscore.Hbonds>
donor molecule, donor type, donor heavy atom, donor atom, acceptor molecule, acceptor atom, score
      P1  H  6896  6907       L1    13  0.98

> <Gold.Chemscore.Hbond.Weighted>
-3.3313

> <Gold.Chemscore.Metal.Weighted>
-0.0000

> <Gold.Chemscore.Lipo.Weighted>
-13.3520

> <Gold.Chemscore.Internal_Hbond.Weighted>
0.0000

> <Gold.Chemscore.DEClash.Weighted>
0.3145

> <Gold.Chemscore.DEInternal.Weighted>
1.6124

> <Gold.Chemscore.Rot.Weighted>
4.3068

> <Gold.Chemscore.Internal.Correction.Weighted>
   9.000000E+99

> <Gold.Protein.RotatedTorsions>
[ 6907 6896 6895 6894 ] final    6.41 input  -60.11 | X-H torsion
[ 7974 7965 7964 7962 ] final -135.87 input  175.53 | X-H torsion
[ 8008 7997 7996 7995 ] final -109.18 input   59.86 | X-H torsion
[ 10167 10162 10161 10158 ] final  179.32 input  -65.29 | X-H torsion
[ 10718 10713 10712 10709 ] final  -11.11 input   66.30 | X-H torsion
[ 10763 10752 10751 10750 ] final  118.07 input  -60.55 | X-H torsion
[ 11005 11000 10999 10996 ] final  111.23 input  -57.11 | X-H torsion

> <Gold.Protein.ActiveResidues>
 VAL166  LYS551  ARG553  GLY616  TRP617  ASP618  TYR619  PRO620  LYS621  CYS622 
 ASP623  PHE694  ASN695  SER759  ASP760  ASP761  ALA762  ILE779  LEU786  VAL792 
 PHE793  MET794  SER795  GLU796  ALA797  LYS798  CYS799  TRP800  GLU811  SER814 

> <Gold.Protein.RotatedAtoms>
  151.6733  135.0973  160.0201 H   0  0  0  0  0  0  0  0  0  0  0  0  # atno 6907 bound_to 6896
  152.3878  133.6632  159.6222 H   0  0  0  0  0  0  0  0  0  0  0  0  # atno 6908 bound_to 6896
  150.7800  133.8922  159.3358 H   0  0  0  0  0  0  0  0  0  0  0  0  # atno 6909 bound_to 6896
  144.8976  140.6727  143.5105 H   0  0  0  0  0  0  0  0  0  0  0  0  # atno 7974 bound_to 7965
  154.9555  140.0400  157.2165 H   0  0  0  0  0  0  0  0  0  0  0  0  # atno 8008 bound_to 7997
  154.7938  140.2840  155.5949 H   0  0  0  0  0  0  0  0  0  0  0  0  # atno 8009 bound_to 7997
  156.2953  140.2568  156.2791 H   0  0  0  0  0  0  0  0  0  0  0  0  # atno 8010 bound_to 7997
  139.5331  144.2576  152.0734 H   0  0  0  0  0  0  0  0  0  0  0  0  # atno 10167 bound_to 10162
  156.6637  130.4989  149.6022 H   0  0  0  0  0  0  0  0  0  0  0  0  # atno 10718 bound_to 10713
  153.5620  135.3519  155.2803 H   0  0  0  0  0  0  0  0  0  0  0  0  # atno 10763 bound_to 10752
  154.8693  135.4139  154.2820 H   0  0  0  0  0  0  0  0  0  0  0  0  # atno 10764 bound_to 10752
  153.3568  135.7058  153.6814 H   0  0  0  0  0  0  0  0  0  0  0  0  # atno 10765 bound_to 10752
  139.8899  134.9503  156.6400 H   0  0  0  0  0  0  0  0  0  0  0  0  # atno 11005 bound_to 11000
  145.3673  139.1667  143.4351 LP  0  0  0  0  0  0  0  0  0  0  0  0  # atno 17320 bound_to 7965
  146.3090  140.3741  142.8677 LP  0  0  0  0  0  0  0  0  0  0  0  0  # atno 17321 bound_to 7965
  140.2042  144.4628  150.6417 LP  0  0  0  0  0  0  0  0  0  0  0  0  # atno 17342 bound_to 10162
  140.6522  143.2228  151.6052 LP  0  0  0  0  0  0  0  0  0  0  0  0  # atno 17343 bound_to 10162
  156.1991  130.6608  151.1148 LP  0  0  0  0  0  0  0  0  0  0  0  0  # atno 17370 bound_to 10713
  157.7101  131.0738  150.6531 LP  0  0  0  0  0  0  0  0  0  0  0  0  # atno 17371 bound_to 10713
  140.7601  133.8825  155.8412 LP  0  0  0  0  0  0  0  0  0  0  0  0  # atno 17394 bound_to 11000
  140.9929  134.1254  157.4391 LP  0  0  0  0  0  0  0  0  0  0  0  0  # atno 17395 bound_to 11000

$$$$
