AV-unprocessed.smi:2559|AV-procd|sdf|10036|dock8
  -GOLD-   2272014 83D 1   1.00000     0.00000
 Structure written by MMmdl.
 43 45  0  0  0  0  0  0  0  0  2 V2000
  154.4498  137.1825  159.6907 C   0  0  0  0  0  0  0  0  0  0  0  0
  153.8673  137.4331  158.3689 N   0  0  0  0  0  0  0  0  0  0  0  0
  153.8962  136.4737  157.3920 C   0  0  0  0  0  0  0  0  0  0  0  0
  154.4228  135.3907  157.6505 O   0  0  0  0  0  0  0  0  0  0  0  0
  153.3410  136.7361  156.1588 N   0  5  0  0  0  0  0  0  0  0  0  0
  152.7273  137.9021  155.7821 C   0  0  0  0  0  0  0  0  0  0  0  0
  152.2166  138.1368  154.6895 O   0  0  0  0  0  0  0  0  0  0  0  0
  152.7232  138.9105  156.8683 C   0  0  0  0  0  0  0  0  0  0  0  0
  153.2554  138.6877  158.1008 C   0  0  0  0  0  0  0  0  0  0  0  0
  153.0766  139.7823  158.9311 N   0  0  0  0  0  0  0  0  0  0  0  0
  152.4492  140.6577  158.1445 C   0  0  0  0  0  0  0  0  0  0  0  0
  152.0504  141.9219  158.5849 N   0  0  0  0  0  0  0  0  0  0  0  0
  152.6797  142.7023  159.6512 C   0  0  0  0  0  0  0  0  0  0  0  0
  152.9571  144.1500  159.2082 C   0  0  0  0  0  0  0  0  0  0  0  0
  151.6552  144.8340  158.7699 C   0  0  0  0  0  0  0  0  0  0  0  0
  150.9272  143.9656  157.7339 C   0  0  0  0  0  0  0  0  0  0  0  0
  150.7610  142.5231  158.2467 C   0  0  0  0  0  0  0  0  0  0  0  0
  152.1834  140.2036  156.8883 N   0  0  0  0  0  0  0  0  0  0  0  0
  151.4482  140.8916  155.8251 C   0  0  0  0  0  0  0  0  0  0  0  0
  150.1816  140.1253  155.3955 C   0  0  2  0  0  0  0  0  0  0  0  0
  150.3084  139.7368  154.0414 O   0  0  0  0  0  0  0  0  0  0  0  0
  148.9157  140.9853  155.5474 C   0  0  0  0  0  0  0  0  0  0  0  0
  148.9272  142.0455  154.6146 O   0  0  0  0  0  0  0  0  0  0  0  0
  155.4876  136.8585  159.6012 H   0  0  0  0  0  0  0  0  0  0  0  0
  153.8921  136.4013  160.2080 H   0  0  0  0  0  0  0  0  0  0  0  0
  154.4447  138.0669  160.3272 H   0  0  0  0  0  0  0  0  0  0  0  0
  152.0161  142.7057  160.5169 H   0  0  0  0  0  0  0  0  0  0  0  0
  153.5944  142.2178  159.9901 H   0  0  0  0  0  0  0  0  0  0  0  0
  153.4169  144.7105  160.0223 H   0  0  0  0  0  0  0  0  0  0  0  0
  153.6712  144.1577  158.3848 H   0  0  0  0  0  0  0  0  0  0  0  0
  151.0114  144.9822  159.6378 H   0  0  0  0  0  0  0  0  0  0  0  0
  151.8631  145.8228  158.3608 H   0  0  0  0  0  0  0  0  0  0  0  0
  149.9520  144.3962  157.5056 H   0  0  0  0  0  0  0  0  0  0  0  0
  151.4896  143.9589  156.7994 H   0  0  0  0  0  0  0  0  0  0  0  0
  150.2679  141.9217  157.4822 H   0  0  0  0  0  0  0  0  0  0  0  0
  150.1123  142.5033  159.1234 H   0  0  0  0  0  0  0  0  0  0  0  0
  151.1809  141.8882  156.1632 H   0  0  0  0  0  0  0  0  0  0  0  0
  152.0957  141.0713  154.9708 H   0  0  0  0  0  0  0  0  0  0  0  0
  150.0890  139.2269  156.0065 H   0  0  0  0  0  0  0  0  0  0  0  0
  150.4332  138.8006  154.0076 H   0  0  0  0  0  0  0  0  0  0  0  0
  148.0267  140.3875  155.3443 H   0  0  0  0  0  0  0  0  0  0  0  0
  148.8153  141.3735  156.5618 H   0  0  0  0  0  0  0  0  0  0  0  0
  148.7683  142.8533  155.0779 H   0  0  0  0  0  0  0  0  0  0  0  0
  1  2  1  0  0  0  0
  1 24  1  0  0  0  0
  1 25  1  0  0  0  0
  1 26  1  0  0  0  0
  2  9  1  0  0  0  0
  2  3  1  0  0  0  0
  3  4  2  0  0  0  0
  3  5  1  0  0  0  0
  5  6  1  0  0  0  0
  6  7  2  0  0  0  0
  6  8  1  0  0  0  0
  8 18  1  0  0  0  0
  8  9  2  0  0  0  0
  9 10  1  0  0  0  0
 10 11  2  0  0  0  0
 11 12  1  0  0  0  0
 11 18  1  0  0  0  0
 12 17  1  0  0  0  0
 12 13  1  0  0  0  0
 13 14  1  0  0  0  0
 13 27  1  0  0  0  0
 13 28  1  0  0  0  0
 14 15  1  0  0  0  0
 14 29  1  0  0  0  0
 14 30  1  0  0  0  0
 15 16  1  0  0  0  0
 15 31  1  0  0  0  0
 15 32  1  0  0  0  0
 16 17  1  0  0  0  0
 16 33  1  0  0  0  0
 16 34  1  0  0  0  0
 17 35  1  0  0  0  0
 17 36  1  0  0  0  0
 18 19  1  0  0  0  0
 19 20  1  0  0  0  0
 19 37  1  0  0  0  0
 19 38  1  0  0  0  0
 20 21  1  0  0  0  0
 20 22  1  0  0  0  0
 20 39  1  0  0  0  0
 21 40  1  0  0  0  0
 22 23  1  0  0  0  0
 22 41  1  0  0  0  0
 22 42  1  0  0  0  0
 23 43  1  0  0  0  0
M  CHG  1   5  -1
M  END
> <s_m_source_file>
AV-unprocessed.smi

> <i_m_source_file_index>
2559

> <i_lp_mmshare_version>
43012

> <i_f3d_flags>
0

> <s_epik_input>
Tz1jMVtuSF1jKD1PKW4oW0NIM10pYyhjMTIpbmMobjJbQ0gyXVtDQEhdKFtPSF0pW0NIMl1bT0hdKU4zW0NIMl1bQ0gyXVtDSDJdW0NIMl1bQ0gyXTM=

> <s_epik_cmdline>
J2VwaWtfcHl0aG9uJywgJy1waCcsICc3LjAnLCAnLXRuJywgJzgnLCAnLW1hJywgJzIwMCcsICctbWV0YWxfYmluZGluZycsICctaW1hZScsICc8aW5maWxlLm1hZT4nLCAnLW9tYWUnLCAnPG91dGZpbGUubWFlPic=

> <r_lp_tautomer_probability>
1

> <r_epik_Ionization_Penalty>
5.90509

> <r_epik_Ionization_Penalty_Charging>
0.0759636

> <r_epik_Ionization_Penalty_Neutral>
5.82913

> <r_epik_State_Penalty>
5.18635

> <r_epik_Charging_Adjusted_Penalty>
5.26231

> <i_epik_Tot_Q>
-1

> <i_epik_Tot_abs_Q>
1

> <r_epik_Metal_State_Penalty>
1.25614

> <b_epik_Metal_Only>
1

> <s_lp_Force_Field>
OPLS_2005

> <r_lp_Energy>
44.2417

> <b_lp_Chiralities_Consistent>
1

> <s_lp_Variant>
AV-unprocessed.smi:2559-3

> <Gold.Version>
5.8.1

> <Gold.Id.Protein>
6NUR|6NUR_protein|mol2

> <Gold.PLP.Fitness>
53.2658

> <Gold.PLP.PLP>
-40.3555

> <Gold.PLP.part.hbond>
-6.4337

> <Gold.PLP.part.metal>
0.0000

> <Gold.PLP.part.buried>
-2.2940

> <Gold.PLP.part.nonpolar>
-31.4582

> <Gold.PLP.part.repulsive>
0.0479

> <Gold.PLP.ligand.clash>
0.0093

> <Gold.PLP.ligand.torsion>
1.2418

> <Gold.PLP.Chemscore.Hbond>
4.9331

> <Gold.PLP.Chemscore.CHOScore>
0.0000

> <Gold.PLP.Chemscore.Metal>
0.0000

> <Gold.Chemscore.Hbonds>
donor molecule, donor type, donor heavy atom, donor atom, acceptor molecule, acceptor atom, score
      L1  H    23    43       P1  8028  1.00
      P1  H  7989  7998       L1    21  1.00
      P1  H 10752 10763       L1     5  1.34

> <Gold.PLP.Chemscore.Internal.Correction>
0.6038

> <Gold.Rescore>
     Score         DG    S(hbond)    S(metal)    S(lipo)     H(rot)  DE(clash)    DE(int)     intcor
     15.53     -18.25       3.18        0.00      82.56       2.93       0.00       2.71       ----

> <Gold.Chemscore.Fitness>
15.5347

> <Gold.Chemscore.DG>
-18.2479

> <Gold.Chemscore.ZeroCoef>
-5.4800

> <Gold.Chemscore.Hbond>
3.1788

> <Gold.Chemscore.Metal>
0.0000

> <Gold.Chemscore.Lipo>
82.5562

> <Gold.Chemscore.Internal_Hbond>
0.0000

> <Gold.Chemscore.DEClash>
0.0000

> <Gold.Chemscore.DEInternal>
2.7132

> <Gold.Chemscore.Rot>
2.9330

> <Gold.Chemscore.Internal.Correction>
   9.000000E+99

> <Gold.Chemscore.Hbonds>
donor molecule, donor type, donor heavy atom, donor atom, acceptor molecule, acceptor atom, score
      L1  H    23    43       P1  8028  0.99
      P1  H  7989  7998       L1    21  0.29
      P1  H  8011  8017       L1    23  0.01
      P1  H 10752 10763       L1     5  0.33

> <Gold.Chemscore.Hbond.Weighted>
-10.6172

> <Gold.Chemscore.Metal.Weighted>
-0.0000

> <Gold.Chemscore.Lipo.Weighted>
-9.6591

> <Gold.Chemscore.Internal_Hbond.Weighted>
0.0000

> <Gold.Chemscore.DEClash.Weighted>
0.0000

> <Gold.Chemscore.DEInternal.Weighted>
2.7132

> <Gold.Chemscore.Rot.Weighted>
7.5084

> <Gold.Chemscore.Internal.Correction.Weighted>
   9.000000E+99

> <Gold.Protein.RotatedTorsions>
[ 6907 6896 6895 6894 ] final   77.18 input  -60.11 | X-H torsion
[ 7974 7965 7964 7962 ] final   29.60 input  175.53 | X-H torsion
[ 8008 7997 7996 7995 ] final   26.60 input   59.86 | X-H torsion
[ 10167 10162 10161 10158 ] final  -77.52 input  -65.29 | X-H torsion
[ 10718 10713 10712 10709 ] final  -38.64 input   66.30 | X-H torsion
[ 10763 10752 10751 10750 ] final  119.49 input  -60.55 | X-H torsion
[ 11005 11000 10999 10996 ] final   35.61 input  -57.11 | X-H torsion

> <Gold.Protein.ActiveResidues>
 VAL166  LYS551  ARG553  GLY616  TRP617  ASP618  TYR619  PRO620  LYS621  CYS622 
 ASP623  PHE694  ASN695  SER759  ASP760  ASP761  ALA762  ILE779  LEU786  VAL792 
 PHE793  MET794  SER795  GLU796  ALA797  LYS798  CYS799  TRP800  GLU811  SER814 

> <Gold.Protein.RotatedAtoms>
  152.5106  134.3856  159.9365 H   0  0  0  0  0  0  0  0  0  0  0  0  # atno 6907 bound_to 6896
  151.3814  133.3813  159.2718 H   0  0  0  0  0  0  0  0  0  0  0  0  # atno 6908 bound_to 6896
  150.9501  134.8922  159.7725 H   0  0  0  0  0  0  0  0  0  0  0  0  # atno 6909 bound_to 6896
  146.1662  139.6900  142.8999 H   0  0  0  0  0  0  0  0  0  0  0  0  # atno 7974 bound_to 7965
  155.0299  140.3157  155.4762 H   0  0  0  0  0  0  0  0  0  0  0  0  # atno 8008 bound_to 7997
  156.2876  140.2182  156.5362 H   0  0  0  0  0  0  0  0  0  0  0  0  # atno 8009 bound_to 7997
  154.7380  140.0476  157.0773 H   0  0  0  0  0  0  0  0  0  0  0  0  # atno 8010 bound_to 7997
  140.4763  143.2413  151.8128 H   0  0  0  0  0  0  0  0  0  0  0  0  # atno 10167 bound_to 10162
  156.3015  130.4240  149.8139 H   0  0  0  0  0  0  0  0  0  0  0  0  # atno 10718 bound_to 10713
  153.5838  135.3479  155.2885 H   0  0  0  0  0  0  0  0  0  0  0  0  # atno 10763 bound_to 10752
  154.8663  135.4188  154.2591 H   0  0  0  0  0  0  0  0  0  0  0  0  # atno 10764 bound_to 10752
  153.3383  135.7048  153.6959 H   0  0  0  0  0  0  0  0  0  0  0  0  # atno 10765 bound_to 10752
  140.2409  134.3416  155.7926 H   0  0  0  0  0  0  0  0  0  0  0  0  # atno 11005 bound_to 11000
  145.4461  141.0425  143.2830 LP  0  0  0  0  0  0  0  0  0  0  0  0  # atno 17320 bound_to 7965
  144.8096  139.5987  143.7035 LP  0  0  0  0  0  0  0  0  0  0  0  0  # atno 17321 bound_to 7965
  139.4826  144.4829  151.9283 LP  0  0  0  0  0  0  0  0  0  0  0  0  # atno 17342 bound_to 10162
  140.3915  144.2610  150.5899 LP  0  0  0  0  0  0  0  0  0  0  0  0  # atno 17343 bound_to 10162
  156.5515  130.8344  151.3301 LP  0  0  0  0  0  0  0  0  0  0  0  0  # atno 17370 bound_to 10713
  157.7369  130.9786  150.2162 LP  0  0  0  0  0  0  0  0  0  0  0  0  # atno 17371 bound_to 10713
  141.2210  133.7298  156.8883 LP  0  0  0  0  0  0  0  0  0  0  0  0  # atno 17394 bound_to 11000
  140.1654  134.9136  157.2768 LP  0  0  0  0  0  0  0  0  0  0  0  0  # atno 17395 bound_to 11000

$$$$
