AV-unprocessed.smi:290|AV-procd|sdf|2222|dock4
  -GOLD-   2262022 73D 1   1.00000     0.00000
 Structure written by MMmdl.
 59 62  0  0  0  0  0  0  0  0  2 V2000
  152.6151  141.2073  158.8646 C   0  0  0  0  0  0  0  0  0  0  0  0
  151.7805  142.4773  159.0932 C   0  0  1  0  0  0  0  0  0  0  0  0
  152.6635  143.3858  159.7548 O   0  0  0  0  0  0  0  0  0  0  0  0
  152.5645  144.6805  159.1851 C   0  0  0  0  0  0  0  0  0  0  0  0
  152.2339  144.3986  157.7273 C   0  0  0  0  0  0  0  0  0  0  0  0
  151.2729  143.2221  157.8252 C   0  0  2  0  0  0  0  0  0  0  0  0
  149.9919  143.7549  158.1169 O   0  0  0  0  0  0  0  0  0  0  0  0
  151.1745  142.4337  156.4893 C   0  0  0  0  0  0  0  0  0  0  0  0
  150.7984  141.0276  156.6031 N   0  0  0  0  0  0  0  0  0  0  0  0
  149.7521  140.4836  157.3200 C   0  0  0  0  0  0  0  0  0  0  0  0
  149.6206  139.1884  157.2261 N   0  0  0  0  0  0  0  0  0  0  0  0
  150.6331  138.8120  156.3560 C   0  0  0  0  0  0  0  0  0  0  0  0
  151.0506  137.5709  155.8105 C   0  0  0  0  0  0  0  0  0  0  0  0
  150.4203  136.4145  156.1170 N   0  0  0  0  0  0  0  0  0  0  0  0
  151.3088  135.3307  156.4897 C   0  0  0  0  0  0  0  0  0  0  0  0
  150.4701  134.0571  156.3813 C   0  0  0  0  0  0  0  0  0  0  0  0
  149.2091  134.4410  155.5776 C   0  0  2  0  0  0  0  0  0  0  0  0
  148.9222  133.4378  154.5037 N   0  3  1  0  0  0  0  0  0  0  0  0
  149.0622  132.0505  155.0185 C   0  0  0  0  0  0  0  0  0  0  0  0
  147.6434  133.6423  153.7646 C   0  0  0  0  0  0  0  0  0  0  0  0
  147.3074  132.5173  152.7674 C   0  0  0  0  0  0  0  0  0  0  0  0
  147.7841  132.8441  151.4788 O   0  0  0  0  0  0  0  0  0  0  0  0
  149.5039  135.8881  155.1128 C   0  0  1  0  0  0  0  0  0  0  0  0
  148.2544  136.7914  155.0142 C   0  0  0  0  0  0  0  0  0  0  0  0
  152.1024  137.5737  154.9495 N   0  0  0  0  0  0  0  0  0  0  0  0
  152.7083  138.7251  154.6433 C   0  0  0  0  0  0  0  0  0  0  0  0
  152.4273  139.9566  155.0756 N   0  0  0  0  0  0  0  0  0  0  0  0
  151.3726  139.9535  155.9418 C   0  0  0  0  0  0  0  0  0  0  0  0
  148.3594  134.4723  156.2627 H   0  0  0  0  0  0  0  0  0  0  0  0
  150.0219  135.8612  154.1529 H   0  0  0  0  0  0  0  0  0  0  0  0
  152.0022  140.3787  158.5172 H   0  0  0  0  0  0  0  0  0  0  0  0
  153.0781  140.8809  159.7962 H   0  0  0  0  0  0  0  0  0  0  0  0
  153.4139  141.3752  158.1420 H   0  0  0  0  0  0  0  0  0  0  0  0
  150.9530  142.2365  159.7627 H   0  0  0  0  0  0  0  0  0  0  0  0
  151.7583  145.2315  159.6715 H   0  0  0  0  0  0  0  0  0  0  0  0
  153.4893  145.2444  159.3073 H   0  0  0  0  0  0  0  0  0  0  0  0
  151.8202  145.2636  157.2070 H   0  0  0  0  0  0  0  0  0  0  0  0
  153.1444  144.1007  157.2053 H   0  0  0  0  0  0  0  0  0  0  0  0
  149.6484  144.1561  157.3333 H   0  0  0  0  0  0  0  0  0  0  0  0
  150.4530  142.9151  155.8279 H   0  0  0  0  0  0  0  0  0  0  0  0
  152.1298  142.4886  155.9669 H   0  0  0  0  0  0  0  0  0  0  0  0
  149.0750  141.0723  157.9200 H   0  0  0  0  0  0  0  0  0  0  0  0
  152.1629  135.2773  155.8128 H   0  0  0  0  0  0  0  0  0  0  0  0
  151.6902  135.4731  157.5014 H   0  0  0  0  0  0  0  0  0  0  0  0
  151.0556  133.2725  155.9003 H   0  0  0  0  0  0  0  0  0  0  0  0
  150.1894  133.6939  157.3707 H   0  0  0  0  0  0  0  0  0  0  0  0
  148.2134  131.7817  155.6486 H   0  0  0  0  0  0  0  0  0  0  0  0
  149.9674  131.9266  155.6122 H   0  0  0  0  0  0  0  0  0  0  0  0
  149.1330  131.3277  154.2070 H   0  0  0  0  0  0  0  0  0  0  0  0
  146.8295  133.7523  154.4824 H   0  0  0  0  0  0  0  0  0  0  0  0
  147.6860  134.5626  153.1850 H   0  0  0  0  0  0  0  0  0  0  0  0
  147.7024  131.5513  153.0794 H   0  0  0  0  0  0  0  0  0  0  0  0
  146.2256  132.3954  152.7060 H   0  0  0  0  0  0  0  0  0  0  0  0
  148.1934  132.0791  151.1033 H   0  0  0  0  0  0  0  0  0  0  0  0
  147.5075  136.4110  154.3212 H   0  0  0  0  0  0  0  0  0  0  0  0
  148.5186  137.7931  154.6744 H   0  0  0  0  0  0  0  0  0  0  0  0
  147.7699  136.8946  155.9858 H   0  0  0  0  0  0  0  0  0  0  0  0
  153.5359  138.6501  153.9533 H   0  0  0  0  0  0  0  0  0  0  0  0
  149.6511  133.5621  153.8152 H   0  0  0  0  0  0  0  0  0  0  0  0
  1  2  1  0  0  0  0
  1 31  1  0  0  0  0
  1 32  1  0  0  0  0
  1 33  1  0  0  0  0
  2  6  1  0  0  0  0
  2  3  1  0  0  0  0
  2 34  1  0  0  0  0
  3  4  1  0  0  0  0
  4  5  1  0  0  0  0
  4 35  1  0  0  0  0
  4 36  1  0  0  0  0
  5  6  1  0  0  0  0
  5 37  1  0  0  0  0
  5 38  1  0  0  0  0
  6  7  1  0  0  0  0
  6  8  1  0  0  0  0
  7 39  1  0  0  0  0
  8  9  1  0  0  0  0
  8 40  1  0  0  0  0
  8 41  1  0  0  0  0
  9 28  1  0  0  0  0
  9 10  1  0  0  0  0
 10 11  2  0  0  0  0
 10 42  1  0  0  0  0
 11 12  1  0  0  0  0
 12 28  2  0  0  0  0
 12 13  1  0  0  0  0
 13 14  1  0  0  0  0
 13 25  2  0  0  0  0
 14 23  1  0  0  0  0
 14 15  1  0  0  0  0
 15 16  1  0  0  0  0
 15 43  1  0  0  0  0
 15 44  1  0  0  0  0
 16 17  1  0  0  0  0
 16 45  1  0  0  0  0
 16 46  1  0  0  0  0
 17 29  1  0  0  0  0
 17 18  1  0  0  0  0
 17 23  1  0  0  0  0
 18 19  1  0  0  0  0
 18 20  1  0  0  0  0
 18 59  1  0  0  0  0
 19 47  1  0  0  0  0
 19 48  1  0  0  0  0
 19 49  1  0  0  0  0
 20 21  1  0  0  0  0
 20 50  1  0  0  0  0
 20 51  1  0  0  0  0
 21 22  1  0  0  0  0
 21 52  1  0  0  0  0
 21 53  1  0  0  0  0
 22 54  1  0  0  0  0
 23 30  1  0  0  0  0
 23 24  1  0  0  0  0
 24 55  1  0  0  0  0
 24 56  1  0  0  0  0
 24 57  1  0  0  0  0
 25 26  1  0  0  0  0
 26 27  2  0  0  0  0
 26 58  1  0  0  0  0
 27 28  1  0  0  0  0
M  CHG  1  18   1
M  END
> <s_m_source_file>
AV-unprocessed.smi

> <i_m_source_file_index>
290

> <i_lp_mmshare_version>
43012

> <i_f3d_flags>
0

> <s_epik_input>
W0NIMl0xW0NIMl1PW0NAQEhdKFtDSDNdKVtDQEBdMShbT0hdKVtDSDJdbihbY0hdbjIpYyhjMjMpbltjSF1uYzNONFtDSDJdW0NIMl1bQ0BIXShbQ0BIXTRbQ0gzXSlOKFtDSDNdKVtDSDJdW0NIMl1bT0hd

> <s_epik_cmdline>
J2VwaWtfcHl0aG9uJywgJy1waCcsICc3LjAnLCAnLXRuJywgJzgnLCAnLW1hJywgJzIwMCcsICctbWV0YWxfYmluZGluZycsICctaW1hZScsICc8aW5maWxlLm1hZT4nLCAnLW9tYWUnLCAnPG91dGZpbGUubWFlPic=

> <r_lp_tautomer_probability>
1

> <r_epik_Ionization_Penalty>
0.0036983

> <r_epik_Ionization_Penalty_Charging>
0.0032725

> <r_epik_Ionization_Penalty_Neutral>
0.000425798

> <r_epik_State_Penalty>
-0

> <r_epik_Charging_Adjusted_Penalty>
0.0032725

> <i_epik_Tot_Q>
1

> <i_epik_Tot_abs_Q>
1

> <r_epik_Metal_State_Penalty>
-0

> <b_epik_Metal_Only>
0

> <s_lp_Force_Field>
OPLS_2005

> <r_lp_Energy>
67.3345

> <b_lp_Chiralities_Consistent>
1

> <s_lp_Variant>
AV-unprocessed.smi:290-8

> <Gold.Version>
5.8.1

> <Gold.Id.Protein>
6NUR|6NUR_protein|mol2

> <Gold.PLP.Fitness>
54.8468

> <Gold.PLP.PLP>
-46.4973

> <Gold.PLP.part.hbond>
-5.1390

> <Gold.PLP.part.metal>
0.0000

> <Gold.PLP.part.buried>
-7.0917

> <Gold.PLP.part.nonpolar>
-34.2951

> <Gold.PLP.part.repulsive>
0.1118

> <Gold.PLP.ligand.clash>
0.0000

> <Gold.PLP.ligand.torsion>
1.4174

> <Gold.PLP.Chemscore.Hbond>
3.6799

> <Gold.PLP.Chemscore.CHOScore>
0.0000

> <Gold.PLP.Chemscore.Metal>
0.0000

> <Gold.Chemscore.Hbonds>
donor molecule, donor type, donor heavy atom, donor atom, acceptor molecule, acceptor atom, score
      L1  H     7    39       P1  8028  1.00
      L1  H    22    54       P1 10747  1.00
      P1  H  7989  7998       L1    27  0.62
      P1  H  7997  8010       L1    27  0.37
      P1  H 10752 10763       L1    25  0.51

> <Gold.PLP.Chemscore.Internal.Correction>
0.1446

> <Gold.Rescore>
     Score         DG    S(hbond)    S(metal)    S(lipo)     H(rot)  DE(clash)    DE(int)     intcor
     14.61     -17.45       2.91        0.00      99.33       3.67       0.21       2.63       ----

> <Gold.Chemscore.Fitness>
14.6103

> <Gold.Chemscore.DG>
-17.4461

> <Gold.Chemscore.ZeroCoef>
-5.4800

> <Gold.Chemscore.Hbond>
2.9128

> <Gold.Chemscore.Metal>
0.0000

> <Gold.Chemscore.Lipo>
99.3309

> <Gold.Chemscore.Internal_Hbond>
0.0000

> <Gold.Chemscore.DEClash>
0.2062

> <Gold.Chemscore.DEInternal>
2.6296

> <Gold.Chemscore.Rot>
3.6658

> <Gold.Chemscore.Internal.Correction>
   9.000000E+99

> <Gold.Chemscore.Hbonds>
donor molecule, donor type, donor heavy atom, donor atom, acceptor molecule, acceptor atom, score
      L1  H     7    39       P1  8028  0.35
      L1  H    22    54       P1 10747  1.00
      P1  H  7989  7998       L1    27  0.11
      P1  H  7997  8010       L1    27  0.03
      P1  H 10752 10763       L1    25  0.45

> <Gold.Chemscore.Hbond.Weighted>
-9.7288

> <Gold.Chemscore.Metal.Weighted>
-0.0000

> <Gold.Chemscore.Lipo.Weighted>
-11.6217

> <Gold.Chemscore.Internal_Hbond.Weighted>
0.0000

> <Gold.Chemscore.DEClash.Weighted>
0.2062

> <Gold.Chemscore.DEInternal.Weighted>
2.6296

> <Gold.Chemscore.Rot.Weighted>
9.3844

> <Gold.Chemscore.Internal.Correction.Weighted>
   9.000000E+99

> <Gold.Protein.RotatedTorsions>
[ 6907 6896 6895 6894 ] final  -21.24 input  -60.11 | X-H torsion
[ 7974 7965 7964 7962 ] final -146.56 input  175.53 | X-H torsion
[ 8008 7997 7996 7995 ] final   91.08 input   59.86 | X-H torsion
[ 10167 10162 10161 10158 ] final  124.67 input  -65.29 | X-H torsion
[ 10718 10713 10712 10709 ] final    4.45 input   66.30 | X-H torsion
[ 10763 10752 10751 10750 ] final   56.12 input  -60.55 | X-H torsion
[ 11005 11000 10999 10996 ] final   97.30 input  -57.11 | X-H torsion

> <Gold.Protein.ActiveResidues>
 VAL166  LYS551  ARG553  GLY616  TRP617  ASP618  TYR619  PRO620  LYS621  CYS622 
 ASP623  PHE694  ASN695  SER759  ASP760  ASP761  ALA762  ILE779  LEU786  VAL792 
 PHE793  MET794  SER795  GLU796  ALA797  LYS798  CYS799  TRP800  GLU811  SER814 

> <Gold.Protein.RotatedAtoms>
  151.2363  135.0572  159.9007 H   0  0  0  0  0  0  0  0  0  0  0  0  # atno 6907 bound_to 6896
  152.5399  134.0483  159.8108 H   0  0  0  0  0  0  0  0  0  0  0  0  # atno 6908 bound_to 6896
  151.0670  133.5448  159.2661 H   0  0  0  0  0  0  0  0  0  0  0  0  # atno 6909 bound_to 6896
  144.8151  140.5440  143.5616 H   0  0  0  0  0  0  0  0  0  0  0  0  # atno 7974 bound_to 7965
  156.0196  140.3342  155.7025 H   0  0  0  0  0  0  0  0  0  0  0  0  # atno 8008 bound_to 7997
  155.6041  140.0658  157.2742 H   0  0  0  0  0  0  0  0  0  0  0  0  # atno 8009 bound_to 7997
  154.4311  140.1805  156.1192 H   0  0  0  0  0  0  0  0  0  0  0  0  # atno 8010 bound_to 7997
  139.5729  144.6948  151.3731 H   0  0  0  0  0  0  0  0  0  0  0  0  # atno 10167 bound_to 10162
  156.8927  130.5693  149.5649 H   0  0  0  0  0  0  0  0  0  0  0  0  # atno 10718 bound_to 10713
  152.9827  135.5687  154.5178 H   0  0  0  0  0  0  0  0  0  0  0  0  # atno 10763 bound_to 10752
  154.4671  135.2783  155.1672 H   0  0  0  0  0  0  0  0  0  0  0  0  # atno 10764 bound_to 10752
  154.3236  135.6264  153.5572 H   0  0  0  0  0  0  0  0  0  0  0  0  # atno 10765 bound_to 10752
  139.8776  134.8994  156.4287 H   0  0  0  0  0  0  0  0  0  0  0  0  # atno 11005 bound_to 11000
  145.5232  139.1476  143.3540 LP  0  0  0  0  0  0  0  0  0  0  0  0  # atno 17320 bound_to 7965
  146.2454  140.5373  142.8916 LP  0  0  0  0  0  0  0  0  0  0  0  0  # atno 17321 bound_to 7965
  140.7012  143.7626  150.7407 LP  0  0  0  0  0  0  0  0  0  0  0  0  # atno 17342 bound_to 10162
  140.1137  143.4676  152.2355 LP  0  0  0  0  0  0  0  0  0  0  0  0  # atno 17343 bound_to 10162
  156.0621  130.5671  150.9213 LP  0  0  0  0  0  0  0  0  0  0  0  0  # atno 17370 bound_to 10713
  157.6074  131.0938  150.8856 LP  0  0  0  0  0  0  0  0  0  0  0  0  # atno 17371 bound_to 10713
  140.9082  133.7730  155.9760 LP  0  0  0  0  0  0  0  0  0  0  0  0  # atno 17394 bound_to 11000
  140.8575  134.2880  157.5249 LP  0  0  0  0  0  0  0  0  0  0  0  0  # atno 17395 bound_to 11000

$$$$
