AV-unprocessed.smi:740|AV-procd|sdf|3549|dock8
  -GOLD-   22720 0543D 1   1.00000     0.00000
 Structure written by MMmdl.
 44 46  0  0  0  0  0  0  0  0  1 V2000
  153.2962  142.9838  163.5446 C   0  0  0  0  0  0  0  0  0  0  0  0
  152.9354  142.5917  162.1226 C   0  0  0  0  0  0  0  0  0  0  0  0
  152.1115  143.4508  161.3613 C   0  0  0  0  0  0  0  0  0  0  0  0
  151.7562  143.1256  160.0341 C   0  0  0  0  0  0  0  0  0  0  0  0
  150.9746  143.8113  159.1201 N   0  0  0  0  0  0  0  0  0  0  0  0
  151.0251  143.0028  158.0655 C   0  0  0  0  0  0  0  0  0  0  0  0
  151.7468  141.8725  158.1886 N   0  0  0  0  0  0  0  0  0  0  0  0
  151.9478  140.8539  157.1738 C   0  0  0  0  0  0  0  0  0  0  0  0
  150.9062  140.9407  156.0418 C   0  0  1  0  0  0  0  0  0  0  0  0
  151.2878  140.0538  155.0074 O   0  0  0  0  0  0  0  0  0  0  0  0
  149.4961  140.5533  156.5334 C   0  0  0  0  0  0  0  0  0  0  0  0
  148.4575  140.9154  155.5618 N   0  0  0  0  0  0  0  0  0  0  0  0
  148.3715  140.3998  154.3279 C   0  0  0  0  0  0  0  0  0  0  0  0
  149.1351  139.5737  153.8290 O   0  0  0  0  0  0  0  0  0  0  0  0
  147.1704  140.9644  153.5823 C   0  0  0  0  0  0  0  0  0  0  0  0
  146.5440  141.9286  154.6008 C   0  0  2  0  0  0  0  0  0  0  0  0
  146.4615  143.3825  154.1070 C   0  0  0  0  0  0  0  0  0  0  0  0
  147.4710  141.7894  155.8069 C   0  0  0  0  0  0  0  0  0  0  0  0
  147.2993  142.4157  156.8528 O   0  0  0  0  0  0  0  0  0  0  0  0
  152.2521  141.9074  159.4840 C   0  0  0  0  0  0  0  0  0  0  0  0
  153.0711  141.0432  160.2321 C   0  0  0  0  0  0  0  0  0  0  0  0
  153.4164  141.3834  161.5570 C   0  0  0  0  0  0  0  0  0  0  0  0
  154.3030  140.4449  162.3560 C   0  0  0  0  0  0  0  0  0  0  0  0
  152.8163  143.9193  163.8338 H   0  0  0  0  0  0  0  0  0  0  0  0
  154.3740  143.1166  163.6410 H   0  0  0  0  0  0  0  0  0  0  0  0
  152.9772  142.2141  164.2476 H   0  0  0  0  0  0  0  0  0  0  0  0
  151.7453  144.3717  161.7907 H   0  0  0  0  0  0  0  0  0  0  0  0
  150.5104  143.2468  157.1476 H   0  0  0  0  0  0  0  0  0  0  0  0
  152.9595  140.9461  156.7767 H   0  0  0  0  0  0  0  0  0  0  0  0
  151.8931  139.8790  157.6605 H   0  0  0  0  0  0  0  0  0  0  0  0
  150.9014  141.9571  155.6456 H   0  0  0  0  0  0  0  0  0  0  0  0
  151.4242  139.1964  155.3805 H   0  0  0  0  0  0  0  0  0  0  0  0
  149.4534  139.4923  156.7869 H   0  0  0  0  0  0  0  0  0  0  0  0
  149.2803  141.0767  157.4664 H   0  0  0  0  0  0  0  0  0  0  0  0
  147.4962  141.4695  152.6723 H   0  0  0  0  0  0  0  0  0  0  0  0
  146.4831  140.1634  153.3081 H   0  0  0  0  0  0  0  0  0  0  0  0
  145.5503  141.5786  154.8830 H   0  0  0  0  0  0  0  0  0  0  0  0
  146.0086  144.0299  154.8588 H   0  0  0  0  0  0  0  0  0  0  0  0
  145.8520  143.4516  153.2057 H   0  0  0  0  0  0  0  0  0  0  0  0
  147.4481  143.7835  153.8711 H   0  0  0  0  0  0  0  0  0  0  0  0
  153.4333  140.1279  159.7880 H   0  0  0  0  0  0  0  0  0  0  0  0
  154.5915  139.5728  161.7684 H   0  0  0  0  0  0  0  0  0  0  0  0
  153.7804  140.0911  163.2451 H   0  0  0  0  0  0  0  0  0  0  0  0
  155.2146  140.9539  162.6690 H   0  0  0  0  0  0  0  0  0  0  0  0
  1  2  1  0  0  0  0
  1 24  1  0  0  0  0
  1 25  1  0  0  0  0
  1 26  1  0  0  0  0
  2 22  1  0  0  0  0
  2  3  2  0  0  0  0
  3  4  1  0  0  0  0
  3 27  1  0  0  0  0
  4 20  2  0  0  0  0
  4  5  1  0  0  0  0
  5  6  2  0  0  0  0
  6  7  1  0  0  0  0
  6 28  1  0  0  0  0
  7  8  1  0  0  0  0
  7 20  1  0  0  0  0
  8  9  1  0  0  0  0
  8 29  1  0  0  0  0
  8 30  1  0  0  0  0
  9 10  1  0  0  0  0
  9 11  1  0  0  0  0
  9 31  1  0  0  0  0
 10 32  1  0  0  0  0
 11 12  1  0  0  0  0
 11 33  1  0  0  0  0
 11 34  1  0  0  0  0
 12 18  1  0  0  0  0
 12 13  1  0  0  0  0
 13 14  2  0  0  0  0
 13 15  1  0  0  0  0
 15 16  1  0  0  0  0
 15 35  1  0  0  0  0
 15 36  1  0  0  0  0
 16 17  1  0  0  0  0
 16 18  1  0  0  0  0
 16 37  1  0  0  0  0
 17 38  1  0  0  0  0
 17 39  1  0  0  0  0
 17 40  1  0  0  0  0
 18 19  2  0  0  0  0
 20 21  1  0  0  0  0
 21 22  2  0  0  0  0
 21 41  1  0  0  0  0
 22 23  1  0  0  0  0
 23 42  1  0  0  0  0
 23 43  1  0  0  0  0
 23 44  1  0  0  0  0
M  END
> <s_m_source_file>
AV-unprocessed.smi

> <i_m_source_file_index>
740

> <i_lp_mmshare_version>
43012

> <i_f3d_flags>
0

> <s_epik_input>
W0NIM11jKFtjSF0xKWMoW0NIM10pW2NIXWMoYzEyKW4oW2NIXW4yKVtDSDJdW0NASF0oW09IXSlbQ0gyXU4zQyg9TylbQ0gyXVtDQEBIXShbQ0gzXSlDMz1P

> <s_epik_cmdline>
J2VwaWtfcHl0aG9uJywgJy1waCcsICc3LjAnLCAnLXRuJywgJzgnLCAnLW1hJywgJzIwMCcsICctbWV0YWxfYmluZGluZycsICctaW1hZScsICc8aW5maWxlLm1hZT4nLCAnLW9tYWUnLCAnPG91dGZpbGUubWFlPic=

> <r_lp_tautomer_probability>
1

> <r_epik_Ionization_Penalty>
0.104021

> <r_epik_Ionization_Penalty_Charging>
0

> <r_epik_Ionization_Penalty_Neutral>
0.104021

> <r_epik_State_Penalty>
0.0939354

> <r_epik_Charging_Adjusted_Penalty>
0.0939354

> <i_epik_Tot_Q>
0

> <i_epik_Tot_abs_Q>
0

> <r_epik_Metal_State_Penalty>
0.000101783

> <b_epik_Metal_Only>
0

> <s_lp_Force_Field>
OPLS_2005

> <r_lp_Energy>
16.4677

> <b_lp_Chiralities_Consistent>
1

> <s_lp_Variant>
AV-unprocessed.smi:740-4

> <Gold.Version>
5.8.1

> <Gold.Id.Protein>
6NUR|6NUR_protein|mol2

> <Gold.PLP.Fitness>
54.0460

> <Gold.PLP.PLP>
-48.7486

> <Gold.PLP.part.hbond>
-1.0000

> <Gold.PLP.part.metal>
0.0000

> <Gold.PLP.part.buried>
-8.0754

> <Gold.PLP.part.nonpolar>
-41.2692

> <Gold.PLP.part.repulsive>
2.6510

> <Gold.PLP.ligand.clash>
0.0000

> <Gold.PLP.ligand.torsion>
0.3647

> <Gold.PLP.Chemscore.Hbond>
1.0000

> <Gold.PLP.Chemscore.CHOScore>
1.0000

> <Gold.PLP.Chemscore.Metal>
0.0000

> <Gold.Chemscore.Hbonds>
donor molecule, donor type, donor heavy atom, donor atom, acceptor molecule, acceptor atom, score
      P1  H  7989  7998       L1    10  1.00
      L1  C     6    28       P1  8028  0.73

> <Gold.PLP.Chemscore.Internal.Correction>
0.0269

> <Gold.Rescore>
     Score         DG    S(hbond)    S(metal)    S(lipo)     H(rot)  DE(clash)    DE(int)     intcor
     14.14     -16.60       0.93        0.00     119.23       2.31       0.34       2.12       ----

> <Gold.Chemscore.Fitness>
14.1400

> <Gold.Chemscore.DG>
-16.6005

> <Gold.Chemscore.ZeroCoef>
-5.4800

> <Gold.Chemscore.Hbond>
0.9270

> <Gold.Chemscore.Metal>
0.0000

> <Gold.Chemscore.Lipo>
119.2289

> <Gold.Chemscore.Internal_Hbond>
0.0000

> <Gold.Chemscore.DEClash>
0.3365

> <Gold.Chemscore.DEInternal>
2.1241

> <Gold.Chemscore.Rot>
2.3147

> <Gold.Chemscore.Internal.Correction>
   9.000000E+99

> <Gold.Chemscore.Hbonds>
donor molecule, donor type, donor heavy atom, donor atom, acceptor molecule, acceptor atom, score
      P1  H  7989  7998       L1    10  0.85

> <Gold.Chemscore.Hbond.Weighted>
-3.0963

> <Gold.Chemscore.Metal.Weighted>
-0.0000

> <Gold.Chemscore.Lipo.Weighted>
-13.9498

> <Gold.Chemscore.Internal_Hbond.Weighted>
0.0000

> <Gold.Chemscore.DEClash.Weighted>
0.3365

> <Gold.Chemscore.DEInternal.Weighted>
2.1241

> <Gold.Chemscore.Rot.Weighted>
5.9256

> <Gold.Chemscore.Internal.Correction.Weighted>
   9.000000E+99

> <Gold.Protein.RotatedTorsions>
[ 6907 6896 6895 6894 ] final   -5.77 input  -60.11 | X-H torsion
[ 7974 7965 7964 7962 ] final   23.26 input  175.53 | X-H torsion
[ 8008 7997 7996 7995 ] final  130.85 input   59.86 | X-H torsion
[ 10167 10162 10161 10158 ] final -122.71 input  -65.29 | X-H torsion
[ 10718 10713 10712 10709 ] final  -27.90 input   66.30 | X-H torsion
[ 10763 10752 10751 10750 ] final   30.90 input  -60.55 | X-H torsion
[ 11005 11000 10999 10996 ] final -151.38 input  -57.11 | X-H torsion

> <Gold.Protein.ActiveResidues>
 VAL166  LYS551  ARG553  GLY616  TRP617  ASP618  TYR619  PRO620  LYS621  CYS622 
 ASP623  PHE694  ASN695  SER759  ASP760  ASP761  ALA762  ILE779  LEU786  VAL792 
 PHE793  MET794  SER795  GLU796  ALA797  LYS798  CYS799  TRP800  GLU811  SER814 

> <Gold.Protein.RotatedAtoms>
  151.4762  135.1049  159.9764 H   0  0  0  0  0  0  0  0  0  0  0  0  # atno 6907 bound_to 6896
  152.4797  133.8220  159.7069 H   0  0  0  0  0  0  0  0  0  0  0  0  # atno 6908 bound_to 6896
  150.8860  133.7246  159.2945 H   0  0  0  0  0  0  0  0  0  0  0  0  # atno 6909 bound_to 6896
  146.1992  139.7770  142.8774 H   0  0  0  0  0  0  0  0  0  0  0  0  # atno 7974 bound_to 7965
  156.2961  140.2586  156.2830 H   0  0  0  0  0  0  0  0  0  0  0  0  # atno 8008 bound_to 7997
  154.9583  140.0393  157.2196 H   0  0  0  0  0  0  0  0  0  0  0  0  # atno 8009 bound_to 7997
  154.7970  140.2821  155.5954 H   0  0  0  0  0  0  0  0  0  0  0  0  # atno 8010 bound_to 7997
  140.0113  143.5439  152.2262 H   0  0  0  0  0  0  0  0  0  0  0  0  # atno 10167 bound_to 10162
  156.4322  130.4447  149.7109 H   0  0  0  0  0  0  0  0  0  0  0  0  # atno 10718 bound_to 10713
  153.0346  135.6452  154.1115 H   0  0  0  0  0  0  0  0  0  0  0  0  # atno 10763 bound_to 10752
  154.0832  135.2872  155.3288 H   0  0  0  0  0  0  0  0  0  0  0  0  # atno 10764 bound_to 10752
  154.6515  135.5424  153.7972 H   0  0  0  0  0  0  0  0  0  0  0  0  # atno 10765 bound_to 10752
  140.7302  134.3629  157.5168 H   0  0  0  0  0  0  0  0  0  0  0  0  # atno 11005 bound_to 11000
  145.3540  141.0313  143.3322 LP  0  0  0  0  0  0  0  0  0  0  0  0  # atno 17320 bound_to 7965
  144.8647  139.5126  143.6796 LP  0  0  0  0  0  0  0  0  0  0  0  0  # atno 17321 bound_to 7965
  139.6203  144.7628  151.2755 LP  0  0  0  0  0  0  0  0  0  0  0  0  # atno 17342 bound_to 10162
  140.7380  143.6661  150.8122 LP  0  0  0  0  0  0  0  0  0  0  0  0  # atno 17343 bound_to 10162
  156.4008  130.7673  151.2681 LP  0  0  0  0  0  0  0  0  0  0  0  0  # atno 17370 bound_to 10713
  157.7508  131.0240  150.3859 LP  0  0  0  0  0  0  0  0  0  0  0  0  # atno 17371 bound_to 10713
  139.8828  134.9013  156.2808 LP  0  0  0  0  0  0  0  0  0  0  0  0  # atno 17394 bound_to 11000
  140.9927  133.7199  156.0839 LP  0  0  0  0  0  0  0  0  0  0  0  0  # atno 17395 bound_to 11000

$$$$
