AV-unprocessed.smi:837|AV-procd|sdf|3905|dock5
  -GOLD-   22720 1363D 1   1.00000     0.00000
 Structure written by MMmdl.
 49 51  0  0  0  0  0  0  0  0  3 V2000
  144.7790  138.2126  160.1019 C   0  0  0  0  0  0  0  0  0  0  0  0
  145.1189  137.2990  161.3001 C   0  0  1  0  0  0  0  0  0  0  0  0
  143.8850  136.4510  161.6813 C   0  0  0  0  0  0  0  0  0  0  0  0
  144.1464  135.5814  162.9194 C   0  0  0  0  0  0  0  0  0  0  0  0
  145.3644  134.6731  162.7125 C   0  0  0  0  0  0  0  0  0  0  0  0
  146.6097  135.4962  162.3413 C   0  0  0  0  0  0  0  0  0  0  0  0
  146.3998  136.4188  161.1101 C   0  0  2  0  0  0  0  0  0  0  0  0
  147.5738  137.2620  160.9619 N   0  5  0  0  0  0  0  0  0  0  0  0
  148.1669  136.9913  159.7768 C   0  0  0  0  0  0  0  0  0  0  0  0
  149.1947  137.5063  159.3365 O   0  0  0  0  0  0  0  0  0  0  0  0
  147.4924  136.0405  159.1032 N   0  0  0  0  0  0  0  0  0  0  0  0
  147.9037  135.4818  157.8098 C   0  0  0  0  0  0  0  0  0  0  0  0
  146.7220  135.4387  156.8376 C   0  0  0  0  0  0  0  0  0  0  0  0
  145.6400  135.9337  157.1519 O   0  0  0  0  0  0  0  0  0  0  0  0
  146.9450  134.8262  155.6658 N   0  0  0  0  0  0  0  0  0  0  0  0
  145.9453  134.5792  154.6313 C   0  0  0  0  0  0  0  0  0  0  0  0
  146.5148  134.6452  153.1959 C   0  0  0  0  0  0  0  0  0  0  0  0
  145.6242  134.0157  152.1342 C   0  0  0  0  0  0  0  0  0  0  0  0
  146.0738  132.9015  151.3900 C   0  0  0  0  0  0  0  0  0  0  0  0
  145.2364  132.3436  150.4024 C   0  0  0  0  0  0  0  0  0  0  0  0
  143.9719  132.9196  150.1696 C   0  0  0  0  0  0  0  0  0  0  0  0
  143.5742  133.9843  150.8995 N   0  3  0  0  0  0  0  0  0  0  0  0
  144.3416  134.5406  151.8626 C   0  0  0  0  0  0  0  0  0  0  0  0
  146.4303  135.6276  159.8033 C   0  0  0  0  0  0  0  0  0  0  0  0
  145.6167  134.7623  159.4782 O   0  0  0  0  0  0  0  0  0  0  0  0
  144.5205  137.6379  159.2122 H   0  0  0  0  0  0  0  0  0  0  0  0
  145.6118  138.8678  159.8458 H   0  0  0  0  0  0  0  0  0  0  0  0
  143.9279  138.8533  160.3327 H   0  0  0  0  0  0  0  0  0  0  0  0
  145.3122  137.9631  162.1445 H   0  0  0  0  0  0  0  0  0  0  0  0
  143.0356  137.1053  161.8797 H   0  0  0  0  0  0  0  0  0  0  0  0
  143.5874  135.8178  160.8453 H   0  0  0  0  0  0  0  0  0  0  0  0
  144.3105  136.2211  163.7873 H   0  0  0  0  0  0  0  0  0  0  0  0
  143.2664  134.9773  163.1417 H   0  0  0  0  0  0  0  0  0  0  0  0
  145.5582  134.1045  163.6223 H   0  0  0  0  0  0  0  0  0  0  0  0
  145.1500  133.9380  161.9370 H   0  0  0  0  0  0  0  0  0  0  0  0
  146.8943  136.1009  163.2042 H   0  0  0  0  0  0  0  0  0  0  0  0
  147.4436  134.8142  162.1687 H   0  0  0  0  0  0  0  0  0  0  0  0
  148.7023  136.0809  157.3690 H   0  0  0  0  0  0  0  0  0  0  0  0
  148.3231  134.4830  157.9433 H   0  0  0  0  0  0  0  0  0  0  0  0
  147.8702  134.4557  155.5016 H   0  0  0  0  0  0  0  0  0  0  0  0
  145.4484  133.6237  154.8043 H   0  0  0  0  0  0  0  0  0  0  0  0
  145.1806  135.3476  154.7471 H   0  0  0  0  0  0  0  0  0  0  0  0
  146.6920  135.6882  152.9312 H   0  0  0  0  0  0  0  0  0  0  0  0
  147.4915  134.1615  153.1661 H   0  0  0  0  0  0  0  0  0  0  0  0
  147.0536  132.4810  151.5637 H   0  0  0  0  0  0  0  0  0  0  0  0
  145.5679  131.4993  149.8159 H   0  0  0  0  0  0  0  0  0  0  0  0
  143.2764  132.5691  149.4212 H   0  0  0  0  0  0  0  0  0  0  0  0
  143.9146  135.3918  152.3722 H   0  0  0  0  0  0  0  0  0  0  0  0
  142.6574  134.3893  150.7097 H   0  0  0  0  0  0  0  0  0  0  0  0
  1  2  1  0  0  0  0
  1 26  1  0  0  0  0
  1 27  1  0  0  0  0
  1 28  1  0  0  0  0
  2  7  1  0  0  0  0
  2  3  1  0  0  0  0
  2 29  1  0  0  0  0
  3  4  1  0  0  0  0
  3 30  1  0  0  0  0
  3 31  1  0  0  0  0
  4  5  1  0  0  0  0
  4 32  1  0  0  0  0
  4 33  1  0  0  0  0
  5  6  1  0  0  0  0
  5 34  1  0  0  0  0
  5 35  1  0  0  0  0
  6  7  1  0  0  0  0
  6 36  1  0  0  0  0
  6 37  1  0  0  0  0
  7 24  1  0  0  0  0
  7  8  1  0  0  0  0
  8  9  1  0  0  0  0
  9 10  2  0  0  0  0
  9 11  1  0  0  0  0
 11 12  1  0  0  0  0
 11 24  1  0  0  0  0
 12 13  1  0  0  0  0
 12 38  1  0  0  0  0
 12 39  1  0  0  0  0
 13 14  2  0  0  0  0
 13 15  1  0  0  0  0
 15 16  1  0  0  0  0
 15 40  1  0  0  0  0
 16 17  1  0  0  0  0
 16 41  1  0  0  0  0
 16 42  1  0  0  0  0
 17 18  1  0  0  0  0
 17 43  1  0  0  0  0
 17 44  1  0  0  0  0
 18 23  1  0  0  0  0
 18 19  2  0  0  0  0
 19 20  1  0  0  0  0
 19 45  1  0  0  0  0
 20 21  2  0  0  0  0
 20 46  1  0  0  0  0
 21 22  1  0  0  0  0
 21 47  1  0  0  0  0
 22 23  2  0  0  0  0
 22 49  1  0  0  0  0
 23 48  1  0  0  0  0
 24 25  2  0  0  0  0
M  CHG  1   8  -1
M  CHG  1  22   1
M  END
> <s_m_source_file>
AV-unprocessed.smi

> <i_m_source_file_index>
837

> <i_lp_mmshare_version>
43012

> <i_f3d_flags>
0

> <s_epik_input>
W0NIMl0xW0NIMl1bQ0gyXVtDSDJdW0NAQEhdKFtDSDNdKVtDQEBdMTJbTkhdQyg9TylOKEMyPU8pW0NIMl1DKD1PKVtOSF1bQ0gyXVtDSDJdYzNbY0hdW2NIXVtjSF1uW2NIXTM=

> <s_epik_cmdline>
J2VwaWtfcHl0aG9uJywgJy1waCcsICc3LjAnLCAnLXRuJywgJzgnLCAnLW1hJywgJzIwMCcsICctbWV0YWxfYmluZGluZycsICctaW1hZScsICc8aW5maWxlLm1hZT4nLCAnLW9tYWUnLCAnPG91dGZpbGUubWFlPic=

> <r_lp_tautomer_probability>
1

> <r_epik_Ionization_Penalty>
8.27169

> <r_epik_Ionization_Penalty_Charging>
8.27169

> <r_epik_Ionization_Penalty_Neutral>
1.56557e-07

> <r_epik_State_Penalty>
8.42098

> <r_epik_Charging_Adjusted_Penalty>
16.6927

> <i_epik_Tot_Q>
0

> <i_epik_Tot_abs_Q>
2

> <r_epik_Metal_State_Penalty>
4.38565

> <b_epik_Metal_Only>
1

> <s_lp_Force_Field>
OPLS_2005

> <r_lp_Energy>
12.2851

> <b_lp_Chiralities_Consistent>
1

> <s_lp_Variant>
AV-unprocessed.smi:837-14

> <Gold.Version>
5.8.1

> <Gold.Id.Protein>
6NUR|6NUR_protein|mol2

> <Gold.PLP.Fitness>
49.7604

> <Gold.PLP.PLP>
-33.3693

> <Gold.PLP.part.hbond>
-3.1446

> <Gold.PLP.part.metal>
0.0000

> <Gold.PLP.part.buried>
-7.0348

> <Gold.PLP.part.nonpolar>
-23.9300

> <Gold.PLP.part.repulsive>
0.0000

> <Gold.PLP.ligand.clash>
0.0000

> <Gold.PLP.ligand.torsion>
0.4056

> <Gold.PLP.Chemscore.Hbond>
5.7120

> <Gold.PLP.Chemscore.CHOScore>
0.0000

> <Gold.PLP.Chemscore.Metal>
0.0000

> <Gold.Chemscore.Hbonds>
donor molecule, donor type, donor heavy atom, donor atom, acceptor molecule, acceptor atom, score
      L1  H    22    49       P1 10186  1.95
      P1  H  6931  6943       L1     8  1.66
      P1  H  6934  6947       L1     8  1.92

> <Gold.PLP.Chemscore.Internal.Correction>
0.0662

> <Gold.Rescore>
     Score         DG    S(hbond)    S(metal)    S(lipo)     H(rot)  DE(clash)    DE(int)     intcor
     12.99     -17.10       2.13        0.00      80.53       1.92       0.00       4.11       ----

> <Gold.Chemscore.Fitness>
12.9896

> <Gold.Chemscore.DG>
-17.0952

> <Gold.Chemscore.ZeroCoef>
-5.4800

> <Gold.Chemscore.Hbond>
2.1263

> <Gold.Chemscore.Metal>
0.0000

> <Gold.Chemscore.Lipo>
80.5305

> <Gold.Chemscore.Internal_Hbond>
0.0000

> <Gold.Chemscore.DEClash>
0.0000

> <Gold.Chemscore.DEInternal>
4.1056

> <Gold.Chemscore.Rot>
1.9175

> <Gold.Chemscore.Internal.Correction>
   9.000000E+99

> <Gold.Chemscore.Hbonds>
donor molecule, donor type, donor heavy atom, donor atom, acceptor molecule, acceptor atom, score
      L1  H    22    49       P1 10186  0.31
      P1  H  6931  6943       L1     8  0.24
      P1  H  6934  6947       L1     8  0.45

> <Gold.Chemscore.Hbond.Weighted>
-7.1019

> <Gold.Chemscore.Metal.Weighted>
-0.0000

> <Gold.Chemscore.Lipo.Weighted>
-9.4221

> <Gold.Chemscore.Internal_Hbond.Weighted>
0.0000

> <Gold.Chemscore.DEClash.Weighted>
0.0000

> <Gold.Chemscore.DEInternal.Weighted>
4.1056

> <Gold.Chemscore.Rot.Weighted>
4.9087

> <Gold.Chemscore.Internal.Correction.Weighted>
   9.000000E+99

> <Gold.Protein.RotatedTorsions>
[ 6907 6896 6895 6894 ] final -134.18 input  -60.11 | X-H torsion
[ 7974 7965 7964 7962 ] final -108.93 input  175.53 | X-H torsion
[ 8008 7997 7996 7995 ] final  -34.96 input   59.86 | X-H torsion
[ 10167 10162 10161 10158 ] final  138.94 input  -65.29 | X-H torsion
[ 10718 10713 10712 10709 ] final  -13.33 input   66.30 | X-H torsion
[ 10763 10752 10751 10750 ] final   81.71 input  -60.55 | X-H torsion
[ 11005 11000 10999 10996 ] final  -53.26 input  -57.11 | X-H torsion

> <Gold.Protein.ActiveResidues>
 VAL166  LYS551  ARG553  GLY616  TRP617  ASP618  TYR619  PRO620  LYS621  CYS622 
 ASP623  PHE694  ASN695  SER759  ASP760  ASP761  ALA762  ILE779  LEU786  VAL792 
 PHE793  MET794  SER795  GLU796  ALA797  LYS798  CYS799  TRP800  GLU811  SER814 

> <Gold.Protein.RotatedAtoms>
  150.9828  133.6228  159.2719 H   0  0  0  0  0  0  0  0  0  0  0  0  # atno 6907 bound_to 6896
  151.3477  135.0876  159.9402 H   0  0  0  0  0  0  0  0  0  0  0  0  # atno 6908 bound_to 6896
  152.5221  133.9427  159.7688 H   0  0  0  0  0  0  0  0  0  0  0  0  # atno 6909 bound_to 6896
  145.1868  140.8996  143.3448 H   0  0  0  0  0  0  0  0  0  0  0  0  # atno 7974 bound_to 7965
  154.4107  140.1670  156.2134 H   0  0  0  0  0  0  0  0  0  0  0  0  # atno 8008 bound_to 7997
  155.9425  140.3407  155.6316 H   0  0  0  0  0  0  0  0  0  0  0  0  # atno 8009 bound_to 7997
  155.6972  140.0741  157.2415 H   0  0  0  0  0  0  0  0  0  0  0  0  # atno 8010 bound_to 7997
  139.5094  144.6324  151.5784 H   0  0  0  0  0  0  0  0  0  0  0  0  # atno 10167 bound_to 10162
  156.6318  130.4903  149.6126 H   0  0  0  0  0  0  0  0  0  0  0  0  # atno 10718 bound_to 10713
  153.1140  135.4755  154.9083 H   0  0  0  0  0  0  0  0  0  0  0  0  # atno 10763 bound_to 10752
  154.7509  135.3106  154.8561 H   0  0  0  0  0  0  0  0  0  0  0  0  # atno 10764 bound_to 10752
  153.9142  135.6862  153.4803 H   0  0  0  0  0  0  0  0  0  0  0  0  # atno 10765 bound_to 10752
  141.0967  133.6623  156.4145 H   0  0  0  0  0  0  0  0  0  0  0  0  # atno 11005 bound_to 11000
  145.0081  139.3535  143.6133 LP  0  0  0  0  0  0  0  0  0  0  0  0  # atno 17320 bound_to 7965
  146.3443  139.9332  142.8750 LP  0  0  0  0  0  0  0  0  0  0  0  0  # atno 17321 bound_to 7965
  140.6061  143.9522  150.6420 LP  0  0  0  0  0  0  0  0  0  0  0  0  # atno 17342 bound_to 10162
  140.2749  143.3430  152.1204 LP  0  0  0  0  0  0  0  0  0  0  0  0  # atno 17343 bound_to 10162
  156.2229  130.6748  151.1386 LP  0  0  0  0  0  0  0  0  0  0  0  0  # atno 17370 bound_to 10713
  157.7198  131.0688  150.6183 LP  0  0  0  0  0  0  0  0  0  0  0  0  # atno 17371 bound_to 10713
  140.5123  134.6383  157.5289 LP  0  0  0  0  0  0  0  0  0  0  0  0  # atno 17394 bound_to 11000
  139.9805  134.7145  155.9868 LP  0  0  0  0  0  0  0  0  0  0  0  0  # atno 17395 bound_to 11000

$$$$
