AV-unprocessed.smi:2124|AV-procd|sdf|8669|dock9
  -GOLD-   2272011423D 1   1.00000     0.00000
 Structure written by MMmdl.
 46 48  0  0  0  0  0  0  0  0  2 V2000
  151.8184  141.9179  157.9537 C   0  0  0  0  0  0  0  0  0  0  0  0
  151.5917  140.7933  156.9664 C   0  0  0  0  0  0  0  0  0  0  0  0
  150.6061  140.8643  156.1553 N   0  0  0  0  0  0  0  0  0  0  0  0
  150.3921  139.8244  155.2347 C   0  0  0  0  0  0  0  0  0  0  0  0
  149.2003  139.9934  154.3085 C   0  0  0  0  0  0  0  0  0  0  0  0
  151.2173  138.7394  155.1912 C   0  0  0  0  0  0  0  0  0  0  0  0
  151.0309  137.5844  154.2072 C   0  0  0  0  0  0  0  0  0  0  0  0
  150.7615  136.2060  154.8167 C   0  0  0  0  0  0  0  0  0  0  0  0
  151.4960  135.7519  155.6942 O   0  0  0  0  0  0  0  0  0  0  0  0
  149.6863  135.5590  154.3361 N   0  0  0  0  0  0  0  0  0  0  0  0
  149.1737  134.2485  154.7478 C   0  0  1  0  0  0  0  0  0  0  0  0
  148.1683  134.3997  155.9066 C   0  0  0  0  0  0  0  0  0  0  0  0
  148.6136  133.4334  153.5495 C   0  0  1  0  0  0  0  0  0  0  0  0
  148.2766  131.9594  153.8899 C   0  0  0  0  0  0  0  0  0  0  0  0
  146.8196  131.8096  153.4190 C   0  0  2  0  0  0  0  0  0  0  0  0
  146.7632  131.8692  151.8818 C   0  0  0  0  0  0  0  0  0  0  0  0
  147.0359  133.3566  151.5911 C   0  0  0  0  0  0  0  0  0  0  0  0
  147.2573  133.9432  152.9987 C   0  0  1  0  0  0  0  0  0  0  0  0
  146.2345  133.1581  153.8143 C   0  0  0  0  0  0  0  0  0  0  0  0
  152.3377  138.6932  156.1471 C   0  0  0  0  0  0  0  0  0  0  0  0
  153.1032  137.7298  156.1604 O   0  0  0  0  0  0  0  0  0  0  0  0
  152.4834  139.7449  157.0029 N   0  5  0  0  0  0  0  0  0  0  0  0
  150.9429  142.5658  158.0175 H   0  0  0  0  0  0  0  0  0  0  0  0
  152.6717  142.5219  157.6448 H   0  0  0  0  0  0  0  0  0  0  0  0
  152.0181  141.5192  158.9489 H   0  0  0  0  0  0  0  0  0  0  0  0
  149.5323  140.0936  153.2752 H   0  0  0  0  0  0  0  0  0  0  0  0
  148.6258  140.8844  154.5637 H   0  0  0  0  0  0  0  0  0  0  0  0
  148.5322  139.1350  154.3780 H   0  0  0  0  0  0  0  0  0  0  0  0
  150.1950  137.8251  153.5501 H   0  0  0  0  0  0  0  0  0  0  0  0
  151.8914  137.5075  153.5417 H   0  0  0  0  0  0  0  0  0  0  0  0
  149.1600  136.0285  153.6138 H   0  0  0  0  0  0  0  0  0  0  0  0
  150.0414  133.7188  155.1416 H   0  0  0  0  0  0  0  0  0  0  0  0
  147.9324  133.4390  156.3623 H   0  0  0  0  0  0  0  0  0  0  0  0
  147.2299  134.8431  155.5727 H   0  0  0  0  0  0  0  0  0  0  0  0
  148.5728  135.0352  156.6950 H   0  0  0  0  0  0  0  0  0  0  0  0
  149.3518  133.4573  152.7468 H   0  0  0  0  0  0  0  0  0  0  0  0
  148.9495  131.2571  153.3966 H   0  0  0  0  0  0  0  0  0  0  0  0
  148.3349  131.7709  154.9624 H   0  0  0  0  0  0  0  0  0  0  0  0
  146.3104  130.9436  153.8430 H   0  0  0  0  0  0  0  0  0  0  0  0
  147.4991  131.2123  151.4168 H   0  0  0  0  0  0  0  0  0  0  0  0
  145.7771  131.5814  151.5155 H   0  0  0  0  0  0  0  0  0  0  0  0
  147.8940  133.5043  150.9343 H   0  0  0  0  0  0  0  0  0  0  0  0
  146.1700  133.8170  151.1133 H   0  0  0  0  0  0  0  0  0  0  0  0
  147.1285  135.0243  153.0284 H   0  0  0  0  0  0  0  0  0  0  0  0
  145.2074  133.3004  153.4735 H   0  0  0  0  0  0  0  0  0  0  0  0
  146.2845  133.3554  154.8862 H   0  0  0  0  0  0  0  0  0  0  0  0
  1  2  1  0  0  0  0
  1 23  1  0  0  0  0
  1 24  1  0  0  0  0
  1 25  1  0  0  0  0
  2 22  1  0  0  0  0
  2  3  2  0  0  0  0
  3  4  1  0  0  0  0
  4  5  1  0  0  0  0
  4  6  2  0  0  0  0
  5 26  1  0  0  0  0
  5 27  1  0  0  0  0
  5 28  1  0  0  0  0
  6  7  1  0  0  0  0
  6 20  1  0  0  0  0
  7  8  1  0  0  0  0
  7 29  1  0  0  0  0
  7 30  1  0  0  0  0
  8  9  2  0  0  0  0
  8 10  1  0  0  0  0
 10 11  1  0  0  0  0
 10 31  1  0  0  0  0
 11 12  1  0  0  0  0
 11 13  1  0  0  0  0
 11 32  1  0  0  0  0
 12 33  1  0  0  0  0
 12 34  1  0  0  0  0
 12 35  1  0  0  0  0
 13 18  1  0  0  0  0
 13 14  1  0  0  0  0
 13 36  1  0  0  0  0
 14 15  1  0  0  0  0
 14 37  1  0  0  0  0
 14 38  1  0  0  0  0
 15 19  1  0  0  0  0
 15 16  1  0  0  0  0
 15 39  1  0  0  0  0
 16 17  1  0  0  0  0
 16 40  1  0  0  0  0
 16 41  1  0  0  0  0
 17 18  1  0  0  0  0
 17 42  1  0  0  0  0
 17 43  1  0  0  0  0
 18 19  1  0  0  0  0
 18 44  1  0  0  0  0
 19 45  1  0  0  0  0
 19 46  1  0  0  0  0
 20 21  2  0  0  0  0
 20 22  1  0  0  0  0
M  CHG  1  22  -1
M  END
> <s_m_source_file>
AV-unprocessed.smi

> <i_m_source_file_index>
2124

> <i_lp_mmshare_version>
43012

> <i_f3d_flags>
0

> <s_epik_input>
W0NIM11jMW5jKFtDSDNdKWMoYyg9TylbbkhdMSlbQ0gyXUMoPU8pW05IXVtDQEhdKFtDSDNdKVtDQEhdKFtDSDJdW0NASF0yMylbQ0BIXShbQ0gyXTMpW0NIMl1bQ0gyXTI=

> <s_epik_cmdline>
J2VwaWtfcHl0aG9uJywgJy1waCcsICc3LjAnLCAnLXRuJywgJzgnLCAnLW1hJywgJzIwMCcsICctbWV0YWxfYmluZGluZycsICctaW1hZScsICc8aW5maWxlLm1hZT4nLCAnLW9tYWUnLCAnPG91dGZpbGUubWFlPic=

> <r_lp_tautomer_probability>
0.839158

> <r_epik_Ionization_Penalty>
6.63797

> <r_epik_Ionization_Penalty_Charging>
7.48558e-08

> <r_epik_Ionization_Penalty_Neutral>
6.63797

> <r_epik_State_Penalty>
4.49496

> <r_epik_Charging_Adjusted_Penalty>
4.49496

> <i_epik_Tot_Q>
-1

> <i_epik_Tot_abs_Q>
1

> <r_epik_Metal_State_Penalty>
0.841241

> <b_epik_Metal_Only>
1

> <s_lp_Force_Field>
OPLS_2005

> <r_lp_Energy>
56.2785

> <b_lp_Chiralities_Consistent>
1

> <s_lp_Variant>
AV-unprocessed.smi:2124-20

> <Gold.Version>
5.8.1

> <Gold.Id.Protein>
6NUR|6NUR_protein|mol2

> <Gold.PLP.Fitness>
44.0589

> <Gold.PLP.PLP>
-33.6564

> <Gold.PLP.part.hbond>
-3.6968

> <Gold.PLP.part.metal>
0.0000

> <Gold.PLP.part.buried>
-1.6713

> <Gold.PLP.part.nonpolar>
-28.6080

> <Gold.PLP.part.repulsive>
0.1353

> <Gold.PLP.ligand.clash>
0.0000

> <Gold.PLP.ligand.torsion>
0.5033

> <Gold.PLP.Chemscore.Hbond>
3.7840

> <Gold.PLP.Chemscore.CHOScore>
0.0000

> <Gold.PLP.Chemscore.Metal>
0.0000

> <Gold.Chemscore.Hbonds>
donor molecule, donor type, donor heavy atom, donor atom, acceptor molecule, acceptor atom, score
      L1  H    10    31       P1  7948  0.86
      P1  H  7997  8010       L1    22  2.00
      P1  H 10752 10763       L1     9  1.00

> <Gold.PLP.Chemscore.Internal.Correction>
0.0570

> <Gold.Rescore>
     Score         DG    S(hbond)    S(metal)    S(lipo)     H(rot)  DE(clash)    DE(int)     intcor
     15.51     -17.58       2.30        0.00      72.80       1.61       0.14       1.92       ----

> <Gold.Chemscore.Fitness>
15.5140

> <Gold.Chemscore.DG>
-17.5819

> <Gold.Chemscore.ZeroCoef>
-5.4800

> <Gold.Chemscore.Hbond>
2.3033

> <Gold.Chemscore.Metal>
0.0000

> <Gold.Chemscore.Lipo>
72.8030

> <Gold.Chemscore.Internal_Hbond>
0.0000

> <Gold.Chemscore.DEClash>
0.1435

> <Gold.Chemscore.DEInternal>
1.9243

> <Gold.Chemscore.Rot>
1.6051

> <Gold.Chemscore.Internal.Correction>
   9.000000E+99

> <Gold.Chemscore.Hbonds>
donor molecule, donor type, donor heavy atom, donor atom, acceptor molecule, acceptor atom, score
      L1  H    10    31       P1  7948  0.75
      P1  H  7997  8010       L1    22  0.24
      P1  H 10752 10763       L1     9  0.35

> <Gold.Chemscore.Hbond.Weighted>
-7.6929

> <Gold.Chemscore.Metal.Weighted>
-0.0000

> <Gold.Chemscore.Lipo.Weighted>
-8.5179

> <Gold.Chemscore.Internal_Hbond.Weighted>
0.0000

> <Gold.Chemscore.DEClash.Weighted>
0.1435

> <Gold.Chemscore.DEInternal.Weighted>
1.9243

> <Gold.Chemscore.Rot.Weighted>
4.1090

> <Gold.Chemscore.Internal.Correction.Weighted>
   9.000000E+99

> <Gold.Protein.RotatedTorsions>
[ 6907 6896 6895 6894 ] final  132.40 input  -60.11 | X-H torsion
[ 7974 7965 7964 7962 ] final  -61.75 input  175.53 | X-H torsion
[ 8008 7997 7996 7995 ] final   48.96 input   59.86 | X-H torsion
[ 10167 10162 10161 10158 ] final  -35.51 input  -65.29 | X-H torsion
[ 10718 10713 10712 10709 ] final   93.06 input   66.30 | X-H torsion
[ 10763 10752 10751 10750 ] final   74.38 input  -60.55 | X-H torsion
[ 11005 11000 10999 10996 ] final  -38.59 input  -57.11 | X-H torsion

> <Gold.Protein.ActiveResidues>
 VAL166  LYS551  ARG553  GLY616  TRP617  ASP618  TYR619  PRO620  LYS621  CYS622 
 ASP623  PHE694  ASN695  SER759  ASP760  ASP761  ALA762  ILE779  LEU786  VAL792 
 PHE793  MET794  SER795  GLU796  ALA797  LYS798  CYS799  TRP800  GLU811  SER814 

> <Gold.Protein.RotatedAtoms>
  152.3327  133.5977  159.5820 H   0  0  0  0  0  0  0  0  0  0  0  0  # atno 6907 bound_to 6896
  150.7432  133.9843  159.3595 H   0  0  0  0  0  0  0  0  0  0  0  0  # atno 6908 bound_to 6896
  151.7716  135.0785  160.0411 H   0  0  0  0  0  0  0  0  0  0  0  0  # atno 6909 bound_to 6896
  145.7997  140.8662  143.0237 H   0  0  0  0  0  0  0  0  0  0  0  0  # atno 7974 bound_to 7965
  155.3942  140.3435  155.4253 H   0  0  0  0  0  0  0  0  0  0  0  0  # atno 8008 bound_to 7997
  156.1540  140.1580  156.8756 H   0  0  0  0  0  0  0  0  0  0  0  0  # atno 8009 bound_to 7997
  154.5078  140.0798  156.7910 H   0  0  0  0  0  0  0  0  0  0  0  0  # atno 8010 bound_to 7997
  140.7163  143.3472  151.2231 H   0  0  0  0  0  0  0  0  0  0  0  0  # atno 10167 bound_to 10162
  157.6956  131.0465  150.3977 H   0  0  0  0  0  0  0  0  0  0  0  0  # atno 10718 bound_to 10713
  153.0583  135.5028  154.8034 H   0  0  0  0  0  0  0  0  0  0  0  0  # atno 10763 bound_to 10752
  154.6843  135.2973  154.9572 H   0  0  0  0  0  0  0  0  0  0  0  0  # atno 10764 bound_to 10752
  154.0348  135.6725  153.4837 H   0  0  0  0  0  0  0  0  0  0  0  0  # atno 10765 bound_to 10752
  141.0039  133.6941  156.2074 H   0  0  0  0  0  0  0  0  0  0  0  0  # atno 11005 bound_to 11000
  144.6770  140.0241  143.7483 LP  0  0  0  0  0  0  0  0  0  0  0  0  # atno 17320 bound_to 7965
  145.9890  139.3000  143.0996 LP  0  0  0  0  0  0  0  0  0  0  0  0  # atno 17321 bound_to 7965
  139.6994  143.9558  152.2898 LP  0  0  0  0  0  0  0  0  0  0  0  0  # atno 17342 bound_to 10162
  139.9246  144.6779  150.8426 LP  0  0  0  0  0  0  0  0  0  0  0  0  # atno 17343 bound_to 10162
  156.4373  130.3984  149.6720 LP  0  0  0  0  0  0  0  0  0  0  0  0  # atno 17370 bound_to 10713
  156.3916  130.7630  151.2631 LP  0  0  0  0  0  0  0  0  0  0  0  0  # atno 17371 bound_to 10713
  140.6844  134.4732  157.5589 LP  0  0  0  0  0  0  0  0  0  0  0  0  # atno 17394 bound_to 11000
  139.9053  134.8463  156.1731 LP  0  0  0  0  0  0  0  0  0  0  0  0  # atno 17395 bound_to 11000

$$$$
