AV-unprocessed.smi:3157|AV-procd|sdf|12039|dock5
  -GOLD-   2272017463D 1   1.00000     0.00000
 Structure written by MMmdl.
 40 41  0  0  0  0  0  0  0  0  2 V2000
  148.3645  142.0604  157.4187 C   0  0  0  0  0  0  0  0  0  0  0  0
  149.6875  141.4940  156.8610 C   0  0  2  0  0  0  0  0  0  0  0  0
  150.6100  142.6014  156.5203 N   0  3  0  0  0  0  0  0  0  0  0  0
  151.7225  142.8143  157.4699 C   0  0  0  0  0  0  0  0  0  0  0  0
  151.2539  143.6063  158.7008 C   0  0  0  0  0  0  0  0  0  0  0  0
  151.4074  145.1204  158.5455 C   0  0  0  0  0  0  0  0  0  0  0  0
  151.3331  145.6590  159.9756 C   0  0  0  0  0  0  0  0  0  0  0  0
  151.8868  144.5431  160.8732 C   0  0  0  0  0  0  0  0  0  0  0  0
  152.0462  143.3049  159.9795 C   0  0  0  0  0  0  0  0  0  0  0  0
  149.4804  140.5865  155.6185 C   0  0  1  0  0  0  0  0  0  0  0  0
  149.1132  141.3911  154.3564 C   0  0  0  0  0  0  0  0  0  0  0  0
  150.6367  139.7399  155.3513 N   0  0  0  0  0  0  0  0  0  0  0  0
  151.8938  139.8085  155.9159 C   0  0  0  0  0  0  0  0  0  0  0  0
  152.6480  138.8178  155.3556 C   0  0  0  0  0  0  0  0  0  0  0  0
  151.7537  138.1830  154.4497 C   0  0  0  0  0  0  0  0  0  0  0  0
  150.5520  138.7365  154.4485 N   0  0  0  0  0  0  0  0  0  0  0  0
  147.6958  141.2692  157.7577 H   0  0  0  0  0  0  0  0  0  0  0  0
  147.8344  142.6400  156.6624 H   0  0  0  0  0  0  0  0  0  0  0  0
  148.5309  142.7111  158.2768 H   0  0  0  0  0  0  0  0  0  0  0  0
  150.1541  140.8900  157.6413 H   0  0  0  0  0  0  0  0  0  0  0  0
  151.0233  142.3894  155.6235 H   0  0  0  0  0  0  0  0  0  0  0  0
  152.1485  141.8600  157.7798 H   0  0  0  0  0  0  0  0  0  0  0  0
  152.5140  143.3652  156.9599 H   0  0  0  0  0  0  0  0  0  0  0  0
  150.1993  143.3948  158.8860 H   0  0  0  0  0  0  0  0  0  0  0  0
  152.3827  145.3568  158.1166 H   0  0  0  0  0  0  0  0  0  0  0  0
  150.6460  145.5555  157.8974 H   0  0  0  0  0  0  0  0  0  0  0  0
  151.8806  146.5950  160.0899 H   0  0  0  0  0  0  0  0  0  0  0  0
  150.2929  145.8548  160.2391 H   0  0  0  0  0  0  0  0  0  0  0  0
  152.8450  144.8255  161.3113 H   0  0  0  0  0  0  0  0  0  0  0  0
  151.1996  144.3452  161.6966 H   0  0  0  0  0  0  0  0  0  0  0  0
  151.7051  142.3942  160.4730 H   0  0  0  0  0  0  0  0  0  0  0  0
  153.1024  143.1700  159.7415 H   0  0  0  0  0  0  0  0  0  0  0  0
  148.6484  139.9131  155.8316 H   0  0  0  0  0  0  0  0  0  0  0  0
  148.1798  141.9392  154.4857 H   0  0  0  0  0  0  0  0  0  0  0  0
  148.9836  140.7317  153.4975 H   0  0  0  0  0  0  0  0  0  0  0  0
  149.8888  142.1147  154.1030 H   0  0  0  0  0  0  0  0  0  0  0  0
  152.1463  140.5495  156.6600 H   0  0  0  0  0  0  0  0  0  0  0  0
  153.6814  138.5815  155.5622 H   0  0  0  0  0  0  0  0  0  0  0  0
  151.9411  137.3432  153.7969 H   0  0  0  0  0  0  0  0  0  0  0  0
  150.0764  143.4543  156.4323 H   0  0  0  0  0  0  0  0  0  0  0  0
  1  2  1  0  0  0  0
  1 17  1  0  0  0  0
  1 18  1  0  0  0  0
  1 19  1  0  0  0  0
  2  3  1  0  0  0  0
  2 10  1  0  0  0  0
  2 20  1  0  0  0  0
  3  4  1  0  0  0  0
  3 21  1  0  0  0  0
  3 40  1  0  0  0  0
  4  5  1  0  0  0  0
  4 22  1  0  0  0  0
  4 23  1  0  0  0  0
  5  9  1  0  0  0  0
  5  6  1  0  0  0  0
  5 24  1  0  0  0  0
  6  7  1  0  0  0  0
  6 25  1  0  0  0  0
  6 26  1  0  0  0  0
  7  8  1  0  0  0  0
  7 27  1  0  0  0  0
  7 28  1  0  0  0  0
  8  9  1  0  0  0  0
  8 29  1  0  0  0  0
  8 30  1  0  0  0  0
  9 31  1  0  0  0  0
  9 32  1  0  0  0  0
 10 11  1  0  0  0  0
 10 12  1  0  0  0  0
 10 33  1  0  0  0  0
 11 34  1  0  0  0  0
 11 35  1  0  0  0  0
 11 36  1  0  0  0  0
 12 16  1  0  0  0  0
 12 13  1  0  0  0  0
 13 14  2  0  0  0  0
 13 37  1  0  0  0  0
 14 15  1  0  0  0  0
 14 38  1  0  0  0  0
 15 16  2  0  0  0  0
 15 39  1  0  0  0  0
M  CHG  1   3   1
M  END
> <s_m_source_file>
AV-unprocessed.smi

> <i_m_source_file_index>
3157

> <i_lp_mmshare_version>
43012

> <i_f3d_flags>
0

> <s_epik_input>
bjFbY0hdW2NIXVtjSF1uMVtDQEBIXShbQ0gzXSlbQ0BIXShbQ0gzXSlbTkhdW0NIMl1bQ0hdMltDSDJdW0NIMl1bQ0gyXVtDSDJdMg==

> <s_epik_cmdline>
J2VwaWtfcHl0aG9uJywgJy1waCcsICc3LjAnLCAnLXRuJywgJzgnLCAnLW1hJywgJzIwMCcsICctbWV0YWxfYmluZGluZycsICctaW1hZScsICc8aW5maWxlLm1hZT4nLCAnLW9tYWUnLCAnPG91dGZpbGUubWFlPic=

> <r_lp_tautomer_probability>
1

> <r_epik_Ionization_Penalty>
0.00132192

> <r_epik_Ionization_Penalty_Charging>
0.0013111

> <r_epik_Ionization_Penalty_Neutral>
1.08112e-05

> <r_epik_State_Penalty>
-0

> <r_epik_Charging_Adjusted_Penalty>
0.0013111

> <i_epik_Tot_Q>
1

> <i_epik_Tot_abs_Q>
1

> <r_epik_Metal_State_Penalty>
-0

> <b_epik_Metal_Only>
0

> <s_lp_Force_Field>
OPLS_2005

> <r_lp_Energy>
31.1874

> <b_lp_Chiralities_Consistent>
1

> <s_lp_Variant>
AV-unprocessed.smi:3157-3

> <Gold.Version>
5.8.1

> <Gold.Id.Protein>
6NUR|6NUR_protein|mol2

> <Gold.PLP.Fitness>
46.7705

> <Gold.PLP.PLP>
-40.5814

> <Gold.PLP.part.hbond>
-1.0000

> <Gold.PLP.part.metal>
0.0000

> <Gold.PLP.part.buried>
-5.4124

> <Gold.PLP.part.nonpolar>
-33.4400

> <Gold.PLP.part.repulsive>
0.2700

> <Gold.PLP.ligand.clash>
0.0000

> <Gold.PLP.ligand.torsion>
1.4505

> <Gold.PLP.Chemscore.Hbond>
2.0000

> <Gold.PLP.Chemscore.CHOScore>
1.0000

> <Gold.PLP.Chemscore.Metal>
0.0000

> <Gold.Chemscore.Hbonds>
donor molecule, donor type, donor heavy atom, donor atom, acceptor molecule, acceptor atom, score
      L1  H     3    40       P1  8028  2.00
      L1  C    15    39       P1  7949  0.37

> <Gold.PLP.Chemscore.Internal.Correction>
0.0901

> <Gold.Rescore>
     Score         DG    S(hbond)    S(metal)    S(lipo)     H(rot)  DE(clash)    DE(int)     intcor
     16.49     -17.88       0.98        0.00     110.79       1.50       0.07       1.32       ----

> <Gold.Chemscore.Fitness>
16.4901

> <Gold.Chemscore.DG>
-17.8796

> <Gold.Chemscore.ZeroCoef>
-5.4800

> <Gold.Chemscore.Hbond>
0.9849

> <Gold.Chemscore.Metal>
0.0000

> <Gold.Chemscore.Lipo>
110.7862

> <Gold.Chemscore.Internal_Hbond>
0.0000

> <Gold.Chemscore.DEClash>
0.0669

> <Gold.Chemscore.DEInternal>
1.3226

> <Gold.Chemscore.Rot>
1.5047

> <Gold.Chemscore.Internal.Correction>
   9.000000E+99

> <Gold.Chemscore.Hbonds>
donor molecule, donor type, donor heavy atom, donor atom, acceptor molecule, acceptor atom, score
      L1  H     3    40       P1  8028  0.99

> <Gold.Chemscore.Hbond.Weighted>
-3.2896

> <Gold.Chemscore.Metal.Weighted>
-0.0000

> <Gold.Chemscore.Lipo.Weighted>
-12.9620

> <Gold.Chemscore.Internal_Hbond.Weighted>
0.0000

> <Gold.Chemscore.DEClash.Weighted>
0.0669

> <Gold.Chemscore.DEInternal.Weighted>
1.3226

> <Gold.Chemscore.Rot.Weighted>
3.8520

> <Gold.Chemscore.Internal.Correction.Weighted>
   9.000000E+99

> <Gold.Protein.RotatedTorsions>
[ 6907 6896 6895 6894 ] final   17.60 input  -60.11 | X-H torsion
[ 7974 7965 7964 7962 ] final   -4.10 input  175.53 | X-H torsion
[ 8008 7997 7996 7995 ] final   -0.17 input   59.86 | X-H torsion
[ 10167 10162 10161 10158 ] final  -87.12 input  -65.29 | X-H torsion
[ 10718 10713 10712 10709 ] final    0.20 input   66.30 | X-H torsion
[ 10763 10752 10751 10750 ] final   93.06 input  -60.55 | X-H torsion
[ 11005 11000 10999 10996 ] final   81.79 input  -57.11 | X-H torsion

> <Gold.Protein.ActiveResidues>
 VAL166  LYS551  ARG553  GLY616  TRP617  ASP618  TYR619  PRO620  LYS621  CYS622 
 ASP623  PHE694  ASN695  SER759  ASP760  ASP761  ALA762  ILE779  LEU786  VAL792 
 PHE793  MET794  SER795  GLU796  ALA797  LYS798  CYS799  TRP800  GLU811  SER814 

> <Gold.Protein.RotatedAtoms>
  151.8522  135.0554  160.0459 H   0  0  0  0  0  0  0  0  0  0  0  0  # atno 6907 bound_to 6896
  152.2728  133.5393  159.5458 H   0  0  0  0  0  0  0  0  0  0  0  0  # atno 6908 bound_to 6896
  150.7158  134.0590  159.3867 H   0  0  0  0  0  0  0  0  0  0  0  0  # atno 6909 bound_to 6896
  146.2378  140.1820  142.8332 H   0  0  0  0  0  0  0  0  0  0  0  0  # atno 7974 bound_to 7965
  154.6611  140.2591  155.7108 H   0  0  0  0  0  0  0  0  0  0  0  0  # atno 8008 bound_to 7997
  156.2619  140.2848  156.1005 H   0  0  0  0  0  0  0  0  0  0  0  0  # atno 8009 bound_to 7997
  155.1307  140.0378  157.2764 H   0  0  0  0  0  0  0  0  0  0  0  0  # atno 8010 bound_to 7997
  140.3876  143.2719  151.9305 H   0  0  0  0  0  0  0  0  0  0  0  0  # atno 10167 bound_to 10162
  156.8299  130.5485  149.5688 H   0  0  0  0  0  0  0  0  0  0  0  0  # atno 10718 bound_to 10713
  153.2260  135.4339  155.0543 H   0  0  0  0  0  0  0  0  0  0  0  0  # atno 10763 bound_to 10752
  154.8274  135.3368  154.6857 H   0  0  0  0  0  0  0  0  0  0  0  0  # atno 10764 bound_to 10752
  153.7286  135.7012  153.5051 H   0  0  0  0  0  0  0  0  0  0  0  0  # atno 10765 bound_to 10752
  139.9086  134.8023  156.2088 H   0  0  0  0  0  0  0  0  0  0  0  0  # atno 11005 bound_to 11000
  144.9927  140.8561  143.5330 LP  0  0  0  0  0  0  0  0  0  0  0  0  # atno 17320 bound_to 7965
  145.1828  139.2342  143.5283 LP  0  0  0  0  0  0  0  0  0  0  0  0  # atno 17321 bound_to 7965
  139.4791  144.5759  151.8013 LP  0  0  0  0  0  0  0  0  0  0  0  0  # atno 17342 bound_to 10162
  140.4873  144.1362  150.5943 LP  0  0  0  0  0  0  0  0  0  0  0  0  # atno 17343 bound_to 10162
  156.0940  130.5918  150.9781 LP  0  0  0  0  0  0  0  0  0  0  0  0  # atno 17370 bound_to 10713
  157.6412  131.0910  150.8247 LP  0  0  0  0  0  0  0  0  0  0  0  0  # atno 17371 bound_to 10713
  141.0479  133.6904  156.1716 LP  0  0  0  0  0  0  0  0  0  0  0  0  # atno 17394 bound_to 11000
  140.6856  134.4720  157.5589 LP  0  0  0  0  0  0  0  0  0  0  0  0  # atno 17395 bound_to 11000

$$$$
