AV-unprocessed.smi:102|AV-procd|sdf|964|dock6
  -GOLD-   2262017503D 1   1.00000     0.00000
 Structure written by MMmdl.
 43 44  0  0  0  0  0  0  0  0  2 V2000
  146.4360  132.2442  151.2677 C   0  0  0  0  0  0  0  0  0  0  0  0
  147.0339  132.7309  152.5818 C   0  0  0  0  0  0  0  0  0  0  0  0
  146.7893  133.8556  153.0189 O   0  0  0  0  0  0  0  0  0  0  0  0
  147.8189  131.8124  153.1641 O   0  0  0  0  0  0  0  0  0  0  0  0
  148.3946  132.0868  154.4301 C   0  0  0  0  0  0  0  0  0  0  0  0
  149.6608  132.9441  154.2415 C   0  0  1  0  0  0  0  0  0  0  0  0
  149.2799  134.3017  154.0469 O   0  0  0  0  0  0  0  0  0  0  0  0
  149.1152  134.9193  155.2880 C   0  0  2  0  0  0  0  0  0  0  0  0
  149.5360  136.3677  155.1802 N   0  0  0  0  0  0  0  0  0  0  0  0
  150.8515  136.6612  154.8672 C   0  0  0  0  0  0  0  0  0  0  0  0
  151.2879  137.9350  154.7912 C   0  0  0  0  0  0  0  0  0  0  0  0
  152.5710  138.1858  154.4791 F   0  0  0  0  0  0  0  0  0  0  0  0
  150.3596  139.0331  155.0518 C   0  0  0  0  0  0  0  0  0  0  0  0
  150.7587  140.1937  154.9671 O   0  0  0  0  0  0  0  0  0  0  0  0
  149.0749  138.7157  155.3840 N   0  5  0  0  0  0  0  0  0  0  0  0
  148.6311  137.4274  155.4718 C   0  0  0  0  0  0  0  0  0  0  0  0
  147.4805  137.1397  155.7964 O   0  0  0  0  0  0  0  0  0  0  0  0
  149.9216  134.1250  156.3324 C   0  0  1  0  0  0  0  0  0  0  0  0
  149.0152  133.6074  157.3027 O   0  0  0  0  0  0  0  0  0  0  0  0
  148.4774  134.4124  158.2358 C   0  0  0  0  0  0  0  0  0  0  0  0
  147.2060  133.8301  158.8385 C   0  0  0  0  0  0  0  0  0  0  0  0
  148.9249  135.4975  158.6060 O   0  0  0  0  0  0  0  0  0  0  0  0
  150.5617  133.0268  155.4820 C   0  0  1  0  0  0  0  0  0  0  0  0
  150.7116  131.7959  156.1830 O   0  0  0  0  0  0  0  0  0  0  0  0
  151.4351  131.7400  157.3139 C   0  0  0  0  0  0  0  0  0  0  0  0
  151.6015  130.3154  157.8255 C   0  0  0  0  0  0  0  0  0  0  0  0
  151.9379  132.6972  157.9023 O   0  0  0  0  0  0  0  0  0  0  0  0
  146.8257  131.2613  151.0017 H   0  0  0  0  0  0  0  0  0  0  0  0
  146.6767  132.9393  150.4634 H   0  0  0  0  0  0  0  0  0  0  0  0
  145.3513  132.1743  151.3510 H   0  0  0  0  0  0  0  0  0  0  0  0
  147.6740  132.5851  155.0793 H   0  0  0  0  0  0  0  0  0  0  0  0
  148.6517  131.1366  154.8997 H   0  0  0  0  0  0  0  0  0  0  0  0
  150.2286  132.5800  153.3845 H   0  0  0  0  0  0  0  0  0  0  0  0
  148.0500  134.9417  155.5232 H   0  0  0  0  0  0  0  0  0  0  0  0
  151.5495  135.8598  154.6744 H   0  0  0  0  0  0  0  0  0  0  0  0
  150.6751  134.7646  156.7939 H   0  0  0  0  0  0  0  0  0  0  0  0
  146.5644  133.4244  158.0559 H   0  0  0  0  0  0  0  0  0  0  0  0
  146.6501  134.5991  159.3754 H   0  0  0  0  0  0  0  0  0  0  0  0
  147.4521  133.0297  159.5363 H   0  0  0  0  0  0  0  0  0  0  0  0
  151.5435  133.3848  155.1701 H   0  0  0  0  0  0  0  0  0  0  0  0
  150.6865  129.7432  157.6701 H   0  0  0  0  0  0  0  0  0  0  0  0
  151.8311  130.3170  158.8911 H   0  0  0  0  0  0  0  0  0  0  0  0
  152.4152  129.8189  157.2967 H   0  0  0  0  0  0  0  0  0  0  0  0
  1  2  1  0  0  0  0
  1 28  1  0  0  0  0
  1 29  1  0  0  0  0
  1 30  1  0  0  0  0
  2  3  2  0  0  0  0
  2  4  1  0  0  0  0
  4  5  1  0  0  0  0
  5  6  1  0  0  0  0
  5 31  1  0  0  0  0
  5 32  1  0  0  0  0
  6 23  1  0  0  0  0
  6  7  1  0  0  0  0
  6 33  1  0  0  0  0
  7  8  1  0  0  0  0
  8  9  1  0  0  0  0
  8 18  1  0  0  0  0
  8 34  1  0  0  0  0
  9 16  1  0  0  0  0
  9 10  1  0  0  0  0
 10 11  2  0  0  0  0
 10 35  1  0  0  0  0
 11 12  1  0  0  0  0
 11 13  1  0  0  0  0
 13 14  2  0  0  0  0
 13 15  1  0  0  0  0
 15 16  1  0  0  0  0
 16 17  2  0  0  0  0
 18 19  1  0  0  0  0
 18 23  1  0  0  0  0
 18 36  1  0  0  0  0
 19 20  1  0  0  0  0
 20 21  1  0  0  0  0
 20 22  2  0  0  0  0
 21 37  1  0  0  0  0
 21 38  1  0  0  0  0
 21 39  1  0  0  0  0
 23 24  1  0  0  0  0
 23 40  1  0  0  0  0
 24 25  1  0  0  0  0
 25 26  1  0  0  0  0
 25 27  2  0  0  0  0
 26 41  1  0  0  0  0
 26 42  1  0  0  0  0
 26 43  1  0  0  0  0
M  CHG  1  15  -1
M  END
> <s_m_source_file>
AV-unprocessed.smi

> <i_m_source_file_index>
102

> <i_lp_mmshare_version>
43012

> <i_f3d_flags>
0

> <s_epik_input>
W0NIM11DKD1PKU9bQ0gyXVtDQEBIXTFPW0NASF0oW0NAQEhdKE9DKD1PKVtDSDNdKVtDQEhdMU9DKD1PKVtDSDNdKW4yW2NIXWMoRiljKD1PKVtuSF1jMj1P

> <s_epik_cmdline>
J2VwaWtfcHl0aG9uJywgJy1waCcsICc3LjAnLCAnLXRuJywgJzgnLCAnLW1hJywgJzIwMCcsICctbWV0YWxfYmluZGluZycsICctaW1hZScsICc8aW5maWxlLm1hZT4nLCAnLW9tYWUnLCAnPG91dGZpbGUubWFlPic=

> <r_epik_Ionization_Penalty>
1.40304

> <r_epik_Ionization_Penalty_Charging>
1.43915e-08

> <r_epik_Ionization_Penalty_Neutral>
1.40304

> <r_epik_State_Penalty>
1.48536

> <r_epik_Charging_Adjusted_Penalty>
1.48536

> <i_epik_Tot_Q>
-1

> <i_epik_Tot_abs_Q>
1

> <r_epik_Metal_State_Penalty>
0.00663881

> <b_epik_Metal_Only>
0

> <s_epik_Chemistry_Notes>
This compound has an ester and may undergo hydrolysis at high or low pH. This compound contains an acetal/aminal-like group ( X-CH(R)-Y where X, Y are N, S, or O) that may be acid/base labile, releasing an aldehyde.

> <s_lp_Force_Field>
OPLS_2005

> <r_lp_Energy>
22.8402

> <b_lp_Chiralities_Consistent>
1

> <s_lp_Variant>
AV-unprocessed.smi:102-20

> <Gold.Version>
5.8.1

> <Gold.Id.Protein>
6NUR|6NUR_protein|mol2

> <Gold.PLP.Fitness>
38.3198

> <Gold.PLP.PLP>
-30.5316

> <Gold.PLP.part.hbond>
-3.0000

> <Gold.PLP.part.metal>
0.0000

> <Gold.PLP.part.buried>
-6.5705

> <Gold.PLP.part.nonpolar>
-23.7985

> <Gold.PLP.part.repulsive>
2.2524

> <Gold.PLP.ligand.clash>
0.0000

> <Gold.PLP.ligand.torsion>
0.6721

> <Gold.PLP.Chemscore.Hbond>
3.0000

> <Gold.PLP.Chemscore.CHOScore>
0.0000

> <Gold.PLP.Chemscore.Metal>
0.0000

> <Gold.Chemscore.Hbonds>
donor molecule, donor type, donor heavy atom, donor atom, acceptor molecule, acceptor atom, score
      P1  H  6896  6907       L1    22  0.46
      P1  H  6896  6909       L1    27  0.94
      P1  H  7989  7998       L1    14  1.00

> <Gold.PLP.Chemscore.Internal.Correction>
0.1324

> <Gold.Rescore>
     Score         DG    S(hbond)    S(metal)    S(lipo)     H(rot)  DE(clash)    DE(int)     intcor
      7.10     -10.50       2.88        0.00      47.98       4.00       1.33       2.07       ----

> <Gold.Chemscore.Fitness>
7.0951

> <Gold.Chemscore.DG>
-10.4995

> <Gold.Chemscore.ZeroCoef>
-5.4800

> <Gold.Chemscore.Hbond>
2.8842

> <Gold.Chemscore.Metal>
0.0000

> <Gold.Chemscore.Lipo>
47.9791

> <Gold.Chemscore.Internal_Hbond>
0.0000

> <Gold.Chemscore.DEClash>
1.3348

> <Gold.Chemscore.DEInternal>
2.0696

> <Gold.Chemscore.Rot>
3.9951

> <Gold.Chemscore.Internal.Correction>
   9.000000E+99

> <Gold.Chemscore.Hbonds>
donor molecule, donor type, donor heavy atom, donor atom, acceptor molecule, acceptor atom, score
      P1  H  6896  6907       L1    22  0.10
      P1  H  6896  6909       L1    27  0.87
      P1  H  7989  7998       L1    14  0.99

> <Gold.Chemscore.Hbond.Weighted>
-9.6334

> <Gold.Chemscore.Metal.Weighted>
-0.0000

> <Gold.Chemscore.Lipo.Weighted>
-5.6135

> <Gold.Chemscore.Internal_Hbond.Weighted>
0.0000

> <Gold.Chemscore.DEClash.Weighted>
1.3348

> <Gold.Chemscore.DEInternal.Weighted>
2.0696

> <Gold.Chemscore.Rot.Weighted>
10.2274

> <Gold.Chemscore.Internal.Correction.Weighted>
   9.000000E+99

> <Gold.Protein.RotatedTorsions>
[ 6907 6896 6895 6894 ] final  -55.73 input  -60.11 | X-H torsion
[ 7974 7965 7964 7962 ] final   96.23 input  175.53 | X-H torsion
[ 8008 7997 7996 7995 ] final   50.84 input   59.86 | X-H torsion
[ 10167 10162 10161 10158 ] final -155.28 input  -65.29 | X-H torsion
[ 10718 10713 10712 10709 ] final  100.10 input   66.30 | X-H torsion
[ 10763 10752 10751 10750 ] final   90.23 input  -60.55 | X-H torsion
[ 11005 11000 10999 10996 ] final -162.69 input  -57.11 | X-H torsion

> <Gold.Protein.ActiveResidues>
 VAL166  LYS551  ARG553  GLY616  TRP617  ASP618  TYR619  PRO620  LYS621  CYS622 
 ASP623  PHE694  ASN695  SER759  ASP760  ASP761  ALA762  ILE779  LEU786  VAL792 
 PHE793  MET794  SER795  GLU796  ALA797  LYS798  CYS799  TRP800  GLU811  SER814 

> <Gold.Protein.RotatedAtoms>
  150.8226  134.7442  159.6785 H   0  0  0  0  0  0  0  0  0  0  0  0  # atno 6907 bound_to 6896
  152.4340  134.5718  159.9933 H   0  0  0  0  0  0  0  0  0  0  0  0  # atno 6908 bound_to 6896
  151.5898  133.3330  159.3061 H   0  0  0  0  0  0  0  0  0  0  0  0  # atno 6909 bound_to 6896
  145.4416  139.2301  143.3089 H   0  0  0  0  0  0  0  0  0  0  0  0  # atno 7974 bound_to 7965
  155.4254  140.3448  155.4275 H   0  0  0  0  0  0  0  0  0  0  0  0  # atno 8008 bound_to 7997
  156.1368  140.1530  156.9013 H   0  0  0  0  0  0  0  0  0  0  0  0  # atno 8009 bound_to 7997
  154.4938  140.0833  156.7633 H   0  0  0  0  0  0  0  0  0  0  0  0  # atno 8010 bound_to 7997
  139.6944  143.9367  152.2400 H   0  0  0  0  0  0  0  0  0  0  0  0  # atno 10167 bound_to 10162
  157.6861  131.0689  150.5049 H   0  0  0  0  0  0  0  0  0  0  0  0  # atno 10718 bound_to 10713
  153.1953  135.4441  155.0200 H   0  0  0  0  0  0  0  0  0  0  0  0  # atno 10763 bound_to 10752
  154.8115  135.3296  154.7294 H   0  0  0  0  0  0  0  0  0  0  0  0  # atno 10764 bound_to 10752
  153.7745  135.6982  153.4955 H   0  0  0  0  0  0  0  0  0  0  0  0  # atno 10765 bound_to 10752
  140.6064  134.4894  157.5211 H   0  0  0  0  0  0  0  0  0  0  0  0  # atno 11005 bound_to 11000
  146.2553  140.5165  142.8876 LP  0  0  0  0  0  0  0  0  0  0  0  0  # atno 17320 bound_to 7965
  144.8118  140.6398  143.6410 LP  0  0  0  0  0  0  0  0  0  0  0  0  # atno 17321 bound_to 7965
  139.9192  144.6810  150.8479 LP  0  0  0  0  0  0  0  0  0  0  0  0  # atno 17342 bound_to 10162
  140.7692  143.3387  151.2254 LP  0  0  0  0  0  0  0  0  0  0  0  0  # atno 17343 bound_to 10162
  156.5369  130.4198  149.6173 LP  0  0  0  0  0  0  0  0  0  0  0  0  # atno 17370 bound_to 10713
  156.3020  130.7182  151.2055 LP  0  0  0  0  0  0  0  0  0  0  0  0  # atno 17371 bound_to 10713
  139.9210  134.8148  156.1211 LP  0  0  0  0  0  0  0  0  0  0  0  0  # atno 17394 bound_to 11000
  141.0837  133.6743  156.2391 LP  0  0  0  0  0  0  0  0  0  0  0  0  # atno 17395 bound_to 11000

$$$$
