AV-unprocessed.smi:2078|AV-procd|sdf|8464|dock4
  -GOLD-   2272011163D 1   1.00000     0.00000
 Structure written by MMmdl.
 42 43  0  0  0  0  0  0  0  0  2 V2000
  154.3663  138.0465  156.2184 C   0  0  0  0  0  0  0  0  0  0  0  0
  153.0437  138.3264  155.5896 C   0  0  0  0  0  0  0  0  0  0  0  0
  152.0792  137.5173  155.0576 C   0  0  0  0  0  0  0  0  0  0  0  0
  151.0860  138.4397  154.6340 C   0  0  0  0  0  0  0  0  0  0  0  0
  149.8923  137.9905  154.0137 N   0  0  0  0  0  0  0  0  0  0  0  0
  148.6313  138.3461  154.3127 C   0  0  0  0  0  0  0  0  0  0  0  0
  148.3061  139.1376  155.1983 O   0  0  0  0  0  0  0  0  0  0  0  0
  147.7460  137.7241  153.5203 N   0  0  0  0  0  0  0  0  0  0  0  0
  146.3008  137.9059  153.5865 C   0  0  0  0  0  0  0  0  0  0  0  0
  145.5842  137.1832  152.4291 C   0  0  0  0  0  0  0  0  0  0  0  0
  145.9873  135.7589  152.3210 N   0  3  2  0  0  0  0  0  0  0  0  0
  145.2822  135.0345  151.2302 C   0  0  0  0  0  0  0  0  0  0  0  0
  145.8388  133.6121  151.0617 C   0  0  0  0  0  0  0  0  0  0  0  0
  145.7622  132.8307  152.3810 C   0  0  0  0  0  0  0  0  0  0  0  0
  146.4344  133.6056  153.5298 C   0  0  1  0  0  0  0  0  0  0  0  0
  147.9707  133.5886  153.4421 C   0  0  0  0  0  0  0  0  0  0  0  0
  145.8717  135.0398  153.6175 C   0  0  0  0  0  0  0  0  0  0  0  0
  151.4131  139.6979  154.8859 N   0  0  0  0  0  0  0  0  0  0  0  0
  152.6696  139.6319  155.4992 O   0  0  0  0  0  0  0  0  0  0  0  0
  154.2767  137.2679  156.9761 H   0  0  0  0  0  0  0  0  0  0  0  0
  154.7702  138.9382  156.6985 H   0  0  0  0  0  0  0  0  0  0  0  0
  155.0849  137.7108  155.4707 H   0  0  0  0  0  0  0  0  0  0  0  0
  152.0869  136.4396  154.9846 H   0  0  0  0  0  0  0  0  0  0  0  0
  150.0133  137.3297  153.2605 H   0  0  0  0  0  0  0  0  0  0  0  0
  148.0967  137.0911  152.8160 H   0  0  0  0  0  0  0  0  0  0  0  0
  145.9434  137.5630  154.5579 H   0  0  0  0  0  0  0  0  0  0  0  0
  146.0923  138.9752  153.5406 H   0  0  0  0  0  0  0  0  0  0  0  0
  144.5102  137.2434  152.6115 H   0  0  0  0  0  0  0  0  0  0  0  0
  145.7613  137.6849  151.4764 H   0  0  0  0  0  0  0  0  0  0  0  0
  144.2138  134.9955  151.4494 H   0  0  0  0  0  0  0  0  0  0  0  0
  145.3888  135.5671  150.2860 H   0  0  0  0  0  0  0  0  0  0  0  0
  145.2803  133.0848  150.2875 H   0  0  0  0  0  0  0  0  0  0  0  0
  146.8713  133.6589  150.7140 H   0  0  0  0  0  0  0  0  0  0  0  0
  144.7145  132.6572  152.6308 H   0  0  0  0  0  0  0  0  0  0  0  0
  146.2152  131.8453  152.2657 H   0  0  0  0  0  0  0  0  0  0  0  0
  146.1753  133.0961  154.4589 H   0  0  0  0  0  0  0  0  0  0  0  0
  148.3348  134.1014  152.5519 H   0  0  0  0  0  0  0  0  0  0  0  0
  148.3505  132.5667  153.4144 H   0  0  0  0  0  0  0  0  0  0  0  0
  148.4162  134.0786  154.3085 H   0  0  0  0  0  0  0  0  0  0  0  0
  146.4003  135.5885  154.3982 H   0  0  0  0  0  0  0  0  0  0  0  0
  144.8219  135.0099  153.9147 H   0  0  0  0  0  0  0  0  0  0  0  0
  146.9704  135.7581  152.0894 H   0  0  0  0  0  0  0  0  0  0  0  0
  1  2  1  0  0  0  0
  1 20  1  0  0  0  0
  1 21  1  0  0  0  0
  1 22  1  0  0  0  0
  2 19  1  0  0  0  0
  2  3  2  0  0  0  0
  3  4  1  0  0  0  0
  3 23  1  0  0  0  0
  4  5  1  0  0  0  0
  4 18  2  0  0  0  0
  5  6  1  0  0  0  0
  5 24  1  0  0  0  0
  6  7  2  0  0  0  0
  6  8  1  0  0  0  0
  8  9  1  0  0  0  0
  8 25  1  0  0  0  0
  9 10  1  0  0  0  0
  9 26  1  0  0  0  0
  9 27  1  0  0  0  0
 10 11  1  0  0  0  0
 10 28  1  0  0  0  0
 10 29  1  0  0  0  0
 11 17  1  0  0  0  0
 11 12  1  0  0  0  0
 11 42  1  0  0  0  0
 12 13  1  0  0  0  0
 12 30  1  0  0  0  0
 12 31  1  0  0  0  0
 13 14  1  0  0  0  0
 13 32  1  0  0  0  0
 13 33  1  0  0  0  0
 14 15  1  0  0  0  0
 14 34  1  0  0  0  0
 14 35  1  0  0  0  0
 15 16  1  0  0  0  0
 15 17  1  0  0  0  0
 15 36  1  0  0  0  0
 16 37  1  0  0  0  0
 16 38  1  0  0  0  0
 16 39  1  0  0  0  0
 17 40  1  0  0  0  0
 17 41  1  0  0  0  0
 18 19  1  0  0  0  0
M  CHG  1  11   1
M  END
> <s_m_source_file>
AV-unprocessed.smi

> <i_m_source_file_index>
2078

> <i_lp_mmshare_version>
43012

> <i_f3d_flags>
0

> <s_epik_input>
W0NIM11jMVtjSF1jKG5vMSlbTkhdQyg9TylbTkhdW0NIMl1bQ0gyXU4yW0NIMl1bQ0gyXVtDSDJdW0NAQEhdKFtDSDNdKVtDSDJdMg==

> <s_epik_cmdline>
J2VwaWtfcHl0aG9uJywgJy1waCcsICc3LjAnLCAnLXRuJywgJzgnLCAnLW1hJywgJzIwMCcsICctbWV0YWxfYmluZGluZycsICctaW1hZScsICc8aW5maWxlLm1hZT4nLCAnLW9tYWUnLCAnPG91dGZpbGUubWFlPic=

> <r_epik_Ionization_Penalty>
0.00216453

> <r_epik_Ionization_Penalty_Charging>
0.00212879

> <r_epik_Ionization_Penalty_Neutral>
3.57418e-05

> <r_epik_State_Penalty>
0.00146033

> <r_epik_Charging_Adjusted_Penalty>
0.00358912

> <i_epik_Tot_Q>
1

> <i_epik_Tot_abs_Q>
1

> <r_epik_Metal_State_Penalty>
0.0215827

> <b_epik_Metal_Only>
0

> <s_lp_Force_Field>
OPLS_2005

> <r_lp_Energy>
15.3902

> <b_lp_Chiralities_Consistent>
1

> <s_lp_Variant>
AV-unprocessed.smi:2078-2

> <Gold.Version>
5.8.1

> <Gold.Id.Protein>
6NUR|6NUR_protein|mol2

> <Gold.PLP.Fitness>
43.7059

> <Gold.PLP.PLP>
-27.0407

> <Gold.PLP.part.hbond>
-6.1511

> <Gold.PLP.part.metal>
0.0000

> <Gold.PLP.part.buried>
1.2766

> <Gold.PLP.part.nonpolar>
-23.5881

> <Gold.PLP.part.repulsive>
0.3163

> <Gold.PLP.ligand.clash>
0.0000

> <Gold.PLP.ligand.torsion>
0.4837

> <Gold.PLP.Chemscore.Hbond>
5.8723

> <Gold.PLP.Chemscore.CHOScore>
0.0000

> <Gold.PLP.Chemscore.Metal>
0.0000

> <Gold.Chemscore.Hbonds>
donor molecule, donor type, donor heavy atom, donor atom, acceptor molecule, acceptor atom, score
      L1  H     5    24       P1  7948  0.88
      L1  H     8    25       P1  7948  1.00
      L1  H    11    42       P1  7948  2.00
      P1  H  7989  7998       L1    18  1.00
      P1  H  7997  8008       L1    19  0.50

> <Gold.PLP.Chemscore.Internal.Correction>
0.0158

> <Gold.Rescore>
     Score         DG    S(hbond)    S(metal)    S(lipo)     H(rot)  DE(clash)    DE(int)     intcor
     20.18     -21.92       4.08        0.00      58.40       1.57       1.28       0.46       ----

> <Gold.Chemscore.Fitness>
20.1759

> <Gold.Chemscore.DG>
-21.9165

> <Gold.Chemscore.ZeroCoef>
-5.4800

> <Gold.Chemscore.Hbond>
4.0786

> <Gold.Chemscore.Metal>
0.0000

> <Gold.Chemscore.Lipo>
58.3972

> <Gold.Chemscore.Internal_Hbond>
0.0000

> <Gold.Chemscore.DEClash>
1.2806

> <Gold.Chemscore.DEInternal>
0.4600

> <Gold.Chemscore.Rot>
1.5697

> <Gold.Chemscore.Internal.Correction>
   9.000000E+99

> <Gold.Chemscore.Hbonds>
donor molecule, donor type, donor heavy atom, donor atom, acceptor molecule, acceptor atom, score
      L1  H     5    24       P1  7948  0.21
      L1  H     8    25       P1  7948  0.94
      L1  H    11    42       P1  7948  0.93
      P1  H  7989  7998       L1    18  0.44
      P1  H  7997  8008       L1    19  0.02

> <Gold.Chemscore.Hbond.Weighted>
-13.6225

> <Gold.Chemscore.Metal.Weighted>
-0.0000

> <Gold.Chemscore.Lipo.Weighted>
-6.8325

> <Gold.Chemscore.Internal_Hbond.Weighted>
0.0000

> <Gold.Chemscore.DEClash.Weighted>
1.2806

> <Gold.Chemscore.DEInternal.Weighted>
0.4600

> <Gold.Chemscore.Rot.Weighted>
4.0185

> <Gold.Chemscore.Internal.Correction.Weighted>
   9.000000E+99

> <Gold.Protein.RotatedTorsions>
[ 6907 6896 6895 6894 ] final  -57.19 input  -60.11 | X-H torsion
[ 7974 7965 7964 7962 ] final  -15.49 input  175.53 | X-H torsion
[ 8008 7997 7996 7995 ] final  -27.20 input   59.86 | X-H torsion
[ 10167 10162 10161 10158 ] final   65.35 input  -65.29 | X-H torsion
[ 10718 10713 10712 10709 ] final   20.64 input   66.30 | X-H torsion
[ 10763 10752 10751 10750 ] final   -1.44 input  -60.55 | X-H torsion
[ 11005 11000 10999 10996 ] final -148.60 input  -57.11 | X-H torsion

> <Gold.Protein.ActiveResidues>
 VAL166  LYS551  ARG553  GLY616  TRP617  ASP618  TYR619  PRO620  LYS621  CYS622 
 ASP623  PHE694  ASN695  SER759  ASP760  ASP761  ALA762  ILE779  LEU786  VAL792 
 PHE793  MET794  SER795  GLU796  ALA797  LYS798  CYS799  TRP800  GLU811  SER814 

> <Gold.Protein.RotatedAtoms>
  150.8106  134.7258  159.6684 H   0  0  0  0  0  0  0  0  0  0  0  0  # atno 6907 bound_to 6896
  152.4226  134.5924  159.9987 H   0  0  0  0  0  0  0  0  0  0  0  0  # atno 6908 bound_to 6896
  151.6135  133.3308  159.3108 H   0  0  0  0  0  0  0  0  0  0  0  0  # atno 6909 bound_to 6896
  146.2029  140.3501  142.8417 H   0  0  0  0  0  0  0  0  0  0  0  0  # atno 7974 bound_to 7965
  154.4389  140.1879  156.0894 H   0  0  0  0  0  0  0  0  0  0  0  0  # atno 8008 bound_to 7997
  156.0377  140.3323  155.7183 H   0  0  0  0  0  0  0  0  0  0  0  0  # atno 8009 bound_to 7997
  155.5745  140.0616  157.2789 H   0  0  0  0  0  0  0  0  0  0  0  0  # atno 8010 bound_to 7997
  140.1122  144.4807  150.6971 H   0  0  0  0  0  0  0  0  0  0  0  0  # atno 10167 bound_to 10162
  157.1273  130.6576  149.5941 H   0  0  0  0  0  0  0  0  0  0  0  0  # atno 10718 bound_to 10713
  153.3448  135.6982  153.6837 H   0  0  0  0  0  0  0  0  0  0  0  0  # atno 10763 bound_to 10752
  153.5587  135.3539  155.2790 H   0  0  0  0  0  0  0  0  0  0  0  0  # atno 10764 bound_to 10752
  154.8643  135.4244  154.2670 H   0  0  0  0  0  0  0  0  0  0  0  0  # atno 10765 bound_to 10752
  140.7595  134.3314  157.5105 H   0  0  0  0  0  0  0  0  0  0  0  0  # atno 11005 bound_to 11000
  144.8725  140.7292  143.6038 LP  0  0  0  0  0  0  0  0  0  0  0  0  # atno 17320 bound_to 7965
  145.3420  139.1729  143.4480 LP  0  0  0  0  0  0  0  0  0  0  0  0  # atno 17321 bound_to 7965
  140.6919  143.2381  151.5107 LP  0  0  0  0  0  0  0  0  0  0  0  0  # atno 17342 bound_to 10162
  139.5613  144.2150  152.1695 LP  0  0  0  0  0  0  0  0  0  0  0  0  # atno 17343 bound_to 10162
  155.9815  130.4823  150.6833 LP  0  0  0  0  0  0  0  0  0  0  0  0  # atno 17370 bound_to 10713
  157.4423  131.0863  151.0931 LP  0  0  0  0  0  0  0  0  0  0  0  0  # atno 17371 bound_to 10713
  139.8773  134.9193  156.3223 LP  0  0  0  0  0  0  0  0  0  0  0  0  # atno 17394 bound_to 11000
  140.9676  133.7348  156.0489 LP  0  0  0  0  0  0  0  0  0  0  0  0  # atno 17395 bound_to 11000

$$$$
