AV-unprocessed.smi:1|AV-procd|sdf|10|dock8
  -GOLD-   2262015103D 1   1.00000     0.00000
 Structure written by MMmdl.
 57 62  0  0  0  0  0  0  0  0  1 V2000
  151.0874  140.6897  155.4975 O   0  0  0  0  0  0  0  0  0  0  0  0
  151.0231  140.5886  156.7257 C   0  0  0  0  0  0  0  0  0  0  0  0
  150.5757  139.5187  157.4891 N   0  0  0  0  0  0  0  0  0  0  0  0
  150.0719  138.4709  156.9109 C   0  0  0  0  0  0  0  0  0  0  0  0
  149.8445  138.1470  155.5672 N   0  0  0  0  0  0  0  0  0  0  0  0
  149.2842  136.9513  155.0923 C   0  0  0  0  0  0  0  0  0  0  0  0
  148.8958  135.9573  155.8457 N   0  0  0  0  0  0  0  0  0  0  0  0
  149.1152  136.2213  157.1903 C   0  0  0  0  0  0  0  0  0  0  0  0
  149.6471  137.3497  157.7752 C   0  0  0  0  0  0  0  0  0  0  0  0
  149.7173  137.2031  159.1545 N   0  0  0  0  0  0  0  0  0  0  0  0
  149.2278  135.9809  159.3418 C   0  0  0  0  0  0  0  0  0  0  0  0
  148.8408  135.3296  158.2234 N   0  0  0  0  0  0  0  0  0  0  0  0
  148.2477  133.9562  158.0658 C   0  0  1  0  0  0  0  0  0  0  0  0
  148.0110  133.7678  156.7014 O   0  0  0  0  0  0  0  0  0  0  0  0
  149.0039  132.9232  156.1198 C   0  0  1  0  0  0  0  0  0  0  0  0
  149.5815  133.5006  154.8172 C   0  0  0  0  0  0  0  0  0  0  0  0
  148.6342  133.4910  153.7559 O   0  0  0  0  0  0  0  0  0  0  0  0
  148.4466  132.3798  153.0080 C   0  0  0  0  0  0  0  0  0  0  0  0
  149.1740  131.3863  153.0607 O   0  0  0  0  0  0  0  0  0  0  0  0
  147.2595  132.4747  152.1119 C   0  0  0  0  0  0  0  0  0  0  0  0
  146.7291  131.2951  151.5396 C   0  0  0  0  0  0  0  0  0  0  0  0
  145.5992  131.3499  150.7012 C   0  0  0  0  0  0  0  0  0  0  0  0
  144.9834  132.5852  150.4286 C   0  0  0  0  0  0  0  0  0  0  0  0
  145.5018  133.7657  150.9916 C   0  0  0  0  0  0  0  0  0  0  0  0
  146.6354  133.7135  151.8257 C   0  0  0  0  0  0  0  0  0  0  0  0
  150.0272  132.5983  157.2164 C   0  0  2  0  0  0  0  0  0  0  0  0
  150.4049  131.2305  157.2070 O   0  0  0  0  0  0  0  0  0  0  0  0
  149.3526  130.3776  158.1900 S   0  0  0  0  0  0  0  0  0  0  0  0
  148.4451  129.5978  157.3346 O   0  0  0  0  0  0  0  0  0  0  0  0
  150.1328  129.7705  159.2790 O   0  0  0  0  0  0  0  0  0  0  0  0
  148.5023  131.6734  158.8124 O   0  0  0  0  0  0  0  0  0  0  0  0
  149.2180  132.8516  158.4927 C   0  0  2  0  0  0  0  0  0  0  0  0
  151.5012  141.7396  157.5488 C   0  0  0  0  0  0  0  0  0  0  0  0
  152.1358  141.5081  158.7876 C   0  0  0  0  0  0  0  0  0  0  0  0
  152.5961  142.5936  159.5585 C   0  0  0  0  0  0  0  0  0  0  0  0
  152.4276  143.9118  159.0917 C   0  0  0  0  0  0  0  0  0  0  0  0
  151.7963  144.1455  157.8544 C   0  0  0  0  0  0  0  0  0  0  0  0
  151.3329  143.0612  157.0840 C   0  0  0  0  0  0  0  0  0  0  0  0
  149.1897  136.9067  154.0065 H   0  0  0  0  0  0  0  0  0  0  0  0
  149.1620  135.5597  160.3330 H   0  0  0  0  0  0  0  0  0  0  0  0
  147.3272  133.9927  158.6495 H   0  0  0  0  0  0  0  0  0  0  0  0
  148.4758  132.0048  155.8619 H   0  0  0  0  0  0  0  0  0  0  0  0
  149.8767  134.5357  154.9886 H   0  0  0  0  0  0  0  0  0  0  0  0
  150.4946  132.9714  154.5411 H   0  0  0  0  0  0  0  0  0  0  0  0
  147.1792  130.3341  151.7426 H   0  0  0  0  0  0  0  0  0  0  0  0
  145.1997  130.4419  150.2741 H   0  0  0  0  0  0  0  0  0  0  0  0
  144.1129  132.6274  149.7907 H   0  0  0  0  0  0  0  0  0  0  0  0
  145.0275  134.7141  150.7856 H   0  0  0  0  0  0  0  0  0  0  0  0
  147.0033  134.6370  152.2478 H   0  0  0  0  0  0  0  0  0  0  0  0
  150.8977  133.2528  157.1668 H   0  0  0  0  0  0  0  0  0  0  0  0
  149.8177  133.1270  159.3598 H   0  0  0  0  0  0  0  0  0  0  0  0
  152.2721  140.4995  159.1505 H   0  0  0  0  0  0  0  0  0  0  0  0
  153.0801  142.4148  160.5073 H   0  0  0  0  0  0  0  0  0  0  0  0
  152.7826  144.7432  159.6827 H   0  0  0  0  0  0  0  0  0  0  0  0
  151.6676  145.1563  157.4963 H   0  0  0  0  0  0  0  0  0  0  0  0
  150.8503  143.2485  156.1359 H   0  0  0  0  0  0  0  0  0  0  0  0
  150.1059  138.8382  154.8791 H   0  0  0  0  0  0  0  0  0  0  0  0
  1  2  2  0  0  0  0
  2  3  1  0  0  0  0
  2 33  1  0  0  0  0
  3  4  2  0  0  0  0
  4  9  1  0  0  0  0
  4  5  1  0  0  0  0
  5  6  1  0  0  0  0
  5 57  1  0  0  0  0
  6  7  2  0  0  0  0
  6 39  1  0  0  0  0
  7  8  1  0  0  0  0
  8 12  1  0  0  0  0
  8  9  2  0  0  0  0
  9 10  1  0  0  0  0
 10 11  2  0  0  0  0
 11 12  1  0  0  0  0
 11 40  1  0  0  0  0
 12 13  1  0  0  0  0
 13 32  1  0  0  0  0
 13 14  1  0  0  0  0
 13 41  1  0  0  0  0
 14 15  1  0  0  0  0
 15 16  1  0  0  0  0
 15 26  1  0  0  0  0
 15 42  1  0  0  0  0
 16 17  1  0  0  0  0
 16 43  1  0  0  0  0
 16 44  1  0  0  0  0
 17 18  1  0  0  0  0
 18 19  2  0  0  0  0
 18 20  1  0  0  0  0
 20 25  1  0  0  0  0
 20 21  2  0  0  0  0
 21 22  1  0  0  0  0
 21 45  1  0  0  0  0
 22 23  2  0  0  0  0
 22 46  1  0  0  0  0
 23 24  1  0  0  0  0
 23 47  1  0  0  0  0
 24 25  2  0  0  0  0
 24 48  1  0  0  0  0
 25 49  1  0  0  0  0
 26 32  1  0  0  0  0
 26 27  1  0  0  0  0
 26 50  1  0  0  0  0
 27 28  1  0  0  0  0
 28 29  2  0  0  0  0
 28 30  2  0  0  0  0
 28 31  1  0  0  0  0
 31 32  1  0  0  0  0
 32 51  1  0  0  0  0
 33 38  1  0  0  0  0
 33 34  2  0  0  0  0
 34 35  1  0  0  0  0
 34 52  1  0  0  0  0
 35 36  2  0  0  0  0
 35 53  1  0  0  0  0
 36 37  1  0  0  0  0
 36 54  1  0  0  0  0
 37 38  2  0  0  0  0
 37 55  1  0  0  0  0
 38 56  1  0  0  0  0
M  END
> <s_m_source_file>
AV-unprocessed.smi

> <i_m_source_file_index>
1

> <i_lp_mmshare_version>
43012

> <i_f3d_flags>
0

> <s_epik_input>
W2NIXTFbY0hdW2NIXVtjSF1bY0hdYzFDKD1PKVtOSF1jKG5bY0hdbjIpYyhjMjMpbltjSF1uM1tDQEBIXShbQ0BIXShbQ0BIXTQ1KU9TKE81KSg9Tyk9TylPW0NASF00W0NIMl1PQyg9TyljNltjSF1bY0hdW2NIXVtjSF1bY0hdNg==

> <s_epik_cmdline>
J2VwaWtfcHl0aG9uJywgJy1waCcsICc3LjAnLCAnLXRuJywgJzgnLCAnLW1hJywgJzIwMCcsICctbWV0YWxfYmluZGluZycsICctaW1hZScsICc8aW5maWxlLm1hZT4nLCAnLW9tYWUnLCAnPG91dGZpbGUubWFlPic=

> <r_epik_Ionization_Penalty>
0.122545

> <r_epik_Ionization_Penalty_Charging>
0.122545

> <r_epik_Ionization_Penalty_Neutral>
7.8935e-16

> <r_epik_State_Penalty>
2.69178

> <r_epik_Charging_Adjusted_Penalty>
2.81433

> <i_epik_Tot_Q>
0

> <i_epik_Tot_abs_Q>
0

> <r_epik_Metal_State_Penalty>
3.02665

> <b_epik_Metal_Only>
0

> <s_epik_Chemistry_Notes>
This compound has an ester and may undergo hydrolysis at high or low pH. This compound contains an acetal/aminal-like group ( X-CH(R)-Y where X, Y are N, S, or O) that may be acid/base labile, releasing an aldehyde.

> <s_lp_Force_Field>
OPLS_2005

> <r_lp_Energy>
55.0636

> <b_lp_Chiralities_Consistent>
1

> <s_lp_Variant>
AV-unprocessed.smi:1-10

> <Gold.Version>
5.8.1

> <Gold.Id.Protein>
6NUR|6NUR_protein|mol2

> <Gold.PLP.Fitness>
52.2463

> <Gold.PLP.PLP>
-49.6530

> <Gold.PLP.part.hbond>
-1.6526

> <Gold.PLP.part.metal>
0.0000

> <Gold.PLP.part.buried>
-6.9462

> <Gold.PLP.part.nonpolar>
-41.0503

> <Gold.PLP.part.repulsive>
0.8808

> <Gold.PLP.ligand.clash>
0.0000

> <Gold.PLP.ligand.torsion>
0.8931

> <Gold.PLP.Chemscore.Hbond>
0.4360

> <Gold.PLP.Chemscore.CHOScore>
1.0000

> <Gold.PLP.Chemscore.Metal>
0.0000

> <Gold.Chemscore.Hbonds>
donor molecule, donor type, donor heavy atom, donor atom, acceptor molecule, acceptor atom, score
      P1  H  7989  7998       L1     1  0.74
      L1  C     6    39       P1  7948  1.00

> <Gold.PLP.Chemscore.Internal.Correction>
0.0715

> <Gold.Rescore>
     Score         DG    S(hbond)    S(metal)    S(lipo)     H(rot)  DE(clash)    DE(int)     intcor
     12.28     -17.67       0.79        0.00     128.25       2.13       0.35       5.04       ----

> <Gold.Chemscore.Fitness>
12.2836

> <Gold.Chemscore.DG>
-17.6706

> <Gold.Chemscore.ZeroCoef>
-5.4800

> <Gold.Chemscore.Hbond>
0.7924

> <Gold.Chemscore.Metal>
0.0000

> <Gold.Chemscore.Lipo>
128.2498

> <Gold.Chemscore.Internal_Hbond>
0.0000

> <Gold.Chemscore.DEClash>
0.3478

> <Gold.Chemscore.DEInternal>
5.0392

> <Gold.Chemscore.Rot>
2.1333

> <Gold.Chemscore.Internal.Correction>
   9.000000E+99

> <Gold.Chemscore.Hbonds>
donor molecule, donor type, donor heavy atom, donor atom, acceptor molecule, acceptor atom, score
      P1  H  7989  7998       L1     1  0.71

> <Gold.Chemscore.Hbond.Weighted>
-2.6467

> <Gold.Chemscore.Metal.Weighted>
-0.0000

> <Gold.Chemscore.Lipo.Weighted>
-15.0052

> <Gold.Chemscore.Internal_Hbond.Weighted>
0.0000

> <Gold.Chemscore.DEClash.Weighted>
0.3478

> <Gold.Chemscore.DEInternal.Weighted>
5.0392

> <Gold.Chemscore.Rot.Weighted>
5.4614

> <Gold.Chemscore.Internal.Correction.Weighted>
   9.000000E+99

> <Gold.Protein.RotatedTorsions>
[ 6907 6896 6895 6894 ] final  -59.56 input  -60.11 | X-H torsion
[ 7974 7965 7964 7962 ] final  -64.47 input  175.53 | X-H torsion
[ 8008 7997 7996 7995 ] final  122.24 input   59.86 | X-H torsion
[ 10167 10162 10161 10158 ] final -156.77 input  -65.29 | X-H torsion
[ 10718 10713 10712 10709 ] final  101.34 input   66.30 | X-H torsion
[ 10763 10752 10751 10750 ] final   67.73 input  -60.55 | X-H torsion
[ 11005 11000 10999 10996 ] final -129.36 input  -57.11 | X-H torsion

> <Gold.Protein.ActiveResidues>
 VAL166  LYS551  ARG553  GLY616  TRP617  ASP618  TYR619  PRO620  LYS621  CYS622 
 ASP623  PHE694  ASN695  SER759  ASP760  ASP761  ALA762  ILE779  LEU786  VAL792 
 PHE793  MET794  SER795  GLU796  ALA797  LYS798  CYS799  TRP800  GLU811  SER814 

> <Gold.Protein.RotatedAtoms>
  150.7921  134.6953  159.6519 H   0  0  0  0  0  0  0  0  0  0  0  0  # atno 6907 bound_to 6896
  152.4028  134.6254  160.0071 H   0  0  0  0  0  0  0  0  0  0  0  0  # atno 6908 bound_to 6896
  151.6520  133.3283  159.3190 H   0  0  0  0  0  0  0  0  0  0  0  0  # atno 6909 bound_to 6896
  145.7663  140.8836  143.0404 H   0  0  0  0  0  0  0  0  0  0  0  0  # atno 7974 bound_to 7965
  156.2720  140.2790  156.1437 H   0  0  0  0  0  0  0  0  0  0  0  0  # atno 8008 bound_to 7997
  155.0927  140.0389  157.2691 H   0  0  0  0  0  0  0  0  0  0  0  0  # atno 8009 bound_to 7997
  154.6877  140.2622  155.6850 H   0  0  0  0  0  0  0  0  0  0  0  0  # atno 8010 bound_to 7997
  139.6823  143.9560  152.2343 H   0  0  0  0  0  0  0  0  0  0  0  0  # atno 10167 bound_to 10162
  157.6832  131.0723  150.5237 H   0  0  0  0  0  0  0  0  0  0  0  0  # atno 10718 bound_to 10713
  153.0200  135.5273  154.7025 H   0  0  0  0  0  0  0  0  0  0  0  0  # atno 10763 bound_to 10752
  154.6129  135.2880  155.0414 H   0  0  0  0  0  0  0  0  0  0  0  0  # atno 10764 bound_to 10752
  154.1429  135.6575  153.4998 H   0  0  0  0  0  0  0  0  0  0  0  0  # atno 10765 bound_to 10752
  140.9438  134.1158  157.4126 H   0  0  0  0  0  0  0  0  0  0  0  0  # atno 11005 bound_to 11000
  144.6821  139.9792  143.7483 LP  0  0  0  0  0  0  0  0  0  0  0  0  # atno 17320 bound_to 7965
  146.0215  139.3255  143.0810 LP  0  0  0  0  0  0  0  0  0  0  0  0  # atno 17321 bound_to 7965
  139.9353  144.6716  150.8321 LP  0  0  0  0  0  0  0  0  0  0  0  0  # atno 17342 bound_to 10162
  140.7656  143.3281  151.2471 LP  0  0  0  0  0  0  0  0  0  0  0  0  # atno 17343 bound_to 10162
  156.5549  130.4241  149.6090 LP  0  0  0  0  0  0  0  0  0  0  0  0  # atno 17370 bound_to 10713
  156.2870  130.7103  151.1942 LP  0  0  0  0  0  0  0  0  0  0  0  0  # atno 17371 bound_to 10713
  139.8827  135.0045  156.6252 LP  0  0  0  0  0  0  0  0  0  0  0  0  # atno 17394 bound_to 11000
  140.7698  133.8748  155.8482 LP  0  0  0  0  0  0  0  0  0  0  0  0  # atno 17395 bound_to 11000

$$$$
