AV-unprocessed.smi:1601|AV-procd|sdf|6434|dock1
  -GOLD-   22720 7 73D 1   1.00000     0.00000
 Structure written by MMmdl.
 41 42  0  0  0  0  0  0  0  0  1 V2000
  146.8087  138.8291  151.8585 C   0  0  0  0  0  0  0  0  0  0  0  0
  146.6155  138.7866  153.3961 C   0  0  1  0  0  0  0  0  0  0  0  0
  146.0017  137.4126  153.7815 C   0  0  0  0  0  0  0  0  0  0  0  0
  146.5466  136.3219  152.9794 N   0  0  0  0  0  0  0  0  0  0  0  0
  146.1193  135.0504  153.0044 C   0  0  0  0  0  0  0  0  0  0  0  0
  145.1939  134.6624  153.7185 O   0  0  0  0  0  0  0  0  0  0  0  0
  146.8508  134.0735  152.0713 C   0  0  1  0  0  0  0  0  0  0  0  0
  147.6812  133.0298  152.8405 C   0  0  0  0  0  0  0  0  0  0  0  0
  145.9031  133.4306  151.1707 N   0  0  0  0  0  0  0  0  0  0  0  0
  146.1426  132.4909  150.1863 C   0  0  0  0  0  0  0  0  0  0  0  0
  144.9424  132.1851  149.6117 C   0  0  0  0  0  0  0  0  0  0  0  0
  144.0130  132.9973  150.3189 C   0  0  0  0  0  0  0  0  0  0  0  0
  144.5897  133.7402  151.2496 N   0  0  0  0  0  0  0  0  0  0  0  0
  147.8588  139.1038  154.1366 N   0  0  0  0  0  0  0  0  0  0  0  0
  148.2493  140.5136  154.0164 C   0  0  0  0  0  0  0  0  0  0  0  0
  149.5575  140.8368  154.7594 C   0  0  0  0  0  0  0  0  0  0  0  0
  150.6004  139.9973  154.2841 O   0  0  0  0  0  0  0  0  0  0  0  0
  150.2956  138.6205  154.4555 C   0  0  0  0  0  0  0  0  0  0  0  0
  148.9959  138.2823  153.7056 C   0  0  0  0  0  0  0  0  0  0  0  0
  145.9125  138.5323  151.3149 H   0  0  0  0  0  0  0  0  0  0  0  0
  147.6145  138.1643  151.5455 H   0  0  0  0  0  0  0  0  0  0  0  0
  147.0385  139.8309  151.4987 H   0  0  0  0  0  0  0  0  0  0  0  0
  145.8738  139.5472  153.6456 H   0  0  0  0  0  0  0  0  0  0  0  0
  146.1556  137.2301  154.8466 H   0  0  0  0  0  0  0  0  0  0  0  0
  144.9277  137.3848  153.6073 H   0  0  0  0  0  0  0  0  0  0  0  0
  147.3087  136.5518  152.3579 H   0  0  0  0  0  0  0  0  0  0  0  0
  147.5483  134.6587  151.4680 H   0  0  0  0  0  0  0  0  0  0  0  0
  148.4005  133.5101  153.5049 H   0  0  0  0  0  0  0  0  0  0  0  0
  148.2435  132.3987  152.1517 H   0  0  0  0  0  0  0  0  0  0  0  0
  147.0530  132.3760  153.4466 H   0  0  0  0  0  0  0  0  0  0  0  0
  147.1369  132.1218  149.9812 H   0  0  0  0  0  0  0  0  0  0  0  0
  144.7570  131.4873  148.8088 H   0  0  0  0  0  0  0  0  0  0  0  0
  142.9436  133.0677  150.1850 H   0  0  0  0  0  0  0  0  0  0  0  0
  148.3558  140.7800  152.9635 H   0  0  0  0  0  0  0  0  0  0  0  0
  147.4829  141.1640  154.4326 H   0  0  0  0  0  0  0  0  0  0  0  0
  149.8376  141.8777  154.5971 H   0  0  0  0  0  0  0  0  0  0  0  0
  149.4336  140.7028  155.8352 H   0  0  0  0  0  0  0  0  0  0  0  0
  151.1217  138.0223  154.0703 H   0  0  0  0  0  0  0  0  0  0  0  0
  150.2006  138.3888  155.5176 H   0  0  0  0  0  0  0  0  0  0  0  0
  148.7947  137.2267  153.8788 H   0  0  0  0  0  0  0  0  0  0  0  0
  149.1548  138.4035  152.6329 H   0  0  0  0  0  0  0  0  0  0  0  0
  1  2  1  0  0  0  0
  1 20  1  0  0  0  0
  1 21  1  0  0  0  0
  1 22  1  0  0  0  0
  2  3  1  0  0  0  0
  2 14  1  0  0  0  0
  2 23  1  0  0  0  0
  3  4  1  0  0  0  0
  3 24  1  0  0  0  0
  3 25  1  0  0  0  0
  4  5  1  0  0  0  0
  4 26  1  0  0  0  0
  5  6  2  0  0  0  0
  5  7  1  0  0  0  0
  7  8  1  0  0  0  0
  7  9  1  0  0  0  0
  7 27  1  0  0  0  0
  8 28  1  0  0  0  0
  8 29  1  0  0  0  0
  8 30  1  0  0  0  0
  9 13  1  0  0  0  0
  9 10  1  0  0  0  0
 10 11  2  0  0  0  0
 10 31  1  0  0  0  0
 11 12  1  0  0  0  0
 11 32  1  0  0  0  0
 12 13  2  0  0  0  0
 12 33  1  0  0  0  0
 14 19  1  0  0  0  0
 14 15  1  0  0  0  0
 15 16  1  0  0  0  0
 15 34  1  0  0  0  0
 15 35  1  0  0  0  0
 16 17  1  0  0  0  0
 16 36  1  0  0  0  0
 16 37  1  0  0  0  0
 17 18  1  0  0  0  0
 18 19  1  0  0  0  0
 18 38  1  0  0  0  0
 18 39  1  0  0  0  0
 19 40  1  0  0  0  0
 19 41  1  0  0  0  0
M  END
> <s_m_source_file>
AV-unprocessed.smi

> <i_m_source_file_index>
1601

> <i_lp_mmshare_version>
43012

> <i_f3d_flags>
0

> <s_epik_input>
W0NIMl0xW0NIMl1PW0NIMl1bQ0gyXU4xW0NASF0oW0NIM10pW0NIMl1bTkhdQyg9TylbQ0BIXShbQ0gzXSluMltjSF1bY0hdW2NIXW4y

> <s_epik_cmdline>
J2VwaWtfcHl0aG9uJywgJy1waCcsICc3LjAnLCAnLXRuJywgJzgnLCAnLW1hJywgJzIwMCcsICctbWV0YWxfYmluZGluZycsICctaW1hZScsICc8aW5maWxlLm1hZT4nLCAnLW9tYWUnLCAnPG91dGZpbGUubWFlPic=

> <r_lp_tautomer_probability>
1

> <r_epik_Ionization_Penalty>
0.203323

> <r_epik_Ionization_Penalty_Charging>
0

> <r_epik_Ionization_Penalty_Neutral>
0.203323

> <r_epik_State_Penalty>
0.193192

> <r_epik_Charging_Adjusted_Penalty>
0.193192

> <i_epik_Tot_Q>
0

> <i_epik_Tot_abs_Q>
0

> <r_epik_Metal_State_Penalty>
0.193187

> <b_epik_Metal_Only>
0

> <s_lp_Force_Field>
OPLS_2005

> <r_lp_Energy>
33.1122

> <b_lp_Chiralities_Consistent>
1

> <s_lp_Variant>
AV-unprocessed.smi:1601-4

> <Gold.Version>
5.8.1

> <Gold.Id.Protein>
6NUR|6NUR_protein|mol2

> <Gold.PLP.Fitness>
42.1022

> <Gold.PLP.PLP>
-31.0814

> <Gold.PLP.part.hbond>
-2.0000

> <Gold.PLP.part.metal>
0.0000

> <Gold.PLP.part.buried>
1.3206

> <Gold.PLP.part.nonpolar>
-30.6557

> <Gold.PLP.part.repulsive>
0.4585

> <Gold.PLP.ligand.clash>
0.0000

> <Gold.PLP.ligand.torsion>
0.5261

> <Gold.PLP.Chemscore.Hbond>
1.9920

> <Gold.PLP.Chemscore.CHOScore>
2.0000

> <Gold.PLP.Chemscore.Metal>
0.0000

> <Gold.Chemscore.Hbonds>
donor molecule, donor type, donor heavy atom, donor atom, acceptor molecule, acceptor atom, score
      L1  H     4    26       P1  7948  0.96
      P1  H  7989  7998       L1    17  1.00
      L1  C    10    31       P1 10747  1.00
      L1  C    12    33       P1 10186  1.00

> <Gold.PLP.Chemscore.Internal.Correction>
0.0971

> <Gold.Rescore>
     Score         DG    S(hbond)    S(metal)    S(lipo)     H(rot)  DE(clash)    DE(int)     intcor
     13.96     -15.88       1.90        0.00      73.66       1.79       0.06       1.86       ----

> <Gold.Chemscore.Fitness>
13.9610

> <Gold.Chemscore.DG>
-15.8782

> <Gold.Chemscore.ZeroCoef>
-5.4800

> <Gold.Chemscore.Hbond>
1.9028

> <Gold.Chemscore.Metal>
0.0000

> <Gold.Chemscore.Lipo>
73.6585

> <Gold.Chemscore.Internal_Hbond>
0.0000

> <Gold.Chemscore.DEClash>
0.0614

> <Gold.Chemscore.DEInternal>
1.8558

> <Gold.Chemscore.Rot>
1.7872

> <Gold.Chemscore.Internal.Correction>
   9.000000E+99

> <Gold.Chemscore.Hbonds>
donor molecule, donor type, donor heavy atom, donor atom, acceptor molecule, acceptor atom, score
      L1  H     4    26       P1  7948  0.92
      P1  H  7989  7998       L1    17  0.67

> <Gold.Chemscore.Hbond.Weighted>
-6.3554

> <Gold.Chemscore.Metal.Weighted>
-0.0000

> <Gold.Chemscore.Lipo.Weighted>
-8.6180

> <Gold.Chemscore.Internal_Hbond.Weighted>
0.0000

> <Gold.Chemscore.DEClash.Weighted>
0.0614

> <Gold.Chemscore.DEInternal.Weighted>
1.8558

> <Gold.Chemscore.Rot.Weighted>
4.5752

> <Gold.Chemscore.Internal.Correction.Weighted>
   9.000000E+99

> <Gold.Protein.RotatedTorsions>
[ 6907 6896 6895 6894 ] final   19.08 input  -60.11 | X-H torsion
[ 7974 7965 7964 7962 ] final  101.98 input  175.53 | X-H torsion
[ 8008 7997 7996 7995 ] final -166.27 input   59.86 | X-H torsion
[ 10167 10162 10161 10158 ] final  -79.03 input  -65.29 | X-H torsion
[ 10718 10713 10712 10709 ] final  -29.96 input   66.30 | X-H torsion
[ 10763 10752 10751 10750 ] final   93.17 input  -60.55 | X-H torsion
[ 11005 11000 10999 10996 ] final  -98.91 input  -57.11 | X-H torsion

> <Gold.Protein.ActiveResidues>
 VAL166  LYS551  ARG553  GLY616  TRP617  ASP618  TYR619  PRO620  LYS621  CYS622 
 ASP623  PHE694  ASN695  SER759  ASP760  ASP761  ALA762  ILE779  LEU786  VAL792 
 PHE793  MET794  SER795  GLU796  ALA797  LYS798  CYS799  TRP800  GLU811  SER814 

> <Gold.Protein.RotatedAtoms>
  151.8754  135.0474  160.0483 H   0  0  0  0  0  0  0  0  0  0  0  0  # atno 6907 bound_to 6896
  152.2555  133.5247  159.5359 H   0  0  0  0  0  0  0  0  0  0  0  0  # atno 6908 bound_to 6896
  150.7098  134.0817  159.3943 H   0  0  0  0  0  0  0  0  0  0  0  0  # atno 6909 bound_to 6896
  145.3652  139.2409  143.3485 H   0  0  0  0  0  0  0  0  0  0  0  0  # atno 7974 bound_to 7965
  155.8615  140.0979  157.1610 H   0  0  0  0  0  0  0  0  0  0  0  0  # atno 8008 bound_to 7997
  154.3991  140.1364  156.4029 H   0  0  0  0  0  0  0  0  0  0  0  0  # atno 8009 bound_to 7997
  155.7851  140.3457  155.5321 H   0  0  0  0  0  0  0  0  0  0  0  0  # atno 8010 bound_to 7997
  140.4629  143.2448  151.8321 H   0  0  0  0  0  0  0  0  0  0  0  0  # atno 10167 bound_to 10162
  156.4059  130.4399  149.7288 H   0  0  0  0  0  0  0  0  0  0  0  0  # atno 10718 bound_to 10713
  153.2273  135.4335  155.0556 H   0  0  0  0  0  0  0  0  0  0  0  0  # atno 10763 bound_to 10752
  154.8279  135.3371  154.6840 H   0  0  0  0  0  0  0  0  0  0  0  0  # atno 10764 bound_to 10752
  153.7268  135.7013  153.5055 H   0  0  0  0  0  0  0  0  0  0  0  0  # atno 10765 bound_to 10752
  141.1328  133.8281  157.0902 H   0  0  0  0  0  0  0  0  0  0  0  0  # atno 11005 bound_to 11000
  146.2910  140.4293  142.8739 LP  0  0  0  0  0  0  0  0  0  0  0  0  # atno 17320 bound_to 7965
  144.8617  140.7149  143.6103 LP  0  0  0  0  0  0  0  0  0  0  0  0  # atno 17321 bound_to 7965
  139.4808  144.4986  151.9091 LP  0  0  0  0  0  0  0  0  0  0  0  0  # atno 17342 bound_to 10162
  140.4071  144.2417  150.5890 LP  0  0  0  0  0  0  0  0  0  0  0  0  # atno 17343 bound_to 10162
  156.4286  130.7804  151.2823 LP  0  0  0  0  0  0  0  0  0  0  0  0  # atno 17370 bound_to 10713
  157.7505  131.0161  150.3531 LP  0  0  0  0  0  0  0  0  0  0  0  0  # atno 17371 bound_to 10713
  140.0397  134.9860  157.0938 LP  0  0  0  0  0  0  0  0  0  0  0  0  # atno 17394 bound_to 11000
  140.4155  134.1936  155.7163 LP  0  0  0  0  0  0  0  0  0  0  0  0  # atno 17395 bound_to 11000

$$$$
