AV-unprocessed.smi:3155|AV-procd|sdf|12026|dock4
  -GOLD-   2272017443D 1   1.00000     0.00000
 Structure written by MMmdl.
 38 39  0  0  0  0  0  0  0  0  2 V2000
  152.1960  139.2227  155.3293 C   0  0  0  0  0  0  0  0  0  0  0  0
  150.9651  140.1415  155.4569 C   0  0  1  0  0  0  0  0  0  0  0  0
  149.6557  139.4260  155.0648 C   0  0  0  0  0  0  0  0  0  0  0  0
  148.6541  140.3280  154.5253 N   0  0  0  0  0  0  0  0  0  0  0  0
  148.5651  141.6973  154.6657 C   0  0  0  0  0  0  0  0  0  0  0  0
  147.4601  142.1048  153.9750 C   0  0  0  0  0  0  0  0  0  0  0  0
  146.9357  140.8986  153.4323 C   0  0  0  0  0  0  0  0  0  0  0  0
  147.6547  139.8374  153.7611 N   0  0  0  0  0  0  0  0  0  0  0  0
  150.8363  140.6750  156.8311 N   0  3  0  0  0  0  0  0  0  0  0  0
  152.0997  141.1161  157.4631 C   0  0  0  0  0  0  0  0  0  0  0  0
  151.8914  142.2978  158.4208 C   0  0  0  0  0  0  0  0  0  0  0  0
  151.2286  143.2697  158.0549 O   0  0  0  0  0  0  0  0  0  0  0  0
  152.4506  142.2305  159.6465 N   0  0  0  0  0  0  0  0  0  0  0  0
  153.2535  141.0994  160.1077 C   0  0  0  0  0  0  0  0  0  0  0  0
  153.8922  141.5526  161.4206 C   0  0  0  0  0  0  0  0  0  0  0  0
  152.9413  142.6182  161.9477 C   0  0  0  0  0  0  0  0  0  0  0  0
  152.3513  143.2529  160.6879 C   0  0  0  0  0  0  0  0  0  0  0  0
  152.3126  138.8512  154.3110 H   0  0  0  0  0  0  0  0  0  0  0  0
  152.1138  138.3585  155.9892 H   0  0  0  0  0  0  0  0  0  0  0  0
  153.1194  139.7449  155.5779 H   0  0  0  0  0  0  0  0  0  0  0  0
  151.0947  140.9902  154.7834 H   0  0  0  0  0  0  0  0  0  0  0  0
  149.8558  138.6509  154.3233 H   0  0  0  0  0  0  0  0  0  0  0  0
  149.2243  138.9233  155.9318 H   0  0  0  0  0  0  0  0  0  0  0  0
  149.2848  142.2612  155.2407 H   0  0  0  0  0  0  0  0  0  0  0  0
  147.0843  143.1119  153.8706 H   0  0  0  0  0  0  0  0  0  0  0  0
  146.0613  140.7638  152.8125 H   0  0  0  0  0  0  0  0  0  0  0  0
  150.2314  141.4832  156.7915 H   0  0  0  0  0  0  0  0  0  0  0  0
  152.5440  140.2874  158.0141 H   0  0  0  0  0  0  0  0  0  0  0  0
  152.8021  141.4139  156.6837 H   0  0  0  0  0  0  0  0  0  0  0  0
  152.5970  140.2446  160.2766 H   0  0  0  0  0  0  0  0  0  0  0  0
  154.0111  140.8066  159.3791 H   0  0  0  0  0  0  0  0  0  0  0  0
  154.0412  140.7326  162.1237 H   0  0  0  0  0  0  0  0  0  0  0  0
  154.8662  142.0001  161.2186 H   0  0  0  0  0  0  0  0  0  0  0  0
  152.1463  142.1429  162.5241 H   0  0  0  0  0  0  0  0  0  0  0  0
  153.4347  143.3433  162.5958 H   0  0  0  0  0  0  0  0  0  0  0  0
  152.9372  144.1241  160.3913 H   0  0  0  0  0  0  0  0  0  0  0  0
  151.3233  143.5740  160.8596 H   0  0  0  0  0  0  0  0  0  0  0  0
  150.3964  139.9801  157.4176 H   0  0  0  0  0  0  0  0  0  0  0  0
  1  2  1  0  0  0  0
  1 18  1  0  0  0  0
  1 19  1  0  0  0  0
  1 20  1  0  0  0  0
  2  3  1  0  0  0  0
  2  9  1  0  0  0  0
  2 21  1  0  0  0  0
  3  4  1  0  0  0  0
  3 22  1  0  0  0  0
  3 23  1  0  0  0  0
  4  8  1  0  0  0  0
  4  5  1  0  0  0  0
  5  6  2  0  0  0  0
  5 24  1  0  0  0  0
  6  7  1  0  0  0  0
  6 25  1  0  0  0  0
  7  8  2  0  0  0  0
  7 26  1  0  0  0  0
  9 10  1  0  0  0  0
  9 27  1  0  0  0  0
  9 38  1  0  0  0  0
 10 11  1  0  0  0  0
 10 28  1  0  0  0  0
 10 29  1  0  0  0  0
 11 12  2  0  0  0  0
 11 13  1  0  0  0  0
 13 17  1  0  0  0  0
 13 14  1  0  0  0  0
 14 15  1  0  0  0  0
 14 30  1  0  0  0  0
 14 31  1  0  0  0  0
 15 16  1  0  0  0  0
 15 32  1  0  0  0  0
 15 33  1  0  0  0  0
 16 17  1  0  0  0  0
 16 34  1  0  0  0  0
 16 35  1  0  0  0  0
 17 36  1  0  0  0  0
 17 37  1  0  0  0  0
M  CHG  1   9   1
M  END
> <s_m_source_file>
AV-unprocessed.smi

> <i_m_source_file_index>
3155

> <i_lp_mmshare_version>
43012

> <i_f3d_flags>
0

> <s_epik_input>
bjFbY0hdW2NIXVtjSF1uMVtDSDJdW0NAQEhdKFtDSDNdKVtOSF1bQ0gyXUMoPU8pTjJbQ0gyXVtDSDJdW0NIMl1bQ0gyXTI=

> <s_epik_cmdline>
J2VwaWtfcHl0aG9uJywgJy1waCcsICc3LjAnLCAnLXRuJywgJzgnLCAnLW1hJywgJzIwMCcsICctbWV0YWxfYmluZGluZycsICctaW1hZScsICc8aW5maWxlLm1hZT4nLCAnLW9tYWUnLCAnPG91dGZpbGUubWFlPic=

> <r_lp_tautomer_probability>
1

> <r_epik_Ionization_Penalty>
0.120138

> <r_epik_Ionization_Penalty_Charging>
0.120135

> <r_epik_Ionization_Penalty_Neutral>
3.43791e-06

> <r_epik_State_Penalty>
0.109683

> <r_epik_Charging_Adjusted_Penalty>
0.229818

> <i_epik_Tot_Q>
1

> <i_epik_Tot_abs_Q>
1

> <r_epik_Metal_State_Penalty>
0.109693

> <b_epik_Metal_Only>
0

> <s_lp_Force_Field>
OPLS_2005

> <r_lp_Energy>
27.7776

> <b_lp_Chiralities_Consistent>
1

> <s_lp_Variant>
AV-unprocessed.smi:3155-2

> <Gold.Version>
5.8.1

> <Gold.Id.Protein>
6NUR|6NUR_protein|mol2

> <Gold.PLP.Fitness>
43.6010

> <Gold.PLP.PLP>
-39.9377

> <Gold.PLP.part.hbond>
0.0000

> <Gold.PLP.part.metal>
0.0000

> <Gold.PLP.part.buried>
-4.4916

> <Gold.PLP.part.nonpolar>
-34.7707

> <Gold.PLP.part.repulsive>
0.3866

> <Gold.PLP.ligand.clash>
0.0000

> <Gold.PLP.ligand.torsion>
1.0764

> <Gold.PLP.Chemscore.Hbond>
0.0000

> <Gold.PLP.Chemscore.CHOScore>
1.9291

> <Gold.PLP.Chemscore.Metal>
0.0000

> <Gold.Chemscore.Hbonds>
donor molecule, donor type, donor heavy atom, donor atom, acceptor molecule, acceptor atom, score
      L1  C     5    24       P1  8028  0.78
      L1  C     7    26       P1 10175  1.00

> <Gold.PLP.Chemscore.Internal.Correction>
0.0288

> <Gold.Rescore>
     Score         DG    S(hbond)    S(metal)    S(lipo)     H(rot)  DE(clash)    DE(int)     intcor
     10.96     -11.55       0.00        0.00      92.10       1.84       0.04       0.55       ----

> <Gold.Chemscore.Fitness>
10.9611

> <Gold.Chemscore.DG>
-11.5544

> <Gold.Chemscore.ZeroCoef>
-5.4800

> <Gold.Chemscore.Hbond>
0.0000

> <Gold.Chemscore.Metal>
0.0000

> <Gold.Chemscore.Lipo>
92.1031

> <Gold.Chemscore.Internal_Hbond>
0.0000

> <Gold.Chemscore.DEClash>
0.0411

> <Gold.Chemscore.DEInternal>
0.5522

> <Gold.Chemscore.Rot>
1.8366

> <Gold.Chemscore.Internal.Correction>
   9.000000E+99

> <Gold.Chemscore.Hbond.Weighted>
-0.0000

> <Gold.Chemscore.Metal.Weighted>
-0.0000

> <Gold.Chemscore.Lipo.Weighted>
-10.7761

> <Gold.Chemscore.Internal_Hbond.Weighted>
0.0000

> <Gold.Chemscore.DEClash.Weighted>
0.0411

> <Gold.Chemscore.DEInternal.Weighted>
0.5522

> <Gold.Chemscore.Rot.Weighted>
4.7017

> <Gold.Chemscore.Internal.Correction.Weighted>
   9.000000E+99

> <Gold.Protein.RotatedTorsions>
[ 6907 6896 6895 6894 ] final -132.09 input  -60.11 | X-H torsion
[ 7974 7965 7964 7962 ] final  -67.71 input  175.53 | X-H torsion
[ 8008 7997 7996 7995 ] final   34.66 input   59.86 | X-H torsion
[ 10167 10162 10161 10158 ] final  -55.37 input  -65.29 | X-H torsion
[ 10718 10713 10712 10709 ] final -129.29 input   66.30 | X-H torsion
[ 10763 10752 10751 10750 ] final   72.09 input  -60.55 | X-H torsion
[ 11005 11000 10999 10996 ] final  -91.95 input  -57.11 | X-H torsion

> <Gold.Protein.ActiveResidues>
 VAL166  LYS551  ARG553  GLY616  TRP617  ASP618  TYR619  PRO620  LYS621  CYS622 
 ASP623  PHE694  ASN695  SER759  ASP760  ASP761  ALA762  ILE779  LEU786  VAL792 
 PHE793  MET794  SER795  GLU796  ALA797  LYS798  CYS799  TRP800  GLU811  SER814 

> <Gold.Protein.RotatedAtoms>
  150.9584  133.6472  159.2758 H   0  0  0  0  0  0  0  0  0  0  0  0  # atno 6907 bound_to 6896
  151.3803  135.0937  159.9503 H   0  0  0  0  0  0  0  0  0  0  0  0  # atno 6908 bound_to 6896
  152.5138  133.9120  159.7547 H   0  0  0  0  0  0  0  0  0  0  0  0  # atno 6909 bound_to 6896
  145.7257  140.9019  143.0607 H   0  0  0  0  0  0  0  0  0  0  0  0  # atno 7974 bound_to 7965
  155.1584  140.3281  155.4416 H   0  0  0  0  0  0  0  0  0  0  0  0  # atno 8008 bound_to 7997
  156.2551  140.1964  156.6643 H   0  0  0  0  0  0  0  0  0  0  0  0  # atno 8009 bound_to 7997
  154.6422  140.0569  156.9845 H   0  0  0  0  0  0  0  0  0  0  0  0  # atno 8010 bound_to 7997
  140.6378  143.2491  151.5071 H   0  0  0  0  0  0  0  0  0  0  0  0  # atno 10167 bound_to 10162
  156.2032  130.6871  151.0564 H   0  0  0  0  0  0  0  0  0  0  0  0  # atno 10718 bound_to 10713
  153.0438  135.5113  154.7692 H   0  0  0  0  0  0  0  0  0  0  0  0  # atno 10763 bound_to 10752
  154.6608  135.2938  154.9871 H   0  0  0  0  0  0  0  0  0  0  0  0  # atno 10764 bound_to 10752
  154.0722  135.6676  153.4878 H   0  0  0  0  0  0  0  0  0  0  0  0  # atno 10765 bound_to 10752
  141.1533  133.7789  156.9951 H   0  0  0  0  0  0  0  0  0  0  0  0  # atno 11005 bound_to 11000
  144.6905  139.9262  143.7470 LP  0  0  0  0  0  0  0  0  0  0  0  0  # atno 17320 bound_to 7965
  146.0585  139.3580  143.0596 LP  0  0  0  0  0  0  0  0  0  0  0  0  # atno 17321 bound_to 7965
  139.5588  144.2208  152.1657 LP  0  0  0  0  0  0  0  0  0  0  0  0  # atno 17342 bound_to 10162
  140.1470  144.5150  150.6710 LP  0  0  0  0  0  0  0  0  0  0  0  0  # atno 17343 bound_to 10162
  157.6998  131.0780  150.6857 LP  0  0  0  0  0  0  0  0  0  0  0  0  # atno 17370 bound_to 10713
  156.6915  130.4596  149.5598 LP  0  0  0  0  0  0  0  0  0  0  0  0  # atno 17371 bound_to 10713
  140.0977  134.9554  157.1874 LP  0  0  0  0  0  0  0  0  0  0  0  0  # atno 17394 bound_to 11000
  140.3360  134.2756  155.7220 LP  0  0  0  0  0  0  0  0  0  0  0  0  # atno 17395 bound_to 11000

$$$$
