AV-unprocessed.smi:1|AV-procd|sdf|7|dock8
  -GOLD-   2262015 93D 1   1.00000     0.00000
 Structure written by MMmdl.
 57 62  0  0  0  0  0  0  0  0  1 V2000
  153.6253  140.2284  158.8032 O   0  0  0  0  0  0  0  0  0  0  0  0
  152.7584  141.0061  158.4024 C   0  0  0  0  0  0  0  0  0  0  0  0
  152.0304  140.7815  157.1663 N   0  0  0  0  0  0  0  0  0  0  0  0
  152.0976  139.7110  156.3409 C   0  0  0  0  0  0  0  0  0  0  0  0
  152.7265  139.7576  155.1365 N   0  0  0  0  0  0  0  0  0  0  0  0
  152.7698  138.6727  154.3576 C   0  0  0  0  0  0  0  0  0  0  0  0
  152.2579  137.4622  154.5872 N   0  0  0  0  0  0  0  0  0  0  0  0
  151.6326  137.4048  155.7981 C   0  0  0  0  0  0  0  0  0  0  0  0
  151.5127  138.4765  156.7254 C   0  0  0  0  0  0  0  0  0  0  0  0
  150.8147  138.0503  157.8486 N   0  0  0  0  0  0  0  0  0  0  0  0
  150.5409  136.7985  157.5948 C   0  0  0  0  0  0  0  0  0  0  0  0
  150.9928  136.3309  156.3810 N   0  0  0  0  0  0  0  0  0  0  0  0
  150.8356  134.9615  155.8136 C   0  0  2  0  0  0  0  0  0  0  0  0
  150.0744  135.0348  154.6511 O   0  0  0  0  0  0  0  0  0  0  0  0
  149.2222  133.8936  154.5318 C   0  0  2  0  0  0  0  0  0  0  0  0
  147.7738  134.3901  154.4331 C   0  0  0  0  0  0  0  0  0  0  0  0
  147.1611  133.8113  153.2912 O   0  0  0  0  0  0  0  0  0  0  0  0
  145.8396  133.9659  153.0690 C   0  0  0  0  0  0  0  0  0  0  0  0
  145.0812  134.5667  153.8332 O   0  0  0  0  0  0  0  0  0  0  0  0
  145.3890  133.3309  151.7973 C   0  0  0  0  0  0  0  0  0  0  0  0
  146.3549  132.8551  150.8801 C   0  0  0  0  0  0  0  0  0  0  0  0
  145.9595  132.2504  149.6710 C   0  0  0  0  0  0  0  0  0  0  0  0
  144.5931  132.1131  149.3648 C   0  0  0  0  0  0  0  0  0  0  0  0
  143.6224  132.5816  150.2691 C   0  0  0  0  0  0  0  0  0  0  0  0
  144.0159  133.1868  151.4786 C   0  0  0  0  0  0  0  0  0  0  0  0
  149.4577  133.0572  155.7962 C   0  0  1  0  0  0  0  0  0  0  0  0
  150.3955  132.0252  155.5410 O   0  0  0  0  0  0  0  0  0  0  0  0
  151.4336  131.9247  156.8471 S   0  0  0  0  0  0  0  0  0  0  0  0
  151.0108  130.7943  157.6876 O   0  0  0  0  0  0  0  0  0  0  0  0
  152.8108  132.0754  156.3531 O   0  0  0  0  0  0  0  0  0  0  0  0
  150.9934  133.3412  157.6172 O   0  0  0  0  0  0  0  0  0  0  0  0
  150.0923  134.0424  156.7789 C   0  0  1  0  0  0  0  0  0  0  0  0
  152.4596  142.2915  159.1174 C   0  0  0  0  0  0  0  0  0  0  0  0
  151.8668  143.3676  158.4192 C   0  0  0  0  0  0  0  0  0  0  0  0
  151.5980  144.5831  159.0781 C   0  0  0  0  0  0  0  0  0  0  0  0
  151.9278  144.7359  160.4380 C   0  0  0  0  0  0  0  0  0  0  0  0
  152.5288  143.6728  161.1382 C   0  0  0  0  0  0  0  0  0  0  0  0
  152.7972  142.4565  160.4808 C   0  0  0  0  0  0  0  0  0  0  0  0
  151.3920  141.5138  156.8911 H   0  0  0  0  0  0  0  0  0  0  0  0
  153.2878  138.7910  153.4170 H   0  0  0  0  0  0  0  0  0  0  0  0
  149.9945  136.1777  158.2901 H   0  0  0  0  0  0  0  0  0  0  0  0
  151.8447  134.6241  155.5728 H   0  0  0  0  0  0  0  0  0  0  0  0
  149.4808  133.3234  153.6387 H   0  0  0  0  0  0  0  0  0  0  0  0
  147.2102  134.0938  155.3182 H   0  0  0  0  0  0  0  0  0  0  0  0
  147.7611  135.4795  154.3941 H   0  0  0  0  0  0  0  0  0  0  0  0
  147.4100  132.9498  151.0934 H   0  0  0  0  0  0  0  0  0  0  0  0
  146.7062  131.8922  148.9777 H   0  0  0  0  0  0  0  0  0  0  0  0
  144.2902  131.6490  148.4378 H   0  0  0  0  0  0  0  0  0  0  0  0
  142.5731  132.4772  150.0354 H   0  0  0  0  0  0  0  0  0  0  0  0
  143.2449  133.5342  152.1506 H   0  0  0  0  0  0  0  0  0  0  0  0
  148.5448  132.6087  156.1902 H   0  0  0  0  0  0  0  0  0  0  0  0
  149.3350  134.5929  157.3385 H   0  0  0  0  0  0  0  0  0  0  0  0
  151.6089  143.2664  157.3747 H   0  0  0  0  0  0  0  0  0  0  0  0
  151.1404  145.3992  158.5387 H   0  0  0  0  0  0  0  0  0  0  0  0
  151.7231  145.6687  160.9425 H   0  0  0  0  0  0  0  0  0  0  0  0
  152.7876  143.7914  162.1800 H   0  0  0  0  0  0  0  0  0  0  0  0
  153.2683  141.6571  161.0342 H   0  0  0  0  0  0  0  0  0  0  0  0
  1  2  2  0  0  0  0
  2  3  1  0  0  0  0
  2 33  1  0  0  0  0
  3  4  1  0  0  0  0
  3 39  1  0  0  0  0
  4  9  1  0  0  0  0
  4  5  2  0  0  0  0
  5  6  1  0  0  0  0
  6  7  2  0  0  0  0
  6 40  1  0  0  0  0
  7  8  1  0  0  0  0
  8 12  1  0  0  0  0
  8  9  2  0  0  0  0
  9 10  1  0  0  0  0
 10 11  2  0  0  0  0
 11 12  1  0  0  0  0
 11 41  1  0  0  0  0
 12 13  1  0  0  0  0
 13 32  1  0  0  0  0
 13 14  1  0  0  0  0
 13 42  1  0  0  0  0
 14 15  1  0  0  0  0
 15 16  1  0  0  0  0
 15 26  1  0  0  0  0
 15 43  1  0  0  0  0
 16 17  1  0  0  0  0
 16 44  1  0  0  0  0
 16 45  1  0  0  0  0
 17 18  1  0  0  0  0
 18 19  2  0  0  0  0
 18 20  1  0  0  0  0
 20 25  1  0  0  0  0
 20 21  2  0  0  0  0
 21 22  1  0  0  0  0
 21 46  1  0  0  0  0
 22 23  2  0  0  0  0
 22 47  1  0  0  0  0
 23 24  1  0  0  0  0
 23 48  1  0  0  0  0
 24 25  2  0  0  0  0
 24 49  1  0  0  0  0
 25 50  1  0  0  0  0
 26 32  1  0  0  0  0
 26 27  1  0  0  0  0
 26 51  1  0  0  0  0
 27 28  1  0  0  0  0
 28 29  2  0  0  0  0
 28 30  2  0  0  0  0
 28 31  1  0  0  0  0
 31 32  1  0  0  0  0
 32 52  1  0  0  0  0
 33 38  1  0  0  0  0
 33 34  2  0  0  0  0
 34 35  1  0  0  0  0
 34 53  1  0  0  0  0
 35 36  2  0  0  0  0
 35 54  1  0  0  0  0
 36 37  1  0  0  0  0
 36 55  1  0  0  0  0
 37 38  2  0  0  0  0
 37 56  1  0  0  0  0
 38 57  1  0  0  0  0
M  END
> <s_m_source_file>
AV-unprocessed.smi

> <i_m_source_file_index>
1

> <i_lp_mmshare_version>
43012

> <i_f3d_flags>
0

> <s_epik_input>
W2NIXTFbY0hdW2NIXVtjSF1bY0hdYzFDKD1PKVtOSF1jKG5bY0hdbjIpYyhjMjMpbltjSF1uM1tDQEBIXShbQ0BIXShbQ0BIXTQ1KU9TKE81KSg9Tyk9TylPW0NASF00W0NIMl1PQyg9TyljNltjSF1bY0hdW2NIXVtjSF1bY0hdNg==

> <s_epik_cmdline>
J2VwaWtfcHl0aG9uJywgJy1waCcsICc3LjAnLCAnLXRuJywgJzgnLCAnLW1hJywgJzIwMCcsICctbWV0YWxfYmluZGluZycsICctaW1hZScsICc8aW5maWxlLm1hZT4nLCAnLW9tYWUnLCAnPG91dGZpbGUubWFlPic=

> <r_lp_tautomer_probability>
1

> <r_epik_Ionization_Penalty>
0.00195722

> <r_epik_Ionization_Penalty_Charging>
0

> <r_epik_Ionization_Penalty_Neutral>
0.00195722

> <r_epik_State_Penalty>
0.00633741

> <r_epik_Charging_Adjusted_Penalty>
0.00633741

> <i_epik_Tot_Q>
0

> <i_epik_Tot_abs_Q>
0

> <r_epik_Metal_State_Penalty>
0.341185

> <b_epik_Metal_Only>
0

> <s_epik_Chemistry_Notes>
This compound has an ester and may undergo hydrolysis at high or low pH. This compound contains an acetal/aminal-like group ( X-CH(R)-Y where X, Y are N, S, or O) that may be acid/base labile, releasing an aldehyde.

> <s_lp_Force_Field>
OPLS_2005

> <r_lp_Energy>
42.4074

> <b_lp_Chiralities_Consistent>
1

> <s_lp_Variant>
AV-unprocessed.smi:1-7

> <Gold.Version>
5.8.1

> <Gold.Id.Protein>
6NUR|6NUR_protein|mol2

> <Gold.PLP.Fitness>
65.6203

> <Gold.PLP.PLP>
-61.8075

> <Gold.PLP.part.hbond>
-4.6544

> <Gold.PLP.part.metal>
0.0000

> <Gold.PLP.part.buried>
-7.0969

> <Gold.PLP.part.nonpolar>
-50.1973

> <Gold.PLP.part.repulsive>
0.5816

> <Gold.PLP.ligand.clash>
0.0000

> <Gold.PLP.ligand.torsion>
1.6948

> <Gold.PLP.Chemscore.Hbond>
2.3472

> <Gold.PLP.Chemscore.CHOScore>
0.0000

> <Gold.PLP.Chemscore.Metal>
0.0000

> <Gold.Chemscore.Hbonds>
donor molecule, donor type, donor heavy atom, donor atom, acceptor molecule, acceptor atom, score
      P1  H  7989  7998       L1     5  0.14
      P1  H  7997  8008       L1     5  1.00
      P1  H  7997  8010       L1     1  0.57
      P1  H 10752 10763       L1     7  0.74

> <Gold.PLP.Chemscore.Internal.Correction>
0.1606

> <Gold.Rescore>
     Score         DG    S(hbond)    S(metal)    S(lipo)     H(rot)  DE(clash)    DE(int)     intcor
     18.04     -21.35       1.33        0.00     144.38       2.13       1.73       1.58       ----

> <Gold.Chemscore.Fitness>
18.0417

> <Gold.Chemscore.DG>
-21.3458

> <Gold.Chemscore.ZeroCoef>
-5.4800

> <Gold.Chemscore.Hbond>
1.3278

> <Gold.Chemscore.Metal>
0.0000

> <Gold.Chemscore.Lipo>
144.3792

> <Gold.Chemscore.Internal_Hbond>
0.0000

> <Gold.Chemscore.DEClash>
1.7264

> <Gold.Chemscore.DEInternal>
1.5777

> <Gold.Chemscore.Rot>
2.1333

> <Gold.Chemscore.Internal.Correction>
   9.000000E+99

> <Gold.Chemscore.Hbonds>
donor molecule, donor type, donor heavy atom, donor atom, acceptor molecule, acceptor atom, score
      P1  H  7989  7998       L1     5  0.01
      P1  H  7997  8008       L1     5  0.19
      P1  H  7997  8010       L1     1  0.40
      P1  H 10752 10763       L1     7  0.29

> <Gold.Chemscore.Hbond.Weighted>
-4.4348

> <Gold.Chemscore.Metal.Weighted>
-0.0000

> <Gold.Chemscore.Lipo.Weighted>
-16.8924

> <Gold.Chemscore.Internal_Hbond.Weighted>
0.0000

> <Gold.Chemscore.DEClash.Weighted>
1.7264

> <Gold.Chemscore.DEInternal.Weighted>
1.5777

> <Gold.Chemscore.Rot.Weighted>
5.4614

> <Gold.Chemscore.Internal.Correction.Weighted>
   9.000000E+99

> <Gold.Protein.RotatedTorsions>
[ 6907 6896 6895 6894 ] final  -52.60 input  -60.11 | X-H torsion
[ 7974 7965 7964 7962 ] final  150.21 input  175.53 | X-H torsion
[ 8008 7997 7996 7995 ] final   -0.90 input   59.86 | X-H torsion
[ 10167 10162 10161 10158 ] final   77.09 input  -65.29 | X-H torsion
[ 10718 10713 10712 10709 ] final -121.22 input   66.30 | X-H torsion
[ 10763 10752 10751 10750 ] final   46.21 input  -60.55 | X-H torsion
[ 11005 11000 10999 10996 ] final  -72.88 input  -57.11 | X-H torsion

> <Gold.Protein.ActiveResidues>
 VAL166  LYS551  ARG553  GLY616  TRP617  ASP618  TYR619  PRO620  LYS621  CYS622 
 ASP623  PHE694  ASN695  SER759  ASP760  ASP761  ALA762  ILE779  LEU786  VAL792 
 PHE793  MET794  SER795  GLU796  ALA797  LYS798  CYS799  TRP800  GLU811  SER814 

> <Gold.Protein.RotatedAtoms>
  150.8503  134.7825  159.7002 H   0  0  0  0  0  0  0  0  0  0  0  0  # atno 6907 bound_to 6896
  152.4569  134.5268  159.9809 H   0  0  0  0  0  0  0  0  0  0  0  0  # atno 6908 bound_to 6896
  151.5390  133.3398  159.2967 H   0  0  0  0  0  0  0  0  0  0  0  0  # atno 6909 bound_to 6896
  144.8381  139.6379  143.6029 H   0  0  0  0  0  0  0  0  0  0  0  0  # atno 7974 bound_to 7965
  154.6528  140.2573  155.7194 H   0  0  0  0  0  0  0  0  0  0  0  0  # atno 8008 bound_to 7997
  156.2583  140.2864  156.0890 H   0  0  0  0  0  0  0  0  0  0  0  0  # atno 8009 bound_to 7997
  155.1425  140.0380  157.2792 H   0  0  0  0  0  0  0  0  0  0  0  0  # atno 8010 bound_to 7997
  139.9852  144.5797  150.7865 H   0  0  0  0  0  0  0  0  0  0  0  0  # atno 10167 bound_to 10162
  156.1320  130.6402  150.9636 H   0  0  0  0  0  0  0  0  0  0  0  0  # atno 10718 bound_to 10713
  152.9814  135.6015  154.3562 H   0  0  0  0  0  0  0  0  0  0  0  0  # atno 10763 bound_to 10752
  154.3248  135.2769  155.2503 H   0  0  0  0  0  0  0  0  0  0  0  0  # atno 10764 bound_to 10752
  154.4654  135.5955  153.6340 H   0  0  0  0  0  0  0  0  0  0  0  0  # atno 10765 bound_to 10752
  141.1615  133.6861  156.7127 H   0  0  0  0  0  0  0  0  0  0  0  0  # atno 11005 bound_to 11000
  146.2677  139.6559  142.9318 LP  0  0  0  0  0  0  0  0  0  0  0  0  # atno 17320 bound_to 7965
  145.4752  141.0437  143.2676 LP  0  0  0  0  0  0  0  0  0  0  0  0  # atno 17321 bound_to 7965
  140.7474  143.2907  151.3340 LP  0  0  0  0  0  0  0  0  0  0  0  0  # atno 17342 bound_to 10162
  139.6380  144.0594  152.2531 LP  0  0  0  0  0  0  0  0  0  0  0  0  # atno 17343 bound_to 10162
  157.6496  131.0899  150.8078 LP  0  0  0  0  0  0  0  0  0  0  0  0  # atno 17370 bound_to 10713
  156.8162  130.4969  149.5349 LP  0  0  0  0  0  0  0  0  0  0  0  0  # atno 17371 bound_to 10713
  140.2875  134.8267  157.3987 LP  0  0  0  0  0  0  0  0  0  0  0  0  # atno 17394 bound_to 11000
  140.1377  134.5013  155.8056 LP  0  0  0  0  0  0  0  0  0  0  0  0  # atno 17395 bound_to 11000

$$$$
