AV-unprocessed.smi:2528|AV-procd|sdf|9956|dock10
  -GOLD-   2272013593D 1   1.00000     0.00000
 Structure written by MMmdl.
 43 45  0  0  0  0  0  0  0  0  1 V2000
  144.4861  136.3533  152.2994 O   0  0  0  0  0  0  0  0  0  0  0  0
  145.7064  136.2194  152.2032 C   0  0  0  0  0  0  0  0  0  0  0  0
  146.5776  137.2109  152.4389 N   0  0  0  0  0  0  0  0  0  0  0  0
  146.2118  138.5626  152.8501 C   0  0  0  0  0  0  0  0  0  0  0  0
  147.4352  139.4189  153.2256 C   0  0  2  0  0  0  0  0  0  0  0  0
  148.4515  138.6712  154.1130 C   0  0  0  0  0  0  0  0  0  0  0  0
  149.5530  139.5328  154.5245 N   0  0  0  0  0  0  0  0  0  0  0  0
  150.4980  138.8157  155.3790 C   0  0  0  0  0  0  0  0  0  0  0  0
  151.6882  139.6912  155.8028 C   0  0  0  0  0  0  0  0  0  0  0  0
  151.1915  140.9614  156.5078 C   0  0  0  0  0  0  0  0  0  0  0  0
  150.1606  141.6835  155.6267 C   0  0  0  0  0  0  0  0  0  0  0  0
  149.0301  140.7240  155.2007 C   0  0  1  0  0  0  0  0  0  0  0  0
  148.0042  141.4548  154.3114 C   0  0  0  0  0  0  0  0  0  0  0  0
  146.9633  140.5589  153.9372 O   0  0  0  0  0  0  0  0  0  0  0  0
  146.3401  135.0843  151.8595 N   0  0  0  0  0  0  0  0  0  0  0  0
  145.7683  133.8234  151.5404 C   0  0  0  0  0  0  0  0  0  0  0  0
  144.4185  133.8649  151.1229 C   0  0  0  0  0  0  0  0  0  0  0  0
  143.7612  132.6664  150.7835 C   0  0  0  0  0  0  0  0  0  0  0  0
  144.4705  131.4555  150.8725 C   0  0  0  0  0  0  0  0  0  0  0  0
  145.8105  131.5017  151.2983 C   0  0  0  0  0  0  0  0  0  0  0  0
  146.4427  132.6490  151.6229 N   0  0  0  0  0  0  0  0  0  0  0  0
  147.5631  137.0166  152.3378 H   0  0  0  0  0  0  0  0  0  0  0  0
  145.6467  139.0461  152.0514 H   0  0  0  0  0  0  0  0  0  0  0  0
  145.5355  138.4881  153.7021 H   0  0  0  0  0  0  0  0  0  0  0  0
  147.9291  139.7611  152.3143 H   0  0  0  0  0  0  0  0  0  0  0  0
  147.9410  138.2784  154.9938 H   0  0  0  0  0  0  0  0  0  0  0  0
  148.8463  137.8105  153.5724 H   0  0  0  0  0  0  0  0  0  0  0  0
  149.9860  138.4476  156.2695 H   0  0  0  0  0  0  0  0  0  0  0  0
  150.8724  137.9368  154.8529 H   0  0  0  0  0  0  0  0  0  0  0  0
  152.3517  139.1311  156.4620 H   0  0  0  0  0  0  0  0  0  0  0  0
  152.2756  139.9627  154.9245 H   0  0  0  0  0  0  0  0  0  0  0  0
  150.7353  140.6956  157.4622 H   0  0  0  0  0  0  0  0  0  0  0  0
  152.0282  141.6228  156.7338 H   0  0  0  0  0  0  0  0  0  0  0  0
  149.7490  142.5369  156.1665 H   0  0  0  0  0  0  0  0  0  0  0  0
  150.6568  142.0853  154.7421 H   0  0  0  0  0  0  0  0  0  0  0  0
  148.5087  140.4059  156.1051 H   0  0  0  0  0  0  0  0  0  0  0  0
  147.5647  142.2962  154.8476 H   0  0  0  0  0  0  0  0  0  0  0  0
  148.4802  141.8601  153.4168 H   0  0  0  0  0  0  0  0  0  0  0  0
  147.3481  135.1237  151.8323 H   0  0  0  0  0  0  0  0  0  0  0  0
  143.8884  134.8042  151.0596 H   0  0  0  0  0  0  0  0  0  0  0  0
  142.7307  132.6769  150.4605 H   0  0  0  0  0  0  0  0  0  0  0  0
  144.0005  130.5161  150.6215 H   0  0  0  0  0  0  0  0  0  0  0  0
  146.3907  130.5946  151.3804 H   0  0  0  0  0  0  0  0  0  0  0  0
  1  2  2  0  0  0  0
  2  3  1  0  0  0  0
  2 15  1  0  0  0  0
  3  4  1  0  0  0  0
  3 22  1  0  0  0  0
  4  5  1  0  0  0  0
  4 23  1  0  0  0  0
  4 24  1  0  0  0  0
  5 14  1  0  0  0  0
  5  6  1  0  0  0  0
  5 25  1  0  0  0  0
  6  7  1  0  0  0  0
  6 26  1  0  0  0  0
  6 27  1  0  0  0  0
  7 12  1  0  0  0  0
  7  8  1  0  0  0  0
  8  9  1  0  0  0  0
  8 28  1  0  0  0  0
  8 29  1  0  0  0  0
  9 10  1  0  0  0  0
  9 30  1  0  0  0  0
  9 31  1  0  0  0  0
 10 11  1  0  0  0  0
 10 32  1  0  0  0  0
 10 33  1  0  0  0  0
 11 12  1  0  0  0  0
 11 34  1  0  0  0  0
 11 35  1  0  0  0  0
 12 13  1  0  0  0  0
 12 36  1  0  0  0  0
 13 14  1  0  0  0  0
 13 37  1  0  0  0  0
 13 38  1  0  0  0  0
 15 16  1  0  0  0  0
 15 39  1  0  0  0  0
 16 21  1  0  0  0  0
 16 17  2  0  0  0  0
 17 18  1  0  0  0  0
 17 40  1  0  0  0  0
 18 19  2  0  0  0  0
 18 41  1  0  0  0  0
 19 20  1  0  0  0  0
 19 42  1  0  0  0  0
 20 21  2  0  0  0  0
 20 43  1  0  0  0  0
M  END
> <s_m_source_file>
AV-unprocessed.smi

> <i_m_source_file_index>
2528

> <i_lp_mmshare_version>
43012

> <i_f3d_flags>
0

> <s_epik_input>
bjFbY0hdW2NIXVtjSF1bY0hdYzFbTkhdQyg9TylbTkhdW0NIMl1bQ0BIXShbQ0gyXTIpT1tDSDJdW0NAQEhdKE4yMylbQ0gyXVtDSDJdW0NIMl1bQ0gyXTM=

> <s_epik_cmdline>
J2VwaWtfcHl0aG9uJywgJy1waCcsICc3LjAnLCAnLXRuJywgJzgnLCAnLW1hJywgJzIwMCcsICctbWV0YWxfYmluZGluZycsICctaW1hZScsICc8aW5maWxlLm1hZT4nLCAnLW9tYWUnLCAnPG91dGZpbGUubWFlPic=

> <r_epik_Ionization_Penalty>
1.14192

> <r_epik_Ionization_Penalty_Charging>
0

> <r_epik_Ionization_Penalty_Neutral>
1.14192

> <r_epik_State_Penalty>
1.20248

> <r_epik_Charging_Adjusted_Penalty>
1.20248

> <i_epik_Tot_Q>
0

> <i_epik_Tot_abs_Q>
0

> <r_epik_Metal_State_Penalty>
1.20248

> <b_epik_Metal_Only>
0

> <s_lp_Force_Field>
OPLS_2005

> <r_lp_Energy>
34.3645

> <b_lp_Chiralities_Consistent>
1

> <s_lp_Variant>
AV-unprocessed.smi:2528-9

> <Gold.Version>
5.8.1

> <Gold.Id.Protein>
6NUR|6NUR_protein|mol2

> <Gold.PLP.Fitness>
44.7720

> <Gold.PLP.PLP>
-36.7962

> <Gold.PLP.part.hbond>
-2.0000

> <Gold.PLP.part.metal>
0.0000

> <Gold.PLP.part.buried>
-3.0493

> <Gold.PLP.part.nonpolar>
-32.9328

> <Gold.PLP.part.repulsive>
0.7392

> <Gold.PLP.ligand.clash>
0.0000

> <Gold.PLP.ligand.torsion>
0.2490

> <Gold.PLP.Chemscore.Hbond>
2.0000

> <Gold.PLP.Chemscore.CHOScore>
0.8245

> <Gold.PLP.Chemscore.Metal>
0.0000

> <Gold.Chemscore.Hbonds>
donor molecule, donor type, donor heavy atom, donor atom, acceptor molecule, acceptor atom, score
      L1  H     3    22       P1  7948  1.00
      L1  H    15    39       P1  7948  0.98
      L1  C    20    43       P1 10747  0.19

> <Gold.PLP.Chemscore.Internal.Correction>
0.0003

> <Gold.Rescore>
     Score         DG    S(hbond)    S(metal)    S(lipo)     H(rot)  DE(clash)    DE(int)     intcor
     17.84     -19.69       1.90        0.00      95.02       1.27       0.13       1.73       ----

> <Gold.Chemscore.Fitness>
17.8379

> <Gold.Chemscore.DG>
-19.6931

> <Gold.Chemscore.ZeroCoef>
-5.4800

> <Gold.Chemscore.Hbond>
1.9001

> <Gold.Chemscore.Metal>
0.0000

> <Gold.Chemscore.Lipo>
95.0181

> <Gold.Chemscore.Internal_Hbond>
0.0000

> <Gold.Chemscore.DEClash>
0.1257

> <Gold.Chemscore.DEInternal>
1.7295

> <Gold.Chemscore.Rot>
1.2696

> <Gold.Chemscore.Internal.Correction>
   9.000000E+99

> <Gold.Chemscore.Hbonds>
donor molecule, donor type, donor heavy atom, donor atom, acceptor molecule, acceptor atom, score
      L1  H     3    22       P1  7948  0.99
      L1  H    15    39       P1  7948  0.88

> <Gold.Chemscore.Hbond.Weighted>
-6.3462

> <Gold.Chemscore.Metal.Weighted>
-0.0000

> <Gold.Chemscore.Lipo.Weighted>
-11.1171

> <Gold.Chemscore.Internal_Hbond.Weighted>
0.0000

> <Gold.Chemscore.DEClash.Weighted>
0.1257

> <Gold.Chemscore.DEInternal.Weighted>
1.7295

> <Gold.Chemscore.Rot.Weighted>
3.2502

> <Gold.Chemscore.Internal.Correction.Weighted>
   9.000000E+99

> <Gold.Protein.RotatedTorsions>
[ 6907 6896 6895 6894 ] final   45.89 input  -60.11 | X-H torsion
[ 7974 7965 7964 7962 ] final   40.93 input  175.53 | X-H torsion
[ 8008 7997 7996 7995 ] final  125.06 input   59.86 | X-H torsion
[ 10167 10162 10161 10158 ] final   31.83 input  -65.29 | X-H torsion
[ 10718 10713 10712 10709 ] final   43.04 input   66.30 | X-H torsion
[ 10763 10752 10751 10750 ] final  132.64 input  -60.55 | X-H torsion
[ 11005 11000 10999 10996 ] final  -99.19 input  -57.11 | X-H torsion

> <Gold.Protein.ActiveResidues>
 VAL166  LYS551  ARG553  GLY616  TRP617  ASP618  TYR619  PRO620  LYS621  CYS622 
 ASP623  PHE694  ASN695  SER759  ASP760  ASP761  ALA762  ILE779  LEU786  VAL792 
 PHE793  MET794  SER795  GLU796  ALA797  LYS798  CYS799  TRP800  GLU811  SER814 

> <Gold.Protein.RotatedAtoms>
  152.2499  134.8143  160.0447 H   0  0  0  0  0  0  0  0  0  0  0  0  # atno 6907 bound_to 6896
  151.8827  133.3493  159.3780 H   0  0  0  0  0  0  0  0  0  0  0  0  # atno 6908 bound_to 6896
  150.7081  134.4929  159.5569 H   0  0  0  0  0  0  0  0  0  0  0  0  # atno 6909 bound_to 6896
  146.0864  139.5474  142.9504 H   0  0  0  0  0  0  0  0  0  0  0  0  # atno 7974 bound_to 7965
  156.2822  140.2725  156.1888 H   0  0  0  0  0  0  0  0  0  0  0  0  # atno 8008 bound_to 7997
  155.0480  140.0386  157.2551 H   0  0  0  0  0  0  0  0  0  0  0  0  # atno 8009 bound_to 7997
  154.7219  140.2689  155.6539 H   0  0  0  0  0  0  0  0  0  0  0  0  # atno 8010 bound_to 7997
  140.4553  144.0988  150.6200 H   0  0  0  0  0  0  0  0  0  0  0  0  # atno 10167 bound_to 10162
  157.4116  130.7917  149.7435 H   0  0  0  0  0  0  0  0  0  0  0  0  # atno 10718 bound_to 10713
  153.7940  135.3151  155.3382 H   0  0  0  0  0  0  0  0  0  0  0  0  # atno 10763 bound_to 10752
  154.8115  135.4664  154.0531 H   0  0  0  0  0  0  0  0  0  0  0  0  # atno 10764 bound_to 10752
  153.1858  135.6901  153.8504 H   0  0  0  0  0  0  0  0  0  0  0  0  # atno 10765 bound_to 10752
  141.1317  133.8303  157.0939 H   0  0  0  0  0  0  0  0  0  0  0  0  # atno 11005 bound_to 11000
  145.6121  141.0338  143.1961 LP  0  0  0  0  0  0  0  0  0  0  0  0  # atno 17320 bound_to 7965
  144.7329  139.7672  143.7340 LP  0  0  0  0  0  0  0  0  0  0  0  0  # atno 17321 bound_to 7965
  140.4158  143.2635  151.9776 LP  0  0  0  0  0  0  0  0  0  0  0  0  # atno 17342 bound_to 10162
  139.4800  144.5875  151.7829 LP  0  0  0  0  0  0  0  0  0  0  0  0  # atno 17343 bound_to 10162
  155.9852  130.3985  150.3272 LP  0  0  0  0  0  0  0  0  0  0  0  0  # atno 17370 bound_to 10713
  157.1411  131.0297  151.2927 LP  0  0  0  0  0  0  0  0  0  0  0  0  # atno 17371 bound_to 10713
  140.0375  134.9871  157.0898 LP  0  0  0  0  0  0  0  0  0  0  0  0  # atno 17394 bound_to 11000
  140.4188  134.1903  155.7164 LP  0  0  0  0  0  0  0  0  0  0  0  0  # atno 17395 bound_to 11000

$$$$
