AV-unprocessed.smi:2822|AV-procd|sdf|10873|dock4
  -GOLD-   2272015313D 1   1.00000     0.00000
 Structure written by MMmdl.
 40 42  0  0  0  0  0  0  0  0  2 V2000
  150.0532  137.8740  154.4764 Cl  0  0  0  0  0  0  0  0  0  0  0  0
  149.0939  139.2681  154.1203 C   0  0  0  0  0  0  0  0  0  0  0  0
  149.6071  140.5550  154.3829 C   0  0  0  0  0  0  0  0  0  0  0  0
  148.9252  141.6928  154.1346 N   0  0  0  0  0  0  0  0  0  0  0  0
  147.6883  141.5812  153.6078 C   0  0  0  0  0  0  0  0  0  0  0  0
  147.0813  140.3455  153.3067 C   0  0  0  0  0  0  0  0  0  0  0  0
  147.7977  139.1533  153.5668 C   0  0  0  0  0  0  0  0  0  0  0  0
  147.2684  137.8811  153.3000 N   0  0  0  0  0  0  0  0  0  0  0  0
  145.8357  137.6928  153.1314 C   0  0  0  0  0  0  0  0  0  0  0  0
  145.5231  136.4506  152.2854 C   0  0  1  0  0  0  0  0  0  0  0  0
  146.1583  135.1804  152.8943 C   0  0  0  0  0  0  0  0  0  0  0  0
  145.7541  133.9594  152.1562 N   0  3  2  0  0  0  0  0  0  0  0  0
  146.4783  133.7782  150.8685 C   0  0  0  0  0  0  0  0  0  0  0  0
  146.0740  132.4658  150.1812 C   0  0  0  0  0  0  0  0  0  0  0  0
  144.5588  132.4188  149.9552 C   0  0  0  0  0  0  0  0  0  0  0  0
  143.8276  132.6039  151.2916 C   0  0  0  0  0  0  0  0  0  0  0  0
  144.2719  133.8807  152.0364 C   0  0  2  0  0  0  0  0  0  0  0  0
  143.7042  135.1850  151.4378 C   0  0  0  0  0  0  0  0  0  0  0  0
  144.1084  136.2839  152.2465 O   0  0  0  0  0  0  0  0  0  0  0  0
  150.5938  140.6754  154.8054 H   0  0  0  0  0  0  0  0  0  0  0  0
  147.1631  142.5061  153.4209 H   0  0  0  0  0  0  0  0  0  0  0  0
  146.0860  140.3356  152.8890 H   0  0  0  0  0  0  0  0  0  0  0  0
  147.8910  137.1560  152.9724 H   0  0  0  0  0  0  0  0  0  0  0  0
  145.3854  137.5791  154.1183 H   0  0  0  0  0  0  0  0  0  0  0  0
  145.3969  138.5801  152.6732 H   0  0  0  0  0  0  0  0  0  0  0  0
  145.9024  136.6095  151.2746 H   0  0  0  0  0  0  0  0  0  0  0  0
  147.2457  135.2620  152.9178 H   0  0  0  0  0  0  0  0  0  0  0  0
  145.8353  135.0726  153.9307 H   0  0  0  0  0  0  0  0  0  0  0  0
  146.2848  134.6149  150.1974 H   0  0  0  0  0  0  0  0  0  0  0  0
  147.5523  133.7723  151.0574 H   0  0  0  0  0  0  0  0  0  0  0  0
  146.5966  132.3668  149.2293 H   0  0  0  0  0  0  0  0  0  0  0  0
  146.3827  131.6180  150.7945 H   0  0  0  0  0  0  0  0  0  0  0  0
  144.2620  133.1980  149.2524 H   0  0  0  0  0  0  0  0  0  0  0  0
  144.2765  131.4678  149.5024 H   0  0  0  0  0  0  0  0  0  0  0  0
  142.7488  132.6149  151.1319 H   0  0  0  0  0  0  0  0  0  0  0  0
  144.0292  131.7377  151.9234 H   0  0  0  0  0  0  0  0  0  0  0  0
  143.8788  133.8047  153.0517 H   0  0  0  0  0  0  0  0  0  0  0  0
  144.0264  135.3373  150.4072 H   0  0  0  0  0  0  0  0  0  0  0  0
  142.6147  135.1493  151.4244 H   0  0  0  0  0  0  0  0  0  0  0  0
  146.0329  133.1757  152.7295 H   0  0  0  0  0  0  0  0  0  0  0  0
  1  2  1  0  0  0  0
  2  7  1  0  0  0  0
  2  3  2  0  0  0  0
  3  4  1  0  0  0  0
  3 20  1  0  0  0  0
  4  5  2  0  0  0  0
  5  6  1  0  0  0  0
  5 21  1  0  0  0  0
  6  7  2  0  0  0  0
  6 22  1  0  0  0  0
  7  8  1  0  0  0  0
  8  9  1  0  0  0  0
  8 23  1  0  0  0  0
  9 10  1  0  0  0  0
  9 24  1  0  0  0  0
  9 25  1  0  0  0  0
 10 19  1  0  0  0  0
 10 11  1  0  0  0  0
 10 26  1  0  0  0  0
 11 12  1  0  0  0  0
 11 27  1  0  0  0  0
 11 28  1  0  0  0  0
 12 17  1  0  0  0  0
 12 13  1  0  0  0  0
 12 40  1  0  0  0  0
 13 14  1  0  0  0  0
 13 29  1  0  0  0  0
 13 30  1  0  0  0  0
 14 15  1  0  0  0  0
 14 31  1  0  0  0  0
 14 32  1  0  0  0  0
 15 16  1  0  0  0  0
 15 33  1  0  0  0  0
 15 34  1  0  0  0  0
 16 17  1  0  0  0  0
 16 35  1  0  0  0  0
 16 36  1  0  0  0  0
 17 18  1  0  0  0  0
 17 37  1  0  0  0  0
 18 19  1  0  0  0  0
 18 38  1  0  0  0  0
 18 39  1  0  0  0  0
M  CHG  1  12   1
M  END
> <s_m_source_file>
AV-unprocessed.smi

> <i_m_source_file_index>
2822

> <i_lp_mmshare_version>
43012

> <i_f3d_flags>
0

> <s_epik_input>
Q2xjMVtjSF1uW2NIXVtjSF1jMVtOSF1bQ0gyXVtDQEhdKFtDSDJdMilPW0NIMl1bQ0BASF0oTjIzKVtDSDJdW0NIMl1bQ0gyXVtDSDJdMw==

> <s_epik_cmdline>
J2VwaWtfcHl0aG9uJywgJy1waCcsICc3LjAnLCAnLXRuJywgJzgnLCAnLW1hJywgJzIwMCcsICctbWV0YWxfYmluZGluZycsICctaW1hZScsICc8aW5maWxlLm1hZT4nLCAnLW9tYWUnLCAnPG91dGZpbGUubWFlPic=

> <r_lp_tautomer_probability>
0.999999

> <r_epik_Ionization_Penalty>
0.88937

> <r_epik_Ionization_Penalty_Charging>
0.0803403

> <r_epik_Ionization_Penalty_Neutral>
0.80903

> <r_epik_State_Penalty>
0.931884

> <r_epik_Charging_Adjusted_Penalty>
1.01222

> <i_epik_Tot_Q>
1

> <i_epik_Tot_abs_Q>
1

> <r_epik_Metal_State_Penalty>
0.0782275

> <b_epik_Metal_Only>
0

> <s_lp_Force_Field>
OPLS_2005

> <r_lp_Energy>
32.5478

> <b_lp_Chiralities_Consistent>
1

> <s_lp_Variant>
AV-unprocessed.smi:2822-14

> <Gold.Version>
5.8.1

> <Gold.Id.Protein>
6NUR|6NUR_protein|mol2

> <Gold.PLP.Fitness>
37.4680

> <Gold.PLP.PLP>
-34.0861

> <Gold.PLP.part.hbond>
-2.0000

> <Gold.PLP.part.metal>
0.0000

> <Gold.PLP.part.buried>
-1.6793

> <Gold.PLP.part.nonpolar>
-28.9891

> <Gold.PLP.part.repulsive>
0.3717

> <Gold.PLP.ligand.clash>
0.0000

> <Gold.PLP.ligand.torsion>
0.2590

> <Gold.PLP.Chemscore.Hbond>
1.2994

> <Gold.PLP.Chemscore.CHOScore>
0.0000

> <Gold.PLP.Chemscore.Metal>
0.0000

> <Gold.Chemscore.Hbonds>
donor molecule, donor type, donor heavy atom, donor atom, acceptor molecule, acceptor atom, score
      L1  H     8    23       P1  7948  1.00
      P1  H  8011  8017       L1     4  0.30

> <Gold.PLP.Chemscore.Internal.Correction>
0.0018

> <Gold.Rescore>
     Score         DG    S(hbond)    S(metal)    S(lipo)     H(rot)  DE(clash)    DE(int)     intcor
     17.12     -17.42       0.99        0.00      99.42       1.17       0.04       0.27       ----

> <Gold.Chemscore.Fitness>
17.1178

> <Gold.Chemscore.DG>
-17.4227

> <Gold.Chemscore.ZeroCoef>
-5.4800

> <Gold.Chemscore.Hbond>
0.9890

> <Gold.Chemscore.Metal>
0.0000

> <Gold.Chemscore.Lipo>
99.4249

> <Gold.Chemscore.Internal_Hbond>
0.0000

> <Gold.Chemscore.DEClash>
0.0353

> <Gold.Chemscore.DEInternal>
0.2696

> <Gold.Chemscore.Rot>
1.1693

> <Gold.Chemscore.Internal.Correction>
   9.000000E+99

> <Gold.Chemscore.Hbonds>
donor molecule, donor type, donor heavy atom, donor atom, acceptor molecule, acceptor atom, score
      L1  H     8    23       P1  7948  0.99
      P1  H  8011  8017       L1     4  0.01

> <Gold.Chemscore.Hbond.Weighted>
-3.3033

> <Gold.Chemscore.Metal.Weighted>
-0.0000

> <Gold.Chemscore.Lipo.Weighted>
-11.6327

> <Gold.Chemscore.Internal_Hbond.Weighted>
0.0000

> <Gold.Chemscore.DEClash.Weighted>
0.0353

> <Gold.Chemscore.DEInternal.Weighted>
0.2696

> <Gold.Chemscore.Rot.Weighted>
2.9934

> <Gold.Chemscore.Internal.Correction.Weighted>
   9.000000E+99

> <Gold.Protein.RotatedTorsions>
[ 6907 6896 6895 6894 ] final   58.77 input  -60.11 | X-H torsion
[ 7974 7965 7964 7962 ] final   81.17 input  175.53 | X-H torsion
[ 8008 7997 7996 7995 ] final -120.30 input   59.86 | X-H torsion
[ 10167 10162 10161 10158 ] final  116.79 input  -65.29 | X-H torsion
[ 10718 10713 10712 10709 ] final  -67.71 input   66.30 | X-H torsion
[ 10763 10752 10751 10750 ] final    4.90 input  -60.55 | X-H torsion
[ 11005 11000 10999 10996 ] final  -64.75 input  -57.11 | X-H torsion

> <Gold.Protein.ActiveResidues>
 VAL166  LYS551  ARG553  GLY616  TRP617  ASP618  TYR619  PRO620  LYS621  CYS622 
 ASP623  PHE694  ASN695  SER759  ASP760  ASP761  ALA762  ILE779  LEU786  VAL792 
 PHE793  MET794  SER795  GLU796  ALA797  LYS798  CYS799  TRP800  GLU811  SER814 

> <Gold.Protein.RotatedAtoms>
  152.3855  134.6524  160.0127 H   0  0  0  0  0  0  0  0  0  0  0  0  # atno 6907 bound_to 6896
  151.6775  133.3307  159.3219 H   0  0  0  0  0  0  0  0  0  0  0  0  # atno 6908 bound_to 6896
  150.7782  134.6746  159.6455 H   0  0  0  0  0  0  0  0  0  0  0  0  # atno 6909 bound_to 6896
  145.6416  139.2427  143.2027 H   0  0  0  0  0  0  0  0  0  0  0  0  # atno 7974 bound_to 7965
  155.1296  140.0400  157.2771 H   0  0  0  0  0  0  0  0  0  0  0  0  # atno 8008 bound_to 7997
  154.6553  140.2578  155.7142 H   0  0  0  0  0  0  0  0  0  0  0  0  # atno 8009 bound_to 7997
  156.2595  140.2828  156.1003 H   0  0  0  0  0  0  0  0  0  0  0  0  # atno 8010 bound_to 7997
  139.6223  144.7103  151.2608 H   0  0  0  0  0  0  0  0  0  0  0  0  # atno 10167 bound_to 10162
  156.0543  130.4282  150.1895 H   0  0  0  0  0  0  0  0  0  0  0  0  # atno 10718 bound_to 10713
  153.2658  135.6927  153.7531 H   0  0  0  0  0  0  0  0  0  0  0  0  # atno 10763 bound_to 10752
  153.6573  135.3366  155.3118 H   0  0  0  0  0  0  0  0  0  0  0  0  # atno 10764 bound_to 10752
  154.8446  135.4469  154.1664 H   0  0  0  0  0  0  0  0  0  0  0  0  # atno 10765 bound_to 10752
  141.1434  133.6670  156.5880 H   0  0  0  0  0  0  0  0  0  0  0  0  # atno 11005 bound_to 11000
  146.1276  140.7228  142.9427 LP  0  0  0  0  0  0  0  0  0  0  0  0  # atno 17320 bound_to 7965
  144.7155  140.4195  143.7047 LP  0  0  0  0  0  0  0  0  0  0  0  0  # atno 17321 bound_to 7965
  140.7389  143.6633  150.8145 LP  0  0  0  0  0  0  0  0  0  0  0  0  # atno 17342 bound_to 10162
  140.0245  143.5507  152.2786 LP  0  0  0  0  0  0  0  0  0  0  0  0  # atno 17343 bound_to 10162
  156.9973  130.9912  151.3400 LP  0  0  0  0  0  0  0  0  0  0  0  0  # atno 17370 bound_to 10713
  157.5498  130.8175  149.8131 LP  0  0  0  0  0  0  0  0  0  0  0  0  # atno 17371 bound_to 10713
  140.3785  134.7544  157.4646 LP  0  0  0  0  0  0  0  0  0  0  0  0  # atno 17394 bound_to 11000
  140.0656  134.5935  155.8699 LP  0  0  0  0  0  0  0  0  0  0  0  0  # atno 17395 bound_to 11000

$$$$
