AV-unprocessed.smi:1100|AV-procd|sdf|4762|dock4
  -GOLD-   22720 3303D 1   1.00000     0.00000
 Structure written by MMmdl.
 44 45  0  0  0  0  0  0  0  0  2 V2000
  150.6144  138.4019  154.3136 C   0  0  0  0  0  0  0  0  0  0  0  0
  150.3409  139.3694  155.4917 C   0  0  1  0  0  0  0  0  0  0  0  0
  151.5427  140.3379  155.6749 C   0  0  0  0  0  0  0  0  0  0  0  0
  151.5224  141.0497  156.9502 N   0  0  0  0  0  0  0  0  0  0  0  0
  152.3290  140.7882  157.9887 C   0  0  0  0  0  0  0  0  0  0  0  0
  153.1713  139.8910  157.9729 O   0  0  0  0  0  0  0  0  0  0  0  0
  152.0852  141.6296  159.0111 N   0  0  0  0  0  0  0  0  0  0  0  0
  152.7417  141.7425  160.2462 C   0  0  0  0  0  0  0  0  0  0  0  0
  152.3264  142.8087  161.1330 C   0  0  0  0  0  0  0  0  0  0  0  0
  152.9159  142.9910  162.3306 C   0  0  0  0  0  0  0  0  0  0  0  0
  154.0020  142.1224  162.7901 C   0  0  0  0  0  0  0  0  0  0  0  0
  154.5461  142.2734  163.8844 O   0  0  0  0  0  0  0  0  0  0  0  0
  154.3721  141.1348  161.9246 N   0  0  0  0  0  0  0  0  0  0  0  0
  155.4560  140.2187  162.2892 C   0  0  0  0  0  0  0  0  0  0  0  0
  153.7501  140.9509  160.6744 C   0  0  0  0  0  0  0  0  0  0  0  0
  149.0573  140.1320  155.3413 N   0  3  0  0  0  0  0  0  0  0  0  0
  149.0846  141.2123  154.3154 C   0  0  0  0  0  0  0  0  0  0  0  0
  147.7361  141.9489  154.2394 C   0  0  0  0  0  0  0  0  0  0  0  0
  146.6936  141.0238  153.9721 O   0  0  0  0  0  0  0  0  0  0  0  0
  146.5814  140.0581  155.0059 C   0  0  0  0  0  0  0  0  0  0  0  0
  147.8845  139.2472  155.0950 C   0  0  0  0  0  0  0  0  0  0  0  0
  151.5731  137.8941  154.4163 H   0  0  0  0  0  0  0  0  0  0  0  0
  150.6262  138.9302  153.3598 H   0  0  0  0  0  0  0  0  0  0  0  0
  149.8718  137.6063  154.2557 H   0  0  0  0  0  0  0  0  0  0  0  0
  150.2448  138.7544  156.3881 H   0  0  0  0  0  0  0  0  0  0  0  0
  152.4769  139.7780  155.6209 H   0  0  0  0  0  0  0  0  0  0  0  0
  151.5923  141.0877  154.8868 H   0  0  0  0  0  0  0  0  0  0  0  0
  150.8538  141.8003  157.0440 H   0  0  0  0  0  0  0  0  0  0  0  0
  151.3289  142.2847  158.8773 H   0  0  0  0  0  0  0  0  0  0  0  0
  151.5290  143.4733  160.8339 H   0  0  0  0  0  0  0  0  0  0  0  0
  152.5815  143.7965  162.9679 H   0  0  0  0  0  0  0  0  0  0  0  0
  155.6943  139.5075  161.4976 H   0  0  0  0  0  0  0  0  0  0  0  0
  155.1859  139.6417  163.1747 H   0  0  0  0  0  0  0  0  0  0  0  0
  156.3701  140.7722  162.5094 H   0  0  0  0  0  0  0  0  0  0  0  0
  154.1639  140.1337  160.1061 H   0  0  0  0  0  0  0  0  0  0  0  0
  149.8444  141.9562  154.5517 H   0  0  0  0  0  0  0  0  0  0  0  0
  149.3340  140.7854  153.3426 H   0  0  0  0  0  0  0  0  0  0  0  0
  147.5336  142.4875  155.1666 H   0  0  0  0  0  0  0  0  0  0  0  0
  147.7602  142.6910  153.4409 H   0  0  0  0  0  0  0  0  0  0  0  0
  146.3560  140.5438  155.9568 H   0  0  0  0  0  0  0  0  0  0  0  0
  145.7436  139.3978  154.7803 H   0  0  0  0  0  0  0  0  0  0  0  0
  148.0361  138.6907  154.1685 H   0  0  0  0  0  0  0  0  0  0  0  0
  147.7667  138.5118  155.8877 H   0  0  0  0  0  0  0  0  0  0  0  0
  148.8964  140.5938  156.2251 H   0  0  0  0  0  0  0  0  0  0  0  0
  1  2  1  0  0  0  0
  1 22  1  0  0  0  0
  1 23  1  0  0  0  0
  1 24  1  0  0  0  0
  2  3  1  0  0  0  0
  2 16  1  0  0  0  0
  2 25  1  0  0  0  0
  3  4  1  0  0  0  0
  3 26  1  0  0  0  0
  3 27  1  0  0  0  0
  4  5  1  0  0  0  0
  4 28  1  0  0  0  0
  5  6  2  0  0  0  0
  5  7  1  0  0  0  0
  7  8  1  0  0  0  0
  7 29  1  0  0  0  0
  8 15  2  0  0  0  0
  8  9  1  0  0  0  0
  9 10  2  0  0  0  0
  9 30  1  0  0  0  0
 10 11  1  0  0  0  0
 10 31  1  0  0  0  0
 11 12  2  0  0  0  0
 11 13  1  0  0  0  0
 13 14  1  0  0  0  0
 13 15  1  0  0  0  0
 14 32  1  0  0  0  0
 14 33  1  0  0  0  0
 14 34  1  0  0  0  0
 15 35  1  0  0  0  0
 16 21  1  0  0  0  0
 16 17  1  0  0  0  0
 16 44  1  0  0  0  0
 17 18  1  0  0  0  0
 17 36  1  0  0  0  0
 17 37  1  0  0  0  0
 18 19  1  0  0  0  0
 18 38  1  0  0  0  0
 18 39  1  0  0  0  0
 19 20  1  0  0  0  0
 20 21  1  0  0  0  0
 20 40  1  0  0  0  0
 20 41  1  0  0  0  0
 21 42  1  0  0  0  0
 21 43  1  0  0  0  0
M  CHG  1  16   1
M  END
> <s_m_source_file>
AV-unprocessed.smi

> <i_m_source_file_index>
1100

> <i_lp_mmshare_version>
43012

> <i_f3d_flags>
0

> <s_epik_input>
W0NIMl0xW0NIMl1PW0NIMl1bQ0gyXU4xW0NASF0oW0NIM10pW0NIMl1bTkhdQyg9TylbTkhdYzJbY0hdW2NIXWMoPU8pbihbQ0gzXSlbY0hdMg==

> <s_epik_cmdline>
J2VwaWtfcHl0aG9uJywgJy1waCcsICc3LjAnLCAnLXRuJywgJzgnLCAnLW1hJywgJzIwMCcsICctbWV0YWxfYmluZGluZycsICctaW1hZScsICc8aW5maWxlLm1hZT4nLCAnLW9tYWUnLCAnPG91dGZpbGUubWFlPic=

> <r_lp_tautomer_probability>
1

> <r_epik_Ionization_Penalty>
0.602556

> <r_epik_Ionization_Penalty_Charging>
0.602536

> <r_epik_Ionization_Penalty_Neutral>
1.99507e-05

> <r_epik_State_Penalty>
0.617039

> <r_epik_Charging_Adjusted_Penalty>
1.21958

> <i_epik_Tot_Q>
1

> <i_epik_Tot_abs_Q>
1

> <r_epik_Metal_State_Penalty>
0.619464

> <b_epik_Metal_Only>
0

> <s_lp_Force_Field>
OPLS_2005

> <r_lp_Energy>
33.6123

> <b_lp_Chiralities_Consistent>
1

> <s_lp_Variant>
AV-unprocessed.smi:1100-4

> <Gold.Version>
5.8.1

> <Gold.Id.Protein>
6NUR|6NUR_protein|mol2

> <Gold.PLP.Fitness>
43.2536

> <Gold.PLP.PLP>
-40.6877

> <Gold.PLP.part.hbond>
-2.0000

> <Gold.PLP.part.metal>
0.0000

> <Gold.PLP.part.buried>
0.4552

> <Gold.PLP.part.nonpolar>
-36.3468

> <Gold.PLP.part.repulsive>
0.4700

> <Gold.PLP.ligand.clash>
0.0000

> <Gold.PLP.ligand.torsion>
0.2373

> <Gold.PLP.Chemscore.Hbond>
1.0000

> <Gold.PLP.Chemscore.CHOScore>
0.0000

> <Gold.PLP.Chemscore.Metal>
0.0000

> <Gold.Chemscore.Hbonds>
donor molecule, donor type, donor heavy atom, donor atom, acceptor molecule, acceptor atom, score
      P1  H  7997  8010       L1     6  0.94

> <Gold.PLP.Chemscore.Internal.Correction>
0.0407

> <Gold.Rescore>
     Score         DG    S(hbond)    S(metal)    S(lipo)     H(rot)  DE(clash)    DE(int)     intcor
     13.93     -15.33       0.93        0.00      91.24       1.54       0.10       1.30       ----

> <Gold.Chemscore.Fitness>
13.9301

> <Gold.Chemscore.DG>
-15.3259

> <Gold.Chemscore.ZeroCoef>
-5.4800

> <Gold.Chemscore.Hbond>
0.9319

> <Gold.Chemscore.Metal>
0.0000

> <Gold.Chemscore.Lipo>
91.2420

> <Gold.Chemscore.Internal_Hbond>
0.0000

> <Gold.Chemscore.DEClash>
0.0984

> <Gold.Chemscore.DEInternal>
1.2975

> <Gold.Chemscore.Rot>
1.5398

> <Gold.Chemscore.Internal.Correction>
   9.000000E+99

> <Gold.Chemscore.Hbonds>
donor molecule, donor type, donor heavy atom, donor atom, acceptor molecule, acceptor atom, score
      P1  H  7997  8010       L1     6  0.90

> <Gold.Chemscore.Hbond.Weighted>
-3.1126

> <Gold.Chemscore.Metal.Weighted>
-0.0000

> <Gold.Chemscore.Lipo.Weighted>
-10.6753

> <Gold.Chemscore.Internal_Hbond.Weighted>
0.0000

> <Gold.Chemscore.DEClash.Weighted>
0.0984

> <Gold.Chemscore.DEInternal.Weighted>
1.2975

> <Gold.Chemscore.Rot.Weighted>
3.9420

> <Gold.Chemscore.Internal.Correction.Weighted>
   9.000000E+99

> <Gold.Protein.RotatedTorsions>
[ 6907 6896 6895 6894 ] final   72.81 input  -60.11 | X-H torsion
[ 7974 7965 7964 7962 ] final   59.35 input  175.53 | X-H torsion
[ 8008 7997 7996 7995 ] final   22.75 input   59.86 | X-H torsion
[ 10167 10162 10161 10158 ] final  145.67 input  -65.29 | X-H torsion
[ 10718 10713 10712 10709 ] final -158.59 input   66.30 | X-H torsion
[ 10763 10752 10751 10750 ] final -148.40 input  -60.55 | X-H torsion
[ 11005 11000 10999 10996 ] final  146.72 input  -57.11 | X-H torsion

> <Gold.Protein.ActiveResidues>
 VAL166  LYS551  ARG553  GLY616  TRP617  ASP618  TYR619  PRO620  LYS621  CYS622 
 ASP623  PHE694  ASN695  SER759  ASP760  ASP761  ALA762  ILE779  LEU786  VAL792 
 PHE793  MET794  SER795  GLU796  ALA797  LYS798  CYS799  TRP800  GLU811  SER814 

> <Gold.Protein.RotatedAtoms>
  152.4889  134.4515  159.9575 H   0  0  0  0  0  0  0  0  0  0  0  0  # atno 6907 bound_to 6896
  151.4506  133.3612  159.2802 H   0  0  0  0  0  0  0  0  0  0  0  0  # atno 6908 bound_to 6896
  150.9024  134.8461  159.7429 H   0  0  0  0  0  0  0  0  0  0  0  0  # atno 6909 bound_to 6896
  145.9081  139.3633  143.0552 H   0  0  0  0  0  0  0  0  0  0  0  0  # atno 7974 bound_to 7965
  154.9705  140.3089  155.4990 H   0  0  0  0  0  0  0  0  0  0  0  0  # atno 8008 bound_to 7997
  156.2966  140.2285  156.4736 H   0  0  0  0  0  0  0  0  0  0  0  0  # atno 8009 bound_to 7997
  154.7881  140.0441  157.1168 H   0  0  0  0  0  0  0  0  0  0  0  0  # atno 8010 bound_to 7997
  139.4921  144.5885  151.6729 H   0  0  0  0  0  0  0  0  0  0  0  0  # atno 10167 bound_to 10162
  156.5562  130.8627  151.2795 H   0  0  0  0  0  0  0  0  0  0  0  0  # atno 10718 bound_to 10713
  154.8235  135.3335  154.6968 H   0  0  0  0  0  0  0  0  0  0  0  0  # atno 10763 bound_to 10752
  153.7597  135.6933  153.4932 H   0  0  0  0  0  0  0  0  0  0  0  0  # atno 10764 bound_to 10752
  153.2118  135.4479  155.0338 H   0  0  0  0  0  0  0  0  0  0  0  0  # atno 10765 bound_to 10752
  140.0816  134.9093  157.1510 H   0  0  0  0  0  0  0  0  0  0  0  0  # atno 11005 bound_to 11000
  145.8706  140.9422  143.0652 LP  0  0  0  0  0  0  0  0  0  0  0  0  # atno 17320 bound_to 7965
  144.6741  140.0650  143.7475 LP  0  0  0  0  0  0  0  0  0  0  0  0  # atno 17321 bound_to 7965
  140.5506  144.0431  150.6125 LP  0  0  0  0  0  0  0  0  0  0  0  0  # atno 17342 bound_to 10162
  140.3484  143.2978  152.0514 LP  0  0  0  0  0  0  0  0  0  0  0  0  # atno 17343 bound_to 10162
  157.7378  130.9801  150.2212 LP  0  0  0  0  0  0  0  0  0  0  0  0  # atno 17370 bound_to 10713
  156.2840  130.3737  149.7907 LP  0  0  0  0  0  0  0  0  0  0  0  0  # atno 17371 bound_to 10713
  140.3479  134.2631  155.7202 LP  0  0  0  0  0  0  0  0  0  0  0  0  # atno 17394 bound_to 11000
  141.2048  133.7875  157.0264 LP  0  0  0  0  0  0  0  0  0  0  0  0  # atno 17395 bound_to 11000

$$$$
