AV-unprocessed.smi:34|AV-procd|sdf|237|dock8
  -GOLD-   2262015583D 1   1.00000     0.00000
 Structure written by MMmdl.
 54 58  0  0  0  0  0  0  0  0  2 V2000
  150.6703  141.5793  156.8251 O   0  0  0  0  0  0  0  0  0  0  0  0
  151.5711  140.9924  157.4288 C   0  0  0  0  0  0  0  0  0  0  0  0
  152.2576  139.8901  157.0348 N   0  5  0  0  0  0  0  0  0  0  0  0
  151.6527  138.9580  156.2832 C   0  0  0  0  0  0  0  0  0  0  0  0
  151.8628  138.9146  154.9427 N   0  0  0  0  0  0  0  0  0  0  0  0
  151.2664  137.9787  154.1951 C   0  0  0  0  0  0  0  0  0  0  0  0
  150.4392  137.0007  154.5760 N   0  0  0  0  0  0  0  0  0  0  0  0
  150.2256  137.0289  155.9235 C   0  0  0  0  0  0  0  0  0  0  0  0
  150.7948  137.9666  156.8334 C   0  0  0  0  0  0  0  0  0  0  0  0
  150.3758  137.7101  158.1308 N   0  0  0  0  0  0  0  0  0  0  0  0
  149.5884  136.6514  157.9544 C   0  0  0  0  0  0  0  0  0  0  0  0
  149.4410  136.1890  156.6970 N   0  0  0  0  0  0  0  0  0  0  0  0
  148.6264  135.0214  156.2481 C   0  0  2  0  0  0  0  0  0  0  0  0
  147.2854  135.3288  156.4662 O   0  0  0  0  0  0  0  0  0  0  0  0
  146.6053  134.1324  156.8063 C   0  0  2  0  0  0  0  0  0  0  0  0
  145.2613  134.4394  157.4788 C   0  0  0  0  0  0  0  0  0  0  0  0
  144.5606  133.2264  157.7011 O   0  0  0  0  0  0  0  0  0  0  0  0
  143.2635  133.2527  158.0643 C   0  0  0  0  0  0  0  0  0  0  0  0
  142.6171  134.2922  158.2117 O   0  0  0  0  0  0  0  0  0  0  0  0
  142.6925  131.8910  158.2747 C   0  0  0  0  0  0  0  0  0  0  0  0
  141.5440  131.7385  159.0860 C   0  0  0  0  0  0  0  0  0  0  0  0
  140.9840  130.4649  159.3049 C   0  0  0  0  0  0  0  0  0  0  0  0
  141.5655  129.3278  158.7147 C   0  0  0  0  0  0  0  0  0  0  0  0
  142.7079  129.4658  157.9050 C   0  0  0  0  0  0  0  0  0  0  0  0
  143.2695  130.7389  157.6852 C   0  0  0  0  0  0  0  0  0  0  0  0
  147.6151  133.3821  157.6781 C   0  0  2  0  0  0  0  0  0  0  0  0
  147.5658  133.8064  158.9419 F   0  0  0  0  0  0  0  0  0  0  0  0
  148.9596  133.7597  157.0669 C   0  0  1  0  0  0  0  0  0  0  0  0
  149.4219  132.7065  156.2457 O   0  0  0  0  0  0  0  0  0  0  0  0
  152.0535  141.5562  158.7387 C   0  0  0  0  0  0  0  0  0  0  0  0
  152.8794  140.7729  159.5768 C   0  0  0  0  0  0  0  0  0  0  0  0
  153.3621  141.2914  160.7942 C   0  0  0  0  0  0  0  0  0  0  0  0
  153.0316  142.6033  161.1826 C   0  0  0  0  0  0  0  0  0  0  0  0
  152.2218  143.3980  160.3499 C   0  0  0  0  0  0  0  0  0  0  0  0
  151.7389  142.8802  159.1321 C   0  0  0  0  0  0  0  0  0  0  0  0
  151.4847  138.0185  153.1383 H   0  0  0  0  0  0  0  0  0  0  0  0
  149.0884  136.1846  158.7902 H   0  0  0  0  0  0  0  0  0  0  0  0
  148.8294  134.9199  155.1805 H   0  0  0  0  0  0  0  0  0  0  0  0
  146.4376  133.5748  155.8829 H   0  0  0  0  0  0  0  0  0  0  0  0
  145.4181  134.9709  158.4186 H   0  0  0  0  0  0  0  0  0  0  0  0
  144.6626  135.0858  156.8360 H   0  0  0  0  0  0  0  0  0  0  0  0
  141.0814  132.5973  159.5512 H   0  0  0  0  0  0  0  0  0  0  0  0
  140.1071  130.3609  159.9270 H   0  0  0  0  0  0  0  0  0  0  0  0
  141.1361  128.3511  158.8830 H   0  0  0  0  0  0  0  0  0  0  0  0
  143.1549  128.5938  157.4507 H   0  0  0  0  0  0  0  0  0  0  0  0
  144.1459  130.8091  157.0575 H   0  0  0  0  0  0  0  0  0  0  0  0
  147.4300  132.3074  157.7050 H   0  0  0  0  0  0  0  0  0  0  0  0
  149.7074  133.9685  157.8338 H   0  0  0  0  0  0  0  0  0  0  0  0
  149.0056  132.7814  155.4003 H   0  0  0  0  0  0  0  0  0  0  0  0
  153.1438  139.7645  159.2926 H   0  0  0  0  0  0  0  0  0  0  0  0
  153.9875  140.6818  161.4292 H   0  0  0  0  0  0  0  0  0  0  0  0
  153.4021  143.0013  162.1156 H   0  0  0  0  0  0  0  0  0  0  0  0
  151.9729  144.4074  160.6422 H   0  0  0  0  0  0  0  0  0  0  0  0
  151.1285  143.5110  158.5021 H   0  0  0  0  0  0  0  0  0  0  0  0
  1  2  2  0  0  0  0
  2  3  1  0  0  0  0
  2 30  1  0  0  0  0
  3  4  1  0  0  0  0
  4  9  1  0  0  0  0
  4  5  2  0  0  0  0
  5  6  1  0  0  0  0
  6  7  2  0  0  0  0
  6 36  1  0  0  0  0
  7  8  1  0  0  0  0
  8 12  1  0  0  0  0
  8  9  2  0  0  0  0
  9 10  1  0  0  0  0
 10 11  2  0  0  0  0
 11 12  1  0  0  0  0
 11 37  1  0  0  0  0
 12 13  1  0  0  0  0
 13 28  1  0  0  0  0
 13 14  1  0  0  0  0
 13 38  1  0  0  0  0
 14 15  1  0  0  0  0
 15 16  1  0  0  0  0
 15 26  1  0  0  0  0
 15 39  1  0  0  0  0
 16 17  1  0  0  0  0
 16 40  1  0  0  0  0
 16 41  1  0  0  0  0
 17 18  1  0  0  0  0
 18 19  2  0  0  0  0
 18 20  1  0  0  0  0
 20 25  1  0  0  0  0
 20 21  2  0  0  0  0
 21 22  1  0  0  0  0
 21 42  1  0  0  0  0
 22 23  2  0  0  0  0
 22 43  1  0  0  0  0
 23 24  1  0  0  0  0
 23 44  1  0  0  0  0
 24 25  2  0  0  0  0
 24 45  1  0  0  0  0
 25 46  1  0  0  0  0
 26 27  1  0  0  0  0
 26 28  1  0  0  0  0
 26 47  1  0  0  0  0
 28 29  1  0  0  0  0
 28 48  1  0  0  0  0
 29 49  1  0  0  0  0
 30 35  1  0  0  0  0
 30 31  2  0  0  0  0
 31 32  1  0  0  0  0
 31 50  1  0  0  0  0
 32 33  2  0  0  0  0
 32 51  1  0  0  0  0
 33 34  1  0  0  0  0
 33 52  1  0  0  0  0
 34 35  2  0  0  0  0
 34 53  1  0  0  0  0
 35 54  1  0  0  0  0
M  CHG  1   3  -1
M  END
> <s_m_source_file>
AV-unprocessed.smi

> <i_m_source_file_index>
34

> <i_lp_mmshare_version>
43012

> <i_f3d_flags>
0

> <s_epik_input>
W2NIXTFbY0hdW2NIXVtjSF1bY0hdYzFDKD1PKVtOSF1jKG5bY0hdbjIpYyhjMjMpbltjSF1uM1tDQEBIXTRPW0NASF0oW0NAQEhdKEYpW0NASF00W09IXSlbQ0gyXU9DKD1PKWM1W2NIXVtjSF1bY0hdW2NIXVtjSF01

> <s_epik_cmdline>
J2VwaWtfcHl0aG9uJywgJy1waCcsICc3LjAnLCAnLXRuJywgJzgnLCAnLW1hJywgJzIwMCcsICctbWV0YWxfYmluZGluZycsICctaW1hZScsICc8aW5maWxlLm1hZT4nLCAnLW9tYWUnLCAnPG91dGZpbGUubWFlPic=

> <r_lp_tautomer_probability>
1

> <r_epik_Ionization_Penalty>
4.33227

> <r_epik_Ionization_Penalty_Charging>
3.41027

> <r_epik_Ionization_Penalty_Neutral>
0.922001

> <r_epik_State_Penalty>
3.41358

> <r_epik_Charging_Adjusted_Penalty>
6.82385

> <i_epik_Tot_Q>
-1

> <i_epik_Tot_abs_Q>
1

> <r_epik_Metal_State_Penalty>
0.496292

> <b_epik_Metal_Only>
1

> <s_epik_Chemistry_Notes>
This compound has an ester and may undergo hydrolysis at high or low pH. This compound contains an acetal/aminal-like group ( X-CH(R)-Y where X, Y are N, S, or O) that may be acid/base labile, releasing an aldehyde.

> <s_lp_Force_Field>
OPLS_2005

> <r_lp_Energy>
44.3344

> <b_lp_Chiralities_Consistent>
1

> <s_lp_Variant>
AV-unprocessed.smi:34-23

> <Gold.Version>
5.8.1

> <Gold.Id.Protein>
6NUR|6NUR_protein|mol2

> <Gold.PLP.Fitness>
55.9777

> <Gold.PLP.PLP>
-46.5668

> <Gold.PLP.part.hbond>
-2.0000

> <Gold.PLP.part.metal>
0.0000

> <Gold.PLP.part.buried>
-9.6449

> <Gold.PLP.part.nonpolar>
-35.4949

> <Gold.PLP.part.repulsive>
0.3666

> <Gold.PLP.ligand.clash>
0.0000

> <Gold.PLP.ligand.torsion>
1.3920

> <Gold.PLP.Chemscore.Hbond>
3.0000

> <Gold.PLP.Chemscore.CHOScore>
0.9763

> <Gold.PLP.Chemscore.Metal>
0.0000

> <Gold.Chemscore.Hbonds>
donor molecule, donor type, donor heavy atom, donor atom, acceptor molecule, acceptor atom, score
      P1  H  7997  8010       L1     3  1.33
      P1  H 11000 11005       L1    19  1.00
      L1  C     6    36       P1  7949  0.67

> <Gold.PLP.Chemscore.Internal.Correction>
0.2661

> <Gold.Rescore>
     Score         DG    S(hbond)    S(metal)    S(lipo)     H(rot)  DE(clash)    DE(int)     intcor
     14.89     -16.27       1.87        0.00      97.86       2.69       0.02       1.36       ----

> <Gold.Chemscore.Fitness>
14.8868

> <Gold.Chemscore.DG>
-16.2720

> <Gold.Chemscore.ZeroCoef>
-5.4800

> <Gold.Chemscore.Hbond>
1.8683

> <Gold.Chemscore.Metal>
0.0000

> <Gold.Chemscore.Lipo>
97.8592

> <Gold.Chemscore.Internal_Hbond>
0.0000

> <Gold.Chemscore.DEClash>
0.0232

> <Gold.Chemscore.DEInternal>
1.3620

> <Gold.Chemscore.Rot>
2.6944

> <Gold.Chemscore.Internal.Correction>
   9.000000E+99

> <Gold.Chemscore.Hbonds>
donor molecule, donor type, donor heavy atom, donor atom, acceptor molecule, acceptor atom, score
      P1  H  7989  7998       L1     5  0.02
      P1  H  7997  8010       L1     3  0.50
      P1  H 11000 11005       L1    19  0.50

> <Gold.Chemscore.Hbond.Weighted>
-6.2400

> <Gold.Chemscore.Metal.Weighted>
-0.0000

> <Gold.Chemscore.Lipo.Weighted>
-11.4495

> <Gold.Chemscore.Internal_Hbond.Weighted>
0.0000

> <Gold.Chemscore.DEClash.Weighted>
0.0232

> <Gold.Chemscore.DEInternal.Weighted>
1.3620

> <Gold.Chemscore.Rot.Weighted>
6.8975

> <Gold.Chemscore.Internal.Correction.Weighted>
   9.000000E+99

> <Gold.Protein.RotatedTorsions>
[ 6907 6896 6895 6894 ] final  131.39 input  -60.11 | X-H torsion
[ 7974 7965 7964 7962 ] final  149.10 input  175.53 | X-H torsion
[ 8008 7997 7996 7995 ] final   69.89 input   59.86 | X-H torsion
[ 10167 10162 10161 10158 ] final  -99.13 input  -65.29 | X-H torsion
[ 10718 10713 10712 10709 ] final  -25.93 input   66.30 | X-H torsion
[ 10763 10752 10751 10750 ] final  -68.60 input  -60.55 | X-H torsion
[ 11005 11000 10999 10996 ] final -118.67 input  -57.11 | X-H torsion

> <Gold.Protein.ActiveResidues>
 VAL166  LYS551  ARG553  GLY616  TRP617  ASP618  TYR619  PRO620  LYS621  CYS622 
 ASP623  PHE694  ASN695  SER759  ASP760  ASP761  ALA762  ILE779  LEU786  VAL792 
 PHE793  MET794  SER795  GLU796  ALA797  LYS798  CYS799  TRP800  GLU811  SER814 

> <Gold.Protein.RotatedAtoms>
  152.3430  133.6089  159.5889 H   0  0  0  0  0  0  0  0  0  0  0  0  # atno 6907 bound_to 6896
  150.7490  133.9692  159.3549 H   0  0  0  0  0  0  0  0  0  0  0  0  # atno 6908 bound_to 6896
  151.7554  135.0823  160.0388 H   0  0  0  0  0  0  0  0  0  0  0  0  # atno 6909 bound_to 6896
  144.8464  139.6237  143.5993 H   0  0  0  0  0  0  0  0  0  0  0  0  # atno 7974 bound_to 7965
  155.7306  140.3492  155.5057 H   0  0  0  0  0  0  0  0  0  0  0  0  # atno 8008 bound_to 7997
  155.9186  140.1063  157.1246 H   0  0  0  0  0  0  0  0  0  0  0  0  # atno 8009 bound_to 7997
  154.4066  140.1254  156.4637 H   0  0  0  0  0  0  0  0  0  0  0  0  # atno 8010 bound_to 7997
  140.2656  143.3378  152.0583 H   0  0  0  0  0  0  0  0  0  0  0  0  # atno 10167 bound_to 10162
  156.4579  130.4497  149.6948 H   0  0  0  0  0  0  0  0  0  0  0  0  # atno 10718 bound_to 10713
  154.3914  135.6052  153.5845 H   0  0  0  0  0  0  0  0  0  0  0  0  # atno 10763 bound_to 10752
  152.9787  135.5884  154.4293 H   0  0  0  0  0  0  0  0  0  0  0  0  # atno 10764 bound_to 10752
  154.4078  135.2844  155.2034 H   0  0  0  0  0  0  0  0  0  0  0  0  # atno 10765 bound_to 10752
  141.0270  134.0039  157.3200 H   0  0  0  0  0  0  0  0  0  0  0  0  # atno 11005 bound_to 11000
  146.2747  139.6724  142.9271 LP  0  0  0  0  0  0  0  0  0  0  0  0  # atno 17320 bound_to 7965
  145.4589  141.0432  143.2762 LP  0  0  0  0  0  0  0  0  0  0  0  0  # atno 17321 bound_to 7965
  139.5003  144.6690  151.6288 LP  0  0  0  0  0  0  0  0  0  0  0  0  # atno 17342 bound_to 10162
  140.5931  143.9745  150.6337 LP  0  0  0  0  0  0  0  0  0  0  0  0  # atno 17343 bound_to 10162
  156.3748  130.7549  151.2536 LP  0  0  0  0  0  0  0  0  0  0  0  0  # atno 17370 bound_to 10713
  157.7499  131.0313  150.4174 LP  0  0  0  0  0  0  0  0  0  0  0  0  # atno 17371 bound_to 10713
  139.9182  135.0198  156.7964 LP  0  0  0  0  0  0  0  0  0  0  0  0  # atno 17394 bound_to 11000
  140.6474  133.9762  155.7738 LP  0  0  0  0  0  0  0  0  0  0  0  0  # atno 17395 bound_to 11000

$$$$
