AV-unprocessed.smi:1741|AV-procd|sdf|7016|dock10
  -GOLD-   22720 8233D 1   1.00000     0.00000
 Structure written by MMmdl.
 38 39  0  0  0  0  0  0  0  0  1 V2000
  151.0292  141.6907  157.3122 C   0  0  0  0  0  0  0  0  0  0  0  0
  151.8830  140.5289  156.7900 C   0  0  0  0  0  0  0  0  0  0  0  0
  151.1485  139.7014  155.8530 N   0  0  0  0  0  0  0  0  0  0  0  0
  150.9117  138.3424  155.9174 C   0  0  0  0  0  0  0  0  0  0  0  0
  150.1837  138.0413  154.8009 C   0  0  0  0  0  0  0  0  0  0  0  0
  149.6769  136.7903  154.3670 N   0  0  0  0  0  0  0  0  0  0  0  0
  149.5829  135.6561  155.0797 C   0  0  0  0  0  0  0  0  0  0  0  0
  149.9202  135.5313  156.2571 O   0  0  0  0  0  0  0  0  0  0  0  0
  149.0616  134.6637  154.3437 N   0  0  0  0  0  0  0  0  0  0  0  0
  148.8149  133.2958  154.7977 C   0  0  2  0  0  0  0  0  0  0  0  0
  150.1278  132.7100  155.3377 C   0  0  0  0  0  0  0  0  0  0  0  0
  148.2361  132.4427  153.6500 C   0  0  2  0  0  0  0  0  0  0  0  0
  146.9864  133.0177  152.9812 C   0  0  0  0  0  0  0  0  0  0  0  0
  146.3753  131.7805  152.3651 C   0  0  0  0  0  0  0  0  0  0  0  0
  146.6607  130.7230  153.4282 C   0  0  0  0  0  0  0  0  0  0  0  0
  147.8166  131.1692  154.1338 O   0  0  0  0  0  0  0  0  0  0  0  0
  150.0156  139.2670  154.1061 C   0  0  0  0  0  0  0  0  0  0  0  0
  150.6007  140.2663  154.7484 N   0  0  0  0  0  0  0  0  0  0  0  0
  151.5986  142.3088  158.0065 H   0  0  0  0  0  0  0  0  0  0  0  0
  150.1461  141.3272  157.8385 H   0  0  0  0  0  0  0  0  0  0  0  0
  150.6933  142.3302  156.4953 H   0  0  0  0  0  0  0  0  0  0  0  0
  152.7748  140.9117  156.2927 H   0  0  0  0  0  0  0  0  0  0  0  0
  152.2241  139.9060  157.6180 H   0  0  0  0  0  0  0  0  0  0  0  0
  151.2781  137.7342  156.7312 H   0  0  0  0  0  0  0  0  0  0  0  0
  149.3537  136.7550  153.4113 H   0  0  0  0  0  0  0  0  0  0  0  0
  148.8139  134.8693  153.3870 H   0  0  0  0  0  0  0  0  0  0  0  0
  148.0966  133.3015  155.6196 H   0  0  0  0  0  0  0  0  0  0  0  0
  149.9792  131.7021  155.7260 H   0  0  0  0  0  0  0  0  0  0  0  0
  150.5236  133.3177  156.1519 H   0  0  0  0  0  0  0  0  0  0  0  0
  150.8900  132.6567  154.5596 H   0  0  0  0  0  0  0  0  0  0  0  0
  148.9982  132.2733  152.8873 H   0  0  0  0  0  0  0  0  0  0  0  0
  146.3088  133.4371  153.7266 H   0  0  0  0  0  0  0  0  0  0  0  0
  147.2117  133.7924  152.2479 H   0  0  0  0  0  0  0  0  0  0  0  0
  145.3130  131.8883  152.1444 H   0  0  0  0  0  0  0  0  0  0  0  0
  146.8941  131.5311  151.4384 H   0  0  0  0  0  0  0  0  0  0  0  0
  145.8315  130.6538  154.1328 H   0  0  0  0  0  0  0  0  0  0  0  0
  146.8185  129.7359  152.9934 H   0  0  0  0  0  0  0  0  0  0  0  0
  149.5003  139.4616  153.1771 H   0  0  0  0  0  0  0  0  0  0  0  0
  1  2  1  0  0  0  0
  1 19  1  0  0  0  0
  1 20  1  0  0  0  0
  1 21  1  0  0  0  0
  2  3  1  0  0  0  0
  2 22  1  0  0  0  0
  2 23  1  0  0  0  0
  3 18  1  0  0  0  0
  3  4  1  0  0  0  0
  4  5  2  0  0  0  0
  4 24  1  0  0  0  0
  5  6  1  0  0  0  0
  5 17  1  0  0  0  0
  6  7  1  0  0  0  0
  6 25  1  0  0  0  0
  7  8  2  0  0  0  0
  7  9  1  0  0  0  0
  9 10  1  0  0  0  0
  9 26  1  0  0  0  0
 10 11  1  0  0  0  0
 10 12  1  0  0  0  0
 10 27  1  0  0  0  0
 11 28  1  0  0  0  0
 11 29  1  0  0  0  0
 11 30  1  0  0  0  0
 12 16  1  0  0  0  0
 12 13  1  0  0  0  0
 12 31  1  0  0  0  0
 13 14  1  0  0  0  0
 13 32  1  0  0  0  0
 13 33  1  0  0  0  0
 14 15  1  0  0  0  0
 14 34  1  0  0  0  0
 14 35  1  0  0  0  0
 15 16  1  0  0  0  0
 15 36  1  0  0  0  0
 15 37  1  0  0  0  0
 17 18  2  0  0  0  0
 17 38  1  0  0  0  0
M  END
> <s_m_source_file>
AV-unprocessed.smi

> <i_m_source_file_index>
1741

> <i_lp_mmshare_version>
43012

> <i_f3d_flags>
0

> <s_epik_input>
W0NIM11bQ0gyXW4xW2NIXWMoW2NIXW4xKVtOSF1DKD1PKVtOSF1bQ0BIXShbQ0gzXSlbQ0BASF0yW0NIMl1bQ0gyXVtDSDJdTzI=

> <s_epik_cmdline>
J2VwaWtfcHl0aG9uJywgJy1waCcsICc3LjAnLCAnLXRuJywgJzgnLCAnLW1hJywgJzIwMCcsICctbWV0YWxfYmluZGluZycsICctaW1hZScsICc8aW5maWxlLm1hZT4nLCAnLW9tYWUnLCAnPG91dGZpbGUubWFlPic=

> <r_lp_tautomer_probability>
1

> <r_epik_Ionization_Penalty>
0.000179292

> <r_epik_Ionization_Penalty_Charging>
0

> <r_epik_Ionization_Penalty_Neutral>
0.000179292

> <r_epik_State_Penalty>
-0

> <r_epik_Charging_Adjusted_Penalty>
0

> <i_epik_Tot_Q>
0

> <i_epik_Tot_abs_Q>
0

> <r_epik_Metal_State_Penalty>
-0

> <b_epik_Metal_Only>
0

> <s_lp_Force_Field>
OPLS_2005

> <r_lp_Energy>
21.1803

> <b_lp_Chiralities_Consistent>
1

> <s_lp_Variant>
AV-unprocessed.smi:1741-1

> <Gold.Version>
5.8.1

> <Gold.Id.Protein>
6NUR|6NUR_protein|mol2

> <Gold.PLP.Fitness>
40.3632

> <Gold.PLP.PLP>
-28.7788

> <Gold.PLP.part.hbond>
-3.2615

> <Gold.PLP.part.metal>
0.0000

> <Gold.PLP.part.buried>
-2.6369

> <Gold.PLP.part.nonpolar>
-22.9425

> <Gold.PLP.part.repulsive>
0.2145

> <Gold.PLP.ligand.clash>
0.0000

> <Gold.PLP.ligand.torsion>
0.1073

> <Gold.PLP.Chemscore.Hbond>
2.9280

> <Gold.PLP.Chemscore.CHOScore>
1.0000

> <Gold.PLP.Chemscore.Metal>
0.0000

> <Gold.Chemscore.Hbonds>
donor molecule, donor type, donor heavy atom, donor atom, acceptor molecule, acceptor atom, score
      L1  H     6    25       P1  7948  1.00
      L1  H     9    26       P1  7948  0.91
      P1  H  7989  7998       L1    18  1.00
      L1  C    17    38       P1  7957  1.00

> <Gold.PLP.Chemscore.Internal.Correction>
0.0150

> <Gold.Rescore>
     Score         DG    S(hbond)    S(metal)    S(lipo)     H(rot)  DE(clash)    DE(int)     intcor
     12.38     -14.35       1.65        0.00      58.81       1.38       0.05       1.92       ----

> <Gold.Chemscore.Fitness>
12.3817

> <Gold.Chemscore.DG>
-14.3469

> <Gold.Chemscore.ZeroCoef>
-5.4800

> <Gold.Chemscore.Hbond>
1.6516

> <Gold.Chemscore.Metal>
0.0000

> <Gold.Chemscore.Lipo>
58.8090

> <Gold.Chemscore.Internal_Hbond>
0.0000

> <Gold.Chemscore.DEClash>
0.0460

> <Gold.Chemscore.DEInternal>
1.9192

> <Gold.Chemscore.Rot>
1.3790

> <Gold.Chemscore.Internal.Correction>
   9.000000E+99

> <Gold.Chemscore.Hbonds>
donor molecule, donor type, donor heavy atom, donor atom, acceptor molecule, acceptor atom, score
      L1  H     6    25       P1  7948  0.92
      L1  H     9    26       P1  7948  0.34
      P1  H  7989  7998       L1    18  0.25

> <Gold.Chemscore.Hbond.Weighted>
-5.5164

> <Gold.Chemscore.Metal.Weighted>
-0.0000

> <Gold.Chemscore.Lipo.Weighted>
-6.8807

> <Gold.Chemscore.Internal_Hbond.Weighted>
0.0000

> <Gold.Chemscore.DEClash.Weighted>
0.0460

> <Gold.Chemscore.DEInternal.Weighted>
1.9192

> <Gold.Chemscore.Rot.Weighted>
3.5302

> <Gold.Chemscore.Internal.Correction.Weighted>
   9.000000E+99

> <Gold.Protein.RotatedTorsions>
[ 6907 6896 6895 6894 ] final   76.68 input  -60.11 | X-H torsion
[ 7974 7965 7964 7962 ] final   62.42 input  175.53 | X-H torsion
[ 8008 7997 7996 7995 ] final   76.60 input   59.86 | X-H torsion
[ 10167 10162 10161 10158 ] final  -47.34 input  -65.29 | X-H torsion
[ 10718 10713 10712 10709 ] final  -72.92 input   66.30 | X-H torsion
[ 10763 10752 10751 10750 ] final  -45.44 input  -60.55 | X-H torsion
[ 11005 11000 10999 10996 ] final -152.07 input  -57.11 | X-H torsion

> <Gold.Protein.ActiveResidues>
 VAL166  LYS551  ARG553  GLY616  TRP617  ASP618  TYR619  PRO620  LYS621  CYS622 
 ASP623  PHE694  ASN695  SER759  ASP760  ASP761  ALA762  ILE779  LEU786  VAL792 
 PHE793  MET794  SER795  GLU796  ALA797  LYS798  CYS799  TRP800  GLU811  SER814 

> <Gold.Protein.RotatedAtoms>
  152.5084  134.3932  159.9390 H   0  0  0  0  0  0  0  0  0  0  0  0  # atno 6907 bound_to 6896
  151.3893  133.3788  159.2727 H   0  0  0  0  0  0  0  0  0  0  0  0  # atno 6908 bound_to 6896
  150.9445  134.8871  159.7692 H   0  0  0  0  0  0  0  0  0  0  0  0  # atno 6909 bound_to 6896
  145.8735  139.3394  143.0748 H   0  0  0  0  0  0  0  0  0  0  0  0  # atno 7974 bound_to 7965
  155.8296  140.3466  155.5564 H   0  0  0  0  0  0  0  0  0  0  0  0  # atno 8008 bound_to 7997
  155.8256  140.0919  157.1843 H   0  0  0  0  0  0  0  0  0  0  0  0  # atno 8009 bound_to 7997
  154.4004  140.1422  156.3540 H   0  0  0  0  0  0  0  0  0  0  0  0  # atno 8010 bound_to 7997
  140.6779  143.2789  151.3913 H   0  0  0  0  0  0  0  0  0  0  0  0  # atno 10167 bound_to 10162
  156.0300  130.4383  150.2665 H   0  0  0  0  0  0  0  0  0  0  0  0  # atno 10718 bound_to 10713
  154.0286  135.6660  153.4778 H   0  0  0  0  0  0  0  0  0  0  0  0  # atno 10763 bound_to 10752
  153.0550  135.5061  154.7955 H   0  0  0  0  0  0  0  0  0  0  0  0  # atno 10764 bound_to 10752
  154.6893  135.3058  154.9468 H   0  0  0  0  0  0  0  0  0  0  0  0  # atno 10765 bound_to 10752
  140.7228  134.3708  157.5180 H   0  0  0  0  0  0  0  0  0  0  0  0  # atno 11005 bound_to 11000
  145.9108  140.9181  143.0455 LP  0  0  0  0  0  0  0  0  0  0  0  0  # atno 17320 bound_to 7965
  144.6726  140.1158  143.7453 LP  0  0  0  0  0  0  0  0  0  0  0  0  # atno 17321 bound_to 7965
  139.6082  144.1152  152.2271 LP  0  0  0  0  0  0  0  0  0  0  0  0  # atno 17342 bound_to 10162
  140.0558  144.5896  150.7301 LP  0  0  0  0  0  0  0  0  0  0  0  0  # atno 17343 bound_to 10162
  157.0768  131.0132  151.3171 LP  0  0  0  0  0  0  0  0  0  0  0  0  # atno 17370 bound_to 10713
  157.4958  130.7849  149.7553 LP  0  0  0  0  0  0  0  0  0  0  0  0  # atno 17371 bound_to 10713
  139.8844  134.8966  156.2705 LP  0  0  0  0  0  0  0  0  0  0  0  0  # atno 17394 bound_to 11000
  140.9988  133.7164  156.0928 LP  0  0  0  0  0  0  0  0  0  0  0  0  # atno 17395 bound_to 11000

$$$$
