AV-unprocessed.smi:790|AV-procd|sdf|3741|dock9
  -GOLD-   22720 1173D 1   1.00000     0.00000
 Structure written by MMmdl.
 38 40  0  0  0  0  0  0  0  0  1 V2000
  150.8391  140.7111  156.2522 O   0  0  0  0  0  0  0  0  0  0  0  0
  150.2620  141.7858  156.0882 C   0  0  0  0  0  0  0  0  0  0  0  0
  150.4474  142.8899  156.8315 N   0  0  0  0  0  0  0  0  0  0  0  0
  151.3433  143.0841  157.9175 C   0  0  0  0  0  0  0  0  0  0  0  0
  151.6218  144.3418  158.5056 C   0  0  0  0  0  0  0  0  0  0  0  0
  152.5158  144.4006  159.5921 C   0  0  0  0  0  0  0  0  0  0  0  0
  153.0923  143.2022  160.0551 C   0  0  0  0  0  0  0  0  0  0  0  0
  152.8252  141.9951  159.5133 N   0  0  0  0  0  0  0  0  0  0  0  0
  151.9666  141.9462  158.4725 C   0  0  0  0  0  0  0  0  0  0  0  0
  149.3451  141.9945  155.1327 N   0  0  0  0  0  0  0  0  0  0  0  0
  148.8828  140.9934  154.1701 C   0  0  1  0  0  0  0  0  0  0  0  0
  148.6900  139.6303  154.8696 C   0  0  2  0  0  0  0  0  0  0  0  0
  148.5937  138.5260  153.8012 C   0  0  0  0  0  0  0  0  0  0  0  0
  147.2076  138.7831  153.1799 C   0  0  0  0  0  0  0  0  0  0  0  0
  146.6938  139.9993  153.9764 C   0  0  1  0  0  0  0  0  0  0  0  0
  147.2507  139.7087  155.3641 C   0  0  0  0  0  0  0  0  0  0  0  0
  147.4784  141.2640  153.5481 C   0  0  1  0  0  0  0  0  0  0  0  0
  146.7863  142.5823  153.9644 C   0  0  0  0  0  0  0  0  0  0  0  0
  146.8012  142.7241  155.3694 O   0  0  0  0  0  0  0  0  0  0  0  0
  149.8382  143.6692  156.6293 H   0  0  0  0  0  0  0  0  0  0  0  0
  151.1612  145.2535  158.1587 H   0  0  0  0  0  0  0  0  0  0  0  0
  152.7504  145.3439  160.0631 H   0  0  0  0  0  0  0  0  0  0  0  0
  153.7815  143.2127  160.8865 H   0  0  0  0  0  0  0  0  0  0  0  0
  151.7749  140.9639  158.0658 H   0  0  0  0  0  0  0  0  0  0  0  0
  148.9210  142.9085  155.0725 H   0  0  0  0  0  0  0  0  0  0  0  0
  149.6323  140.8941  153.3823 H   0  0  0  0  0  0  0  0  0  0  0  0
  149.4318  139.4166  155.6402 H   0  0  0  0  0  0  0  0  0  0  0  0
  149.3981  138.5824  153.0669 H   0  0  0  0  0  0  0  0  0  0  0  0
  148.6301  137.5372  154.2604 H   0  0  0  0  0  0  0  0  0  0  0  0
  147.2607  138.9787  152.1082 H   0  0  0  0  0  0  0  0  0  0  0  0
  146.5569  137.9203  153.3279 H   0  0  0  0  0  0  0  0  0  0  0  0
  145.6098  140.1091  153.9329 H   0  0  0  0  0  0  0  0  0  0  0  0
  146.8873  138.7709  155.7881 H   0  0  0  0  0  0  0  0  0  0  0  0
  147.0801  140.5121  156.0820 H   0  0  0  0  0  0  0  0  0  0  0  0
  147.5758  141.2816  152.4612 H   0  0  0  0  0  0  0  0  0  0  0  0
  147.2673  143.4497  153.5123 H   0  0  0  0  0  0  0  0  0  0  0  0
  145.7436  142.5839  153.6471 H   0  0  0  0  0  0  0  0  0  0  0  0
  147.6097  143.1439  155.6209 H   0  0  0  0  0  0  0  0  0  0  0  0
  1  2  2  0  0  0  0
  2  3  1  0  0  0  0
  2 10  1  0  0  0  0
  3  4  1  0  0  0  0
  3 20  1  0  0  0  0
  4  9  1  0  0  0  0
  4  5  2  0  0  0  0
  5  6  1  0  0  0  0
  5 21  1  0  0  0  0
  6  7  2  0  0  0  0
  6 22  1  0  0  0  0
  7  8  1  0  0  0  0
  7 23  1  0  0  0  0
  8  9  2  0  0  0  0
  9 24  1  0  0  0  0
 10 11  1  0  0  0  0
 10 25  1  0  0  0  0
 11 17  1  0  0  0  0
 11 12  1  0  0  0  0
 11 26  1  0  0  0  0
 12 16  1  0  0  0  0
 12 13  1  0  0  0  0
 12 27  1  0  0  0  0
 13 14  1  0  0  0  0
 13 28  1  0  0  0  0
 13 29  1  0  0  0  0
 14 15  1  0  0  0  0
 14 30  1  0  0  0  0
 14 31  1  0  0  0  0
 15 16  1  0  0  0  0
 15 17  1  0  0  0  0
 15 32  1  0  0  0  0
 16 33  1  0  0  0  0
 16 34  1  0  0  0  0
 17 18  1  0  0  0  0
 17 35  1  0  0  0  0
 18 19  1  0  0  0  0
 18 36  1  0  0  0  0
 18 37  1  0  0  0  0
 19 38  1  0  0  0  0
M  END
> <s_m_source_file>
AV-unprocessed.smi

> <i_m_source_file_index>
790

> <i_lp_mmshare_version>
43012

> <i_f3d_flags>
0

> <s_epik_input>
W0NIMl0xW0NIMl1bQ0BASF0oW0NIMl0yKVtDQEBIXShbQ0gyXVtPSF0pW0NAQEhdKFtDQEhdMTIpW05IXUMoPU8pW05IXWMzW2NIXVtjSF1bY0hdbltjSF0z

> <s_epik_cmdline>
J2VwaWtfcHl0aG9uJywgJy1waCcsICc3LjAnLCAnLXRuJywgJzgnLCAnLW1hJywgJzIwMCcsICctbWV0YWxfYmluZGluZycsICctaW1hZScsICc8aW5maWxlLm1hZT4nLCAnLW9tYWUnLCAnPG91dGZpbGUubWFlPic=

> <r_epik_Ionization_Penalty>
0.00497582

> <r_epik_Ionization_Penalty_Charging>
0

> <r_epik_Ionization_Penalty_Neutral>
0.00497582

> <r_epik_State_Penalty>
0.00358602

> <r_epik_Charging_Adjusted_Penalty>
0.00358602

> <i_epik_Tot_Q>
0

> <i_epik_Tot_abs_Q>
0

> <r_epik_Metal_State_Penalty>
-0

> <b_epik_Metal_Only>
0

> <s_lp_Force_Field>
OPLS_2005

> <r_lp_Energy>
53.2312

> <b_lp_Chiralities_Consistent>
1

> <s_lp_Variant>
AV-unprocessed.smi:790-2

> <Gold.Version>
5.8.1

> <Gold.Id.Protein>
6NUR|6NUR_protein|mol2

> <Gold.PLP.Fitness>
45.3912

> <Gold.PLP.PLP>
-37.1281

> <Gold.PLP.part.hbond>
-3.0000

> <Gold.PLP.part.metal>
0.0000

> <Gold.PLP.part.buried>
-3.8709

> <Gold.PLP.part.nonpolar>
-30.8278

> <Gold.PLP.part.repulsive>
0.2586

> <Gold.PLP.ligand.clash>
0.0000

> <Gold.PLP.ligand.torsion>
0.3625

> <Gold.PLP.Chemscore.Hbond>
2.9920

> <Gold.PLP.Chemscore.CHOScore>
0.0000

> <Gold.PLP.Chemscore.Metal>
0.0000

> <Gold.Chemscore.Hbonds>
donor molecule, donor type, donor heavy atom, donor atom, acceptor molecule, acceptor atom, score
      L1  H     3    20       P1  8028  1.00
      L1  H    10    25       P1  8028  0.99
      L1  H    19    38       P1  8028  1.00

> <Gold.PLP.Chemscore.Internal.Correction>
0.0122

> <Gold.Rescore>
     Score         DG    S(hbond)    S(metal)    S(lipo)     H(rot)  DE(clash)    DE(int)     intcor
     15.79     -21.26       2.45        0.00     103.72       1.78       0.60       4.86       ----

> <Gold.Chemscore.Fitness>
15.7945

> <Gold.Chemscore.DG>
-21.2573

> <Gold.Chemscore.ZeroCoef>
-5.4800

> <Gold.Chemscore.Hbond>
2.4535

> <Gold.Chemscore.Metal>
0.0000

> <Gold.Chemscore.Lipo>
103.7188

> <Gold.Chemscore.Internal_Hbond>
0.0000

> <Gold.Chemscore.DEClash>
0.6045

> <Gold.Chemscore.DEInternal>
4.8583

> <Gold.Chemscore.Rot>
1.7783

> <Gold.Chemscore.Internal.Correction>
   9.000000E+99

> <Gold.Chemscore.Hbonds>
donor molecule, donor type, donor heavy atom, donor atom, acceptor molecule, acceptor atom, score
      L1  H     3    20       P1  8028  0.99
      L1  H    10    25       P1  8028  0.93
      L1  H    19    38       P1  8028  0.24

> <Gold.Chemscore.Hbond.Weighted>
-8.1947

> <Gold.Chemscore.Metal.Weighted>
-0.0000

> <Gold.Chemscore.Lipo.Weighted>
-12.1351

> <Gold.Chemscore.Internal_Hbond.Weighted>
0.0000

> <Gold.Chemscore.DEClash.Weighted>
0.6045

> <Gold.Chemscore.DEInternal.Weighted>
4.8583

> <Gold.Chemscore.Rot.Weighted>
4.5525

> <Gold.Chemscore.Internal.Correction.Weighted>
   9.000000E+99

> <Gold.Protein.RotatedTorsions>
[ 6907 6896 6895 6894 ] final   46.06 input  -60.11 | X-H torsion
[ 7974 7965 7964 7962 ] final  169.78 input  175.53 | X-H torsion
[ 8008 7997 7996 7995 ] final  -26.42 input   59.86 | X-H torsion
[ 10167 10162 10161 10158 ] final -127.81 input  -65.29 | X-H torsion
[ 10718 10713 10712 10709 ] final   95.74 input   66.30 | X-H torsion
[ 10763 10752 10751 10750 ] final  166.05 input  -60.55 | X-H torsion
[ 11005 11000 10999 10996 ] final   23.00 input  -57.11 | X-H torsion

> <Gold.Protein.ActiveResidues>
 VAL166  LYS551  ARG553  GLY616  TRP617  ASP618  TYR619  PRO620  LYS621  CYS622 
 ASP623  PHE694  ASN695  SER759  ASP760  ASP761  ALA762  ILE779  LEU786  VAL792 
 PHE793  MET794  SER795  GLU796  ALA797  LYS798  CYS799  TRP800  GLU811  SER814 

> <Gold.Protein.RotatedAtoms>
  152.2520  134.8123  160.0444 H   0  0  0  0  0  0  0  0  0  0  0  0  # atno 6907 bound_to 6896
  151.8800  133.3488  159.3771 H   0  0  0  0  0  0  0  0  0  0  0  0  # atno 6908 bound_to 6896
  150.7087  134.4955  159.5580 H   0  0  0  0  0  0  0  0  0  0  0  0  # atno 6909 bound_to 6896
  144.7344  139.9105  143.6415 H   0  0  0  0  0  0  0  0  0  0  0  0  # atno 7974 bound_to 7965
  154.4426  140.1900  156.0772 H   0  0  0  0  0  0  0  0  0  0  0  0  # atno 8008 bound_to 7997
  156.0466  140.3313  155.7277 H   0  0  0  0  0  0  0  0  0  0  0  0  # atno 8009 bound_to 7997
  155.5620  140.0604  157.2817 H   0  0  0  0  0  0  0  0  0  0  0  0  # atno 8010 bound_to 7997
  139.9570  143.5993  152.2457 H   0  0  0  0  0  0  0  0  0  0  0  0  # atno 10167 bound_to 10162
  157.6935  131.0555  150.4385 H   0  0  0  0  0  0  0  0  0  0  0  0  # atno 10718 bound_to 10713
  154.3332  135.2754  155.2461 H   0  0  0  0  0  0  0  0  0  0  0  0  # atno 10763 bound_to 10752
  154.4763  135.5870  153.6361 H   0  0  0  0  0  0  0  0  0  0  0  0  # atno 10764 bound_to 10752
  152.9864  135.6100  154.3527 H   0  0  0  0  0  0  0  0  0  0  0  0  # atno 10765 bound_to 10752
  140.3744  134.1988  155.7665 H   0  0  0  0  0  0  0  0  0  0  0  0  # atno 11005 bound_to 11000
  146.1004  139.4000  143.0350 LP  0  0  0  0  0  0  0  0  0  0  0  0  # atno 17320 bound_to 7965
  145.7586  140.9944  143.1212 LP  0  0  0  0  0  0  0  0  0  0  0  0  # atno 17321 bound_to 7965
  139.6584  144.7662  151.2011 LP  0  0  0  0  0  0  0  0  0  0  0  0  # atno 17342 bound_to 10162
  140.7565  143.6049  150.8663 LP  0  0  0  0  0  0  0  0  0  0  0  0  # atno 17343 bound_to 10162
  156.4746  130.4060  149.6498 LP  0  0  0  0  0  0  0  0  0  0  0  0  # atno 17370 bound_to 10713
  156.3566  130.7459  151.2426 LP  0  0  0  0  0  0  0  0  0  0  0  0  # atno 17371 bound_to 10713
  141.1944  133.8129  157.0759 LP  0  0  0  0  0  0  0  0  0  0  0  0  # atno 17394 bound_to 11000
  140.0527  134.9797  157.1164 LP  0  0  0  0  0  0  0  0  0  0  0  0  # atno 17395 bound_to 11000

$$$$
