AV-unprocessed.smi:2468|AV-procd|sdf|9731|dock1
  -GOLD-   2272013373D 1   1.00000     0.00000
 Structure written by MMmdl.
 32 33  0  0  0  0  0  0  0  0  1 V2000
  151.9749  145.1246  159.6843 C   0  0  0  0  0  0  0  0  0  0  0  0
  152.2284  143.6341  159.5545 C   0  0  0  0  0  0  0  0  0  0  0  0
  152.7429  143.0316  160.6487 N   0  0  0  0  0  0  0  0  0  0  0  0
  152.9783  141.7049  160.5906 C   0  0  0  0  0  0  0  0  0  0  0  0
  152.7215  140.9214  159.4494 C   0  0  0  0  0  0  0  0  0  0  0  0
  152.1979  141.5520  158.2950 C   0  0  0  0  0  0  0  0  0  0  0  0
  151.8857  140.8577  157.0928 N   0  0  0  0  0  0  0  0  0  0  0  0
  152.3831  139.6966  156.6288 C   0  0  0  0  0  0  0  0  0  0  0  0
  153.2142  139.0052  157.2177 O   0  0  0  0  0  0  0  0  0  0  0  0
  151.8432  139.2465  155.2606 C   0  0  2  0  0  0  0  0  0  0  0  0
  150.9155  140.2387  154.8169 O   0  0  0  0  0  0  0  0  0  0  0  0
  149.6157  139.6791  154.6472 C   0  0  0  0  0  0  0  0  0  0  0  0
  149.6188  138.3921  155.4633 C   0  0  0  0  0  0  0  0  0  0  0  0
  151.0454  137.9235  155.2613 C   0  0  2  0  0  0  0  0  0  0  0  0
  151.5013  136.8220  156.2358 C   0  0  0  0  0  0  0  0  0  0  0  0
  151.9336  142.9406  158.3571 C   0  0  0  0  0  0  0  0  0  0  0  0
  151.2678  143.7771  156.9940 Cl  0  0  0  0  0  0  0  0  0  0  0  0
  152.5049  145.6707  158.9035 H   0  0  0  0  0  0  0  0  0  0  0  0
  152.3118  145.5067  160.6489 H   0  0  0  0  0  0  0  0  0  0  0  0
  150.9094  145.3363  159.5913 H   0  0  0  0  0  0  0  0  0  0  0  0
  153.3781  141.2509  161.4852 H   0  0  0  0  0  0  0  0  0  0  0  0
  152.9182  139.8616  159.4895 H   0  0  0  0  0  0  0  0  0  0  0  0
  151.2604  141.3455  156.4676 H   0  0  0  0  0  0  0  0  0  0  0  0
  152.6658  139.1822  154.5462 H   0  0  0  0  0  0  0  0  0  0  0  0
  148.8370  140.3742  154.9620 H   0  0  0  0  0  0  0  0  0  0  0  0
  149.4658  139.4578  153.5897 H   0  0  0  0  0  0  0  0  0  0  0  0
  149.4241  138.6073  156.5146 H   0  0  0  0  0  0  0  0  0  0  0  0
  148.8776  137.6706  155.1183 H   0  0  0  0  0  0  0  0  0  0  0  0
  151.1156  137.5088  154.2541 H   0  0  0  0  0  0  0  0  0  0  0  0
  151.3797  137.1184  157.2777 H   0  0  0  0  0  0  0  0  0  0  0  0
  152.5503  136.5704  156.0775 H   0  0  0  0  0  0  0  0  0  0  0  0
  150.9181  135.9129  156.0883 H   0  0  0  0  0  0  0  0  0  0  0  0
  1  2  1  0  0  0  0
  1 18  1  0  0  0  0
  1 19  1  0  0  0  0
  1 20  1  0  0  0  0
  2 16  1  0  0  0  0
  2  3  2  0  0  0  0
  3  4  1  0  0  0  0
  4  5  2  0  0  0  0
  4 21  1  0  0  0  0
  5  6  1  0  0  0  0
  5 22  1  0  0  0  0
  6  7  1  0  0  0  0
  6 16  2  0  0  0  0
  7  8  1  0  0  0  0
  7 23  1  0  0  0  0
  8  9  2  0  0  0  0
  8 10  1  0  0  0  0
 10 14  1  0  0  0  0
 10 11  1  0  0  0  0
 10 24  1  0  0  0  0
 11 12  1  0  0  0  0
 12 13  1  0  0  0  0
 12 25  1  0  0  0  0
 12 26  1  0  0  0  0
 13 14  1  0  0  0  0
 13 27  1  0  0  0  0
 13 28  1  0  0  0  0
 14 15  1  0  0  0  0
 14 29  1  0  0  0  0
 15 30  1  0  0  0  0
 15 31  1  0  0  0  0
 15 32  1  0  0  0  0
 16 17  1  0  0  0  0
M  END
> <s_m_source_file>
AV-unprocessed.smi

> <i_m_source_file_index>
2468

> <i_lp_mmshare_version>
43012

> <i_f3d_flags>
0

> <s_epik_input>
W0NIM11jMW5bY0hdW2NIXWMoYzFDbClbTkhdQyg9TylbQ0BASF0yT1tDSDJdW0NIMl1bQ0BIXTJbQ0gzXQ==

> <s_epik_cmdline>
J2VwaWtfcHl0aG9uJywgJy1waCcsICc3LjAnLCAnLXRuJywgJzgnLCAnLW1hJywgJzIwMCcsICctbWV0YWxfYmluZGluZycsICctaW1hZScsICc8aW5maWxlLm1hZT4nLCAnLW9tYWUnLCAnPG91dGZpbGUubWFlPic=

> <r_epik_Ionization_Penalty>
0.000361027

> <r_epik_Ionization_Penalty_Charging>
0

> <r_epik_Ionization_Penalty_Neutral>
0.000361027

> <r_epik_State_Penalty>
0.000217849

> <r_epik_Charging_Adjusted_Penalty>
0.000217849

> <i_epik_Tot_Q>
0

> <i_epik_Tot_abs_Q>
0

> <r_epik_Metal_State_Penalty>
-0

> <b_epik_Metal_Only>
0

> <s_lp_Force_Field>
OPLS_2005

> <r_lp_Energy>
25.639

> <b_lp_Chiralities_Consistent>
1

> <s_lp_Variant>
AV-unprocessed.smi:2468-3

> <Gold.Version>
5.8.1

> <Gold.Id.Protein>
6NUR|6NUR_protein|mol2

> <Gold.PLP.Fitness>
38.5873

> <Gold.PLP.PLP>
-32.8381

> <Gold.PLP.part.hbond>
-2.0000

> <Gold.PLP.part.metal>
0.0000

> <Gold.PLP.part.buried>
-0.7976

> <Gold.PLP.part.nonpolar>
-29.9850

> <Gold.PLP.part.repulsive>
0.2096

> <Gold.PLP.ligand.clash>
0.0000

> <Gold.PLP.ligand.torsion>
0.1313

> <Gold.PLP.Chemscore.Hbond>
2.0000

> <Gold.PLP.Chemscore.CHOScore>
0.0000

> <Gold.PLP.Chemscore.Metal>
0.0000

> <Gold.Chemscore.Hbonds>
donor molecule, donor type, donor heavy atom, donor atom, acceptor molecule, acceptor atom, score
      P1  H  7989  7998       L1    11  1.00
      P1  H  7997  8010       L1     9  0.99

> <Gold.PLP.Chemscore.Internal.Correction>
0.0118

> <Gold.Rescore>
     Score         DG    S(hbond)    S(metal)    S(lipo)     H(rot)  DE(clash)    DE(int)     intcor
     14.75     -19.31       1.29        0.00     103.36       1.00       2.17       2.39       ----

> <Gold.Chemscore.Fitness>
14.7502

> <Gold.Chemscore.DG>
-19.3104

> <Gold.Chemscore.ZeroCoef>
-5.4800

> <Gold.Chemscore.Hbond>
1.2868

> <Gold.Chemscore.Metal>
0.0000

> <Gold.Chemscore.Lipo>
103.3553

> <Gold.Chemscore.Internal_Hbond>
0.0000

> <Gold.Chemscore.DEClash>
2.1665

> <Gold.Chemscore.DEInternal>
2.3937

> <Gold.Chemscore.Rot>
1.0000

> <Gold.Chemscore.Internal.Correction>
   9.000000E+99

> <Gold.Chemscore.Hbonds>
donor molecule, donor type, donor heavy atom, donor atom, acceptor molecule, acceptor atom, score
      P1  H  7989  7998       L1    11  0.42
      P1  H  7997  8010       L1     9  0.24

> <Gold.Chemscore.Hbond.Weighted>
-4.2978

> <Gold.Chemscore.Metal.Weighted>
-0.0000

> <Gold.Chemscore.Lipo.Weighted>
-12.0926

> <Gold.Chemscore.Internal_Hbond.Weighted>
0.0000

> <Gold.Chemscore.DEClash.Weighted>
2.1665

> <Gold.Chemscore.DEInternal.Weighted>
2.3937

> <Gold.Chemscore.Rot.Weighted>
2.5600

> <Gold.Chemscore.Internal.Correction.Weighted>
   9.000000E+99

> <Gold.Protein.RotatedTorsions>
[ 6907 6896 6895 6894 ] final   15.15 input  -60.11 | X-H torsion
[ 7974 7965 7964 7962 ] final   90.51 input  175.53 | X-H torsion
[ 8008 7997 7996 7995 ] final   32.06 input   59.86 | X-H torsion
[ 10167 10162 10161 10158 ] final  -67.45 input  -65.29 | X-H torsion
[ 10718 10713 10712 10709 ] final   -1.33 input   66.30 | X-H torsion
[ 10763 10752 10751 10750 ] final  -12.33 input  -60.55 | X-H torsion
[ 11005 11000 10999 10996 ] final  -32.10 input  -57.11 | X-H torsion

> <Gold.Protein.ActiveResidues>
 VAL166  LYS551  ARG553  GLY616  TRP617  ASP618  TYR619  PRO620  LYS621  CYS622 
 ASP623  PHE694  ASN695  SER759  ASP760  ASP761  ALA762  ILE779  LEU786  VAL792 
 PHE793  MET794  SER795  GLU796  ALA797  LYS798  CYS799  TRP800  GLU811  SER814 

> <Gold.Protein.RotatedAtoms>
  151.8135  135.0673  160.0415 H   0  0  0  0  0  0  0  0  0  0  0  0  # atno 6907 bound_to 6896
  152.3003  133.5644  159.5622 H   0  0  0  0  0  0  0  0  0  0  0  0  # atno 6908 bound_to 6896
  150.7270  134.0217  159.3746 H   0  0  0  0  0  0  0  0  0  0  0  0  # atno 6909 bound_to 6896
  145.5181  139.2278  143.2687 H   0  0  0  0  0  0  0  0  0  0  0  0  # atno 7974 bound_to 7965
  155.1164  140.3244  155.4508 H   0  0  0  0  0  0  0  0  0  0  0  0  # atno 8008 bound_to 7997
  156.2676  140.2035  156.6235 H   0  0  0  0  0  0  0  0  0  0  0  0  # atno 8009 bound_to 7997
  154.6717  140.0536  157.0159 H   0  0  0  0  0  0  0  0  0  0  0  0  # atno 8010 bound_to 7997
  140.5581  143.2312  151.6781 H   0  0  0  0  0  0  0  0  0  0  0  0  # atno 10167 bound_to 10162
  156.8072  130.5412  149.5713 H   0  0  0  0  0  0  0  0  0  0  0  0  # atno 10718 bound_to 10713
  153.4968  135.7017  153.5853 H   0  0  0  0  0  0  0  0  0  0  0  0  # atno 10763 bound_to 10752
  153.4002  135.3874  155.1982 H   0  0  0  0  0  0  0  0  0  0  0  0  # atno 10764 bound_to 10752
  154.8713  135.3879  154.4435 H   0  0  0  0  0  0  0  0  0  0  0  0  # atno 10765 bound_to 10752
  140.9524  133.7213  156.1240 H   0  0  0  0  0  0  0  0  0  0  0  0  # atno 11005 bound_to 11000
  146.2124  140.5991  142.9054 LP  0  0  0  0  0  0  0  0  0  0  0  0  # atno 17320 bound_to 7965
  144.7691  140.5597  143.6682 LP  0  0  0  0  0  0  0  0  0  0  0  0  # atno 17321 bound_to 7965
  139.5057  144.3707  152.0473 LP  0  0  0  0  0  0  0  0  0  0  0  0  # atno 17342 bound_to 10162
  140.2830  144.3838  150.6113 LP  0  0  0  0  0  0  0  0  0  0  0  0  # atno 17343 bound_to 10162
  156.1066  130.6009  150.9980 LP  0  0  0  0  0  0  0  0  0  0  0  0  # atno 17370 bound_to 10713
  157.6524  131.0895  150.8022 LP  0  0  0  0  0  0  0  0  0  0  0  0  # atno 17371 bound_to 10713
  140.7584  134.3967  157.5530 LP  0  0  0  0  0  0  0  0  0  0  0  0  # atno 17394 bound_to 11000
  139.8851  134.8945  156.2661 LP  0  0  0  0  0  0  0  0  0  0  0  0  # atno 17395 bound_to 11000

$$$$
