AV-unprocessed.smi:276|AV-procd|sdf|2072|dock5
  -GOLD-   2262021333D 1   1.00000     0.00000
 Structure written by MMmdl.
 57 61  0  0  0  0  0  0  0  0  1 V2000
  151.9413  145.6094  159.7147 C   0  0  0  0  0  0  0  0  0  0  0  0
  151.7466  144.5810  158.7597 O   0  0  0  0  0  0  0  0  0  0  0  0
  151.4980  143.3197  159.3595 C   0  0  2  0  0  0  0  0  0  0  0  0
  152.7604  142.5012  159.6525 C   0  0  0  0  0  0  0  0  0  0  0  0
  151.9604  141.2630  159.2274 C   0  0  2  0  0  0  0  0  0  0  0  0
  152.7729  140.2752  158.5132 N   0  0  0  0  0  0  0  0  0  0  0  0
  153.6203  139.4249  159.3400 C   0  0  0  0  0  0  0  0  0  0  0  0
  152.1346  139.5337  157.5793 C   0  0  0  0  0  0  0  0  0  0  0  0
  152.4363  139.7910  156.2820 N   0  0  0  0  0  0  0  0  0  0  0  0
  151.8379  139.1036  155.3050 C   0  0  0  0  0  0  0  0  0  0  0  0
  150.9304  138.1303  155.4045 N   0  0  0  0  0  0  0  0  0  0  0  0
  150.6409  137.8540  156.7081 C   0  0  0  0  0  0  0  0  0  0  0  0
  151.1972  138.4954  157.8509 C   0  0  0  0  0  0  0  0  0  0  0  0
  150.6760  137.9282  159.0084 N   0  0  0  0  0  0  0  0  0  0  0  0
  149.8468  137.0187  158.5753 C   0  0  0  0  0  0  0  0  0  0  0  0
  149.7644  136.9068  157.2066 N   0  0  0  0  0  0  0  0  0  0  0  0
  148.9303  135.9801  156.4620 C   0  0  0  0  0  0  0  0  0  0  0  0
  149.7540  135.0688  155.5322 C   0  0  2  0  0  0  0  0  0  0  0  0
  150.2902  135.8111  154.4532 O   0  0  0  0  0  0  0  0  0  0  0  0
  148.9495  133.8583  155.0165 C   0  0  2  0  0  0  0  0  0  0  0  0
  149.7609  132.6761  154.4794 C   0  0  0  0  0  0  0  0  0  0  0  0
  148.7412  132.0018  153.5896 C   0  0  0  0  0  0  0  0  0  0  0  0
  148.0160  133.2009  152.9827 C   0  0  0  0  0  0  0  0  0  0  0  0
  148.0397  134.2190  153.9800 O   0  0  0  0  0  0  0  0  0  0  0  0
  151.0977  142.2181  158.3586 C   0  0  0  0  0  0  0  0  0  0  0  0
  149.6178  141.9342  158.0687 C   0  0  0  0  0  0  0  0  0  0  0  0
  149.9714  141.7173  156.5937 C   0  0  0  0  0  0  0  0  0  0  0  0
  151.3155  142.4099  156.8434 C   0  0  0  0  0  0  0  0  0  0  0  0
  152.1239  146.5543  159.2030 H   0  0  0  0  0  0  0  0  0  0  0  0
  152.8009  145.4024  160.3530 H   0  0  0  0  0  0  0  0  0  0  0  0
  151.0595  145.7323  160.3447 H   0  0  0  0  0  0  0  0  0  0  0  0
  150.8135  143.3669  160.2095 H   0  0  0  0  0  0  0  0  0  0  0  0
  153.5855  142.7407  158.9786 H   0  0  0  0  0  0  0  0  0  0  0  0
  153.0749  142.5060  160.6963 H   0  0  0  0  0  0  0  0  0  0  0  0
  151.4033  140.8588  160.0736 H   0  0  0  0  0  0  0  0  0  0  0  0
  153.0161  138.8238  160.0205 H   0  0  0  0  0  0  0  0  0  0  0  0
  154.3053  140.0279  159.9356 H   0  0  0  0  0  0  0  0  0  0  0  0
  154.2236  138.7508  158.7301 H   0  0  0  0  0  0  0  0  0  0  0  0
  152.1262  139.3734  154.2996 H   0  0  0  0  0  0  0  0  0  0  0  0
  149.2718  136.3971  159.2465 H   0  0  0  0  0  0  0  0  0  0  0  0
  148.3691  135.3788  157.1781 H   0  0  0  0  0  0  0  0  0  0  0  0
  148.1954  136.5499  155.8920 H   0  0  0  0  0  0  0  0  0  0  0  0
  150.6059  134.6841  156.0943 H   0  0  0  0  0  0  0  0  0  0  0  0
  149.6103  135.9386  153.8095 H   0  0  0  0  0  0  0  0  0  0  0  0
  148.3306  133.4888  155.8359 H   0  0  0  0  0  0  0  0  0  0  0  0
  150.6069  133.0073  153.8764 H   0  0  0  0  0  0  0  0  0  0  0  0
  150.1387  132.0254  155.2685 H   0  0  0  0  0  0  0  0  0  0  0  0
  149.1890  131.3493  152.8396 H   0  0  0  0  0  0  0  0  0  0  0  0
  148.0512  131.4093  154.1919 H   0  0  0  0  0  0  0  0  0  0  0  0
  148.5535  133.5650  152.1061 H   0  0  0  0  0  0  0  0  0  0  0  0
  146.9961  132.9632  152.6797 H   0  0  0  0  0  0  0  0  0  0  0  0
  149.2128  141.0552  158.5693 H   0  0  0  0  0  0  0  0  0  0  0  0
  148.9853  142.8096  158.2222 H   0  0  0  0  0  0  0  0  0  0  0  0
  150.0737  140.6643  156.3317 H   0  0  0  0  0  0  0  0  0  0  0  0
  149.3189  142.2399  155.8938 H   0  0  0  0  0  0  0  0  0  0  0  0
  151.2954  143.4548  156.5327 H   0  0  0  0  0  0  0  0  0  0  0  0
  152.1769  141.8945  156.4200 H   0  0  0  0  0  0  0  0  0  0  0  0
  1  2  1  0  0  0  0
  1 29  1  0  0  0  0
  1 30  1  0  0  0  0
  1 31  1  0  0  0  0
  2  3  1  0  0  0  0
  3 25  1  0  0  0  0
  3  4  1  0  0  0  0
  3 32  1  0  0  0  0
  4  5  1  0  0  0  0
  4 33  1  0  0  0  0
  4 34  1  0  0  0  0
  5  6  1  0  0  0  0
  5 25  1  0  0  0  0
  5 35  1  0  0  0  0
  6  7  1  0  0  0  0
  6  8  1  0  0  0  0
  7 36  1  0  0  0  0
  7 37  1  0  0  0  0
  7 38  1  0  0  0  0
  8 13  1  0  0  0  0
  8  9  2  0  0  0  0
  9 10  1  0  0  0  0
 10 11  2  0  0  0  0
 10 39  1  0  0  0  0
 11 12  1  0  0  0  0
 12 16  1  0  0  0  0
 12 13  2  0  0  0  0
 13 14  1  0  0  0  0
 14 15  2  0  0  0  0
 15 16  1  0  0  0  0
 15 40  1  0  0  0  0
 16 17  1  0  0  0  0
 17 18  1  0  0  0  0
 17 41  1  0  0  0  0
 17 42  1  0  0  0  0
 18 19  1  0  0  0  0
 18 20  1  0  0  0  0
 18 43  1  0  0  0  0
 19 44  1  0  0  0  0
 20 24  1  0  0  0  0
 20 21  1  0  0  0  0
 20 45  1  0  0  0  0
 21 22  1  0  0  0  0
 21 46  1  0  0  0  0
 21 47  1  0  0  0  0
 22 23  1  0  0  0  0
 22 48  1  0  0  0  0
 22 49  1  0  0  0  0
 23 24  1  0  0  0  0
 23 50  1  0  0  0  0
 23 51  1  0  0  0  0
 25 28  1  0  0  0  0
 25 26  1  0  0  0  0
 26 27  1  0  0  0  0
 26 52  1  0  0  0  0
 26 53  1  0  0  0  0
 27 28  1  0  0  0  0
 27 54  1  0  0  0  0
 27 55  1  0  0  0  0
 28 56  1  0  0  0  0
 28 57  1  0  0  0  0
M  END
> <s_m_source_file>
AV-unprocessed.smi

> <i_m_source_file_index>
276

> <i_lp_mmshare_version>
43012

> <i_f3d_flags>
0

> <s_epik_input>
W0NIMl0xW0NIMl1bQ0gyXUMxMltDQEhdKE9bQ0gzXSlbQ0gyXVtDQEhdMk4oW0NIM10pYyhuW2NIXW4zKWMoYzM0KW5bY0hdbjRbQ0gyXVtDQEhdKFtPSF0pW0NAQEhdNVtDSDJdW0NIMl1bQ0gyXU81

> <s_epik_cmdline>
J2VwaWtfcHl0aG9uJywgJy1waCcsICc3LjAnLCAnLXRuJywgJzgnLCAnLW1hJywgJzIwMCcsICctbWV0YWxfYmluZGluZycsICctaW1hZScsICc8aW5maWxlLm1hZT4nLCAnLW9tYWUnLCAnPG91dGZpbGUubWFlPic=

> <r_lp_tautomer_probability>
1

> <r_epik_Ionization_Penalty>
0.00204117

> <r_epik_Ionization_Penalty_Charging>
0

> <r_epik_Ionization_Penalty_Neutral>
0.00204117

> <r_epik_State_Penalty>
0.00127401

> <r_epik_Charging_Adjusted_Penalty>
0.00127401

> <i_epik_Tot_Q>
0

> <i_epik_Tot_abs_Q>
0

> <r_epik_Metal_State_Penalty>
-0

> <b_epik_Metal_Only>
0

> <s_lp_Force_Field>
OPLS_2005

> <r_lp_Energy>
58.4332

> <b_lp_Chiralities_Consistent>
1

> <s_lp_Variant>
AV-unprocessed.smi:276-3

> <Gold.Version>
5.8.1

> <Gold.Id.Protein>
6NUR|6NUR_protein|mol2

> <Gold.PLP.Fitness>
50.6607

> <Gold.PLP.PLP>
-45.7759

> <Gold.PLP.part.hbond>
-3.1754

> <Gold.PLP.part.metal>
0.0000

> <Gold.PLP.part.buried>
-8.0578

> <Gold.PLP.part.nonpolar>
-35.1018

> <Gold.PLP.part.repulsive>
1.2215

> <Gold.PLP.ligand.clash>
0.0000

> <Gold.PLP.ligand.torsion>
0.9550

> <Gold.PLP.Chemscore.Hbond>
2.0000

> <Gold.PLP.Chemscore.CHOScore>
0.0000

> <Gold.PLP.Chemscore.Metal>
0.0000

> <Gold.Chemscore.Hbonds>
donor molecule, donor type, donor heavy atom, donor atom, acceptor molecule, acceptor atom, score
      L1  H    19    44       P1  7948  0.98
      P1  H  7997  8009       L1     9  1.00

> <Gold.PLP.Chemscore.Internal.Correction>
0.7949

> <Gold.Rescore>
     Score         DG    S(hbond)    S(metal)    S(lipo)     H(rot)  DE(clash)    DE(int)     intcor
     12.56     -15.24       1.35        0.00     104.42       2.72       0.74       1.93       ----

> <Gold.Chemscore.Fitness>
12.5614

> <Gold.Chemscore.DG>
-15.2354

> <Gold.Chemscore.ZeroCoef>
-5.4800

> <Gold.Chemscore.Hbond>
1.3457

> <Gold.Chemscore.Metal>
0.0000

> <Gold.Chemscore.Lipo>
104.4177

> <Gold.Chemscore.Internal_Hbond>
0.0000

> <Gold.Chemscore.DEClash>
0.7390

> <Gold.Chemscore.DEInternal>
1.9350

> <Gold.Chemscore.Rot>
2.7172

> <Gold.Chemscore.Internal.Correction>
   9.000000E+99

> <Gold.Chemscore.Hbonds>
donor molecule, donor type, donor heavy atom, donor atom, acceptor molecule, acceptor atom, score
      L1  H    19    44       P1  7948  0.35
      P1  H  7997  8009       L1     9  0.58

> <Gold.Chemscore.Hbond.Weighted>
-4.4945

> <Gold.Chemscore.Metal.Weighted>
-0.0000

> <Gold.Chemscore.Lipo.Weighted>
-12.2169

> <Gold.Chemscore.Internal_Hbond.Weighted>
0.0000

> <Gold.Chemscore.DEClash.Weighted>
0.7390

> <Gold.Chemscore.DEInternal.Weighted>
1.9350

> <Gold.Chemscore.Rot.Weighted>
6.9560

> <Gold.Chemscore.Internal.Correction.Weighted>
   9.000000E+99

> <Gold.Protein.RotatedTorsions>
[ 6907 6896 6895 6894 ] final   74.60 input  -60.11 | X-H torsion
[ 7974 7965 7964 7962 ] final -174.57 input  175.53 | X-H torsion
[ 8008 7997 7996 7995 ] final -154.06 input   59.86 | X-H torsion
[ 10167 10162 10161 10158 ] final   -4.86 input  -65.29 | X-H torsion
[ 10718 10713 10712 10709 ] final   48.03 input   66.30 | X-H torsion
[ 10763 10752 10751 10750 ] final -113.88 input  -60.55 | X-H torsion
[ 11005 11000 10999 10996 ] final  -21.76 input  -57.11 | X-H torsion

> <Gold.Protein.ActiveResidues>
 VAL166  LYS551  ARG553  GLY616  TRP617  ASP618  TYR619  PRO620  LYS621  CYS622 
 ASP623  PHE694  ASN695  SER759  ASP760  ASP761  ALA762  ILE779  LEU786  VAL792 
 PHE793  MET794  SER795  GLU796  ALA797  LYS798  CYS799  TRP800  GLU811  SER814 

> <Gold.Protein.RotatedAtoms>
  152.4984  134.4247  159.9491 H   0  0  0  0  0  0  0  0  0  0  0  0  # atno 6907 bound_to 6896
  151.4221  133.3689  159.2765 H   0  0  0  0  0  0  0  0  0  0  0  0  # atno 6908 bound_to 6896
  150.9215  134.8655  159.7551 H   0  0  0  0  0  0  0  0  0  0  0  0  # atno 6909 bound_to 6896
  144.7131  140.1451  143.6388 H   0  0  0  0  0  0  0  0  0  0  0  0  # atno 7974 bound_to 7965
  155.6806  140.0744  157.2486 H   0  0  0  0  0  0  0  0  0  0  0  0  # atno 8008 bound_to 7997
  154.4106  140.1682  156.2030 H   0  0  0  0  0  0  0  0  0  0  0  0  # atno 8009 bound_to 7997
  155.9538  140.3375  155.6434 H   0  0  0  0  0  0  0  0  0  0  0  0  # atno 8010 bound_to 7997
  140.6943  143.6375  150.8466 H   0  0  0  0  0  0  0  0  0  0  0  0  # atno 10167 bound_to 10162
  157.4646  130.8217  149.7922 H   0  0  0  0  0  0  0  0  0  0  0  0  # atno 10718 bound_to 10713
  154.8416  135.4438  154.1418 H   0  0  0  0  0  0  0  0  0  0  0  0  # atno 10763 bound_to 10752
  153.2602  135.6935  153.7593 H   0  0  0  0  0  0  0  0  0  0  0  0  # atno 10764 bound_to 10752
  153.6873  135.3393  155.3169 H   0  0  0  0  0  0  0  0  0  0  0  0  # atno 10765 bound_to 10752
  140.8592  133.7800  156.0055 H   0  0  0  0  0  0  0  0  0  0  0  0  # atno 11005 bound_to 11000
  145.9167  139.2520  143.1406 LP  0  0  0  0  0  0  0  0  0  0  0  0  # atno 17320 bound_to 7965
  145.9662  140.8796  143.0186 LP  0  0  0  0  0  0  0  0  0  0  0  0  # atno 17321 bound_to 7965
  140.0091  143.5662  152.2846 LP  0  0  0  0  0  0  0  0  0  0  0  0  # atno 17342 bound_to 10162
  139.6379  144.7652  151.2399 LP  0  0  0  0  0  0  0  0  0  0  0  0  # atno 17343 bound_to 10162
  156.0044  130.3863  150.2485 LP  0  0  0  0  0  0  0  0  0  0  0  0  # atno 17370 bound_to 10713
  157.0664  131.0104  151.3205 LP  0  0  0  0  0  0  0  0  0  0  0  0  # atno 17371 bound_to 10713
  140.8702  134.2736  157.5194 LP  0  0  0  0  0  0  0  0  0  0  0  0  # atno 17394 bound_to 11000
  139.8706  134.9563  156.4233 LP  0  0  0  0  0  0  0  0  0  0  0  0  # atno 17395 bound_to 11000

$$$$
