AV-unprocessed.smi:2125|AV-procd|sdf|8674|dock2
  -GOLD-   2272011423D 1   1.00000     0.00000
 Structure written by MMmdl.
 32 33  0  0  0  0  0  0  0  0  1 V2000
  153.9517  140.2580  160.7258 C   0  0  0  0  0  0  0  0  0  0  0  0
  153.2456  141.4898  160.4416 N   0  0  0  0  0  0  0  0  0  0  0  0
  153.1173  142.4655  161.4599 C   0  0  0  0  0  0  0  0  0  0  0  0
  153.5845  142.3146  162.5891 O   0  0  0  0  0  0  0  0  0  0  0  0
  152.3865  143.6618  161.0589 C   0  0  0  0  0  0  0  0  0  0  0  0
  151.8912  143.7869  159.8081 C   0  0  0  0  0  0  0  0  0  0  0  0
  152.0318  142.8174  158.8319 N   0  0  0  0  0  0  0  0  0  0  0  0
  151.4490  143.0340  157.5014 C   0  0  0  0  0  0  0  0  0  0  0  0
  150.3587  142.0135  157.1466 C   0  0  0  0  0  0  0  0  0  0  0  0
  150.0767  141.0970  157.9198 O   0  0  0  0  0  0  0  0  0  0  0  0
  149.7373  142.2019  155.9730 N   0  0  0  0  0  0  0  0  0  0  0  0
  148.6624  141.3668  155.4537 C   0  0  0  0  0  0  0  0  0  0  0  0
  148.0179  141.8753  154.1778 C   0  0  0  0  0  0  0  0  0  0  0  0
  146.5704  142.3108  154.1509 C   0  0  0  0  0  0  0  0  0  0  0  0
  146.9878  141.0374  153.4570 C   0  0  0  0  0  0  0  0  0  0  0  0
  152.7235  141.6258  159.1367 C   0  0  0  0  0  0  0  0  0  0  0  0
  152.8606  140.7414  158.2874 O   0  0  0  0  0  0  0  0  0  0  0  0
  154.3245  140.2394  161.7491 H   0  0  0  0  0  0  0  0  0  0  0  0
  154.7881  140.1962  160.0271 H   0  0  0  0  0  0  0  0  0  0  0  0
  153.2456  139.4394  160.5751 H   0  0  0  0  0  0  0  0  0  0  0  0
  152.2390  144.4582  161.7734 H   0  0  0  0  0  0  0  0  0  0  0  0
  151.3542  144.6914  159.5616 H   0  0  0  0  0  0  0  0  0  0  0  0
  151.0108  144.0313  157.4474 H   0  0  0  0  0  0  0  0  0  0  0  0
  152.2324  143.0160  156.7413 H   0  0  0  0  0  0  0  0  0  0  0  0
  150.0288  142.9806  155.3999 H   0  0  0  0  0  0  0  0  0  0  0  0
  149.0816  140.3810  155.2512 H   0  0  0  0  0  0  0  0  0  0  0  0
  147.8987  141.2211  156.2200 H   0  0  0  0  0  0  0  0  0  0  0  0
  148.6999  142.4271  153.5334 H   0  0  0  0  0  0  0  0  0  0  0  0
  145.9944  142.2165  155.0694 H   0  0  0  0  0  0  0  0  0  0  0  0
  146.3161  143.1655  153.5275 H   0  0  0  0  0  0  0  0  0  0  0  0
  147.0092  141.0415  152.3690 H   0  0  0  0  0  0  0  0  0  0  0  0
  146.6883  140.0963  153.9143 H   0  0  0  0  0  0  0  0  0  0  0  0
  1  2  1  0  0  0  0
  1 18  1  0  0  0  0
  1 19  1  0  0  0  0
  1 20  1  0  0  0  0
  2 16  1  0  0  0  0
  2  3  1  0  0  0  0
  3  4  2  0  0  0  0
  3  5  1  0  0  0  0
  5  6  2  0  0  0  0
  5 21  1  0  0  0  0
  6  7  1  0  0  0  0
  6 22  1  0  0  0  0
  7  8  1  0  0  0  0
  7 16  1  0  0  0  0
  8  9  1  0  0  0  0
  8 23  1  0  0  0  0
  8 24  1  0  0  0  0
  9 10  2  0  0  0  0
  9 11  1  0  0  0  0
 11 12  1  0  0  0  0
 11 25  1  0  0  0  0
 12 13  1  0  0  0  0
 12 26  1  0  0  0  0
 12 27  1  0  0  0  0
 13 15  1  0  0  0  0
 13 14  1  0  0  0  0
 13 28  1  0  0  0  0
 14 15  1  0  0  0  0
 14 29  1  0  0  0  0
 14 30  1  0  0  0  0
 15 31  1  0  0  0  0
 15 32  1  0  0  0  0
 16 17  2  0  0  0  0
M  END
> <s_m_source_file>
AV-unprocessed.smi

> <i_m_source_file_index>
2125

> <i_lp_mmshare_version>
43012

> <i_f3d_flags>
0

> <s_epik_input>
W0NIM11uMWMoPU8pW2NIXVtjSF1uKGMxPU8pW0NIMl1DKD1PKVtOSF1bQ0gyXVtDSF0yW0NIMl1bQ0gyXTI=

> <s_epik_cmdline>
J2VwaWtfcHl0aG9uJywgJy1waCcsICc3LjAnLCAnLXRuJywgJzgnLCAnLW1hJywgJzIwMCcsICctbWV0YWxfYmluZGluZycsICctaW1hZScsICc8aW5maWxlLm1hZT4nLCAnLW9tYWUnLCAnPG91dGZpbGUubWFlPic=

> <r_lp_tautomer_probability>
1

> <r_epik_Ionization_Penalty>
3.09839e-08

> <r_epik_Ionization_Penalty_Charging>
1.16822e-08

> <r_epik_Ionization_Penalty_Neutral>
1.93017e-08

> <r_epik_State_Penalty>
-0

> <r_epik_Charging_Adjusted_Penalty>
1.16822e-08

> <i_epik_Tot_Q>
0

> <i_epik_Tot_abs_Q>
0

> <r_epik_Metal_State_Penalty>
-0

> <b_epik_Metal_Only>
0

> <s_lp_Force_Field>
OPLS_2005

> <r_lp_Energy>
19.7621

> <b_lp_Chiralities_Consistent>
1

> <s_lp_Variant>
AV-unprocessed.smi:2125-1

> <Gold.Version>
5.8.1

> <Gold.Id.Protein>
6NUR|6NUR_protein|mol2

> <Gold.PLP.Fitness>
42.7661

> <Gold.PLP.PLP>
-40.9951

> <Gold.PLP.part.hbond>
-2.0000

> <Gold.PLP.part.metal>
0.0000

> <Gold.PLP.part.buried>
-4.0857

> <Gold.PLP.part.nonpolar>
-34.9973

> <Gold.PLP.part.repulsive>
0.2010

> <Gold.PLP.ligand.clash>
0.0000

> <Gold.PLP.ligand.torsion>
0.4178

> <Gold.PLP.Chemscore.Hbond>
0.6856

> <Gold.PLP.Chemscore.CHOScore>
0.0000

> <Gold.PLP.Chemscore.Metal>
0.0000

> <Gold.Chemscore.Hbonds>
donor molecule, donor type, donor heavy atom, donor atom, acceptor molecule, acceptor atom, score
      L1  H    11    25       P1  8028  0.26
      P1  H  7997  8009       L1    17  0.34

> <Gold.PLP.Chemscore.Internal.Correction>
0.5496

> <Gold.Rescore>
     Score         DG    S(hbond)    S(metal)    S(lipo)     H(rot)  DE(clash)    DE(int)     intcor
     10.30     -11.51       0.81        0.00      68.04       1.81       0.73       0.48       ----

> <Gold.Chemscore.Fitness>
10.3007

> <Gold.Chemscore.DG>
-11.5086

> <Gold.Chemscore.ZeroCoef>
-5.4800

> <Gold.Chemscore.Hbond>
0.8099

> <Gold.Chemscore.Metal>
0.0000

> <Gold.Chemscore.Lipo>
68.0368

> <Gold.Chemscore.Internal_Hbond>
0.0000

> <Gold.Chemscore.DEClash>
0.7265

> <Gold.Chemscore.DEInternal>
0.4813

> <Gold.Chemscore.Rot>
1.8112

> <Gold.Chemscore.Internal.Correction>
   9.000000E+99

> <Gold.Chemscore.Hbonds>
donor molecule, donor type, donor heavy atom, donor atom, acceptor molecule, acceptor atom, score
      L1  H    11    25       P1  8028  0.25
      P1  H  7997  8009       L1    17  0.36

> <Gold.Chemscore.Hbond.Weighted>
-2.7050

> <Gold.Chemscore.Metal.Weighted>
-0.0000

> <Gold.Chemscore.Lipo.Weighted>
-7.9603

> <Gold.Chemscore.Internal_Hbond.Weighted>
0.0000

> <Gold.Chemscore.DEClash.Weighted>
0.7265

> <Gold.Chemscore.DEInternal.Weighted>
0.4813

> <Gold.Chemscore.Rot.Weighted>
4.6367

> <Gold.Chemscore.Internal.Correction.Weighted>
   9.000000E+99

> <Gold.Protein.RotatedTorsions>
[ 6907 6896 6895 6894 ] final  -50.43 input  -60.11 | X-H torsion
[ 7974 7965 7964 7962 ] final  134.67 input  175.53 | X-H torsion
[ 8008 7997 7996 7995 ] final  157.13 input   59.86 | X-H torsion
[ 10167 10162 10161 10158 ] final  -89.40 input  -65.29 | X-H torsion
[ 10718 10713 10712 10709 ] final  165.57 input   66.30 | X-H torsion
[ 10763 10752 10751 10750 ] final  -57.85 input  -60.55 | X-H torsion
[ 11005 11000 10999 10996 ] final  131.41 input  -57.11 | X-H torsion

> <Gold.Protein.ActiveResidues>
 VAL166  LYS551  ARG553  GLY616  TRP617  ASP618  TYR619  PRO620  LYS621  CYS622 
 ASP623  PHE694  ASN695  SER759  ASP760  ASP761  ALA762  ILE779  LEU786  VAL792 
 PHE793  MET794  SER795  GLU796  ALA797  LYS798  CYS799  TRP800  GLU811  SER814 

> <Gold.Protein.RotatedAtoms>
  150.8707  134.8081  159.7152 H   0  0  0  0  0  0  0  0  0  0  0  0  # atno 6907 bound_to 6896
  152.4713  134.4951  159.9717 H   0  0  0  0  0  0  0  0  0  0  0  0  # atno 6908 bound_to 6896
  151.5040  133.3460  159.2909 H   0  0  0  0  0  0  0  0  0  0  0  0  # atno 6909 bound_to 6896
  144.9740  139.4575  143.5419 H   0  0  0  0  0  0  0  0  0  0  0  0  # atno 7974 bound_to 7965
  156.2382  140.1893  156.7061 H   0  0  0  0  0  0  0  0  0  0  0  0  # atno 8008 bound_to 7997
  154.6146  140.0617  156.9565 H   0  0  0  0  0  0  0  0  0  0  0  0  # atno 8009 bound_to 7997
  155.1960  140.3288  155.4353 H   0  0  0  0  0  0  0  0  0  0  0  0  # atno 8010 bound_to 7997
  140.3652  143.2822  151.9567 H   0  0  0  0  0  0  0  0  0  0  0  0  # atno 10167 bound_to 10162
  157.0782  131.0385  151.2585 H   0  0  0  0  0  0  0  0  0  0  0  0  # atno 10718 bound_to 10713
  154.2289  135.6364  153.5169 H   0  0  0  0  0  0  0  0  0  0  0  0  # atno 10763 bound_to 10752
  152.9953  135.5514  154.6034 H   0  0  0  0  0  0  0  0  0  0  0  0  # atno 10764 bound_to 10752
  154.5512  135.2902  155.0981 H   0  0  0  0  0  0  0  0  0  0  0  0  # atno 10765 bound_to 10752
  139.9728  134.9572  156.9434 H   0  0  0  0  0  0  0  0  0  0  0  0  # atno 11005 bound_to 11000
  146.3390  139.8970  142.8800 LP  0  0  0  0  0  0  0  0  0  0  0  0  # atno 17320 bound_to 7965
  145.2518  141.0046  143.3877 LP  0  0  0  0  0  0  0  0  0  0  0  0  # atno 17321 bound_to 7965
  139.4809  144.5957  151.7695 LP  0  0  0  0  0  0  0  0  0  0  0  0  # atno 17342 bound_to 10162
  140.5088  144.1057  150.5989 LP  0  0  0  0  0  0  0  0  0  0  0  0  # atno 17343 bound_to 10162
  157.4822  130.7771  149.7425 LP  0  0  0  0  0  0  0  0  0  0  0  0  # atno 17370 bound_to 10713
  155.9931  130.3926  150.2915 LP  0  0  0  0  0  0  0  0  0  0  0  0  # atno 17371 bound_to 10713
  140.5256  134.0864  155.7303 LP  0  0  0  0  0  0  0  0  0  0  0  0  # atno 17394 bound_to 11000
  141.1407  133.9143  157.2332 LP  0  0  0  0  0  0  0  0  0  0  0  0  # atno 17395 bound_to 11000

$$$$
