AV-unprocessed.smi:2776|AV-procd|sdf|10707|dock1
  -GOLD-   2272015143D 1   1.00000     0.00000
 Structure written by MMmdl.
 26 27  0  0  0  0  0  0  0  0  2 V2000
  151.1248  140.0801  154.7517 O   0  0  0  0  0  0  0  0  0  0  0  0
  152.0496  139.6890  155.7490 C   0  0  1  0  0  0  0  0  0  0  0  0
  151.3845  139.7569  157.1395 C   0  0  0  0  0  0  0  0  0  0  0  0
  150.9863  141.1213  157.5157 N   0  0  0  0  0  0  0  0  0  0  0  0
  150.1150  141.9703  156.9061 C   0  0  0  0  0  0  0  0  0  0  0  0
  150.0820  143.1202  157.6350 N   0  3  0  0  0  0  0  0  0  0  0  0
  150.9439  143.0044  158.7278 C   0  0  0  0  0  0  0  0  0  0  0  0
  151.2477  143.9007  159.7475 C   0  0  0  0  0  0  0  0  0  0  0  0
  152.1739  143.4677  160.7191 C   0  0  0  0  0  0  0  0  0  0  0  0
  152.5044  144.3009  161.7340 F   0  0  0  0  0  0  0  0  0  0  0  0
  152.7600  142.1858  160.6542 C   0  0  0  0  0  0  0  0  0  0  0  0
  153.6430  141.8084  161.6088 F   0  0  0  0  0  0  0  0  0  0  0  0
  152.4450  141.2863  159.6144 C   0  0  0  0  0  0  0  0  0  0  0  0
  151.5290  141.7225  158.6578 C   0  0  0  0  0  0  0  0  0  0  0  0
  152.5915  138.2867  155.4116 C   0  0  0  0  0  0  0  0  0  0  0  0
  153.4791  138.3675  154.4201 F   0  0  0  0  0  0  0  0  0  0  0  0
  153.2094  137.7806  156.4786 F   0  0  0  0  0  0  0  0  0  0  0  0
  151.6023  137.4645  155.0602 F   0  0  0  0  0  0  0  0  0  0  0  0
  150.4629  139.4089  154.6793 H   0  0  0  0  0  0  0  0  0  0  0  0
  152.8772  140.3989  155.7196 H   0  0  0  0  0  0  0  0  0  0  0  0
  150.5163  139.1001  157.1975 H   0  0  0  0  0  0  0  0  0  0  0  0
  152.0812  139.4067  157.9019 H   0  0  0  0  0  0  0  0  0  0  0  0
  149.5510  141.7682  156.0068 H   0  0  0  0  0  0  0  0  0  0  0  0
  150.8004  144.8822  159.8020 H   0  0  0  0  0  0  0  0  0  0  0  0
  152.8959  140.3058  159.5789 H   0  0  0  0  0  0  0  0  0  0  0  0
  149.5112  143.9228  157.4018 H   0  0  0  0  0  0  0  0  0  0  0  0
  1  2  1  0  0  0  0
  1 19  1  0  0  0  0
  2  3  1  0  0  0  0
  2 15  1  0  0  0  0
  2 20  1  0  0  0  0
  3  4  1  0  0  0  0
  3 21  1  0  0  0  0
  3 22  1  0  0  0  0
  4 14  1  0  0  0  0
  4  5  1  0  0  0  0
  5  6  2  0  0  0  0
  5 23  1  0  0  0  0
  6  7  1  0  0  0  0
  6 26  1  0  0  0  0
  7 14  2  0  0  0  0
  7  8  1  0  0  0  0
  8  9  2  0  0  0  0
  8 24  1  0  0  0  0
  9 10  1  0  0  0  0
  9 11  1  0  0  0  0
 11 12  1  0  0  0  0
 11 13  2  0  0  0  0
 13 14  1  0  0  0  0
 13 25  1  0  0  0  0
 15 16  1  0  0  0  0
 15 17  1  0  0  0  0
 15 18  1  0  0  0  0
M  CHG  1   6   1
M  END
> <s_m_source_file>
AV-unprocessed.smi

> <i_m_source_file_index>
2776

> <i_lp_mmshare_version>
43012

> <i_f3d_flags>
0

> <s_epik_input>
RkMoRikoRilbQ0BIXShbT0hdKVtDSDJdbihbY0hdbjEpYyhjMTIpW2NIXWMoRiljKEYpW2NIXTI=

> <s_epik_cmdline>
J2VwaWtfcHl0aG9uJywgJy1waCcsICc3LjAnLCAnLXRuJywgJzgnLCAnLW1hJywgJzIwMCcsICctbWV0YWxfYmluZGluZycsICctaW1hZScsICc8aW5maWxlLm1hZT4nLCAnLW9tYWUnLCAnPG91dGZpbGUubWFlPic=

> <r_epik_Ionization_Penalty>
2.38424

> <r_epik_Ionization_Penalty_Charging>
2.37244

> <r_epik_Ionization_Penalty_Neutral>
0.0117937

> <r_epik_State_Penalty>
2.52832

> <r_epik_Charging_Adjusted_Penalty>
4.90076

> <i_epik_Tot_Q>
1

> <i_epik_Tot_abs_Q>
1

> <r_epik_Metal_State_Penalty>
6.61271

> <b_epik_Metal_Only>
0

> <s_lp_Force_Field>
OPLS_2005

> <r_lp_Energy>
13.8942

> <b_lp_Chiralities_Consistent>
1

> <s_lp_Variant>
AV-unprocessed.smi:2776-4

> <Gold.Version>
5.8.1

> <Gold.Id.Protein>
6NUR|6NUR_protein|mol2

> <Gold.PLP.Fitness>
47.0693

> <Gold.PLP.PLP>
-40.6983

> <Gold.PLP.part.hbond>
-2.0000

> <Gold.PLP.part.metal>
0.0000

> <Gold.PLP.part.buried>
-4.4480

> <Gold.PLP.part.nonpolar>
-34.2166

> <Gold.PLP.part.repulsive>
0.0249

> <Gold.PLP.ligand.clash>
0.0000

> <Gold.PLP.ligand.torsion>
0.3888

> <Gold.PLP.Chemscore.Hbond>
2.3760

> <Gold.PLP.Chemscore.CHOScore>
0.0000

> <Gold.PLP.Chemscore.Metal>
0.0000

> <Gold.Chemscore.Hbonds>
donor molecule, donor type, donor heavy atom, donor atom, acceptor molecule, acceptor atom, score
      L1  H     6    26       P1  8028  1.41
      P1  H  7989  7998       L1     1  1.00

> <Gold.PLP.Chemscore.Internal.Correction>
0.0206

> <Gold.Rescore>
     Score         DG    S(hbond)    S(metal)    S(lipo)     H(rot)  DE(clash)    DE(int)     intcor
     14.33     -15.27       1.91        0.00      75.31       2.12       0.76       0.18       ----

> <Gold.Chemscore.Fitness>
14.3275

> <Gold.Chemscore.DG>
-15.2671

> <Gold.Chemscore.ZeroCoef>
-5.4800

> <Gold.Chemscore.Hbond>
1.9150

> <Gold.Chemscore.Metal>
0.0000

> <Gold.Chemscore.Lipo>
75.3100

> <Gold.Chemscore.Internal_Hbond>
0.0000

> <Gold.Chemscore.DEClash>
0.7645

> <Gold.Chemscore.DEInternal>
0.1751

> <Gold.Chemscore.Rot>
2.1173

> <Gold.Chemscore.Internal.Correction>
   9.000000E+99

> <Gold.Chemscore.Hbonds>
donor molecule, donor type, donor heavy atom, donor atom, acceptor molecule, acceptor atom, score
      L1  H     6    26       P1  8028  0.27
      P1  H  7989  7998       L1     1  0.93

> <Gold.Chemscore.Hbond.Weighted>
-6.3960

> <Gold.Chemscore.Metal.Weighted>
-0.0000

> <Gold.Chemscore.Lipo.Weighted>
-8.8113

> <Gold.Chemscore.Internal_Hbond.Weighted>
0.0000

> <Gold.Chemscore.DEClash.Weighted>
0.7645

> <Gold.Chemscore.DEInternal.Weighted>
0.1751

> <Gold.Chemscore.Rot.Weighted>
5.4202

> <Gold.Chemscore.Internal.Correction.Weighted>
   9.000000E+99

> <Gold.Protein.RotatedTorsions>
[ 6907 6896 6895 6894 ] final  -20.16 input  -60.11 | X-H torsion
[ 7974 7965 7964 7962 ] final  173.75 input  175.53 | X-H torsion
[ 8008 7997 7996 7995 ] final -173.86 input   59.86 | X-H torsion
[ 10167 10162 10161 10158 ] final   98.89 input  -65.29 | X-H torsion
[ 10718 10713 10712 10709 ] final   -9.65 input   66.30 | X-H torsion
[ 10763 10752 10751 10750 ] final  123.76 input  -60.55 | X-H torsion
[ 11005 11000 10999 10996 ] final  -72.08 input  -57.11 | X-H torsion

> <Gold.Protein.ActiveResidues>
 VAL166  LYS551  ARG553  GLY616  TRP617  ASP618  TYR619  PRO620  LYS621  CYS622 
 ASP623  PHE694  ASN695  SER759  ASP760  ASP761  ALA762  ILE779  LEU786  VAL792 
 PHE793  MET794  SER795  GLU796  ALA797  LYS798  CYS799  TRP800  GLU811  SER814 

> <Gold.Protein.RotatedAtoms>
  151.2524  135.0626  159.9066 H   0  0  0  0  0  0  0  0  0  0  0  0  # atno 6907 bound_to 6896
  152.5378  134.0318  159.8038 H   0  0  0  0  0  0  0  0  0  0  0  0  # atno 6908 bound_to 6896
  151.0528  133.5560  159.2672 H   0  0  0  0  0  0  0  0  0  0  0  0  # atno 6909 bound_to 6896
  144.7237  139.9693  143.6436 H   0  0  0  0  0  0  0  0  0  0  0  0  # atno 7974 bound_to 7965
  155.9628  140.1147  157.0881 H   0  0  0  0  0  0  0  0  0  0  0  0  # atno 8008 bound_to 7997
  154.4136  140.1178  156.5268 H   0  0  0  0  0  0  0  0  0  0  0  0  # atno 8009 bound_to 7997
  155.6699  140.3473  155.4816 H   0  0  0  0  0  0  0  0  0  0  0  0  # atno 8010 bound_to 7997
  139.7667  144.6936  151.0214 H   0  0  0  0  0  0  0  0  0  0  0  0  # atno 10167 bound_to 10162
  156.6849  130.5048  149.5960 H   0  0  0  0  0  0  0  0  0  0  0  0  # atno 10718 bound_to 10713
  153.6506  135.3363  155.3098 H   0  0  0  0  0  0  0  0  0  0  0  0  # atno 10763 bound_to 10752
  154.8538  135.4340  154.1909 H   0  0  0  0  0  0  0  0  0  0  0  0  # atno 10764 bound_to 10752
  153.2850  135.7012  153.7423 H   0  0  0  0  0  0  0  0  0  0  0  0  # atno 10765 bound_to 10752
  141.1603  133.6836  156.7005 H   0  0  0  0  0  0  0  0  0  0  0  0  # atno 11005 bound_to 11000
  146.0575  139.3571  143.0601 LP  0  0  0  0  0  0  0  0  0  0  0  0  # atno 17320 bound_to 7965
  145.8135  140.9714  143.0936 LP  0  0  0  0  0  0  0  0  0  0  0  0  # atno 17321 bound_to 7965
  140.7811  143.4635  151.0245 LP  0  0  0  0  0  0  0  0  0  0  0  0  # atno 17342 bound_to 10162
  139.8319  143.7679  152.3180 LP  0  0  0  0  0  0  0  0  0  0  0  0  # atno 17343 bound_to 10162
  156.1840  130.6517  151.0984 LP  0  0  0  0  0  0  0  0  0  0  0  0  # atno 17370 bound_to 10713
  157.7030  131.0768  150.6759 LP  0  0  0  0  0  0  0  0  0  0  0  0  # atno 17371 bound_to 10713
  140.2962  134.8200  157.4059 LP  0  0  0  0  0  0  0  0  0  0  0  0  # atno 17394 bound_to 11000
  140.1302  134.5105  155.8112 LP  0  0  0  0  0  0  0  0  0  0  0  0  # atno 17395 bound_to 11000

$$$$
