AV-unprocessed.smi:2061|AV-procd|sdf|8391|dock2
  -GOLD-   2272011 73D 1   1.00000     0.00000
 Structure written by MMmdl.
 45 46  0  0  0  0  0  0  0  0  3 V2000
  151.8851  143.4835  157.2713 C   0  0  0  0  0  0  0  0  0  0  0  0
  150.9098  142.3753  157.0691 C   0  0  0  0  0  0  0  0  0  0  0  0
  150.5171  141.6726  155.9649 C   0  0  0  0  0  0  0  0  0  0  0  0
  149.5595  140.7627  156.4869 C   0  0  0  0  0  0  0  0  0  0  0  0
  148.8988  139.8386  155.6349 N   0  0  0  0  0  0  0  0  0  0  0  0
  149.2903  139.3711  154.4356 C   0  0  0  0  0  0  0  0  0  0  0  0
  150.3455  139.7662  153.9248 O   0  0  0  0  0  0  0  0  0  0  0  0
  148.4126  138.4650  153.9223 N   0  5  0  0  0  0  0  0  0  0  0  0
  146.9617  138.5060  154.1151 C   0  0  0  0  0  0  0  0  0  0  0  0
  146.2107  138.0953  152.8177 C   0  0  1  0  0  0  0  0  0  0  0  0
  146.7002  138.8263  151.5422 C   0  0  0  0  0  0  0  0  0  0  0  0
  146.2002  136.6071  152.6696 N   0  3  1  0  0  0  0  0  0  0  0  0
  146.0217  135.8844  153.9530 C   0  0  0  0  0  0  0  0  0  0  0  0
  146.2264  134.3685  153.7629 C   0  0  2  0  0  0  0  0  0  0  0  0
  147.7002  133.9703  153.5687 C   0  0  0  0  0  0  0  0  0  0  0  0
  145.3933  133.8816  152.7102 O   0  0  0  0  0  0  0  0  0  0  0  0
  145.5582  134.5420  151.4573 C   0  0  1  0  0  0  0  0  0  0  0  0
  144.5909  133.8996  150.4570 C   0  0  0  0  0  0  0  0  0  0  0  0
  145.2887  136.0457  151.6359 C   0  0  0  0  0  0  0  0  0  0  0  0
  149.3842  140.8995  157.7932 N   0  0  0  0  0  0  0  0  0  0  0  0
  150.2490  141.9326  158.1728 O   0  0  0  0  0  0  0  0  0  0  0  0
  152.1177  143.9741  156.3261 H   0  0  0  0  0  0  0  0  0  0  0  0
  152.8153  143.1047  157.6949 H   0  0  0  0  0  0  0  0  0  0  0  0
  151.4836  144.2348  157.9517 H   0  0  0  0  0  0  0  0  0  0  0  0
  150.8599  141.7917  154.9480 H   0  0  0  0  0  0  0  0  0  0  0  0
  148.0219  139.4774  155.9803 H   0  0  0  0  0  0  0  0  0  0  0  0
  146.6508  137.8485  154.9272 H   0  0  0  0  0  0  0  0  0  0  0  0
  146.6293  139.5013  154.4148 H   0  0  0  0  0  0  0  0  0  0  0  0
  145.1716  138.3943  152.9650 H   0  0  0  0  0  0  0  0  0  0  0  0
  146.5558  139.9058  151.6137 H   0  0  0  0  0  0  0  0  0  0  0  0
  146.1394  138.4974  150.6672 H   0  0  0  0  0  0  0  0  0  0  0  0
  147.7583  138.6547  151.3364 H   0  0  0  0  0  0  0  0  0  0  0  0
  146.7236  136.2542  154.7019 H   0  0  0  0  0  0  0  0  0  0  0  0
  145.0192  136.0790  154.3362 H   0  0  0  0  0  0  0  0  0  0  0  0
  145.8849  133.8718  154.6715 H   0  0  0  0  0  0  0  0  0  0  0  0
  148.2900  134.2353  154.4465 H   0  0  0  0  0  0  0  0  0  0  0  0
  148.1554  134.4678  152.7127 H   0  0  0  0  0  0  0  0  0  0  0  0
  147.7957  132.8944  153.4216 H   0  0  0  0  0  0  0  0  0  0  0  0
  146.5737  134.3921  151.0900 H   0  0  0  0  0  0  0  0  0  0  0  0
  144.6797  134.3599  149.4726 H   0  0  0  0  0  0  0  0  0  0  0  0
  143.5559  134.0052  150.7837 H   0  0  0  0  0  0  0  0  0  0  0  0
  144.7967  132.8347  150.3453 H   0  0  0  0  0  0  0  0  0  0  0  0
  144.2493  136.1987  151.9298 H   0  0  0  0  0  0  0  0  0  0  0  0
  145.4314  136.5555  150.6826 H   0  0  0  0  0  0  0  0  0  0  0  0
  147.1375  136.3800  152.3690 H   0  0  0  0  0  0  0  0  0  0  0  0
  1  2  1  0  0  0  0
  1 22  1  0  0  0  0
  1 23  1  0  0  0  0
  1 24  1  0  0  0  0
  2 21  1  0  0  0  0
  2  3  2  0  0  0  0
  3  4  1  0  0  0  0
  3 25  1  0  0  0  0
  4  5  1  0  0  0  0
  4 20  2  0  0  0  0
  5  6  1  0  0  0  0
  5 26  1  0  0  0  0
  6  7  2  0  0  0  0
  6  8  1  0  0  0  0
  8  9  1  0  0  0  0
  9 10  1  0  0  0  0
  9 27  1  0  0  0  0
  9 28  1  0  0  0  0
 10 11  1  0  0  0  0
 10 12  1  0  0  0  0
 10 29  1  0  0  0  0
 11 30  1  0  0  0  0
 11 31  1  0  0  0  0
 11 32  1  0  0  0  0
 12 19  1  0  0  0  0
 12 13  1  0  0  0  0
 12 45  1  0  0  0  0
 13 14  1  0  0  0  0
 13 33  1  0  0  0  0
 13 34  1  0  0  0  0
 14 15  1  0  0  0  0
 14 16  1  0  0  0  0
 14 35  1  0  0  0  0
 15 36  1  0  0  0  0
 15 37  1  0  0  0  0
 15 38  1  0  0  0  0
 16 17  1  0  0  0  0
 17 18  1  0  0  0  0
 17 19  1  0  0  0  0
 17 39  1  0  0  0  0
 18 40  1  0  0  0  0
 18 41  1  0  0  0  0
 18 42  1  0  0  0  0
 19 43  1  0  0  0  0
 19 44  1  0  0  0  0
 20 21  1  0  0  0  0
M  CHG  1   8  -1
M  CHG  1  12   1
M  END
> <s_m_source_file>
AV-unprocessed.smi

> <i_m_source_file_index>
2061

> <i_lp_mmshare_version>
43012

> <i_f3d_flags>
0

> <s_epik_input>
W0NIM11jMVtjSF1jKG5vMSlbTkhdQyg9TylbTkhdW0NIMl1bQ0BIXShbQ0gzXSlOMltDSDJdW0NAQEhdKFtDSDNdKU9bQ0BASF0oW0NIM10pW0NIMl0y

> <s_epik_cmdline>
J2VwaWtfcHl0aG9uJywgJy1waCcsICc3LjAnLCAnLXRuJywgJzgnLCAnLW1hJywgJzIwMCcsICctbWV0YWxfYmluZGluZycsICctaW1hZScsICc8aW5maWxlLm1hZT4nLCAnLW9tYWUnLCAnPG91dGZpbGUubWFlPic=

> <r_epik_Ionization_Penalty>
6.8073

> <r_epik_Ionization_Penalty_Charging>
6.80729

> <r_epik_Ionization_Penalty_Neutral>
5.65391e-06

> <r_epik_State_Penalty>
7.47323

> <r_epik_Charging_Adjusted_Penalty>
14.2805

> <i_epik_Tot_Q>
0

> <i_epik_Tot_abs_Q>
2

> <r_epik_Metal_State_Penalty>
3.40035

> <b_epik_Metal_Only>
1

> <s_lp_Force_Field>
OPLS_2005

> <r_lp_Energy>
19.3707

> <b_lp_Chiralities_Consistent>
1

> <s_lp_Variant>
AV-unprocessed.smi:2061-32

> <Gold.Version>
5.8.1

> <Gold.Id.Protein>
6NUR|6NUR_protein|mol2

> <Gold.PLP.Fitness>
36.0075

> <Gold.PLP.PLP>
-28.4485

> <Gold.PLP.part.hbond>
-2.0000

> <Gold.PLP.part.metal>
0.0000

> <Gold.PLP.part.buried>
-2.9134

> <Gold.PLP.part.nonpolar>
-24.8327

> <Gold.PLP.part.repulsive>
0.5606

> <Gold.PLP.ligand.clash>
0.0000

> <Gold.PLP.ligand.torsion>
0.7952

> <Gold.PLP.Chemscore.Hbond>
3.0000

> <Gold.PLP.Chemscore.CHOScore>
0.0000

> <Gold.PLP.Chemscore.Metal>
0.0000

> <Gold.Chemscore.Hbonds>
donor molecule, donor type, donor heavy atom, donor atom, acceptor molecule, acceptor atom, score
      L1  H    12    45       P1  7948  2.00
      P1  H  7989  7998       L1     7  1.00

> <Gold.PLP.Chemscore.Internal.Correction>
0.1495

> <Gold.Rescore>
     Score         DG    S(hbond)    S(metal)    S(lipo)     H(rot)  DE(clash)    DE(int)     intcor
     14.04     -16.29       1.97        0.00      70.24       1.56       0.15       2.11       ----

> <Gold.Chemscore.Fitness>
14.0399

> <Gold.Chemscore.DG>
-16.2930

> <Gold.Chemscore.ZeroCoef>
-5.4800

> <Gold.Chemscore.Hbond>
1.9688

> <Gold.Chemscore.Metal>
0.0000

> <Gold.Chemscore.Lipo>
70.2407

> <Gold.Chemscore.Internal_Hbond>
0.0000

> <Gold.Chemscore.DEClash>
0.1476

> <Gold.Chemscore.DEInternal>
2.1055

> <Gold.Chemscore.Rot>
1.5550

> <Gold.Chemscore.Internal.Correction>
   9.000000E+99

> <Gold.Chemscore.Hbonds>
donor molecule, donor type, donor heavy atom, donor atom, acceptor molecule, acceptor atom, score
      L1  H    12    45       P1  7948  1.00
      P1  H  7989  7998       L1     7  0.96

> <Gold.Chemscore.Hbond.Weighted>
-6.5757

> <Gold.Chemscore.Metal.Weighted>
-0.0000

> <Gold.Chemscore.Lipo.Weighted>
-8.2182

> <Gold.Chemscore.Internal_Hbond.Weighted>
0.0000

> <Gold.Chemscore.DEClash.Weighted>
0.1476

> <Gold.Chemscore.DEInternal.Weighted>
2.1055

> <Gold.Chemscore.Rot.Weighted>
3.9809

> <Gold.Chemscore.Internal.Correction.Weighted>
   9.000000E+99

> <Gold.Protein.RotatedTorsions>
[ 6907 6896 6895 6894 ] final  -97.69 input  -60.11 | X-H torsion
[ 7974 7965 7964 7962 ] final  138.65 input  175.53 | X-H torsion
[ 8008 7997 7996 7995 ] final  174.66 input   59.86 | X-H torsion
[ 10167 10162 10161 10158 ] final   16.99 input  -65.29 | X-H torsion
[ 10718 10713 10712 10709 ] final   17.96 input   66.30 | X-H torsion
[ 10763 10752 10751 10750 ] final   -8.83 input  -60.55 | X-H torsion
[ 11005 11000 10999 10996 ] final   38.87 input  -57.11 | X-H torsion

> <Gold.Protein.ActiveResidues>
 VAL166  LYS551  ARG553  GLY616  TRP617  ASP618  TYR619  PRO620  LYS621  CYS622 
 ASP623  PHE694  ASN695  SER759  ASP760  ASP761  ALA762  ILE779  LEU786  VAL792 
 PHE793  MET794  SER795  GLU796  ALA797  LYS798  CYS799  TRP800  GLU811  SER814 

> <Gold.Protein.RotatedAtoms>
  150.7024  134.1310  159.4069 H   0  0  0  0  0  0  0  0  0  0  0  0  # atno 6907 bound_to 6896
  151.9295  135.0260  160.0537 H   0  0  0  0  0  0  0  0  0  0  0  0  # atno 6908 bound_to 6896
  152.2187  133.4931  159.5187 H   0  0  0  0  0  0  0  0  0  0  0  0  # atno 6909 bound_to 6896
  144.9352  139.4998  143.5598 H   0  0  0  0  0  0  0  0  0  0  0  0  # atno 7974 bound_to 7965
  156.0951  140.1429  156.9541 H   0  0  0  0  0  0  0  0  0  0  0  0  # atno 8008 bound_to 7997
  154.4666  140.0924  156.7083 H   0  0  0  0  0  0  0  0  0  0  0  0  # atno 8009 bound_to 7997
  155.4854  140.3446  155.4348 H   0  0  0  0  0  0  0  0  0  0  0  0  # atno 8010 bound_to 7997
  140.5758  143.9076  150.6749 H   0  0  0  0  0  0  0  0  0  0  0  0  # atno 10167 bound_to 10162
  157.0896  130.6422  149.5845 H   0  0  0  0  0  0  0  0  0  0  0  0  # atno 10718 bound_to 10713
  153.4461  135.7014  153.6138 H   0  0  0  0  0  0  0  0  0  0  0  0  # atno 10763 bound_to 10752
  153.4492  135.3762  155.2274 H   0  0  0  0  0  0  0  0  0  0  0  0  # atno 10764 bound_to 10752
  154.8728  135.3993  154.3867 H   0  0  0  0  0  0  0  0  0  0  0  0  # atno 10765 bound_to 10752
  140.2084  134.3785  155.8061 H   0  0  0  0  0  0  0  0  0  0  0  0  # atno 11005 bound_to 11000
  146.3263  139.8331  142.8904 LP  0  0  0  0  0  0  0  0  0  0  0  0  # atno 17320 bound_to 7965
  145.3078  141.0212  143.3572 LP  0  0  0  0  0  0  0  0  0  0  0  0  # atno 17321 bound_to 7965
  140.2563  143.3557  152.1362 LP  0  0  0  0  0  0  0  0  0  0  0  0  # atno 17342 bound_to 10162
  139.5142  144.6944  151.5672 LP  0  0  0  0  0  0  0  0  0  0  0  0  # atno 17343 bound_to 10162
  155.9901  130.4952  150.7245 LP  0  0  0  0  0  0  0  0  0  0  0  0  # atno 17370 bound_to 10713
  157.4732  131.0895  151.0619 LP  0  0  0  0  0  0  0  0  0  0  0  0  # atno 17371 bound_to 10713
  141.2226  133.7130  156.8376 LP  0  0  0  0  0  0  0  0  0  0  0  0  # atno 17394 bound_to 11000
  140.1978  134.8919  157.3134 LP  0  0  0  0  0  0  0  0  0  0  0  0  # atno 17395 bound_to 11000

$$$$
