AV-unprocessed.smi:301|AV-procd|sdf|2271|dock6
  -GOLD-   2262022163D 1   1.00000     0.00000
 Structure written by MMmdl.
 32 33  0  0  0  0  0  0  0  0  1 V2000
  150.9017  133.8402  155.1009 C   0  0  0  0  0  0  0  0  0  0  0  0
  150.6529  135.3087  155.0516 C   0  0  0  0  0  0  0  0  0  0  0  0
  151.5944  136.2249  155.2905 N   0  0  0  0  0  0  0  0  0  0  0  0
  151.1113  137.5343  155.1931 C   0  0  0  0  0  0  0  0  0  0  0  0
  152.0353  138.6945  155.4347 C   0  0  0  0  0  0  0  0  0  0  0  0
  151.2748  140.0259  155.4254 C   0  0  0  0  0  0  0  0  0  0  0  0
  150.6196  140.3705  154.4407 O   0  0  0  0  0  0  0  0  0  0  0  0
  151.3665  140.7677  156.5399 N   0  0  0  0  0  0  0  0  0  0  0  0
  150.7357  142.0681  156.7348 C   0  0  0  0  0  0  0  0  0  0  0  0
  150.8371  142.5300  158.1977 C   0  0  1  0  0  0  0  0  0  0  0  0
  152.2180  142.3145  158.8150 C   0  0  0  0  0  0  0  0  0  0  0  0
  152.2337  143.3661  159.9001 C   0  0  0  0  0  0  0  0  0  0  0  0
  151.5195  144.5264  159.2143 C   0  0  0  0  0  0  0  0  0  0  0  0
  150.6025  143.9339  158.2980 O   0  0  0  0  0  0  0  0  0  0  0  0
  149.7794  137.5943  154.8629 C   0  0  0  0  0  0  0  0  0  0  0  0
  149.0827  136.0082  154.6776 S   0  0  0  0  0  0  0  0  0  0  0  0
  151.9685  133.6296  155.0181 H   0  0  0  0  0  0  0  0  0  0  0  0
  150.3843  133.3447  154.2792 H   0  0  0  0  0  0  0  0  0  0  0  0
  150.5360  133.4328  156.0435 H   0  0  0  0  0  0  0  0  0  0  0  0
  152.5416  138.5940  156.3954 H   0  0  0  0  0  0  0  0  0  0  0  0
  152.8180  138.7125  154.6746 H   0  0  0  0  0  0  0  0  0  0  0  0
  151.9248  140.4137  157.3032 H   0  0  0  0  0  0  0  0  0  0  0  0
  151.1925  142.8056  156.0729 H   0  0  0  0  0  0  0  0  0  0  0  0
  149.6896  141.9919  156.4371 H   0  0  0  0  0  0  0  0  0  0  0  0
  150.0942  142.0204  158.8138 H   0  0  0  0  0  0  0  0  0  0  0  0
  152.3604  141.3030  159.1964 H   0  0  0  0  0  0  0  0  0  0  0  0
  153.0039  142.5196  158.0866 H   0  0  0  0  0  0  0  0  0  0  0  0
  151.6574  143.0245  160.7610 H   0  0  0  0  0  0  0  0  0  0  0  0
  153.2382  143.6219  160.2384 H   0  0  0  0  0  0  0  0  0  0  0  0
  151.0103  145.1793  159.9235 H   0  0  0  0  0  0  0  0  0  0  0  0
  152.2304  145.1299  158.6486 H   0  0  0  0  0  0  0  0  0  0  0  0
  149.1670  138.4731  154.7246 H   0  0  0  0  0  0  0  0  0  0  0  0
  1  2  1  0  0  0  0
  1 17  1  0  0  0  0
  1 18  1  0  0  0  0
  1 19  1  0  0  0  0
  2 16  1  0  0  0  0
  2  3  2  0  0  0  0
  3  4  1  0  0  0  0
  4  5  1  0  0  0  0
  4 15  2  0  0  0  0
  5  6  1  0  0  0  0
  5 20  1  0  0  0  0
  5 21  1  0  0  0  0
  6  7  2  0  0  0  0
  6  8  1  0  0  0  0
  8  9  1  0  0  0  0
  8 22  1  0  0  0  0
  9 10  1  0  0  0  0
  9 23  1  0  0  0  0
  9 24  1  0  0  0  0
 10 14  1  0  0  0  0
 10 11  1  0  0  0  0
 10 25  1  0  0  0  0
 11 12  1  0  0  0  0
 11 26  1  0  0  0  0
 11 27  1  0  0  0  0
 12 13  1  0  0  0  0
 12 28  1  0  0  0  0
 12 29  1  0  0  0  0
 13 14  1  0  0  0  0
 13 30  1  0  0  0  0
 13 31  1  0  0  0  0
 15 16  1  0  0  0  0
 15 32  1  0  0  0  0
M  END
> <s_m_source_file>
AV-unprocessed.smi

> <i_m_source_file_index>
301

> <i_lp_mmshare_version>
43012

> <i_f3d_flags>
0

> <s_epik_input>
W0NIM11jMW5jKFtjSF1zMSlbQ0gyXUMoPU8pW05IXVtDSDJdW0NAQEhdMltDSDJdW0NIMl1bQ0gyXU8y

> <s_epik_cmdline>
J2VwaWtfcHl0aG9uJywgJy1waCcsICc3LjAnLCAnLXRuJywgJzgnLCAnLW1hJywgJzIwMCcsICctbWV0YWxfYmluZGluZycsICctaW1hZScsICc8aW5maWxlLm1hZT4nLCAnLW9tYWUnLCAnPG91dGZpbGUubWFlPic=

> <r_lp_tautomer_probability>
1

> <r_epik_Ionization_Penalty>
6.06873e-05

> <r_epik_Ionization_Penalty_Charging>
0

> <r_epik_Ionization_Penalty_Neutral>
6.06873e-05

> <r_epik_State_Penalty>
-0

> <r_epik_Charging_Adjusted_Penalty>
0

> <i_epik_Tot_Q>
0

> <i_epik_Tot_abs_Q>
0

> <r_epik_Metal_State_Penalty>
-0

> <b_epik_Metal_Only>
0

> <s_lp_Force_Field>
OPLS_2005

> <r_lp_Energy>
16.0562

> <b_lp_Chiralities_Consistent>
1

> <s_lp_Variant>
AV-unprocessed.smi:301-2

> <Gold.Version>
5.8.1

> <Gold.Id.Protein>
6NUR|6NUR_protein|mol2

> <Gold.PLP.Fitness>
36.6823

> <Gold.PLP.PLP>
-31.1297

> <Gold.PLP.part.hbond>
-2.0000

> <Gold.PLP.part.metal>
0.0000

> <Gold.PLP.part.buried>
-4.9914

> <Gold.PLP.part.nonpolar>
-24.4922

> <Gold.PLP.part.repulsive>
0.4212

> <Gold.PLP.ligand.clash>
0.0000

> <Gold.PLP.ligand.torsion>
0.2272

> <Gold.PLP.Chemscore.Hbond>
2.0000

> <Gold.PLP.Chemscore.CHOScore>
0.0000

> <Gold.PLP.Chemscore.Metal>
0.0000

> <Gold.Chemscore.Hbonds>
donor molecule, donor type, donor heavy atom, donor atom, acceptor molecule, acceptor atom, score
      P1  H  7989  7998       L1     7  0.84
      P1  H 10752 10763       L1     3  1.00

> <Gold.PLP.Chemscore.Internal.Correction>
0.0069

> <Gold.Rescore>
     Score         DG    S(hbond)    S(metal)    S(lipo)     H(rot)  DE(clash)    DE(int)     intcor
     16.32     -17.67       1.91        0.00      82.63       1.51       0.02       1.32       ----

> <Gold.Chemscore.Fitness>
16.3162

> <Gold.Chemscore.DG>
-17.6655

> <Gold.Chemscore.ZeroCoef>
-5.4800

> <Gold.Chemscore.Hbond>
1.9116

> <Gold.Chemscore.Metal>
0.0000

> <Gold.Chemscore.Lipo>
82.6305

> <Gold.Chemscore.Internal_Hbond>
0.0000

> <Gold.Chemscore.DEClash>
0.0243

> <Gold.Chemscore.DEInternal>
1.3250

> <Gold.Chemscore.Rot>
1.5106

> <Gold.Chemscore.Internal.Correction>
   9.000000E+99

> <Gold.Chemscore.Hbonds>
donor molecule, donor type, donor heavy atom, donor atom, acceptor molecule, acceptor atom, score
      P1  H  7989  7998       L1     7  0.40
      P1  H 10752 10763       L1     3  0.45

> <Gold.Chemscore.Hbond.Weighted>
-6.3848

> <Gold.Chemscore.Metal.Weighted>
-0.0000

> <Gold.Chemscore.Lipo.Weighted>
-9.6678

> <Gold.Chemscore.Internal_Hbond.Weighted>
0.0000

> <Gold.Chemscore.DEClash.Weighted>
0.0243

> <Gold.Chemscore.DEInternal.Weighted>
1.3250

> <Gold.Chemscore.Rot.Weighted>
3.8670

> <Gold.Chemscore.Internal.Correction.Weighted>
   9.000000E+99

> <Gold.Protein.RotatedTorsions>
[ 6907 6896 6895 6894 ] final   -7.77 input  -60.11 | X-H torsion
[ 7974 7965 7964 7962 ] final  -85.32 input  175.53 | X-H torsion
[ 8008 7997 7996 7995 ] final   12.37 input   59.86 | X-H torsion
[ 10167 10162 10161 10158 ] final -131.19 input  -65.29 | X-H torsion
[ 10718 10713 10712 10709 ] final -174.98 input   66.30 | X-H torsion
[ 10763 10752 10751 10750 ] final   64.03 input  -60.55 | X-H torsion
[ 11005 11000 10999 10996 ] final   92.61 input  -57.11 | X-H torsion

> <Gold.Protein.ActiveResidues>
 VAL166  LYS551  ARG553  GLY616  TRP617  ASP618  TYR619  PRO620  LYS621  CYS622 
 ASP623  PHE694  ASN695  SER759  ASP760  ASP761  ALA762  ILE779  LEU786  VAL792 
 PHE793  MET794  SER795  GLU796  ALA797  LYS798  CYS799  TRP800  GLU811  SER814 

> <Gold.Protein.RotatedAtoms>
  151.4443  135.1023  159.9679 H   0  0  0  0  0  0  0  0  0  0  0  0  # atno 6907 bound_to 6896
  152.4911  133.8499  159.7207 H   0  0  0  0  0  0  0  0  0  0  0  0  # atno 6908 bound_to 6896
  150.9066  133.6991  159.2892 H   0  0  0  0  0  0  0  0  0  0  0  0  # atno 6909 bound_to 6896
  145.4948  140.9551  143.1792 H   0  0  0  0  0  0  0  0  0  0  0  0  # atno 7974 bound_to 7965
  154.8197  140.2882  155.5795 H   0  0  0  0  0  0  0  0  0  0  0  0  # atno 8008 bound_to 7997
  156.2996  140.2552  156.3032 H   0  0  0  0  0  0  0  0  0  0  0  0  # atno 8009 bound_to 7997
  154.9353  140.0382  157.2058 H   0  0  0  0  0  0  0  0  0  0  0  0  # atno 8010 bound_to 7997
  139.9214  143.6377  152.2552 H   0  0  0  0  0  0  0  0  0  0  0  0  # atno 10167 bound_to 10162
  156.7930  130.9525  151.3120 H   0  0  0  0  0  0  0  0  0  0  0  0  # atno 10718 bound_to 10713
  153.0040  135.5408  154.6445 H   0  0  0  0  0  0  0  0  0  0  0  0  # atno 10763 bound_to 10752
  154.5692  135.2840  155.0846 H   0  0  0  0  0  0  0  0  0  0  0  0  # atno 10764 bound_to 10752
  154.2018  135.6482  153.5142 H   0  0  0  0  0  0  0  0  0  0  0  0  # atno 10765 bound_to 10752
  139.8821  134.8742  156.3597 H   0  0  0  0  0  0  0  0  0  0  0  0  # atno 11005 bound_to 11000
  144.7813  139.6520  143.7153 LP  0  0  0  0  0  0  0  0  0  0  0  0  # atno 17320 bound_to 7965
  146.2262  139.5727  142.9585 LP  0  0  0  0  0  0  0  0  0  0  0  0  # atno 17321 bound_to 7965
  139.6858  144.7651  151.1527 LP  0  0  0  0  0  0  0  0  0  0  0  0  # atno 17342 bound_to 10162
  140.7661  143.5659  150.9048 LP  0  0  0  0  0  0  0  0  0  0  0  0  # atno 17343 bound_to 10162
  157.6591  130.8950  149.9791 LP  0  0  0  0  0  0  0  0  0  0  0  0  # atno 17370 bound_to 10713
  156.1147  130.3648  149.9988 LP  0  0  0  0  0  0  0  0  0  0  0  0  # atno 17371 bound_to 10713
  140.9538  133.7434  156.0307 LP  0  0  0  0  0  0  0  0  0  0  0  0  # atno 17394 bound_to 11000
  140.8074  134.3439  157.5422 LP  0  0  0  0  0  0  0  0  0  0  0  0  # atno 17395 bound_to 11000

$$$$
