AV-unprocessed.smi:2553|AV-procd|sdf|10017|dock6
  -GOLD-   2272014 63D 1   1.00000     0.00000
 Structure written by MMmdl.
 29 30  0  0  0  0  0  0  0  0  1 V2000
  148.0744  139.2106  152.7276 O   0  0  0  0  0  0  0  0  0  0  0  0
  149.0355  139.3564  153.4804 C   0  0  0  0  0  0  0  0  0  0  0  0
  149.9119  138.2901  153.7049 N   0  0  0  0  0  0  0  0  0  0  0  0
  151.0355  138.3223  154.5315 C   0  0  0  0  0  0  0  0  0  0  0  0
  151.7272  137.3130  154.6672 O   0  0  0  0  0  0  0  0  0  0  0  0
  151.3116  139.5463  155.1824 N   0  0  0  0  0  0  0  0  0  0  0  0
  152.4469  139.6015  156.0706 C   0  0  0  0  0  0  0  0  0  0  0  0
  152.1894  140.4786  157.3056 C   0  0  0  0  0  0  0  0  0  0  0  0
  153.1144  140.1017  158.3163 O   0  0  0  0  0  0  0  0  0  0  0  0
  153.1521  140.8293  159.4857 C   0  0  0  0  0  0  0  0  0  0  0  0
  152.4810  142.0646  159.6709 C   0  0  0  0  0  0  0  0  0  0  0  0
  152.5664  142.7450  160.9009 C   0  0  0  0  0  0  0  0  0  0  0  0
  153.3196  142.2025  161.9582 C   0  0  0  0  0  0  0  0  0  0  0  0
  153.3986  142.8572  163.1407 F   0  0  0  0  0  0  0  0  0  0  0  0
  153.9904  140.9783  161.7836 C   0  0  0  0  0  0  0  0  0  0  0  0
  153.9077  140.2962  160.5539 C   0  0  0  0  0  0  0  0  0  0  0  0
  154.7432  138.7962  160.3606 Cl  0  0  0  0  0  0  0  0  0  0  0  0
  150.4630  140.6271  154.9985 C   0  0  0  0  0  0  0  0  0  0  0  0
  149.3690  140.5848  154.2004 C   0  0  0  0  0  0  0  0  0  0  0  0
  148.3537  141.9719  154.0304 Cl  0  0  0  0  0  0  0  0  0  0  0  0
  149.7111  137.4205  153.2327 H   0  0  0  0  0  0  0  0  0  0  0  0
  152.7160  138.5769  156.3353 H   0  0  0  0  0  0  0  0  0  0  0  0
  153.2788  139.9912  155.4818 H   0  0  0  0  0  0  0  0  0  0  0  0
  152.2979  141.5344  157.0525 H   0  0  0  0  0  0  0  0  0  0  0  0
  151.1692  140.3193  157.6579 H   0  0  0  0  0  0  0  0  0  0  0  0
  151.8921  142.5114  158.8844 H   0  0  0  0  0  0  0  0  0  0  0  0
  152.0515  143.6852  161.0335 H   0  0  0  0  0  0  0  0  0  0  0  0
  154.5695  140.5623  162.5949 H   0  0  0  0  0  0  0  0  0  0  0  0
  150.6766  141.5482  155.5225 H   0  0  0  0  0  0  0  0  0  0  0  0
  1  2  2  0  0  0  0
  2 19  1  0  0  0  0
  2  3  1  0  0  0  0
  3 21  1  0  0  0  0
  3  4  1  0  0  0  0
  4  5  2  0  0  0  0
  4  6  1  0  0  0  0
  6  7  1  0  0  0  0
  6 18  1  0  0  0  0
  7  8  1  0  0  0  0
  7 22  1  0  0  0  0
  7 23  1  0  0  0  0
  8  9  1  0  0  0  0
  8 24  1  0  0  0  0
  8 25  1  0  0  0  0
  9 10  1  0  0  0  0
 10 16  1  0  0  0  0
 10 11  2  0  0  0  0
 11 12  1  0  0  0  0
 11 26  1  0  0  0  0
 12 13  2  0  0  0  0
 12 27  1  0  0  0  0
 13 14  1  0  0  0  0
 13 15  1  0  0  0  0
 15 16  2  0  0  0  0
 15 28  1  0  0  0  0
 16 17  1  0  0  0  0
 18 19  2  0  0  0  0
 18 29  1  0  0  0  0
 19 20  1  0  0  0  0
M  END
> <s_m_source_file>
AV-unprocessed.smi

> <i_m_source_file_index>
2553

> <i_lp_mmshare_version>
43012

> <i_f3d_flags>
0

> <s_epik_input>
Tz1jMVtuSF1jKD1PKW4oW2NIXWMxQ2wpW0NIMl1bQ0gyXU9jMltjSF1bY0hdYyhGKVtjSF1jMkNs

> <s_epik_cmdline>
J2VwaWtfcHl0aG9uJywgJy1waCcsICc3LjAnLCAnLXRuJywgJzgnLCAnLW1hJywgJzIwMCcsICctbWV0YWxfYmluZGluZycsICctaW1hZScsICc8aW5maWxlLm1hZT4nLCAnLW9tYWUnLCAnPG91dGZpbGUubWFlPic=

> <r_lp_tautomer_probability>
0.999537

> <r_epik_Ionization_Penalty>
0.0476949

> <r_epik_Ionization_Penalty_Charging>
0.0476949

> <r_epik_Ionization_Penalty_Neutral>
0

> <r_epik_State_Penalty>
0.0406325

> <r_epik_Charging_Adjusted_Penalty>
0.0883274

> <i_epik_Tot_Q>
0

> <i_epik_Tot_abs_Q>
0

> <r_epik_Metal_State_Penalty>
2.53375

> <b_epik_Metal_Only>
0

> <s_lp_Force_Field>
OPLS_2005

> <r_lp_Energy>
13.2328

> <b_lp_Chiralities_Consistent>
1

> <s_lp_Variant>
AV-unprocessed.smi:2553-1

> <Gold.Version>
5.8.1

> <Gold.Id.Protein>
6NUR|6NUR_protein|mol2

> <Gold.PLP.Fitness>
53.0996

> <Gold.PLP.PLP>
-46.0798

> <Gold.PLP.part.hbond>
-2.8757

> <Gold.PLP.part.metal>
0.0000

> <Gold.PLP.part.buried>
-2.2782

> <Gold.PLP.part.nonpolar>
-40.8725

> <Gold.PLP.part.repulsive>
1.5610

> <Gold.PLP.ligand.clash>
0.0000

> <Gold.PLP.ligand.torsion>
0.5554

> <Gold.PLP.Chemscore.Hbond>
2.7073

> <Gold.PLP.Chemscore.CHOScore>
0.0000

> <Gold.PLP.Chemscore.Metal>
0.0000

> <Gold.Chemscore.Hbonds>
donor molecule, donor type, donor heavy atom, donor atom, acceptor molecule, acceptor atom, score
      L1  H     3    21       P1  7948  1.00
      P1  H  7997  8009       L1     9  0.70
      P1  H 10752 10764       L1     5  0.88

> <Gold.PLP.Chemscore.Internal.Correction>
0.0089

> <Gold.Rescore>
     Score         DG    S(hbond)    S(metal)    S(lipo)     H(rot)  DE(clash)    DE(int)     intcor
     18.55     -19.24       2.28        0.00      94.97       1.94       0.18       0.51       ----

> <Gold.Chemscore.Fitness>
18.5546

> <Gold.Chemscore.DG>
-19.2395

> <Gold.Chemscore.ZeroCoef>
-5.4800

> <Gold.Chemscore.Hbond>
2.2762

> <Gold.Chemscore.Metal>
0.0000

> <Gold.Chemscore.Lipo>
94.9721

> <Gold.Chemscore.Internal_Hbond>
0.0000

> <Gold.Chemscore.DEClash>
0.1759

> <Gold.Chemscore.DEInternal>
0.5090

> <Gold.Chemscore.Rot>
1.9355

> <Gold.Chemscore.Internal.Correction>
   9.000000E+99

> <Gold.Chemscore.Hbonds>
donor molecule, donor type, donor heavy atom, donor atom, acceptor molecule, acceptor atom, score
      L1  H     3    21       P1  7948  0.64
      P1  H  7997  8009       L1     9  0.07
      P1  H 10752 10764       L1     5  0.81

> <Gold.Chemscore.Hbond.Weighted>
-7.6026

> <Gold.Chemscore.Metal.Weighted>
-0.0000

> <Gold.Chemscore.Lipo.Weighted>
-11.1117

> <Gold.Chemscore.Internal_Hbond.Weighted>
0.0000

> <Gold.Chemscore.DEClash.Weighted>
0.1759

> <Gold.Chemscore.DEInternal.Weighted>
0.5090

> <Gold.Chemscore.Rot.Weighted>
4.9548

> <Gold.Chemscore.Internal.Correction.Weighted>
   9.000000E+99

> <Gold.Protein.RotatedTorsions>
[ 6907 6896 6895 6894 ] final -114.69 input  -60.11 | X-H torsion
[ 7974 7965 7964 7962 ] final -164.42 input  175.53 | X-H torsion
[ 8008 7997 7996 7995 ] final  150.74 input   59.86 | X-H torsion
[ 10167 10162 10161 10158 ] final -139.02 input  -65.29 | X-H torsion
[ 10718 10713 10712 10709 ] final   25.91 input   66.30 | X-H torsion
[ 10763 10752 10751 10750 ] final  -76.48 input  -60.55 | X-H torsion
[ 11005 11000 10999 10996 ] final  139.86 input  -57.11 | X-H torsion

> <Gold.Protein.ActiveResidues>
 VAL166  LYS551  ARG553  GLY616  TRP617  ASP618  TYR619  PRO620  LYS621  CYS622 
 ASP623  PHE694  ASN695  SER759  ASP760  ASP761  ALA762  ILE779  LEU786  VAL792 
 PHE793  MET794  SER795  GLU796  ALA797  LYS798  CYS799  TRP800  GLU811  SER814 

> <Gold.Protein.RotatedAtoms>
  150.7921  133.8765  159.3273 H   0  0  0  0  0  0  0  0  0  0  0  0  # atno 6907 bound_to 6896
  151.6600  135.0989  160.0187 H   0  0  0  0  0  0  0  0  0  0  0  0  # atno 6908 bound_to 6896
  152.3997  133.6760  159.6341 H   0  0  0  0  0  0  0  0  0  0  0  0  # atno 6909 bound_to 6896
  144.7297  140.2963  143.6212 H   0  0  0  0  0  0  0  0  0  0  0  0  # atno 7974 bound_to 7965
  156.2703  140.2066  156.6066 H   0  0  0  0  0  0  0  0  0  0  0  0  # atno 8008 bound_to 7997
  154.6864  140.0534  157.0343 H   0  0  0  0  0  0  0  0  0  0  0  0  # atno 8009 bound_to 7997
  155.0927  140.3198  155.4572 H   0  0  0  0  0  0  0  0  0  0  0  0  # atno 8010 bound_to 7997
  139.8421  143.7309  152.2662 H   0  0  0  0  0  0  0  0  0  0  0  0  # atno 10167 bound_to 10162
  157.1997  130.6884  149.6183 H   0  0  0  0  0  0  0  0  0  0  0  0  # atno 10718 bound_to 10713
  154.5004  135.5796  153.6527 H   0  0  0  0  0  0  0  0  0  0  0  0  # atno 10763 bound_to 10752
  152.9878  135.6134  154.3009 H   0  0  0  0  0  0  0  0  0  0  0  0  # atno 10764 bound_to 10752
  154.2916  135.2848  155.2631 H   0  0  0  0  0  0  0  0  0  0  0  0  # atno 10765 bound_to 10752
  140.0285  134.9363  157.0617 H   0  0  0  0  0  0  0  0  0  0  0  0  # atno 11005 bound_to 11000
  145.7805  139.1889  143.2160 LP  0  0  0  0  0  0  0  0  0  0  0  0  # atno 17320 bound_to 7965
  146.0838  140.7734  142.9629 LP  0  0  0  0  0  0  0  0  0  0  0  0  # atno 17321 bound_to 7965
  139.7549  144.7523  151.0451 LP  0  0  0  0  0  0  0  0  0  0  0  0  # atno 17342 bound_to 10162
  140.7797  143.4817  151.0009 LP  0  0  0  0  0  0  0  0  0  0  0  0  # atno 17343 bound_to 10162
  155.9702  130.4587  150.6008 LP  0  0  0  0  0  0  0  0  0  0  0  0  # atno 17370 bound_to 10713
  157.3779  131.0776  151.1502 LP  0  0  0  0  0  0  0  0  0  0  0  0  # atno 17371 bound_to 10713
  140.4265  134.1826  155.7166 LP  0  0  0  0  0  0  0  0  0  0  0  0  # atno 17394 bound_to 11000
  141.1817  133.8399  157.1233 LP  0  0  0  0  0  0  0  0  0  0  0  0  # atno 17395 bound_to 11000

$$$$
