AV-unprocessed.smi:3110|AV-procd|sdf|11830|dock3
  -GOLD-   2272017203D 1   1.00000     0.00000
 Structure written by MMmdl.
 33 34  0  0  0  0  0  0  0  0  1 V2000
  152.5897  140.1390  157.4429 O   0  0  0  0  0  0  0  0  0  0  0  0
  151.4972  140.6253  157.7341 C   0  0  0  0  0  0  0  0  0  0  0  0
  151.3495  141.4935  158.9864 C   0  0  0  0  0  0  0  0  0  0  0  0
  152.2661  142.7346  158.9582 C   0  0  2  0  0  0  0  0  0  0  0  0
  152.2905  143.4607  160.2786 C   0  0  0  0  0  0  0  0  0  0  0  0
  152.1008  144.7720  160.1490 C   0  0  0  0  0  0  0  0  0  0  0  0
  151.9094  145.1852  158.7164 C   0  0  0  0  0  0  0  0  0  0  0  0
  151.8472  143.8433  157.9551 C   0  0  0  0  0  0  0  0  0  0  0  0
  150.3859  140.4329  157.0063 N   0  0  0  0  0  0  0  0  0  0  0  0
  150.2875  139.5739  155.8297 C   0  0  0  0  0  0  0  0  0  0  0  0
  150.0078  140.3842  154.5500 C   0  0  0  0  0  0  0  0  0  0  0  0
  148.6513  140.8979  154.4972 N   0  0  0  0  0  0  0  0  0  0  0  0
  147.6721  140.5860  153.5626 C   0  0  0  0  0  0  0  0  0  0  0  0
  146.5566  141.3170  153.9033 C   0  0  0  0  0  0  0  0  0  0  0  0
  146.8225  142.0750  155.0412 N   0  0  0  0  0  0  0  0  0  0  0  0
  148.0808  141.7743  155.3353 C   0  0  0  0  0  0  0  0  0  0  0  0
  150.3061  141.7983  159.0795 H   0  0  0  0  0  0  0  0  0  0  0  0
  151.5704  140.8919  159.8697 H   0  0  0  0  0  0  0  0  0  0  0  0
  153.2916  142.4243  158.7510 H   0  0  0  0  0  0  0  0  0  0  0  0
  152.4656  142.9490  161.2135 H   0  0  0  0  0  0  0  0  0  0  0  0
  152.0978  145.4851  160.9600 H   0  0  0  0  0  0  0  0  0  0  0  0
  150.9941  145.7650  158.5953 H   0  0  0  0  0  0  0  0  0  0  0  0
  152.7550  145.7932  158.3940 H   0  0  0  0  0  0  0  0  0  0  0  0
  152.4829  143.8483  157.0690 H   0  0  0  0  0  0  0  0  0  0  0  0
  150.8238  143.6833  157.6130 H   0  0  0  0  0  0  0  0  0  0  0  0
  149.5353  140.8806  157.3154 H   0  0  0  0  0  0  0  0  0  0  0  0
  151.2395  139.0536  155.7234 H   0  0  0  0  0  0  0  0  0  0  0  0
  149.5330  138.7973  155.9674 H   0  0  0  0  0  0  0  0  0  0  0  0
  150.7046  141.2191  154.4656 H   0  0  0  0  0  0  0  0  0  0  0  0
  150.1657  139.7559  153.6728 H   0  0  0  0  0  0  0  0  0  0  0  0
  147.8477  139.8964  152.7502 H   0  0  0  0  0  0  0  0  0  0  0  0
  145.5913  141.3553  153.4205 H   0  0  0  0  0  0  0  0  0  0  0  0
  148.6022  142.2054  156.1775 H   0  0  0  0  0  0  0  0  0  0  0  0
  1  2  2  0  0  0  0
  2  3  1  0  0  0  0
  2  9  1  0  0  0  0
  3  4  1  0  0  0  0
  3 17  1  0  0  0  0
  3 18  1  0  0  0  0
  4  8  1  0  0  0  0
  4  5  1  0  0  0  0
  4 19  1  0  0  0  0
  5  6  2  0  0  0  0
  5 20  1  0  0  0  0
  6  7  1  0  0  0  0
  6 21  1  0  0  0  0
  7  8  1  0  0  0  0
  7 22  1  0  0  0  0
  7 23  1  0  0  0  0
  8 24  1  0  0  0  0
  8 25  1  0  0  0  0
  9 10  1  0  0  0  0
  9 26  1  0  0  0  0
 10 11  1  0  0  0  0
 10 27  1  0  0  0  0
 10 28  1  0  0  0  0
 11 12  1  0  0  0  0
 11 29  1  0  0  0  0
 11 30  1  0  0  0  0
 12 16  1  0  0  0  0
 12 13  1  0  0  0  0
 13 14  2  0  0  0  0
 13 31  1  0  0  0  0
 14 15  1  0  0  0  0
 14 32  1  0  0  0  0
 15 16  2  0  0  0  0
 16 33  1  0  0  0  0
M  END
> <s_m_source_file>
AV-unprocessed.smi

> <i_m_source_file_index>
3110

> <i_lp_mmshare_version>
43012

> <i_f3d_flags>
0

> <s_epik_input>
W0NIMl0xW0NIMl1bQ0hdPVtDSF1bQ0BIXTFbQ0gyXUMoPU8pW05IXVtDSDJdW0NIMl1uMltjSF1bY0hdbltjSF0y

> <s_epik_cmdline>
J2VwaWtfcHl0aG9uJywgJy1waCcsICc3LjAnLCAnLXRuJywgJzgnLCAnLW1hJywgJzIwMCcsICctbWV0YWxfYmluZGluZycsICctaW1hZScsICc8aW5maWxlLm1hZT4nLCAnLW9tYWUnLCAnPG91dGZpbGUubWFlPic=

> <r_lp_tautomer_probability>
1

> <r_epik_Ionization_Penalty>
0.593629

> <r_epik_Ionization_Penalty_Charging>
0.593629

> <r_epik_Ionization_Penalty_Neutral>
1.57355e-08

> <r_epik_State_Penalty>
0.607413

> <r_epik_Charging_Adjusted_Penalty>
1.20104

> <i_epik_Tot_Q>
0

> <i_epik_Tot_abs_Q>
0

> <r_epik_Metal_State_Penalty>
0.299385

> <b_epik_Metal_Only>
0

> <s_lp_Force_Field>
OPLS_2005

> <r_lp_Energy>
17.6057

> <b_lp_Chiralities_Consistent>
1

> <s_lp_Variant>
AV-unprocessed.smi:3110-3

> <Gold.Version>
5.8.1

> <Gold.Id.Protein>
6NUR|6NUR_protein|mol2

> <Gold.PLP.Fitness>
44.5415

> <Gold.PLP.PLP>
-34.9071

> <Gold.PLP.part.hbond>
-1.0000

> <Gold.PLP.part.metal>
0.0000

> <Gold.PLP.part.buried>
0.5502

> <Gold.PLP.part.nonpolar>
-35.1322

> <Gold.PLP.part.repulsive>
0.1719

> <Gold.PLP.ligand.clash>
0.0000

> <Gold.PLP.ligand.torsion>
0.1207

> <Gold.PLP.Chemscore.Hbond>
1.0000

> <Gold.PLP.Chemscore.CHOScore>
2.2865

> <Gold.PLP.Chemscore.Metal>
0.0000

> <Gold.Chemscore.Hbonds>
donor molecule, donor type, donor heavy atom, donor atom, acceptor molecule, acceptor atom, score
      P1  H  7997  8010       L1     1  1.00
      L1  C    13    31       P1  7957  0.93
      L1  C    14    32       P1 10175  0.96
      L1  C    16    33       P1  8028  0.46

> <Gold.PLP.Chemscore.Internal.Correction>
0.0163

> <Gold.Rescore>
     Score         DG    S(hbond)    S(metal)    S(lipo)     H(rot)  DE(clash)    DE(int)     intcor
     14.40     -14.60       0.99        0.00      93.82       2.01       0.13       0.07       ----

> <Gold.Chemscore.Fitness>
14.4029

> <Gold.Chemscore.DG>
-14.5998

> <Gold.Chemscore.ZeroCoef>
-5.4800

> <Gold.Chemscore.Hbond>
0.9850

> <Gold.Chemscore.Metal>
0.0000

> <Gold.Chemscore.Lipo>
93.8248

> <Gold.Chemscore.Internal_Hbond>
0.0000

> <Gold.Chemscore.DEClash>
0.1255

> <Gold.Chemscore.DEInternal>
0.0713

> <Gold.Chemscore.Rot>
2.0108

> <Gold.Chemscore.Internal.Correction>
   9.000000E+99

> <Gold.Chemscore.Hbonds>
donor molecule, donor type, donor heavy atom, donor atom, acceptor molecule, acceptor atom, score
      P1  H  7997  8010       L1     1  0.95

> <Gold.Chemscore.Hbond.Weighted>
-3.2900

> <Gold.Chemscore.Metal.Weighted>
-0.0000

> <Gold.Chemscore.Lipo.Weighted>
-10.9775

> <Gold.Chemscore.Internal_Hbond.Weighted>
0.0000

> <Gold.Chemscore.DEClash.Weighted>
0.1255

> <Gold.Chemscore.DEInternal.Weighted>
0.0713

> <Gold.Chemscore.Rot.Weighted>
5.1477

> <Gold.Chemscore.Internal.Correction.Weighted>
   9.000000E+99

> <Gold.Protein.RotatedTorsions>
[ 6907 6896 6895 6894 ] final  -38.72 input  -60.11 | X-H torsion
[ 7974 7965 7964 7962 ] final   80.60 input  175.53 | X-H torsion
[ 8008 7997 7996 7995 ] final   49.00 input   59.86 | X-H torsion
[ 10167 10162 10161 10158 ] final  -94.88 input  -65.29 | X-H torsion
[ 10718 10713 10712 10709 ] final   53.07 input   66.30 | X-H torsion
[ 10763 10752 10751 10750 ] final   -1.29 input  -60.55 | X-H torsion
[ 11005 11000 10999 10996 ] final -100.78 input  -57.11 | X-H torsion

> <Gold.Protein.ActiveResidues>
 VAL166  LYS551  ARG553  GLY616  TRP617  ASP618  TYR619  PRO620  LYS621  CYS622 
 ASP623  PHE694  ASN695  SER759  ASP760  ASP761  ALA762  ILE779  LEU786  VAL792 
 PHE793  MET794  SER795  GLU796  ALA797  LYS798  CYS799  TRP800  GLU811  SER814 

> <Gold.Protein.RotatedAtoms>
  150.9990  134.9306  159.7942 H   0  0  0  0  0  0  0  0  0  0  0  0  # atno 6907 bound_to 6896
  152.5272  134.3180  159.9148 H   0  0  0  0  0  0  0  0  0  0  0  0  # atno 6908 bound_to 6896
  151.3186  133.4008  159.2687 H   0  0  0  0  0  0  0  0  0  0  0  0  # atno 6909 bound_to 6896
  145.6491  139.2443  143.1987 H   0  0  0  0  0  0  0  0  0  0  0  0  # atno 7974 bound_to 7965
  155.3949  140.3435  155.4253 H   0  0  0  0  0  0  0  0  0  0  0  0  # atno 8008 bound_to 7997
  156.1536  140.1578  156.8762 H   0  0  0  0  0  0  0  0  0  0  0  0  # atno 8009 bound_to 7997
  154.5075  140.0798  156.7904 H   0  0  0  0  0  0  0  0  0  0  0  0  # atno 8010 bound_to 7997
  140.3099  143.3111  152.0159 H   0  0  0  0  0  0  0  0  0  0  0  0  # atno 10167 bound_to 10162
  157.5133  130.8515  149.8463 H   0  0  0  0  0  0  0  0  0  0  0  0  # atno 10718 bound_to 10713
  153.3430  135.6981  153.6851 H   0  0  0  0  0  0  0  0  0  0  0  0  # atno 10763 bound_to 10752
  153.5608  135.3535  155.2799 H   0  0  0  0  0  0  0  0  0  0  0  0  # atno 10764 bound_to 10752
  154.8640  135.4249  154.2647 H   0  0  0  0  0  0  0  0  0  0  0  0  # atno 10765 bound_to 10752
  141.1257  133.8426  157.1147 H   0  0  0  0  0  0  0  0  0  0  0  0  # atno 11005 bound_to 11000
  146.1218  140.7298  142.9454 LP  0  0  0  0  0  0  0  0  0  0  0  0  # atno 17320 bound_to 7965
  144.7129  140.4105  143.7066 LP  0  0  0  0  0  0  0  0  0  0  0  0  # atno 17321 bound_to 7965
  139.4896  144.6392  151.6912 LP  0  0  0  0  0  0  0  0  0  0  0  0  # atno 17342 bound_to 10162
  140.5577  144.0320  150.6155 LP  0  0  0  0  0  0  0  0  0  0  0  0  # atno 17343 bound_to 10162
  156.0303  130.3766  150.1706 LP  0  0  0  0  0  0  0  0  0  0  0  0  # atno 17370 bound_to 10713
  156.9895  130.9889  151.3418 LP  0  0  0  0  0  0  0  0  0  0  0  0  # atno 17371 bound_to 10713
  140.0254  134.9926  157.0674 LP  0  0  0  0  0  0  0  0  0  0  0  0  # atno 17394 bound_to 11000
  140.4372  134.1719  155.7171 LP  0  0  0  0  0  0  0  0  0  0  0  0  # atno 17395 bound_to 11000

$$$$
