AV-unprocessed.smi:1203|AV-procd|sdf|5035|dock9
  -GOLD-   22720 4 63D 1   1.00000     0.00000
 Structure written by MMmdl.
 40 41  0  0  0  0  0  0  0  0  2 V2000
  146.7582  138.9746  157.6215 C   0  0  0  0  0  0  0  0  0  0  0  0
  146.2799  140.7496  157.5656 S   0  0  0  0  0  0  0  0  0  0  0  0
  144.8231  140.8329  157.3802 O   0  0  0  0  0  0  0  0  0  0  0  0
  146.9171  141.4541  158.6882 O   0  0  0  0  0  0  0  0  0  0  0  0
  147.0206  141.3045  156.1041 N   0  0  0  0  0  0  0  0  0  0  0  0
  146.2426  142.1649  155.2029 C   0  0  0  0  0  0  0  0  0  0  0  0
  146.8800  142.0002  153.8264 C   0  0  0  0  0  0  0  0  0  0  0  0
  147.3874  140.5658  153.8550 C   0  0  0  0  0  0  0  0  0  0  0  0
  147.8148  140.3459  155.3168 C   0  0  1  0  0  0  0  0  0  0  0  0
  149.3248  140.5037  155.5375 C   0  0  0  0  0  0  0  0  0  0  0  0
  150.0712  140.7849  154.5994 O   0  0  0  0  0  0  0  0  0  0  0  0
  149.7575  140.3393  156.7964 N   0  0  0  0  0  0  0  0  0  0  0  0
  151.1444  140.4562  157.2356 C   0  0  0  0  0  0  0  0  0  0  0  0
  151.2784  140.9103  158.7033 C   0  0  0  0  0  0  0  0  0  0  0  0
  151.2563  142.4190  158.8828 C   0  0  0  0  0  0  0  0  0  0  0  0
  152.3313  143.0849  159.5119 C   0  0  0  0  0  0  0  0  0  0  0  0
  152.2800  144.4853  159.6707 C   0  0  0  0  0  0  0  0  0  0  0  0
  151.1561  145.1894  159.1925 C   0  0  0  0  0  0  0  0  0  0  0  0
  150.1480  144.5190  158.5929 N   0  3  0  0  0  0  0  0  0  0  0  0
  150.1569  143.1783  158.4264 C   0  0  0  0  0  0  0  0  0  0  0  0
  146.2741  138.4961  158.4727 H   0  0  0  0  0  0  0  0  0  0  0  0
  147.8394  138.8910  157.7314 H   0  0  0  0  0  0  0  0  0  0  0  0
  146.4502  138.4824  156.7003 H   0  0  0  0  0  0  0  0  0  0  0  0
  145.2072  141.8226  155.1790 H   0  0  0  0  0  0  0  0  0  0  0  0
  146.2538  143.1996  155.5458 H   0  0  0  0  0  0  0  0  0  0  0  0
  146.1807  142.1866  153.0110 H   0  0  0  0  0  0  0  0  0  0  0  0
  147.7172  142.6910  153.7180 H   0  0  0  0  0  0  0  0  0  0  0  0
  146.5747  139.8822  153.6048 H   0  0  0  0  0  0  0  0  0  0  0  0
  148.1858  140.3966  153.1308 H   0  0  0  0  0  0  0  0  0  0  0  0
  147.5329  139.3303  155.6011 H   0  0  0  0  0  0  0  0  0  0  0  0
  149.0721  140.1193  157.5050 H   0  0  0  0  0  0  0  0  0  0  0  0
  151.6010  139.4733  157.1181 H   0  0  0  0  0  0  0  0  0  0  0  0
  151.6936  141.1302  156.5764 H   0  0  0  0  0  0  0  0  0  0  0  0
  150.4740  140.4746  159.2965 H   0  0  0  0  0  0  0  0  0  0  0  0
  152.2053  140.5178  159.1236 H   0  0  0  0  0  0  0  0  0  0  0  0
  153.1847  142.5291  159.8728 H   0  0  0  0  0  0  0  0  0  0  0  0
  153.0908  145.0116  160.1526 H   0  0  0  0  0  0  0  0  0  0  0  0
  151.0332  146.2597  159.2721 H   0  0  0  0  0  0  0  0  0  0  0  0
  149.2885  142.7572  157.9409 H   0  0  0  0  0  0  0  0  0  0  0  0
  149.3440  145.0473  158.2539 H   0  0  0  0  0  0  0  0  0  0  0  0
  1  2  1  0  0  0  0
  1 21  1  0  0  0  0
  1 22  1  0  0  0  0
  1 23  1  0  0  0  0
  2  3  2  0  0  0  0
  2  4  2  0  0  0  0
  2  5  1  0  0  0  0
  5  9  1  0  0  0  0
  5  6  1  0  0  0  0
  6  7  1  0  0  0  0
  6 24  1  0  0  0  0
  6 25  1  0  0  0  0
  7  8  1  0  0  0  0
  7 26  1  0  0  0  0
  7 27  1  0  0  0  0
  8  9  1  0  0  0  0
  8 28  1  0  0  0  0
  8 29  1  0  0  0  0
  9 10  1  0  0  0  0
  9 30  1  0  0  0  0
 10 11  2  0  0  0  0
 10 12  1  0  0  0  0
 12 13  1  0  0  0  0
 12 31  1  0  0  0  0
 13 14  1  0  0  0  0
 13 32  1  0  0  0  0
 13 33  1  0  0  0  0
 14 15  1  0  0  0  0
 14 34  1  0  0  0  0
 14 35  1  0  0  0  0
 15 20  1  0  0  0  0
 15 16  2  0  0  0  0
 16 17  1  0  0  0  0
 16 36  1  0  0  0  0
 17 18  2  0  0  0  0
 17 37  1  0  0  0  0
 18 19  1  0  0  0  0
 18 38  1  0  0  0  0
 19 20  2  0  0  0  0
 19 40  1  0  0  0  0
 20 39  1  0  0  0  0
M  CHG  1  19   1
M  END
> <s_m_source_file>
AV-unprocessed.smi

> <i_m_source_file_index>
1203

> <i_lp_mmshare_version>
43012

> <i_f3d_flags>
0

> <s_epik_input>
W0NIM11TKD1PKSg9TylOMVtDSDJdW0NIMl1bQ0gyXVtDQEhdMUMoPU8pW05IXVtDSDJdW0NIMl1jMltjSF1bY0hdW2NIXW5bY0hdMg==

> <s_epik_cmdline>
J2VwaWtfcHl0aG9uJywgJy1waCcsICc3LjAnLCAnLXRuJywgJzgnLCAnLW1hJywgJzIwMCcsICctbWV0YWxfYmluZGluZycsICctaW1hZScsICc8aW5maWxlLm1hZT4nLCAnLW9tYWUnLCAnPG91dGZpbGUubWFlPic=

> <r_epik_Ionization_Penalty>
2.2835

> <r_epik_Ionization_Penalty_Charging>
2.2835

> <r_epik_Ionization_Penalty_Neutral>
1.4017e-07

> <r_epik_State_Penalty>
2.43297

> <r_epik_Charging_Adjusted_Penalty>
4.71647

> <i_epik_Tot_Q>
1

> <i_epik_Tot_abs_Q>
1

> <r_epik_Metal_State_Penalty>
2.44558

> <b_epik_Metal_Only>
0

> <s_lp_Force_Field>
OPLS_2005

> <r_lp_Energy>
11.8017

> <b_lp_Chiralities_Consistent>
1

> <s_lp_Variant>
AV-unprocessed.smi:1203-3

> <Gold.Version>
5.8.1

> <Gold.Id.Protein>
6NUR|6NUR_protein|mol2

> <Gold.PLP.Fitness>
41.3847

> <Gold.PLP.PLP>
-32.9313

> <Gold.PLP.part.hbond>
-3.7939

> <Gold.PLP.part.metal>
0.0000

> <Gold.PLP.part.buried>
-6.0325

> <Gold.PLP.part.nonpolar>
-24.8799

> <Gold.PLP.part.repulsive>
0.3641

> <Gold.PLP.ligand.clash>
0.0000

> <Gold.PLP.ligand.torsion>
0.6870

> <Gold.PLP.Chemscore.Hbond>
3.1073

> <Gold.PLP.Chemscore.CHOScore>
0.0000

> <Gold.PLP.Chemscore.Metal>
0.0000

> <Gold.Chemscore.Hbonds>
donor molecule, donor type, donor heavy atom, donor atom, acceptor molecule, acceptor atom, score
      L1  H    19    40       P1  8029  2.00
      P1  H  6934  6946       L1     4  0.40
      P1  H  7989  7998       L1    11  0.75

> <Gold.PLP.Chemscore.Internal.Correction>
0.5056

> <Gold.Rescore>
     Score         DG    S(hbond)    S(metal)    S(lipo)     H(rot)  DE(clash)    DE(int)     intcor
     16.03     -16.68       2.15        0.00      78.12       2.00       0.00       0.64       ----

> <Gold.Chemscore.Fitness>
16.0319

> <Gold.Chemscore.DG>
-16.6756

> <Gold.Chemscore.ZeroCoef>
-5.4800

> <Gold.Chemscore.Hbond>
2.1516

> <Gold.Chemscore.Metal>
0.0000

> <Gold.Chemscore.Lipo>
78.1216

> <Gold.Chemscore.Internal_Hbond>
0.0000

> <Gold.Chemscore.DEClash>
0.0029

> <Gold.Chemscore.DEInternal>
0.6408

> <Gold.Chemscore.Rot>
2.0043

> <Gold.Chemscore.Internal.Correction>
   9.000000E+99

> <Gold.Chemscore.Hbonds>
donor molecule, donor type, donor heavy atom, donor atom, acceptor molecule, acceptor atom, score
      L1  H    19    40       P1  8029  0.49
      P1  H  6934  6946       L1     4  0.39
      P1  H  7989  7998       L1    11  0.76

> <Gold.Chemscore.Hbond.Weighted>
-7.1862

> <Gold.Chemscore.Metal.Weighted>
-0.0000

> <Gold.Chemscore.Lipo.Weighted>
-9.1402

> <Gold.Chemscore.Internal_Hbond.Weighted>
0.0000

> <Gold.Chemscore.DEClash.Weighted>
0.0029

> <Gold.Chemscore.DEInternal.Weighted>
0.6408

> <Gold.Chemscore.Rot.Weighted>
5.1309

> <Gold.Chemscore.Internal.Correction.Weighted>
   9.000000E+99

> <Gold.Protein.RotatedTorsions>
[ 6907 6896 6895 6894 ] final    6.17 input  -60.11 | X-H torsion
[ 7974 7965 7964 7962 ] final  -28.02 input  175.53 | X-H torsion
[ 8008 7997 7996 7995 ] final  -93.32 input   59.86 | X-H torsion
[ 10167 10162 10161 10158 ] final   97.95 input  -65.29 | X-H torsion
[ 10718 10713 10712 10709 ] final -177.14 input   66.30 | X-H torsion
[ 10763 10752 10751 10750 ] final  101.15 input  -60.55 | X-H torsion
[ 11005 11000 10999 10996 ] final  137.35 input  -57.11 | X-H torsion

> <Gold.Protein.ActiveResidues>
 VAL166  LYS551  ARG553  GLY616  TRP617  ASP618  TYR619  PRO620  LYS621  CYS622 
 ASP623  PHE694  ASN695  SER759  ASP760  ASP761  ALA762  ILE779  LEU786  VAL792 
 PHE793  MET794  SER795  GLU796  ALA797  LYS798  CYS799  TRP800  GLU811  SER814 

> <Gold.Protein.RotatedAtoms>
  151.6694  135.0978  160.0194 H   0  0  0  0  0  0  0  0  0  0  0  0  # atno 6907 bound_to 6896
  152.3900  133.6661  159.6238 H   0  0  0  0  0  0  0  0  0  0  0  0  # atno 6908 bound_to 6896
  150.7818  133.8886  159.3348 H   0  0  0  0  0  0  0  0  0  0  0  0  # atno 6909 bound_to 6896
  146.1317  140.5228  142.8690 H   0  0  0  0  0  0  0  0  0  0  0  0  # atno 7974 bound_to 7965
  154.7342  140.0500  157.0754 H   0  0  0  0  0  0  0  0  0  0  0  0  # atno 8008 bound_to 7997
  155.0262  140.3152  155.4756 H   0  0  0  0  0  0  0  0  0  0  0  0  # atno 8009 bound_to 7997
  156.2849  140.2158  156.5381 H   0  0  0  0  0  0  0  0  0  0  0  0  # atno 8010 bound_to 7997
  139.7753  144.6908  151.0098 H   0  0  0  0  0  0  0  0  0  0  0  0  # atno 10167 bound_to 10162
  156.8251  130.9633  151.3109 H   0  0  0  0  0  0  0  0  0  0  0  0  # atno 10718 bound_to 10713
  153.3230  135.4054  155.1433 H   0  0  0  0  0  0  0  0  0  0  0  0  # atno 10763 bound_to 10752
  154.8605  135.3592  154.5571 H   0  0  0  0  0  0  0  0  0  0  0  0  # atno 10764 bound_to 10752
  153.6005  135.7071  153.5445 H   0  0  0  0  0  0  0  0  0  0  0  0  # atno 10765 bound_to 10752
  140.0108  134.9439  157.0274 H   0  0  0  0  0  0  0  0  0  0  0  0  # atno 11005 bound_to 11000
  144.7698  140.5611  143.6678 LP  0  0  0  0  0  0  0  0  0  0  0  0  # atno 17320 bound_to 7965
  145.5245  139.1476  143.3534 LP  0  0  0  0  0  0  0  0  0  0  0  0  # atno 17321 bound_to 7965
  140.7816  143.4543  151.0369 LP  0  0  0  0  0  0  0  0  0  0  0  0  # atno 17342 bound_to 10162
  139.8225  143.7801  152.3177 LP  0  0  0  0  0  0  0  0  0  0  0  0  # atno 17343 bound_to 10162
  157.6436  130.8826  149.9495 LP  0  0  0  0  0  0  0  0  0  0  0  0  # atno 17370 bound_to 10713
  156.0966  130.3659  150.0295 LP  0  0  0  0  0  0  0  0  0  0  0  0  # atno 17371 bound_to 10713
  140.4558  134.1535  155.7186 LP  0  0  0  0  0  0  0  0  0  0  0  0  # atno 17394 bound_to 11000
  141.1709  133.8609  157.1572 LP  0  0  0  0  0  0  0  0  0  0  0  0  # atno 17395 bound_to 11000

$$$$
