AV-unprocessed.smi:1245|AV-procd|sdf|5240|dock3
  -GOLD-   22720 4343D 1   1.00000     0.00000
 Structure written by MMmdl.
 44 45  0  0  0  0  0  0  0  0  2 V2000
  149.5492  135.0644  156.4085 O   0  0  0  0  0  0  0  0  0  0  0  0
  149.4620  135.5701  155.2889 C   0  0  0  0  0  0  0  0  0  0  0  0
  150.0035  136.9765  155.0172 C   0  0  0  0  0  0  0  0  0  0  0  0
  150.9280  137.4977  156.1322 C   0  0  0  0  0  0  0  0  0  0  0  0
  151.4893  139.2336  155.8082 S   0  0  0  0  0  0  0  0  0  0  0  0
  152.9600  139.2296  155.7901 O   0  0  0  0  0  0  0  0  0  0  0  0
  150.7432  139.7634  154.6561 O   0  0  0  0  0  0  0  0  0  0  0  0
  150.9479  140.1605  157.3213 C   0  0  0  0  0  0  0  0  0  0  0  0
  150.1016  141.4051  156.9920 C   0  0  0  0  0  0  0  0  0  0  0  0
  150.8582  142.6038  157.5747 C   0  0  0  0  0  0  0  0  0  0  0  0
  151.7152  142.0189  158.6958 C   0  0  0  0  0  0  0  0  0  0  0  0
  152.1313  140.6433  158.1760 C   0  0  0  0  0  0  0  0  0  0  0  0
  148.8996  134.9445  154.2437 N   0  0  0  0  0  0  0  0  0  0  0  0
  148.3290  133.6027  154.2754 C   0  0  0  0  0  0  0  0  0  0  0  0
  148.1661  133.0186  152.8617 C   0  0  0  0  0  0  0  0  0  0  0  0
  146.8183  133.3536  152.2527 C   0  0  0  0  0  0  0  0  0  0  0  0
  145.8964  132.3541  151.8721 C   0  0  0  0  0  0  0  0  0  0  0  0
  144.6616  132.7353  151.3062 C   0  0  0  0  0  0  0  0  0  0  0  0
  144.3756  134.1053  151.1320 C   0  0  0  0  0  0  0  0  0  0  0  0
  145.3334  135.0611  151.5274 C   0  0  0  0  0  0  0  0  0  0  0  0
  146.5051  134.6564  152.0653 N   0  3  0  0  0  0  0  0  0  0  0  0
  150.5396  136.9622  154.0676 H   0  0  0  0  0  0  0  0  0  0  0  0
  149.1592  137.6552  154.8918 H   0  0  0  0  0  0  0  0  0  0  0  0
  150.4326  137.4556  157.1002 H   0  0  0  0  0  0  0  0  0  0  0  0
  151.8204  136.8753  156.2050 H   0  0  0  0  0  0  0  0  0  0  0  0
  150.3402  139.4722  157.9100 H   0  0  0  0  0  0  0  0  0  0  0  0
  149.9197  141.5278  155.9238 H   0  0  0  0  0  0  0  0  0  0  0  0
  149.1263  141.3168  157.4721 H   0  0  0  0  0  0  0  0  0  0  0  0
  151.5028  143.0432  156.8130 H   0  0  0  0  0  0  0  0  0  0  0  0
  150.1879  143.3878  157.9278 H   0  0  0  0  0  0  0  0  0  0  0  0
  152.5694  142.6496  158.9440 H   0  0  0  0  0  0  0  0  0  0  0  0
  151.1123  141.9041  159.5976 H   0  0  0  0  0  0  0  0  0  0  0  0
  152.3706  139.9497  158.9826 H   0  0  0  0  0  0  0  0  0  0  0  0
  153.0283  140.7522  157.5681 H   0  0  0  0  0  0  0  0  0  0  0  0
  148.8745  135.4312  153.3590 H   0  0  0  0  0  0  0  0  0  0  0  0
  148.9928  132.9711  154.8662 H   0  0  0  0  0  0  0  0  0  0  0  0
  147.3699  133.6172  154.7963 H   0  0  0  0  0  0  0  0  0  0  0  0
  148.9520  133.3922  152.2040 H   0  0  0  0  0  0  0  0  0  0  0  0
  148.2805  131.9340  152.8906 H   0  0  0  0  0  0  0  0  0  0  0  0
  146.1303  131.3083  152.0097 H   0  0  0  0  0  0  0  0  0  0  0  0
  143.9430  131.9855  151.0089 H   0  0  0  0  0  0  0  0  0  0  0  0
  143.4357  134.4176  150.7004 H   0  0  0  0  0  0  0  0  0  0  0  0
  145.1991  136.1287  151.4306 H   0  0  0  0  0  0  0  0  0  0  0  0
  147.1834  135.3657  152.3443 H   0  0  0  0  0  0  0  0  0  0  0  0
  1  2  2  0  0  0  0
  2  3  1  0  0  0  0
  2 13  1  0  0  0  0
  3  4  1  0  0  0  0
  3 22  1  0  0  0  0
  3 23  1  0  0  0  0
  4  5  1  0  0  0  0
  4 24  1  0  0  0  0
  4 25  1  0  0  0  0
  5  6  2  0  0  0  0
  5  7  2  0  0  0  0
  5  8  1  0  0  0  0
  8 12  1  0  0  0  0
  8  9  1  0  0  0  0
  8 26  1  0  0  0  0
  9 10  1  0  0  0  0
  9 27  1  0  0  0  0
  9 28  1  0  0  0  0
 10 11  1  0  0  0  0
 10 29  1  0  0  0  0
 10 30  1  0  0  0  0
 11 12  1  0  0  0  0
 11 31  1  0  0  0  0
 11 32  1  0  0  0  0
 12 33  1  0  0  0  0
 12 34  1  0  0  0  0
 13 14  1  0  0  0  0
 13 35  1  0  0  0  0
 14 15  1  0  0  0  0
 14 36  1  0  0  0  0
 14 37  1  0  0  0  0
 15 16  1  0  0  0  0
 15 38  1  0  0  0  0
 15 39  1  0  0  0  0
 16 21  1  0  0  0  0
 16 17  2  0  0  0  0
 17 18  1  0  0  0  0
 17 40  1  0  0  0  0
 18 19  2  0  0  0  0
 18 41  1  0  0  0  0
 19 20  1  0  0  0  0
 19 42  1  0  0  0  0
 20 21  2  0  0  0  0
 20 43  1  0  0  0  0
 21 44  1  0  0  0  0
M  CHG  1  21   1
M  END
> <s_m_source_file>
AV-unprocessed.smi

> <i_m_source_file_index>
1245

> <i_lp_mmshare_version>
43012

> <i_f3d_flags>
0

> <s_epik_input>
W0NIMl0xW0NIMl1bQ0gyXVtDSDJdW0NIXTFTKD1PKSg9TylbQ0gyXVtDSDJdQyg9TylbTkhdW0NIMl1bQ0gyXWMyW2NIXVtjSF1bY0hdW2NIXW4y

> <s_epik_cmdline>
J2VwaWtfcHl0aG9uJywgJy1waCcsICc3LjAnLCAnLXRuJywgJzgnLCAnLW1hJywgJzIwMCcsICctbWV0YWxfYmluZGluZycsICctaW1hZScsICc8aW5maWxlLm1hZT4nLCAnLW9tYWUnLCAnPG91dGZpbGUubWFlPic=

> <r_epik_Ionization_Penalty>
1.90383

> <r_epik_Ionization_Penalty_Charging>
1.90383

> <r_epik_Ionization_Penalty_Neutral>
6.52612e-08

> <r_epik_State_Penalty>
2.02532

> <r_epik_Charging_Adjusted_Penalty>
3.92915

> <i_epik_Tot_Q>
1

> <i_epik_Tot_abs_Q>
1

> <r_epik_Metal_State_Penalty>
2.0489

> <b_epik_Metal_Only>
0

> <s_lp_Force_Field>
OPLS_2005

> <r_lp_Energy>
22.4311

> <b_lp_Chiralities_Consistent>
1

> <s_lp_Variant>
AV-unprocessed.smi:1245-2

> <Gold.Version>
5.8.1

> <Gold.Id.Protein>
6NUR|6NUR_protein|mol2

> <Gold.PLP.Fitness>
52.4594

> <Gold.PLP.PLP>
-38.3471

> <Gold.PLP.part.hbond>
-4.0000

> <Gold.PLP.part.metal>
0.0000

> <Gold.PLP.part.buried>
-5.3480

> <Gold.PLP.part.nonpolar>
-29.5231

> <Gold.PLP.part.repulsive>
0.1981

> <Gold.PLP.ligand.clash>
0.0000

> <Gold.PLP.ligand.torsion>
0.7066

> <Gold.PLP.Chemscore.Hbond>
5.0000

> <Gold.PLP.Chemscore.CHOScore>
0.0000

> <Gold.PLP.Chemscore.Metal>
0.0000

> <Gold.Chemscore.Hbonds>
donor molecule, donor type, donor heavy atom, donor atom, acceptor molecule, acceptor atom, score
      L1  H    13    35       P1  7948  1.00
      L1  H    21    44       P1  7948  1.70
      P1  H  7989  7998       L1     7  1.00
      P1  H  7997  8008       L1     6  1.00

> <Gold.PLP.Chemscore.Internal.Correction>
0.5256

> <Gold.Rescore>
     Score         DG    S(hbond)    S(metal)    S(lipo)     H(rot)  DE(clash)    DE(int)     intcor
     22.18     -22.92       3.91        0.00      84.41       2.14       0.02       0.72       ----

> <Gold.Chemscore.Fitness>
22.1848

> <Gold.Chemscore.DG>
-22.9189

> <Gold.Chemscore.ZeroCoef>
-5.4800

> <Gold.Chemscore.Hbond>
3.9052

> <Gold.Chemscore.Metal>
0.0000

> <Gold.Chemscore.Lipo>
84.4098

> <Gold.Chemscore.Internal_Hbond>
0.0000

> <Gold.Chemscore.DEClash>
0.0155

> <Gold.Chemscore.DEInternal>
0.7186

> <Gold.Chemscore.Rot>
2.1408

> <Gold.Chemscore.Internal.Correction>
   9.000000E+99

> <Gold.Chemscore.Hbonds>
donor molecule, donor type, donor heavy atom, donor atom, acceptor molecule, acceptor atom, score
      L1  H    13    35       P1  7948  0.78
      L1  H    21    44       P1  7948  0.82
      P1  H  7989  7998       L1     7  0.96
      P1  H  7997  8008       L1     6  0.99

> <Gold.Chemscore.Hbond.Weighted>
-13.0434

> <Gold.Chemscore.Metal.Weighted>
-0.0000

> <Gold.Chemscore.Lipo.Weighted>
-9.8759

> <Gold.Chemscore.Internal_Hbond.Weighted>
0.0000

> <Gold.Chemscore.DEClash.Weighted>
0.0155

> <Gold.Chemscore.DEInternal.Weighted>
0.7186

> <Gold.Chemscore.Rot.Weighted>
5.4805

> <Gold.Chemscore.Internal.Correction.Weighted>
   9.000000E+99

> <Gold.Protein.RotatedTorsions>
[ 6907 6896 6895 6894 ] final -177.71 input  -60.11 | X-H torsion
[ 7974 7965 7964 7962 ] final   -6.15 input  175.53 | X-H torsion
[ 8008 7997 7996 7995 ] final  -19.32 input   59.86 | X-H torsion
[ 10167 10162 10161 10158 ] final  178.68 input  -65.29 | X-H torsion
[ 10718 10713 10712 10709 ] final -179.30 input   66.30 | X-H torsion
[ 10763 10752 10751 10750 ] final  -43.95 input  -60.55 | X-H torsion
[ 11005 11000 10999 10996 ] final  131.81 input  -57.11 | X-H torsion

> <Gold.Protein.ActiveResidues>
 VAL166  LYS551  ARG553  GLY616  TRP617  ASP618  TYR619  PRO620  LYS621  CYS622 
 ASP623  PHE694  ASN695  SER759  ASP760  ASP761  ALA762  ILE779  LEU786  VAL792 
 PHE793  MET794  SER795  GLU796  ALA797  LYS798  CYS799  TRP800  GLU811  SER814 

> <Gold.Protein.RotatedAtoms>
  151.6255  133.3336  159.3097 H   0  0  0  0  0  0  0  0  0  0  0  0  # atno 6907 bound_to 6896
  150.8084  134.7227  159.6676 H   0  0  0  0  0  0  0  0  0  0  0  0  # atno 6908 bound_to 6896
  152.4180  134.6012  160.0052 H   0  0  0  0  0  0  0  0  0  0  0  0  # atno 6909 bound_to 6896
  146.2337  140.2127  142.8335 H   0  0  0  0  0  0  0  0  0  0  0  0  # atno 7974 bound_to 7965
  154.4845  140.2092  155.9687 H   0  0  0  0  0  0  0  0  0  0  0  0  # atno 8008 bound_to 7997
  156.1215  140.3212  155.8184 H   0  0  0  0  0  0  0  0  0  0  0  0  # atno 8009 bound_to 7997
  155.4459  140.0513  157.2996 H   0  0  0  0  0  0  0  0  0  0  0  0  # atno 8010 bound_to 7997
  139.5304  144.2652  152.0674 H   0  0  0  0  0  0  0  0  0  0  0  0  # atno 10167 bound_to 10162
  156.8571  130.9739  151.3087 H   0  0  0  0  0  0  0  0  0  0  0  0  # atno 10718 bound_to 10713
  154.0040  135.6690  153.4761 H   0  0  0  0  0  0  0  0  0  0  0  0  # atno 10763 bound_to 10752
  153.0650  135.5006  154.8175 H   0  0  0  0  0  0  0  0  0  0  0  0  # atno 10764 bound_to 10752
  154.7035  135.3083  154.9268 H   0  0  0  0  0  0  0  0  0  0  0  0  # atno 10765 bound_to 10752
  139.9752  134.9565  156.9492 H   0  0  0  0  0  0  0  0  0  0  0  0  # atno 11005 bound_to 11000
  144.9694  140.8354  143.5464 LP  0  0  0  0  0  0  0  0  0  0  0  0  # atno 17320 bound_to 7965
  145.2106  139.2206  143.5145 LP  0  0  0  0  0  0  0  0  0  0  0  0  # atno 17321 bound_to 7965
  140.2114  144.4559  150.6384 LP  0  0  0  0  0  0  0  0  0  0  0  0  # atno 17342 bound_to 10162
  140.6478  143.2217  151.6147 LP  0  0  0  0  0  0  0  0  0  0  0  0  # atno 17343 bound_to 10162
  157.6271  130.8700  149.9208 LP  0  0  0  0  0  0  0  0  0  0  0  0  # atno 17370 bound_to 10713
  156.0797  130.3674  150.0606 LP  0  0  0  0  0  0  0  0  0  0  0  0  # atno 17371 bound_to 10713
  140.5209  134.0908  155.7292 LP  0  0  0  0  0  0  0  0  0  0  0  0  # atno 17394 bound_to 11000
  141.1430  133.9105  157.2282 LP  0  0  0  0  0  0  0  0  0  0  0  0  # atno 17395 bound_to 11000

$$$$
