AV-unprocessed.smi:3064|AV-procd|sdf|11687|dock1
  -GOLD-   2272017 93D 1   1.00000     0.00000
 Structure written by MMmdl.
 22 23  0  0  0  0  0  0  0  0  2 V2000
  153.7502  142.1685  162.4261 C   0  0  0  0  0  0  0  0  0  0  0  0
  153.0118  143.2543  162.8225 C   0  0  0  0  0  0  0  0  0  0  0  0
  152.1702  143.9858  161.4838 S   0  0  0  0  0  0  0  0  0  0  0  0
  152.8780  142.7782  160.4156 C   0  0  0  0  0  0  0  0  0  0  0  0
  152.5735  142.7112  158.9531 C   0  0  2  0  0  0  0  0  0  0  0  0
  151.5350  143.7632  158.5205 C   0  0  0  0  0  0  0  0  0  0  0  0
  151.2144  143.5943  157.0901 N   0  3  0  0  0  0  0  0  0  0  0  0
  150.7729  142.2170  156.7937 C   0  0  0  0  0  0  0  0  0  0  0  0
  151.8213  141.2047  157.2887 C   0  0  0  0  0  0  0  0  0  0  0  0
  152.0694  141.4060  158.6765 O   0  0  0  0  0  0  0  0  0  0  0  0
  153.6570  141.9015  161.0582 N   0  0  0  0  0  0  0  0  0  0  0  0
  154.3631  141.5310  163.0463 H   0  0  0  0  0  0  0  0  0  0  0  0
  152.9106  143.6645  163.8165 H   0  0  0  0  0  0  0  0  0  0  0  0
  153.5074  142.8588  158.4075 H   0  0  0  0  0  0  0  0  0  0  0  0
  150.6197  143.6584  159.1050 H   0  0  0  0  0  0  0  0  0  0  0  0
  151.9122  144.7720  158.6899 H   0  0  0  0  0  0  0  0  0  0  0  0
  150.4862  144.2443  156.8295 H   0  0  0  0  0  0  0  0  0  0  0  0
  149.8137  142.0358  157.2805 H   0  0  0  0  0  0  0  0  0  0  0  0
  150.6137  142.1115  155.7204 H   0  0  0  0  0  0  0  0  0  0  0  0
  151.4614  140.1867  157.1381 H   0  0  0  0  0  0  0  0  0  0  0  0
  152.7510  141.2996  156.7253 H   0  0  0  0  0  0  0  0  0  0  0  0
  152.0428  143.7927  156.5469 H   0  0  0  0  0  0  0  0  0  0  0  0
  1 11  1  0  0  0  0
  1  2  2  0  0  0  0
  1 12  1  0  0  0  0
  2  3  1  0  0  0  0
  2 13  1  0  0  0  0
  3  4  1  0  0  0  0
  4  5  1  0  0  0  0
  4 11  2  0  0  0  0
  5 10  1  0  0  0  0
  5  6  1  0  0  0  0
  5 14  1  0  0  0  0
  6  7  1  0  0  0  0
  6 15  1  0  0  0  0
  6 16  1  0  0  0  0
  7  8  1  0  0  0  0
  7 17  1  0  0  0  0
  7 22  1  0  0  0  0
  8  9  1  0  0  0  0
  8 18  1  0  0  0  0
  8 19  1  0  0  0  0
  9 10  1  0  0  0  0
  9 20  1  0  0  0  0
  9 21  1  0  0  0  0
M  CHG  1   7   1
M  END
> <s_m_source_file>
AV-unprocessed.smi

> <i_m_source_file_index>
3064

> <i_lp_mmshare_version>
43012

> <i_f3d_flags>
0

> <s_epik_input>
bjFbY0hdW2NIXXNjMVtDQEBIXTJbQ0gyXVtOSF1bQ0gyXVtDSDJdTzI=

> <s_epik_cmdline>
J2VwaWtfcHl0aG9uJywgJy1waCcsICc3LjAnLCAnLXRuJywgJzgnLCAnLW1hJywgJzIwMCcsICctbWV0YWxfYmluZGluZycsICctaW1hZScsICc8aW5maWxlLm1hZT4nLCAnLW9tYWUnLCAnPG91dGZpbGUubWFlPic=

> <r_epik_Ionization_Penalty>
0.125708

> <r_epik_Ionization_Penalty_Charging>
0.125708

> <r_epik_Ionization_Penalty_Neutral>
1.25617e-07

> <r_epik_State_Penalty>
0.115169

> <r_epik_Charging_Adjusted_Penalty>
0.240877

> <i_epik_Tot_Q>
1

> <i_epik_Tot_abs_Q>
1

> <r_epik_Metal_State_Penalty>
0.115249

> <b_epik_Metal_Only>
0

> <s_lp_Force_Field>
OPLS_2005

> <r_lp_Energy>
7.58408

> <b_lp_Chiralities_Consistent>
1

> <s_lp_Variant>
AV-unprocessed.smi:3064-1

> <Gold.Version>
5.8.1

> <Gold.Id.Protein>
6NUR|6NUR_protein|mol2

> <Gold.PLP.Fitness>
35.5932

> <Gold.PLP.PLP>
-29.6760

> <Gold.PLP.part.hbond>
-1.0000

> <Gold.PLP.part.metal>
0.0000

> <Gold.PLP.part.buried>
-3.9747

> <Gold.PLP.part.nonpolar>
-24.2268

> <Gold.PLP.part.repulsive>
0.0100

> <Gold.PLP.ligand.clash>
0.0000

> <Gold.PLP.ligand.torsion>
0.0470

> <Gold.PLP.Chemscore.Hbond>
2.0000

> <Gold.PLP.Chemscore.CHOScore>
0.0000

> <Gold.PLP.Chemscore.Metal>
0.0000

> <Gold.Chemscore.Hbonds>
donor molecule, donor type, donor heavy atom, donor atom, acceptor molecule, acceptor atom, score
      L1  H     7    17       P1  8028  2.00

> <Gold.PLP.Chemscore.Internal.Correction>
0.0112

> <Gold.Rescore>
     Score         DG    S(hbond)    S(metal)    S(lipo)     H(rot)  DE(clash)    DE(int)     intcor
     14.89     -15.00       1.00        0.00      74.86       1.00       0.08       0.03       ----

> <Gold.Chemscore.Fitness>
14.8887

> <Gold.Chemscore.DG>
-15.0019

> <Gold.Chemscore.ZeroCoef>
-5.4800

> <Gold.Chemscore.Hbond>
0.9950

> <Gold.Chemscore.Metal>
0.0000

> <Gold.Chemscore.Lipo>
74.8593

> <Gold.Chemscore.Internal_Hbond>
0.0000

> <Gold.Chemscore.DEClash>
0.0826

> <Gold.Chemscore.DEInternal>
0.0306

> <Gold.Chemscore.Rot>
1.0000

> <Gold.Chemscore.Internal.Correction>
   9.000000E+99

> <Gold.Chemscore.Hbonds>
donor molecule, donor type, donor heavy atom, donor atom, acceptor molecule, acceptor atom, score
      L1  H     7    17       P1  8028  0.89

> <Gold.Chemscore.Hbond.Weighted>
-3.3233

> <Gold.Chemscore.Metal.Weighted>
-0.0000

> <Gold.Chemscore.Lipo.Weighted>
-8.7585

> <Gold.Chemscore.Internal_Hbond.Weighted>
0.0000

> <Gold.Chemscore.DEClash.Weighted>
0.0826

> <Gold.Chemscore.DEInternal.Weighted>
0.0306

> <Gold.Chemscore.Rot.Weighted>
2.5600

> <Gold.Chemscore.Internal.Correction.Weighted>
   9.000000E+99

> <Gold.Protein.RotatedTorsions>
[ 6907 6896 6895 6894 ] final -178.32 input  -60.11 | X-H torsion
[ 7974 7965 7964 7962 ] final   72.53 input  175.53 | X-H torsion
[ 8008 7997 7996 7995 ] final -151.80 input   59.86 | X-H torsion
[ 10167 10162 10161 10158 ] final   15.14 input  -65.29 | X-H torsion
[ 10718 10713 10712 10709 ] final  -73.91 input   66.30 | X-H torsion
[ 10763 10752 10751 10750 ] final -118.48 input  -60.55 | X-H torsion
[ 11005 11000 10999 10996 ] final   44.84 input  -57.11 | X-H torsion

> <Gold.Protein.ActiveResidues>
 VAL166  LYS551  ARG553  GLY616  TRP617  ASP618  TYR619  PRO620  LYS621  CYS622 
 ASP623  PHE694  ASN695  SER759  ASP760  ASP761  ALA762  ILE779  LEU786  VAL792 
 PHE793  MET794  SER795  GLU796  ALA797  LYS798  CYS799  TRP800  GLU811  SER814 

> <Gold.Protein.RotatedAtoms>
  151.6352  133.3329  159.3117 H   0  0  0  0  0  0  0  0  0  0  0  0  # atno 6907 bound_to 6896
  150.8036  134.7150  159.6635 H   0  0  0  0  0  0  0  0  0  0  0  0  # atno 6908 bound_to 6896
  152.4130  134.6096  160.0073 H   0  0  0  0  0  0  0  0  0  0  0  0  # atno 6909 bound_to 6896
  145.7522  139.2764  143.1425 H   0  0  0  0  0  0  0  0  0  0  0  0  # atno 7974 bound_to 7965
  155.6452  140.0706  157.2605 H   0  0  0  0  0  0  0  0  0  0  0  0  # atno 8008 bound_to 7997
  154.4175  140.1743  156.1665 H   0  0  0  0  0  0  0  0  0  0  0  0  # atno 8009 bound_to 7997
  155.9823  140.3352  155.6677 H   0  0  0  0  0  0  0  0  0  0  0  0  # atno 8010 bound_to 7997
  140.5888  143.8837  150.6854 H   0  0  0  0  0  0  0  0  0  0  0  0  # atno 10167 bound_to 10162
  156.0262  130.4405  150.2813 H   0  0  0  0  0  0  0  0  0  0  0  0  # atno 10718 bound_to 10713
  154.8588  135.4272  154.2145 H   0  0  0  0  0  0  0  0  0  0  0  0  # atno 10763 bound_to 10752
  153.3163  135.6979  153.7076 H   0  0  0  0  0  0  0  0  0  0  0  0  # atno 10764 bound_to 10752
  153.6148  135.3512  155.2965 H   0  0  0  0  0  0  0  0  0  0  0  0  # atno 10765 bound_to 10752
  140.1514  134.4456  155.8379 H   0  0  0  0  0  0  0  0  0  0  0  0  # atno 11005 bound_to 11000
  146.0346  140.8225  142.9859 LP  0  0  0  0  0  0  0  0  0  0  0  0  # atno 17320 bound_to 7965
  144.6847  140.2819  143.7291 LP  0  0  0  0  0  0  0  0  0  0  0  0  # atno 17321 bound_to 7965
  140.2355  143.3703  152.1530 LP  0  0  0  0  0  0  0  0  0  0  0  0  # atno 17342 bound_to 10162
  139.5214  144.7045  151.5394 LP  0  0  0  0  0  0  0  0  0  0  0  0  # atno 17343 bound_to 10162
  157.0917  131.0171  151.3119 LP  0  0  0  0  0  0  0  0  0  0  0  0  # atno 17370 bound_to 10713
  157.4849  130.7787  149.7450 LP  0  0  0  0  0  0  0  0  0  0  0  0  # atno 17371 bound_to 10713
  141.2199  133.6874  156.7429 LP  0  0  0  0  0  0  0  0  0  0  0  0  # atno 17394 bound_to 11000
  140.2600  134.8474  157.3749 LP  0  0  0  0  0  0  0  0  0  0  0  0  # atno 17395 bound_to 11000

$$$$
