AV-unprocessed.smi:1816|AV-procd|sdf|7365|dock2
  -GOLD-   22720 9 23D 1   1.00000     0.00000
 Structure written by MMmdl.
 36 37  0  0  0  0  0  0  0  0  2 V2000
  146.8387  141.5298  155.6545 C   0  0  0  0  0  0  0  0  0  0  0  0
  147.4084  141.4820  154.2185 C   0  0  1  0  0  0  0  0  0  0  0  0
  148.9515  141.3643  154.2422 C   0  0  0  0  0  0  0  0  0  0  0  0
  149.5651  142.3840  155.0873 N   0  0  0  0  0  0  0  0  0  0  0  0
  150.4116  142.1337  156.0958 C   0  0  0  0  0  0  0  0  0  0  0  0
  150.7783  141.0002  156.4066 O   0  0  0  0  0  0  0  0  0  0  0  0
  150.7943  143.2697  156.7049 N   0  0  0  0  0  0  0  0  0  0  0  0
  151.6459  143.4169  157.8313 C   0  0  0  0  0  0  0  0  0  0  0  0
  151.9148  142.4412  158.7066 N   0  0  0  0  0  0  0  0  0  0  0  0
  152.7765  142.8687  159.7198 C   0  0  0  0  0  0  0  0  0  0  0  0
  153.1561  144.1823  159.5995 C   0  0  0  0  0  0  0  0  0  0  0  0
  152.4422  144.9394  158.2008 S   0  0  0  0  0  0  0  0  0  0  0  0
  146.7980  140.3644  153.4398 N   0  3  0  0  0  0  0  0  0  0  0  0
  147.4518  140.0634  152.1474 C   0  0  0  0  0  0  0  0  0  0  0  0
  147.0030  138.6522  151.7619 C   0  0  0  0  0  0  0  0  0  0  0  0
  146.5389  137.9996  153.0663 C   0  0  0  0  0  0  0  0  0  0  0  0
  146.7209  139.0676  154.1479 C   0  0  0  0  0  0  0  0  0  0  0  0
  147.2748  142.3411  156.2374 H   0  0  0  0  0  0  0  0  0  0  0  0
  147.0360  140.5994  156.1880 H   0  0  0  0  0  0  0  0  0  0  0  0
  145.7621  141.6983  155.6632 H   0  0  0  0  0  0  0  0  0  0  0  0
  147.1459  142.4175  153.7213 H   0  0  0  0  0  0  0  0  0  0  0  0
  149.2319  140.3657  154.5827 H   0  0  0  0  0  0  0  0  0  0  0  0
  149.3717  141.4873  153.2441 H   0  0  0  0  0  0  0  0  0  0  0  0
  149.3212  143.3450  154.8969 H   0  0  0  0  0  0  0  0  0  0  0  0
  150.4238  144.1299  156.3286 H   0  0  0  0  0  0  0  0  0  0  0  0
  153.0682  142.1704  160.4903 H   0  0  0  0  0  0  0  0  0  0  0  0
  153.8090  144.7486  160.2470 H   0  0  0  0  0  0  0  0  0  0  0  0
  147.1909  140.7914  151.3785 H   0  0  0  0  0  0  0  0  0  0  0  0
  148.5355  140.0789  152.2753 H   0  0  0  0  0  0  0  0  0  0  0  0
  146.1729  138.6989  151.0558 H   0  0  0  0  0  0  0  0  0  0  0  0
  147.8084  138.0926  151.2850 H   0  0  0  0  0  0  0  0  0  0  0  0
  145.4888  137.7156  152.9855 H   0  0  0  0  0  0  0  0  0  0  0  0
  147.1058  137.0972  153.2979 H   0  0  0  0  0  0  0  0  0  0  0  0
  147.6551  138.8883  154.6828 H   0  0  0  0  0  0  0  0  0  0  0  0
  145.9068  139.0465  154.8728 H   0  0  0  0  0  0  0  0  0  0  0  0
  145.8472  140.6288  153.2240 H   0  0  0  0  0  0  0  0  0  0  0  0
  1  2  1  0  0  0  0
  1 18  1  0  0  0  0
  1 19  1  0  0  0  0
  1 20  1  0  0  0  0
  2  3  1  0  0  0  0
  2 13  1  0  0  0  0
  2 21  1  0  0  0  0
  3  4  1  0  0  0  0
  3 22  1  0  0  0  0
  3 23  1  0  0  0  0
  4  5  1  0  0  0  0
  4 24  1  0  0  0  0
  5  6  2  0  0  0  0
  5  7  1  0  0  0  0
  7  8  1  0  0  0  0
  7 25  1  0  0  0  0
  8 12  1  0  0  0  0
  8  9  2  0  0  0  0
  9 10  1  0  0  0  0
 10 11  2  0  0  0  0
 10 26  1  0  0  0  0
 11 12  1  0  0  0  0
 11 27  1  0  0  0  0
 13 17  1  0  0  0  0
 13 14  1  0  0  0  0
 13 36  1  0  0  0  0
 14 15  1  0  0  0  0
 14 28  1  0  0  0  0
 14 29  1  0  0  0  0
 15 16  1  0  0  0  0
 15 30  1  0  0  0  0
 15 31  1  0  0  0  0
 16 17  1  0  0  0  0
 16 32  1  0  0  0  0
 16 33  1  0  0  0  0
 17 34  1  0  0  0  0
 17 35  1  0  0  0  0
M  CHG  1  13   1
M  END
> <s_m_source_file>
AV-unprocessed.smi

> <i_m_source_file_index>
1816

> <i_lp_mmshare_version>
43012

> <i_f3d_flags>
0

> <s_epik_input>
W0NIMl0xW0NIMl1bQ0gyXVtDSDJdTjFbQ0BIXShbQ0gzXSlbQ0gyXVtOSF1DKD1PKVtOSF1jMm5bY0hdW2NIXXMy

> <s_epik_cmdline>
J2VwaWtfcHl0aG9uJywgJy1waCcsICc3LjAnLCAnLXRuJywgJzgnLCAnLW1hJywgJzIwMCcsICctbWV0YWxfYmluZGluZycsICctaW1hZScsICc8aW5maWxlLm1hZT4nLCAnLW9tYWUnLCAnPG91dGZpbGUubWFlPic=

> <r_lp_tautomer_probability>
0.999

> <r_epik_Ionization_Penalty>
0.000988651

> <r_epik_Ionization_Penalty_Charging>
0.000848324

> <r_epik_Ionization_Penalty_Neutral>
0.000140327

> <r_epik_State_Penalty>
0.000546901

> <r_epik_Charging_Adjusted_Penalty>
0.00139523

> <i_epik_Tot_Q>
1

> <i_epik_Tot_abs_Q>
1

> <r_epik_Metal_State_Penalty>
0.0571994

> <b_epik_Metal_Only>
0

> <s_lp_Force_Field>
OPLS_2005

> <r_lp_Energy>
29.703

> <b_lp_Chiralities_Consistent>
1

> <s_lp_Variant>
AV-unprocessed.smi:1816-2

> <Gold.Version>
5.8.1

> <Gold.Id.Protein>
6NUR|6NUR_protein|mol2

> <Gold.PLP.Fitness>
47.6737

> <Gold.PLP.PLP>
-36.2993

> <Gold.PLP.part.hbond>
-3.0000

> <Gold.PLP.part.metal>
0.0000

> <Gold.PLP.part.buried>
0.1546

> <Gold.PLP.part.nonpolar>
-34.2418

> <Gold.PLP.part.repulsive>
0.3136

> <Gold.PLP.ligand.clash>
0.0000

> <Gold.PLP.ligand.torsion>
0.3354

> <Gold.PLP.Chemscore.Hbond>
4.0000

> <Gold.PLP.Chemscore.CHOScore>
0.0000

> <Gold.PLP.Chemscore.Metal>
0.0000

> <Gold.Chemscore.Hbonds>
donor molecule, donor type, donor heavy atom, donor atom, acceptor molecule, acceptor atom, score
      L1  H     4    24       P1  8028  0.85
      L1  H     7    25       P1  8028  0.78
      L1  H    13    36       P1 10175  0.71

> <Gold.PLP.Chemscore.Internal.Correction>
0.0453

> <Gold.Rescore>
     Score         DG    S(hbond)    S(metal)    S(lipo)     H(rot)  DE(clash)    DE(int)     intcor
     18.14     -21.32       2.91        0.00      87.38       1.60       1.74       1.43       ----

> <Gold.Chemscore.Fitness>
18.1423

> <Gold.Chemscore.DG>
-21.3150

> <Gold.Chemscore.ZeroCoef>
-5.4800

> <Gold.Chemscore.Hbond>
2.9088

> <Gold.Chemscore.Metal>
0.0000

> <Gold.Chemscore.Lipo>
87.3764

> <Gold.Chemscore.Internal_Hbond>
0.0000

> <Gold.Chemscore.DEClash>
1.7444

> <Gold.Chemscore.DEInternal>
1.4282

> <Gold.Chemscore.Rot>
1.6029

> <Gold.Chemscore.Internal.Correction>
   9.000000E+99

> <Gold.Chemscore.Hbonds>
donor molecule, donor type, donor heavy atom, donor atom, acceptor molecule, acceptor atom, score
      L1  H     4    24       P1  8028  0.84
      L1  H     7    25       P1  8028  0.78
      L1  H    13    36       P1 10175  0.29

> <Gold.Chemscore.Hbond.Weighted>
-9.7155

> <Gold.Chemscore.Metal.Weighted>
-0.0000

> <Gold.Chemscore.Lipo.Weighted>
-10.2230

> <Gold.Chemscore.Internal_Hbond.Weighted>
0.0000

> <Gold.Chemscore.DEClash.Weighted>
1.7444

> <Gold.Chemscore.DEInternal.Weighted>
1.4282

> <Gold.Chemscore.Rot.Weighted>
4.1035

> <Gold.Chemscore.Internal.Correction.Weighted>
   9.000000E+99

> <Gold.Protein.RotatedTorsions>
[ 6907 6896 6895 6894 ] final   -7.85 input  -60.11 | X-H torsion
[ 7974 7965 7964 7962 ] final   76.18 input  175.53 | X-H torsion
[ 8008 7997 7996 7995 ] final  108.64 input   59.86 | X-H torsion
[ 10167 10162 10161 10158 ] final  -42.62 input  -65.29 | X-H torsion
[ 10718 10713 10712 10709 ] final   13.15 input   66.30 | X-H torsion
[ 10763 10752 10751 10750 ] final   23.79 input  -60.55 | X-H torsion
[ 11005 11000 10999 10996 ] final  -48.70 input  -57.11 | X-H torsion

> <Gold.Protein.ActiveResidues>
 VAL166  LYS551  ARG553  GLY616  TRP617  ASP618  TYR619  PRO620  LYS621  CYS622 
 ASP623  PHE694  ASN695  SER759  ASP760  ASP761  ALA762  ILE779  LEU786  VAL792 
 PHE793  MET794  SER795  GLU796  ALA797  LYS798  CYS799  TRP800  GLU811  SER814 

> <Gold.Protein.RotatedAtoms>
  151.4431  135.1022  159.9675 H   0  0  0  0  0  0  0  0  0  0  0  0  # atno 6907 bound_to 6896
  152.4915  133.8510  159.7212 H   0  0  0  0  0  0  0  0  0  0  0  0  # atno 6908 bound_to 6896
  150.9074  133.6981  159.2890 H   0  0  0  0  0  0  0  0  0  0  0  0  # atno 6909 bound_to 6896
  145.7061  139.2599  143.1677 H   0  0  0  0  0  0  0  0  0  0  0  0  # atno 7974 bound_to 7965
  156.1919  140.3072  155.9349 H   0  0  0  0  0  0  0  0  0  0  0  0  # atno 8008 bound_to 7997
  155.3154  140.0453  157.3054 H   0  0  0  0  0  0  0  0  0  0  0  0  # atno 8009 bound_to 7997
  154.5462  140.2277  155.8568 H   0  0  0  0  0  0  0  0  0  0  0  0  # atno 8010 bound_to 7997
  140.6963  143.3028  151.3234 H   0  0  0  0  0  0  0  0  0  0  0  0  # atno 10167 bound_to 10162
  157.0205  130.6153  149.5720 H   0  0  0  0  0  0  0  0  0  0  0  0  # atno 10718 bound_to 10713
  153.0812  135.6619  154.0042 H   0  0  0  0  0  0  0  0  0  0  0  0  # atno 10763 bound_to 10752
  153.9663  135.2969  155.3431 H   0  0  0  0  0  0  0  0  0  0  0  0  # atno 10764 bound_to 10752
  154.7211  135.5164  153.8885 H   0  0  0  0  0  0  0  0  0  0  0  0  # atno 10765 bound_to 10752
  141.0716  133.6677  156.3479 H   0  0  0  0  0  0  0  0  0  0  0  0  # atno 11005 bound_to 11000
  146.0754  140.7823  142.9667 LP  0  0  0  0  0  0  0  0  0  0  0  0  # atno 17320 bound_to 7965
  144.6955  140.3407  143.7199 LP  0  0  0  0  0  0  0  0  0  0  0  0  # atno 17321 bound_to 7965
  139.6422  144.0518  152.2563 LP  0  0  0  0  0  0  0  0  0  0  0  0  # atno 17342 bound_to 10162
  140.0027  144.6282  150.7716 LP  0  0  0  0  0  0  0  0  0  0  0  0  # atno 17343 bound_to 10162
  156.0104  130.5195  150.7969 LP  0  0  0  0  0  0  0  0  0  0  0  0  # atno 17370 bound_to 10713
  157.5253  131.0934  151.0026 LP  0  0  0  0  0  0  0  0  0  0  0  0  # atno 17371 bound_to 10713
  140.5661  134.5886  157.5446 LP  0  0  0  0  0  0  0  0  0  0  0  0  # atno 17394 bound_to 11000
  139.9529  134.7585  156.0407 LP  0  0  0  0  0  0  0  0  0  0  0  0  # atno 17395 bound_to 11000

$$$$
