AV-unprocessed.smi:1295|AV-procd|sdf|5407|dock6
  -GOLD-   22720 4563D 1   1.00000     0.00000
 Structure written by MMmdl.
 43 44  0  0  0  0  0  0  0  0  1 V2000
  147.6535  141.6937  153.6956 C   0  0  0  0  0  0  0  0  0  0  0  0
  148.4468  141.0945  154.8366 C   0  0  0  0  0  0  0  0  0  0  0  0
  148.8779  142.0279  155.7644 N   0  0  0  0  0  0  0  0  0  0  0  0
  149.6081  141.5740  156.8484 C   0  0  0  0  0  0  0  0  0  0  0  0
  150.0254  142.6580  157.8268 C   0  0  0  0  0  0  0  0  0  0  0  0
  149.8975  140.2565  156.9983 C   0  0  0  0  0  0  0  0  0  0  0  0
  150.6803  139.7127  158.1948 C   0  0  0  0  0  0  0  0  0  0  0  0
  152.0887  140.2837  158.3766 C   0  0  0  0  0  0  0  0  0  0  0  0
  153.0125  139.8819  157.6703 O   0  0  0  0  0  0  0  0  0  0  0  0
  152.2279  141.2274  159.3196 N   0  0  0  0  0  0  0  0  0  0  0  0
  153.4320  142.0041  159.6051 C   0  0  2  0  0  0  0  0  0  0  0  0
  154.3865  141.1979  160.5090 C   0  0  0  0  0  0  0  0  0  0  0  0
  153.8304  141.0270  161.9334 C   0  0  0  0  0  0  0  0  0  0  0  0
  153.4837  142.3854  162.5610 C   0  0  0  0  0  0  0  0  0  0  0  0
  152.5093  143.1783  161.6759 C   0  0  0  0  0  0  0  0  0  0  0  0
  153.0621  143.3646  160.2474 C   0  0  2  0  0  0  0  0  0  0  0  0
  152.0986  144.1913  159.3775 C   0  0  0  0  0  0  0  0  0  0  0  0
  149.4061  139.3047  155.9734 C   0  0  0  0  0  0  0  0  0  0  0  0
  149.6200  138.0966  156.0617 O   0  0  0  0  0  0  0  0  0  0  0  0
  148.6700  139.8168  154.8930 N   0  0  0  0  0  0  0  0  0  0  0  0
  148.6836  143.0163  155.6924 H   0  0  0  0  0  0  0  0  0  0  0  0
  147.4342  140.9425  152.9357 H   0  0  0  0  0  0  0  0  0  0  0  0
  148.2140  142.5011  153.2230 H   0  0  0  0  0  0  0  0  0  0  0  0
  146.7079  142.0947  154.0619 H   0  0  0  0  0  0  0  0  0  0  0  0
  151.1117  142.7057  157.9029 H   0  0  0  0  0  0  0  0  0  0  0  0
  149.6184  142.4544  158.8175 H   0  0  0  0  0  0  0  0  0  0  0  0
  149.6683  143.6404  157.5148 H   0  0  0  0  0  0  0  0  0  0  0  0
  150.7611  138.6305  158.0901 H   0  0  0  0  0  0  0  0  0  0  0  0
  150.1276  139.8610  159.1229 H   0  0  0  0  0  0  0  0  0  0  0  0
  151.4074  141.4703  159.8556 H   0  0  0  0  0  0  0  0  0  0  0  0
  153.9538  142.2119  158.6694 H   0  0  0  0  0  0  0  0  0  0  0  0
  154.5897  140.2214  160.0673 H   0  0  0  0  0  0  0  0  0  0  0  0
  155.3472  141.7114  160.5619 H   0  0  0  0  0  0  0  0  0  0  0  0
  152.9407  140.3965  161.9105 H   0  0  0  0  0  0  0  0  0  0  0  0
  154.5592  140.5065  162.5552 H   0  0  0  0  0  0  0  0  0  0  0  0
  153.0502  142.2372  163.5505 H   0  0  0  0  0  0  0  0  0  0  0  0
  154.3969  142.9635  162.7073 H   0  0  0  0  0  0  0  0  0  0  0  0
  151.5481  142.6631  161.6399 H   0  0  0  0  0  0  0  0  0  0  0  0
  152.3171  144.1511  162.1298 H   0  0  0  0  0  0  0  0  0  0  0  0
  153.9851  143.9406  160.3298 H   0  0  0  0  0  0  0  0  0  0  0  0
  151.1164  143.7228  159.3040 H   0  0  0  0  0  0  0  0  0  0  0  0
  152.4869  144.3102  158.3656 H   0  0  0  0  0  0  0  0  0  0  0  0
  151.9551  145.1885  159.7942 H   0  0  0  0  0  0  0  0  0  0  0  0
  1 22  1  0  0  0  0
  1 23  1  0  0  0  0
  1 24  1  0  0  0  0
  1  2  1  0  0  0  0
  2  3  1  0  0  0  0
  2 20  2  0  0  0  0
  3  4  1  0  0  0  0
  3 21  1  0  0  0  0
  4  6  2  0  0  0  0
  4  5  1  0  0  0  0
  5 25  1  0  0  0  0
  5 26  1  0  0  0  0
  5 27  1  0  0  0  0
  6 18  1  0  0  0  0
  6  7  1  0  0  0  0
  7  8  1  0  0  0  0
  7 28  1  0  0  0  0
  7 29  1  0  0  0  0
  8  9  2  0  0  0  0
  8 10  1  0  0  0  0
 10 11  1  0  0  0  0
 10 30  1  0  0  0  0
 11 16  1  0  0  0  0
 11 12  1  0  0  0  0
 11 31  1  0  0  0  0
 12 13  1  0  0  0  0
 12 32  1  0  0  0  0
 12 33  1  0  0  0  0
 13 14  1  0  0  0  0
 13 34  1  0  0  0  0
 13 35  1  0  0  0  0
 14 15  1  0  0  0  0
 14 36  1  0  0  0  0
 14 37  1  0  0  0  0
 15 16  1  0  0  0  0
 15 38  1  0  0  0  0
 15 39  1  0  0  0  0
 16 17  1  0  0  0  0
 16 40  1  0  0  0  0
 17 41  1  0  0  0  0
 17 42  1  0  0  0  0
 17 43  1  0  0  0  0
 18 19  2  0  0  0  0
 18 20  1  0  0  0  0
M  END
> <s_m_source_file>
AV-unprocessed.smi

> <i_m_source_file_index>
1295

> <i_lp_mmshare_version>
43012

> <i_f3d_flags>
0

> <s_epik_input>
W0NIM11jMW5jKFtDSDNdKWMoYyg9TylbbkhdMSlbQ0gyXUMoPU8pW05IXVtDQEBIXTJbQ0gyXVtDSDJdW0NIMl1bQ0gyXVtDQEhdMltDSDNd

> <s_epik_cmdline>
J2VwaWtfcHl0aG9uJywgJy1waCcsICc3LjAnLCAnLXRuJywgJzgnLCAnLW1hJywgJzIwMCcsICctbWV0YWxfYmluZGluZycsICctaW1hZScsICc8aW5maWxlLm1hZT4nLCAnLW9tYWUnLCAnPG91dGZpbGUubWFlPic=

> <r_lp_tautomer_probability>
0.156392

> <r_epik_Ionization_Penalty>
0.0136057

> <r_epik_Ionization_Penalty_Charging>
0.0134742

> <r_epik_Ionization_Penalty_Neutral>
0.000131572

> <r_epik_State_Penalty>
1.15342

> <r_epik_Charging_Adjusted_Penalty>
1.16689

> <i_epik_Tot_Q>
0

> <i_epik_Tot_abs_Q>
0

> <r_epik_Metal_State_Penalty>
1.31351

> <b_epik_Metal_Only>
0

> <s_lp_Force_Field>
OPLS_2005

> <r_lp_Energy>
13.3466

> <b_lp_Chiralities_Consistent>
1

> <s_lp_Variant>
AV-unprocessed.smi:1295-7

> <Gold.Version>
5.8.1

> <Gold.Id.Protein>
6NUR|6NUR_protein|mol2

> <Gold.PLP.Fitness>
44.4483

> <Gold.PLP.PLP>
-39.6408

> <Gold.PLP.part.hbond>
-2.0000

> <Gold.PLP.part.metal>
0.0000

> <Gold.PLP.part.buried>
-4.0827

> <Gold.PLP.part.nonpolar>
-32.5766

> <Gold.PLP.part.repulsive>
0.2631

> <Gold.PLP.ligand.clash>
0.0000

> <Gold.PLP.ligand.torsion>
0.5886

> <Gold.PLP.Chemscore.Hbond>
1.9920

> <Gold.PLP.Chemscore.CHOScore>
0.0000

> <Gold.PLP.Chemscore.Metal>
0.0000

> <Gold.Chemscore.Hbonds>
donor molecule, donor type, donor heavy atom, donor atom, acceptor molecule, acceptor atom, score
      L1  H     3    21       P1  8028  1.00
      P1  H  7997  8009       L1     9  1.00

> <Gold.PLP.Chemscore.Internal.Correction>
0.0087

> <Gold.Rescore>
     Score         DG    S(hbond)    S(metal)    S(lipo)     H(rot)  DE(clash)    DE(int)     intcor
     20.13     -20.59       1.98        0.00     104.97       1.48       0.04       0.43       ----

> <Gold.Chemscore.Fitness>
20.1331

> <Gold.Chemscore.DG>
-20.5945

> <Gold.Chemscore.ZeroCoef>
-5.4800

> <Gold.Chemscore.Hbond>
1.9827

> <Gold.Chemscore.Metal>
0.0000

> <Gold.Chemscore.Lipo>
104.9680

> <Gold.Chemscore.Internal_Hbond>
0.0000

> <Gold.Chemscore.DEClash>
0.0354

> <Gold.Chemscore.DEInternal>
0.4260

> <Gold.Chemscore.Rot>
1.4801

> <Gold.Chemscore.Internal.Correction>
   9.000000E+99

> <Gold.Chemscore.Hbonds>
donor molecule, donor type, donor heavy atom, donor atom, acceptor molecule, acceptor atom, score
      L1  H     3    21       P1  8028  1.00
      P1  H  7997  8009       L1     9  0.97

> <Gold.Chemscore.Hbond.Weighted>
-6.6223

> <Gold.Chemscore.Metal.Weighted>
-0.0000

> <Gold.Chemscore.Lipo.Weighted>
-12.2813

> <Gold.Chemscore.Internal_Hbond.Weighted>
0.0000

> <Gold.Chemscore.DEClash.Weighted>
0.0354

> <Gold.Chemscore.DEInternal.Weighted>
0.4260

> <Gold.Chemscore.Rot.Weighted>
3.7891

> <Gold.Chemscore.Internal.Correction.Weighted>
   9.000000E+99

> <Gold.Protein.RotatedTorsions>
[ 6907 6896 6895 6894 ] final  -72.51 input  -60.11 | X-H torsion
[ 7974 7965 7964 7962 ] final  -96.64 input  175.53 | X-H torsion
[ 8008 7997 7996 7995 ] final  178.99 input   59.86 | X-H torsion
[ 10167 10162 10161 10158 ] final   43.95 input  -65.29 | X-H torsion
[ 10718 10713 10712 10709 ] final  122.94 input   66.30 | X-H torsion
[ 10763 10752 10751 10750 ] final  -30.49 input  -60.55 | X-H torsion
[ 11005 11000 10999 10996 ] final  -16.83 input  -57.11 | X-H torsion

> <Gold.Protein.ActiveResidues>
 VAL166  LYS551  ARG553  GLY616  TRP617  ASP618  TYR619  PRO620  LYS621  CYS622 
 ASP623  PHE694  ASN695  SER759  ASP760  ASP761  ALA762  ILE779  LEU786  VAL792 
 PHE793  MET794  SER795  GLU796  ALA797  LYS798  CYS799  TRP800  GLU811  SER814 

> <Gold.Protein.RotatedAtoms>
  150.7167  134.5152  159.5626 H   0  0  0  0  0  0  0  0  0  0  0  0  # atno 6907 bound_to 6896
  152.2719  134.7920  160.0421 H   0  0  0  0  0  0  0  0  0  0  0  0  # atno 6908 bound_to 6896
  151.8597  133.3419  159.3736 H   0  0  0  0  0  0  0  0  0  0  0  0  # atno 6909 bound_to 6896
  145.3442  140.9465  143.2591 H   0  0  0  0  0  0  0  0  0  0  0  0  # atno 7974 bound_to 7965
  156.0485  140.1320  157.0077 H   0  0  0  0  0  0  0  0  0  0  0  0  # atno 8008 bound_to 7997
  154.4423  140.1016  156.6411 H   0  0  0  0  0  0  0  0  0  0  0  0  # atno 8009 bound_to 7997
  155.5560  140.3464  155.4482 H   0  0  0  0  0  0  0  0  0  0  0  0  # atno 8010 bound_to 7997
  140.3392  144.2491  150.6158 H   0  0  0  0  0  0  0  0  0  0  0  0  # atno 10167 bound_to 10162
  157.5703  131.1083  150.8379 H   0  0  0  0  0  0  0  0  0  0  0  0  # atno 10718 bound_to 10713
  153.7818  135.6904  153.4887 H   0  0  0  0  0  0  0  0  0  0  0  0  # atno 10763 bound_to 10752
  153.1806  135.4508  155.0022 H   0  0  0  0  0  0  0  0  0  0  0  0  # atno 10764 bound_to 10752
  154.8079  135.3364  154.7320 H   0  0  0  0  0  0  0  0  0  0  0  0  # atno 10765 bound_to 10752
  140.8107  133.8143  155.9561 H   0  0  0  0  0  0  0  0  0  0  0  0  # atno 11005 bound_to 11000
  144.8767  139.4961  143.6742 LP  0  0  0  0  0  0  0  0  0  0  0  0  # atno 17320 bound_to 7965
  146.2995  139.7382  142.9102 LP  0  0  0  0  0  0  0  0  0  0  0  0  # atno 17321 bound_to 7965
  140.5324  143.2240  151.8216 LP  0  0  0  0  0  0  0  0  0  0  0  0  # atno 17342 bound_to 10162
  139.4843  144.4703  151.9433 LP  0  0  0  0  0  0  0  0  0  0  0  0  # atno 17343 bound_to 10162
  156.8852  130.5193  149.5289 LP  0  0  0  0  0  0  0  0  0  0  0  0  # atno 17370 bound_to 10713
  156.0749  130.5773  150.9454 LP  0  0  0  0  0  0  0  0  0  0  0  0  # atno 17371 bound_to 10713
  140.9200  134.2153  157.4932 LP  0  0  0  0  0  0  0  0  0  0  0  0  # atno 17394 bound_to 11000
  139.8714  134.9788  156.5012 LP  0  0  0  0  0  0  0  0  0  0  0  0  # atno 17395 bound_to 11000

$$$$
