AV-unprocessed.smi:3147|AV-procd|sdf|11989|dock3
  -GOLD-   2272017393D 1   1.00000     0.00000
 Structure written by MMmdl.
 36 37  0  0  0  0  0  0  0  0  1 V2000
  152.9204  142.6695  162.7323 C   0  0  0  0  0  0  0  0  0  0  0  0
  152.4206  143.1218  161.3955 C   0  0  0  0  0  0  0  0  0  0  0  0
  151.5359  144.1911  161.2769 N   0  0  0  0  0  0  0  0  0  0  0  0
  151.3341  144.2910  159.9704 C   0  0  0  0  0  0  0  0  0  0  0  0
  151.9986  143.3899  159.2333 N   0  0  0  0  0  0  0  0  0  0  0  0
  151.9659  143.2624  157.7838 C   0  0  0  0  0  0  0  0  0  0  0  0
  151.1957  142.0241  157.3090 C   0  0  0  0  0  0  0  0  0  0  0  0
  151.4984  140.8960  157.7006 O   0  0  0  0  0  0  0  0  0  0  0  0
  150.1867  142.2601  156.4572 N   0  0  0  0  0  0  0  0  0  0  0  0
  149.2894  141.2468  155.9100 C   0  0  0  0  0  0  0  0  0  0  0  0
  150.0148  140.2474  154.9880 C   0  0  2  0  0  0  0  0  0  0  0  0
  149.7057  138.7678  155.2348 C   0  0  0  0  0  0  0  0  0  0  0  0
  150.9419  138.1051  154.6709 C   0  0  0  0  0  0  0  0  0  0  0  0
  152.0349  139.0775  155.1026 C   0  0  0  0  0  0  0  0  0  0  0  0
  151.4317  140.3684  155.0956 O   0  0  0  0  0  0  0  0  0  0  0  0
  152.7157  142.6183  160.1463 C   0  0  0  0  0  0  0  0  0  0  0  0
  153.6114  141.4908  159.7466 C   0  0  0  0  0  0  0  0  0  0  0  0
  152.6976  141.6153  162.8980 H   0  0  0  0  0  0  0  0  0  0  0  0
  152.4629  143.2343  163.5449 H   0  0  0  0  0  0  0  0  0  0  0  0
  154.0003  142.7961  162.8096 H   0  0  0  0  0  0  0  0  0  0  0  0
  150.6854  145.0390  159.5384 H   0  0  0  0  0  0  0  0  0  0  0  0
  151.5154  144.1620  157.3631 H   0  0  0  0  0  0  0  0  0  0  0  0
  152.9895  143.2130  157.4103 H   0  0  0  0  0  0  0  0  0  0  0  0
  150.0117  143.2163  156.1845 H   0  0  0  0  0  0  0  0  0  0  0  0
  148.8473  140.7086  156.7487 H   0  0  0  0  0  0  0  0  0  0  0  0
  148.4588  141.7144  155.3787 H   0  0  0  0  0  0  0  0  0  0  0  0
  149.7628  140.4807  153.9524 H   0  0  0  0  0  0  0  0  0  0  0  0
  149.6275  138.5452  156.2995 H   0  0  0  0  0  0  0  0  0  0  0  0
  148.7857  138.4401  154.7501 H   0  0  0  0  0  0  0  0  0  0  0  0
  151.0979  137.0935  155.0465 H   0  0  0  0  0  0  0  0  0  0  0  0
  150.8824  138.0628  153.5826 H   0  0  0  0  0  0  0  0  0  0  0  0
  152.3588  138.8529  156.1191 H   0  0  0  0  0  0  0  0  0  0  0  0
  152.9091  139.0414  154.4525 H   0  0  0  0  0  0  0  0  0  0  0  0
  154.0274  140.9889  160.6202 H   0  0  0  0  0  0  0  0  0  0  0  0
  154.4434  141.8558  159.1445 H   0  0  0  0  0  0  0  0  0  0  0  0
  153.0681  140.7485  159.1621 H   0  0  0  0  0  0  0  0  0  0  0  0
  1  2  1  0  0  0  0
  1 18  1  0  0  0  0
  1 19  1  0  0  0  0
  1 20  1  0  0  0  0
  2 16  2  0  0  0  0
  2  3  1  0  0  0  0
  3  4  2  0  0  0  0
  4  5  1  0  0  0  0
  4 21  1  0  0  0  0
  5  6  1  0  0  0  0
  5 16  1  0  0  0  0
  6  7  1  0  0  0  0
  6 22  1  0  0  0  0
  6 23  1  0  0  0  0
  7  8  2  0  0  0  0
  7  9  1  0  0  0  0
  9 10  1  0  0  0  0
  9 24  1  0  0  0  0
 10 11  1  0  0  0  0
 10 25  1  0  0  0  0
 10 26  1  0  0  0  0
 11 15  1  0  0  0  0
 11 12  1  0  0  0  0
 11 27  1  0  0  0  0
 12 13  1  0  0  0  0
 12 28  1  0  0  0  0
 12 29  1  0  0  0  0
 13 14  1  0  0  0  0
 13 30  1  0  0  0  0
 13 31  1  0  0  0  0
 14 15  1  0  0  0  0
 14 32  1  0  0  0  0
 14 33  1  0  0  0  0
 16 17  1  0  0  0  0
 17 34  1  0  0  0  0
 17 35  1  0  0  0  0
 17 36  1  0  0  0  0
M  END
> <s_m_source_file>
AV-unprocessed.smi

> <i_m_source_file_index>
3147

> <i_lp_mmshare_version>
43012

> <i_f3d_flags>
0

> <s_epik_input>
W0NIM11jMW5bY0hdbihjMVtDSDNdKVtDSDJdQyg9TylbTkhdW0NIMl1bQ0BASF0yW0NIMl1bQ0gyXVtDSDJdTzI=

> <s_epik_cmdline>
J2VwaWtfcHl0aG9uJywgJy1waCcsICc3LjAnLCAnLXRuJywgJzgnLCAnLW1hJywgJzIwMCcsICctbWV0YWxfYmluZGluZycsICctaW1hZScsICc8aW5maWxlLm1hZT4nLCAnLW9tYWUnLCAnPG91dGZpbGUubWFlPic=

> <r_lp_tautomer_probability>
1

> <r_epik_Ionization_Penalty>
0.957393

> <r_epik_Ionization_Penalty_Charging>
0.957393

> <r_epik_Ionization_Penalty_Neutral>
1.43432e-07

> <r_epik_State_Penalty>
1.0022

> <r_epik_Charging_Adjusted_Penalty>
1.9596

> <i_epik_Tot_Q>
0

> <i_epik_Tot_abs_Q>
0

> <r_epik_Metal_State_Penalty>
0.374967

> <b_epik_Metal_Only>
0

> <s_lp_Force_Field>
OPLS_2005

> <r_lp_Energy>
19.2408

> <b_lp_Chiralities_Consistent>
1

> <s_lp_Variant>
AV-unprocessed.smi:3147-3

> <Gold.Version>
5.8.1

> <Gold.Id.Protein>
6NUR|6NUR_protein|mol2

> <Gold.PLP.Fitness>
45.7782

> <Gold.PLP.PLP>
-41.4546

> <Gold.PLP.part.hbond>
-2.0000

> <Gold.PLP.part.metal>
0.0000

> <Gold.PLP.part.buried>
-5.7447

> <Gold.PLP.part.nonpolar>
-34.4448

> <Gold.PLP.part.repulsive>
0.2822

> <Gold.PLP.ligand.clash>
0.0000

> <Gold.PLP.ligand.torsion>
0.8350

> <Gold.PLP.Chemscore.Hbond>
1.9920

> <Gold.PLP.Chemscore.CHOScore>
0.0000

> <Gold.PLP.Chemscore.Metal>
0.0000

> <Gold.Chemscore.Hbonds>
donor molecule, donor type, donor heavy atom, donor atom, acceptor molecule, acceptor atom, score
      L1  H     9    24       P1  8028  1.00
      P1  H  7989  7998       L1    15  0.73

> <Gold.PLP.Chemscore.Internal.Correction>
0.0176

> <Gold.Rescore>
     Score         DG    S(hbond)    S(metal)    S(lipo)     H(rot)  DE(clash)    DE(int)     intcor
     11.55     -15.50       1.18        0.00      89.22       1.70       0.25       3.70       ----

> <Gold.Chemscore.Fitness>
11.5458

> <Gold.Chemscore.DG>
-15.4985

> <Gold.Chemscore.ZeroCoef>
-5.4800

> <Gold.Chemscore.Hbond>
1.1799

> <Gold.Chemscore.Metal>
0.0000

> <Gold.Chemscore.Lipo>
89.2156

> <Gold.Chemscore.Internal_Hbond>
0.0000

> <Gold.Chemscore.DEClash>
0.2507

> <Gold.Chemscore.DEInternal>
3.7019

> <Gold.Chemscore.Rot>
1.7034

> <Gold.Chemscore.Internal.Correction>
   9.000000E+99

> <Gold.Chemscore.Hbonds>
donor molecule, donor type, donor heavy atom, donor atom, acceptor molecule, acceptor atom, score
      L1  H     9    24       P1  8028  0.97
      P1  H  7989  7998       L1    15  0.03

> <Gold.Chemscore.Hbond.Weighted>
-3.9410

> <Gold.Chemscore.Metal.Weighted>
-0.0000

> <Gold.Chemscore.Lipo.Weighted>
-10.4382

> <Gold.Chemscore.Internal_Hbond.Weighted>
0.0000

> <Gold.Chemscore.DEClash.Weighted>
0.2507

> <Gold.Chemscore.DEInternal.Weighted>
3.7019

> <Gold.Chemscore.Rot.Weighted>
4.3607

> <Gold.Chemscore.Internal.Correction.Weighted>
   9.000000E+99

> <Gold.Protein.RotatedTorsions>
[ 6907 6896 6895 6894 ] final   -6.22 input  -60.11 | X-H torsion
[ 7974 7965 7964 7962 ] final   69.12 input  175.53 | X-H torsion
[ 8008 7997 7996 7995 ] final  -77.22 input   59.86 | X-H torsion
[ 10167 10162 10161 10158 ] final -177.91 input  -65.29 | X-H torsion
[ 10718 10713 10712 10709 ] final   32.99 input   66.30 | X-H torsion
[ 10763 10752 10751 10750 ] final  110.77 input  -60.55 | X-H torsion
[ 11005 11000 10999 10996 ] final   30.33 input  -57.11 | X-H torsion

> <Gold.Protein.ActiveResidues>
 VAL166  LYS551  ARG553  GLY616  TRP617  ASP618  TYR619  PRO620  LYS621  CYS622 
 ASP623  PHE694  ASN695  SER759  ASP760  ASP761  ALA762  ILE779  LEU786  VAL792 
 PHE793  MET794  SER795  GLU796  ALA797  LYS798  CYS799  TRP800  GLU811  SER814 

> <Gold.Protein.RotatedAtoms>
  151.4690  135.1044  159.9745 H   0  0  0  0  0  0  0  0  0  0  0  0  # atno 6907 bound_to 6896
  152.4824  133.8282  159.7100 H   0  0  0  0  0  0  0  0  0  0  0  0  # atno 6908 bound_to 6896
  150.8905  133.7188  159.2933 H   0  0  0  0  0  0  0  0  0  0  0  0  # atno 6909 bound_to 6896
  145.7943  139.2949  143.1192 H   0  0  0  0  0  0  0  0  0  0  0  0  # atno 7974 bound_to 7965
  154.5576  140.0714  156.8768 H   0  0  0  0  0  0  0  0  0  0  0  0  # atno 8008 bound_to 7997
  155.2873  140.3375  155.4236 H   0  0  0  0  0  0  0  0  0  0  0  0  # atno 8009 bound_to 7997
  156.2015  140.1723  156.7875 H   0  0  0  0  0  0  0  0  0  0  0  0  # atno 8010 bound_to 7997
  139.5457  144.2241  152.0984 H   0  0  0  0  0  0  0  0  0  0  0  0  # atno 10167 bound_to 10162
  157.2922  130.7308  149.6617 H   0  0  0  0  0  0  0  0  0  0  0  0  # atno 10718 bound_to 10713
  153.4538  135.3738  155.2299 H   0  0  0  0  0  0  0  0  0  0  0  0  # atno 10763 bound_to 10752
  154.8756  135.3892  154.4007 H   0  0  0  0  0  0  0  0  0  0  0  0  # atno 10764 bound_to 10752
  153.4570  135.7086  153.6138 H   0  0  0  0  0  0  0  0  0  0  0  0  # atno 10765 bound_to 10752
  140.2955  134.2816  155.7766 H   0  0  0  0  0  0  0  0  0  0  0  0  # atno 11005 bound_to 11000
  145.9944  140.8574  143.0050 LP  0  0  0  0  0  0  0  0  0  0  0  0  # atno 17320 bound_to 7965
  144.6777  140.2262  143.7360 LP  0  0  0  0  0  0  0  0  0  0  0  0  # atno 17321 bound_to 7965
  140.1727  144.4920  150.6571 LP  0  0  0  0  0  0  0  0  0  0  0  0  # atno 17342 bound_to 10162
  140.6705  143.2284  151.5637 LP  0  0  0  0  0  0  0  0  0  0  0  0  # atno 17343 bound_to 10162
  155.9667  130.4305  150.4881 LP  0  0  0  0  0  0  0  0  0  0  0  0  # atno 17370 bound_to 10713
  157.2845  131.0614  151.2175 LP  0  0  0  0  0  0  0  0  0  0  0  0  # atno 17371 bound_to 10713
  141.2138  133.7612  156.9689 LP  0  0  0  0  0  0  0  0  0  0  0  0  # atno 17394 bound_to 11000
  140.1156  134.9449  157.2130 LP  0  0  0  0  0  0  0  0  0  0  0  0  # atno 17395 bound_to 11000

$$$$
