AV-unprocessed.smi:680|AV-procd|sdf|3324|dock1
  -GOLD-   22720 0293D 1   1.00000     0.00000
 Structure written by MMmdl.
 32 33  0  0  0  0  0  0  0  0  1 V2000
  150.7966  142.0662  156.5104 C   0  0  0  0  0  0  0  0  0  0  0  0
  150.4947  140.9332  155.5746 C   0  0  0  0  0  0  0  0  0  0  0  0
  149.2341  140.5338  155.0499 C   0  0  0  0  0  0  0  0  0  0  0  0
  149.5586  139.4581  154.2670 C   0  0  0  0  0  0  0  0  0  0  0  0
  148.7343  138.6740  153.5244 N   0  0  0  0  0  0  0  0  0  0  0  0
  147.4091  138.7909  153.3266 C   0  0  0  0  0  0  0  0  0  0  0  0
  146.6895  139.6658  153.8086 O   0  0  0  0  0  0  0  0  0  0  0  0
  146.9562  137.8215  152.5180 N   0  0  0  0  0  0  0  0  0  0  0  0
  145.5739  137.6606  152.0733 C   0  0  0  0  0  0  0  0  0  0  0  0
  145.0921  136.2047  152.2230 C   0  0  1  0  0  0  0  0  0  0  0  0
  143.5605  136.1160  152.0945 C   0  0  0  0  0  0  0  0  0  0  0  0
  142.9169  134.5021  152.6198 S   0  0  0  0  0  0  0  0  0  0  0  0
  143.7373  133.4300  151.4092 C   0  0  0  0  0  0  0  0  0  0  0  0
  145.2646  133.5083  151.5201 C   0  0  0  0  0  0  0  0  0  0  0  0
  145.8991  135.1255  150.9976 S   0  0  0  0  0  0  0  0  0  0  0  0
  150.8901  139.2087  154.3027 O   0  0  0  0  0  0  0  0  0  0  0  0
  151.4806  140.1611  155.1417 N   0  0  0  0  0  0  0  0  0  0  0  0
  149.8892  142.6084  156.7769 H   0  0  0  0  0  0  0  0  0  0  0  0
  151.4873  142.7777  156.0571 H   0  0  0  0  0  0  0  0  0  0  0  0
  151.2484  141.7030  157.4337 H   0  0  0  0  0  0  0  0  0  0  0  0
  148.2661  140.9752  155.2321 H   0  0  0  0  0  0  0  0  0  0  0  0
  149.1872  137.9078  153.0486 H   0  0  0  0  0  0  0  0  0  0  0  0
  147.6224  137.1473  152.1701 H   0  0  0  0  0  0  0  0  0  0  0  0
  144.9610  138.3168  152.6917 H   0  0  0  0  0  0  0  0  0  0  0  0
  145.4357  137.9986  151.0448 H   0  0  0  0  0  0  0  0  0  0  0  0
  145.3773  135.8526  153.2154 H   0  0  0  0  0  0  0  0  0  0  0  0
  143.0878  136.8709  152.7233 H   0  0  0  0  0  0  0  0  0  0  0  0
  143.2452  136.3176  151.0701 H   0  0  0  0  0  0  0  0  0  0  0  0
  143.4074  132.4063  151.5865 H   0  0  0  0  0  0  0  0  0  0  0  0
  143.4098  133.6998  150.4047 H   0  0  0  0  0  0  0  0  0  0  0  0
  145.5890  133.3029  152.5407 H   0  0  0  0  0  0  0  0  0  0  0  0
  145.7179  132.7478  150.8842 H   0  0  0  0  0  0  0  0  0  0  0  0
  1  2  1  0  0  0  0
  1 18  1  0  0  0  0
  1 19  1  0  0  0  0
  1 20  1  0  0  0  0
  2 17  2  0  0  0  0
  2  3  1  0  0  0  0
  3  4  2  0  0  0  0
  3 21  1  0  0  0  0
  4  5  1  0  0  0  0
  4 16  1  0  0  0  0
  5  6  1  0  0  0  0
  5 22  1  0  0  0  0
  6  7  2  0  0  0  0
  6  8  1  0  0  0  0
  8  9  1  0  0  0  0
  8 23  1  0  0  0  0
  9 10  1  0  0  0  0
  9 24  1  0  0  0  0
  9 25  1  0  0  0  0
 10 15  1  0  0  0  0
 10 11  1  0  0  0  0
 10 26  1  0  0  0  0
 11 12  1  0  0  0  0
 11 27  1  0  0  0  0
 11 28  1  0  0  0  0
 12 13  1  0  0  0  0
 13 14  1  0  0  0  0
 13 29  1  0  0  0  0
 13 30  1  0  0  0  0
 14 15  1  0  0  0  0
 14 31  1  0  0  0  0
 14 32  1  0  0  0  0
 16 17  1  0  0  0  0
M  END
> <s_m_source_file>
AV-unprocessed.smi

> <i_m_source_file_index>
680

> <i_lp_mmshare_version>
43012

> <i_f3d_flags>
0

> <s_epik_input>
W0NIM11jMVtjSF1jKG9uMSlbTkhdQyg9TylbTkhdW0NIMl1bQ0BASF0yW0NIMl1TW0NIMl1bQ0gyXVMy

> <s_epik_cmdline>
J2VwaWtfcHl0aG9uJywgJy1waCcsICc3LjAnLCAnLXRuJywgJzgnLCAnLW1hJywgJzIwMCcsICctbWV0YWxfYmluZGluZycsICctaW1hZScsICc8aW5maWxlLm1hZT4nLCAnLW9tYWUnLCAnPG91dGZpbGUubWFlPic=

> <r_epik_Ionization_Penalty>
0.000554698

> <r_epik_Ionization_Penalty_Charging>
0

> <r_epik_Ionization_Penalty_Neutral>
0.000554698

> <r_epik_State_Penalty>
0.000333438

> <r_epik_Charging_Adjusted_Penalty>
0.000333438

> <i_epik_Tot_Q>
0

> <i_epik_Tot_abs_Q>
0

> <r_epik_Metal_State_Penalty>
-0

> <b_epik_Metal_Only>
0

> <s_lp_Force_Field>
OPLS_2005

> <r_lp_Energy>
4.32293

> <b_lp_Chiralities_Consistent>
1

> <s_lp_Variant>
AV-unprocessed.smi:680-2

> <Gold.Version>
5.8.1

> <Gold.Id.Protein>
6NUR|6NUR_protein|mol2

> <Gold.PLP.Fitness>
36.0936

> <Gold.PLP.PLP>
-30.5507

> <Gold.PLP.part.hbond>
-5.0000

> <Gold.PLP.part.metal>
0.0000

> <Gold.PLP.part.buried>
-3.2349

> <Gold.PLP.part.nonpolar>
-23.8204

> <Gold.PLP.part.repulsive>
0.4625

> <Gold.PLP.ligand.clash>
0.0000

> <Gold.PLP.ligand.torsion>
0.1578

> <Gold.PLP.Chemscore.Hbond>
1.9516

> <Gold.PLP.Chemscore.CHOScore>
0.0000

> <Gold.PLP.Chemscore.Metal>
0.0000

> <Gold.Chemscore.Hbonds>
donor molecule, donor type, donor heavy atom, donor atom, acceptor molecule, acceptor atom, score
      L1  H     5    22       P1  7948  0.95
      L1  H     8    23       P1  7948  1.00

> <Gold.PLP.Chemscore.Internal.Correction>
0.0036

> <Gold.Rescore>
     Score         DG    S(hbond)    S(metal)    S(lipo)     H(rot)  DE(clash)    DE(int)     intcor
     13.93     -15.35       1.93        0.00      56.84       1.26       0.12       1.30       ----

> <Gold.Chemscore.Fitness>
13.9267

> <Gold.Chemscore.DG>
-15.3490

> <Gold.Chemscore.ZeroCoef>
-5.4800

> <Gold.Chemscore.Hbond>
1.9288

> <Gold.Chemscore.Metal>
0.0000

> <Gold.Chemscore.Lipo>
56.8367

> <Gold.Chemscore.Internal_Hbond>
0.0000

> <Gold.Chemscore.DEClash>
0.1243

> <Gold.Chemscore.DEInternal>
1.2980

> <Gold.Chemscore.Rot>
1.2590

> <Gold.Chemscore.Internal.Correction>
   9.000000E+99

> <Gold.Chemscore.Hbonds>
donor molecule, donor type, donor heavy atom, donor atom, acceptor molecule, acceptor atom, score
      L1  H     5    22       P1  7948  0.84
      L1  H     8    23       P1  7948  0.99

> <Gold.Chemscore.Hbond.Weighted>
-6.4423

> <Gold.Chemscore.Metal.Weighted>
-0.0000

> <Gold.Chemscore.Lipo.Weighted>
-6.6499

> <Gold.Chemscore.Internal_Hbond.Weighted>
0.0000

> <Gold.Chemscore.DEClash.Weighted>
0.1243

> <Gold.Chemscore.DEInternal.Weighted>
1.2980

> <Gold.Chemscore.Rot.Weighted>
3.2232

> <Gold.Chemscore.Internal.Correction.Weighted>
   9.000000E+99

> <Gold.Protein.RotatedTorsions>
[ 6907 6896 6895 6894 ] final  133.42 input  -60.11 | X-H torsion
[ 7974 7965 7964 7962 ] final  -95.00 input  175.53 | X-H torsion
[ 8008 7997 7996 7995 ] final -107.27 input   59.86 | X-H torsion
[ 10167 10162 10161 10158 ] final  -60.68 input  -65.29 | X-H torsion
[ 10718 10713 10712 10709 ] final -162.39 input   66.30 | X-H torsion
[ 10763 10752 10751 10750 ] final  -55.47 input  -60.55 | X-H torsion
[ 11005 11000 10999 10996 ] final  -14.41 input  -57.11 | X-H torsion

> <Gold.Protein.ActiveResidues>
 VAL166  LYS551  ARG553  GLY616  TRP617  ASP618  TYR619  PRO620  LYS621  CYS622 
 ASP623  PHE694  ASN695  SER759  ASP760  ASP761  ALA762  ILE779  LEU786  VAL792 
 PHE793  MET794  SER795  GLU796  ALA797  LYS798  CYS799  TRP800  GLU811  SER814 

> <Gold.Protein.RotatedAtoms>
  152.3222  133.5866  159.5751 H   0  0  0  0  0  0  0  0  0  0  0  0  # atno 6907 bound_to 6896
  150.7377  133.9994  159.3642 H   0  0  0  0  0  0  0  0  0  0  0  0  # atno 6908 bound_to 6896
  151.7878  135.0745  160.0434 H   0  0  0  0  0  0  0  0  0  0  0  0  # atno 6909 bound_to 6896
  145.3659  140.9498  143.2474 H   0  0  0  0  0  0  0  0  0  0  0  0  # atno 7974 bound_to 7965
  154.9268  140.0406  157.2027 H   0  0  0  0  0  0  0  0  0  0  0  0  # atno 8008 bound_to 7997
  154.8200  140.2882  155.5772 H   0  0  0  0  0  0  0  0  0  0  0  0  # atno 8009 bound_to 7997
  156.2979  140.2520  156.3105 H   0  0  0  0  0  0  0  0  0  0  0  0  # atno 8010 bound_to 7997
  140.6056  143.2372  151.5829 H   0  0  0  0  0  0  0  0  0  0  0  0  # atno 10167 bound_to 10162
  156.6098  130.8846  151.2934 H   0  0  0  0  0  0  0  0  0  0  0  0  # atno 10718 bound_to 10713
  154.1912  135.6427  153.5060 H   0  0  0  0  0  0  0  0  0  0  0  0  # atno 10763 bound_to 10752
  153.0034  135.5429  154.6413 H   0  0  0  0  0  0  0  0  0  0  0  0  # atno 10764 bound_to 10752
  154.5802  135.2924  155.0713 H   0  0  0  0  0  0  0  0  0  0  0  0  # atno 10765 bound_to 10752
  140.7861  133.8324  155.9336 H   0  0  0  0  0  0  0  0  0  0  0  0  # atno 11005 bound_to 11000
  144.8612  139.5174  143.6811 LP  0  0  0  0  0  0  0  0  0  0  0  0  # atno 17320 bound_to 7965
  146.2907  139.7131  142.9163 LP  0  0  0  0  0  0  0  0  0  0  0  0  # atno 17321 bound_to 7965
  139.5322  144.2883  152.1173 LP  0  0  0  0  0  0  0  0  0  0  0  0  # atno 17342 bound_to 10162
  140.2072  144.4599  150.6403 LP  0  0  0  0  0  0  0  0  0  0  0  0  # atno 17343 bound_to 10162
  157.7257  130.9619  150.1626 LP  0  0  0  0  0  0  0  0  0  0  0  0  # atno 17370 bound_to 10713
  156.2399  130.3690  149.8349 LP  0  0  0  0  0  0  0  0  0  0  0  0  # atno 17371 bound_to 10713
  140.9435  134.1870  157.4780 LP  0  0  0  0  0  0  0  0  0  0  0  0  # atno 17394 bound_to 11000
  139.8736  134.9881  156.5398 LP  0  0  0  0  0  0  0  0  0  0  0  0  # atno 17395 bound_to 11000

$$$$
