AV-unprocessed.smi:613|AV-procd|sdf|3064|dock5
  -GOLD-   2262023583D 1   1.00000     0.00000
 Structure written by MMmdl.
 38 39  0  0  0  0  0  0  0  0  1 V2000
  151.8984  144.3364  157.5153 C   0  0  0  0  0  0  0  0  0  0  0  0
  151.4885  143.1722  158.2924 N   0  0  0  0  0  0  0  0  0  0  0  0
  150.4957  142.2632  157.7166 C   0  0  0  0  0  0  0  0  0  0  0  0
  151.0695  141.3909  156.5840 C   0  0  2  0  0  0  0  0  0  0  0  0
  149.9627  140.8895  155.6353 C   0  0  0  0  0  0  0  0  0  0  0  0
  150.4842  140.0021  154.5985 N   0  0  0  0  0  0  0  0  0  0  0  0
  149.4268  139.5758  153.6725 C   0  0  0  0  0  0  0  0  0  0  0  0
  148.2994  138.7653  154.3242 C   0  0  0  0  0  0  0  0  0  0  0  0
  148.0112  137.5775  153.7863 N   0  0  0  0  0  0  0  0  0  0  0  0
  147.6941  139.2086  155.2978 O   0  0  0  0  0  0  0  0  0  0  0  0
  151.2171  138.8956  155.2195 C   0  0  0  0  0  0  0  0  0  0  0  0
  152.3017  139.4000  156.1860 C   0  0  0  0  0  0  0  0  0  0  0  0
  151.7138  140.2563  157.1587 O   0  0  0  0  0  0  0  0  0  0  0  0
  151.7557  143.1471  159.6826 C   0  0  0  0  0  0  0  0  0  0  0  0
  152.2827  141.9950  160.3164 C   0  0  0  0  0  0  0  0  0  0  0  0
  152.5199  142.0491  161.7007 C   0  0  0  0  0  0  0  0  0  0  0  0
  152.2143  143.2501  162.3626 C   0  0  0  0  0  0  0  0  0  0  0  0
  151.7099  144.3244  161.7188 N   0  0  0  0  0  0  0  0  0  0  0  0
  151.4848  144.2682  160.4020 N   0  0  0  0  0  0  0  0  0  0  0  0
  152.9853  144.4175  157.4869 H   0  0  0  0  0  0  0  0  0  0  0  0
  151.4871  145.2516  157.9427 H   0  0  0  0  0  0  0  0  0  0  0  0
  151.5470  144.2629  156.4858 H   0  0  0  0  0  0  0  0  0  0  0  0
  150.0980  141.6235  158.5051 H   0  0  0  0  0  0  0  0  0  0  0  0
  149.6405  142.8351  157.3552 H   0  0  0  0  0  0  0  0  0  0  0  0
  151.7964  141.9675  156.0088 H   0  0  0  0  0  0  0  0  0  0  0  0
  149.1943  140.3732  156.2138 H   0  0  0  0  0  0  0  0  0  0  0  0
  149.4758  141.7492  155.1725 H   0  0  0  0  0  0  0  0  0  0  0  0
  149.0048  140.4458  153.1655 H   0  0  0  0  0  0  0  0  0  0  0  0
  149.8575  138.9490  152.8904 H   0  0  0  0  0  0  0  0  0  0  0  0
  147.2775  137.0088  154.1829 H   0  0  0  0  0  0  0  0  0  0  0  0
  148.5309  137.2524  152.9838 H   0  0  0  0  0  0  0  0  0  0  0  0
  150.5243  138.2494  155.7611 H   0  0  0  0  0  0  0  0  0  0  0  0
  151.6972  138.2735  154.4639 H   0  0  0  0  0  0  0  0  0  0  0  0
  152.7795  138.5607  156.6915 H   0  0  0  0  0  0  0  0  0  0  0  0
  153.0838  139.9351  155.6450 H   0  0  0  0  0  0  0  0  0  0  0  0
  152.5038  141.0860  159.7782 H   0  0  0  0  0  0  0  0  0  0  0  0
  152.9208  141.2007  162.2349 H   0  0  0  0  0  0  0  0  0  0  0  0
  152.3749  143.3519  163.4257 H   0  0  0  0  0  0  0  0  0  0  0  0
  1  2  1  0  0  0  0
  1 20  1  0  0  0  0
  1 21  1  0  0  0  0
  1 22  1  0  0  0  0
  2  3  1  0  0  0  0
  2 14  1  0  0  0  0
  3  4  1  0  0  0  0
  3 23  1  0  0  0  0
  3 24  1  0  0  0  0
  4 13  1  0  0  0  0
  4  5  1  0  0  0  0
  4 25  1  0  0  0  0
  5  6  1  0  0  0  0
  5 26  1  0  0  0  0
  5 27  1  0  0  0  0
  6  7  1  0  0  0  0
  6 11  1  0  0  0  0
  7  8  1  0  0  0  0
  7 28  1  0  0  0  0
  7 29  1  0  0  0  0
  8  9  1  0  0  0  0
  8 10  2  0  0  0  0
  9 30  1  0  0  0  0
  9 31  1  0  0  0  0
 11 12  1  0  0  0  0
 11 32  1  0  0  0  0
 11 33  1  0  0  0  0
 12 13  1  0  0  0  0
 12 34  1  0  0  0  0
 12 35  1  0  0  0  0
 14 19  1  0  0  0  0
 14 15  2  0  0  0  0
 15 16  1  0  0  0  0
 15 36  1  0  0  0  0
 16 17  2  0  0  0  0
 16 37  1  0  0  0  0
 17 18  1  0  0  0  0
 17 38  1  0  0  0  0
 18 19  2  0  0  0  0
M  END
> <s_m_source_file>
AV-unprocessed.smi

> <i_m_source_file_index>
613

> <i_lp_mmshare_version>
43012

> <i_f3d_flags>
0

> <s_epik_input>
bjFuW2NIXVtjSF1bY0hdYzFOKFtDSDNdKVtDSDJdW0NAQEhdMltDSDJdTihbQ0gyXVtDSDJdTzIpW0NIMl1DKD1PKVtOSDJd

> <s_epik_cmdline>
J2VwaWtfcHl0aG9uJywgJy1waCcsICc3LjAnLCAnLXRuJywgJzgnLCAnLW1hJywgJzIwMCcsICctbWV0YWxfYmluZGluZycsICctaW1hZScsICc8aW5maWxlLm1hZT4nLCAnLW9tYWUnLCAnPG91dGZpbGUubWFlPic=

> <r_lp_tautomer_probability>
1

> <r_epik_Ionization_Penalty>
0.0398875

> <r_epik_Ionization_Penalty_Charging>
0

> <r_epik_Ionization_Penalty_Neutral>
0.0398875

> <r_epik_State_Penalty>
0.0543012

> <r_epik_Charging_Adjusted_Penalty>
0.0543012

> <i_epik_Tot_Q>
0

> <i_epik_Tot_abs_Q>
0

> <r_epik_Metal_State_Penalty>
0.0489294

> <b_epik_Metal_Only>
0

> <s_lp_Force_Field>
OPLS_2005

> <r_lp_Energy>
27.5025

> <b_lp_Chiralities_Consistent>
1

> <s_lp_Variant>
AV-unprocessed.smi:613-1

> <Gold.Version>
5.8.1

> <Gold.Id.Protein>
6NUR|6NUR_protein|mol2

> <Gold.PLP.Fitness>
43.2976

> <Gold.PLP.PLP>
-39.7107

> <Gold.PLP.part.hbond>
-1.9367

> <Gold.PLP.part.metal>
0.0000

> <Gold.PLP.part.buried>
-1.1982

> <Gold.PLP.part.nonpolar>
-36.0873

> <Gold.PLP.part.repulsive>
0.3846

> <Gold.PLP.ligand.clash>
0.0000

> <Gold.PLP.ligand.torsion>
1.3412

> <Gold.PLP.Chemscore.Hbond>
2.0000

> <Gold.PLP.Chemscore.CHOScore>
0.0000

> <Gold.PLP.Chemscore.Metal>
0.0000

> <Gold.Chemscore.Hbonds>
donor molecule, donor type, donor heavy atom, donor atom, acceptor molecule, acceptor atom, score
      L1  H     9    31       P1  7948  1.00
      P1  H  7989  7998       L1     6  1.00

> <Gold.PLP.Chemscore.Internal.Correction>
0.2694

> <Gold.Rescore>
     Score         DG    S(hbond)    S(metal)    S(lipo)     H(rot)  DE(clash)    DE(int)     intcor
     10.96     -13.50       1.11        0.00      84.70       2.18       0.37       2.17       ----

> <Gold.Chemscore.Fitness>
10.9643

> <Gold.Chemscore.DG>
-13.4991

> <Gold.Chemscore.ZeroCoef>
-5.4800

> <Gold.Chemscore.Hbond>
1.1066

> <Gold.Chemscore.Metal>
0.0000

> <Gold.Chemscore.Lipo>
84.6991

> <Gold.Chemscore.Internal_Hbond>
0.0000

> <Gold.Chemscore.DEClash>
0.3694

> <Gold.Chemscore.DEInternal>
2.1655

> <Gold.Chemscore.Rot>
2.1823

> <Gold.Chemscore.Internal.Correction>
   9.000000E+99

> <Gold.Chemscore.Hbonds>
donor molecule, donor type, donor heavy atom, donor atom, acceptor molecule, acceptor atom, score
      L1  H     9    31       P1  7948  0.96
      P1  H  7989  7998       L1     6  0.19

> <Gold.Chemscore.Hbond.Weighted>
-3.6960

> <Gold.Chemscore.Metal.Weighted>
-0.0000

> <Gold.Chemscore.Lipo.Weighted>
-9.9098

> <Gold.Chemscore.Internal_Hbond.Weighted>
0.0000

> <Gold.Chemscore.DEClash.Weighted>
0.3694

> <Gold.Chemscore.DEInternal.Weighted>
2.1655

> <Gold.Chemscore.Rot.Weighted>
5.5867

> <Gold.Chemscore.Internal.Correction.Weighted>
   9.000000E+99

> <Gold.Protein.RotatedTorsions>
[ 6907 6896 6895 6894 ] final  154.19 input  -60.11 | X-H torsion
[ 7974 7965 7964 7962 ] final -131.89 input  175.53 | X-H torsion
[ 8008 7997 7996 7995 ] final -158.23 input   59.86 | X-H torsion
[ 10167 10162 10161 10158 ] final -141.49 input  -65.29 | X-H torsion
[ 10718 10713 10712 10709 ] final  -95.04 input   66.30 | X-H torsion
[ 10763 10752 10751 10750 ] final -109.23 input  -60.55 | X-H torsion
[ 11005 11000 10999 10996 ] final -105.75 input  -57.11 | X-H torsion

> <Gold.Protein.ActiveResidues>
 VAL166  LYS551  ARG553  GLY616  TRP617  ASP618  TYR619  PRO620  LYS621  CYS622 
 ASP623  PHE694  ASN695  SER759  ASP760  ASP761  ALA762  ILE779  LEU786  VAL792 
 PHE793  MET794  SER795  GLU796  ALA797  LYS798  CYS799  TRP800  GLU811  SER814 

> <Gold.Protein.RotatedAtoms>
  152.0620  133.4066  159.4421 H   0  0  0  0  0  0  0  0  0  0  0  0  # atno 6907 bound_to 6896
  150.6866  134.3189  159.4787 H   0  0  0  0  0  0  0  0  0  0  0  0  # atno 6908 bound_to 6896
  152.1011  134.9340  160.0620 H   0  0  0  0  0  0  0  0  0  0  0  0  # atno 6909 bound_to 6896
  144.9336  140.7158  143.4890 H   0  0  0  0  0  0  0  0  0  0  0  0  # atno 7974 bound_to 7965
  155.7444  140.0818  157.2231 H   0  0  0  0  0  0  0  0  0  0  0  0  # atno 8008 bound_to 7997
  154.4018  140.1572  156.2708 H   0  0  0  0  0  0  0  0  0  0  0  0  # atno 8009 bound_to 7997
  155.8990  140.3411  155.6015 H   0  0  0  0  0  0  0  0  0  0  0  0  # atno 8010 bound_to 7997
  139.8180  143.7612  152.2665 H   0  0  0  0  0  0  0  0  0  0  0  0  # atno 10167 bound_to 10162
  156.0036  130.5092  150.6017 H   0  0  0  0  0  0  0  0  0  0  0  0  # atno 10718 bound_to 10713
  154.8181  135.4608  154.0701 H   0  0  0  0  0  0  0  0  0  0  0  0  # atno 10763 bound_to 10752
  153.2077  135.6877  153.8159 H   0  0  0  0  0  0  0  0  0  0  0  0  # atno 10764 bound_to 10752
  153.7621  135.3282  155.3315 H   0  0  0  0  0  0  0  0  0  0  0  0  # atno 10765 bound_to 10752
  141.1038  133.8834  157.1772 H   0  0  0  0  0  0  0  0  0  0  0  0  # atno 11005 bound_to 11000
  145.3102  139.1821  143.4643 LP  0  0  0  0  0  0  0  0  0  0  0  0  # atno 17320 bound_to 7965
  146.3257  140.3105  142.8626 LP  0  0  0  0  0  0  0  0  0  0  0  0  # atno 17321 bound_to 7965
  139.7782  144.7454  151.0127 LP  0  0  0  0  0  0  0  0  0  0  0  0  # atno 17342 bound_to 10162
  140.7815  143.4571  151.0330 LP  0  0  0  0  0  0  0  0  0  0  0  0  # atno 17343 bound_to 10162
  157.3865  131.0789  151.1432 LP  0  0  0  0  0  0  0  0  0  0  0  0  # atno 17370 bound_to 10713
  157.2137  130.6449  149.5784 LP  0  0  0  0  0  0  0  0  0  0  0  0  # atno 17371 bound_to 10713
  139.9900  135.0068  156.9952 LP  0  0  0  0  0  0  0  0  0  0  0  0  # atno 17394 bound_to 11000
  140.4954  134.1151  155.7240 LP  0  0  0  0  0  0  0  0  0  0  0  0  # atno 17395 bound_to 11000

$$$$
