AV-unprocessed.smi:2928|AV-procd|sdf|11231|dock6
  -GOLD-   2272016123D 1   1.00000     0.00000
 Structure written by MMmdl.
 55 58  0  0  0  0  0  0  0  0  2 V2000
  150.6151  142.3049  157.6817 C   0  0  0  0  0  0  0  0  0  0  0  0
  150.6141  141.3530  156.5454 N   0  3  2  0  0  0  0  0  0  0  0  0
  149.2771  141.0704  155.9710 C   0  0  2  0  0  0  0  0  0  0  0  0
  148.4078  140.2340  156.9446 C   0  0  0  0  0  0  0  0  0  0  0  0
  149.0989  138.9698  157.4894 C   0  0  0  0  0  0  0  0  0  0  0  0
  150.5853  139.1960  157.8199 C   0  0  0  0  0  0  0  0  0  0  0  0
  151.3375  140.0839  156.7969 C   0  0  1  0  0  0  0  0  0  0  0  0
  151.6559  139.4068  155.4436 C   0  0  0  0  0  0  0  0  0  0  0  0
  150.4704  139.3052  154.4441 C   0  0  1  0  0  0  0  0  0  0  0  0
  149.8000  138.0093  154.4818 N   0  0  0  0  0  0  0  0  0  0  0  0
  150.3803  136.8263  154.7263 C   0  0  0  0  0  0  0  0  0  0  0  0
  151.5878  136.6840  154.9167 O   0  0  0  0  0  0  0  0  0  0  0  0
  149.4646  135.8458  154.7601 N   0  0  0  0  0  0  0  0  0  0  0  0
  149.6500  134.4794  155.1075 C   0  0  0  0  0  0  0  0  0  0  0  0
  150.6923  134.0378  155.9575 C   0  0  0  0  0  0  0  0  0  0  0  0
  150.8157  132.6631  156.2297 C   0  0  0  0  0  0  0  0  0  0  0  0
  149.8972  131.7782  155.6367 C   0  0  0  0  0  0  0  0  0  0  0  0
  148.9084  132.1819  154.8131 N   0  0  0  0  0  0  0  0  0  0  0  0
  148.7862  133.5049  154.5460 C   0  0  0  0  0  0  0  0  0  0  0  0
  147.7478  133.9069  153.6868 N   0  0  0  0  0  0  0  0  0  0  0  0
  147.7518  133.3002  152.3666 C   0  0  0  0  0  0  0  0  0  0  0  0
  146.3700  133.6003  151.7798 C   0  0  0  0  0  0  0  0  0  0  0  0
  145.4776  133.8827  152.9952 C   0  0  0  0  0  0  0  0  0  0  0  0
  146.4020  133.7307  154.2059 C   0  0  0  0  0  0  0  0  0  0  0  0
  149.4535  140.4693  154.5563 C   0  0  0  0  0  0  0  0  0  0  0  0
  150.0769  141.9188  158.5466 H   0  0  0  0  0  0  0  0  0  0  0  0
  150.1511  143.2468  157.3886 H   0  0  0  0  0  0  0  0  0  0  0  0
  151.6370  142.5249  157.9915 H   0  0  0  0  0  0  0  0  0  0  0  0
  148.7674  142.0252  155.8325 H   0  0  0  0  0  0  0  0  0  0  0  0
  148.1318  140.8627  157.7916 H   0  0  0  0  0  0  0  0  0  0  0  0
  147.4645  139.9630  156.4694 H   0  0  0  0  0  0  0  0  0  0  0  0
  148.5777  138.6306  158.3852 H   0  0  0  0  0  0  0  0  0  0  0  0
  148.9886  138.1457  156.7929 H   0  0  0  0  0  0  0  0  0  0  0  0
  150.6496  139.6650  158.8020 H   0  0  0  0  0  0  0  0  0  0  0  0
  151.0900  138.2351  157.9263 H   0  0  0  0  0  0  0  0  0  0  0  0
  152.3007  140.3351  157.2438 H   0  0  0  0  0  0  0  0  0  0  0  0
  152.4261  140.0106  154.9612 H   0  0  0  0  0  0  0  0  0  0  0  0
  152.1254  138.4363  155.6078 H   0  0  0  0  0  0  0  0  0  0  0  0
  150.8936  139.3675  153.4395 H   0  0  0  0  0  0  0  0  0  0  0  0
  148.8009  138.0153  154.3361 H   0  0  0  0  0  0  0  0  0  0  0  0
  148.5022  136.1338  154.6584 H   0  0  0  0  0  0  0  0  0  0  0  0
  151.4035  134.7245  156.3906 H   0  0  0  0  0  0  0  0  0  0  0  0
  151.5998  132.2954  156.8749 H   0  0  0  0  0  0  0  0  0  0  0  0
  149.9620  130.7165  155.8235 H   0  0  0  0  0  0  0  0  0  0  0  0
  148.5494  133.7118  151.7474 H   0  0  0  0  0  0  0  0  0  0  0  0
  147.9029  132.2223  152.4402 H   0  0  0  0  0  0  0  0  0  0  0  0
  146.4136  134.4820  151.1393 H   0  0  0  0  0  0  0  0  0  0  0  0
  146.0014  132.7698  151.1771 H   0  0  0  0  0  0  0  0  0  0  0  0
  145.0877  134.8998  152.9411 H   0  0  0  0  0  0  0  0  0  0  0  0
  144.6270  133.2033  153.0530 H   0  0  0  0  0  0  0  0  0  0  0  0
  146.2868  132.7378  154.6429 H   0  0  0  0  0  0  0  0  0  0  0  0
  146.1784  134.4675  154.9780 H   0  0  0  0  0  0  0  0  0  0  0  0
  148.4872  140.1852  154.1368 H   0  0  0  0  0  0  0  0  0  0  0  0
  149.8146  141.2730  153.9127 H   0  0  0  0  0  0  0  0  0  0  0  0
  151.1317  141.8238  155.8169 H   0  0  0  0  0  0  0  0  0  0  0  0
  1  2  1  0  0  0  0
  1 26  1  0  0  0  0
  1 27  1  0  0  0  0
  1 28  1  0  0  0  0
  2  7  1  0  0  0  0
  2  3  1  0  0  0  0
  2 55  1  0  0  0  0
  3 25  1  0  0  0  0
  3  4  1  0  0  0  0
  3 29  1  0  0  0  0
  4  5  1  0  0  0  0
  4 30  1  0  0  0  0
  4 31  1  0  0  0  0
  5  6  1  0  0  0  0
  5 32  1  0  0  0  0
  5 33  1  0  0  0  0
  6  7  1  0  0  0  0
  6 34  1  0  0  0  0
  6 35  1  0  0  0  0
  7  8  1  0  0  0  0
  7 36  1  0  0  0  0
  8  9  1  0  0  0  0
  8 37  1  0  0  0  0
  8 38  1  0  0  0  0
  9 10  1  0  0  0  0
  9 25  1  0  0  0  0
  9 39  1  0  0  0  0
 10 11  1  0  0  0  0
 10 40  1  0  0  0  0
 11 12  2  0  0  0  0
 11 13  1  0  0  0  0
 13 14  1  0  0  0  0
 13 41  1  0  0  0  0
 14 19  1  0  0  0  0
 14 15  2  0  0  0  0
 15 16  1  0  0  0  0
 15 42  1  0  0  0  0
 16 17  2  0  0  0  0
 16 43  1  0  0  0  0
 17 18  1  0  0  0  0
 17 44  1  0  0  0  0
 18 19  2  0  0  0  0
 19 20  1  0  0  0  0
 20 24  1  0  0  0  0
 20 21  1  0  0  0  0
 21 22  1  0  0  0  0
 21 45  1  0  0  0  0
 21 46  1  0  0  0  0
 22 23  1  0  0  0  0
 22 47  1  0  0  0  0
 22 48  1  0  0  0  0
 23 24  1  0  0  0  0
 23 49  1  0  0  0  0
 23 50  1  0  0  0  0
 24 51  1  0  0  0  0
 24 52  1  0  0  0  0
 25 53  1  0  0  0  0
 25 54  1  0  0  0  0
M  CHG  1   2   1
M  END
> <s_m_source_file>
AV-unprocessed.smi

> <i_m_source_file_index>
2928

> <i_lp_mmshare_version>
43012

> <i_f3d_flags>
0

> <s_epik_input>
W0NIMl0xW0NIMl1bQ0gyXVtDQEhdKE4oW0NIM10pW0NIXTEyKVtDSDJdW0NASF0oW0NIMl0yKVtOSF1DKD1PKVtOSF1jM1tjSF1bY0hdW2NIXW5jM040W0NIMl1bQ0gyXVtDSDJdW0NIMl00

> <s_epik_cmdline>
J2VwaWtfcHl0aG9uJywgJy1waCcsICc3LjAnLCAnLXRuJywgJzgnLCAnLW1hJywgJzIwMCcsICctbWV0YWxfYmluZGluZycsICctaW1hZScsICc8aW5maWxlLm1hZT4nLCAnLW9tYWUnLCAnPG91dGZpbGUubWFlPic=

> <r_lp_tautomer_probability>
1

> <r_epik_Ionization_Penalty>
0.07954

> <r_epik_Ionization_Penalty_Charging>
0.00089841

> <r_epik_Ionization_Penalty_Neutral>
0.0786416

> <r_epik_State_Penalty>
0.0689917

> <r_epik_Charging_Adjusted_Penalty>
0.0698901

> <i_epik_Tot_Q>
1

> <i_epik_Tot_abs_Q>
1

> <r_epik_Metal_State_Penalty>
0.0608947

> <b_epik_Metal_Only>
0

> <s_lp_Force_Field>
OPLS_2005

> <r_lp_Energy>
66.344

> <b_lp_Chiralities_Consistent>
1

> <s_lp_Variant>
AV-unprocessed.smi:2928-1

> <Gold.Version>
5.8.1

> <Gold.Id.Protein>
6NUR|6NUR_protein|mol2

> <Gold.PLP.Fitness>
39.3677

> <Gold.PLP.PLP>
-37.3191

> <Gold.PLP.part.hbond>
-2.3803

> <Gold.PLP.part.metal>
0.0000

> <Gold.PLP.part.buried>
-4.2597

> <Gold.PLP.part.nonpolar>
-30.9959

> <Gold.PLP.part.repulsive>
0.4246

> <Gold.PLP.ligand.clash>
0.0000

> <Gold.PLP.ligand.torsion>
0.5124

> <Gold.PLP.Chemscore.Hbond>
1.0000

> <Gold.PLP.Chemscore.CHOScore>
0.0000

> <Gold.PLP.Chemscore.Metal>
0.0000

> <Gold.Chemscore.Hbonds>
donor molecule, donor type, donor heavy atom, donor atom, acceptor molecule, acceptor atom, score
      P1  H 10752 10765       L1    12  1.00

> <Gold.PLP.Chemscore.Internal.Correction>
0.0734

> <Gold.Rescore>
     Score         DG    S(hbond)    S(metal)    S(lipo)     H(rot)  DE(clash)    DE(int)     intcor
     12.43     -15.51       1.00        0.00      82.94       1.18       0.09       2.99       ----

> <Gold.Chemscore.Fitness>
12.4287

> <Gold.Chemscore.DG>
-15.5070

> <Gold.Chemscore.ZeroCoef>
-5.4800

> <Gold.Chemscore.Hbond>
0.9994

> <Gold.Chemscore.Metal>
0.0000

> <Gold.Chemscore.Lipo>
82.9368

> <Gold.Chemscore.Internal_Hbond>
0.0000

> <Gold.Chemscore.DEClash>
0.0913

> <Gold.Chemscore.DEInternal>
2.9871

> <Gold.Chemscore.Rot>
1.1776

> <Gold.Chemscore.Internal.Correction>
   9.000000E+99

> <Gold.Chemscore.Hbonds>
donor molecule, donor type, donor heavy atom, donor atom, acceptor molecule, acceptor atom, score
      P1  H 10752 10765       L1    12  1.00

> <Gold.Chemscore.Hbond.Weighted>
-3.3381

> <Gold.Chemscore.Metal.Weighted>
-0.0000

> <Gold.Chemscore.Lipo.Weighted>
-9.7036

> <Gold.Chemscore.Internal_Hbond.Weighted>
0.0000

> <Gold.Chemscore.DEClash.Weighted>
0.0913

> <Gold.Chemscore.DEInternal.Weighted>
2.9871

> <Gold.Chemscore.Rot.Weighted>
3.0147

> <Gold.Chemscore.Internal.Correction.Weighted>
   9.000000E+99

> <Gold.Protein.RotatedTorsions>
[ 6907 6896 6895 6894 ] final   29.92 input  -60.11 | X-H torsion
[ 7974 7965 7964 7962 ] final -144.45 input  175.53 | X-H torsion
[ 8008 7997 7996 7995 ] final  178.11 input   59.86 | X-H torsion
[ 10167 10162 10161 10158 ] final  139.09 input  -65.29 | X-H torsion
[ 10718 10713 10712 10709 ] final   37.85 input   66.30 | X-H torsion
[ 10763 10752 10751 10750 ] final  167.42 input  -60.55 | X-H torsion
[ 11005 11000 10999 10996 ] final -118.01 input  -57.11 | X-H torsion

> <Gold.Protein.ActiveResidues>
 VAL166  LYS551  ARG553  GLY616  TRP617  ASP618  TYR619  PRO620  LYS621  CYS622 
 ASP623  PHE694  ASN695  SER759  ASP760  ASP761  ALA762  ILE779  LEU786  VAL792 
 PHE793  MET794  SER795  GLU796  ALA797  LYS798  CYS799  TRP800  GLU811  SER814 

> <Gold.Protein.RotatedAtoms>
  152.0385  134.9725  160.0573 H   0  0  0  0  0  0  0  0  0  0  0  0  # atno 6907 bound_to 6896
  152.1173  133.4329  159.4667 H   0  0  0  0  0  0  0  0  0  0  0  0  # atno 6908 bound_to 6896
  150.6847  134.2495  159.4548 H   0  0  0  0  0  0  0  0  0  0  0  0  # atno 6909 bound_to 6896
  144.8297  140.5708  143.5523 H   0  0  0  0  0  0  0  0  0  0  0  0  # atno 7974 bound_to 7965
  156.0583  140.1341  156.9971 H   0  0  0  0  0  0  0  0  0  0  0  0  # atno 8008 bound_to 7997
  154.4469  140.0996  156.6549 H   0  0  0  0  0  0  0  0  0  0  0  0  # atno 8009 bound_to 7997
  155.5417  140.3461  155.4450 H   0  0  0  0  0  0  0  0  0  0  0  0  # atno 8010 bound_to 7997
  139.5090  144.6315  151.5804 H   0  0  0  0  0  0  0  0  0  0  0  0  # atno 10167 bound_to 10162
  157.3519  130.7603  149.6985 H   0  0  0  0  0  0  0  0  0  0  0  0  # atno 10718 bound_to 10713
  154.3536  135.2753  155.2359 H   0  0  0  0  0  0  0  0  0  0  0  0  # atno 10763 bound_to 10752
  154.4577  135.5915  153.6238 H   0  0  0  0  0  0  0  0  0  0  0  0  # atno 10764 bound_to 10752
  152.9848  135.6057  154.3749 H   0  0  0  0  0  0  0  0  0  0  0  0  # atno 10765 bound_to 10752
  141.0315  133.9974  157.3136 H   0  0  0  0  0  0  0  0  0  0  0  0  # atno 11005 bound_to 11000
  145.4923  139.1488  143.3703 LP  0  0  0  0  0  0  0  0  0  0  0  0  # atno 17320 bound_to 7965
  146.2600  140.5061  142.8857 LP  0  0  0  0  0  0  0  0  0  0  0  0  # atno 17321 bound_to 7965
  140.6050  143.9541  150.6412 LP  0  0  0  0  0  0  0  0  0  0  0  0  # atno 17342 bound_to 10162
  140.2765  143.3419  152.1190 LP  0  0  0  0  0  0  0  0  0  0  0  0  # atno 17343 bound_to 10162
  155.9723  130.4138  150.4101 LP  0  0  0  0  0  0  0  0  0  0  0  0  # atno 17370 bound_to 10713
  157.2165  131.0472  151.2570 LP  0  0  0  0  0  0  0  0  0  0  0  0  # atno 17371 bound_to 10713
  139.9211  135.0200  156.8067 LP  0  0  0  0  0  0  0  0  0  0  0  0  # atno 17394 bound_to 11000
  140.6398  133.9829  155.7702 LP  0  0  0  0  0  0  0  0  0  0  0  0  # atno 17395 bound_to 11000

$$$$
