AV-unprocessed.smi:1532|AV-procd|sdf|6160|dock1
  -GOLD-   22720 6313D 1   1.00000     0.00000
 Structure written by MMmdl.
 38 40  0  0  0  0  0  0  0  0  1 V2000
  152.5399  138.7653  158.8164 O   0  0  0  0  0  0  0  0  0  0  0  0
  152.5327  139.9666  159.0888 C   0  0  0  0  0  0  0  0  0  0  0  0
  153.4675  140.5903  160.0375 C   0  0  0  0  0  0  0  0  0  0  0  0
  154.4997  139.6952  160.7183 C   0  0  0  0  0  0  0  0  0  0  0  0
  155.1093  140.3222  161.7255 F   0  0  0  0  0  0  0  0  0  0  0  0
  153.9183  138.6010  161.2109 F   0  0  0  0  0  0  0  0  0  0  0  0
  155.4363  139.3143  159.8486 F   0  0  0  0  0  0  0  0  0  0  0  0
  153.3983  141.9215  160.2834 C   0  0  0  0  0  0  0  0  0  0  0  0
  152.4034  142.7381  159.6172 C   0  0  0  0  0  0  0  0  0  0  0  0
  152.2696  144.2169  159.8426 C   0  0  0  0  0  0  0  0  0  0  0  0
  151.0912  144.9974  159.3089 C   0  0  0  0  0  0  0  0  0  0  0  0
  152.4702  145.2244  158.7334 C   0  0  0  0  0  0  0  0  0  0  0  0
  151.5830  142.1878  158.7870 N   0  0  0  0  0  0  0  0  0  0  0  0
  151.6441  140.8346  158.5207 N   0  0  0  0  0  0  0  0  0  0  0  0
  150.6472  140.3769  157.5443 C   0  0  0  0  0  0  0  0  0  0  0  0
  150.3892  141.4194  156.4345 C   0  0  2  0  0  0  0  0  0  0  0  0
  149.7061  142.5236  156.9963 O   0  0  0  0  0  0  0  0  0  0  0  0
  149.6047  140.8045  155.2852 C   0  0  0  0  0  0  0  0  0  0  0  0
  149.5814  139.4051  155.0916 C   0  0  0  0  0  0  0  0  0  0  0  0
  148.8608  138.8488  154.0168 C   0  0  0  0  0  0  0  0  0  0  0  0
  148.1621  139.6876  153.1274 C   0  0  0  0  0  0  0  0  0  0  0  0
  148.1853  141.0833  153.3127 C   0  0  0  0  0  0  0  0  0  0  0  0
  147.5162  141.8910  152.4565 F   0  0  0  0  0  0  0  0  0  0  0  0
  148.9058  141.6398  154.3875 C   0  0  0  0  0  0  0  0  0  0  0  0
  154.0755  142.3976  160.9765 H   0  0  0  0  0  0  0  0  0  0  0  0
  152.6408  144.4908  160.8284 H   0  0  0  0  0  0  0  0  0  0  0  0
  150.3699  144.4713  158.6862 H   0  0  0  0  0  0  0  0  0  0  0  0
  150.6769  145.7764  159.9455 H   0  0  0  0  0  0  0  0  0  0  0  0
  152.9734  146.1552  158.9871 H   0  0  0  0  0  0  0  0  0  0  0  0
  152.6550  144.8552  157.7263 H   0  0  0  0  0  0  0  0  0  0  0  0
  151.0109  139.4501  157.0961 H   0  0  0  0  0  0  0  0  0  0  0  0
  149.7106  140.1023  158.0341 H   0  0  0  0  0  0  0  0  0  0  0  0
  151.3354  141.7897  156.0382 H   0  0  0  0  0  0  0  0  0  0  0  0
  149.5722  143.1684  156.3186 H   0  0  0  0  0  0  0  0  0  0  0  0
  150.1183  138.7532  155.7654 H   0  0  0  0  0  0  0  0  0  0  0  0
  148.8455  137.7784  153.8736 H   0  0  0  0  0  0  0  0  0  0  0  0
  147.6103  139.2610  152.3028 H   0  0  0  0  0  0  0  0  0  0  0  0
  148.9215  142.7121  154.5185 H   0  0  0  0  0  0  0  0  0  0  0  0
  1  2  2  0  0  0  0
  2 14  1  0  0  0  0
  2  3  1  0  0  0  0
  3  4  1  0  0  0  0
  3  8  2  0  0  0  0
  4  5  1  0  0  0  0
  4  6  1  0  0  0  0
  4  7  1  0  0  0  0
  8  9  1  0  0  0  0
  8 25  1  0  0  0  0
  9 10  1  0  0  0  0
  9 13  2  0  0  0  0
 10 12  1  0  0  0  0
 10 11  1  0  0  0  0
 10 26  1  0  0  0  0
 11 12  1  0  0  0  0
 11 27  1  0  0  0  0
 11 28  1  0  0  0  0
 12 29  1  0  0  0  0
 12 30  1  0  0  0  0
 13 14  1  0  0  0  0
 14 15  1  0  0  0  0
 15 16  1  0  0  0  0
 15 31  1  0  0  0  0
 15 32  1  0  0  0  0
 16 17  1  0  0  0  0
 16 18  1  0  0  0  0
 16 33  1  0  0  0  0
 17 34  1  0  0  0  0
 18 24  1  0  0  0  0
 18 19  2  0  0  0  0
 19 20  1  0  0  0  0
 19 35  1  0  0  0  0
 20 21  2  0  0  0  0
 20 36  1  0  0  0  0
 21 22  1  0  0  0  0
 21 37  1  0  0  0  0
 22 23  1  0  0  0  0
 22 24  2  0  0  0  0
 24 38  1  0  0  0  0
M  END
> <s_m_source_file>
AV-unprocessed.smi

> <i_m_source_file_index>
1532

> <i_lp_mmshare_version>
43012

> <i_f3d_flags>
0

> <s_epik_input>
Tz1jMWMoQyhGKShGKUYpW2NIXWMoW0NIXTJbQ0gyXVtDSDJdMilubjFbQ0gyXVtDQEhdKFtPSF0pYzNbY0hdW2NIXVtjSF1jKEYpW2NIXTM=

> <s_epik_cmdline>
J2VwaWtfcHl0aG9uJywgJy1waCcsICc3LjAnLCAnLXRuJywgJzgnLCAnLW1hJywgJzIwMCcsICctbWV0YWxfYmluZGluZycsICctaW1hZScsICc8aW5maWxlLm1hZT4nLCAnLW9tYWUnLCAnPG91dGZpbGUubWFlPic=

> <r_lp_tautomer_probability>
1

> <r_epik_Ionization_Penalty>
1.69012e-07

> <r_epik_Ionization_Penalty_Charging>
9.677e-10

> <r_epik_Ionization_Penalty_Neutral>
1.68044e-07

> <r_epik_State_Penalty>
-0

> <r_epik_Charging_Adjusted_Penalty>
9.677e-10

> <i_epik_Tot_Q>
0

> <i_epik_Tot_abs_Q>
0

> <r_epik_Metal_State_Penalty>
-0

> <b_epik_Metal_Only>
0

> <s_lp_Force_Field>
OPLS_2005

> <r_lp_Energy>
33.1726

> <b_lp_Chiralities_Consistent>
1

> <s_lp_Variant>
AV-unprocessed.smi:1532-1

> <Gold.Version>
5.8.1

> <Gold.Id.Protein>
6NUR|6NUR_protein|mol2

> <Gold.PLP.Fitness>
48.1360

> <Gold.PLP.PLP>
-47.3522

> <Gold.PLP.part.hbond>
-1.0000

> <Gold.PLP.part.metal>
0.0000

> <Gold.PLP.part.buried>
-4.2786

> <Gold.PLP.part.nonpolar>
-41.5689

> <Gold.PLP.part.repulsive>
0.0030

> <Gold.PLP.ligand.clash>
0.0000

> <Gold.PLP.ligand.torsion>
1.4748

> <Gold.PLP.Chemscore.Hbond>
1.0000

> <Gold.PLP.Chemscore.CHOScore>
0.0000

> <Gold.PLP.Chemscore.Metal>
0.0000

> <Gold.Chemscore.Hbonds>
donor molecule, donor type, donor heavy atom, donor atom, acceptor molecule, acceptor atom, score
      L1  H    17    34       P1  8028  1.00

> <Gold.PLP.Chemscore.Internal.Correction>
0.7334

> <Gold.Rescore>
     Score         DG    S(hbond)    S(metal)    S(lipo)     H(rot)  DE(clash)    DE(int)     intcor
     12.68     -16.59       0.98        0.00     115.02       2.20       0.82       3.09       ----

> <Gold.Chemscore.Fitness>
12.6759

> <Gold.Chemscore.DG>
-16.5927

> <Gold.Chemscore.ZeroCoef>
-5.4800

> <Gold.Chemscore.Hbond>
0.9843

> <Gold.Chemscore.Metal>
0.0000

> <Gold.Chemscore.Lipo>
115.0247

> <Gold.Chemscore.Internal_Hbond>
0.0000

> <Gold.Chemscore.DEClash>
0.8245

> <Gold.Chemscore.DEInternal>
3.0923

> <Gold.Chemscore.Rot>
2.2003

> <Gold.Chemscore.Internal.Correction>
   9.000000E+99

> <Gold.Chemscore.Hbonds>
donor molecule, donor type, donor heavy atom, donor atom, acceptor molecule, acceptor atom, score
      L1  H    17    34       P1  8028  0.97

> <Gold.Chemscore.Hbond.Weighted>
-3.2876

> <Gold.Chemscore.Metal.Weighted>
-0.0000

> <Gold.Chemscore.Lipo.Weighted>
-13.4579

> <Gold.Chemscore.Internal_Hbond.Weighted>
0.0000

> <Gold.Chemscore.DEClash.Weighted>
0.8245

> <Gold.Chemscore.DEInternal.Weighted>
3.0923

> <Gold.Chemscore.Rot.Weighted>
5.6328

> <Gold.Chemscore.Internal.Correction.Weighted>
   9.000000E+99

> <Gold.Protein.RotatedTorsions>
[ 6907 6896 6895 6894 ] final  149.04 input  -60.11 | X-H torsion
[ 7974 7965 7964 7962 ] final   28.43 input  175.53 | X-H torsion
[ 8008 7997 7996 7995 ] final -175.79 input   59.86 | X-H torsion
[ 10167 10162 10161 10158 ] final  -87.62 input  -65.29 | X-H torsion
[ 10718 10713 10712 10709 ] final   31.80 input   66.30 | X-H torsion
[ 10763 10752 10751 10750 ] final -169.24 input  -60.55 | X-H torsion
[ 11005 11000 10999 10996 ] final  -95.10 input  -57.11 | X-H torsion

> <Gold.Protein.ActiveResidues>
 VAL166  LYS551  ARG553  GLY616  TRP617  ASP618  TYR619  PRO620  LYS621  CYS622 
 ASP623  PHE694  ASN695  SER759  ASP760  ASP761  ALA762  ILE779  LEU786  VAL792 
 PHE793  MET794  SER795  GLU796  ALA797  LYS798  CYS799  TRP800  GLU811  SER814 

> <Gold.Protein.RotatedAtoms>
  152.1334  133.4421  159.4731 H   0  0  0  0  0  0  0  0  0  0  0  0  # atno 6907 bound_to 6896
  150.6880  134.2393  159.4475 H   0  0  0  0  0  0  0  0  0  0  0  0  # atno 6908 bound_to 6896
  152.0279  134.9784  160.0622 H   0  0  0  0  0  0  0  0  0  0  0  0  # atno 6909 bound_to 6896
  146.1729  139.7057  142.8955 H   0  0  0  0  0  0  0  0  0  0  0  0  # atno 7974 bound_to 7965
  155.9869  140.1193  157.0674 H   0  0  0  0  0  0  0  0  0  0  0  0  # atno 8008 bound_to 7997
  154.4199  140.1133  156.5581 H   0  0  0  0  0  0  0  0  0  0  0  0  # atno 8009 bound_to 7997
  155.6395  140.3473  155.4712 H   0  0  0  0  0  0  0  0  0  0  0  0  # atno 8010 bound_to 7997
  140.3827  143.2741  151.9364 H   0  0  0  0  0  0  0  0  0  0  0  0  # atno 10167 bound_to 10162
  157.2771  130.7237  149.6536 H   0  0  0  0  0  0  0  0  0  0  0  0  # atno 10718 bound_to 10713
  154.6543  135.2916  154.9947 H   0  0  0  0  0  0  0  0  0  0  0  0  # atno 10763 bound_to 10752
  154.1029  135.6574  153.4875 H   0  0  0  0  0  0  0  0  0  0  0  0  # atno 10764 bound_to 10752
  153.0394  135.5247  154.7466 H   0  0  0  0  0  0  0  0  0  0  0  0  # atno 10765 bound_to 10752
  141.1451  133.8003  157.0390 H   0  0  0  0  0  0  0  0  0  0  0  0  # atno 11005 bound_to 11000
  145.4291  141.0413  143.2921 LP  0  0  0  0  0  0  0  0  0  0  0  0  # atno 17320 bound_to 7965
  144.8191  139.5824  143.6995 LP  0  0  0  0  0  0  0  0  0  0  0  0  # atno 17321 bound_to 7965
  139.4794  144.5803  151.7943 LP  0  0  0  0  0  0  0  0  0  0  0  0  # atno 17342 bound_to 10162
  140.4921  144.1295  150.5952 LP  0  0  0  0  0  0  0  0  0  0  0  0  # atno 17343 bound_to 10162
  155.9664  130.4349  150.5070 LP  0  0  0  0  0  0  0  0  0  0  0  0  # atno 17370 bound_to 10713
  157.3007  131.0644  151.2070 LP  0  0  0  0  0  0  0  0  0  0  0  0  # atno 17371 bound_to 10713
  140.0705  134.9705  157.1459 LP  0  0  0  0  0  0  0  0  0  0  0  0  # atno 17394 bound_to 11000
  140.3717  134.2383  155.7177 LP  0  0  0  0  0  0  0  0  0  0  0  0  # atno 17395 bound_to 11000

$$$$
