AV-unprocessed.smi:3263|AV-procd|sdf|12486|dock1
  -GOLD-   2272018383D 1   1.00000     0.00000
 Structure written by MMmdl.
 41 43  0  0  0  0  0  0  0  0  1 V2000
  153.8069  139.8106  158.6839 O   0  0  0  0  0  0  0  0  0  0  0  0
  152.5931  139.9107  158.8613 C   0  0  0  0  0  0  0  0  0  0  0  0
  152.0311  141.0564  159.7073 C   0  0  0  0  0  0  0  0  0  0  0  0
  152.6782  142.4204  159.3770 C   0  0  2  0  0  0  0  0  0  0  0  0
  152.6616  143.4256  160.5487 C   0  0  0  0  0  0  0  0  0  0  0  0
  152.0843  144.6996  159.9027 C   0  0  2  0  0  0  0  0  0  0  0  0
  150.5750  144.5071  159.6657 C   0  0  0  0  0  0  0  0  0  0  0  0
  150.5418  143.5142  158.4897 C   0  0  0  0  0  0  0  0  0  0  0  0
  152.0378  143.2422  158.2292 C   0  0  1  0  0  0  0  0  0  0  0  0
  152.6373  144.6211  158.4841 C   0  0  0  0  0  0  0  0  0  0  0  0
  151.6974  139.0629  158.3334 N   0  0  0  0  0  0  0  0  0  0  0  0
  152.0192  137.9532  157.4445 C   0  0  0  0  0  0  0  0  0  0  0  0
  152.1837  138.4291  155.9910 C   0  0  0  0  0  0  0  0  0  0  0  0
  151.0867  139.3890  155.5717 C   0  0  0  0  0  0  0  0  0  0  0  0
  150.0802  138.9841  154.6690 C   0  0  0  0  0  0  0  0  0  0  0  0
  149.0879  139.9163  154.3088 C   0  0  0  0  0  0  0  0  0  0  0  0
  149.1399  141.2103  154.8619 C   0  0  0  0  0  0  0  0  0  0  0  0
  150.1868  141.5162  155.7541 C   0  0  0  0  0  0  0  0  0  0  0  0
  151.1431  140.6298  156.1060 N   0  0  0  0  0  0  0  0  0  0  0  0
  150.9476  141.1077  159.5924 H   0  0  0  0  0  0  0  0  0  0  0  0
  152.2074  140.8181  160.7565 H   0  0  0  0  0  0  0  0  0  0  0  0
  153.7212  142.2378  159.1107 H   0  0  0  0  0  0  0  0  0  0  0  0
  152.0572  143.0889  161.3918 H   0  0  0  0  0  0  0  0  0  0  0  0
  153.6735  143.5982  160.9174 H   0  0  0  0  0  0  0  0  0  0  0  0
  152.3283  145.6139  160.4443 H   0  0  0  0  0  0  0  0  0  0  0  0
  150.0624  144.1240  160.5488 H   0  0  0  0  0  0  0  0  0  0  0  0
  150.1006  145.4483  159.3850 H   0  0  0  0  0  0  0  0  0  0  0  0
  149.9700  142.6142  158.7124 H   0  0  0  0  0  0  0  0  0  0  0  0
  150.0832  143.9791  157.6159 H   0  0  0  0  0  0  0  0  0  0  0  0
  152.2410  142.8397  157.2361 H   0  0  0  0  0  0  0  0  0  0  0  0
  152.2439  145.3947  157.8222 H   0  0  0  0  0  0  0  0  0  0  0  0
  153.7280  144.6367  158.4428 H   0  0  0  0  0  0  0  0  0  0  0  0
  150.7202  139.2174  158.5360 H   0  0  0  0  0  0  0  0  0  0  0  0
  152.9222  137.4464  157.7894 H   0  0  0  0  0  0  0  0  0  0  0  0
  151.2105  137.2244  157.5061 H   0  0  0  0  0  0  0  0  0  0  0  0
  153.1524  138.9154  155.8674 H   0  0  0  0  0  0  0  0  0  0  0  0
  152.1808  137.5767  155.3099 H   0  0  0  0  0  0  0  0  0  0  0  0
  150.0669  137.9839  154.2610 H   0  0  0  0  0  0  0  0  0  0  0  0
  148.3015  139.6440  153.6204 H   0  0  0  0  0  0  0  0  0  0  0  0
  148.3959  141.9510  154.6084 H   0  0  0  0  0  0  0  0  0  0  0  0
  150.2585  142.4990  156.1964 H   0  0  0  0  0  0  0  0  0  0  0  0
  1  2  2  0  0  0  0
  2  3  1  0  0  0  0
  2 11  1  0  0  0  0
  3  4  1  0  0  0  0
  3 20  1  0  0  0  0
  3 21  1  0  0  0  0
  4  9  1  0  0  0  0
  4  5  1  0  0  0  0
  4 22  1  0  0  0  0
  5  6  1  0  0  0  0
  5 23  1  0  0  0  0
  5 24  1  0  0  0  0
  6 10  1  0  0  0  0
  6  7  1  0  0  0  0
  6 25  1  0  0  0  0
  7  8  1  0  0  0  0
  7 26  1  0  0  0  0
  7 27  1  0  0  0  0
  8  9  1  0  0  0  0
  8 28  1  0  0  0  0
  8 29  1  0  0  0  0
  9 10  1  0  0  0  0
  9 30  1  0  0  0  0
 10 31  1  0  0  0  0
 10 32  1  0  0  0  0
 11 12  1  0  0  0  0
 11 33  1  0  0  0  0
 12 13  1  0  0  0  0
 12 34  1  0  0  0  0
 12 35  1  0  0  0  0
 13 14  1  0  0  0  0
 13 36  1  0  0  0  0
 13 37  1  0  0  0  0
 14 19  1  0  0  0  0
 14 15  2  0  0  0  0
 15 16  1  0  0  0  0
 15 38  1  0  0  0  0
 16 17  2  0  0  0  0
 16 39  1  0  0  0  0
 17 18  1  0  0  0  0
 17 40  1  0  0  0  0
 18 19  2  0  0  0  0
 18 41  1  0  0  0  0
M  END
> <s_m_source_file>
AV-unprocessed.smi

> <i_m_source_file_index>
3263

> <i_lp_mmshare_version>
43012

> <i_f3d_flags>
0

> <s_epik_input>
W0NIMl0xW0NIMl1bQ0BASF0oW0NIMl0yKVtDQEBIXShbQ0gyXVtDQEhdMTIpW0NIMl1DKD1PKVtOSF1bQ0gyXVtDSDJdYzNbY0hdW2NIXVtjSF1bY0hdbjM=

> <s_epik_cmdline>
J2VwaWtfcHl0aG9uJywgJy1waCcsICc3LjAnLCAnLXRuJywgJzgnLCAnLW1hJywgJzIwMCcsICctbWV0YWxfYmluZGluZycsICctaW1hZScsICc8aW5maWxlLm1hZT4nLCAnLW9tYWUnLCAnPG91dGZpbGUubWFlPic=

> <r_epik_Ionization_Penalty>
0.0273541

> <r_epik_Ionization_Penalty_Charging>
0

> <r_epik_Ionization_Penalty_Neutral>
0.0273541

> <r_epik_State_Penalty>
0.0223838

> <r_epik_Charging_Adjusted_Penalty>
0.0223838

> <i_epik_Tot_Q>
0

> <i_epik_Tot_abs_Q>
0

> <r_epik_Metal_State_Penalty>
0.0213927

> <b_epik_Metal_Only>
0

> <s_lp_Force_Field>
OPLS_2005

> <r_lp_Energy>
46.2802

> <b_lp_Chiralities_Consistent>
1

> <s_lp_Variant>
AV-unprocessed.smi:3263-1

> <Gold.Version>
5.8.1

> <Gold.Id.Protein>
6NUR|6NUR_protein|mol2

> <Gold.PLP.Fitness>
49.5201

> <Gold.PLP.PLP>
-45.0899

> <Gold.PLP.part.hbond>
-1.2058

> <Gold.PLP.part.metal>
0.0000

> <Gold.PLP.part.buried>
-2.2652

> <Gold.PLP.part.nonpolar>
-41.8104

> <Gold.PLP.part.repulsive>
0.0936

> <Gold.PLP.ligand.clash>
0.0000

> <Gold.PLP.ligand.torsion>
0.8503

> <Gold.PLP.Chemscore.Hbond>
1.0000

> <Gold.PLP.Chemscore.CHOScore>
1.0000

> <Gold.PLP.Chemscore.Metal>
0.0000

> <Gold.Chemscore.Hbonds>
donor molecule, donor type, donor heavy atom, donor atom, acceptor molecule, acceptor atom, score
      P1  H  7997  8010       L1     1  1.00
      L1  C    18    41       P1  8028  0.66

> <Gold.PLP.Chemscore.Internal.Correction>
0.1308

> <Gold.Rescore>
     Score         DG    S(hbond)    S(metal)    S(lipo)     H(rot)  DE(clash)    DE(int)     intcor
     19.58     -20.87       0.96        0.00     135.95       1.46       0.15       1.14       ----

> <Gold.Chemscore.Fitness>
19.5833

> <Gold.Chemscore.DG>
-20.8730

> <Gold.Chemscore.ZeroCoef>
-5.4800

> <Gold.Chemscore.Hbond>
0.9621

> <Gold.Chemscore.Metal>
0.0000

> <Gold.Chemscore.Lipo>
135.9457

> <Gold.Chemscore.Internal_Hbond>
0.0000

> <Gold.Chemscore.DEClash>
0.1490

> <Gold.Chemscore.DEInternal>
1.1408

> <Gold.Chemscore.Rot>
1.4555

> <Gold.Chemscore.Internal.Correction>
   9.000000E+99

> <Gold.Chemscore.Hbonds>
donor molecule, donor type, donor heavy atom, donor atom, acceptor molecule, acceptor atom, score
      P1  H  7997  8010       L1     1  0.99

> <Gold.Chemscore.Hbond.Weighted>
-3.2134

> <Gold.Chemscore.Metal.Weighted>
-0.0000

> <Gold.Chemscore.Lipo.Weighted>
-15.9056

> <Gold.Chemscore.Internal_Hbond.Weighted>
0.0000

> <Gold.Chemscore.DEClash.Weighted>
0.1490

> <Gold.Chemscore.DEInternal.Weighted>
1.1408

> <Gold.Chemscore.Rot.Weighted>
3.7260

> <Gold.Chemscore.Internal.Correction.Weighted>
   9.000000E+99

> <Gold.Protein.RotatedTorsions>
[ 6907 6896 6895 6894 ] final  -56.13 input  -60.11 | X-H torsion
[ 7974 7965 7964 7962 ] final   57.16 input  175.53 | X-H torsion
[ 8008 7997 7996 7995 ] final   18.67 input   59.86 | X-H torsion
[ 10167 10162 10161 10158 ] final  -99.81 input  -65.29 | X-H torsion
[ 10718 10713 10712 10709 ] final  177.40 input   66.30 | X-H torsion
[ 10763 10752 10751 10750 ] final  130.63 input  -60.55 | X-H torsion
[ 11005 11000 10999 10996 ] final  156.98 input  -57.11 | X-H torsion

> <Gold.Protein.ActiveResidues>
 VAL166  LYS551  ARG553  GLY616  TRP617  ASP618  TYR619  PRO620  LYS621  CYS622 
 ASP623  PHE694  ASN695  SER759  ASP760  ASP761  ALA762  ILE779  LEU786  VAL792 
 PHE793  MET794  SER795  GLU796  ALA797  LYS798  CYS799  TRP800  GLU811  SER814 

> <Gold.Protein.RotatedAtoms>
  150.8193  134.7392  159.6757 H   0  0  0  0  0  0  0  0  0  0  0  0  # atno 6907 bound_to 6896
  152.4310  134.5774  159.9948 H   0  0  0  0  0  0  0  0  0  0  0  0  # atno 6908 bound_to 6896
  151.5963  133.3324  159.3074 H   0  0  0  0  0  0  0  0  0  0  0  0  # atno 6909 bound_to 6896
  145.9320  139.3815  143.0415 H   0  0  0  0  0  0  0  0  0  0  0  0  # atno 7974 bound_to 7965
  154.9094  140.3012  155.5274 H   0  0  0  0  0  0  0  0  0  0  0  0  # atno 8008 bound_to 7997
  156.3015  140.2392  156.4066 H   0  0  0  0  0  0  0  0  0  0  0  0  # atno 8009 bound_to 7997
  154.8441  140.0412  157.1550 H   0  0  0  0  0  0  0  0  0  0  0  0  # atno 8010 bound_to 7997
  140.2585  143.3424  152.0648 H   0  0  0  0  0  0  0  0  0  0  0  0  # atno 10167 bound_to 10162
  156.9059  130.9894  151.3028 H   0  0  0  0  0  0  0  0  0  0  0  0  # atno 10718 bound_to 10713
  153.7612  135.3195  155.3337 H   0  0  0  0  0  0  0  0  0  0  0  0  # atno 10763 bound_to 10752
  154.8229  135.4590  154.0836 H   0  0  0  0  0  0  0  0  0  0  0  0  # atno 10764 bound_to 10752
  153.2068  135.6930  153.8247 H   0  0  0  0  0  0  0  0  0  0  0  0  # atno 10765 bound_to 10752
  140.1726  134.8532  157.2708 H   0  0  0  0  0  0  0  0  0  0  0  0  # atno 11005 bound_to 11000
  145.8413  140.9579  143.0797 LP  0  0  0  0  0  0  0  0  0  0  0  0  # atno 17320 bound_to 7965
  144.6766  140.0288  143.7483 LP  0  0  0  0  0  0  0  0  0  0  0  0  # atno 17321 bound_to 7965
  139.5024  144.6734  151.6187 LP  0  0  0  0  0  0  0  0  0  0  0  0  # atno 17342 bound_to 10162
  140.5985  143.9653  150.6370 LP  0  0  0  0  0  0  0  0  0  0  0  0  # atno 17343 bound_to 10162
  157.5998  130.8504  149.8784 LP  0  0  0  0  0  0  0  0  0  0  0  0  # atno 17370 bound_to 10713
  156.0559  130.3708  150.1092 LP  0  0  0  0  0  0  0  0  0  0  0  0  # atno 17371 bound_to 10713
  140.2360  134.3853  155.7501 LP  0  0  0  0  0  0  0  0  0  0  0  0  # atno 17394 bound_to 11000
  141.2218  133.7240  156.8714 LP  0  0  0  0  0  0  0  0  0  0  0  0  # atno 17395 bound_to 11000

$$$$
