AV-unprocessed.smi:249|AV-procd|sdf|1929|dock3
  -GOLD-   2262021 43D 1   1.00000     0.00000
 Structure written by MMmdl.
 64 67  0  0  0  0  0  0  0  0  2 V2000
  144.4694  131.8554  151.0299 C   0  0  0  0  0  0  0  0  0  0  0  0
  144.3971  133.2946  151.5667 C   0  0  0  0  0  0  0  0  0  0  0  0
  144.5016  133.3785  153.0526 N   0  3  1  0  0  0  0  0  0  0  0  0
  145.8606  132.9885  153.5299 C   0  0  0  0  0  0  0  0  0  0  0  0
  145.9508  132.9529  155.0613 C   0  0  0  0  0  0  0  0  0  0  0  0
  145.5700  134.3172  155.6498 C   0  0  2  0  0  0  0  0  0  0  0  0
  145.6921  134.3538  157.1116 N   0  0  0  0  0  0  0  0  0  0  0  0
  145.0292  133.3371  157.9274 C   0  0  0  0  0  0  0  0  0  0  0  0
  146.8702  134.8372  157.5828 C   0  0  0  0  0  0  0  0  0  0  0  0
  147.0870  134.8896  158.9241 N   0  0  0  0  0  0  0  0  0  0  0  0
  148.2508  135.3395  159.4013 C   0  0  0  0  0  0  0  0  0  0  0  0
  149.3125  135.7834  158.7268 N   0  0  0  0  0  0  0  0  0  0  0  0
  149.0970  135.7520  157.3804 C   0  0  0  0  0  0  0  0  0  0  0  0
  147.9174  135.2892  156.7309 C   0  0  0  0  0  0  0  0  0  0  0  0
  148.0643  135.3917  155.3530 N   0  0  0  0  0  0  0  0  0  0  0  0
  149.2666  135.8738  155.1971 C   0  0  0  0  0  0  0  0  0  0  0  0
  149.9483  136.1499  156.3617 N   0  0  0  0  0  0  0  0  0  0  0  0
  151.3032  136.6746  156.4668 C   0  0  0  0  0  0  0  0  0  0  0  0
  151.4822  138.1284  155.9413 C   0  0  1  0  0  0  0  0  0  0  0  0
  151.3501  138.1279  154.3996 C   0  0  0  0  0  0  0  0  0  0  0  0
  152.1231  137.0943  153.8244 O   0  0  0  0  0  0  0  0  0  0  0  0
  150.4916  139.1629  156.5598 C   0  0  1  0  0  0  0  0  0  0  0  0
  150.3977  139.1987  158.0786 C   0  0  0  0  0  0  0  0  0  0  0  0
  151.6201  140.0159  158.4816 C   0  0  0  0  0  0  0  0  0  0  0  0
  151.8335  140.9206  157.4035 O   0  0  0  0  0  0  0  0  0  0  0  0
  150.9427  140.6149  156.3342 C   0  0  0  0  0  0  0  0  0  0  0  0
  144.1632  134.6906  155.1626 C   0  0  0  0  0  0  0  0  0  0  0  0
  144.0751  134.7009  153.6202 C   0  0  2  0  0  0  0  0  0  0  0  0
  142.6420  135.1061  153.2149 C   0  0  0  0  0  0  0  0  0  0  0  0
  144.2338  131.8356  149.9657 H   0  0  0  0  0  0  0  0  0  0  0  0
  143.7523  131.2085  151.5361 H   0  0  0  0  0  0  0  0  0  0  0  0
  145.4611  131.4180  151.1389 H   0  0  0  0  0  0  0  0  0  0  0  0
  145.1665  133.9142  151.1035 H   0  0  0  0  0  0  0  0  0  0  0  0
  143.4407  133.6854  151.2281 H   0  0  0  0  0  0  0  0  0  0  0  0
  146.1295  132.0000  153.1619 H   0  0  0  0  0  0  0  0  0  0  0  0
  146.5996  133.6845  153.1292 H   0  0  0  0  0  0  0  0  0  0  0  0
  145.2933  132.1721  155.4454 H   0  0  0  0  0  0  0  0  0  0  0  0
  146.9643  132.6833  155.3614 H   0  0  0  0  0  0  0  0  0  0  0  0
  146.2544  135.0502  155.2235 H   0  0  0  0  0  0  0  0  0  0  0  0
  145.0712  133.6033  158.9845 H   0  0  0  0  0  0  0  0  0  0  0  0
  145.5044  132.3636  157.8026 H   0  0  0  0  0  0  0  0  0  0  0  0
  143.9772  133.2406  157.6628 H   0  0  0  0  0  0  0  0  0  0  0  0
  148.3455  135.3439  160.4771 H   0  0  0  0  0  0  0  0  0  0  0  0
  149.6871  136.0569  154.2189 H   0  0  0  0  0  0  0  0  0  0  0  0
  151.5654  136.6120  157.5231 H   0  0  0  0  0  0  0  0  0  0  0  0
  151.9906  136.0013  155.9528 H   0  0  0  0  0  0  0  0  0  0  0  0
  152.4917  138.4677  156.1707 H   0  0  0  0  0  0  0  0  0  0  0  0
  150.3078  138.0076  154.1023 H   0  0  0  0  0  0  0  0  0  0  0  0
  151.6923  139.0634  153.9607 H   0  0  0  0  0  0  0  0  0  0  0  0
  151.8637  136.9906  152.9215 H   0  0  0  0  0  0  0  0  0  0  0  0
  149.5012  138.9954  156.1346 H   0  0  0  0  0  0  0  0  0  0  0  0
  149.4972  139.7435  158.3658 H   0  0  0  0  0  0  0  0  0  0  0  0
  150.3337  138.2316  158.5665 H   0  0  0  0  0  0  0  0  0  0  0  0
  151.4734  140.5441  159.4238 H   0  0  0  0  0  0  0  0  0  0  0  0
  152.4969  139.3753  158.5830 H   0  0  0  0  0  0  0  0  0  0  0  0
  151.4186  140.7984  155.3722 H   0  0  0  0  0  0  0  0  0  0  0  0
  150.0855  141.2864  156.4040 H   0  0  0  0  0  0  0  0  0  0  0  0
  143.4252  133.9901  155.5543 H   0  0  0  0  0  0  0  0  0  0  0  0
  143.8980  135.6732  155.5556 H   0  0  0  0  0  0  0  0  0  0  0  0
  144.7598  135.4636  153.2452 H   0  0  0  0  0  0  0  0  0  0  0  0
  142.3111  135.9795  153.7780 H   0  0  0  0  0  0  0  0  0  0  0  0
  141.9299  134.3034  153.4086 H   0  0  0  0  0  0  0  0  0  0  0  0
  142.5690  135.3844  152.1642 H   0  0  0  0  0  0  0  0  0  0  0  0
  143.8572  132.6942  153.4225 H   0  0  0  0  0  0  0  0  0  0  0  0
  1  2  1  0  0  0  0
  1 30  1  0  0  0  0
  1 31  1  0  0  0  0
  1 32  1  0  0  0  0
  2  3  1  0  0  0  0
  2 33  1  0  0  0  0
  2 34  1  0  0  0  0
  3 28  1  0  0  0  0
  3  4  1  0  0  0  0
  3 64  1  0  0  0  0
  4  5  1  0  0  0  0
  4 35  1  0  0  0  0
  4 36  1  0  0  0  0
  5  6  1  0  0  0  0
  5 37  1  0  0  0  0
  5 38  1  0  0  0  0
  6  7  1  0  0  0  0
  6 27  1  0  0  0  0
  6 39  1  0  0  0  0
  7  8  1  0  0  0  0
  7  9  1  0  0  0  0
  8 40  1  0  0  0  0
  8 41  1  0  0  0  0
  8 42  1  0  0  0  0
  9 14  1  0  0  0  0
  9 10  2  0  0  0  0
 10 11  1  0  0  0  0
 11 12  2  0  0  0  0
 11 43  1  0  0  0  0
 12 13  1  0  0  0  0
 13 17  1  0  0  0  0
 13 14  2  0  0  0  0
 14 15  1  0  0  0  0
 15 16  2  0  0  0  0
 16 17  1  0  0  0  0
 16 44  1  0  0  0  0
 17 18  1  0  0  0  0
 18 19  1  0  0  0  0
 18 45  1  0  0  0  0
 18 46  1  0  0  0  0
 19 20  1  0  0  0  0
 19 22  1  0  0  0  0
 19 47  1  0  0  0  0
 20 21  1  0  0  0  0
 20 48  1  0  0  0  0
 20 49  1  0  0  0  0
 21 50  1  0  0  0  0
 22 26  1  0  0  0  0
 22 23  1  0  0  0  0
 22 51  1  0  0  0  0
 23 24  1  0  0  0  0
 23 52  1  0  0  0  0
 23 53  1  0  0  0  0
 24 25  1  0  0  0  0
 24 54  1  0  0  0  0
 24 55  1  0  0  0  0
 25 26  1  0  0  0  0
 26 56  1  0  0  0  0
 26 57  1  0  0  0  0
 27 28  1  0  0  0  0
 27 58  1  0  0  0  0
 27 59  1  0  0  0  0
 28 29  1  0  0  0  0
 28 60  1  0  0  0  0
 29 61  1  0  0  0  0
 29 62  1  0  0  0  0
 29 63  1  0  0  0  0
M  CHG  1   3   1
M  END
> <s_m_source_file>
AV-unprocessed.smi

> <i_m_source_file_index>
249

> <i_lp_mmshare_version>
43012

> <i_f3d_flags>
0

> <s_epik_input>
W0NIM11bQ0gyXU4xW0NIMl1bQ0gyXVtDQEhdKFtDSDJdW0NASF0xW0NIM10pTihbQ0gzXSljKG5bY0hdbjIpYyhjMjMpbltjSF1uM1tDSDJdW0NASF0oW0NIMl1bT0hdKVtDQEBIXTRbQ0gyXVtDSDJdT1tDSDJdNA==

> <s_epik_cmdline>
J2VwaWtfcHl0aG9uJywgJy1waCcsICc3LjAnLCAnLXRuJywgJzgnLCAnLW1hJywgJzIwMCcsICctbWV0YWxfYmluZGluZycsICctaW1hZScsICc8aW5maWxlLm1hZT4nLCAnLW9tYWUnLCAnPG91dGZpbGUubWFlPic=

> <r_lp_tautomer_probability>
1

> <r_epik_Ionization_Penalty>
0.00294688

> <r_epik_Ionization_Penalty_Charging>
0.00169971

> <r_epik_Ionization_Penalty_Neutral>
0.00124717

> <r_epik_State_Penalty>
-0

> <r_epik_Charging_Adjusted_Penalty>
0.00169971

> <i_epik_Tot_Q>
1

> <i_epik_Tot_abs_Q>
1

> <r_epik_Metal_State_Penalty>
-0

> <b_epik_Metal_Only>
0

> <s_lp_Force_Field>
OPLS_2005

> <r_lp_Energy>
57.6505

> <b_lp_Chiralities_Consistent>
1

> <s_lp_Variant>
AV-unprocessed.smi:249-32

> <Gold.Version>
5.8.1

> <Gold.Id.Protein>
6NUR|6NUR_protein|mol2

> <Gold.PLP.Fitness>
46.1152

> <Gold.PLP.PLP>
-29.4888

> <Gold.PLP.part.hbond>
-4.0000

> <Gold.PLP.part.metal>
0.0000

> <Gold.PLP.part.buried>
-6.9383

> <Gold.PLP.part.nonpolar>
-19.2978

> <Gold.PLP.part.repulsive>
0.0688

> <Gold.PLP.ligand.clash>
0.6490

> <Gold.PLP.ligand.torsion>
0.9259

> <Gold.PLP.Chemscore.Hbond>
4.9920

> <Gold.PLP.Chemscore.CHOScore>
1.0000

> <Gold.PLP.Chemscore.Metal>
0.0000

> <Gold.Chemscore.Hbonds>
donor molecule, donor type, donor heavy atom, donor atom, acceptor molecule, acceptor atom, score
      L1  H     3    64       P1 10957  2.00
      L1  H    21    50       P1  7949  1.00
      P1  H  6896  6907       L1    12  1.00
      P1  H 10752 10765       L1    21  1.00
      L1  C    16    44       P1  7948  1.00

> <Gold.PLP.Chemscore.Internal.Correction>
1.1511

> <Gold.Rescore>
     Score         DG    S(hbond)    S(metal)    S(lipo)     H(rot)  DE(clash)    DE(int)     intcor
     17.67     -20.23       4.23        0.00      63.23       2.65       0.02       2.54       ----

> <Gold.Chemscore.Fitness>
17.6715

> <Gold.Chemscore.DG>
-20.2307

> <Gold.Chemscore.ZeroCoef>
-5.4800

> <Gold.Chemscore.Hbond>
4.2336

> <Gold.Chemscore.Metal>
0.0000

> <Gold.Chemscore.Lipo>
63.2346

> <Gold.Chemscore.Internal_Hbond>
0.0000

> <Gold.Chemscore.DEClash>
0.0234

> <Gold.Chemscore.DEInternal>
2.5358

> <Gold.Chemscore.Rot>
2.6515

> <Gold.Chemscore.Internal.Correction>
   9.000000E+99

> <Gold.Chemscore.Hbonds>
donor molecule, donor type, donor heavy atom, donor atom, acceptor molecule, acceptor atom, score
      L1  H     3    64       P1 10957  0.47
      L1  H    21    50       P1  7949  0.97
      P1  H  6896  6907       L1    12  0.28
      P1  H 10752 10765       L1    21  0.43

> <Gold.Chemscore.Hbond.Weighted>
-14.1403

> <Gold.Chemscore.Metal.Weighted>
-0.0000

> <Gold.Chemscore.Lipo.Weighted>
-7.3985

> <Gold.Chemscore.Internal_Hbond.Weighted>
0.0000

> <Gold.Chemscore.DEClash.Weighted>
0.0234

> <Gold.Chemscore.DEInternal.Weighted>
2.5358

> <Gold.Chemscore.Rot.Weighted>
6.7880

> <Gold.Chemscore.Internal.Correction.Weighted>
   9.000000E+99

> <Gold.Protein.RotatedTorsions>
[ 6907 6896 6895 6894 ] final  -51.01 input  -60.11 | X-H torsion
[ 7974 7965 7964 7962 ] final  135.60 input  175.53 | X-H torsion
[ 8008 7997 7996 7995 ] final  137.89 input   59.86 | X-H torsion
[ 10167 10162 10161 10158 ] final   -5.78 input  -65.29 | X-H torsion
[ 10718 10713 10712 10709 ] final   10.33 input   66.30 | X-H torsion
[ 10763 10752 10751 10750 ] final  153.97 input  -60.55 | X-H torsion
[ 11005 11000 10999 10996 ] final -179.03 input  -57.11 | X-H torsion

> <Gold.Protein.ActiveResidues>
 VAL166  LYS551  ARG553  GLY616  TRP617  ASP618  TYR619  PRO620  LYS621  CYS622 
 ASP623  PHE694  ASN695  SER759  ASP760  ASP761  ALA762  ILE779  LEU786  VAL792 
 PHE793  MET794  SER795  GLU796  ALA797  LYS798  CYS799  TRP800  GLU811  SER814 

> <Gold.Protein.RotatedAtoms>
  150.8652  134.8013  159.7112 H   0  0  0  0  0  0  0  0  0  0  0  0  # atno 6907 bound_to 6896
  152.4676  134.5035  159.9742 H   0  0  0  0  0  0  0  0  0  0  0  0  # atno 6908 bound_to 6896
  151.5133  133.3442  159.2924 H   0  0  0  0  0  0  0  0  0  0  0  0  # atno 6909 bound_to 6896
  144.9648  139.4671  143.5462 H   0  0  0  0  0  0  0  0  0  0  0  0  # atno 7974 bound_to 7965
  156.3000  140.2408  156.3983 H   0  0  0  0  0  0  0  0  0  0  0  0  # atno 8008 bound_to 7997
  154.8550  140.0422  157.1649 H   0  0  0  0  0  0  0  0  0  0  0  0  # atno 8009 bound_to 7997
  154.8957  140.2969  155.5349 H   0  0  0  0  0  0  0  0  0  0  0  0  # atno 8010 bound_to 7997
  140.6974  143.6270  150.8559 H   0  0  0  0  0  0  0  0  0  0  0  0  # atno 10167 bound_to 10162
  156.9794  130.6000  149.5675 H   0  0  0  0  0  0  0  0  0  0  0  0  # atno 10718 bound_to 10713
  154.1447  135.2818  155.3151 H   0  0  0  0  0  0  0  0  0  0  0  0  # atno 10763 bound_to 10752
  154.6261  135.5451  153.7632 H   0  0  0  0  0  0  0  0  0  0  0  0  # atno 10764 bound_to 10752
  153.0239  135.6451  154.1593 H   0  0  0  0  0  0  0  0  0  0  0  0  # atno 10765 bound_to 10752
  140.4232  134.6587  157.4674 H   0  0  0  0  0  0  0  0  0  0  0  0  # atno 11005 bound_to 11000
  146.3364  139.8821  142.8822 LP  0  0  0  0  0  0  0  0  0  0  0  0  # atno 17320 bound_to 7965
  145.2647  141.0089  143.3806 LP  0  0  0  0  0  0  0  0  0  0  0  0  # atno 17321 bound_to 7965
  139.9989  143.5766  152.2883 LP  0  0  0  0  0  0  0  0  0  0  0  0  # atno 17342 bound_to 10162
  139.6448  144.7657  151.2266 LP  0  0  0  0  0  0  0  0  0  0  0  0  # atno 17343 bound_to 10162
  156.0250  130.5344  150.8382 LP  0  0  0  0  0  0  0  0  0  0  0  0  # atno 17370 bound_to 10713
  157.5536  131.0944  150.9660 LP  0  0  0  0  0  0  0  0  0  0  0  0  # atno 17371 bound_to 10713
  140.0186  134.6582  155.9273 LP  0  0  0  0  0  0  0  0  0  0  0  0  # atno 17394 bound_to 11000
  141.1776  133.6542  156.4889 LP  0  0  0  0  0  0  0  0  0  0  0  0  # atno 17395 bound_to 11000

$$$$
