AV-unprocessed.smi:8|AV-procd|sdf|48|dock7
  -GOLD-   2262015163D 1   1.00000     0.00000
 Structure written by MMmdl.
 34 35  0  0  0  0  0  0  0  0  3 V2000
  149.8705  144.5912  159.9351 C   0  0  0  0  0  0  0  0  0  0  0  0
  151.1948  144.6330  159.1597 C   0  0  0  0  0  0  0  0  0  0  0  0
  151.6563  143.2825  158.8119 N   0  0  0  0  0  0  0  0  0  0  0  0
  150.9491  142.5924  157.8132 C   0  0  0  0  0  0  0  0  0  0  0  0
  151.2910  141.3519  157.4080 C   0  0  0  0  0  0  0  0  0  0  0  0
  150.5080  140.6004  156.3422 C   0  0  0  0  0  0  0  0  0  0  0  0
  150.0122  141.4708  155.2831 N   0  0  0  0  0  0  0  0  0  0  0  0
  148.7528  141.2125  154.7232 C   0  0  0  0  0  0  0  0  0  0  0  0
  147.8231  142.1949  154.7123 N   0  0  0  0  0  0  0  0  0  0  0  0
  146.6205  141.9602  154.1744 C   0  0  0  0  0  0  0  0  0  0  0  0
  146.2810  140.7817  153.6322 N   0  3  0  0  0  0  0  0  0  0  0  0
  147.1813  139.7692  153.6181 C   0  0  0  0  0  0  0  0  0  0  0  0
  148.4666  139.9471  154.1677 C   0  0  0  0  0  0  0  0  0  0  0  0
  149.4800  138.8170  154.1587 C   0  0  0  0  0  0  0  0  0  0  0  0
  152.4385  140.7216  158.0710 C   0  0  0  0  0  0  0  0  0  0  0  0
  152.7771  139.5818  157.7527 O   0  0  0  0  0  0  0  0  0  0  0  0
  153.0977  141.4375  159.0276 N   0  5  0  0  0  0  0  0  0  0  0  0
  152.7380  142.7012  159.4085 C   0  0  0  0  0  0  0  0  0  0  0  0
  153.3556  143.3307  160.2681 O   0  0  0  0  0  0  0  0  0  0  0  0
  149.5457  145.5974  160.2003 H   0  0  0  0  0  0  0  0  0  0  0  0
  149.9718  144.0199  160.8582 H   0  0  0  0  0  0  0  0  0  0  0  0
  149.0786  144.1328  159.3420 H   0  0  0  0  0  0  0  0  0  0  0  0
  151.0817  145.2457  158.2640 H   0  0  0  0  0  0  0  0  0  0  0  0
  151.9499  145.1437  159.7587 H   0  0  0  0  0  0  0  0  0  0  0  0
  150.1149  143.1357  157.3937 H   0  0  0  0  0  0  0  0  0  0  0  0
  151.1482  139.8287  155.9125 H   0  0  0  0  0  0  0  0  0  0  0  0
  149.6653  140.0924  156.8130 H   0  0  0  0  0  0  0  0  0  0  0  0
  150.7102  141.8538  154.6610 H   0  0  0  0  0  0  0  0  0  0  0  0
  145.8695  142.7363  154.1612 H   0  0  0  0  0  0  0  0  0  0  0  0
  146.8416  138.8485  153.1665 H   0  0  0  0  0  0  0  0  0  0  0  0
  149.0670  137.9197  153.6969 H   0  0  0  0  0  0  0  0  0  0  0  0
  149.7797  138.5669  155.1771 H   0  0  0  0  0  0  0  0  0  0  0  0
  150.3694  139.1073  153.5989 H   0  0  0  0  0  0  0  0  0  0  0  0
  145.3537  140.6394  153.2309 H   0  0  0  0  0  0  0  0  0  0  0  0
  1  2  1  0  0  0  0
  1 20  1  0  0  0  0
  1 21  1  0  0  0  0
  1 22  1  0  0  0  0
  2  3  1  0  0  0  0
  2 23  1  0  0  0  0
  2 24  1  0  0  0  0
  3 18  1  0  0  0  0
  3  4  1  0  0  0  0
  4  5  2  0  0  0  0
  4 25  1  0  0  0  0
  5  6  1  0  0  0  0
  5 15  1  0  0  0  0
  6  7  1  0  0  0  0
  6 26  1  0  0  0  0
  6 27  1  0  0  0  0
  7  8  1  0  0  0  0
  7 28  1  0  0  0  0
  8 13  1  0  0  0  0
  8  9  2  0  0  0  0
  9 10  1  0  0  0  0
 10 11  2  0  0  0  0
 10 29  1  0  0  0  0
 11 12  1  0  0  0  0
 11 34  1  0  0  0  0
 12 13  2  0  0  0  0
 12 30  1  0  0  0  0
 13 14  1  0  0  0  0
 14 31  1  0  0  0  0
 14 32  1  0  0  0  0
 14 33  1  0  0  0  0
 15 16  2  0  0  0  0
 15 17  1  0  0  0  0
 17 18  1  0  0  0  0
 18 19  2  0  0  0  0
M  CHG  1  11   1
M  CHG  1  17  -1
M  END
> <s_m_source_file>
AV-unprocessed.smi

> <i_m_source_file_index>
8

> <i_lp_mmshare_version>
43012

> <i_f3d_flags>
0

> <s_epik_input>
W0NIM11bQ0gyXW4xW2NIXWMoYyg9TylbbkhdYzE9TylbQ0gyXVtOSF1jMm5bY0hdbltjSF1jMltDSDNd

> <s_epik_cmdline>
J2VwaWtfcHl0aG9uJywgJy1waCcsICc3LjAnLCAnLXRuJywgJzgnLCAnLW1hJywgJzIwMCcsICctbWV0YWxfYmluZGluZycsICctaW1hZScsICc8aW5maWxlLm1hZT4nLCAnLW9tYWUnLCAnPG91dGZpbGUubWFlPic=

> <r_lp_tautomer_probability>
0.998874

> <r_epik_Ionization_Penalty>
7.33654

> <r_epik_Ionization_Penalty_Charging>
3.33717

> <r_epik_Ionization_Penalty_Neutral>
3.99937

> <r_epik_State_Penalty>
6.31594

> <r_epik_Charging_Adjusted_Penalty>
9.65311

> <i_epik_Tot_Q>
0

> <i_epik_Tot_abs_Q>
2

> <r_epik_Metal_State_Penalty>
2.94778

> <b_epik_Metal_Only>
1

> <s_lp_Force_Field>
OPLS_2005

> <r_lp_Energy>
21.5879

> <b_lp_Chiralities_Consistent>
1

> <s_lp_Variant>
AV-unprocessed.smi:8-4

> <Gold.Version>
5.8.1

> <Gold.Id.Protein>
6NUR|6NUR_protein|mol2

> <Gold.PLP.Fitness>
43.9699

> <Gold.PLP.PLP>
-34.3847

> <Gold.PLP.part.hbond>
-2.0000

> <Gold.PLP.part.metal>
0.0000

> <Gold.PLP.part.buried>
-3.7684

> <Gold.PLP.part.nonpolar>
-29.1138

> <Gold.PLP.part.repulsive>
1.1300

> <Gold.PLP.ligand.clash>
0.0000

> <Gold.PLP.ligand.torsion>
1.1367

> <Gold.PLP.Chemscore.Hbond>
3.0000

> <Gold.PLP.Chemscore.CHOScore>
0.9486

> <Gold.PLP.Chemscore.Metal>
0.0000

> <Gold.Chemscore.Hbonds>
donor molecule, donor type, donor heavy atom, donor atom, acceptor molecule, acceptor atom, score
      L1  H    11    34       P1 10175  2.00
      P1  H  7997  8010       L1    16  0.85
      L1  C     4    25       P1  8028  0.72

> <Gold.PLP.Chemscore.Internal.Correction>
0.0128

> <Gold.Rescore>
     Score         DG    S(hbond)    S(metal)    S(lipo)     H(rot)  DE(clash)    DE(int)     intcor
     12.19     -13.40       1.82        0.00      53.68       1.73       0.09       1.11       ----

> <Gold.Chemscore.Fitness>
12.1923

> <Gold.Chemscore.DG>
-13.3972

> <Gold.Chemscore.ZeroCoef>
-5.4800

> <Gold.Chemscore.Hbond>
1.8153

> <Gold.Chemscore.Metal>
0.0000

> <Gold.Chemscore.Lipo>
53.6786

> <Gold.Chemscore.Internal_Hbond>
0.0000

> <Gold.Chemscore.DEClash>
0.0929

> <Gold.Chemscore.DEInternal>
1.1119

> <Gold.Chemscore.Rot>
1.7290

> <Gold.Chemscore.Internal.Correction>
   9.000000E+99

> <Gold.Chemscore.Hbonds>
donor molecule, donor type, donor heavy atom, donor atom, acceptor molecule, acceptor atom, score
      L1  H    11    34       P1 10175  0.88
      P1  H  7997  8010       L1    16  0.14

> <Gold.Chemscore.Hbond.Weighted>
-6.0631

> <Gold.Chemscore.Metal.Weighted>
-0.0000

> <Gold.Chemscore.Lipo.Weighted>
-6.2804

> <Gold.Chemscore.Internal_Hbond.Weighted>
0.0000

> <Gold.Chemscore.DEClash.Weighted>
0.0929

> <Gold.Chemscore.DEInternal.Weighted>
1.1119

> <Gold.Chemscore.Rot.Weighted>
4.4263

> <Gold.Chemscore.Internal.Correction.Weighted>
   9.000000E+99

> <Gold.Protein.RotatedTorsions>
[ 6907 6896 6895 6894 ] final  -16.54 input  -60.11 | X-H torsion
[ 7974 7965 7964 7962 ] final   34.60 input  175.53 | X-H torsion
[ 8008 7997 7996 7995 ] final   40.11 input   59.86 | X-H torsion
[ 10167 10162 10161 10158 ] final -134.83 input  -65.29 | X-H torsion
[ 10718 10713 10712 10709 ] final -169.31 input   66.30 | X-H torsion
[ 10763 10752 10751 10750 ] final   10.58 input  -60.55 | X-H torsion
[ 11005 11000 10999 10996 ] final   57.07 input  -57.11 | X-H torsion

> <Gold.Protein.ActiveResidues>
 VAL166  LYS551  ARG553  GLY616  TRP617  ASP618  TYR619  PRO620  LYS621  CYS622 
 ASP623  PHE694  ASN695  SER759  ASP760  ASP761  ALA762  ILE779  LEU786  VAL792 
 PHE793  MET794  SER795  GLU796  ALA797  LYS798  CYS799  TRP800  GLU811  SER814 

> <Gold.Protein.RotatedAtoms>
  151.3070  135.0784  159.9258 H   0  0  0  0  0  0  0  0  0  0  0  0  # atno 6907 bound_to 6896
  152.5286  133.9775  159.7801 H   0  0  0  0  0  0  0  0  0  0  0  0  # atno 6908 bound_to 6896
  151.0072  133.5948  159.2717 H   0  0  0  0  0  0  0  0  0  0  0  0  # atno 6909 bound_to 6896
  146.1342  139.6249  142.9206 H   0  0  0  0  0  0  0  0  0  0  0  0  # atno 7974 bound_to 7965
  155.2477  140.3350  155.4285 H   0  0  0  0  0  0  0  0  0  0  0  0  # atno 8008 bound_to 7997
  156.2229  140.1816  156.7478 H   0  0  0  0  0  0  0  0  0  0  0  0  # atno 8009 bound_to 7997
  154.5853  140.0647  156.9147 H   0  0  0  0  0  0  0  0  0  0  0  0  # atno 8010 bound_to 7997
  139.8840  143.6803  152.2623 H   0  0  0  0  0  0  0  0  0  0  0  0  # atno 10167 bound_to 10162
  156.7096  130.9228  151.3088 H   0  0  0  0  0  0  0  0  0  0  0  0  # atno 10718 bound_to 10713
  153.2017  135.6857  153.8223 H   0  0  0  0  0  0  0  0  0  0  0  0  # atno 10763 bound_to 10752
  153.7487  135.3227  155.3318 H   0  0  0  0  0  0  0  0  0  0  0  0  # atno 10764 bound_to 10752
  154.8175  135.4675  154.0786 H   0  0  0  0  0  0  0  0  0  0  0  0  # atno 10765 bound_to 10752
  140.0481  134.5777  155.9298 H   0  0  0  0  0  0  0  0  0  0  0  0  # atno 11005 bound_to 11000
  145.5194  141.0432  143.2444 LP  0  0  0  0  0  0  0  0  0  0  0  0  # atno 17320 bound_to 7965
  144.7722  139.6710  143.7190 LP  0  0  0  0  0  0  0  0  0  0  0  0  # atno 17321 bound_to 7965
  139.7169  144.7610  151.1018 LP  0  0  0  0  0  0  0  0  0  0  0  0  # atno 17342 bound_to 10162
  140.7739  143.5257  150.9483 LP  0  0  0  0  0  0  0  0  0  0  0  0  # atno 17343 bound_to 10162
  157.6941  130.9264  150.0595 LP  0  0  0  0  0  0  0  0  0  0  0  0  # atno 17370 bound_to 10713
  156.1670  130.3645  149.9218 LP  0  0  0  0  0  0  0  0  0  0  0  0  # atno 17371 bound_to 10713
  141.1917  133.6572  156.5467 LP  0  0  0  0  0  0  0  0  0  0  0  0  # atno 17394 bound_to 11000
  140.3962  134.7397  157.4752 LP  0  0  0  0  0  0  0  0  0  0  0  0  # atno 17395 bound_to 11000

$$$$
