AV-unprocessed.smi:1830|AV-procd|sdf|7442|dock8
  -GOLD-   22720 9133D 1   1.00000     0.00000
 Structure written by MMmdl.
 52 55  0  0  0  0  0  0  0  0  1 V2000
  149.6677  135.2125  156.3662 O   0  0  0  0  0  0  0  0  0  0  0  0
  149.3944  135.5431  155.2129 C   0  0  0  0  0  0  0  0  0  0  0  0
  149.4031  136.8120  154.7814 N   0  0  0  0  0  0  0  0  0  0  0  0
  149.6646  137.9842  155.6100 C   0  0  0  0  0  0  0  0  0  0  0  0
  150.8671  138.7841  155.0691 C   0  0  2  0  0  0  0  0  0  0  0  0
  151.9152  139.1038  156.1615 C   0  0  0  0  0  0  0  0  0  0  0  0
  151.4469  140.1721  157.0248 N   0  0  0  0  0  0  0  0  0  0  0  0
  152.3652  140.6417  158.0359 C   0  0  0  0  0  0  0  0  0  0  0  0
  151.7778  141.9906  158.4860 C   0  0  0  0  0  0  0  0  0  0  0  0
  150.8569  142.4170  157.3217 C   0  0  0  0  0  0  0  0  0  0  0  0
  151.1313  141.3487  156.2617 C   0  0  2  0  0  0  0  0  0  0  0  0
  150.0156  141.0558  155.2510 C   0  0  0  0  0  0  0  0  0  0  0  0
  150.4473  139.9867  154.4036 O   0  0  0  0  0  0  0  0  0  0  0  0
  149.0606  134.7011  154.2207 N   0  0  0  0  0  0  0  0  0  0  0  0
  148.9859  133.2782  154.2424 C   0  0  0  0  0  0  0  0  0  0  0  0
  149.8191  132.4801  155.0647 C   0  0  0  0  0  0  0  0  0  0  0  0
  149.6636  131.0827  155.0511 C   0  0  0  0  0  0  0  0  0  0  0  0
  148.6726  130.5300  154.2221 C   0  0  0  0  0  0  0  0  0  0  0  0
  147.8611  131.2758  153.4460 N   0  0  0  0  0  0  0  0  0  0  0  0
  147.9996  132.6241  153.4543 C   0  0  0  0  0  0  0  0  0  0  0  0
  147.1492  133.3735  152.6135 N   0  0  0  0  0  0  0  0  0  0  0  0
  146.3944  132.5627  151.6620 C   0  0  0  0  0  0  0  0  0  0  0  0
  145.0347  133.2439  151.4981 C   0  0  0  0  0  0  0  0  0  0  0  0
  144.8396  133.9438  152.8371 C   0  0  0  0  0  0  0  0  0  0  0  0
  146.2598  134.3797  153.1932 C   0  0  0  0  0  0  0  0  0  0  0  0
  149.1731  136.9848  153.8140 H   0  0  0  0  0  0  0  0  0  0  0  0
  148.7808  138.6169  155.7015 H   0  0  0  0  0  0  0  0  0  0  0  0
  149.8851  137.6330  156.6181 H   0  0  0  0  0  0  0  0  0  0  0  0
  151.3543  138.1659  154.3140 H   0  0  0  0  0  0  0  0  0  0  0  0
  152.1383  138.2135  156.7503 H   0  0  0  0  0  0  0  0  0  0  0  0
  152.8491  139.4037  155.6840 H   0  0  0  0  0  0  0  0  0  0  0  0
  152.4603  139.9297  158.8562 H   0  0  0  0  0  0  0  0  0  0  0  0
  153.3553  140.7947  157.6030 H   0  0  0  0  0  0  0  0  0  0  0  0
  151.1998  141.8780  159.4040 H   0  0  0  0  0  0  0  0  0  0  0  0
  152.5660  142.7203  158.6730 H   0  0  0  0  0  0  0  0  0  0  0  0
  149.8131  142.3889  157.6380 H   0  0  0  0  0  0  0  0  0  0  0  0
  151.0752  143.4215  156.9582 H   0  0  0  0  0  0  0  0  0  0  0  0
  152.0192  141.6561  155.7047 H   0  0  0  0  0  0  0  0  0  0  0  0
  149.0871  140.7909  155.7571 H   0  0  0  0  0  0  0  0  0  0  0  0
  149.8086  141.9347  154.6403 H   0  0  0  0  0  0  0  0  0  0  0  0
  148.9300  135.1211  153.3120 H   0  0  0  0  0  0  0  0  0  0  0  0
  150.5625  132.9100  155.7173 H   0  0  0  0  0  0  0  0  0  0  0  0
  150.2864  130.4506  155.6665 H   0  0  0  0  0  0  0  0  0  0  0  0
  148.5232  129.4610  154.1851 H   0  0  0  0  0  0  0  0  0  0  0  0
  146.9156  132.4852  150.7074 H   0  0  0  0  0  0  0  0  0  0  0  0
  146.2613  131.5527  152.0533 H   0  0  0  0  0  0  0  0  0  0  0  0
  145.0847  133.9847  150.6989 H   0  0  0  0  0  0  0  0  0  0  0  0
  144.2346  132.5426  151.2605 H   0  0  0  0  0  0  0  0  0  0  0  0
  144.1385  134.7772  152.7876 H   0  0  0  0  0  0  0  0  0  0  0  0
  144.4723  133.2326  153.5783 H   0  0  0  0  0  0  0  0  0  0  0  0
  146.3792  134.5298  154.2662 H   0  0  0  0  0  0  0  0  0  0  0  0
  146.4855  135.3332  152.7148 H   0  0  0  0  0  0  0  0  0  0  0  0
  1  2  2  0  0  0  0
  2  3  1  0  0  0  0
  2 14  1  0  0  0  0
  3  4  1  0  0  0  0
  3 26  1  0  0  0  0
  4  5  1  0  0  0  0
  4 27  1  0  0  0  0
  4 28  1  0  0  0  0
  5 13  1  0  0  0  0
  5  6  1  0  0  0  0
  5 29  1  0  0  0  0
  6  7  1  0  0  0  0
  6 30  1  0  0  0  0
  6 31  1  0  0  0  0
  7 11  1  0  0  0  0
  7  8  1  0  0  0  0
  8  9  1  0  0  0  0
  8 32  1  0  0  0  0
  8 33  1  0  0  0  0
  9 10  1  0  0  0  0
  9 34  1  0  0  0  0
  9 35  1  0  0  0  0
 10 11  1  0  0  0  0
 10 36  1  0  0  0  0
 10 37  1  0  0  0  0
 11 12  1  0  0  0  0
 11 38  1  0  0  0  0
 12 13  1  0  0  0  0
 12 39  1  0  0  0  0
 12 40  1  0  0  0  0
 14 15  1  0  0  0  0
 14 41  1  0  0  0  0
 15 20  1  0  0  0  0
 15 16  2  0  0  0  0
 16 17  1  0  0  0  0
 16 42  1  0  0  0  0
 17 18  2  0  0  0  0
 17 43  1  0  0  0  0
 18 19  1  0  0  0  0
 18 44  1  0  0  0  0
 19 20  2  0  0  0  0
 20 21  1  0  0  0  0
 21 25  1  0  0  0  0
 21 22  1  0  0  0  0
 22 23  1  0  0  0  0
 22 45  1  0  0  0  0
 22 46  1  0  0  0  0
 23 24  1  0  0  0  0
 23 47  1  0  0  0  0
 23 48  1  0  0  0  0
 24 25  1  0  0  0  0
 24 49  1  0  0  0  0
 24 50  1  0  0  0  0
 25 51  1  0  0  0  0
 25 52  1  0  0  0  0
M  END
> <s_m_source_file>
AV-unprocessed.smi

> <i_m_source_file_index>
1830

> <i_lp_mmshare_version>
43012

> <i_f3d_flags>
0

> <s_epik_input>
W0NIMl0xW0NIMl1bQ0gyXVtDQEhdKE4xMilbQ0gyXU9bQ0BASF0oW0NIMl0yKVtDSDJdW05IXUMoPU8pW05IXWMzW2NIXVtjSF1bY0hdbmMzTjRbQ0gyXVtDSDJdW0NIMl1bQ0gyXTQ=

> <s_epik_cmdline>
J2VwaWtfcHl0aG9uJywgJy1waCcsICc3LjAnLCAnLXRuJywgJzgnLCAnLW1hJywgJzIwMCcsICctbWV0YWxfYmluZGluZycsICctaW1hZScsICc8aW5maWxlLm1hZT4nLCAnLW9tYWUnLCAnPG91dGZpbGUubWFlPic=

> <r_lp_tautomer_probability>
1

> <r_epik_Ionization_Penalty>
1.16487

> <r_epik_Ionization_Penalty_Charging>
0

> <r_epik_Ionization_Penalty_Neutral>
1.16487

> <r_epik_State_Penalty>
1.21807

> <r_epik_Charging_Adjusted_Penalty>
1.21807

> <i_epik_Tot_Q>
0

> <i_epik_Tot_abs_Q>
0

> <r_epik_Metal_State_Penalty>
1.19922

> <b_epik_Metal_Only>
0

> <s_lp_Force_Field>
OPLS_2005

> <r_lp_Energy>
77.9026

> <b_lp_Chiralities_Consistent>
1

> <s_lp_Variant>
AV-unprocessed.smi:1830-11

> <Gold.Version>
5.8.1

> <Gold.Id.Protein>
6NUR|6NUR_protein|mol2

> <Gold.PLP.Fitness>
48.1430

> <Gold.PLP.PLP>
-41.3343

> <Gold.PLP.part.hbond>
-3.0000

> <Gold.PLP.part.metal>
0.0000

> <Gold.PLP.part.buried>
-5.5107

> <Gold.PLP.part.nonpolar>
-33.5286

> <Gold.PLP.part.repulsive>
0.6964

> <Gold.PLP.ligand.clash>
0.0000

> <Gold.PLP.ligand.torsion>
1.0126

> <Gold.PLP.Chemscore.Hbond>
2.8960

> <Gold.PLP.Chemscore.CHOScore>
0.0000

> <Gold.PLP.Chemscore.Metal>
0.0000

> <Gold.Chemscore.Hbonds>
donor molecule, donor type, donor heavy atom, donor atom, acceptor molecule, acceptor atom, score
      L1  H     3    26       P1  7948  0.83
      L1  H    14    41       P1  7948  1.00
      P1  H  7989  7998       L1    13  0.90

> <Gold.PLP.Chemscore.Internal.Correction>
0.1460

> <Gold.Rescore>
     Score         DG    S(hbond)    S(metal)    S(lipo)     H(rot)  DE(clash)    DE(int)     intcor
     17.26     -19.35       2.16        0.00      86.97       1.37       0.00       2.08       ----

> <Gold.Chemscore.Fitness>
17.2641

> <Gold.Chemscore.DG>
-19.3465

> <Gold.Chemscore.ZeroCoef>
-5.4800

> <Gold.Chemscore.Hbond>
2.1587

> <Gold.Chemscore.Metal>
0.0000

> <Gold.Chemscore.Lipo>
86.9691

> <Gold.Chemscore.Internal_Hbond>
0.0000

> <Gold.Chemscore.DEClash>
0.0000

> <Gold.Chemscore.DEInternal>
2.0823

> <Gold.Chemscore.Rot>
1.3746

> <Gold.Chemscore.Internal.Correction>
   9.000000E+99

> <Gold.Chemscore.Hbonds>
donor molecule, donor type, donor heavy atom, donor atom, acceptor molecule, acceptor atom, score
      L1  H     3    26       P1  7948  0.77
      L1  H    14    41       P1  7948  0.40
      P1  H  7989  7998       L1    13  0.17

> <Gold.Chemscore.Hbond.Weighted>
-7.2099

> <Gold.Chemscore.Metal.Weighted>
-0.0000

> <Gold.Chemscore.Lipo.Weighted>
-10.1754

> <Gold.Chemscore.Internal_Hbond.Weighted>
0.0000

> <Gold.Chemscore.DEClash.Weighted>
0.0000

> <Gold.Chemscore.DEInternal.Weighted>
2.0823

> <Gold.Chemscore.Rot.Weighted>
3.5189

> <Gold.Chemscore.Internal.Correction.Weighted>
   9.000000E+99

> <Gold.Protein.RotatedTorsions>
[ 6907 6896 6895 6894 ] final  -27.97 input  -60.11 | X-H torsion
[ 7974 7965 7964 7962 ] final  -96.99 input  175.53 | X-H torsion
[ 8008 7997 7996 7995 ] final   31.84 input   59.86 | X-H torsion
[ 10167 10162 10161 10158 ] final  -91.97 input  -65.29 | X-H torsion
[ 10718 10713 10712 10709 ] final  -26.23 input   66.30 | X-H torsion
[ 10763 10752 10751 10750 ] final  105.61 input  -60.55 | X-H torsion
[ 11005 11000 10999 10996 ] final  148.54 input  -57.11 | X-H torsion

> <Gold.Protein.ActiveResidues>
 VAL166  LYS551  ARG553  GLY616  TRP617  ASP618  TYR619  PRO620  LYS621  CYS622 
 ASP623  PHE694  ASN695  SER759  ASP760  ASP761  ALA762  ILE779  LEU786  VAL792 
 PHE793  MET794  SER795  GLU796  ALA797  LYS798  CYS799  TRP800  GLU811  SER814 

> <Gold.Protein.RotatedAtoms>
  151.1395  135.0172  159.8618 H   0  0  0  0  0  0  0  0  0  0  0  0  # atno 6907 bound_to 6896
  152.5452  134.1516  159.8531 H   0  0  0  0  0  0  0  0  0  0  0  0  # atno 6908 bound_to 6896
  151.1590  133.4812  159.2627 H   0  0  0  0  0  0  0  0  0  0  0  0  # atno 6909 bound_to 6896
  145.3396  140.9457  143.2615 H   0  0  0  0  0  0  0  0  0  0  0  0  # atno 7974 bound_to 7965
  155.1129  140.3240  155.4517 H   0  0  0  0  0  0  0  0  0  0  0  0  # atno 8008 bound_to 7997
  156.2685  140.2041  156.6200 H   0  0  0  0  0  0  0  0  0  0  0  0  # atno 8009 bound_to 7997
  154.6742  140.0533  157.0185 H   0  0  0  0  0  0  0  0  0  0  0  0  # atno 8010 bound_to 7997
  140.3395  143.2950  151.9851 H   0  0  0  0  0  0  0  0  0  0  0  0  # atno 10167 bound_to 10162
  156.4539  130.4490  149.6972 H   0  0  0  0  0  0  0  0  0  0  0  0  # atno 10718 bound_to 10713
  153.3818  135.3904  155.1862 H   0  0  0  0  0  0  0  0  0  0  0  0  # atno 10763 bound_to 10752
  154.8708  135.3727  154.4848 H   0  0  0  0  0  0  0  0  0  0  0  0  # atno 10764 bound_to 10752
  153.5325  135.7085  153.5737 H   0  0  0  0  0  0  0  0  0  0  0  0  # atno 10765 bound_to 10752
  140.0969  134.9007  157.1736 H   0  0  0  0  0  0  0  0  0  0  0  0  # atno 11005 bound_to 11000
  144.8800  139.4917  143.6727 LP  0  0  0  0  0  0  0  0  0  0  0  0  # atno 17320 bound_to 7965
  146.3012  139.7434  142.9089 LP  0  0  0  0  0  0  0  0  0  0  0  0  # atno 17321 bound_to 7965
  139.4843  144.6168  151.7330 LP  0  0  0  0  0  0  0  0  0  0  0  0  # atno 17342 bound_to 10162
  140.5322  144.0712  150.6058 LP  0  0  0  0  0  0  0  0  0  0  0  0  # atno 17343 bound_to 10162
  156.3787  130.7568  151.2558 LP  0  0  0  0  0  0  0  0  0  0  0  0  # atno 17370 bound_to 10713
  157.7501  131.0302  150.4126 LP  0  0  0  0  0  0  0  0  0  0  0  0  # atno 17371 bound_to 10713
  140.3274  134.2848  155.7234 LP  0  0  0  0  0  0  0  0  0  0  0  0  # atno 17394 bound_to 11000
  141.2094  133.7749  156.9996 LP  0  0  0  0  0  0  0  0  0  0  0  0  # atno 17395 bound_to 11000

$$$$
