AV-unprocessed.smi:2599|AV-procd|sdf|10180|dock10
  -GOLD-   2272014193D 1   1.00000     0.00000
 Structure written by MMmdl.
 40 41  0  0  0  0  0  0  0  0  1 V2000
  153.0873  139.3879  158.7130 C   0  0  0  0  0  0  0  0  0  0  0  0
  153.0965  139.5472  157.2985 O   0  0  0  0  0  0  0  0  0  0  0  0
  152.3264  138.6891  156.5408 C   0  0  0  0  0  0  0  0  0  0  0  0
  152.2607  138.8795  155.1500 C   0  0  0  0  0  0  0  0  0  0  0  0
  151.4634  137.9928  154.4072 C   0  0  0  0  0  0  0  0  0  0  0  0
  150.7861  136.9593  155.0997 C   0  0  0  0  0  0  0  0  0  0  0  0
  149.9354  136.0540  154.4120 N   0  0  0  0  0  0  0  0  0  0  0  0
  149.4645  134.8666  154.8307 C   0  0  0  0  0  0  0  0  0  0  0  0
  149.6743  134.3713  155.9383 O   0  0  0  0  0  0  0  0  0  0  0  0
  148.7148  134.2837  153.8832 N   0  0  0  0  0  0  0  0  0  0  0  0
  148.0628  132.9776  153.9842 C   0  0  1  0  0  0  0  0  0  0  0  0
  147.1313  132.9985  155.2084 C   0  0  0  0  0  0  0  0  0  0  0  0
  147.3323  132.6376  152.6580 C   0  0  0  0  0  0  0  0  0  0  0  0
  146.4011  133.7726  152.1853 C   0  0  0  0  0  0  0  0  0  0  0  0
  145.6298  133.3728  150.9168 C   0  0  0  0  0  0  0  0  0  0  0  0
  144.8893  132.1816  151.1506 O   0  0  0  0  0  0  0  0  0  0  0  0
  145.7221  131.0717  151.4611 C   0  0  0  0  0  0  0  0  0  0  0  0
  146.4964  131.3432  152.7605 C   0  0  0  0  0  0  0  0  0  0  0  0
  150.8879  136.8506  156.4461 N   0  0  0  0  0  0  0  0  0  0  0  0
  151.6466  137.6902  157.1577 N   0  0  0  0  0  0  0  0  0  0  0  0
  153.7288  140.1434  159.1663 H   0  0  0  0  0  0  0  0  0  0  0  0
  153.4706  138.4094  159.0060 H   0  0  0  0  0  0  0  0  0  0  0  0
  152.0845  139.5175  159.1227 H   0  0  0  0  0  0  0  0  0  0  0  0
  152.7975  139.6839  154.6697 H   0  0  0  0  0  0  0  0  0  0  0  0
  151.3738  138.1290  153.3403 H   0  0  0  0  0  0  0  0  0  0  0  0
  149.5867  136.3822  153.5234 H   0  0  0  0  0  0  0  0  0  0  0  0
  148.5965  134.7762  153.0100 H   0  0  0  0  0  0  0  0  0  0  0  0
  148.8131  132.2040  154.1573 H   0  0  0  0  0  0  0  0  0  0  0  0
  146.7160  132.0132  155.4175 H   0  0  0  0  0  0  0  0  0  0  0  0
  146.3006  133.6903  155.0658 H   0  0  0  0  0  0  0  0  0  0  0  0
  147.6710  133.3085  156.1039 H   0  0  0  0  0  0  0  0  0  0  0  0
  148.0876  132.4832  151.8854 H   0  0  0  0  0  0  0  0  0  0  0  0
  145.6921  134.0228  152.9757 H   0  0  0  0  0  0  0  0  0  0  0  0
  146.9700  134.6782  151.9770 H   0  0  0  0  0  0  0  0  0  0  0  0
  144.9369  134.1660  150.6354 H   0  0  0  0  0  0  0  0  0  0  0  0
  146.3101  133.2323  150.0755 H   0  0  0  0  0  0  0  0  0  0  0  0
  145.0976  130.1858  151.5765 H   0  0  0  0  0  0  0  0  0  0  0  0
  146.4056  130.8723  150.6343 H   0  0  0  0  0  0  0  0  0  0  0  0
  147.1323  130.4847  152.9772 H   0  0  0  0  0  0  0  0  0  0  0  0
  145.7926  131.4247  153.5899 H   0  0  0  0  0  0  0  0  0  0  0  0
  1  2  1  0  0  0  0
  1 21  1  0  0  0  0
  1 22  1  0  0  0  0
  1 23  1  0  0  0  0
  2  3  1  0  0  0  0
  3 20  1  0  0  0  0
  3  4  2  0  0  0  0
  4  5  1  0  0  0  0
  4 24  1  0  0  0  0
  5  6  2  0  0  0  0
  5 25  1  0  0  0  0
  6  7  1  0  0  0  0
  6 19  1  0  0  0  0
  7  8  1  0  0  0  0
  7 26  1  0  0  0  0
  8  9  2  0  0  0  0
  8 10  1  0  0  0  0
 10 11  1  0  0  0  0
 10 27  1  0  0  0  0
 11 12  1  0  0  0  0
 11 13  1  0  0  0  0
 11 28  1  0  0  0  0
 12 29  1  0  0  0  0
 12 30  1  0  0  0  0
 12 31  1  0  0  0  0
 13 18  1  0  0  0  0
 13 14  1  0  0  0  0
 13 32  1  0  0  0  0
 14 15  1  0  0  0  0
 14 33  1  0  0  0  0
 14 34  1  0  0  0  0
 15 16  1  0  0  0  0
 15 35  1  0  0  0  0
 15 36  1  0  0  0  0
 16 17  1  0  0  0  0
 17 18  1  0  0  0  0
 17 37  1  0  0  0  0
 17 38  1  0  0  0  0
 18 39  1  0  0  0  0
 18 40  1  0  0  0  0
 19 20  2  0  0  0  0
M  END
> <s_m_source_file>
AV-unprocessed.smi

> <i_m_source_file_index>
2599

> <i_lp_mmshare_version>
43012

> <i_f3d_flags>
0

> <s_epik_input>
W0NIM11PYzFbY0hdW2NIXWMobm4xKVtOSF1DKD1PKVtOSF1bQ0BIXShbQ0gzXSlbQ0hdMltDSDJdW0NIMl1PW0NIMl1bQ0gyXTI=

> <s_epik_cmdline>
J2VwaWtfcHl0aG9uJywgJy1waCcsICc3LjAnLCAnLXRuJywgJzgnLCAnLW1hJywgJzIwMCcsICctbWV0YWxfYmluZGluZycsICctaW1hZScsICc8aW5maWxlLm1hZT4nLCAnLW9tYWUnLCAnPG91dGZpbGUubWFlPic=

> <r_lp_tautomer_probability>
1

> <r_epik_Ionization_Penalty>
0.00150063

> <r_epik_Ionization_Penalty_Charging>
0

> <r_epik_Ionization_Penalty_Neutral>
0.00150063

> <r_epik_State_Penalty>
-0

> <r_epik_Charging_Adjusted_Penalty>
0

> <i_epik_Tot_Q>
0

> <i_epik_Tot_abs_Q>
0

> <r_epik_Metal_State_Penalty>
-0

> <b_epik_Metal_Only>
0

> <s_lp_Force_Field>
OPLS_2005

> <r_lp_Energy>
19.9533

> <b_lp_Chiralities_Consistent>
1

> <s_lp_Variant>
AV-unprocessed.smi:2599-2

> <Gold.Version>
5.8.1

> <Gold.Id.Protein>
6NUR|6NUR_protein|mol2

> <Gold.PLP.Fitness>
38.9990

> <Gold.PLP.PLP>
-30.4455

> <Gold.PLP.part.hbond>
-3.7501

> <Gold.PLP.part.metal>
0.0000

> <Gold.PLP.part.buried>
-2.7979

> <Gold.PLP.part.nonpolar>
-23.7426

> <Gold.PLP.part.repulsive>
0.1946

> <Gold.PLP.ligand.clash>
0.0000

> <Gold.PLP.ligand.torsion>
0.1592

> <Gold.PLP.Chemscore.Hbond>
2.9500

> <Gold.PLP.Chemscore.CHOScore>
0.0000

> <Gold.PLP.Chemscore.Metal>
0.0000

> <Gold.Chemscore.Hbonds>
donor molecule, donor type, donor heavy atom, donor atom, acceptor molecule, acceptor atom, score
      L1  H     7    26       P1  7948  1.00
      L1  H    10    27       P1  7948  1.00
      P1  H  7997  8009       L1     2  0.98

> <Gold.PLP.Chemscore.Internal.Correction>
0.0218

> <Gold.Rescore>
     Score         DG    S(hbond)    S(metal)    S(lipo)     H(rot)  DE(clash)    DE(int)     intcor
     15.80     -17.46       2.54        0.00      63.80       1.55       0.05       1.61       ----

> <Gold.Chemscore.Fitness>
15.8029

> <Gold.Chemscore.DG>
-17.4572

> <Gold.Chemscore.ZeroCoef>
-5.4800

> <Gold.Chemscore.Hbond>
2.5383

> <Gold.Chemscore.Metal>
0.0000

> <Gold.Chemscore.Lipo>
63.8047

> <Gold.Chemscore.Internal_Hbond>
0.0000

> <Gold.Chemscore.DEClash>
0.0471

> <Gold.Chemscore.DEInternal>
1.6072

> <Gold.Chemscore.Rot>
1.5492

> <Gold.Chemscore.Internal.Correction>
   9.000000E+99

> <Gold.Chemscore.Hbonds>
donor molecule, donor type, donor heavy atom, donor atom, acceptor molecule, acceptor atom, score
      L1  H     7    26       P1  7948  0.54
      L1  H    10    27       P1  7948  0.33
      P1  H  7997  8009       L1     2  0.80

> <Gold.Chemscore.Hbond.Weighted>
-8.4779

> <Gold.Chemscore.Metal.Weighted>
-0.0000

> <Gold.Chemscore.Lipo.Weighted>
-7.4652

> <Gold.Chemscore.Internal_Hbond.Weighted>
0.0000

> <Gold.Chemscore.DEClash.Weighted>
0.0471

> <Gold.Chemscore.DEInternal.Weighted>
1.6072

> <Gold.Chemscore.Rot.Weighted>
3.9659

> <Gold.Chemscore.Internal.Correction.Weighted>
   9.000000E+99

> <Gold.Protein.RotatedTorsions>
[ 6907 6896 6895 6894 ] final  -68.18 input  -60.11 | X-H torsion
[ 7974 7965 7964 7962 ] final  164.02 input  175.53 | X-H torsion
[ 8008 7997 7996 7995 ] final  175.63 input   59.86 | X-H torsion
[ 10167 10162 10161 10158 ] final -139.14 input  -65.29 | X-H torsion
[ 10718 10713 10712 10709 ] final    8.03 input   66.30 | X-H torsion
[ 10763 10752 10751 10750 ] final   24.09 input  -60.55 | X-H torsion
[ 11005 11000 10999 10996 ] final  -15.15 input  -57.11 | X-H torsion

> <Gold.Protein.ActiveResidues>
 VAL166  LYS551  ARG553  GLY616  TRP617  ASP618  TYR619  PRO620  LYS621  CYS622 
 ASP623  PHE694  ASN695  SER759  ASP760  ASP761  ALA762  ILE779  LEU786  VAL792 
 PHE793  MET794  SER795  GLU796  ALA797  LYS798  CYS799  TRP800  GLU811  SER814 

> <Gold.Protein.RotatedAtoms>
  150.7369  134.5775  159.5921 H   0  0  0  0  0  0  0  0  0  0  0  0  # atno 6907 bound_to 6896
  152.3198  134.7392  160.0325 H   0  0  0  0  0  0  0  0  0  0  0  0  # atno 6908 bound_to 6896
  151.7911  133.3324  159.3536 H   0  0  0  0  0  0  0  0  0  0  0  0  # atno 6909 bound_to 6896
  144.7563  139.8266  143.6348 H   0  0  0  0  0  0  0  0  0  0  0  0  # atno 7974 bound_to 7965
  156.0850  140.1404  156.9664 H   0  0  0  0  0  0  0  0  0  0  0  0  # atno 8008 bound_to 7997
  154.4607  140.0944  156.6934 H   0  0  0  0  0  0  0  0  0  0  0  0  # atno 8009 bound_to 7997
  155.5013  140.3451  155.4374 H   0  0  0  0  0  0  0  0  0  0  0  0  # atno 8010 bound_to 7997
  139.8409  143.7323  152.2663 H   0  0  0  0  0  0  0  0  0  0  0  0  # atno 10167 bound_to 10162
  156.9457  130.5878  149.5654 H   0  0  0  0  0  0  0  0  0  0  0  0  # atno 10718 bound_to 10713
  153.0789  135.6613  154.0086 H   0  0  0  0  0  0  0  0  0  0  0  0  # atno 10763 bound_to 10752
  153.9712  135.2964  155.3428 H   0  0  0  0  0  0  0  0  0  0  0  0  # atno 10764 bound_to 10752
  154.7184  135.5175  153.8845 H   0  0  0  0  0  0  0  0  0  0  0  0  # atno 10765 bound_to 10752
  140.7937  133.8267  155.9404 H   0  0  0  0  0  0  0  0  0  0  0  0  # atno 11005 bound_to 11000
  146.1578  139.4681  143.0008 LP  0  0  0  0  0  0  0  0  0  0  0  0  # atno 17320 bound_to 7965
  145.6767  141.0202  143.1628 LP  0  0  0  0  0  0  0  0  0  0  0  0  # atno 17321 bound_to 7965
  139.7560  144.7520  151.0435 LP  0  0  0  0  0  0  0  0  0  0  0  0  # atno 17342 bound_to 10162
  140.7798  143.4805  151.0024 LP  0  0  0  0  0  0  0  0  0  0  0  0  # atno 17343 bound_to 10162
  156.0385  130.5470  150.8712 LP  0  0  0  0  0  0  0  0  0  0  0  0  # atno 17370 bound_to 10713
  157.5755  131.0946  150.9352 LP  0  0  0  0  0  0  0  0  0  0  0  0  # atno 17371 bound_to 10713
  140.9364  134.1957  157.4829 LP  0  0  0  0  0  0  0  0  0  0  0  0  # atno 17394 bound_to 11000
  139.8728  134.9854  156.5279 LP  0  0  0  0  0  0  0  0  0  0  0  0  # atno 17395 bound_to 11000

$$$$
