AV-unprocessed.smi:1927|AV-procd|sdf|7796|dock1
  -GOLD-   22720 9543D 1   1.00000     0.00000
 Structure written by MMmdl.
 34 35  0  0  0  0  0  0  0  0  1 V2000
  151.4159  144.7661  158.9025 C   0  0  0  0  0  0  0  0  0  0  0  0
  152.0350  143.3995  159.1480 C   0  0  0  0  0  0  0  0  0  0  0  0
  152.9752  143.2441  160.1888 C   0  0  0  0  0  0  0  0  0  0  0  0
  153.5474  141.9801  160.4128 C   0  0  0  0  0  0  0  0  0  0  0  0
  153.1522  140.9183  159.5813 C   0  0  0  0  0  0  0  0  0  0  0  0
  152.2540  141.0576  158.5851 N   0  0  0  0  0  0  0  0  0  0  0  0
  151.6922  142.2710  158.3554 C   0  0  0  0  0  0  0  0  0  0  0  0
  150.7349  142.4923  157.3253 N   0  0  0  0  0  0  0  0  0  0  0  0
  150.3754  141.6701  156.3238 C   0  0  0  0  0  0  0  0  0  0  0  0
  150.8480  140.5528  156.1124 O   0  0  0  0  0  0  0  0  0  0  0  0
  149.4221  142.2272  155.5627 N   0  0  0  0  0  0  0  0  0  0  0  0
  148.8051  141.6138  154.3910 C   0  0  0  0  0  0  0  0  0  0  0  0
  147.2704  141.5746  154.5082 C   0  0  2  0  0  0  0  0  0  0  0  0
  146.5833  142.8025  153.9468 C   0  0  0  0  0  0  0  0  0  0  0  0
  145.2030  142.7217  154.5933 C   0  0  0  0  0  0  0  0  0  0  0  0
  145.3896  142.0526  155.8378 O   0  0  0  0  0  0  0  0  0  0  0  0
  146.7262  141.5720  155.9378 C   0  0  0  0  0  0  0  0  0  0  0  0
  151.7962  145.5072  159.6063 H   0  0  0  0  0  0  0  0  0  0  0  0
  150.3323  144.7209  159.0153 H   0  0  0  0  0  0  0  0  0  0  0  0
  151.6459  145.1134  157.8947 H   0  0  0  0  0  0  0  0  0  0  0  0
  153.2566  144.0814  160.8105 H   0  0  0  0  0  0  0  0  0  0  0  0
  154.2696  141.8286  161.2013 H   0  0  0  0  0  0  0  0  0  0  0  0
  153.5660  139.9305  159.7204 H   0  0  0  0  0  0  0  0  0  0  0  0
  150.2622  143.3830  157.3613 H   0  0  0  0  0  0  0  0  0  0  0  0
  149.0957  143.1491  155.8129 H   0  0  0  0  0  0  0  0  0  0  0  0
  149.1097  142.1238  153.4753 H   0  0  0  0  0  0  0  0  0  0  0  0
  149.1886  140.5963  154.3126 H   0  0  0  0  0  0  0  0  0  0  0  0
  146.8878  140.6962  153.9854 H   0  0  0  0  0  0  0  0  0  0  0  0
  147.0959  143.7085  154.2743 H   0  0  0  0  0  0  0  0  0  0  0  0
  146.5414  142.8101  152.8573 H   0  0  0  0  0  0  0  0  0  0  0  0
  144.7538  143.7051  154.7335 H   0  0  0  0  0  0  0  0  0  0  0  0
  144.5276  142.1263  153.9778 H   0  0  0  0  0  0  0  0  0  0  0  0
  146.7604  140.5850  156.3995 H   0  0  0  0  0  0  0  0  0  0  0  0
  147.2927  142.2595  156.5676 H   0  0  0  0  0  0  0  0  0  0  0  0
  1  2  1  0  0  0  0
  1 18  1  0  0  0  0
  1 19  1  0  0  0  0
  1 20  1  0  0  0  0
  2  7  1  0  0  0  0
  2  3  2  0  0  0  0
  3  4  1  0  0  0  0
  3 21  1  0  0  0  0
  4  5  2  0  0  0  0
  4 22  1  0  0  0  0
  5  6  1  0  0  0  0
  5 23  1  0  0  0  0
  6  7  2  0  0  0  0
  7  8  1  0  0  0  0
  8  9  1  0  0  0  0
  8 24  1  0  0  0  0
  9 10  2  0  0  0  0
  9 11  1  0  0  0  0
 11 12  1  0  0  0  0
 11 25  1  0  0  0  0
 12 13  1  0  0  0  0
 12 26  1  0  0  0  0
 12 27  1  0  0  0  0
 13 17  1  0  0  0  0
 13 14  1  0  0  0  0
 13 28  1  0  0  0  0
 14 15  1  0  0  0  0
 14 29  1  0  0  0  0
 14 30  1  0  0  0  0
 15 16  1  0  0  0  0
 15 31  1  0  0  0  0
 15 32  1  0  0  0  0
 16 17  1  0  0  0  0
 17 33  1  0  0  0  0
 17 34  1  0  0  0  0
M  END
> <s_m_source_file>
AV-unprocessed.smi

> <i_m_source_file_index>
1927

> <i_lp_mmshare_version>
43012

> <i_f3d_flags>
0

> <s_epik_input>
W0NIM11jMVtjSF1bY0hdW2NIXW5jMVtOSF1DKD1PKVtOSF1bQ0gyXVtDQEBIXTJbQ0gyXVtDSDJdT1tDSDJdMg==

> <s_epik_cmdline>
J2VwaWtfcHl0aG9uJywgJy1waCcsICc3LjAnLCAnLXRuJywgJzgnLCAnLW1hJywgJzIwMCcsICctbWV0YWxfYmluZGluZycsICctaW1hZScsICc8aW5maWxlLm1hZT4nLCAnLW9tYWUnLCAnPG91dGZpbGUubWFlPic=

> <r_lp_tautomer_probability>
1

> <r_epik_Ionization_Penalty>
5.84082e-05

> <r_epik_Ionization_Penalty_Charging>
0

> <r_epik_Ionization_Penalty_Neutral>
5.84082e-05

> <r_epik_State_Penalty>
-0

> <r_epik_Charging_Adjusted_Penalty>
0

> <i_epik_Tot_Q>
0

> <i_epik_Tot_abs_Q>
0

> <r_epik_Metal_State_Penalty>
-0

> <b_epik_Metal_Only>
0

> <s_lp_Force_Field>
OPLS_2005

> <r_lp_Energy>
21.003

> <b_lp_Chiralities_Consistent>
1

> <s_lp_Variant>
AV-unprocessed.smi:1927-1

> <Gold.Version>
5.8.1

> <Gold.Id.Protein>
6NUR|6NUR_protein|mol2

> <Gold.PLP.Fitness>
41.0976

> <Gold.PLP.PLP>
-38.9970

> <Gold.PLP.part.hbond>
-1.0000

> <Gold.PLP.part.metal>
0.0000

> <Gold.PLP.part.buried>
-5.5912

> <Gold.PLP.part.nonpolar>
-32.2382

> <Gold.PLP.part.repulsive>
0.3439

> <Gold.PLP.ligand.clash>
0.0000

> <Gold.PLP.ligand.torsion>
0.4546

> <Gold.PLP.Chemscore.Hbond>
1.0000

> <Gold.PLP.Chemscore.CHOScore>
0.0000

> <Gold.PLP.Chemscore.Metal>
0.0000

> <Gold.Chemscore.Hbonds>
donor molecule, donor type, donor heavy atom, donor atom, acceptor molecule, acceptor atom, score
      L1  H    11    25       P1  8028  1.00

> <Gold.PLP.Chemscore.Internal.Correction>
0.0097

> <Gold.Rescore>
     Score         DG    S(hbond)    S(metal)    S(lipo)     H(rot)  DE(clash)    DE(int)     intcor
     15.69     -18.22       1.75        0.00      85.81       1.23       1.00       1.53       ----

> <Gold.Chemscore.Fitness>
15.6902

> <Gold.Chemscore.DG>
-18.2224

> <Gold.Chemscore.ZeroCoef>
-5.4800

> <Gold.Chemscore.Hbond>
1.7549

> <Gold.Chemscore.Metal>
0.0000

> <Gold.Chemscore.Lipo>
85.8064

> <Gold.Chemscore.Internal_Hbond>
0.0000

> <Gold.Chemscore.DEClash>
1.0016

> <Gold.Chemscore.DEInternal>
1.5306

> <Gold.Chemscore.Rot>
1.2337

> <Gold.Chemscore.Internal.Correction>
   9.000000E+99

> <Gold.Chemscore.Hbonds>
donor molecule, donor type, donor heavy atom, donor atom, acceptor molecule, acceptor atom, score
      L1  H    11    25       P1  8028  0.97

> <Gold.Chemscore.Hbond.Weighted>
-5.8612

> <Gold.Chemscore.Metal.Weighted>
-0.0000

> <Gold.Chemscore.Lipo.Weighted>
-10.0393

> <Gold.Chemscore.Internal_Hbond.Weighted>
0.0000

> <Gold.Chemscore.DEClash.Weighted>
1.0016

> <Gold.Chemscore.DEInternal.Weighted>
1.5306

> <Gold.Chemscore.Rot.Weighted>
3.1582

> <Gold.Chemscore.Internal.Correction.Weighted>
   9.000000E+99

> <Gold.Protein.RotatedTorsions>
[ 6907 6896 6895 6894 ] final -148.73 input  -60.11 | X-H torsion
[ 7974 7965 7964 7962 ] final  139.62 input  175.53 | X-H torsion
[ 8008 7997 7996 7995 ] final   54.97 input   59.86 | X-H torsion
[ 10167 10162 10161 10158 ] final  -90.05 input  -65.29 | X-H torsion
[ 10718 10713 10712 10709 ] final    4.90 input   66.30 | X-H torsion
[ 10763 10752 10751 10750 ] final    0.04 input  -60.55 | X-H torsion
[ 11005 11000 10999 10996 ] final -125.82 input  -57.11 | X-H torsion

> <Gold.Protein.ActiveResidues>
 VAL166  LYS551  ARG553  GLY616  TRP617  ASP618  TYR619  PRO620  LYS621  CYS622 
 ASP623  PHE694  ASN695  SER759  ASP760  ASP761  ALA762  ILE779  LEU786  VAL792 
 PHE793  MET794  SER795  GLU796  ALA797  LYS798  CYS799  TRP800  GLU811  SER814 

> <Gold.Protein.RotatedAtoms>
  151.1740  133.4766  159.2593 H   0  0  0  0  0  0  0  0  0  0  0  0  # atno 6907 bound_to 6896
  151.1327  135.0138  159.8600 H   0  0  0  0  0  0  0  0  0  0  0  0  # atno 6908 bound_to 6896
  152.5460  134.1641  159.8623 H   0  0  0  0  0  0  0  0  0  0  0  0  # atno 6909 bound_to 6896
  144.9262  139.5105  143.5640 H   0  0  0  0  0  0  0  0  0  0  0  0  # atno 7974 bound_to 7965
  155.4935  140.3472  155.4359 H   0  0  0  0  0  0  0  0  0  0  0  0  # atno 8008 bound_to 7997
  156.0961  140.1423  156.9557 H   0  0  0  0  0  0  0  0  0  0  0  0  # atno 8009 bound_to 7997
  154.4664  140.0916  156.7010 H   0  0  0  0  0  0  0  0  0  0  0  0  # atno 8010 bound_to 7997
  140.3587  143.2853  151.9640 H   0  0  0  0  0  0  0  0  0  0  0  0  # atno 10167 bound_to 10162
  156.8995  130.5716  149.5648 H   0  0  0  0  0  0  0  0  0  0  0  0  # atno 10718 bound_to 10713
  153.3257  135.6972  153.6991 H   0  0  0  0  0  0  0  0  0  0  0  0  # atno 10763 bound_to 10752
  153.5813  135.3497  155.2877 H   0  0  0  0  0  0  0  0  0  0  0  0  # atno 10764 bound_to 10752
  154.8607  135.4296  154.2433 H   0  0  0  0  0  0  0  0  0  0  0  0  # atno 10765 bound_to 10752
  140.9731  134.0777  157.3847 H   0  0  0  0  0  0  0  0  0  0  0  0  # atno 11005 bound_to 11000
  146.3227  139.8178  142.8933 LP  0  0  0  0  0  0  0  0  0  0  0  0  # atno 17320 bound_to 7965
  145.3216  141.0245  143.3497 LP  0  0  0  0  0  0  0  0  0  0  0  0  # atno 17321 bound_to 7965
  139.4817  144.6012  151.7603 LP  0  0  0  0  0  0  0  0  0  0  0  0  # atno 17342 bound_to 10162
  140.5148  144.0970  150.6005 LP  0  0  0  0  0  0  0  0  0  0  0  0  # atno 17343 bound_to 10162
  156.0589  130.5645  150.9150 LP  0  0  0  0  0  0  0  0  0  0  0  0  # atno 17370 bound_to 10713
  157.6035  131.0940  150.8920 LP  0  0  0  0  0  0  0  0  0  0  0  0  # atno 17371 bound_to 10713
  139.8920  135.0122  156.6822 LP  0  0  0  0  0  0  0  0  0  0  0  0  # atno 17394 bound_to 11000
  140.7299  133.9068  155.8204 LP  0  0  0  0  0  0  0  0  0  0  0  0  # atno 17395 bound_to 11000

$$$$
