AV-unprocessed.smi:1384|AV-procd|sdf|5626|dock9
  -GOLD-   22720 5243D 1   1.00000     0.00000
 Structure written by MMmdl.
 41 42  0  0  0  0  0  0  0  0  1 V2000
  151.4188  145.6689  160.2957 C   0  0  0  0  0  0  0  0  0  0  0  0
  151.7718  144.2008  160.5731 C   0  0  2  0  0  0  0  0  0  0  0  0
  152.7134  144.0652  161.7846 C   0  0  0  0  0  0  0  0  0  0  0  0
  153.0682  142.5959  162.0645 C   0  0  0  0  0  0  0  0  0  0  0  0
  153.6835  141.9166  160.8238 C   0  0  1  0  0  0  0  0  0  0  0  0
  153.9376  140.5024  161.0814 N   0  0  0  0  0  0  0  0  0  0  0  0
  154.3556  139.6080  160.1731 C   0  0  0  0  0  0  0  0  0  0  0  0
  154.5839  139.8964  158.9974 O   0  0  0  0  0  0  0  0  0  0  0  0
  154.5569  138.1768  160.6925 C   0  0  0  0  0  0  0  0  0  0  0  0
  155.0168  138.1125  162.0906 N   0  0  0  0  0  0  0  0  0  0  0  0
  154.3604  137.1976  162.9331 C   0  0  0  0  0  0  0  0  0  0  0  0
  154.7005  137.0552  164.2211 C   0  0  0  0  0  0  0  0  0  0  0  0
  155.7741  137.8687  164.7367 C   0  0  0  0  0  0  0  0  0  0  0  0
  156.4193  138.7632  163.9528 C   0  0  0  0  0  0  0  0  0  0  0  0
  157.5657  139.6230  164.4806 C   0  0  0  0  0  0  0  0  0  0  0  0
  158.6965  139.3562  163.8259 F   0  0  0  0  0  0  0  0  0  0  0  0
  157.2881  140.9174  164.3226 F   0  0  0  0  0  0  0  0  0  0  0  0
  157.7885  139.4084  165.7781 F   0  0  0  0  0  0  0  0  0  0  0  0
  156.0303  138.9182  162.5360 C   0  0  0  0  0  0  0  0  0  0  0  0
  156.5805  139.7258  161.7854 O   0  0  0  0  0  0  0  0  0  0  0  0
  152.7473  142.0563  159.6095 C   0  0  0  0  0  0  0  0  0  0  0  0
  152.3924  143.5265  159.3348 C   0  0  0  0  0  0  0  0  0  0  0  0
  152.3077  146.2527  160.0549 H   0  0  0  0  0  0  0  0  0  0  0  0
  150.9429  146.1284  161.1626 H   0  0  0  0  0  0  0  0  0  0  0  0
  150.7270  145.7541  159.4573 H   0  0  0  0  0  0  0  0  0  0  0  0
  150.8430  143.6794  160.8096 H   0  0  0  0  0  0  0  0  0  0  0  0
  153.6286  144.6312  161.6062 H   0  0  0  0  0  0  0  0  0  0  0  0
  152.2489  144.5022  162.6694 H   0  0  0  0  0  0  0  0  0  0  0  0
  153.7599  142.5442  162.9061 H   0  0  0  0  0  0  0  0  0  0  0  0
  152.1690  142.0597  162.3714 H   0  0  0  0  0  0  0  0  0  0  0  0
  154.6284  142.4079  160.5828 H   0  0  0  0  0  0  0  0  0  0  0  0
  153.7787  140.1780  162.0243 H   0  0  0  0  0  0  0  0  0  0  0  0
  153.6145  137.6389  160.5781 H   0  0  0  0  0  0  0  0  0  0  0  0
  155.2602  137.6565  160.0395 H   0  0  0  0  0  0  0  0  0  0  0  0
  153.5653  136.6312  162.4700 H   0  0  0  0  0  0  0  0  0  0  0  0
  154.1836  136.3511  164.8566 H   0  0  0  0  0  0  0  0  0  0  0  0
  156.0572  137.7475  165.7714 H   0  0  0  0  0  0  0  0  0  0  0  0
  153.2147  141.6214  158.7251 H   0  0  0  0  0  0  0  0  0  0  0  0
  151.8300  141.4918  159.7831 H   0  0  0  0  0  0  0  0  0  0  0  0
  151.7004  143.5827  158.4938 H   0  0  0  0  0  0  0  0  0  0  0  0
  153.2907  144.0660  159.0312 H   0  0  0  0  0  0  0  0  0  0  0  0
  1  2  1  0  0  0  0
  1 23  1  0  0  0  0
  1 24  1  0  0  0  0
  1 25  1  0  0  0  0
  2 22  1  0  0  0  0
  2  3  1  0  0  0  0
  2 26  1  0  0  0  0
  3  4  1  0  0  0  0
  3 27  1  0  0  0  0
  3 28  1  0  0  0  0
  4  5  1  0  0  0  0
  4 29  1  0  0  0  0
  4 30  1  0  0  0  0
  5  6  1  0  0  0  0
  5 21  1  0  0  0  0
  5 31  1  0  0  0  0
  6  7  1  0  0  0  0
  6 32  1  0  0  0  0
  7  8  2  0  0  0  0
  7  9  1  0  0  0  0
  9 10  1  0  0  0  0
  9 33  1  0  0  0  0
  9 34  1  0  0  0  0
 10 19  1  0  0  0  0
 10 11  1  0  0  0  0
 11 12  2  0  0  0  0
 11 35  1  0  0  0  0
 12 13  1  0  0  0  0
 12 36  1  0  0  0  0
 13 14  2  0  0  0  0
 13 37  1  0  0  0  0
 14 15  1  0  0  0  0
 14 19  1  0  0  0  0
 15 16  1  0  0  0  0
 15 17  1  0  0  0  0
 15 18  1  0  0  0  0
 19 20  2  0  0  0  0
 21 22  1  0  0  0  0
 21 38  1  0  0  0  0
 21 39  1  0  0  0  0
 22 40  1  0  0  0  0
 22 41  1  0  0  0  0
M  END
> <s_m_source_file>
AV-unprocessed.smi

> <i_m_source_file_index>
1384

> <i_lp_mmshare_version>
43012

> <i_f3d_flags>
0

> <s_epik_input>
W0NIM11bQ0BASF0xW0NIMl1bQ0gyXVtDQEhdKFtDSDJdW0NIMl0xKVtOSF1DKD1PKVtDSDJdbjJbY0hdW2NIXVtjSF1jKEMoRikoRilGKWMyPU8=

> <s_epik_cmdline>
J2VwaWtfcHl0aG9uJywgJy1waCcsICc3LjAnLCAnLXRuJywgJzgnLCAnLW1hJywgJzIwMCcsICctbWV0YWxfYmluZGluZycsICctaW1hZScsICc8aW5maWxlLm1hZT4nLCAnLW9tYWUnLCAnPG91dGZpbGUubWFlPic=

> <r_lp_tautomer_probability>
1

> <r_epik_Ionization_Penalty>
2.11165e-08

> <r_epik_Ionization_Penalty_Charging>
2.06965e-09

> <r_epik_Ionization_Penalty_Neutral>
1.90469e-08

> <r_epik_State_Penalty>
-0

> <r_epik_Charging_Adjusted_Penalty>
2.06965e-09

> <i_epik_Tot_Q>
0

> <i_epik_Tot_abs_Q>
0

> <r_epik_Metal_State_Penalty>
-0

> <b_epik_Metal_Only>
0

> <s_lp_Force_Field>
OPLS_2005

> <r_lp_Energy>
18.7612

> <b_lp_Chiralities_Consistent>
1

> <s_lp_Variant>
AV-unprocessed.smi:1384-1

> <Gold.Version>
5.8.1

> <Gold.Id.Protein>
6NUR|6NUR_protein|mol2

> <Gold.PLP.Fitness>
53.0141

> <Gold.PLP.PLP>
-51.1855

> <Gold.PLP.part.hbond>
-1.2256

> <Gold.PLP.part.metal>
0.0000

> <Gold.PLP.part.buried>
-4.9817

> <Gold.PLP.part.nonpolar>
-43.6836

> <Gold.PLP.part.repulsive>
0.0214

> <Gold.PLP.ligand.clash>
0.3294

> <Gold.PLP.ligand.torsion>
0.5968

> <Gold.PLP.Chemscore.Hbond>
1.0000

> <Gold.PLP.Chemscore.CHOScore>
0.0000

> <Gold.PLP.Chemscore.Metal>
0.0000

> <Gold.Chemscore.Hbonds>
donor molecule, donor type, donor heavy atom, donor atom, acceptor molecule, acceptor atom, score
      P1  H  7997  8008       L1     8  1.00

> <Gold.PLP.Chemscore.Internal.Correction>
0.3515

> <Gold.Rescore>
     Score         DG    S(hbond)    S(metal)    S(lipo)     H(rot)  DE(clash)    DE(int)     intcor
     14.24     -18.51       0.98        0.00     116.62       1.52       0.14       4.13       ----

> <Gold.Chemscore.Fitness>
14.2411

> <Gold.Chemscore.DG>
-18.5117

> <Gold.Chemscore.ZeroCoef>
-5.4800

> <Gold.Chemscore.Hbond>
0.9849

> <Gold.Chemscore.Metal>
0.0000

> <Gold.Chemscore.Lipo>
116.6155

> <Gold.Chemscore.Internal_Hbond>
0.0000

> <Gold.Chemscore.DEClash>
0.1412

> <Gold.Chemscore.DEInternal>
4.1294

> <Gold.Chemscore.Rot>
1.5242

> <Gold.Chemscore.Internal.Correction>
   9.000000E+99

> <Gold.Chemscore.Hbonds>
donor molecule, donor type, donor heavy atom, donor atom, acceptor molecule, acceptor atom, score
      P1  H  7997  8008       L1     8  0.97

> <Gold.Chemscore.Hbond.Weighted>
-3.2896

> <Gold.Chemscore.Metal.Weighted>
-0.0000

> <Gold.Chemscore.Lipo.Weighted>
-13.6440

> <Gold.Chemscore.Internal_Hbond.Weighted>
0.0000

> <Gold.Chemscore.DEClash.Weighted>
0.1412

> <Gold.Chemscore.DEInternal.Weighted>
4.1294

> <Gold.Chemscore.Rot.Weighted>
3.9019

> <Gold.Chemscore.Internal.Correction.Weighted>
   9.000000E+99

> <Gold.Protein.RotatedTorsions>
[ 6907 6896 6895 6894 ] final  168.28 input  -60.11 | X-H torsion
[ 7974 7965 7964 7962 ] final   99.05 input  175.53 | X-H torsion
[ 8008 7997 7996 7995 ] final -126.02 input   59.86 | X-H torsion
[ 10167 10162 10161 10158 ] final -160.55 input  -65.29 | X-H torsion
[ 10718 10713 10712 10709 ] final  -55.07 input   66.30 | X-H torsion
[ 10763 10752 10751 10750 ] final  179.32 input  -60.55 | X-H torsion
[ 11005 11000 10999 10996 ] final -152.98 input  -57.11 | X-H torsion

> <Gold.Protein.ActiveResidues>
 VAL166  LYS551  ARG553  GLY616  TRP617  ASP618  TYR619  PRO620  LYS621  CYS622 
 ASP623  PHE694  ASN695  SER759  ASP760  ASP761  ALA762  ILE779  LEU786  VAL792 
 PHE793  MET794  SER795  GLU796  ALA797  LYS798  CYS799  TRP800  GLU811  SER814 

> <Gold.Protein.RotatedAtoms>
  151.8500  133.3438  159.3670 H   0  0  0  0  0  0  0  0  0  0  0  0  # atno 6907 bound_to 6896
  150.7209  134.5308  159.5708 H   0  0  0  0  0  0  0  0  0  0  0  0  # atno 6908 bound_to 6896
  152.2800  134.7840  160.0449 H   0  0  0  0  0  0  0  0  0  0  0  0  # atno 6909 bound_to 6896
  145.4040  139.2343  143.3284 H   0  0  0  0  0  0  0  0  0  0  0  0  # atno 7974 bound_to 7965
  155.2229  140.0422  157.2951 H   0  0  0  0  0  0  0  0  0  0  0  0  # atno 8008 bound_to 7997
  154.5938  140.2434  155.7855 H   0  0  0  0  0  0  0  0  0  0  0  0  # atno 8009 bound_to 7997
  156.2277  140.2949  156.0116 H   0  0  0  0  0  0  0  0  0  0  0  0  # atno 8010 bound_to 7997
  139.6531  144.0047  152.2175 H   0  0  0  0  0  0  0  0  0  0  0  0  # atno 10167 bound_to 10162
  156.1399  130.4155  150.0121 H   0  0  0  0  0  0  0  0  0  0  0  0  # atno 10718 bound_to 10713
  154.5191  135.2793  155.1278 H   0  0  0  0  0  0  0  0  0  0  0  0  # atno 10763 bound_to 10752
  154.2842  135.6279  153.5363 H   0  0  0  0  0  0  0  0  0  0  0  0  # atno 10764 bound_to 10752
  152.9933  135.5658  154.5676 H   0  0  0  0  0  0  0  0  0  0  0  0  # atno 10765 bound_to 10752
  140.7131  134.3811  157.5195 H   0  0  0  0  0  0  0  0  0  0  0  0  # atno 11005 bound_to 11000
  146.2738  140.4742  142.8804 LP  0  0  0  0  0  0  0  0  0  0  0  0  # atno 17320 bound_to 7965
  144.8354  140.6774  143.6264 LP  0  0  0  0  0  0  0  0  0  0  0  0  # atno 17321 bound_to 7965
  139.9767  144.6457  150.7939 LP  0  0  0  0  0  0  0  0  0  0  0  0  # atno 17342 bound_to 10162
  140.7547  143.3032  151.3028 LP  0  0  0  0  0  0  0  0  0  0  0  0  # atno 17343 bound_to 10162
  156.8010  130.9290  151.3646 LP  0  0  0  0  0  0  0  0  0  0  0  0  # atno 17370 bound_to 10713
  157.6566  130.8930  149.9742 LP  0  0  0  0  0  0  0  0  0  0  0  0  # atno 17371 bound_to 10713
  139.8867  134.8903  156.2572 LP  0  0  0  0  0  0  0  0  0  0  0  0  # atno 17394 bound_to 11000
  141.0068  133.7119  156.1047 LP  0  0  0  0  0  0  0  0  0  0  0  0  # atno 17395 bound_to 11000

$$$$
