AV-unprocessed.smi:2121|AV-procd|sdf|8641|dock5
  -GOLD-   2272011393D 1   1.00000     0.00000
 Structure written by MMmdl.
 49 50  0  0  0  0  0  0  0  0  1 V2000
  150.6572  144.9442  159.3684 C   0  0  0  0  0  0  0  0  0  0  0  0
  151.6974  143.8279  159.2279 C   0  0  2  0  0  0  0  0  0  0  0  0
  151.2269  142.7165  158.2707 C   0  0  0  0  0  0  0  0  0  0  0  0
  152.1885  141.6175  158.2526 N   0  0  0  0  0  0  0  0  0  0  0  0
  152.0166  140.6747  157.2160 C   0  0  0  0  0  0  0  0  0  0  0  0
  150.9327  140.7984  156.3148 C   0  0  0  0  0  0  0  0  0  0  0  0
  150.7763  139.8435  155.2924 C   0  0  0  0  0  0  0  0  0  0  0  0
  151.7042  138.7855  155.1952 C   0  0  0  0  0  0  0  0  0  0  0  0
  151.6011  137.7157  154.1170 C   0  0  0  0  0  0  0  0  0  0  0  0
  150.5691  136.7136  154.3624 N   0  0  0  0  0  0  0  0  0  0  0  0
  150.5294  135.8974  155.4265 C   0  0  0  0  0  0  0  0  0  0  0  0
  151.3774  135.9133  156.3205 O   0  0  0  0  0  0  0  0  0  0  0  0
  149.3313  134.9375  155.4983 C   0  0  2  0  0  0  0  0  0  0  0  0
  149.8748  133.4989  155.4935 C   0  0  0  0  0  0  0  0  0  0  0  0
  148.4659  135.1004  154.3310 N   0  0  0  0  0  0  0  0  0  0  0  0
  147.1834  134.7142  154.2641 C   0  0  0  0  0  0  0  0  0  0  0  0
  146.6268  135.0045  153.0881 N   0  0  0  0  0  0  0  0  0  0  0  0
  146.5747  134.1561  155.1749 O   0  0  0  0  0  0  0  0  0  0  0  0
  152.7596  138.7511  156.1279 C   0  0  0  0  0  0  0  0  0  0  0  0
  152.9155  139.6649  157.1086 N   0  0  0  0  0  0  0  0  0  0  0  0
  152.5167  141.1177  159.5859 C   0  0  0  0  0  0  0  0  0  0  0  0
  152.9523  142.2755  160.5030 C   0  0  2  0  0  0  0  0  0  0  0  0
  153.1920  141.8099  161.9428 C   0  0  0  0  0  0  0  0  0  0  0  0
  151.9312  143.2692  160.5178 O   0  0  0  0  0  0  0  0  0  0  0  0
  150.4517  145.4123  158.4054 H   0  0  0  0  0  0  0  0  0  0  0  0
  151.0092  145.7215  160.0470 H   0  0  0  0  0  0  0  0  0  0  0  0
  149.7159  144.5595  159.7618 H   0  0  0  0  0  0  0  0  0  0  0  0
  152.6253  144.2650  158.8543 H   0  0  0  0  0  0  0  0  0  0  0  0
  150.2593  142.3281  158.5921 H   0  0  0  0  0  0  0  0  0  0  0  0
  151.0825  143.1409  157.2782 H   0  0  0  0  0  0  0  0  0  0  0  0
  150.2321  141.6168  156.3864 H   0  0  0  0  0  0  0  0  0  0  0  0
  149.9553  139.9310  154.5960 H   0  0  0  0  0  0  0  0  0  0  0  0
  151.3799  138.2066  153.1693 H   0  0  0  0  0  0  0  0  0  0  0  0
  152.5665  137.2221  153.9913 H   0  0  0  0  0  0  0  0  0  0  0  0
  149.8330  136.6358  153.6754 H   0  0  0  0  0  0  0  0  0  0  0  0
  148.7607  135.1115  156.4128 H   0  0  0  0  0  0  0  0  0  0  0  0
  150.5263  133.3189  156.3497 H   0  0  0  0  0  0  0  0  0  0  0  0
  150.4465  133.2825  154.5895 H   0  0  0  0  0  0  0  0  0  0  0  0
  149.0609  132.7754  155.5488 H   0  0  0  0  0  0  0  0  0  0  0  0
  148.8698  135.5579  153.5272 H   0  0  0  0  0  0  0  0  0  0  0  0
  145.6632  134.7642  152.9079 H   0  0  0  0  0  0  0  0  0  0  0  0
  147.1774  135.4653  152.3780 H   0  0  0  0  0  0  0  0  0  0  0  0
  153.5014  137.9672  156.0897 H   0  0  0  0  0  0  0  0  0  0  0  0
  151.6449  140.6127  160.0045 H   0  0  0  0  0  0  0  0  0  0  0  0
  153.3213  140.3838  159.5236 H   0  0  0  0  0  0  0  0  0  0  0  0
  153.8759  142.7168  160.1238 H   0  0  0  0  0  0  0  0  0  0  0  0
  153.9772  141.0548  161.9853 H   0  0  0  0  0  0  0  0  0  0  0  0
  152.2882  141.3784  162.3738 H   0  0  0  0  0  0  0  0  0  0  0  0
  153.4977  142.6433  162.5757 H   0  0  0  0  0  0  0  0  0  0  0  0
  1  2  1  0  0  0  0
  1 25  1  0  0  0  0
  1 26  1  0  0  0  0
  1 27  1  0  0  0  0
  2 24  1  0  0  0  0
  2  3  1  0  0  0  0
  2 28  1  0  0  0  0
  3  4  1  0  0  0  0
  3 29  1  0  0  0  0
  3 30  1  0  0  0  0
  4  5  1  0  0  0  0
  4 21  1  0  0  0  0
  5 20  1  0  0  0  0
  5  6  2  0  0  0  0
  6  7  1  0  0  0  0
  6 31  1  0  0  0  0
  7  8  2  0  0  0  0
  7 32  1  0  0  0  0
  8  9  1  0  0  0  0
  8 19  1  0  0  0  0
  9 10  1  0  0  0  0
  9 33  1  0  0  0  0
  9 34  1  0  0  0  0
 10 11  1  0  0  0  0
 10 35  1  0  0  0  0
 11 12  2  0  0  0  0
 11 13  1  0  0  0  0
 13 14  1  0  0  0  0
 13 15  1  0  0  0  0
 13 36  1  0  0  0  0
 14 37  1  0  0  0  0
 14 38  1  0  0  0  0
 14 39  1  0  0  0  0
 15 16  1  0  0  0  0
 15 40  1  0  0  0  0
 16 17  1  0  0  0  0
 16 18  2  0  0  0  0
 17 41  1  0  0  0  0
 17 42  1  0  0  0  0
 19 20  2  0  0  0  0
 19 43  1  0  0  0  0
 21 22  1  0  0  0  0
 21 44  1  0  0  0  0
 21 45  1  0  0  0  0
 22 23  1  0  0  0  0
 22 24  1  0  0  0  0
 22 46  1  0  0  0  0
 23 47  1  0  0  0  0
 23 48  1  0  0  0  0
 23 49  1  0  0  0  0
M  END
> <s_m_source_file>
AV-unprocessed.smi

> <i_m_source_file_index>
2121

> <i_lp_mmshare_version>
43012

> <i_f3d_flags>
0

> <s_epik_input>
W0NIM11bQ0BASF0xW0NIMl1OKFtDSDJdW0NASF0oTzEpW0NIM10pYzJbY0hdW2NIXWMoW2NIXW4yKVtDSDJdW05IXUMoPU8pW0NASF0oW0NIM10pW05IXUMoPU8pW05IMl0=

> <s_epik_cmdline>
J2VwaWtfcHl0aG9uJywgJy1waCcsICc3LjAnLCAnLXRuJywgJzgnLCAnLW1hJywgJzIwMCcsICctbWV0YWxfYmluZGluZycsICctaW1hZScsICc8aW5maWxlLm1hZT4nLCAnLW9tYWUnLCAnPG91dGZpbGUubWFlPic=

> <r_lp_tautomer_probability>
1

> <r_epik_Ionization_Penalty>
0.0063713

> <r_epik_Ionization_Penalty_Charging>
0

> <r_epik_Ionization_Penalty_Neutral>
0.0063713

> <r_epik_State_Penalty>
0.00467069

> <r_epik_Charging_Adjusted_Penalty>
0.00467069

> <i_epik_Tot_Q>
0

> <i_epik_Tot_abs_Q>
0

> <r_epik_Metal_State_Penalty>
-0

> <b_epik_Metal_Only>
0

> <s_lp_Force_Field>
OPLS_2005

> <r_lp_Energy>
8.04486

> <b_lp_Chiralities_Consistent>
1

> <s_lp_Variant>
AV-unprocessed.smi:2121-2

> <Gold.Version>
5.8.1

> <Gold.Id.Protein>
6NUR|6NUR_protein|mol2

> <Gold.PLP.Fitness>
57.1629

> <Gold.PLP.PLP>
-43.3593

> <Gold.PLP.part.hbond>
-5.8728

> <Gold.PLP.part.metal>
0.0000

> <Gold.PLP.part.buried>
-2.8940

> <Gold.PLP.part.nonpolar>
-34.9369

> <Gold.PLP.part.repulsive>
0.1819

> <Gold.PLP.ligand.clash>
0.0000

> <Gold.PLP.ligand.torsion>
0.7164

> <Gold.PLP.Chemscore.Hbond>
4.9600

> <Gold.PLP.Chemscore.CHOScore>
0.0000

> <Gold.PLP.Chemscore.Metal>
0.0000

> <Gold.Chemscore.Hbonds>
donor molecule, donor type, donor heavy atom, donor atom, acceptor molecule, acceptor atom, score
      L1  H    10    35       P1  7948  1.00
      L1  H    15    40       P1  7948  1.00
      L1  H    17    42       P1  7948  0.96
      P1  H  7997  8010       L1    20  1.00
      P1  H 10752 10765       L1    12  0.47

> <Gold.PLP.Chemscore.Internal.Correction>
0.3564

> <Gold.Rescore>
     Score         DG    S(hbond)    S(metal)    S(lipo)     H(rot)  DE(clash)    DE(int)     intcor
     22.13     -23.45       3.50        0.00     110.19       2.58       0.67       0.65       ----

> <Gold.Chemscore.Fitness>
22.1305

> <Gold.Chemscore.DG>
-23.4524

> <Gold.Chemscore.ZeroCoef>
-5.4800

> <Gold.Chemscore.Hbond>
3.5014

> <Gold.Chemscore.Metal>
0.0000

> <Gold.Chemscore.Lipo>
110.1907

> <Gold.Chemscore.Internal_Hbond>
0.0000

> <Gold.Chemscore.DEClash>
0.6671

> <Gold.Chemscore.DEInternal>
0.6548

> <Gold.Chemscore.Rot>
2.5838

> <Gold.Chemscore.Internal.Correction>
   9.000000E+99

> <Gold.Chemscore.Hbonds>
donor molecule, donor type, donor heavy atom, donor atom, acceptor molecule, acceptor atom, score
      L1  H    10    35       P1  7948  0.37
      L1  H    15    40       P1  7948  0.88
      L1  H    17    42       P1  7948  0.90
      P1  H  7997  8010       L1    20  0.24
      P1  H 10752 10765       L1    12  0.12

> <Gold.Chemscore.Hbond.Weighted>
-11.6946

> <Gold.Chemscore.Metal.Weighted>
-0.0000

> <Gold.Chemscore.Lipo.Weighted>
-12.8923

> <Gold.Chemscore.Internal_Hbond.Weighted>
0.0000

> <Gold.Chemscore.DEClash.Weighted>
0.6671

> <Gold.Chemscore.DEInternal.Weighted>
0.6548

> <Gold.Chemscore.Rot.Weighted>
6.6145

> <Gold.Chemscore.Internal.Correction.Weighted>
   9.000000E+99

> <Gold.Protein.RotatedTorsions>
[ 6907 6896 6895 6894 ] final  -88.68 input  -60.11 | X-H torsion
[ 7974 7965 7964 7962 ] final -119.38 input  175.53 | X-H torsion
[ 8008 7997 7996 7995 ] final   43.33 input   59.86 | X-H torsion
[ 10167 10162 10161 10158 ] final -160.89 input  -65.29 | X-H torsion
[ 10718 10713 10712 10709 ] final -138.26 input   66.30 | X-H torsion
[ 10763 10752 10751 10750 ] final -142.85 input  -60.55 | X-H torsion
[ 11005 11000 10999 10996 ] final   46.06 input  -57.11 | X-H torsion

> <Gold.Protein.ActiveResidues>
 VAL166  LYS551  ARG553  GLY616  TRP617  ASP618  TYR619  PRO620  LYS621  CYS622 
 ASP623  PHE694  ASN695  SER759  ASP760  ASP761  ALA762  ILE779  LEU786  VAL792 
 PHE793  MET794  SER795  GLU796  ALA797  LYS798  CYS799  TRP800  GLU811  SER814 

> <Gold.Protein.RotatedAtoms>
  150.6870  134.2703  159.4585 H   0  0  0  0  0  0  0  0  0  0  0  0  # atno 6907 bound_to 6896
  152.0626  134.9582  160.0584 H   0  0  0  0  0  0  0  0  0  0  0  0  # atno 6908 bound_to 6896
  152.1003  133.4211  159.4621 H   0  0  0  0  0  0  0  0  0  0  0  0  # atno 6909 bound_to 6896
  145.0631  140.8305  143.4140 H   0  0  0  0  0  0  0  0  0  0  0  0  # atno 7974 bound_to 7965
  155.3009  140.3385  155.4248 H   0  0  0  0  0  0  0  0  0  0  0  0  # atno 8008 bound_to 7997
  156.2002  140.1730  156.7955 H   0  0  0  0  0  0  0  0  0  0  0  0  # atno 8009 bound_to 7997
  154.5549  140.0698  156.8711 H   0  0  0  0  0  0  0  0  0  0  0  0  # atno 8010 bound_to 7997
  139.6506  144.0092  152.2158 H   0  0  0  0  0  0  0  0  0  0  0  0  # atno 10167 bound_to 10162
  156.2973  130.7409  151.1451 H   0  0  0  0  0  0  0  0  0  0  0  0  # atno 10718 bound_to 10713
  154.8493  135.3484  154.6094 H   0  0  0  0  0  0  0  0  0  0  0  0  # atno 10763 bound_to 10752
  153.6702  135.6985  153.5154 H   0  0  0  0  0  0  0  0  0  0  0  0  # atno 10764 bound_to 10752
  153.2748  135.4282  155.0979 H   0  0  0  0  0  0  0  0  0  0  0  0  # atno 10765 bound_to 10752
  140.1403  134.4592  155.8455 H   0  0  0  0  0  0  0  0  0  0  0  0  # atno 11005 bound_to 11000
  145.1384  139.2588  143.5503 LP  0  0  0  0  0  0  0  0  0  0  0  0  # atno 17320 bound_to 7965
  146.3525  140.1054  142.8606 LP  0  0  0  0  0  0  0  0  0  0  0  0  # atno 17321 bound_to 7965
  139.9805  144.6432  150.7905 LP  0  0  0  0  0  0  0  0  0  0  0  0  # atno 17342 bound_to 10162
  140.7535  143.3011  151.3079 LP  0  0  0  0  0  0  0  0  0  0  0  0  # atno 17343 bound_to 10162
  157.7359  131.0568  150.5446 LP  0  0  0  0  0  0  0  0  0  0  0  0  # atno 17370 bound_to 10713
  156.5569  130.4245  149.6081 LP  0  0  0  0  0  0  0  0  0  0  0  0  # atno 17371 bound_to 10713
  141.2185  133.6830  156.7233 LP  0  0  0  0  0  0  0  0  0  0  0  0  # atno 17394 bound_to 11000
  140.2731  134.8376  157.3865 LP  0  0  0  0  0  0  0  0  0  0  0  0  # atno 17395 bound_to 11000

$$$$
