AV-unprocessed.smi:645|AV-procd|sdf|3160|dock2
  -GOLD-   22720 0 83D 1   1.00000     0.00000
 Structure written by MMmdl.
 23 24  0  0  0  0  0  0  0  0  1 V2000
  145.8203  135.3350  154.1588 C   0  0  0  0  0  0  0  0  0  0  0  0
  145.4948  135.6816  152.6918 C   0  0  2  0  0  0  0  0  0  0  0  0
  145.1868  134.4336  151.8496 C   0  0  0  0  0  0  0  0  0  0  0  0
  143.9201  134.2214  151.2526 C   0  0  0  0  0  0  0  0  0  0  0  0
  143.7127  133.0564  150.4874 C   0  0  0  0  0  0  0  0  0  0  0  0
  144.6628  132.1200  150.2862 N   0  0  0  0  0  0  0  0  0  0  0  0
  145.8705  132.3207  150.8526 C   0  0  0  0  0  0  0  0  0  0  0  0
  146.1809  133.4507  151.6341 C   0  0  0  0  0  0  0  0  0  0  0  0
  146.5520  136.5169  152.1358 N   0  0  0  0  0  0  0  0  0  0  0  0
  146.1164  137.7187  151.7353 C   0  0  0  0  0  0  0  0  0  0  0  0
  146.7975  138.5963  151.2107 O   0  0  0  0  0  0  0  0  0  0  0  0
  144.8130  137.7964  152.0167 N   0  0  0  0  0  0  0  0  0  0  0  0
  144.3505  136.6878  152.5922 C   0  0  0  0  0  0  0  0  0  0  0  0
  143.2022  136.4952  152.9898 O   0  0  0  0  0  0  0  0  0  0  0  0
  144.9960  134.8163  154.6488 H   0  0  0  0  0  0  0  0  0  0  0  0
  146.0308  136.2310  154.7450 H   0  0  0  0  0  0  0  0  0  0  0  0
  146.6976  134.6903  154.2212 H   0  0  0  0  0  0  0  0  0  0  0  0
  143.1095  134.9251  151.3672 H   0  0  0  0  0  0  0  0  0  0  0  0
  142.7551  132.8727  150.0229 H   0  0  0  0  0  0  0  0  0  0  0  0
  146.6140  131.5573  150.6784 H   0  0  0  0  0  0  0  0  0  0  0  0
  147.1667  133.5514  152.0634 H   0  0  0  0  0  0  0  0  0  0  0  0
  147.5045  136.1967  152.0393 H   0  0  0  0  0  0  0  0  0  0  0  0
  144.2458  138.6102  151.8291 H   0  0  0  0  0  0  0  0  0  0  0  0
  1  2  1  0  0  0  0
  1 15  1  0  0  0  0
  1 16  1  0  0  0  0
  1 17  1  0  0  0  0
  2 13  1  0  0  0  0
  2  3  1  0  0  0  0
  2  9  1  0  0  0  0
  3  8  1  0  0  0  0
  3  4  2  0  0  0  0
  4  5  1  0  0  0  0
  4 18  1  0  0  0  0
  5  6  2  0  0  0  0
  5 19  1  0  0  0  0
  6  7  1  0  0  0  0
  7  8  2  0  0  0  0
  7 20  1  0  0  0  0
  8 21  1  0  0  0  0
  9 10  1  0  0  0  0
  9 22  1  0  0  0  0
 10 11  2  0  0  0  0
 10 12  1  0  0  0  0
 12 13  1  0  0  0  0
 12 23  1  0  0  0  0
 13 14  2  0  0  0  0
M  END
> <s_m_source_file>
AV-unprocessed.smi

> <i_m_source_file_index>
645

> <i_lp_mmshare_version>
43012

> <i_f3d_flags>
0

> <s_epik_input>
Tz1DMVtOSF1DKD1PKVtOSF1bQ0BAXTEoW0NIM10pYzJbY0hdW2NIXW5bY0hdW2NIXTI=

> <s_epik_cmdline>
J2VwaWtfcHl0aG9uJywgJy1waCcsICc3LjAnLCAnLXRuJywgJzgnLCAnLW1hJywgJzIwMCcsICctbWV0YWxfYmluZGluZycsICctaW1hZScsICc8aW5maWxlLm1hZT4nLCAnLW9tYWUnLCAnPG91dGZpbGUubWFlPic=

> <r_lp_tautomer_probability>
1

> <r_epik_Ionization_Penalty>
0.0327402

> <r_epik_Ionization_Penalty_Charging>
0

> <r_epik_Ionization_Penalty_Neutral>
0.0327402

> <r_epik_State_Penalty>
0.022996

> <r_epik_Charging_Adjusted_Penalty>
0.022996

> <i_epik_Tot_Q>
0

> <i_epik_Tot_abs_Q>
0

> <r_epik_Metal_State_Penalty>
0.426243

> <b_epik_Metal_Only>
0

> <s_lp_Force_Field>
OPLS_2005

> <r_lp_Energy>
18.0362

> <b_lp_Chiralities_Consistent>
1

> <s_lp_Variant>
AV-unprocessed.smi:645-2

> <Gold.Version>
5.8.1

> <Gold.Id.Protein>
6NUR|6NUR_protein|mol2

> <Gold.PLP.Fitness>
35.4596

> <Gold.PLP.PLP>
-21.3584

> <Gold.PLP.part.hbond>
-3.5783

> <Gold.PLP.part.metal>
0.0000

> <Gold.PLP.part.buried>
-3.5295

> <Gold.PLP.part.nonpolar>
-15.9463

> <Gold.PLP.part.repulsive>
0.8838

> <Gold.PLP.ligand.clash>
0.0000

> <Gold.PLP.ligand.torsion>
0.0923

> <Gold.PLP.Chemscore.Hbond>
2.7400

> <Gold.PLP.Chemscore.CHOScore>
1.9824

> <Gold.PLP.Chemscore.Metal>
0.0000

> <Gold.Chemscore.Hbonds>
donor molecule, donor type, donor heavy atom, donor atom, acceptor molecule, acceptor atom, score
      L1  H     9    22       P1  7948  0.78
      L1  H    12    23       P1 10175  0.96
      P1  H  7954  7966       L1    11  1.00
      L1  C     5    19       P1 10186  0.98
      L1  C     7    20       P1 10747  1.00

> <Gold.PLP.Chemscore.Internal.Correction>
0.1187

> <Gold.Rescore>
     Score         DG    S(hbond)    S(metal)    S(lipo)     H(rot)  DE(clash)    DE(int)     intcor
     14.37     -16.29       2.66        0.00      38.38       1.00       0.66       1.26       ----

> <Gold.Chemscore.Fitness>
14.3726

> <Gold.Chemscore.DG>
-16.2883

> <Gold.Chemscore.ZeroCoef>
-5.4800

> <Gold.Chemscore.Hbond>
2.6582

> <Gold.Chemscore.Metal>
0.0000

> <Gold.Chemscore.Lipo>
38.3769

> <Gold.Chemscore.Internal_Hbond>
0.0000

> <Gold.Chemscore.DEClash>
0.6606

> <Gold.Chemscore.DEInternal>
1.2551

> <Gold.Chemscore.Rot>
1.0000

> <Gold.Chemscore.Internal.Correction>
   9.000000E+99

> <Gold.Chemscore.Hbonds>
donor molecule, donor type, donor heavy atom, donor atom, acceptor molecule, acceptor atom, score
      L1  H     9    22       P1  7948  0.76
      L1  H    12    23       P1 10175  0.88
      P1  H  7954  7966       L1    11  0.80

> <Gold.Chemscore.Hbond.Weighted>
-8.8782

> <Gold.Chemscore.Metal.Weighted>
-0.0000

> <Gold.Chemscore.Lipo.Weighted>
-4.4901

> <Gold.Chemscore.Internal_Hbond.Weighted>
0.0000

> <Gold.Chemscore.DEClash.Weighted>
0.6606

> <Gold.Chemscore.DEInternal.Weighted>
1.2551

> <Gold.Chemscore.Rot.Weighted>
2.5600

> <Gold.Chemscore.Internal.Correction.Weighted>
   9.000000E+99

> <Gold.Protein.RotatedTorsions>
[ 6907 6896 6895 6894 ] final   61.68 input  -60.11 | X-H torsion
[ 7974 7965 7964 7962 ] final   40.72 input  175.53 | X-H torsion
[ 8008 7997 7996 7995 ] final    9.10 input   59.86 | X-H torsion
[ 10167 10162 10161 10158 ] final   76.89 input  -65.29 | X-H torsion
[ 10718 10713 10712 10709 ] final  177.63 input   66.30 | X-H torsion
[ 10763 10752 10751 10750 ] final  170.94 input  -60.55 | X-H torsion
[ 11005 11000 10999 10996 ] final  -16.35 input  -57.11 | X-H torsion

> <Gold.Protein.ActiveResidues>
 VAL166  LYS551  ARG553  GLY616  TRP617  ASP618  TYR619  PRO620  LYS621  CYS622 
 ASP623  PHE694  ASN695  SER759  ASP760  ASP761  ALA762  ILE779  LEU786  VAL792 
 PHE793  MET794  SER795  GLU796  ALA797  LYS798  CYS799  TRP800  GLU811  SER814 

> <Gold.Protein.RotatedAtoms>
  152.4109  134.6126  160.0029 H   0  0  0  0  0  0  0  0  0  0  0  0  # atno 6907 bound_to 6896
  151.6303  133.3327  159.3115 H   0  0  0  0  0  0  0  0  0  0  0  0  # atno 6908 bound_to 6896
  150.8000  134.7127  159.6658 H   0  0  0  0  0  0  0  0  0  0  0  0  # atno 6909 bound_to 6896
  146.0882  139.5500  142.9493 H   0  0  0  0  0  0  0  0  0  0  0  0  # atno 7974 bound_to 7965
  154.7756  140.2810  155.6104 H   0  0  0  0  0  0  0  0  0  0  0  0  # atno 8008 bound_to 7997
  156.2941  140.2633  156.2497 H   0  0  0  0  0  0  0  0  0  0  0  0  # atno 8009 bound_to 7997
  154.9847  140.0374  157.2283 H   0  0  0  0  0  0  0  0  0  0  0  0  # atno 8010 bound_to 7997
  139.9875  144.5782  150.7847 H   0  0  0  0  0  0  0  0  0  0  0  0  # atno 10167 bound_to 10162
  156.9025  130.9883  151.3033 H   0  0  0  0  0  0  0  0  0  0  0  0  # atno 10718 bound_to 10713
  154.4048  135.2755  155.2074 H   0  0  0  0  0  0  0  0  0  0  0  0  # atno 10763 bound_to 10752
  154.4085  135.6028  153.5942 H   0  0  0  0  0  0  0  0  0  0  0  0  # atno 10764 bound_to 10752
  152.9831  135.5943  154.4321 H   0  0  0  0  0  0  0  0  0  0  0  0  # atno 10765 bound_to 10752
  140.8059  133.8178  155.9516 H   0  0  0  0  0  0  0  0  0  0  0  0  # atno 11005 bound_to 11000
  145.6090  141.0343  143.1977 LP  0  0  0  0  0  0  0  0  0  0  0  0  # atno 17320 bound_to 7965
  144.7341  139.7638  143.7336 LP  0  0  0  0  0  0  0  0  0  0  0  0  # atno 17321 bound_to 7965
  140.7467  143.2895  151.3371 LP  0  0  0  0  0  0  0  0  0  0  0  0  # atno 17342 bound_to 10162
  139.6364  144.0621  152.2519 LP  0  0  0  0  0  0  0  0  0  0  0  0  # atno 17343 bound_to 10162
  157.6017  130.8517  149.8813 LP  0  0  0  0  0  0  0  0  0  0  0  0  # atno 17370 bound_to 10713
  156.0575  130.3706  150.1058 LP  0  0  0  0  0  0  0  0  0  0  0  0  # atno 17371 bound_to 10713
  140.9247  134.2097  157.4903 LP  0  0  0  0  0  0  0  0  0  0  0  0  # atno 17394 bound_to 11000
  139.8718  134.9807  156.5088 LP  0  0  0  0  0  0  0  0  0  0  0  0  # atno 17395 bound_to 11000

$$$$
