AV-unprocessed.smi:2087|AV-procd|sdf|8523|dock5
  -GOLD-   2272011243D 1   1.00000     0.00000
 Structure written by MMmdl.
 51 52  0  0  0  0  0  0  0  0  2 V2000
  153.1569  142.5747  160.6991 C   0  0  0  0  0  0  0  0  0  0  0  0
  152.7457  142.5069  159.2184 C   0  0  0  0  0  0  0  0  0  0  0  0
  152.0857  143.8247  158.7858 C   0  0  0  0  0  0  0  0  0  0  0  0
  151.8093  141.3122  158.9357 C   0  0  0  0  0  0  0  0  0  0  0  0
  151.2271  141.3416  157.5696 N   0  3  2  0  0  0  0  0  0  0  0  0
  149.7958  141.7331  157.5381 C   0  0  0  0  0  0  0  0  0  0  0  0
  149.2825  141.7775  156.0890 C   0  0  0  0  0  0  0  0  0  0  0  0
  149.5057  140.5190  155.4663 O   0  0  0  0  0  0  0  0  0  0  0  0
  150.8903  140.1912  155.3995 C   0  0  2  0  0  0  0  0  0  0  0  0
  151.0478  138.8852  154.5988 C   0  0  0  0  0  0  0  0  0  0  0  0
  150.2025  137.8293  155.1432 N   0  0  0  0  0  0  0  0  0  0  0  0
  150.4760  136.5179  155.0804 C   0  0  0  0  0  0  0  0  0  0  0  0
  151.5331  136.0682  154.6363 O   0  0  0  0  0  0  0  0  0  0  0  0
  149.3809  135.5719  155.5882 C   0  0  0  0  0  0  0  0  0  0  0  0
  149.5307  134.2082  155.0624 N   0  0  0  0  0  0  0  0  0  0  0  0
  149.0538  133.9034  153.8001 C   0  0  0  0  0  0  0  0  0  0  0  0
  149.1487  132.6758  153.2442 C   0  0  0  0  0  0  0  0  0  0  0  0
  149.7712  131.5739  153.9673 C   0  0  0  0  0  0  0  0  0  0  0  0
  149.8959  130.4421  153.4975 O   0  0  0  0  0  0  0  0  0  0  0  0
  150.2375  131.9067  155.2603 N   0  0  0  0  0  0  0  0  0  0  0  0
  150.8714  130.8514  156.0238 C   0  0  0  0  0  0  0  0  0  0  0  0
  150.1560  133.1986  155.8289 C   0  0  0  0  0  0  0  0  0  0  0  0
  150.6087  133.4548  156.9479 O   0  0  0  0  0  0  0  0  0  0  0  0
  151.4322  140.0703  156.8354 C   0  0  0  0  0  0  0  0  0  0  0  0
  152.2865  142.6783  161.3478 H   0  0  0  0  0  0  0  0  0  0  0  0
  153.8124  143.4261  160.8858 H   0  0  0  0  0  0  0  0  0  0  0  0
  153.6967  141.6789  161.0068 H   0  0  0  0  0  0  0  0  0  0  0  0
  153.6521  142.4001  158.6228 H   0  0  0  0  0  0  0  0  0  0  0  0
  151.1697  144.0126  159.3470 H   0  0  0  0  0  0  0  0  0  0  0  0
  151.8292  143.8083  157.7260 H   0  0  0  0  0  0  0  0  0  0  0  0
  152.7540  144.6712  158.9471 H   0  0  0  0  0  0  0  0  0  0  0  0
  152.3821  140.3927  159.0655 H   0  0  0  0  0  0  0  0  0  0  0  0
  151.0021  141.2720  159.6691 H   0  0  0  0  0  0  0  0  0  0  0  0
  149.2083  141.0198  158.1182 H   0  0  0  0  0  0  0  0  0  0  0  0
  149.6556  142.7107  157.9979 H   0  0  0  0  0  0  0  0  0  0  0  0
  148.2140  141.9938  156.0745 H   0  0  0  0  0  0  0  0  0  0  0  0
  149.7745  142.5702  155.5230 H   0  0  0  0  0  0  0  0  0  0  0  0
  151.4257  140.9919  154.8857 H   0  0  0  0  0  0  0  0  0  0  0  0
  150.8022  139.0483  153.5481 H   0  0  0  0  0  0  0  0  0  0  0  0
  152.0842  138.5475  154.6278 H   0  0  0  0  0  0  0  0  0  0  0  0
  149.3151  138.1111  155.5347 H   0  0  0  0  0  0  0  0  0  0  0  0
  149.4154  135.5669  156.6784 H   0  0  0  0  0  0  0  0  0  0  0  0
  148.3948  135.9579  155.3229 H   0  0  0  0  0  0  0  0  0  0  0  0
  148.5803  134.6850  153.2239 H   0  0  0  0  0  0  0  0  0  0  0  0
  148.7587  132.5066  152.2512 H   0  0  0  0  0  0  0  0  0  0  0  0
  150.8732  131.0947  157.0864 H   0  0  0  0  0  0  0  0  0  0  0  0
  151.8877  130.7495  155.6407 H   0  0  0  0  0  0  0  0  0  0  0  0
  150.2990  129.9323  155.8869 H   0  0  0  0  0  0  0  0  0  0  0  0
  152.4960  139.8308  156.8053 H   0  0  0  0  0  0  0  0  0  0  0  0
  150.9331  139.2561  157.3636 H   0  0  0  0  0  0  0  0  0  0  0  0
  151.7381  142.0459  157.0563 H   0  0  0  0  0  0  0  0  0  0  0  0
  1  2  1  0  0  0  0
  1 25  1  0  0  0  0
  1 26  1  0  0  0  0
  1 27  1  0  0  0  0
  2  3  1  0  0  0  0
  2  4  1  0  0  0  0
  2 28  1  0  0  0  0
  3 29  1  0  0  0  0
  3 30  1  0  0  0  0
  3 31  1  0  0  0  0
  4  5  1  0  0  0  0
  4 32  1  0  0  0  0
  4 33  1  0  0  0  0
  5 24  1  0  0  0  0
  5  6  1  0  0  0  0
  5 51  1  0  0  0  0
  6  7  1  0  0  0  0
  6 34  1  0  0  0  0
  6 35  1  0  0  0  0
  7  8  1  0  0  0  0
  7 36  1  0  0  0  0
  7 37  1  0  0  0  0
  8  9  1  0  0  0  0
  9 10  1  0  0  0  0
  9 24  1  0  0  0  0
  9 38  1  0  0  0  0
 10 11  1  0  0  0  0
 10 39  1  0  0  0  0
 10 40  1  0  0  0  0
 11 12  1  0  0  0  0
 11 41  1  0  0  0  0
 12 13  2  0  0  0  0
 12 14  1  0  0  0  0
 14 15  1  0  0  0  0
 14 42  1  0  0  0  0
 14 43  1  0  0  0  0
 15 22  1  0  0  0  0
 15 16  1  0  0  0  0
 16 17  2  0  0  0  0
 16 44  1  0  0  0  0
 17 18  1  0  0  0  0
 17 45  1  0  0  0  0
 18 19  2  0  0  0  0
 18 20  1  0  0  0  0
 20 21  1  0  0  0  0
 20 22  1  0  0  0  0
 21 46  1  0  0  0  0
 21 47  1  0  0  0  0
 21 48  1  0  0  0  0
 22 23  2  0  0  0  0
 24 49  1  0  0  0  0
 24 50  1  0  0  0  0
M  CHG  1   5   1
M  END
> <s_m_source_file>
AV-unprocessed.smi

> <i_m_source_file_index>
2087

> <i_lp_mmshare_version>
43012

> <i_f3d_flags>
0

> <s_epik_input>
W0NIM11bQ0hdKFtDSDNdKVtDSDJdTjFbQ0gyXVtDSDJdT1tDQEhdKFtDSDJdMSlbQ0gyXVtOSF1DKD1PKVtDSDJdbjJbY0hdW2NIXWMoPU8pbihbQ0gzXSljMj1P

> <s_epik_cmdline>
J2VwaWtfcHl0aG9uJywgJy1waCcsICc3LjAnLCAnLXRuJywgJzgnLCAnLW1hJywgJzIwMCcsICctbWV0YWxfYmluZGluZycsICctaW1hZScsICc8aW5maWxlLm1hZT4nLCAnLW9tYWUnLCAnPG91dGZpbGUubWFlPic=

> <r_lp_tautomer_probability>
1

> <r_epik_Ionization_Penalty>
0.097593

> <r_epik_Ionization_Penalty_Charging>
0.097593

> <r_epik_Ionization_Penalty_Neutral>
6.27044e-08

> <r_epik_State_Penalty>
0.0877056

> <r_epik_Charging_Adjusted_Penalty>
0.185299

> <i_epik_Tot_Q>
1

> <i_epik_Tot_abs_Q>
1

> <r_epik_Metal_State_Penalty>
0.0877109

> <b_epik_Metal_Only>
0

> <s_lp_Force_Field>
OPLS_2005

> <r_lp_Energy>
25.7141

> <b_lp_Chiralities_Consistent>
1

> <s_lp_Variant>
AV-unprocessed.smi:2087-4

> <Gold.Version>
5.8.1

> <Gold.Id.Protein>
6NUR|6NUR_protein|mol2

> <Gold.PLP.Fitness>
46.9573

> <Gold.PLP.PLP>
-41.1714

> <Gold.PLP.part.hbond>
-1.8744

> <Gold.PLP.part.metal>
0.0000

> <Gold.PLP.part.buried>
-3.4597

> <Gold.PLP.part.nonpolar>
-37.5826

> <Gold.PLP.part.repulsive>
0.3806

> <Gold.PLP.ligand.clash>
0.0000

> <Gold.PLP.ligand.torsion>
1.5565

> <Gold.PLP.Chemscore.Hbond>
1.9350

> <Gold.PLP.Chemscore.CHOScore>
1.0000

> <Gold.PLP.Chemscore.Metal>
0.0000

> <Gold.Chemscore.Hbonds>
donor molecule, donor type, donor heavy atom, donor atom, acceptor molecule, acceptor atom, score
      P1  H  6896  6907       L1    23  0.29
      P1  H 10752 10765       L1    13  0.84
      L1  C    16    44       P1  7948  1.00

> <Gold.PLP.Chemscore.Internal.Correction>
0.0938

> <Gold.Rescore>
     Score         DG    S(hbond)    S(metal)    S(lipo)     H(rot)  DE(clash)    DE(int)     intcor
     15.99     -17.32       1.94        0.00      94.49       2.22       0.05       1.29       ----

> <Gold.Chemscore.Fitness>
15.9870

> <Gold.Chemscore.DG>
-17.3247

> <Gold.Chemscore.ZeroCoef>
-5.4800

> <Gold.Chemscore.Hbond>
1.9417

> <Gold.Chemscore.Metal>
0.0000

> <Gold.Chemscore.Lipo>
94.4895

> <Gold.Chemscore.Internal_Hbond>
0.0000

> <Gold.Chemscore.DEClash>
0.0504

> <Gold.Chemscore.DEInternal>
1.2873

> <Gold.Chemscore.Rot>
2.2249

> <Gold.Chemscore.Internal.Correction>
   9.000000E+99

> <Gold.Chemscore.Hbonds>
donor molecule, donor type, donor heavy atom, donor atom, acceptor molecule, acceptor atom, score
      P1  H  6896  6907       L1    23  0.30
      P1  H 10752 10765       L1    13  0.82

> <Gold.Chemscore.Hbond.Weighted>
-6.4852

> <Gold.Chemscore.Metal.Weighted>
-0.0000

> <Gold.Chemscore.Lipo.Weighted>
-11.0553

> <Gold.Chemscore.Internal_Hbond.Weighted>
0.0000

> <Gold.Chemscore.DEClash.Weighted>
0.0504

> <Gold.Chemscore.DEInternal.Weighted>
1.2873

> <Gold.Chemscore.Rot.Weighted>
5.6957

> <Gold.Chemscore.Internal.Correction.Weighted>
   9.000000E+99

> <Gold.Protein.RotatedTorsions>
[ 6907 6896 6895 6894 ] final -139.34 input  -60.11 | X-H torsion
[ 7974 7965 7964 7962 ] final  162.81 input  175.53 | X-H torsion
[ 8008 7997 7996 7995 ] final -169.90 input   59.86 | X-H torsion
[ 10167 10162 10161 10158 ] final -143.42 input  -65.29 | X-H torsion
[ 10718 10713 10712 10709 ] final -130.98 input   66.30 | X-H torsion
[ 10763 10752 10751 10750 ] final  171.92 input  -60.55 | X-H torsion
[ 11005 11000 10999 10996 ] final  155.71 input  -57.11 | X-H torsion

> <Gold.Protein.ActiveResidues>
 VAL166  LYS551  ARG553  GLY616  TRP617  ASP618  TYR619  PRO620  LYS621  CYS622 
 ASP623  PHE694  ASN695  SER759  ASP760  ASP761  ALA762  ILE779  LEU786  VAL792 
 PHE793  MET794  SER795  GLU796  ALA797  LYS798  CYS799  TRP800  GLU811  SER814 

> <Gold.Protein.RotatedAtoms>
  151.0466  133.5660  159.2645 H   0  0  0  0  0  0  0  0  0  0  0  0  # atno 6907 bound_to 6896
  151.2687  135.0676  159.9135 H   0  0  0  0  0  0  0  0  0  0  0  0  # atno 6908 bound_to 6896
  152.5374  134.0200  159.8031 H   0  0  0  0  0  0  0  0  0  0  0  0  # atno 6909 bound_to 6896
  144.7619  139.8093  143.6329 H   0  0  0  0  0  0  0  0  0  0  0  0  # atno 7974 bound_to 7965
  155.9111  140.1057  157.1278 H   0  0  0  0  0  0  0  0  0  0  0  0  # atno 8008 bound_to 7997
  154.4039  140.1274  156.4623 H   0  0  0  0  0  0  0  0  0  0  0  0  # atno 8009 bound_to 7997
  155.7309  140.3468  155.5061 H   0  0  0  0  0  0  0  0  0  0  0  0  # atno 8010 bound_to 7997
  139.7995  143.7853  152.2657 H   0  0  0  0  0  0  0  0  0  0  0  0  # atno 10167 bound_to 10162
  156.2198  130.6971  151.0743 H   0  0  0  0  0  0  0  0  0  0  0  0  # atno 10718 bound_to 10713
  154.4187  135.2757  155.1989 H   0  0  0  0  0  0  0  0  0  0  0  0  # atno 10763 bound_to 10752
  154.3944  135.6059  153.5865 H   0  0  0  0  0  0  0  0  0  0  0  0  # atno 10764 bound_to 10752
  152.9832  135.5911  154.4480 H   0  0  0  0  0  0  0  0  0  0  0  0  # atno 10765 bound_to 10752
  140.1607  134.8611  157.2570 H   0  0  0  0  0  0  0  0  0  0  0  0  # atno 11005 bound_to 11000
  146.1690  139.4833  142.9940 LP  0  0  0  0  0  0  0  0  0  0  0  0  # atno 17320 bound_to 7965
  145.6592  141.0244  143.1718 LP  0  0  0  0  0  0  0  0  0  0  0  0  # atno 17321 bound_to 7965
  139.7969  144.7389  150.9878 LP  0  0  0  0  0  0  0  0  0  0  0  0  # atno 17342 bound_to 10162
  140.7820  143.4384  151.0588 LP  0  0  0  0  0  0  0  0  0  0  0  0  # atno 17343 bound_to 10162
  157.7081  131.0747  150.6595 LP  0  0  0  0  0  0  0  0  0  0  0  0  # atno 17370 bound_to 10713
  156.6658  130.4525  149.5673 LP  0  0  0  0  0  0  0  0  0  0  0  0  # atno 17371 bound_to 10713
  140.2493  134.3701  155.7448 LP  0  0  0  0  0  0  0  0  0  0  0  0  # atno 17394 bound_to 11000
  141.2209  133.7308  156.8911 LP  0  0  0  0  0  0  0  0  0  0  0  0  # atno 17395 bound_to 11000

$$$$
