AV-unprocessed.smi:1427|AV-procd|sdf|5812|dock8
  -GOLD-   22720 5463D 1   1.00000     0.00000
 Structure written by MMmdl.
 33 34  0  0  0  0  0  0  0  0  1 V2000
  151.4729  141.0959  157.9438 C   0  0  0  0  0  0  0  0  0  0  0  0
  150.4689  142.2566  157.9401 C   0  0  1  0  0  0  0  0  0  0  0  0
  151.1372  143.5795  158.3738 C   0  0  0  0  0  0  0  0  0  0  0  0
  151.5963  143.5503  159.7522 N   0  0  0  0  0  0  0  0  0  0  0  0
  152.4592  142.6556  160.3488 C   0  0  0  0  0  0  0  0  0  0  0  0
  152.5732  143.0147  161.6612 C   0  0  0  0  0  0  0  0  0  0  0  0
  151.7345  144.1587  161.7726 C   0  0  0  0  0  0  0  0  0  0  0  0
  151.1542  144.4795  160.6278 N   0  0  0  0  0  0  0  0  0  0  0  0
  149.8878  142.3798  156.6037 N   0  0  0  0  0  0  0  0  0  0  0  0
  149.4752  141.3605  155.8331 C   0  0  0  0  0  0  0  0  0  0  0  0
  149.5869  140.1776  156.1586 O   0  0  0  0  0  0  0  0  0  0  0  0
  148.8428  141.7391  154.4864 C   0  0  1  0  0  0  0  0  0  0  0  0
  148.2804  140.5389  153.6996 C   0  0  0  0  0  0  0  0  0  0  0  0
  146.7617  140.5790  153.9192 C   0  0  0  0  0  0  0  0  0  0  0  0
  146.5281  142.0033  154.3948 C   0  0  0  0  0  0  0  0  0  0  0  0
  145.4140  142.5102  154.5012 O   0  0  0  0  0  0  0  0  0  0  0  0
  147.6872  142.6010  154.6726 N   0  0  0  0  0  0  0  0  0  0  0  0
  151.9043  140.9546  158.9352 H   0  0  0  0  0  0  0  0  0  0  0  0
  152.2926  141.2763  157.2473 H   0  0  0  0  0  0  0  0  0  0  0  0
  150.9926  140.1593  157.6588 H   0  0  0  0  0  0  0  0  0  0  0  0
  149.6886  142.0076  158.6618 H   0  0  0  0  0  0  0  0  0  0  0  0
  152.0016  143.7849  157.7414 H   0  0  0  0  0  0  0  0  0  0  0  0
  150.4504  144.4173  158.2412 H   0  0  0  0  0  0  0  0  0  0  0  0
  152.9075  141.8421  159.7978 H   0  0  0  0  0  0  0  0  0  0  0  0
  153.1629  142.5317  162.4258 H   0  0  0  0  0  0  0  0  0  0  0  0
  151.5313  144.7613  162.6458 H   0  0  0  0  0  0  0  0  0  0  0  0
  149.7595  143.3172  156.2512 H   0  0  0  0  0  0  0  0  0  0  0  0
  149.5780  142.2700  153.8792 H   0  0  0  0  0  0  0  0  0  0  0  0
  148.5013  140.6544  152.6375 H   0  0  0  0  0  0  0  0  0  0  0  0
  148.7099  139.5866  154.0152 H   0  0  0  0  0  0  0  0  0  0  0  0
  146.2039  140.3584  153.0087 H   0  0  0  0  0  0  0  0  0  0  0  0
  146.4540  139.8833  154.7005 H   0  0  0  0  0  0  0  0  0  0  0  0
  147.7669  143.5461  155.0190 H   0  0  0  0  0  0  0  0  0  0  0  0
  1  2  1  0  0  0  0
  1 18  1  0  0  0  0
  1 19  1  0  0  0  0
  1 20  1  0  0  0  0
  2  3  1  0  0  0  0
  2  9  1  0  0  0  0
  2 21  1  0  0  0  0
  3  4  1  0  0  0  0
  3 22  1  0  0  0  0
  3 23  1  0  0  0  0
  4  8  1  0  0  0  0
  4  5  1  0  0  0  0
  5  6  2  0  0  0  0
  5 24  1  0  0  0  0
  6  7  1  0  0  0  0
  6 25  1  0  0  0  0
  7  8  2  0  0  0  0
  7 26  1  0  0  0  0
  9 10  1  0  0  0  0
  9 27  1  0  0  0  0
 10 11  2  0  0  0  0
 10 12  1  0  0  0  0
 12 17  1  0  0  0  0
 12 13  1  0  0  0  0
 12 28  1  0  0  0  0
 13 14  1  0  0  0  0
 13 29  1  0  0  0  0
 13 30  1  0  0  0  0
 14 15  1  0  0  0  0
 14 31  1  0  0  0  0
 14 32  1  0  0  0  0
 15 16  2  0  0  0  0
 15 17  1  0  0  0  0
 17 33  1  0  0  0  0
M  END
> <s_m_source_file>
AV-unprocessed.smi

> <i_m_source_file_index>
1427

> <i_lp_mmshare_version>
43012

> <i_f3d_flags>
0

> <s_epik_input>
bjFbY0hdW2NIXVtjSF1uMVtDSDJdW0NAQEhdKFtDSDNdKVtOSF1DKD1PKVtDQEBIXTJbQ0gyXVtDSDJdQyg9TylbTkhdMg==

> <s_epik_cmdline>
J2VwaWtfcHl0aG9uJywgJy1waCcsICc3LjAnLCAnLXRuJywgJzgnLCAnLW1hJywgJzIwMCcsICctbWV0YWxfYmluZGluZycsICctaW1hZScsICc8aW5maWxlLm1hZT4nLCAnLW9tYWUnLCAnPG91dGZpbGUubWFlPic=

> <r_lp_tautomer_probability>
1

> <r_epik_Ionization_Penalty>
0.000310707

> <r_epik_Ionization_Penalty_Charging>
0

> <r_epik_Ionization_Penalty_Neutral>
0.000310707

> <r_epik_State_Penalty>
-0

> <r_epik_Charging_Adjusted_Penalty>
0

> <i_epik_Tot_Q>
0

> <i_epik_Tot_abs_Q>
0

> <r_epik_Metal_State_Penalty>
-0

> <b_epik_Metal_Only>
0

> <s_lp_Force_Field>
OPLS_2005

> <r_lp_Energy>
14.0885

> <b_lp_Chiralities_Consistent>
1

> <s_lp_Variant>
AV-unprocessed.smi:1427-4

> <Gold.Version>
5.8.1

> <Gold.Id.Protein>
6NUR|6NUR_protein|mol2

> <Gold.PLP.Fitness>
42.7027

> <Gold.PLP.PLP>
-37.1838

> <Gold.PLP.part.hbond>
-2.0000

> <Gold.PLP.part.metal>
0.0000

> <Gold.PLP.part.buried>
-2.5798

> <Gold.PLP.part.nonpolar>
-33.0372

> <Gold.PLP.part.repulsive>
0.5691

> <Gold.PLP.ligand.clash>
0.0000

> <Gold.PLP.ligand.torsion>
0.2543

> <Gold.PLP.Chemscore.Hbond>
2.0000

> <Gold.PLP.Chemscore.CHOScore>
0.0000

> <Gold.PLP.Chemscore.Metal>
0.0000

> <Gold.Chemscore.Hbonds>
donor molecule, donor type, donor heavy atom, donor atom, acceptor molecule, acceptor atom, score
      L1  H     9    27       P1  8028  1.00
      L1  H    17    33       P1  8028  0.91

> <Gold.PLP.Chemscore.Internal.Correction>
0.0275

> <Gold.Rescore>
     Score         DG    S(hbond)    S(metal)    S(lipo)     H(rot)  DE(clash)    DE(int)     intcor
     14.45     -16.08       1.79        0.00      80.65       1.88       0.01       1.62       ----

> <Gold.Chemscore.Fitness>
14.4504

> <Gold.Chemscore.DG>
-16.0796

> <Gold.Chemscore.ZeroCoef>
-5.4800

> <Gold.Chemscore.Hbond>
1.7910

> <Gold.Chemscore.Metal>
0.0000

> <Gold.Chemscore.Lipo>
80.6467

> <Gold.Chemscore.Internal_Hbond>
0.0000

> <Gold.Chemscore.DEClash>
0.0098

> <Gold.Chemscore.DEInternal>
1.6194

> <Gold.Chemscore.Rot>
1.8821

> <Gold.Chemscore.Internal.Correction>
   9.000000E+99

> <Gold.Chemscore.Hbonds>
donor molecule, donor type, donor heavy atom, donor atom, acceptor molecule, acceptor atom, score
      L1  H     9    27       P1  8028  0.99
      L1  H    17    33       P1  8028  0.31

> <Gold.Chemscore.Hbond.Weighted>
-5.9820

> <Gold.Chemscore.Metal.Weighted>
-0.0000

> <Gold.Chemscore.Lipo.Weighted>
-9.4357

> <Gold.Chemscore.Internal_Hbond.Weighted>
0.0000

> <Gold.Chemscore.DEClash.Weighted>
0.0098

> <Gold.Chemscore.DEInternal.Weighted>
1.6194

> <Gold.Chemscore.Rot.Weighted>
4.8181

> <Gold.Chemscore.Internal.Correction.Weighted>
   9.000000E+99

> <Gold.Protein.RotatedTorsions>
[ 6907 6896 6895 6894 ] final -137.69 input  -60.11 | X-H torsion
[ 7974 7965 7964 7962 ] final  -70.67 input  175.53 | X-H torsion
[ 8008 7997 7996 7995 ] final   86.17 input   59.86 | X-H torsion
[ 10167 10162 10161 10158 ] final  -55.28 input  -65.29 | X-H torsion
[ 10718 10713 10712 10709 ] final  114.31 input   66.30 | X-H torsion
[ 10763 10752 10751 10750 ] final  -48.01 input  -60.55 | X-H torsion
[ 11005 11000 10999 10996 ] final   37.71 input  -57.11 | X-H torsion

> <Gold.Protein.ActiveResidues>
 VAL166  LYS551  ARG553  GLY616  TRP617  ASP618  TYR619  PRO620  LYS621  CYS622 
 ASP623  PHE694  ASN695  SER759  ASP760  ASP761  ALA762  ILE779  LEU786  VAL792 
 PHE793  MET794  SER795  GLU796  ALA797  LYS798  CYS799  TRP800  GLU811  SER814 

> <Gold.Protein.RotatedAtoms>
  151.0256  133.5837  159.2666 H   0  0  0  0  0  0  0  0  0  0  0  0  # atno 6907 bound_to 6896
  151.2937  135.0748  159.9223 H   0  0  0  0  0  0  0  0  0  0  0  0  # atno 6908 bound_to 6896
  152.5333  133.9950  159.7922 H   0  0  0  0  0  0  0  0  0  0  0  0  # atno 6909 bound_to 6896
  145.6880  140.9163  143.0797 H   0  0  0  0  0  0  0  0  0  0  0  0  # atno 7974 bound_to 7965
  155.9594  140.3394  155.6477 H   0  0  0  0  0  0  0  0  0  0  0  0  # atno 8008 bound_to 7997
  155.6818  140.0738  157.2500 H   0  0  0  0  0  0  0  0  0  0  0  0  # atno 8009 bound_to 7997
  154.4139  140.1673  156.1978 H   0  0  0  0  0  0  0  0  0  0  0  0  # atno 8010 bound_to 7997
  140.6383  143.2494  151.5057 H   0  0  0  0  0  0  0  0  0  0  0  0  # atno 10167 bound_to 10162
  157.6289  131.0996  150.7167 H   0  0  0  0  0  0  0  0  0  0  0  0  # atno 10718 bound_to 10713
  154.0707  135.6605  153.4824 H   0  0  0  0  0  0  0  0  0  0  0  0  # atno 10763 bound_to 10752
  153.0392  135.5156  154.7569 H   0  0  0  0  0  0  0  0  0  0  0  0  # atno 10764 bound_to 10752
  154.6634  135.3018  154.9804 H   0  0  0  0  0  0  0  0  0  0  0  0  # atno 10765 bound_to 10752
  140.2198  134.3654  155.8010 H   0  0  0  0  0  0  0  0  0  0  0  0  # atno 11005 bound_to 11000
  144.7005  139.8784  143.7445 LP  0  0  0  0  0  0  0  0  0  0  0  0  # atno 17320 bound_to 7965
  146.0907  139.3896  143.0408 LP  0  0  0  0  0  0  0  0  0  0  0  0  # atno 17321 bound_to 7965
  139.5593  144.2196  152.1665 LP  0  0  0  0  0  0  0  0  0  0  0  0  # atno 17342 bound_to 10162
  140.1459  144.5159  150.6716 LP  0  0  0  0  0  0  0  0  0  0  0  0  # atno 17343 bound_to 10162
  156.7510  130.4768  149.5457 LP  0  0  0  0  0  0  0  0  0  0  0  0  # atno 17370 bound_to 10713
  156.1478  130.6289  151.0555 LP  0  0  0  0  0  0  0  0  0  0  0  0  # atno 17371 bound_to 10713
  141.2223  133.7187  156.8557 LP  0  0  0  0  0  0  0  0  0  0  0  0  # atno 17394 bound_to 11000
  140.1861  134.8999  157.3006 LP  0  0  0  0  0  0  0  0  0  0  0  0  # atno 17395 bound_to 11000

$$$$
