AV-unprocessed.smi:99|AV-procd|sdf|879|dock2
  -GOLD-   2262017353D 1   1.00000     0.00000
 Structure written by MMmdl.
 53 56  0  0  0  0  0  0  0  0  1 V2000
  146.5690  133.1456  158.6532 O   0  0  0  0  0  0  0  0  0  0  0  0
  147.2857  134.0893  158.9926 C   0  0  0  0  0  0  0  0  0  0  0  0
  148.0971  134.7514  158.1460 O   0  0  0  0  0  0  0  0  0  0  0  0
  148.1301  134.3957  156.7744 C   0  0  0  0  0  0  0  0  0  0  0  0
  149.3952  133.5633  156.4996 C   0  0  2  0  0  0  0  0  0  0  0  0
  150.5345  134.2083  157.0704 O   0  0  0  0  0  0  0  0  0  0  0  0
  151.2513  134.9386  156.1110 C   0  0  2  0  0  0  0  0  0  0  0  0
  151.3386  136.3924  156.5338 N   0  0  0  0  0  0  0  0  0  0  0  0
  150.8262  136.8541  157.7407 C   0  0  0  0  0  0  0  0  0  0  0  0
  150.9009  138.1497  158.1269 C   0  0  0  0  0  0  0  0  0  0  0  0
  151.5431  139.1425  157.2718 C   0  0  0  0  0  0  0  0  0  0  0  0
  151.6586  140.3373  157.5360 O   0  0  0  0  0  0  0  0  0  0  0  0
  152.0487  138.6345  156.0719 N   0  0  0  0  0  0  0  0  0  0  0  0
  151.9772  137.3021  155.6631 C   0  0  0  0  0  0  0  0  0  0  0  0
  152.4558  136.9606  154.5822 O   0  0  0  0  0  0  0  0  0  0  0  0
  150.5489  134.7357  154.7491 C   0  0  2  0  0  0  0  0  0  0  0  0
  149.6927  135.8120  154.3964 O   0  0  0  0  0  0  0  0  0  0  0  0
  149.7738  133.4549  155.0233 C   0  0  2  0  0  0  0  0  0  0  0  0
  148.6741  133.2346  154.1463 O   0  0  0  0  0  0  0  0  0  0  0  0
  148.1102  132.0144  154.0291 C   0  0  0  0  0  0  0  0  0  0  0  0
  148.3329  131.0811  154.8027 O   0  0  0  0  0  0  0  0  0  0  0  0
  147.1932  131.9138  152.8576 C   0  0  0  0  0  0  0  0  0  0  0  0
  146.5102  130.6995  152.6128 C   0  0  0  0  0  0  0  0  0  0  0  0
  145.6406  130.5753  151.5118 C   0  0  0  0  0  0  0  0  0  0  0  0
  145.4443  131.6633  150.6414 C   0  0  0  0  0  0  0  0  0  0  0  0
  146.1179  132.8765  150.8739 C   0  0  0  0  0  0  0  0  0  0  0  0
  146.9869  133.0032  151.9750 C   0  0  0  0  0  0  0  0  0  0  0  0
  147.3456  134.6184  160.3852 C   0  0  0  0  0  0  0  0  0  0  0  0
  146.7326  133.8889  161.4308 C   0  0  0  0  0  0  0  0  0  0  0  0
  146.7712  134.3647  162.7558 C   0  0  0  0  0  0  0  0  0  0  0  0
  147.4221  135.5769  163.0512 C   0  0  0  0  0  0  0  0  0  0  0  0
  148.0341  136.3128  162.0197 C   0  0  0  0  0  0  0  0  0  0  0  0
  147.9973  135.8380  160.6941 C   0  0  0  0  0  0  0  0  0  0  0  0
  152.5028  139.2864  155.4489 H   0  0  0  0  0  0  0  0  0  0  0  0
  147.2387  133.8107  156.5452 H   0  0  0  0  0  0  0  0  0  0  0  0
  148.1020  135.2901  156.1525 H   0  0  0  0  0  0  0  0  0  0  0  0
  149.2737  132.5685  156.9293 H   0  0  0  0  0  0  0  0  0  0  0  0
  152.2783  134.5672  156.1206 H   0  0  0  0  0  0  0  0  0  0  0  0
  150.3432  136.1723  158.4225 H   0  0  0  0  0  0  0  0  0  0  0  0
  150.4842  138.4535  159.0763 H   0  0  0  0  0  0  0  0  0  0  0  0
  151.2922  134.6051  153.9620 H   0  0  0  0  0  0  0  0  0  0  0  0
  149.3401  135.6455  153.5357 H   0  0  0  0  0  0  0  0  0  0  0  0
  150.4689  132.6173  154.9434 H   0  0  0  0  0  0  0  0  0  0  0  0
  146.6458  129.8501  153.2668 H   0  0  0  0  0  0  0  0  0  0  0  0
  145.1239  129.6433  151.3349 H   0  0  0  0  0  0  0  0  0  0  0  0
  144.7784  131.5672  149.7964 H   0  0  0  0  0  0  0  0  0  0  0  0
  145.9692  133.7124  150.2062 H   0  0  0  0  0  0  0  0  0  0  0  0
  147.4882  133.9486  152.1231 H   0  0  0  0  0  0  0  0  0  0  0  0
  146.2272  132.9554  161.2280 H   0  0  0  0  0  0  0  0  0  0  0  0
  146.3012  133.7985  163.5462 H   0  0  0  0  0  0  0  0  0  0  0  0
  147.4519  135.9416  164.0672 H   0  0  0  0  0  0  0  0  0  0  0  0
  148.5335  137.2437  162.2450 H   0  0  0  0  0  0  0  0  0  0  0  0
  148.4749  136.4288  159.9259 H   0  0  0  0  0  0  0  0  0  0  0  0
  1  2  2  0  0  0  0
  2  3  1  0  0  0  0
  2 28  1  0  0  0  0
  3  4  1  0  0  0  0
  4  5  1  0  0  0  0
  4 35  1  0  0  0  0
  4 36  1  0  0  0  0
  5 18  1  0  0  0  0
  5  6  1  0  0  0  0
  5 37  1  0  0  0  0
  6  7  1  0  0  0  0
  7  8  1  0  0  0  0
  7 16  1  0  0  0  0
  7 38  1  0  0  0  0
  8 14  1  0  0  0  0
  8  9  1  0  0  0  0
  9 10  2  0  0  0  0
  9 39  1  0  0  0  0
 10 11  1  0  0  0  0
 10 40  1  0  0  0  0
 11 12  2  0  0  0  0
 11 13  1  0  0  0  0
 13 34  1  0  0  0  0
 13 14  1  0  0  0  0
 14 15  2  0  0  0  0
 16 17  1  0  0  0  0
 16 18  1  0  0  0  0
 16 41  1  0  0  0  0
 17 42  1  0  0  0  0
 18 19  1  0  0  0  0
 18 43  1  0  0  0  0
 19 20  1  0  0  0  0
 20 21  2  0  0  0  0
 20 22  1  0  0  0  0
 22 27  1  0  0  0  0
 22 23  2  0  0  0  0
 23 24  1  0  0  0  0
 23 44  1  0  0  0  0
 24 25  2  0  0  0  0
 24 45  1  0  0  0  0
 25 26  1  0  0  0  0
 25 46  1  0  0  0  0
 26 27  2  0  0  0  0
 26 47  1  0  0  0  0
 27 48  1  0  0  0  0
 28 33  1  0  0  0  0
 28 29  2  0  0  0  0
 29 30  1  0  0  0  0
 29 49  1  0  0  0  0
 30 31  2  0  0  0  0
 30 50  1  0  0  0  0
 31 32  1  0  0  0  0
 31 51  1  0  0  0  0
 32 33  2  0  0  0  0
 32 52  1  0  0  0  0
 33 53  1  0  0  0  0
M  END
> <s_m_source_file>
AV-unprocessed.smi

> <i_m_source_file_index>
99

> <i_lp_mmshare_version>
43012

> <i_f3d_flags>
0

> <s_epik_input>
W2NIXTFbY0hdW2NIXVtjSF1bY0hdYzFDKD1PKU9bQ0gyXVtDQEBIXTJPW0NAQEhdKG4zW2NIXVtjSF1jKD1PKVtuSF1jMz1PKVtDQEBIXShbT0hdKVtDQEhdMk9DKD1PKWM0W2NIXVtjSF1bY0hdW2NIXVtjSF00

> <s_epik_cmdline>
J2VwaWtfcHl0aG9uJywgJy1waCcsICc3LjAnLCAnLXRuJywgJzgnLCAnLW1hJywgJzIwMCcsICctbWV0YWxfYmluZGluZycsICctaW1hZScsICc8aW5maWxlLm1hZT4nLCAnLW9tYWUnLCAnPG91dGZpbGUubWFlPic=

> <r_lp_tautomer_probability>
1

> <r_epik_Ionization_Penalty>
0.00454555

> <r_epik_Ionization_Penalty_Charging>
0.0045191

> <r_epik_Ionization_Penalty_Neutral>
2.64449e-05

> <r_epik_State_Penalty>
-0

> <r_epik_Charging_Adjusted_Penalty>
0.0045191

> <i_epik_Tot_Q>
0

> <i_epik_Tot_abs_Q>
0

> <r_epik_Metal_State_Penalty>
1.27877

> <b_epik_Metal_Only>
0

> <s_epik_Chemistry_Notes>
This compound has an ester and may undergo hydrolysis at high or low pH. This compound contains an acetal/aminal-like group ( X-CH(R)-Y where X, Y are N, S, or O) that may be acid/base labile, releasing an aldehyde.

> <s_lp_Force_Field>
OPLS_2005

> <r_lp_Energy>
46.8858

> <b_lp_Chiralities_Consistent>
1

> <s_lp_Variant>
AV-unprocessed.smi:99-15

> <Gold.Version>
5.8.1

> <Gold.Id.Protein>
6NUR|6NUR_protein|mol2

> <Gold.PLP.Fitness>
55.0550

> <Gold.PLP.PLP>
-50.3308

> <Gold.PLP.part.hbond>
-2.8781

> <Gold.PLP.part.metal>
0.0000

> <Gold.PLP.part.buried>
-6.5693

> <Gold.PLP.part.nonpolar>
-41.7109

> <Gold.PLP.part.repulsive>
0.3702

> <Gold.PLP.ligand.clash>
0.0000

> <Gold.PLP.ligand.torsion>
0.7709

> <Gold.PLP.Chemscore.Hbond>
2.0018

> <Gold.PLP.Chemscore.CHOScore>
0.0000

> <Gold.PLP.Chemscore.Metal>
0.0000

> <Gold.Chemscore.Hbonds>
donor molecule, donor type, donor heavy atom, donor atom, acceptor molecule, acceptor atom, score
      L1  H    17    42       P1  7948  0.99
      P1  H  6896  6907       L1     6  0.32
      P1  H 10752 10764       L1    15  0.49

> <Gold.PLP.Chemscore.Internal.Correction>
0.2604

> <Gold.Rescore>
     Score         DG    S(hbond)    S(metal)    S(lipo)     H(rot)  DE(clash)    DE(int)     intcor
     15.39     -18.39       2.23        0.00     116.56       3.19       0.17       2.83       ----

> <Gold.Chemscore.Fitness>
15.3877

> <Gold.Chemscore.DG>
-18.3944

> <Gold.Chemscore.ZeroCoef>
-5.4800

> <Gold.Chemscore.Hbond>
2.2289

> <Gold.Chemscore.Metal>
0.0000

> <Gold.Chemscore.Lipo>
116.5555

> <Gold.Chemscore.Internal_Hbond>
0.0000

> <Gold.Chemscore.DEClash>
0.1731

> <Gold.Chemscore.DEInternal>
2.8336

> <Gold.Chemscore.Rot>
3.1903

> <Gold.Chemscore.Internal.Correction>
   9.000000E+99

> <Gold.Chemscore.Hbonds>
donor molecule, donor type, donor heavy atom, donor atom, acceptor molecule, acceptor atom, score
      L1  H    17    42       P1  7948  0.37
      P1  H  6896  6907       L1     6  0.29
      P1  H 10752 10764       L1    15  0.49

> <Gold.Chemscore.Hbond.Weighted>
-7.4445

> <Gold.Chemscore.Metal.Weighted>
-0.0000

> <Gold.Chemscore.Lipo.Weighted>
-13.6370

> <Gold.Chemscore.Internal_Hbond.Weighted>
0.0000

> <Gold.Chemscore.DEClash.Weighted>
0.1731

> <Gold.Chemscore.DEInternal.Weighted>
2.8336

> <Gold.Chemscore.Rot.Weighted>
8.1671

> <Gold.Chemscore.Internal.Correction.Weighted>
   9.000000E+99

> <Gold.Protein.RotatedTorsions>
[ 6907 6896 6895 6894 ] final -111.33 input  -60.11 | X-H torsion
[ 7974 7965 7964 7962 ] final -165.60 input  175.53 | X-H torsion
[ 8008 7997 7996 7995 ] final  -29.99 input   59.86 | X-H torsion
[ 10167 10162 10161 10158 ] final  115.12 input  -65.29 | X-H torsion
[ 10718 10713 10712 10709 ] final -149.05 input   66.30 | X-H torsion
[ 10763 10752 10751 10750 ] final  -72.44 input  -60.55 | X-H torsion
[ 11005 11000 10999 10996 ] final   17.11 input  -57.11 | X-H torsion

> <Gold.Protein.ActiveResidues>
 VAL166  LYS551  ARG553  GLY616  TRP617  ASP618  TYR619  PRO620  LYS621  CYS622 
 ASP623  PHE694  ASN695  SER759  ASP760  ASP761  ALA762  ILE779  LEU786  VAL792 
 PHE793  MET794  SER795  GLU796  ALA797  LYS798  CYS799  TRP800  GLU811  SER814 

> <Gold.Protein.RotatedAtoms>
  150.7683  133.9251  159.3409 H   0  0  0  0  0  0  0  0  0  0  0  0  # atno 6907 bound_to 6896
  151.7143  135.0905  160.0282 H   0  0  0  0  0  0  0  0  0  0  0  0  # atno 6908 bound_to 6896
  152.3690  133.6356  159.6108 H   0  0  0  0  0  0  0  0  0  0  0  0  # atno 6909 bound_to 6896
  144.7266  140.2789  143.6239 H   0  0  0  0  0  0  0  0  0  0  0  0  # atno 7974 bound_to 7965
  154.4268  140.1803  156.1336 H   0  0  0  0  0  0  0  0  0  0  0  0  # atno 8008 bound_to 7997
  156.0048  140.3356  155.6856 H   0  0  0  0  0  0  0  0  0  0  0  0  # atno 8009 bound_to 7997
  155.6193  140.0658  157.2673 H   0  0  0  0  0  0  0  0  0  0  0  0  # atno 8010 bound_to 7997
  139.6340  144.7118  151.2374 H   0  0  0  0  0  0  0  0  0  0  0  0  # atno 10167 bound_to 10162
  156.4281  130.8062  151.2288 H   0  0  0  0  0  0  0  0  0  0  0  0  # atno 10718 bound_to 10713
  154.4456  135.5930  153.6158 H   0  0  0  0  0  0  0  0  0  0  0  0  # atno 10763 bound_to 10752
  152.9809  135.6008  154.3668 H   0  0  0  0  0  0  0  0  0  0  0  0  # atno 10764 bound_to 10752
  154.3523  135.2841  155.2344 H   0  0  0  0  0  0  0  0  0  0  0  0  # atno 10765 bound_to 10752
  140.4396  134.1336  155.7689 H   0  0  0  0  0  0  0  0  0  0  0  0  # atno 11005 bound_to 11000
  145.7969  139.1949  143.2071 LP  0  0  0  0  0  0  0  0  0  0  0  0  # atno 17320 bound_to 7965
  146.0709  140.7869  142.9688 LP  0  0  0  0  0  0  0  0  0  0  0  0  # atno 17321 bound_to 7965
  140.7455  143.6430  150.8318 LP  0  0  0  0  0  0  0  0  0  0  0  0  # atno 17342 bound_to 10162
  140.0059  143.5695  152.2858 LP  0  0  0  0  0  0  0  0  0  0  0  0  # atno 17343 bound_to 10162
  157.7508  131.0207  150.3718 LP  0  0  0  0  0  0  0  0  0  0  0  0  # atno 17370 bound_to 10713
  156.4050  130.3923  149.6932 LP  0  0  0  0  0  0  0  0  0  0  0  0  # atno 17371 bound_to 10713
  141.1711  133.8606  157.1567 LP  0  0  0  0  0  0  0  0  0  0  0  0  # atno 17394 bound_to 11000
  140.0079  135.0000  157.0332 LP  0  0  0  0  0  0  0  0  0  0  0  0  # atno 17395 bound_to 11000

$$$$
