AV-unprocessed.smi:49|AV-procd|sdf|480|dock6
  -GOLD-   2262016343D 1   1.00000     0.00000
 Structure written by MMmdl.
 28 29  0  0  0  0  0  0  0  0  2 V2000
  152.1569  144.4703  157.6979 C   0  0  0  0  0  0  0  0  0  0  0  0
  151.3923  143.2737  158.2742 C   0  0  0  0  0  0  0  0  0  0  0  0
  151.0403  142.2618  157.2337 C   0  0  0  0  0  0  0  0  0  0  0  0
  150.1210  142.5045  156.2883 N   0  0  0  0  0  0  0  0  0  0  0  0
  150.0958  141.3598  155.5900 C   0  0  0  0  0  0  0  0  0  0  0  0
  149.1945  141.1864  154.4039 C   0  0  1  0  0  0  0  0  0  0  0  0
  148.1422  140.0844  154.5462 C   0  0  0  0  0  0  0  0  0  0  0  0
  146.9866  140.6333  153.7149 C   0  0  1  0  0  0  0  0  0  0  0  0
  145.7488  140.0619  154.0817 O   0  0  0  0  0  0  0  0  0  0  0  0
  147.0354  142.1393  153.9979 C   0  0  0  0  0  0  0  0  0  0  0  0
  148.4488  142.4575  154.2855 N   0  3  0  0  0  0  0  0  0  0  0  0
  150.9505  140.4437  156.0625 N   0  0  0  0  0  0  0  0  0  0  0  0
  151.5666  141.0367  157.1504 N   0  0  0  0  0  0  0  0  0  0  0  0
  149.7814  141.0405  153.4957 H   0  0  0  0  0  0  0  0  0  0  0  0
  147.1746  140.4490  152.6562 H   0  0  0  0  0  0  0  0  0  0  0  0
  149.5830  143.3463  156.1404 H   0  0  0  0  0  0  0  0  0  0  0  0
  152.3965  145.1907  158.4801 H   0  0  0  0  0  0  0  0  0  0  0  0
  151.5664  144.9862  156.9401 H   0  0  0  0  0  0  0  0  0  0  0  0
  153.0930  144.1551  157.2363 H   0  0  0  0  0  0  0  0  0  0  0  0
  151.9860  142.7935  159.0531 H   0  0  0  0  0  0  0  0  0  0  0  0
  150.4740  143.6171  158.7520 H   0  0  0  0  0  0  0  0  0  0  0  0
  148.4964  139.1070  154.2176 H   0  0  0  0  0  0  0  0  0  0  0  0
  147.8303  139.9965  155.5888 H   0  0  0  0  0  0  0  0  0  0  0  0
  145.1553  140.1230  153.3483 H   0  0  0  0  0  0  0  0  0  0  0  0
  146.6484  142.7332  153.1697 H   0  0  0  0  0  0  0  0  0  0  0  0
  146.4532  142.3839  154.8876 H   0  0  0  0  0  0  0  0  0  0  0  0
  148.5000  142.9577  155.1623 H   0  0  0  0  0  0  0  0  0  0  0  0
  148.8467  143.0207  153.5478 H   0  0  0  0  0  0  0  0  0  0  0  0
  1  2  1  0  0  0  0
  1 17  1  0  0  0  0
  1 18  1  0  0  0  0
  1 19  1  0  0  0  0
  2 20  1  0  0  0  0
  2 21  1  0  0  0  0
  2  3  1  0  0  0  0
  3  4  1  0  0  0  0
  3 13  2  0  0  0  0
  4 16  1  0  0  0  0
  4  5  1  0  0  0  0
  5 12  2  0  0  0  0
  5  6  1  0  0  0  0
  6 14  1  0  0  0  0
  6 11  1  0  0  0  0
  6  7  1  0  0  0  0
  7  8  1  0  0  0  0
  7 22  1  0  0  0  0
  7 23  1  0  0  0  0
  8 15  1  0  0  0  0
  8  9  1  0  0  0  0
  8 10  1  0  0  0  0
  9 24  1  0  0  0  0
 10 11  1  0  0  0  0
 10 25  1  0  0  0  0
 10 26  1  0  0  0  0
 11 27  1  0  0  0  0
 11 28  1  0  0  0  0
 12 13  1  0  0  0  0
M  CHG  1  11   1
M  END
> <s_m_source_file>
AV-unprocessed.smi

> <i_m_source_file_index>
49

> <i_lp_mmshare_version>
43012

> <i_f3d_flags>
0

> <s_epik_input>
W0NIM11bQ0gyXWMxbmMobltuSF0xKVtDQEBIXTJbQ0gyXVtDQEBIXShbT0hdKVtDSDJdW05IXTI=

> <s_epik_cmdline>
J2VwaWtfcHl0aG9uJywgJy1waCcsICc3LjAnLCAnLXRuJywgJzgnLCAnLW1hJywgJzIwMCcsICctbWV0YWxfYmluZGluZycsICctaW1hZScsICc8aW5maWxlLm1hZT4nLCAnLW9tYWUnLCAnPG91dGZpbGUubWFlPic=

> <r_lp_tautomer_probability>
0.0517155

> <r_epik_Ionization_Penalty>
0.939819

> <r_epik_Ionization_Penalty_Charging>
0.0688988

> <r_epik_Ionization_Penalty_Neutral>
0.87092

> <r_epik_State_Penalty>
2.1224

> <r_epik_Charging_Adjusted_Penalty>
2.1913

> <i_epik_Tot_Q>
1

> <i_epik_Tot_abs_Q>
1

> <r_epik_Metal_State_Penalty>
2.39725

> <b_epik_Metal_Only>
0

> <s_lp_Force_Field>
OPLS_2005

> <r_lp_Energy>
21.0642

> <b_lp_Chiralities_Consistent>
1

> <s_lp_Variant>
AV-unprocessed.smi:49-18

> <Gold.Version>
5.8.1

> <Gold.Id.Protein>
6NUR|6NUR_protein|mol2

> <Gold.PLP.Fitness>
36.6907

> <Gold.PLP.PLP>
-26.7309

> <Gold.PLP.part.hbond>
-3.0000

> <Gold.PLP.part.metal>
0.0000

> <Gold.PLP.part.buried>
-5.2484

> <Gold.PLP.part.nonpolar>
-20.0241

> <Gold.PLP.part.repulsive>
2.1776

> <Gold.PLP.ligand.clash>
0.0000

> <Gold.PLP.ligand.torsion>
0.0903

> <Gold.PLP.Chemscore.Hbond>
3.3760

> <Gold.PLP.Chemscore.CHOScore>
0.0000

> <Gold.PLP.Chemscore.Metal>
0.0000

> <Gold.Chemscore.Hbonds>
donor molecule, donor type, donor heavy atom, donor atom, acceptor molecule, acceptor atom, score
      L1  H     4    16       P1  8028  1.00
      L1  H     9    24       P1 10175  1.00
      L1  H    11    27       P1  8028  1.38

> <Gold.PLP.Chemscore.Internal.Correction>
0.0125

> <Gold.Rescore>
     Score         DG    S(hbond)    S(metal)    S(lipo)     H(rot)  DE(clash)    DE(int)     intcor
     14.93     -15.87       2.73        0.00      52.22       1.89       0.90       0.05       ----

> <Gold.Chemscore.Fitness>
14.9299

> <Gold.Chemscore.DG>
-15.8701

> <Gold.Chemscore.ZeroCoef>
-5.4800

> <Gold.Chemscore.Hbond>
2.7289

> <Gold.Chemscore.Metal>
0.0000

> <Gold.Chemscore.Lipo>
52.2189

> <Gold.Chemscore.Internal_Hbond>
0.0000

> <Gold.Chemscore.DEClash>
0.8951

> <Gold.Chemscore.DEInternal>
0.0451

> <Gold.Chemscore.Rot>
1.8883

> <Gold.Chemscore.Internal.Correction>
   9.000000E+99

> <Gold.Chemscore.Hbonds>
donor molecule, donor type, donor heavy atom, donor atom, acceptor molecule, acceptor atom, score
      L1  H     4    16       P1  8028  0.99
      L1  H     9    24       P1 10175  0.99
      L1  H    11    27       P1  8028  0.68

> <Gold.Chemscore.Hbond.Weighted>
-9.1145

> <Gold.Chemscore.Metal.Weighted>
-0.0000

> <Gold.Chemscore.Lipo.Weighted>
-6.1096

> <Gold.Chemscore.Internal_Hbond.Weighted>
0.0000

> <Gold.Chemscore.DEClash.Weighted>
0.8951

> <Gold.Chemscore.DEInternal.Weighted>
0.0451

> <Gold.Chemscore.Rot.Weighted>
4.8340

> <Gold.Chemscore.Internal.Correction.Weighted>
   9.000000E+99

> <Gold.Protein.RotatedTorsions>
[ 6907 6896 6895 6894 ] final  158.65 input  -60.11 | X-H torsion
[ 7974 7965 7964 7962 ] final   42.11 input  175.53 | X-H torsion
[ 8008 7997 7996 7995 ] final -101.39 input   59.86 | X-H torsion
[ 10167 10162 10161 10158 ] final    8.95 input  -65.29 | X-H torsion
[ 10718 10713 10712 10709 ] final    3.90 input   66.30 | X-H torsion
[ 10763 10752 10751 10750 ] final  108.96 input  -60.55 | X-H torsion
[ 11005 11000 10999 10996 ] final   13.77 input  -57.11 | X-H torsion

> <Gold.Protein.ActiveResidues>
 VAL166  LYS551  ARG553  GLY616  TRP617  ASP618  TYR619  PRO620  LYS621  CYS622 
 ASP623  PHE694  ASN695  SER759  ASP760  ASP761  ALA762  ILE779  LEU786  VAL792 
 PHE793  MET794  SER795  GLU796  ALA797  LYS798  CYS799  TRP800  GLU811  SER814 

> <Gold.Protein.RotatedAtoms>
  151.9973  133.3812  159.4167 H   0  0  0  0  0  0  0  0  0  0  0  0  # atno 6907 bound_to 6896
  150.6914  134.3872  159.5069 H   0  0  0  0  0  0  0  0  0  0  0  0  # atno 6908 bound_to 6896
  152.1614  134.8908  160.0592 H   0  0  0  0  0  0  0  0  0  0  0  0  # atno 6909 bound_to 6896
  146.0767  139.5337  142.9563 H   0  0  0  0  0  0  0  0  0  0  0  0  # atno 7974 bound_to 7965
  154.8419  140.0435  157.1547 H   0  0  0  0  0  0  0  0  0  0  0  0  # atno 8008 bound_to 7997
  154.9037  140.3004  155.5283 H   0  0  0  0  0  0  0  0  0  0  0  0  # atno 8009 bound_to 7997
  156.2992  140.2371  156.4068 H   0  0  0  0  0  0  0  0  0  0  0  0  # atno 8010 bound_to 7997
  140.6284  143.8050  150.7263 H   0  0  0  0  0  0  0  0  0  0  0  0  # atno 10167 bound_to 10162
  156.8846  130.5666  149.5652 H   0  0  0  0  0  0  0  0  0  0  0  0  # atno 10718 bound_to 10713
  153.4280  135.3795  155.2152 H   0  0  0  0  0  0  0  0  0  0  0  0  # atno 10763 bound_to 10752
  154.8748  135.3833  154.4303 H   0  0  0  0  0  0  0  0  0  0  0  0  # atno 10764 bound_to 10752
  153.4832  135.7088  153.5989 H   0  0  0  0  0  0  0  0  0  0  0  0  # atno 10765 bound_to 10752
  140.4770  134.0974  155.7743 H   0  0  0  0  0  0  0  0  0  0  0  0  # atno 11005 bound_to 11000
  145.6293  141.0307  143.1872 LP  0  0  0  0  0  0  0  0  0  0  0  0  # atno 17320 bound_to 7965
  144.7266  139.7855  143.7362 LP  0  0  0  0  0  0  0  0  0  0  0  0  # atno 17321 bound_to 7965
  140.1655  143.4238  152.2037 LP  0  0  0  0  0  0  0  0  0  0  0  0  # atno 17342 bound_to 10162
  139.5501  144.7330  151.4462 LP  0  0  0  0  0  0  0  0  0  0  0  0  # atno 17343 bound_to 10162
  156.0659  130.5703  150.9288 LP  0  0  0  0  0  0  0  0  0  0  0  0  # atno 17370 bound_to 10713
  157.6120  131.0936  150.8778 LP  0  0  0  0  0  0  0  0  0  0  0  0  # atno 17371 bound_to 10713
  141.1550  133.8900  157.2001 LP  0  0  0  0  0  0  0  0  0  0  0  0  # atno 17394 bound_to 11000
  139.9850  135.0085  156.9841 LP  0  0  0  0  0  0  0  0  0  0  0  0  # atno 17395 bound_to 11000

$$$$
