AV-unprocessed.smi:1006|AV-procd|sdf|4396|dock5
  -GOLD-   22720 2333D 1   1.00000     0.00000
 Structure written by MMmdl.
 47 49  0  0  0  0  0  0  0  0  3 V2000
  148.5976  132.8426  152.4576 C   0  0  0  0  0  0  0  0  0  0  0  0
  148.8437  133.4473  153.8235 C   0  0  0  0  0  0  0  0  0  0  0  0
  149.1164  132.6519  154.9550 C   0  0  0  0  0  0  0  0  0  0  0  0
  149.3292  133.3277  156.1691 C   0  0  0  0  0  0  0  0  0  0  0  0
  149.6066  132.6250  157.3388 N   0  0  0  0  0  0  0  0  0  0  0  0
  149.2743  134.6724  156.2457 N   0  0  0  0  0  0  0  0  0  0  0  0
  149.0113  135.3686  155.1316 C   0  0  0  0  0  0  0  0  0  0  0  0
  148.9499  137.1507  155.1989 S   0  0  0  0  0  0  0  0  0  0  0  0
  150.4240  137.5659  156.1831 C   0  0  0  0  0  0  0  0  0  0  0  0
  151.4203  138.4260  155.3883 C   0  0  2  0  0  0  0  0  0  0  0  0
  152.2949  137.5758  154.6718 O   0  0  0  0  0  0  0  0  0  0  0  0
  152.2337  139.3634  156.3019 C   0  0  0  0  0  0  0  0  0  0  0  0
  151.5992  140.6780  156.4799 N   0  0  0  0  0  0  0  0  0  0  0  0
  150.7471  141.3480  155.6570 C   0  0  0  0  0  0  0  0  0  0  0  0
  150.4335  142.5271  156.2610 N   0  3  0  0  0  0  0  0  0  0  0  0
  151.0946  142.6126  157.4880 C   0  0  0  0  0  0  0  0  0  0  0  0
  151.0916  143.6113  158.4546 C   0  0  0  0  0  0  0  0  0  0  0  0
  151.8817  143.3966  159.6062 C   0  0  0  0  0  0  0  0  0  0  0  0
  151.9005  144.4684  160.6828 C   0  0  0  0  0  0  0  0  0  0  0  0
  152.6431  142.2088  159.7580 C   0  0  0  0  0  0  0  0  0  0  0  0
  153.4924  141.9899  160.9985 C   0  0  0  0  0  0  0  0  0  0  0  0
  152.6318  141.2048  158.7635 C   0  0  0  0  0  0  0  0  0  0  0  0
  151.8461  141.4302  157.6353 C   0  0  0  0  0  0  0  0  0  0  0  0
  148.7998  134.7985  153.9366 N   0  3  0  0  0  0  0  0  0  0  0  0
  148.4005  131.7726  152.5329 H   0  0  0  0  0  0  0  0  0  0  0  0
  149.4695  132.9854  151.8188 H   0  0  0  0  0  0  0  0  0  0  0  0
  147.7376  133.3117  151.9784 H   0  0  0  0  0  0  0  0  0  0  0  0
  149.1605  131.5741  154.8911 H   0  0  0  0  0  0  0  0  0  0  0  0
  149.6629  131.6168  157.3510 H   0  0  0  0  0  0  0  0  0  0  0  0
  149.7899  133.1029  158.2096 H   0  0  0  0  0  0  0  0  0  0  0  0
  150.0957  138.1077  157.0708 H   0  0  0  0  0  0  0  0  0  0  0  0
  150.9080  136.6501  156.5251 H   0  0  0  0  0  0  0  0  0  0  0  0
  150.8718  139.0305  154.6644 H   0  0  0  0  0  0  0  0  0  0  0  0
  152.8960  138.1114  154.1762 H   0  0  0  0  0  0  0  0  0  0  0  0
  152.3291  138.9206  157.2942 H   0  0  0  0  0  0  0  0  0  0  0  0
  153.2498  139.4977  155.9309 H   0  0  0  0  0  0  0  0  0  0  0  0
  150.3849  141.0067  154.6979 H   0  0  0  0  0  0  0  0  0  0  0  0
  150.5111  144.5140  158.3311 H   0  0  0  0  0  0  0  0  0  0  0  0
  151.5136  144.0729  161.6222 H   0  0  0  0  0  0  0  0  0  0  0  0
  151.2861  145.3249  160.4035 H   0  0  0  0  0  0  0  0  0  0  0  0
  152.9160  144.8279  160.8495 H   0  0  0  0  0  0  0  0  0  0  0  0
  154.0000  141.0254  160.9695 H   0  0  0  0  0  0  0  0  0  0  0  0
  152.8741  142.0138  161.8963 H   0  0  0  0  0  0  0  0  0  0  0  0
  154.2549  142.7646  161.0817 H   0  0  0  0  0  0  0  0  0  0  0  0
  153.2169  140.3046  158.8779 H   0  0  0  0  0  0  0  0  0  0  0  0
  148.6056  135.3697  153.1140 H   0  0  0  0  0  0  0  0  0  0  0  0
  149.8141  143.2212  155.8624 H   0  0  0  0  0  0  0  0  0  0  0  0
  1  2  1  0  0  0  0
  1 25  1  0  0  0  0
  1 26  1  0  0  0  0
  1 27  1  0  0  0  0
  2 24  1  0  0  0  0
  2  3  2  0  0  0  0
  3  4  1  0  0  0  0
  3 28  1  0  0  0  0
  4  5  1  0  0  0  0
  4  6  2  0  0  0  0
  5 29  1  0  0  0  0
  5 30  1  0  0  0  0
  6  7  1  0  0  0  0
  7  8  1  0  0  0  0
  7 24  2  0  0  0  0
  8  9  1  0  0  0  0
  9 10  1  0  0  0  0
  9 31  1  0  0  0  0
  9 32  1  0  0  0  0
 10 11  1  0  0  0  0
 10 12  1  0  0  0  0
 10 33  1  0  0  0  0
 11 34  1  0  0  0  0
 12 13  1  0  0  0  0
 12 35  1  0  0  0  0
 12 36  1  0  0  0  0
 13 23  1  0  0  0  0
 13 14  1  0  0  0  0
 14 15  2  0  0  0  0
 14 37  1  0  0  0  0
 15 16  1  0  0  0  0
 15 47  1  0  0  0  0
 16 23  2  0  0  0  0
 16 17  1  0  0  0  0
 17 18  2  0  0  0  0
 17 38  1  0  0  0  0
 18 19  1  0  0  0  0
 18 20  1  0  0  0  0
 19 39  1  0  0  0  0
 19 40  1  0  0  0  0
 19 41  1  0  0  0  0
 20 21  1  0  0  0  0
 20 22  2  0  0  0  0
 21 42  1  0  0  0  0
 21 43  1  0  0  0  0
 21 44  1  0  0  0  0
 22 23  1  0  0  0  0
 22 45  1  0  0  0  0
 24 46  1  0  0  0  0
M  CHG  1  15   1
M  CHG  1  24   1
M  END
> <s_m_source_file>
AV-unprocessed.smi

> <i_m_source_file_index>
1006

> <i_lp_mmshare_version>
43012

> <i_f3d_flags>
0

> <s_epik_input>
W0NIM11jMVtjSF1jKFtOSDJdKW5jKG4xKVNbQ0gyXVtDQEhdKFtPSF0pW0NIMl1uKFtjSF1uMiljKGMyMylbY0hdYyhbQ0gzXSljKFtjSF0zKVtDSDNd

> <s_epik_cmdline>
J2VwaWtfcHl0aG9uJywgJy1waCcsICc3LjAnLCAnLXRuJywgJzgnLCAnLW1hJywgJzIwMCcsICctbWV0YWxfYmluZGluZycsICctaW1hZScsICc8aW5maWxlLm1hZT4nLCAnLW9tYWUnLCAnPG91dGZpbGUubWFlPic=

> <r_lp_tautomer_probability>
0.999762

> <r_epik_Ionization_Penalty>
1.50932

> <r_epik_Ionization_Penalty_Charging>
1.50929

> <r_epik_Ionization_Penalty_Neutral>
3.48853e-05

> <r_epik_State_Penalty>
1.56619

> <r_epik_Charging_Adjusted_Penalty>
3.07548

> <i_epik_Tot_Q>
2

> <i_epik_Tot_abs_Q>
2

> <r_epik_Metal_State_Penalty>
1.82892

> <b_epik_Metal_Only>
0

> <s_lp_Force_Field>
OPLS_2005

> <r_lp_Energy>
18.0663

> <b_lp_Chiralities_Consistent>
1

> <s_lp_Variant>
AV-unprocessed.smi:1006-7

> <Gold.Version>
5.8.1

> <Gold.Id.Protein>
6NUR|6NUR_protein|mol2

> <Gold.PLP.Fitness>
55.5778

> <Gold.PLP.PLP>
-44.9278

> <Gold.PLP.part.hbond>
-3.0000

> <Gold.PLP.part.metal>
0.0000

> <Gold.PLP.part.buried>
-4.3003

> <Gold.PLP.part.nonpolar>
-37.4935

> <Gold.PLP.part.repulsive>
0.1734

> <Gold.PLP.ligand.clash>
0.0000

> <Gold.PLP.ligand.torsion>
1.6718

> <Gold.PLP.Chemscore.Hbond>
4.6552

> <Gold.PLP.Chemscore.CHOScore>
0.0000

> <Gold.PLP.Chemscore.Metal>
0.0000

> <Gold.Chemscore.Hbonds>
donor molecule, donor type, donor heavy atom, donor atom, acceptor molecule, acceptor atom, score
      L1  H    15    47       P1  8028  2.00
      L1  H    24    46       P1  7948  2.00
      P1  H 10752 10765       L1    11  0.69

> <Gold.PLP.Chemscore.Internal.Correction>
0.0280

> <Gold.Rescore>
     Score         DG    S(hbond)    S(metal)    S(lipo)     H(rot)  DE(clash)    DE(int)     intcor
     17.39     -19.41       2.32        0.00     117.74       2.96       0.34       1.67       ----

> <Gold.Chemscore.Fitness>
17.3945

> <Gold.Chemscore.DG>
-19.4111

> <Gold.Chemscore.ZeroCoef>
-5.4800

> <Gold.Chemscore.Hbond>
2.3152

> <Gold.Chemscore.Metal>
0.0000

> <Gold.Chemscore.Lipo>
117.7415

> <Gold.Chemscore.Internal_Hbond>
0.0000

> <Gold.Chemscore.DEClash>
0.3437

> <Gold.Chemscore.DEInternal>
1.6729

> <Gold.Chemscore.Rot>
2.9599

> <Gold.Chemscore.Internal.Correction>
   9.000000E+99

> <Gold.Chemscore.Hbonds>
donor molecule, donor type, donor heavy atom, donor atom, acceptor molecule, acceptor atom, score
      L1  H    15    47       P1  8028  1.00
      L1  H    24    46       P1  7948  0.83
      P1  H 10752 10765       L1    11  0.29

> <Gold.Chemscore.Hbond.Weighted>
-7.7326

> <Gold.Chemscore.Metal.Weighted>
-0.0000

> <Gold.Chemscore.Lipo.Weighted>
-13.7758

> <Gold.Chemscore.Internal_Hbond.Weighted>
0.0000

> <Gold.Chemscore.DEClash.Weighted>
0.3437

> <Gold.Chemscore.DEInternal.Weighted>
1.6729

> <Gold.Chemscore.Rot.Weighted>
7.5772

> <Gold.Chemscore.Internal.Correction.Weighted>
   9.000000E+99

> <Gold.Protein.RotatedTorsions>
[ 6907 6896 6895 6894 ] final -159.08 input  -60.11 | X-H torsion
[ 7974 7965 7964 7962 ] final   21.24 input  175.53 | X-H torsion
[ 8008 7997 7996 7995 ] final  104.34 input   59.86 | X-H torsion
[ 10167 10162 10161 10158 ] final   84.99 input  -65.29 | X-H torsion
[ 10718 10713 10712 10709 ] final   15.62 input   66.30 | X-H torsion
[ 10763 10752 10751 10750 ] final  166.26 input  -60.55 | X-H torsion
[ 11005 11000 10999 10996 ] final   39.17 input  -57.11 | X-H torsion

> <Gold.Protein.ActiveResidues>
 VAL166  LYS551  ARG553  GLY616  TRP617  ASP618  TYR619  PRO620  LYS621  CYS622 
 ASP623  PHE694  ASN695  SER759  ASP760  ASP761  ALA762  ILE779  LEU786  VAL792 
 PHE793  MET794  SER795  GLU796  ALA797  LYS798  CYS799  TRP800  GLU811  SER814 

> <Gold.Protein.RotatedAtoms>
  151.3281  133.4012  159.2659 H   0  0  0  0  0  0  0  0  0  0  0  0  # atno 6907 bound_to 6896
  150.9978  134.9298  159.7947 H   0  0  0  0  0  0  0  0  0  0  0  0  # atno 6908 bound_to 6896
  152.5266  134.3246  159.9213 H   0  0  0  0  0  0  0  0  0  0  0  0  # atno 6909 bound_to 6896
  146.2079  139.8055  142.8711 H   0  0  0  0  0  0  0  0  0  0  0  0  # atno 7974 bound_to 7965
  156.1564  140.3149  155.8733 H   0  0  0  0  0  0  0  0  0  0  0  0  # atno 8008 bound_to 7997
  155.3869  140.0491  157.3059 H   0  0  0  0  0  0  0  0  0  0  0  0  # atno 8009 bound_to 7997
  154.5105  140.2163  155.9176 H   0  0  0  0  0  0  0  0  0  0  0  0  # atno 8010 bound_to 7997
  139.9023  144.6322  150.8624 H   0  0  0  0  0  0  0  0  0  0  0  0  # atno 10167 bound_to 10162
  157.0561  130.6289  149.5777 H   0  0  0  0  0  0  0  0  0  0  0  0  # atno 10718 bound_to 10713
  154.3363  135.2754  155.2445 H   0  0  0  0  0  0  0  0  0  0  0  0  # atno 10763 bound_to 10752
  154.4735  135.5877  153.6342 H   0  0  0  0  0  0  0  0  0  0  0  0  # atno 10764 bound_to 10752
  152.9861  135.6094  154.3560 H   0  0  0  0  0  0  0  0  0  0  0  0  # atno 10765 bound_to 10752
  140.2054  134.3819  155.8075 H   0  0  0  0  0  0  0  0  0  0  0  0  # atno 11005 bound_to 11000
  145.3251  141.0253  143.3478 LP  0  0  0  0  0  0  0  0  0  0  0  0  # atno 17320 bound_to 7965
  144.8839  139.4866  143.6710 LP  0  0  0  0  0  0  0  0  0  0  0  0  # atno 17321 bound_to 7965
  140.7704  143.3427  151.2174 LP  0  0  0  0  0  0  0  0  0  0  0  0  # atno 17342 bound_to 10162
  139.7014  143.9526  152.2907 LP  0  0  0  0  0  0  0  0  0  0  0  0  # atno 17343 bound_to 10162
  155.9993  130.5068  150.7601 LP  0  0  0  0  0  0  0  0  0  0  0  0  # atno 17370 bound_to 10713
  157.4992  131.0917  151.0335 LP  0  0  0  0  0  0  0  0  0  0  0  0  # atno 17371 bound_to 10713
  141.2227  133.7115  156.8329 LP  0  0  0  0  0  0  0  0  0  0  0  0  # atno 17394 bound_to 11000
  140.2008  134.8898  157.3167 LP  0  0  0  0  0  0  0  0  0  0  0  0  # atno 17395 bound_to 11000

$$$$
