AV-unprocessed.smi:2151|AV-procd|sdf|8761|dock5
  -GOLD-   2272011543D 1   1.00000     0.00000
 Structure written by MMmdl.
 39 40  0  0  0  0  0  0  0  0  1 V2000
  146.9029  140.8219  154.1063 C   0  0  0  0  0  0  0  0  0  0  0  0
  147.0317  141.6264  155.4092 C   0  0  1  0  0  0  0  0  0  0  0  0
  148.4001  142.1293  155.5118 N   0  0  0  0  0  0  0  0  0  0  0  0
  149.5095  141.3747  155.5449 C   0  0  0  0  0  0  0  0  0  0  0  0
  149.4920  140.1446  155.4785 O   0  0  0  0  0  0  0  0  0  0  0  0
  150.8321  142.1401  155.6943 C   0  0  0  0  0  0  0  0  0  0  0  0
  151.3640  142.1274  157.0674 N   0  0  0  0  0  0  0  0  0  0  0  0
  151.1699  143.2907  157.8378 C   0  0  0  0  0  0  0  0  0  0  0  0
  151.6055  143.4113  159.1065 C   0  0  0  0  0  0  0  0  0  0  0  0
  151.3207  144.6551  159.9344 C   0  0  0  0  0  0  0  0  0  0  0  0
  151.8280  144.5419  161.1622 F   0  0  0  0  0  0  0  0  0  0  0  0
  151.8711  145.7205  159.3539 F   0  0  0  0  0  0  0  0  0  0  0  0
  150.0093  144.8725  160.0414 F   0  0  0  0  0  0  0  0  0  0  0  0
  152.2746  142.2556  159.6709 C   0  0  0  0  0  0  0  0  0  0  0  0
  152.4550  141.1298  158.9528 C   0  0  0  0  0  0  0  0  0  0  0  0
  151.9864  141.0191  157.5694 C   0  0  0  0  0  0  0  0  0  0  0  0
  152.1423  139.9943  156.9049 O   0  0  0  0  0  0  0  0  0  0  0  0
  146.0331  142.8017  155.4747 C   0  0  1  0  0  0  0  0  0  0  0  0
  145.7860  143.5034  154.1388 C   0  0  0  0  0  0  0  0  0  0  0  0
  144.4432  144.1547  154.3788 C   0  0  0  0  0  0  0  0  0  0  0  0
  143.7217  143.0978  155.2102 C   0  0  0  0  0  0  0  0  0  0  0  0
  144.7393  142.3491  155.8700 O   0  0  0  0  0  0  0  0  0  0  0  0
  145.9159  140.3685  154.0145 H   0  0  0  0  0  0  0  0  0  0  0  0
  147.6342  140.0134  154.0718 H   0  0  0  0  0  0  0  0  0  0  0  0
  147.0625  141.4532  153.2316 H   0  0  0  0  0  0  0  0  0  0  0  0
  146.8283  140.9456  156.2378 H   0  0  0  0  0  0  0  0  0  0  0  0
  148.5100  143.1308  155.5777 H   0  0  0  0  0  0  0  0  0  0  0  0
  151.5626  141.7279  154.9957 H   0  0  0  0  0  0  0  0  0  0  0  0
  150.6722  143.1678  155.3642 H   0  0  0  0  0  0  0  0  0  0  0  0
  150.6281  144.0772  157.3324 H   0  0  0  0  0  0  0  0  0  0  0  0
  152.6400  142.2928  160.6866 H   0  0  0  0  0  0  0  0  0  0  0  0
  152.9586  140.2882  159.4056 H   0  0  0  0  0  0  0  0  0  0  0  0
  146.3648  143.5383  156.2086 H   0  0  0  0  0  0  0  0  0  0  0  0
  146.5657  144.2210  153.8820 H   0  0  0  0  0  0  0  0  0  0  0  0
  145.7086  142.7755  153.3298 H   0  0  0  0  0  0  0  0  0  0  0  0
  144.5712  145.0677  154.9619 H   0  0  0  0  0  0  0  0  0  0  0  0
  143.9159  144.4076  153.4586 H   0  0  0  0  0  0  0  0  0  0  0  0
  143.0291  143.5405  155.9262 H   0  0  0  0  0  0  0  0  0  0  0  0
  143.1575  142.4212  154.5678 H   0  0  0  0  0  0  0  0  0  0  0  0
  1  2  1  0  0  0  0
  1 23  1  0  0  0  0
  1 24  1  0  0  0  0
  1 25  1  0  0  0  0
  2  3  1  0  0  0  0
  2 18  1  0  0  0  0
  2 26  1  0  0  0  0
  3  4  1  0  0  0  0
  3 27  1  0  0  0  0
  4  5  2  0  0  0  0
  4  6  1  0  0  0  0
  6  7  1  0  0  0  0
  6 28  1  0  0  0  0
  6 29  1  0  0  0  0
  7 16  1  0  0  0  0
  7  8  1  0  0  0  0
  8  9  2  0  0  0  0
  8 30  1  0  0  0  0
  9 10  1  0  0  0  0
  9 14  1  0  0  0  0
 10 11  1  0  0  0  0
 10 12  1  0  0  0  0
 10 13  1  0  0  0  0
 14 15  2  0  0  0  0
 14 31  1  0  0  0  0
 15 16  1  0  0  0  0
 15 32  1  0  0  0  0
 16 17  2  0  0  0  0
 18 22  1  0  0  0  0
 18 19  1  0  0  0  0
 18 33  1  0  0  0  0
 19 20  1  0  0  0  0
 19 34  1  0  0  0  0
 19 35  1  0  0  0  0
 20 21  1  0  0  0  0
 20 36  1  0  0  0  0
 20 37  1  0  0  0  0
 21 22  1  0  0  0  0
 21 38  1  0  0  0  0
 21 39  1  0  0  0  0
M  END
> <s_m_source_file>
AV-unprocessed.smi

> <i_m_source_file_index>
2151

> <i_lp_mmshare_version>
43012

> <i_f3d_flags>
0

> <s_epik_input>
TzFbQ0gyXVtDSDJdW0NIMl1bQ0BIXTFbQ0BIXShbQ0gzXSlbTkhdQyg9TylbQ0gyXW4yW2NIXWMoQyhGKShGKUYpW2NIXVtjSF1jMj1P

> <s_epik_cmdline>
J2VwaWtfcHl0aG9uJywgJy1waCcsICc3LjAnLCAnLXRuJywgJzgnLCAnLW1hJywgJzIwMCcsICctbWV0YWxfYmluZGluZycsICctaW1hZScsICc8aW5maWxlLm1hZT4nLCAnLW9tYWUnLCAnPG91dGZpbGUubWFlPic=

> <r_lp_tautomer_probability>
1

> <r_epik_Ionization_Penalty>
4.20109e-08

> <r_epik_Ionization_Penalty_Charging>
1.89977e-08

> <r_epik_Ionization_Penalty_Neutral>
2.30132e-08

> <r_epik_State_Penalty>
-0

> <r_epik_Charging_Adjusted_Penalty>
1.89977e-08

> <i_epik_Tot_Q>
0

> <i_epik_Tot_abs_Q>
0

> <r_epik_Metal_State_Penalty>
-0

> <b_epik_Metal_Only>
0

> <s_lp_Force_Field>
OPLS_2005

> <r_lp_Energy>
30.384

> <b_lp_Chiralities_Consistent>
1

> <s_lp_Variant>
AV-unprocessed.smi:2151-4

> <Gold.Version>
5.8.1

> <Gold.Id.Protein>
6NUR|6NUR_protein|mol2

> <Gold.PLP.Fitness>
47.4830

> <Gold.PLP.PLP>
-41.3950

> <Gold.PLP.part.hbond>
-1.6942

> <Gold.PLP.part.metal>
0.0000

> <Gold.PLP.part.buried>
-6.0357

> <Gold.PLP.part.nonpolar>
-33.8276

> <Gold.PLP.part.repulsive>
0.2653

> <Gold.PLP.ligand.clash>
0.0000

> <Gold.PLP.ligand.torsion>
0.9746

> <Gold.PLP.Chemscore.Hbond>
1.6638

> <Gold.PLP.Chemscore.CHOScore>
0.9949

> <Gold.PLP.Chemscore.Metal>
0.0000

> <Gold.Chemscore.Hbonds>
donor molecule, donor type, donor heavy atom, donor atom, acceptor molecule, acceptor atom, score
      L1  H     3    27       P1  8028  1.00
      P1  H  7997  8009       L1    17  0.47
      L1  C     8    30       P1  8028  1.00

> <Gold.PLP.Chemscore.Internal.Correction>
0.0610

> <Gold.Rescore>
     Score         DG    S(hbond)    S(metal)    S(lipo)     H(rot)  DE(clash)    DE(int)     intcor
     13.84     -17.16       1.87        0.00      86.39       1.82       1.77       1.54       ----

> <Gold.Chemscore.Fitness>
13.8422

> <Gold.Chemscore.DG>
-17.1577

> <Gold.Chemscore.ZeroCoef>
-5.4800

> <Gold.Chemscore.Hbond>
1.8672

> <Gold.Chemscore.Metal>
0.0000

> <Gold.Chemscore.Lipo>
86.3918

> <Gold.Chemscore.Internal_Hbond>
0.0000

> <Gold.Chemscore.DEClash>
1.7720

> <Gold.Chemscore.DEInternal>
1.5435

> <Gold.Chemscore.Rot>
1.8228

> <Gold.Chemscore.Internal.Correction>
   9.000000E+99

> <Gold.Chemscore.Hbonds>
donor molecule, donor type, donor heavy atom, donor atom, acceptor molecule, acceptor atom, score
      L1  H     3    27       P1  8028  0.99
      P1  H  7997  8009       L1    17  0.14

> <Gold.Chemscore.Hbond.Weighted>
-6.2363

> <Gold.Chemscore.Metal.Weighted>
-0.0000

> <Gold.Chemscore.Lipo.Weighted>
-10.1078

> <Gold.Chemscore.Internal_Hbond.Weighted>
0.0000

> <Gold.Chemscore.DEClash.Weighted>
1.7720

> <Gold.Chemscore.DEInternal.Weighted>
1.5435

> <Gold.Chemscore.Rot.Weighted>
4.6665

> <Gold.Chemscore.Internal.Correction.Weighted>
   9.000000E+99

> <Gold.Protein.RotatedTorsions>
[ 6907 6896 6895 6894 ] final -160.41 input  -60.11 | X-H torsion
[ 7974 7965 7964 7962 ] final  -67.27 input  175.53 | X-H torsion
[ 8008 7997 7996 7995 ] final -168.56 input   59.86 | X-H torsion
[ 10167 10162 10161 10158 ] final   72.31 input  -65.29 | X-H torsion
[ 10718 10713 10712 10709 ] final  138.82 input   66.30 | X-H torsion
[ 10763 10752 10751 10750 ] final    4.90 input  -60.55 | X-H torsion
[ 11005 11000 10999 10996 ] final -141.63 input  -57.11 | X-H torsion

> <Gold.Protein.ActiveResidues>
 VAL166  LYS551  ARG553  GLY616  TRP617  ASP618  TYR619  PRO620  LYS621  CYS622 
 ASP623  PHE694  ASN695  SER759  ASP760  ASP761  ALA762  ILE779  LEU786  VAL792 
 PHE793  MET794  SER795  GLU796  ALA797  LYS798  CYS799  TRP800  GLU811  SER814 

> <Gold.Protein.RotatedAtoms>
  151.3487  133.3934  159.2677 H   0  0  0  0  0  0  0  0  0  0  0  0  # atno 6907 bound_to 6896
  150.9819  134.9173  159.7859 H   0  0  0  0  0  0  0  0  0  0  0  0  # atno 6908 bound_to 6896
  152.5220  134.3451  159.9283 H   0  0  0  0  0  0  0  0  0  0  0  0  # atno 6909 bound_to 6896
  145.7313  140.8995  143.0578 H   0  0  0  0  0  0  0  0  0  0  0  0  # atno 7974 bound_to 7965
  155.8930  140.1028  157.1405 H   0  0  0  0  0  0  0  0  0  0  0  0  # atno 8008 bound_to 7997
  154.4017  140.1307  156.4404 H   0  0  0  0  0  0  0  0  0  0  0  0  # atno 8009 bound_to 7997
  155.7511  140.3465  155.5153 H   0  0  0  0  0  0  0  0  0  0  0  0  # atno 8010 bound_to 7997
  140.0366  144.5423  150.7466 H   0  0  0  0  0  0  0  0  0  0  0  0  # atno 10167 bound_to 10162
  157.4211  131.1038  151.0352 H   0  0  0  0  0  0  0  0  0  0  0  0  # atno 10718 bound_to 10713
  153.2657  135.6927  153.7532 H   0  0  0  0  0  0  0  0  0  0  0  0  # atno 10763 bound_to 10752
  153.6574  135.3366  155.3118 H   0  0  0  0  0  0  0  0  0  0  0  0  # atno 10764 bound_to 10752
  154.8446  135.4469  154.1663 H   0  0  0  0  0  0  0  0  0  0  0  0  # atno 10765 bound_to 10752
  140.8306  134.2522  157.4858 H   0  0  0  0  0  0  0  0  0  0  0  0  # atno 11005 bound_to 11000
  144.6892  139.9335  143.7472 LP  0  0  0  0  0  0  0  0  0  0  0  0  # atno 17320 bound_to 7965
  146.0535  139.3533  143.0625 LP  0  0  0  0  0  0  0  0  0  0  0  0  # atno 17321 bound_to 7965
  140.7278  143.2656  151.4057 LP  0  0  0  0  0  0  0  0  0  0  0  0  # atno 17342 bound_to 10162
  139.6041  144.1234  152.2230 LP  0  0  0  0  0  0  0  0  0  0  0  0  # atno 17343 bound_to 10162
  157.1282  130.6091  149.5522 LP  0  0  0  0  0  0  0  0  0  0  0  0  # atno 17370 bound_to 10713
  155.9881  130.4923  150.7155 LP  0  0  0  0  0  0  0  0  0  0  0  0  # atno 17371 bound_to 10713
  139.8705  134.9584  156.4298 LP  0  0  0  0  0  0  0  0  0  0  0  0  # atno 17394 bound_to 11000
  140.9002  133.7785  155.9672 LP  0  0  0  0  0  0  0  0  0  0  0  0  # atno 17395 bound_to 11000

$$$$
