AV-unprocessed.smi:2848|AV-procd|sdf|10955|dock3
  -GOLD-   2272015413D 1   1.00000     0.00000
 Structure written by MMmdl.
 27 28  0  0  0  0  0  0  0  0  2 V2000
  152.9347  137.9482  156.2982 Cl  0  0  0  0  0  0  0  0  0  0  0  0
  151.5344  138.3956  155.3879 C   0  0  0  0  0  0  0  0  0  0  0  0
  150.9560  137.4565  154.5090 C   0  0  0  0  0  0  0  0  0  0  0  0
  149.8633  137.7885  153.7894 N   0  3  0  0  0  0  0  0  0  0  0  0
  149.2792  139.0026  153.8695 C   0  0  0  0  0  0  0  0  0  0  0  0
  149.8107  139.9835  154.7311 C   0  0  0  0  0  0  0  0  0  0  0  0
  150.9588  139.6849  155.5071 C   0  0  0  0  0  0  0  0  0  0  0  0
  151.5402  140.6184  156.3787 N   0  0  0  0  0  0  0  0  0  0  0  0
  150.8038  141.7865  156.8392 C   0  0  0  0  0  0  0  0  0  0  0  0
  151.5831  142.6145  157.8412 C   0  0  0  0  0  0  0  0  0  0  0  0
  151.8001  143.9410  157.7257 C   0  0  0  0  0  0  0  0  0  0  0  0
  152.4412  144.6889  158.6804 O   0  0  0  0  0  0  0  0  0  0  0  0
  152.5998  144.0307  159.9326 C   0  0  0  0  0  0  0  0  0  0  0  0
  153.0121  142.5644  159.7226 C   0  0  0  0  0  0  0  0  0  0  0  0
  152.0683  141.8838  158.9006 O   0  0  0  0  0  0  0  0  0  0  0  0
  151.3337  136.4553  154.3611 H   0  0  0  0  0  0  0  0  0  0  0  0
  148.4100  139.1531  153.2458 H   0  0  0  0  0  0  0  0  0  0  0  0
  149.3295  140.9488  154.7805 H   0  0  0  0  0  0  0  0  0  0  0  0
  152.3979  140.3776  156.8561 H   0  0  0  0  0  0  0  0  0  0  0  0
  150.5656  142.4276  155.9900 H   0  0  0  0  0  0  0  0  0  0  0  0
  149.8618  141.4681  157.2877 H   0  0  0  0  0  0  0  0  0  0  0  0
  151.4449  144.5478  156.9057 H   0  0  0  0  0  0  0  0  0  0  0  0
  153.3505  144.5578  160.5216 H   0  0  0  0  0  0  0  0  0  0  0  0
  151.6617  144.0849  160.4866 H   0  0  0  0  0  0  0  0  0  0  0  0
  153.9950  142.5115  159.2523 H   0  0  0  0  0  0  0  0  0  0  0  0
  153.0878  142.0487  160.6800 H   0  0  0  0  0  0  0  0  0  0  0  0
  149.4627  137.0931  153.1592 H   0  0  0  0  0  0  0  0  0  0  0  0
  1  2  1  0  0  0  0
  2  7  1  0  0  0  0
  2  3  2  0  0  0  0
  3  4  1  0  0  0  0
  3 16  1  0  0  0  0
  4  5  2  0  0  0  0
  4 27  1  0  0  0  0
  5  6  1  0  0  0  0
  5 17  1  0  0  0  0
  6  7  2  0  0  0  0
  6 18  1  0  0  0  0
  7  8  1  0  0  0  0
  8  9  1  0  0  0  0
  8 19  1  0  0  0  0
  9 10  1  0  0  0  0
  9 20  1  0  0  0  0
  9 21  1  0  0  0  0
 10 15  1  0  0  0  0
 10 11  2  0  0  0  0
 11 12  1  0  0  0  0
 11 22  1  0  0  0  0
 12 13  1  0  0  0  0
 13 14  1  0  0  0  0
 13 23  1  0  0  0  0
 13 24  1  0  0  0  0
 14 15  1  0  0  0  0
 14 25  1  0  0  0  0
 14 26  1  0  0  0  0
M  CHG  1   4   1
M  END
> <s_m_source_file>
AV-unprocessed.smi

> <i_m_source_file_index>
2848

> <i_lp_mmshare_version>
43012

> <i_f3d_flags>
0

> <s_epik_input>
Q2xjMVtjSF1uW2NIXVtjSF1jMVtOSF1bQ0gyXUMyPVtDSF1PW0NIMl1bQ0gyXU8y

> <s_epik_cmdline>
J2VwaWtfcHl0aG9uJywgJy1waCcsICc3LjAnLCAnLXRuJywgJzgnLCAnLW1hJywgJzIwMCcsICctbWV0YWxfYmluZGluZycsICctaW1hZScsICc8aW5maWxlLm1hZT4nLCAnLW9tYWUnLCAnPG91dGZpbGUubWFlPic=

> <r_lp_tautomer_probability>
1

> <r_epik_Ionization_Penalty>
0.0834524

> <r_epik_Ionization_Penalty_Charging>
0.0831652

> <r_epik_Ionization_Penalty_Neutral>
0.000287151

> <r_epik_State_Penalty>
0.0738416

> <r_epik_Charging_Adjusted_Penalty>
0.157007

> <i_epik_Tot_Q>
1

> <i_epik_Tot_abs_Q>
1

> <r_epik_Metal_State_Penalty>
2.9007

> <b_epik_Metal_Only>
0

> <s_lp_Force_Field>
OPLS_2005

> <r_lp_Energy>
8.04075

> <b_lp_Chiralities_Consistent>
1

> <s_lp_Variant>
AV-unprocessed.smi:2848-1

> <Gold.Version>
5.8.1

> <Gold.Id.Protein>
6NUR|6NUR_protein|mol2

> <Gold.PLP.Fitness>
43.2220

> <Gold.PLP.PLP>
-34.5136

> <Gold.PLP.part.hbond>
-2.0000

> <Gold.PLP.part.metal>
0.0000

> <Gold.PLP.part.buried>
-0.2842

> <Gold.PLP.part.nonpolar>
-31.9588

> <Gold.PLP.part.repulsive>
0.2538

> <Gold.PLP.ligand.clash>
0.0000

> <Gold.PLP.ligand.torsion>
0.1354

> <Gold.PLP.Chemscore.Hbond>
2.0000

> <Gold.PLP.Chemscore.CHOScore>
0.9930

> <Gold.PLP.Chemscore.Metal>
0.0000

> <Gold.Chemscore.Hbonds>
donor molecule, donor type, donor heavy atom, donor atom, acceptor molecule, acceptor atom, score
      L1  H     4    27       P1  7948  2.00
      L1  C    11    22       P1  8028  0.29

> <Gold.PLP.Chemscore.Internal.Correction>
0.0003

> <Gold.Rescore>
     Score         DG    S(hbond)    S(metal)    S(lipo)     H(rot)  DE(clash)    DE(int)     intcor
     16.56     -16.73       0.95        0.00      95.60       1.22       0.05       0.12       ----

> <Gold.Chemscore.Fitness>
16.5554

> <Gold.Chemscore.DG>
-16.7261

> <Gold.Chemscore.ZeroCoef>
-5.4800

> <Gold.Chemscore.Hbond>
0.9537

> <Gold.Chemscore.Metal>
0.0000

> <Gold.Chemscore.Lipo>
95.6018

> <Gold.Chemscore.Internal_Hbond>
0.0000

> <Gold.Chemscore.DEClash>
0.0487

> <Gold.Chemscore.DEInternal>
0.1219

> <Gold.Chemscore.Rot>
1.2206

> <Gold.Chemscore.Internal.Correction>
   9.000000E+99

> <Gold.Chemscore.Hbonds>
donor molecule, donor type, donor heavy atom, donor atom, acceptor molecule, acceptor atom, score
      L1  H     4    27       P1  7948  0.84

> <Gold.Chemscore.Hbond.Weighted>
-3.1854

> <Gold.Chemscore.Metal.Weighted>
-0.0000

> <Gold.Chemscore.Lipo.Weighted>
-11.1854

> <Gold.Chemscore.Internal_Hbond.Weighted>
0.0000

> <Gold.Chemscore.DEClash.Weighted>
0.0487

> <Gold.Chemscore.DEInternal.Weighted>
0.1219

> <Gold.Chemscore.Rot.Weighted>
3.1247

> <Gold.Chemscore.Internal.Correction.Weighted>
   9.000000E+99

> <Gold.Protein.RotatedTorsions>
[ 6907 6896 6895 6894 ] final  149.14 input  -60.11 | X-H torsion
[ 7974 7965 7964 7962 ] final   82.49 input  175.53 | X-H torsion
[ 8008 7997 7996 7995 ] final  107.83 input   59.86 | X-H torsion
[ 10167 10162 10161 10158 ] final -112.92 input  -65.29 | X-H torsion
[ 10718 10713 10712 10709 ] final -102.37 input   66.30 | X-H torsion
[ 10763 10752 10751 10750 ] final   83.06 input  -60.55 | X-H torsion
[ 11005 11000 10999 10996 ] final -128.68 input  -57.11 | X-H torsion

> <Gold.Protein.ActiveResidues>
 VAL166  LYS551  ARG553  GLY616  TRP617  ASP618  TYR619  PRO620  LYS621  CYS622 
 ASP623  PHE694  ASN695  SER759  ASP760  ASP761  ALA762  ILE779  LEU786  VAL792 
 PHE793  MET794  SER795  GLU796  ALA797  LYS798  CYS799  TRP800  GLU811  SER814 

> <Gold.Protein.RotatedAtoms>
  152.1320  133.4413  159.4725 H   0  0  0  0  0  0  0  0  0  0  0  0  # atno 6907 bound_to 6896
  150.6879  134.2409  159.4481 H   0  0  0  0  0  0  0  0  0  0  0  0  # atno 6908 bound_to 6896
  152.0294  134.9776  160.0623 H   0  0  0  0  0  0  0  0  0  0  0  0  # atno 6909 bound_to 6896
  145.6244  139.2392  143.2120 H   0  0  0  0  0  0  0  0  0  0  0  0  # atno 7974 bound_to 7965
  156.1855  140.3087  155.9230 H   0  0  0  0  0  0  0  0  0  0  0  0  # atno 8008 bound_to 7997
  155.3290  140.0460  157.3059 H   0  0  0  0  0  0  0  0  0  0  0  0  # atno 8009 bound_to 7997
  154.5391  140.2255  155.8682 H   0  0  0  0  0  0  0  0  0  0  0  0  # atno 8010 bound_to 7997
  140.1175  143.4473  152.1713 H   0  0  0  0  0  0  0  0  0  0  0  0  # atno 10167 bound_to 10162
  156.0226  130.5417  150.7099 H   0  0  0  0  0  0  0  0  0  0  0  0  # atno 10718 bound_to 10713
  153.1258  135.4705  154.9269 H   0  0  0  0  0  0  0  0  0  0  0  0  # atno 10763 bound_to 10752
  154.7618  135.3133  154.8365 H   0  0  0  0  0  0  0  0  0  0  0  0  # atno 10764 bound_to 10752
  153.8919  135.6884  153.4814 H   0  0  0  0  0  0  0  0  0  0  0  0  # atno 10765 bound_to 10752
  140.9495  134.1084  157.4075 H   0  0  0  0  0  0  0  0  0  0  0  0  # atno 11005 bound_to 11000
  146.1406  140.7063  142.9369 LP  0  0  0  0  0  0  0  0  0  0  0  0  # atno 17320 bound_to 7965
  144.7218  140.4398  143.7002 LP  0  0  0  0  0  0  0  0  0  0  0  0  # atno 17321 bound_to 7965
  139.5586  144.7390  151.4220 LP  0  0  0  0  0  0  0  0  0  0  0  0  # atno 17342 bound_to 10162
  140.6891  143.7904  150.7229 LP  0  0  0  0  0  0  0  0  0  0  0  0  # atno 17343 bound_to 10162
  157.4739  131.0896  151.0611 LP  0  0  0  0  0  0  0  0  0  0  0  0  # atno 17370 bound_to 10713
  157.1064  130.6003  149.5472 LP  0  0  0  0  0  0  0  0  0  0  0  0  # atno 17371 bound_to 10713
  139.8843  135.0061  156.6361 LP  0  0  0  0  0  0  0  0  0  0  0  0  # atno 17394 bound_to 11000
  140.7622  133.8808  155.8427 LP  0  0  0  0  0  0  0  0  0  0  0  0  # atno 17395 bound_to 11000

$$$$
