AV-unprocessed.smi:25|AV-procd|sdf|180|dock7
  -GOLD-   2262015443D 1   1.00000     0.00000
 Structure written by MMmdl.
 47 50  0  0  0  0  0  0  0  0  1 V2000
  148.7618  140.3515  156.5703 C   0  0  0  0  0  0  0  0  0  0  0  0
  150.2861  140.5511  156.4546 C   0  0  1  0  0  0  0  0  0  0  0  0
  150.6358  141.9953  156.0303 C   0  0  0  0  0  0  0  0  0  0  0  0
  151.3720  142.5317  157.2186 C   0  0  0  0  0  0  0  0  0  0  0  0
  151.8335  143.8499  157.3772 C   0  0  0  0  0  0  0  0  0  0  0  0
  152.4888  144.1895  158.5774 C   0  0  0  0  0  0  0  0  0  0  0  0
  152.6607  143.2196  159.5893 C   0  0  0  0  0  0  0  0  0  0  0  0
  152.1889  141.9002  159.4128 C   0  0  0  0  0  0  0  0  0  0  0  0
  151.5460  141.5558  158.1990 C   0  0  0  0  0  0  0  0  0  0  0  0
  150.9748  140.3269  157.7471 N   0  0  0  0  0  0  0  0  0  0  0  0
  151.1177  139.0665  158.2433 C   0  0  0  0  0  0  0  0  0  0  0  0
  151.6942  138.8696  159.3159 O   0  0  0  0  0  0  0  0  0  0  0  0
  150.5417  137.8439  157.5031 C   0  0  0  0  0  0  0  0  0  0  0  0
  149.2980  137.3098  158.1060 N   0  0  0  0  0  0  0  0  0  0  0  0
  148.1273  137.2455  157.3085 C   0  0  0  0  0  0  0  0  0  0  0  0
  148.1288  137.6313  156.1386 O   0  0  0  0  0  0  0  0  0  0  0  0
  146.9488  136.6872  157.9619 C   0  0  0  0  0  0  0  0  0  0  0  0
  145.7961  136.5823  157.2792 F   0  0  0  0  0  0  0  0  0  0  0  0
  146.9979  136.2681  159.2427 C   0  0  0  0  0  0  0  0  0  0  0  0
  148.1460  136.3385  160.0098 N   0  0  0  0  0  0  0  0  0  0  0  0
  148.1679  135.8409  161.4379 C   0  0  2  0  0  0  0  0  0  0  0  0
  147.8471  134.3426  161.4816 C   0  0  0  0  0  0  0  0  0  0  0  0
  146.3573  134.3496  161.7474 C   0  0  0  0  0  0  0  0  0  0  0  0
  146.2120  135.5733  162.6448 C   0  0  0  0  0  0  0  0  0  0  0  0
  147.1779  136.5067  162.1685 O   0  0  0  0  0  0  0  0  0  0  0  0
  149.3339  136.8513  159.4451 C   0  0  0  0  0  0  0  0  0  0  0  0
  150.3781  136.8857  160.1000 O   0  0  0  0  0  0  0  0  0  0  0  0
  148.2683  140.5728  155.6236 H   0  0  0  0  0  0  0  0  0  0  0  0
  148.3348  141.0086  157.3286 H   0  0  0  0  0  0  0  0  0  0  0  0
  148.5018  139.3270  156.8358 H   0  0  0  0  0  0  0  0  0  0  0  0
  150.6790  139.8655  155.7015 H   0  0  0  0  0  0  0  0  0  0  0  0
  151.2872  142.0094  155.1558 H   0  0  0  0  0  0  0  0  0  0  0  0
  149.7551  142.6024  155.8165 H   0  0  0  0  0  0  0  0  0  0  0  0
  151.6856  144.5864  156.6010 H   0  0  0  0  0  0  0  0  0  0  0  0
  152.8530  145.1951  158.7272 H   0  0  0  0  0  0  0  0  0  0  0  0
  153.1544  143.4912  160.5107 H   0  0  0  0  0  0  0  0  0  0  0  0
  152.3334  141.2143  160.2274 H   0  0  0  0  0  0  0  0  0  0  0  0
  150.3613  138.1132  156.4621 H   0  0  0  0  0  0  0  0  0  0  0  0
  151.3025  137.0637  157.4834 H   0  0  0  0  0  0  0  0  0  0  0  0
  146.0969  135.8563  159.6719 H   0  0  0  0  0  0  0  0  0  0  0  0
  149.1508  136.0962  161.8372 H   0  0  0  0  0  0  0  0  0  0  0  0
  148.1336  133.8269  160.5642 H   0  0  0  0  0  0  0  0  0  0  0  0
  148.3825  133.8965  162.3206 H   0  0  0  0  0  0  0  0  0  0  0  0
  145.8076  134.4938  160.8165 H   0  0  0  0  0  0  0  0  0  0  0  0
  146.0006  133.4323  162.2164 H   0  0  0  0  0  0  0  0  0  0  0  0
  145.2060  135.9925  162.6252 H   0  0  0  0  0  0  0  0  0  0  0  0
  146.4541  135.3169  163.6768 H   0  0  0  0  0  0  0  0  0  0  0  0
  1  2  1  0  0  0  0
  1 28  1  0  0  0  0
  1 29  1  0  0  0  0
  1 30  1  0  0  0  0
  2 10  1  0  0  0  0
  2  3  1  0  0  0  0
  2 31  1  0  0  0  0
  3  4  1  0  0  0  0
  3 32  1  0  0  0  0
  3 33  1  0  0  0  0
  4  9  2  0  0  0  0
  4  5  1  0  0  0  0
  5  6  2  0  0  0  0
  5 34  1  0  0  0  0
  6  7  1  0  0  0  0
  6 35  1  0  0  0  0
  7  8  2  0  0  0  0
  7 36  1  0  0  0  0
  8  9  1  0  0  0  0
  8 37  1  0  0  0  0
  9 10  1  0  0  0  0
 10 11  1  0  0  0  0
 11 12  2  0  0  0  0
 11 13  1  0  0  0  0
 13 14  1  0  0  0  0
 13 38  1  0  0  0  0
 13 39  1  0  0  0  0
 14 26  1  0  0  0  0
 14 15  1  0  0  0  0
 15 16  2  0  0  0  0
 15 17  1  0  0  0  0
 17 18  1  0  0  0  0
 17 19  2  0  0  0  0
 19 20  1  0  0  0  0
 19 40  1  0  0  0  0
 20 21  1  0  0  0  0
 20 26  1  0  0  0  0
 21 25  1  0  0  0  0
 21 22  1  0  0  0  0
 21 41  1  0  0  0  0
 22 23  1  0  0  0  0
 22 42  1  0  0  0  0
 22 43  1  0  0  0  0
 23 24  1  0  0  0  0
 23 44  1  0  0  0  0
 23 45  1  0  0  0  0
 24 25  1  0  0  0  0
 24 46  1  0  0  0  0
 24 47  1  0  0  0  0
 26 27  2  0  0  0  0
M  END
> <s_m_source_file>
AV-unprocessed.smi

> <i_m_source_file_index>
25

> <i_lp_mmshare_version>
43012

> <i_f3d_flags>
0

> <s_epik_input>
W2NIXTFbY0hdW2NIXVtjSF1jKGMxMilOKFtDQEhdKFtDSDNdKVtDSDJdMilDKD1PKVtDSDJdbjNjKD1PKWMoRilbY0hdbihjMz1PKVtDQEBIXTRbQ0gyXVtDSDJdW0NIMl1PNA==

> <s_epik_cmdline>
J2VwaWtfcHl0aG9uJywgJy1waCcsICc3LjAnLCAnLXRuJywgJzgnLCAnLW1hJywgJzIwMCcsICctbWV0YWxfYmluZGluZycsICctaW1hZScsICc8aW5maWxlLm1hZT4nLCAnLW9tYWUnLCAnPG91dGZpbGUubWFlPic=

> <r_lp_tautomer_probability>
1

> <r_epik_Ionization_Penalty>
1.67943e-06

> <r_epik_Ionization_Penalty_Charging>
3.79603e-09

> <r_epik_Ionization_Penalty_Neutral>
1.67563e-06

> <r_epik_State_Penalty>
-0

> <r_epik_Charging_Adjusted_Penalty>
3.79603e-09

> <i_epik_Tot_Q>
0

> <i_epik_Tot_abs_Q>
0

> <r_epik_Metal_State_Penalty>
-0

> <b_epik_Metal_Only>
0

> <s_epik_Chemistry_Notes>
This compound contains an acetal/aminal-like group ( X-CH(R)-Y where X, Y are N, S, or O) that may be acid/base labile, releasing an aldehyde.

> <s_lp_Force_Field>
OPLS_2005

> <r_lp_Energy>
55.2786

> <b_lp_Chiralities_Consistent>
1

> <s_lp_Variant>
AV-unprocessed.smi:25-2

> <Gold.Version>
5.8.1

> <Gold.Id.Protein>
6NUR|6NUR_protein|mol2

> <Gold.PLP.Fitness>
44.8990

> <Gold.PLP.PLP>
-42.3399

> <Gold.PLP.part.hbond>
-1.9395

> <Gold.PLP.part.metal>
0.0000

> <Gold.PLP.part.buried>
-4.7945

> <Gold.PLP.part.nonpolar>
-37.0449

> <Gold.PLP.part.repulsive>
0.0046

> <Gold.PLP.ligand.clash>
0.0000

> <Gold.PLP.ligand.torsion>
0.2408

> <Gold.PLP.Chemscore.Hbond>
1.0000

> <Gold.PLP.Chemscore.CHOScore>
0.0000

> <Gold.PLP.Chemscore.Metal>
0.0000

> <Gold.Chemscore.Hbonds>
donor molecule, donor type, donor heavy atom, donor atom, acceptor molecule, acceptor atom, score
      P1  H  6896  6909       L1    27  1.00

> <Gold.PLP.Chemscore.Internal.Correction>
0.0406

> <Gold.Rescore>
     Score         DG    S(hbond)    S(metal)    S(lipo)     H(rot)  DE(clash)    DE(int)     intcor
     12.82     -17.19       0.99        0.00     105.57       1.55       0.21       4.16       ----

> <Gold.Chemscore.Fitness>
12.8205

> <Gold.Chemscore.DG>
-17.1857

> <Gold.Chemscore.ZeroCoef>
-5.4800

> <Gold.Chemscore.Hbond>
0.9939

> <Gold.Chemscore.Metal>
0.0000

> <Gold.Chemscore.Lipo>
105.5663

> <Gold.Chemscore.Internal_Hbond>
0.0000

> <Gold.Chemscore.DEClash>
0.2074

> <Gold.Chemscore.DEInternal>
4.1579

> <Gold.Chemscore.Rot>
1.5489

> <Gold.Chemscore.Internal.Correction>
   9.000000E+99

> <Gold.Chemscore.Hbonds>
donor molecule, donor type, donor heavy atom, donor atom, acceptor molecule, acceptor atom, score
      P1  H  6896  6909       L1    27  0.29

> <Gold.Chemscore.Hbond.Weighted>
-3.3196

> <Gold.Chemscore.Metal.Weighted>
-0.0000

> <Gold.Chemscore.Lipo.Weighted>
-12.3513

> <Gold.Chemscore.Internal_Hbond.Weighted>
0.0000

> <Gold.Chemscore.DEClash.Weighted>
0.2074

> <Gold.Chemscore.DEInternal.Weighted>
4.1579

> <Gold.Chemscore.Rot.Weighted>
3.9651

> <Gold.Chemscore.Internal.Correction.Weighted>
   9.000000E+99

> <Gold.Protein.RotatedTorsions>
[ 6907 6896 6895 6894 ] final   87.22 input  -60.11 | X-H torsion
[ 7974 7965 7964 7962 ] final -107.18 input  175.53 | X-H torsion
[ 8008 7997 7996 7995 ] final -173.74 input   59.86 | X-H torsion
[ 10167 10162 10161 10158 ] final   -2.31 input  -65.29 | X-H torsion
[ 10718 10713 10712 10709 ] final -111.61 input   66.30 | X-H torsion
[ 10763 10752 10751 10750 ] final   71.56 input  -60.55 | X-H torsion
[ 11005 11000 10999 10996 ] final -153.54 input  -57.11 | X-H torsion

> <Gold.Protein.ActiveResidues>
 VAL166  LYS551  ARG553  GLY616  TRP617  ASP618  TYR619  PRO620  LYS621  CYS622 
 ASP623  PHE694  ASN695  SER759  ASP760  ASP761  ALA762  ILE779  LEU786  VAL792 
 PHE793  MET794  SER795  GLU796  ALA797  LYS798  CYS799  TRP800  GLU811  SER814 

> <Gold.Protein.RotatedAtoms>
  152.5407  134.2309  159.8824 H   0  0  0  0  0  0  0  0  0  0  0  0  # atno 6907 bound_to 6896
  151.2281  133.4458  159.2610 H   0  0  0  0  0  0  0  0  0  0  0  0  # atno 6908 bound_to 6896
  151.0741  134.9830  159.8379 H   0  0  0  0  0  0  0  0  0  0  0  0  # atno 6909 bound_to 6896
  145.2085  140.9086  143.3328 H   0  0  0  0  0  0  0  0  0  0  0  0  # atno 7974 bound_to 7965
  155.9613  140.1145  157.0893 H   0  0  0  0  0  0  0  0  0  0  0  0  # atno 8008 bound_to 7997
  154.4132  140.1181  156.5249 H   0  0  0  0  0  0  0  0  0  0  0  0  # atno 8009 bound_to 7997
  155.6717  140.3473  155.4823 H   0  0  0  0  0  0  0  0  0  0  0  0  # atno 8010 bound_to 7997
  140.6846  143.6672  150.8216 H   0  0  0  0  0  0  0  0  0  0  0  0  # atno 10167 bound_to 10162
  156.0657  130.5876  150.8397 H   0  0  0  0  0  0  0  0  0  0  0  0  # atno 10718 bound_to 10713
  153.0406  135.5132  154.7611 H   0  0  0  0  0  0  0  0  0  0  0  0  # atno 10763 bound_to 10752
  154.6552  135.2930  154.9939 H   0  0  0  0  0  0  0  0  0  0  0  0  # atno 10764 bound_to 10752
  154.0810  135.6664  153.4890 H   0  0  0  0  0  0  0  0  0  0  0  0  # atno 10765 bound_to 10752
  140.7070  134.3875  157.5202 H   0  0  0  0  0  0  0  0  0  0  0  0  # atno 11005 bound_to 11000
  144.9878  139.3719  143.6230 LP  0  0  0  0  0  0  0  0  0  0  0  0  # atno 17320 bound_to 7965
  146.3402  139.9048  142.8789 LP  0  0  0  0  0  0  0  0  0  0  0  0  # atno 17321 bound_to 7965
  140.0377  143.5378  152.2732 LP  0  0  0  0  0  0  0  0  0  0  0  0  # atno 17342 bound_to 10162
  139.6194  144.7626  151.2774 LP  0  0  0  0  0  0  0  0  0  0  0  0  # atno 17343 bound_to 10162
  157.5697  131.0946  150.9436 LP  0  0  0  0  0  0  0  0  0  0  0  0  # atno 17370 bound_to 10713
  156.9655  130.5471  149.5288 LP  0  0  0  0  0  0  0  0  0  0  0  0  # atno 17371 bound_to 10713
  139.8881  134.8864  156.2489 LP  0  0  0  0  0  0  0  0  0  0  0  0  # atno 17394 bound_to 11000
  141.0116  133.7092  156.1121 LP  0  0  0  0  0  0  0  0  0  0  0  0  # atno 17395 bound_to 11000

$$$$
