AV-unprocessed.smi:1036|AV-procd|sdf|4519|dock8
  -GOLD-   22720 2533D 1   1.00000     0.00000
 Structure written by MMmdl.
 41 43  0  0  0  0  0  0  0  0  1 V2000
  151.5297  137.2615  153.9541 O   0  0  0  0  0  0  0  0  0  0  0  0
  151.0172  137.6857  155.1994 C   0  0  0  0  0  0  0  0  0  0  0  0
  151.5484  139.0859  155.5367 C   0  0  0  0  0  0  0  0  0  0  0  0
  152.1914  139.1239  156.8371 N   0  0  0  0  0  0  0  0  0  0  0  0
  152.2882  140.1179  157.8034 C   0  0  0  0  0  0  0  0  0  0  0  0
  151.7415  141.3266  157.6830 N   0  0  0  0  0  0  0  0  0  0  0  0
  152.0976  141.9295  158.8749 C   0  0  0  0  0  0  0  0  0  0  0  0
  151.8224  143.2259  159.3663 C   0  0  0  0  0  0  0  0  0  0  0  0
  152.2959  143.6247  160.6335 C   0  0  0  0  0  0  0  0  0  0  0  0
  153.0494  142.7353  161.4270 C   0  0  0  0  0  0  0  0  0  0  0  0
  153.3359  141.4391  160.9571 C   0  0  0  0  0  0  0  0  0  0  0  0
  152.8626  141.0461  159.6910 C   0  0  0  0  0  0  0  0  0  0  0  0
  152.9655  139.8727  158.9508 N   0  0  0  0  0  0  0  0  0  0  0  0
  153.6575  138.6565  159.3586 C   0  0  0  0  0  0  0  0  0  0  0  0
  152.7177  137.6400  160.0357 C   0  0  1  0  0  0  0  0  0  0  0  0
  152.1698  136.7675  159.0651 O   0  0  0  0  0  0  0  0  0  0  0  0
  153.4324  136.8931  161.1539 C   0  0  0  0  0  0  0  0  0  0  0  0
  153.1945  137.2283  162.5063 C   0  0  0  0  0  0  0  0  0  0  0  0
  153.8497  136.5302  163.5391 C   0  0  0  0  0  0  0  0  0  0  0  0
  153.6173  136.8591  164.8319 F   0  0  0  0  0  0  0  0  0  0  0  0
  154.7443  135.4891  163.2281 C   0  0  0  0  0  0  0  0  0  0  0  0
  154.9800  135.1441  161.8838 C   0  0  0  0  0  0  0  0  0  0  0  0
  154.3255  135.8407  160.8489 C   0  0  0  0  0  0  0  0  0  0  0  0
  154.5569  135.4887  159.5613 F   0  0  0  0  0  0  0  0  0  0  0  0
  150.8085  136.9746  153.4153 H   0  0  0  0  0  0  0  0  0  0  0  0
  149.9311  137.7178  155.1132 H   0  0  0  0  0  0  0  0  0  0  0  0
  151.2556  136.9612  155.9790 H   0  0  0  0  0  0  0  0  0  0  0  0
  152.2358  139.4425  154.7692 H   0  0  0  0  0  0  0  0  0  0  0  0
  150.7166  139.7904  155.5631 H   0  0  0  0  0  0  0  0  0  0  0  0
  152.5848  138.2359  157.1138 H   0  0  0  0  0  0  0  0  0  0  0  0
  151.2455  143.9147  158.7669 H   0  0  0  0  0  0  0  0  0  0  0  0
  152.0793  144.6178  160.9989 H   0  0  0  0  0  0  0  0  0  0  0  0
  153.4077  143.0486  162.3966 H   0  0  0  0  0  0  0  0  0  0  0  0
  153.9122  140.7555  161.5627 H   0  0  0  0  0  0  0  0  0  0  0  0
  154.1535  138.2098  158.4961 H   0  0  0  0  0  0  0  0  0  0  0  0
  154.4531  138.9405  160.0485 H   0  0  0  0  0  0  0  0  0  0  0  0
  151.8726  138.1781  160.4667 H   0  0  0  0  0  0  0  0  0  0  0  0
  152.8225  136.6109  158.3998 H   0  0  0  0  0  0  0  0  0  0  0  0
  152.5052  138.0207  162.7589 H   0  0  0  0  0  0  0  0  0  0  0  0
  155.2468  134.9533  164.0198 H   0  0  0  0  0  0  0  0  0  0  0  0
  155.6626  134.3417  161.6456 H   0  0  0  0  0  0  0  0  0  0  0  0
  1  2  1  0  0  0  0
  1 25  1  0  0  0  0
  2  3  1  0  0  0  0
  2 26  1  0  0  0  0
  2 27  1  0  0  0  0
  3  4  1  0  0  0  0
  3 28  1  0  0  0  0
  3 29  1  0  0  0  0
  4  5  1  0  0  0  0
  4 30  1  0  0  0  0
  5 13  1  0  0  0  0
  5  6  2  0  0  0  0
  6  7  1  0  0  0  0
  7 12  2  0  0  0  0
  7  8  1  0  0  0  0
  8  9  2  0  0  0  0
  8 31  1  0  0  0  0
  9 10  1  0  0  0  0
  9 32  1  0  0  0  0
 10 11  2  0  0  0  0
 10 33  1  0  0  0  0
 11 12  1  0  0  0  0
 11 34  1  0  0  0  0
 12 13  1  0  0  0  0
 13 14  1  0  0  0  0
 14 15  1  0  0  0  0
 14 35  1  0  0  0  0
 14 36  1  0  0  0  0
 15 16  1  0  0  0  0
 15 17  1  0  0  0  0
 15 37  1  0  0  0  0
 16 38  1  0  0  0  0
 17 23  1  0  0  0  0
 17 18  2  0  0  0  0
 18 19  1  0  0  0  0
 18 39  1  0  0  0  0
 19 20  1  0  0  0  0
 19 21  2  0  0  0  0
 21 22  1  0  0  0  0
 21 40  1  0  0  0  0
 22 23  2  0  0  0  0
 22 41  1  0  0  0  0
 23 24  1  0  0  0  0
M  END
> <s_m_source_file>
AV-unprocessed.smi

> <i_m_source_file_index>
1036

> <i_lp_mmshare_version>
43012

> <i_f3d_flags>
0

> <s_epik_input>
W09IXVtDSDJdW0NIMl1bTkhdYyhuMSluKGMoYzEyKVtjSF1bY0hdW2NIXVtjSF0yKVtDSDJdW0NASF0oW09IXSljM1tjSF1jKEYpW2NIXVtjSF1jM0Y=

> <s_epik_cmdline>
J2VwaWtfcHl0aG9uJywgJy1waCcsICc3LjAnLCAnLXRuJywgJzgnLCAnLW1hJywgJzIwMCcsICctbWV0YWxfYmluZGluZycsICctaW1hZScsICc8aW5maWxlLm1hZT4nLCAnLW9tYWUnLCAnPG91dGZpbGUubWFlPic=

> <r_epik_Ionization_Penalty>
1.30972

> <r_epik_Ionization_Penalty_Charging>
0

> <r_epik_Ionization_Penalty_Neutral>
1.30972

> <r_epik_State_Penalty>
1.38438

> <r_epik_Charging_Adjusted_Penalty>
1.38438

> <i_epik_Tot_Q>
0

> <i_epik_Tot_abs_Q>
0

> <r_epik_Metal_State_Penalty>
0.00551145

> <b_epik_Metal_Only>
0

> <s_lp_Force_Field>
OPLS_2005

> <r_lp_Energy>
10.9481

> <b_lp_Chiralities_Consistent>
1

> <s_lp_Variant>
AV-unprocessed.smi:1036-4

> <Gold.Version>
5.8.1

> <Gold.Id.Protein>
6NUR|6NUR_protein|mol2

> <Gold.PLP.Fitness>
53.1558

> <Gold.PLP.PLP>
-48.8596

> <Gold.PLP.part.hbond>
-3.0000

> <Gold.PLP.part.metal>
0.0000

> <Gold.PLP.part.buried>
-3.4777

> <Gold.PLP.part.nonpolar>
-42.2079

> <Gold.PLP.part.repulsive>
0.1248

> <Gold.PLP.ligand.clash>
0.0000

> <Gold.PLP.ligand.torsion>
1.7341

> <Gold.PLP.Chemscore.Hbond>
2.5746

> <Gold.PLP.Chemscore.CHOScore>
0.0000

> <Gold.PLP.Chemscore.Metal>
0.0000

> <Gold.Chemscore.Hbonds>
donor molecule, donor type, donor heavy atom, donor atom, acceptor molecule, acceptor atom, score
      L1  H     1    25       P1  7949  0.20
      P1  H  6896  6908       L1    16  0.88
      P1  H 10752 10765       L1     1  0.71

> <Gold.PLP.Chemscore.Internal.Correction>
0.0407

> <Gold.Rescore>
     Score         DG    S(hbond)    S(metal)    S(lipo)     H(rot)  DE(clash)    DE(int)     intcor
     14.82     -17.44       1.92        0.00     117.91       3.22       0.17       2.44       ----

> <Gold.Chemscore.Fitness>
14.8227

> <Gold.Chemscore.DG>
-17.4367

> <Gold.Chemscore.ZeroCoef>
-5.4800

> <Gold.Chemscore.Hbond>
1.9169

> <Gold.Chemscore.Metal>
0.0000

> <Gold.Chemscore.Lipo>
117.9139

> <Gold.Chemscore.Internal_Hbond>
0.0000

> <Gold.Chemscore.DEClash>
0.1734

> <Gold.Chemscore.DEInternal>
2.4406

> <Gold.Chemscore.Rot>
3.2194

> <Gold.Chemscore.Internal.Correction>
   9.000000E+99

> <Gold.Chemscore.Hbonds>
donor molecule, donor type, donor heavy atom, donor atom, acceptor molecule, acceptor atom, score
      L1  H     1    25       P1  7949  0.03
      P1  H  6896  6908       L1    16  0.23
      P1  H 10752 10765       L1     1  0.43

> <Gold.Chemscore.Hbond.Weighted>
-6.4024

> <Gold.Chemscore.Metal.Weighted>
-0.0000

> <Gold.Chemscore.Lipo.Weighted>
-13.7959

> <Gold.Chemscore.Internal_Hbond.Weighted>
0.0000

> <Gold.Chemscore.DEClash.Weighted>
0.1734

> <Gold.Chemscore.DEInternal.Weighted>
2.4406

> <Gold.Chemscore.Rot.Weighted>
8.2416

> <Gold.Chemscore.Internal.Correction.Weighted>
   9.000000E+99

> <Gold.Protein.RotatedTorsions>
[ 6907 6896 6895 6894 ] final  -99.73 input  -60.11 | X-H torsion
[ 7974 7965 7964 7962 ] final   60.78 input  175.53 | X-H torsion
[ 8008 7997 7996 7995 ] final  -31.57 input   59.86 | X-H torsion
[ 10167 10162 10161 10158 ] final  -83.47 input  -65.29 | X-H torsion
[ 10718 10713 10712 10709 ] final -108.80 input   66.30 | X-H torsion
[ 10763 10752 10751 10750 ] final  157.30 input  -60.55 | X-H torsion
[ 11005 11000 10999 10996 ] final   29.96 input  -57.11 | X-H torsion

> <Gold.Protein.ActiveResidues>
 VAL166  LYS551  ARG553  GLY616  TRP617  ASP618  TYR619  PRO620  LYS621  CYS622 
 ASP623  PHE694  ASN695  SER759  ASP760  ASP761  ALA762  ILE779  LEU786  VAL792 
 PHE793  MET794  SER795  GLU796  ALA797  LYS798  CYS799  TRP800  GLU811  SER814 

> <Gold.Protein.RotatedAtoms>
  150.7090  134.0995  159.3960 H   0  0  0  0  0  0  0  0  0  0  0  0  # atno 6907 bound_to 6896
  151.8981  135.0387  160.0513 H   0  0  0  0  0  0  0  0  0  0  0  0  # atno 6908 bound_to 6896
  152.2436  133.5121  159.5321 H   0  0  0  0  0  0  0  0  0  0  0  0  # atno 6909 bound_to 6896
  145.8922  139.3519  143.0642 H   0  0  0  0  0  0  0  0  0  0  0  0  # atno 7974 bound_to 7965
  154.4209  140.1761  156.1587 H   0  0  0  0  0  0  0  0  0  0  0  0  # atno 8008 bound_to 7997
  155.9855  140.3373  155.6679 H   0  0  0  0  0  0  0  0  0  0  0  0  # atno 8009 bound_to 7997
  155.6442  140.0683  157.2599 H   0  0  0  0  0  0  0  0  0  0  0  0  # atno 8010 bound_to 7997
  140.4224  143.2579  151.8872 H   0  0  0  0  0  0  0  0  0  0  0  0  # atno 10167 bound_to 10162
  156.0504  130.5731  150.8012 H   0  0  0  0  0  0  0  0  0  0  0  0  # atno 10718 bound_to 10713
  154.1981  135.2791  155.3000 H   0  0  0  0  0  0  0  0  0  0  0  0  # atno 10763 bound_to 10752
  154.5876  135.5570  153.7249 H   0  0  0  0  0  0  0  0  0  0  0  0  # atno 10764 bound_to 10752
  153.0095  135.6360  154.2120 H   0  0  0  0  0  0  0  0  0  0  0  0  # atno 10765 bound_to 10752
  140.2994  134.2774  155.7757 H   0  0  0  0  0  0  0  0  0  0  0  0  # atno 11005 bound_to 11000
  145.8894  140.9313  143.0560 LP  0  0  0  0  0  0  0  0  0  0  0  0  # atno 17320 bound_to 7965
  144.6731  140.0886  143.7466 LP  0  0  0  0  0  0  0  0  0  0  0  0  # atno 17321 bound_to 7965
  139.4783  144.5423  151.8509 LP  0  0  0  0  0  0  0  0  0  0  0  0  # atno 17342 bound_to 10162
  140.4519  144.1843  150.5898 LP  0  0  0  0  0  0  0  0  0  0  0  0  # atno 17343 bound_to 10162
  157.5424  131.0941  150.9808 LP  0  0  0  0  0  0  0  0  0  0  0  0  # atno 17370 bound_to 10713
  157.0088  130.5628  149.5318 LP  0  0  0  0  0  0  0  0  0  0  0  0  # atno 17371 bound_to 10713
  141.2131  133.7636  156.9744 LP  0  0  0  0  0  0  0  0  0  0  0  0  # atno 17394 bound_to 11000
  140.1123  134.9469  157.2083 LP  0  0  0  0  0  0  0  0  0  0  0  0  # atno 17395 bound_to 11000

$$$$
