AV-unprocessed.smi:1949|AV-procd|sdf|7877|dock4
  -GOLD-   2272010 23D 1   1.00000     0.00000
 Structure written by MMmdl.
 29 30  0  0  0  0  0  0  0  0  1 V2000
  143.6972  144.1732  162.3334 C   0  0  0  0  0  0  0  0  0  0  0  0
  144.7018  143.7566  161.3141 C   0  0  0  0  0  0  0  0  0  0  0  0
  144.6392  142.5853  160.6699 N   0  0  0  0  0  0  0  0  0  0  0  0
  145.6837  142.4235  159.7716 N   0  0  0  0  0  0  0  0  0  0  0  0
  146.5113  143.4787  159.7643 C   0  0  0  0  0  0  0  0  0  0  0  0
  147.6702  143.5973  158.9422 N   0  0  0  0  0  0  0  0  0  0  0  0
  148.9611  143.8625  159.2377 C   0  0  0  0  0  0  0  0  0  0  0  0
  149.3178  144.0502  160.3996 O   0  0  0  0  0  0  0  0  0  0  0  0
  149.8159  143.9029  158.2024 N   0  0  0  0  0  0  0  0  0  0  0  0
  151.2481  144.1715  158.2926 C   0  0  0  0  0  0  0  0  0  0  0  0
  151.9792  142.9976  158.9731 C   0  0  0  0  0  0  0  0  0  0  0  0
  152.8494  143.6147  160.0698 C   0  0  0  0  0  0  0  0  0  0  0  0
  152.1075  144.8845  160.4736 C   0  0  0  0  0  0  0  0  0  0  0  0
  151.5356  145.4141  159.1587 C   0  0  0  0  0  0  0  0  0  0  0  0
  146.0682  144.7705  160.8683 S   0  0  0  0  0  0  0  0  0  0  0  0
  142.8152  143.5335  162.2877 H   0  0  0  0  0  0  0  0  0  0  0  0
  143.3892  145.2035  162.1555 H   0  0  0  0  0  0  0  0  0  0  0  0
  144.1294  144.1032  163.3315 H   0  0  0  0  0  0  0  0  0  0  0  0
  147.4932  143.4570  157.9581 H   0  0  0  0  0  0  0  0  0  0  0  0
  149.4429  143.7354  157.2787 H   0  0  0  0  0  0  0  0  0  0  0  0
  151.6542  144.3222  157.2905 H   0  0  0  0  0  0  0  0  0  0  0  0
  151.2646  142.3116  159.4314 H   0  0  0  0  0  0  0  0  0  0  0  0
  152.5715  142.4166  158.2654 H   0  0  0  0  0  0  0  0  0  0  0  0
  153.0111  142.9370  160.9085 H   0  0  0  0  0  0  0  0  0  0  0  0
  153.8258  143.8771  159.6602 H   0  0  0  0  0  0  0  0  0  0  0  0
  151.2934  144.6341  161.1551 H   0  0  0  0  0  0  0  0  0  0  0  0
  152.7518  145.6083  160.9733 H   0  0  0  0  0  0  0  0  0  0  0  0
  152.2881  146.0281  158.6626 H   0  0  0  0  0  0  0  0  0  0  0  0
  150.6621  146.0477  159.3181 H   0  0  0  0  0  0  0  0  0  0  0  0
  1  2  1  0  0  0  0
  1 16  1  0  0  0  0
  1 17  1  0  0  0  0
  1 18  1  0  0  0  0
  2 15  1  0  0  0  0
  2  3  2  0  0  0  0
  3  4  1  0  0  0  0
  4  5  2  0  0  0  0
  5  6  1  0  0  0  0
  5 15  1  0  0  0  0
  6  7  1  0  0  0  0
  6 19  1  0  0  0  0
  7  8  2  0  0  0  0
  7  9  1  0  0  0  0
  9 10  1  0  0  0  0
  9 20  1  0  0  0  0
 10 14  1  0  0  0  0
 10 11  1  0  0  0  0
 10 21  1  0  0  0  0
 11 12  1  0  0  0  0
 11 22  1  0  0  0  0
 11 23  1  0  0  0  0
 12 13  1  0  0  0  0
 12 24  1  0  0  0  0
 12 25  1  0  0  0  0
 13 14  1  0  0  0  0
 13 26  1  0  0  0  0
 13 27  1  0  0  0  0
 14 28  1  0  0  0  0
 14 29  1  0  0  0  0
M  END
> <s_m_source_file>
AV-unprocessed.smi

> <i_m_source_file_index>
1949

> <i_lp_mmshare_version>
43012

> <i_f3d_flags>
0

> <s_epik_input>
W0NIM11jMW5uYyhzMSlbTkhdQyg9TylbTkhdW0NIXTJbQ0gyXVtDSDJdW0NIMl1bQ0gyXTI=

> <s_epik_cmdline>
J2VwaWtfcHl0aG9uJywgJy1waCcsICc3LjAnLCAnLXRuJywgJzgnLCAnLW1hJywgJzIwMCcsICctbWV0YWxfYmluZGluZycsICctaW1hZScsICc8aW5maWxlLm1hZT4nLCAnLW9tYWUnLCAnPG91dGZpbGUubWFlPic=

> <r_lp_tautomer_probability>
1

> <r_epik_Ionization_Penalty>
0.00038779

> <r_epik_Ionization_Penalty_Charging>
0

> <r_epik_Ionization_Penalty_Neutral>
0.00038779

> <r_epik_State_Penalty>
-0

> <r_epik_Charging_Adjusted_Penalty>
0

> <i_epik_Tot_Q>
0

> <i_epik_Tot_abs_Q>
0

> <r_epik_Metal_State_Penalty>
0.190371

> <b_epik_Metal_Only>
0

> <s_lp_Force_Field>
OPLS_2005

> <r_lp_Energy>
20.1691

> <b_lp_Chiralities_Consistent>
1

> <s_lp_Variant>
AV-unprocessed.smi:1949-1

> <Gold.Version>
5.8.1

> <Gold.Id.Protein>
6NUR|6NUR_protein|mol2

> <Gold.PLP.Fitness>
40.6415

> <Gold.PLP.PLP>
-34.7216

> <Gold.PLP.part.hbond>
-4.9535

> <Gold.PLP.part.metal>
0.0000

> <Gold.PLP.part.buried>
-3.9698

> <Gold.PLP.part.nonpolar>
-27.4255

> <Gold.PLP.part.repulsive>
0.3420

> <Gold.PLP.ligand.clash>
0.0000

> <Gold.PLP.ligand.torsion>
0.5922

> <Gold.PLP.Chemscore.Hbond>
2.3673

> <Gold.PLP.Chemscore.CHOScore>
0.0000

> <Gold.PLP.Chemscore.Metal>
0.0000

> <Gold.Chemscore.Hbonds>
donor molecule, donor type, donor heavy atom, donor atom, acceptor molecule, acceptor atom, score
      L1  H     9    20       P1  8028  0.78
      P1  H  6933  6944       L1     8  0.37
      P1  H  6934  6946       L1     4  0.59

> <Gold.PLP.Chemscore.Internal.Correction>
0.0025

> <Gold.Rescore>
     Score         DG    S(hbond)    S(metal)    S(lipo)     H(rot)  DE(clash)    DE(int)     intcor
     12.87     -15.64       1.17        0.00      75.26       1.00       0.12       2.65       ----

> <Gold.Chemscore.Fitness>
12.8664

> <Gold.Chemscore.DG>
-15.6423

> <Gold.Chemscore.ZeroCoef>
-5.4800

> <Gold.Chemscore.Hbond>
1.1726

> <Gold.Chemscore.Metal>
0.0000

> <Gold.Chemscore.Lipo>
75.2627

> <Gold.Chemscore.Internal_Hbond>
0.0000

> <Gold.Chemscore.DEClash>
0.1214

> <Gold.Chemscore.DEInternal>
2.6544

> <Gold.Chemscore.Rot>
1.0000

> <Gold.Chemscore.Internal.Correction>
   9.000000E+99

> <Gold.Chemscore.Hbonds>
donor molecule, donor type, donor heavy atom, donor atom, acceptor molecule, acceptor atom, score
      L1  H     9    20       P1  8028  0.46
      P1  H  6933  6944       L1     8  0.16
      P1  H  6934  6946       L1     4  0.09

> <Gold.Chemscore.Hbond.Weighted>
-3.9165

> <Gold.Chemscore.Metal.Weighted>
-0.0000

> <Gold.Chemscore.Lipo.Weighted>
-8.8057

> <Gold.Chemscore.Internal_Hbond.Weighted>
0.0000

> <Gold.Chemscore.DEClash.Weighted>
0.1214

> <Gold.Chemscore.DEInternal.Weighted>
2.6544

> <Gold.Chemscore.Rot.Weighted>
2.5600

> <Gold.Chemscore.Internal.Correction.Weighted>
   9.000000E+99

> <Gold.Protein.RotatedTorsions>
[ 6907 6896 6895 6894 ] final -135.69 input  -60.11 | X-H torsion
[ 7974 7965 7964 7962 ] final  -57.25 input  175.53 | X-H torsion
[ 8008 7997 7996 7995 ] final  -16.19 input   59.86 | X-H torsion
[ 10167 10162 10161 10158 ] final  101.19 input  -65.29 | X-H torsion
[ 10718 10713 10712 10709 ] final  137.97 input   66.30 | X-H torsion
[ 10763 10752 10751 10750 ] final   50.92 input  -60.55 | X-H torsion
[ 11005 11000 10999 10996 ] final  114.41 input  -57.11 | X-H torsion

> <Gold.Protein.ActiveResidues>
 VAL166  LYS551  ARG553  GLY616  TRP617  ASP618  TYR619  PRO620  LYS621  CYS622 
 ASP623  PHE694  ASN695  SER759  ASP760  ASP761  ALA762  ILE779  LEU786  VAL792 
 PHE793  MET794  SER795  GLU796  ALA797  LYS798  CYS799  TRP800  GLU811  SER814 

> <Gold.Protein.RotatedAtoms>
  151.0009  133.6057  159.2694 H   0  0  0  0  0  0  0  0  0  0  0  0  # atno 6907 bound_to 6896
  151.3243  135.0825  159.9326 H   0  0  0  0  0  0  0  0  0  0  0  0  # atno 6908 bound_to 6896
  152.5273  133.9651  159.7789 H   0  0  0  0  0  0  0  0  0  0  0  0  # atno 6909 bound_to 6896
  145.8532  140.8337  142.9975 H   0  0  0  0  0  0  0  0  0  0  0  0  # atno 7974 bound_to 7965
  154.5072  140.2176  155.9228 H   0  0  0  0  0  0  0  0  0  0  0  0  # atno 8008 bound_to 7997
  156.1508  140.3162  155.8611 H   0  0  0  0  0  0  0  0  0  0  0  0  # atno 8009 bound_to 7997
  155.3943  140.0480  157.3030 H   0  0  0  0  0  0  0  0  0  0  0  0  # atno 8010 bound_to 7997
  139.7460  144.6998  151.0504 H   0  0  0  0  0  0  0  0  0  0  0  0  # atno 10167 bound_to 10162
  157.4303  131.1048  151.0257 H   0  0  0  0  0  0  0  0  0  0  0  0  # atno 10718 bound_to 10713
  152.9784  135.5863  154.4331 H   0  0  0  0  0  0  0  0  0  0  0  0  # atno 10763 bound_to 10752
  154.3941  135.2768  155.2138 H   0  0  0  0  0  0  0  0  0  0  0  0  # atno 10764 bound_to 10752
  154.3998  135.6106  153.5945 H   0  0  0  0  0  0  0  0  0  0  0  0  # atno 10765 bound_to 10752
  139.8980  134.9567  156.6887 H   0  0  0  0  0  0  0  0  0  0  0  0  # atno 11005 bound_to 11000
  144.6728  140.0985  143.7461 LP  0  0  0  0  0  0  0  0  0  0  0  0  # atno 17320 bound_to 7965
  145.9333  139.2620  143.1312 LP  0  0  0  0  0  0  0  0  0  0  0  0  # atno 17321 bound_to 7965
  140.7792  143.4867  150.9947 LP  0  0  0  0  0  0  0  0  0  0  0  0  # atno 17342 bound_to 10162
  139.8555  143.7383  152.3176 LP  0  0  0  0  0  0  0  0  0  0  0  0  # atno 17343 bound_to 10162
  157.1156  130.6040  149.5492 LP  0  0  0  0  0  0  0  0  0  0  0  0  # atno 17370 bound_to 10713
  155.9911  130.4964  150.7284 LP  0  0  0  0  0  0  0  0  0  0  0  0  # atno 17371 bound_to 10713
  140.7242  133.9115  155.8167 LP  0  0  0  0  0  0  0  0  0  0  0  0  # atno 17394 bound_to 11000
  141.0204  134.0897  157.4127 LP  0  0  0  0  0  0  0  0  0  0  0  0  # atno 17395 bound_to 11000

$$$$
