AV-unprocessed.smi:1683|AV-procd|sdf|6747|dock8
  -GOLD-   22720 7503D 1   1.00000     0.00000
 Structure written by MMmdl.
 36 37  0  0  0  0  0  0  0  0  1 V2000
  148.3608  138.5374  155.2526 O   0  0  0  0  0  0  0  0  0  0  0  0
  148.8240  138.8286  154.1494 C   0  0  0  0  0  0  0  0  0  0  0  0
  150.0985  139.1950  153.9515 N   0  0  0  0  0  0  0  0  0  0  0  0
  151.1220  139.2958  154.9877 C   0  0  0  0  0  0  0  0  0  0  0  0
  150.6965  140.2429  156.1252 C   0  0  2  0  0  0  0  0  0  0  0  0
  150.3429  141.6534  155.6509 C   0  0  0  0  0  0  0  0  0  0  0  0
  151.0592  142.5911  156.6273 C   0  0  0  0  0  0  0  0  0  0  0  0
  151.3621  141.7531  157.7817 N   0  0  0  0  0  0  0  0  0  0  0  0
  152.4150  142.2967  158.6375 C   0  0  0  0  0  0  0  0  0  0  0  0
  151.9737  143.5486  159.4210 C   0  0  0  0  0  0  0  0  0  0  0  0
  152.5574  143.5279  160.6186 F   0  0  0  0  0  0  0  0  0  0  0  0
  152.3398  144.6700  158.8004 F   0  0  0  0  0  0  0  0  0  0  0  0
  150.6516  143.5505  159.5943 F   0  0  0  0  0  0  0  0  0  0  0  0
  151.7701  140.4881  157.1885 C   0  0  0  0  0  0  0  0  0  0  0  0
  148.1324  138.8284  152.9979 N   0  0  0  0  0  0  0  0  0  0  0  0
  146.7723  138.4730  152.8103 C   0  0  0  0  0  0  0  0  0  0  0  0
  145.8465  138.2322  153.8615 C   0  0  0  0  0  0  0  0  0  0  0  0
  144.6472  137.9235  153.3890 N   0  0  0  0  0  0  0  0  0  0  0  0
  144.7987  137.9658  152.0459 N   0  0  0  0  0  0  0  0  0  0  0  0
  146.0753  138.2964  151.6480 C   0  0  0  0  0  0  0  0  0  0  0  0
  144.0295  137.7699  151.4210 H   0  0  0  0  0  0  0  0  0  0  0  0
  150.3856  139.4194  153.0099 H   0  0  0  0  0  0  0  0  0  0  0  0
  151.3764  138.3113  155.3843 H   0  0  0  0  0  0  0  0  0  0  0  0
  152.0294  139.6768  154.5184 H   0  0  0  0  0  0  0  0  0  0  0  0
  149.8185  139.8251  156.6214 H   0  0  0  0  0  0  0  0  0  0  0  0
  150.6725  141.8461  154.6293 H   0  0  0  0  0  0  0  0  0  0  0  0
  149.2633  141.8049  155.6819 H   0  0  0  0  0  0  0  0  0  0  0  0
  151.9840  142.9557  156.1766 H   0  0  0  0  0  0  0  0  0  0  0  0
  150.4452  143.4514  156.8944 H   0  0  0  0  0  0  0  0  0  0  0  0
  152.6887  141.5246  159.3579 H   0  0  0  0  0  0  0  0  0  0  0  0
  153.3116  142.5078  158.0527 H   0  0  0  0  0  0  0  0  0  0  0  0
  151.8173  139.6879  157.9281 H   0  0  0  0  0  0  0  0  0  0  0  0
  152.7534  140.5887  156.7251 H   0  0  0  0  0  0  0  0  0  0  0  0
  148.6331  139.1036  152.1656 H   0  0  0  0  0  0  0  0  0  0  0  0
  146.0010  138.2708  154.9298 H   0  0  0  0  0  0  0  0  0  0  0  0
  146.3554  138.3732  150.6077 H   0  0  0  0  0  0  0  0  0  0  0  0
  1  2  2  0  0  0  0
  2  3  1  0  0  0  0
  2 15  1  0  0  0  0
  3  4  1  0  0  0  0
  3 22  1  0  0  0  0
  4  5  1  0  0  0  0
  4 23  1  0  0  0  0
  4 24  1  0  0  0  0
  5 14  1  0  0  0  0
  5  6  1  0  0  0  0
  5 25  1  0  0  0  0
  6  7  1  0  0  0  0
  6 26  1  0  0  0  0
  6 27  1  0  0  0  0
  7  8  1  0  0  0  0
  7 28  1  0  0  0  0
  7 29  1  0  0  0  0
  8  9  1  0  0  0  0
  8 14  1  0  0  0  0
  9 10  1  0  0  0  0
  9 30  1  0  0  0  0
  9 31  1  0  0  0  0
 10 11  1  0  0  0  0
 10 12  1  0  0  0  0
 10 13  1  0  0  0  0
 14 32  1  0  0  0  0
 14 33  1  0  0  0  0
 15 16  1  0  0  0  0
 15 34  1  0  0  0  0
 16 20  2  0  0  0  0
 16 17  1  0  0  0  0
 17 18  2  0  0  0  0
 17 35  1  0  0  0  0
 18 19  1  0  0  0  0
 19 21  1  0  0  0  0
 19 20  1  0  0  0  0
 20 36  1  0  0  0  0
M  END
> <s_m_source_file>
AV-unprocessed.smi

> <i_m_source_file_index>
1683

> <i_lp_mmshare_version>
43012

> <i_f3d_flags>
0

> <s_epik_input>
W2NIXTFbbkhdbltjSF1jMVtOSF1DKD1PKVtOSF1bQ0gyXVtDQEBIXTJbQ0gyXVtDSDJdTihbQ0gyXTIpW0NIMl1DKEYpKEYpRg==

> <s_epik_cmdline>
J2VwaWtfcHl0aG9uJywgJy1waCcsICc3LjAnLCAnLXRuJywgJzgnLCAnLW1hJywgJzIwMCcsICctbWV0YWxfYmluZGluZycsICctaW1hZScsICc8aW5maWxlLm1hZT4nLCAnLW9tYWUnLCAnPG91dGZpbGUubWFlPic=

> <r_lp_tautomer_probability>
0.5

> <r_epik_Ionization_Penalty>
0.244885

> <r_epik_Ionization_Penalty_Charging>
0

> <r_epik_Ionization_Penalty_Neutral>
0.244885

> <r_epik_State_Penalty>
0.235951

> <r_epik_Charging_Adjusted_Penalty>
0.235951

> <i_epik_Tot_Q>
0

> <i_epik_Tot_abs_Q>
0

> <r_epik_Metal_State_Penalty>
0.23595

> <b_epik_Metal_Only>
0

> <s_lp_Force_Field>
OPLS_2005

> <r_lp_Energy>
32.4259

> <b_lp_Chiralities_Consistent>
1

> <s_lp_Variant>
AV-unprocessed.smi:1683-1

> <Gold.Version>
5.8.1

> <Gold.Id.Protein>
6NUR|6NUR_protein|mol2

> <Gold.PLP.Fitness>
44.8250

> <Gold.PLP.PLP>
-38.4768

> <Gold.PLP.part.hbond>
-5.0000

> <Gold.PLP.part.metal>
0.0000

> <Gold.PLP.part.buried>
-0.8045

> <Gold.PLP.part.nonpolar>
-33.3491

> <Gold.PLP.part.repulsive>
1.0775

> <Gold.PLP.ligand.clash>
0.0000

> <Gold.PLP.ligand.torsion>
0.7929

> <Gold.PLP.Chemscore.Hbond>
2.2563

> <Gold.PLP.Chemscore.CHOScore>
0.2451

> <Gold.PLP.Chemscore.Metal>
0.0000

> <Gold.Chemscore.Hbonds>
donor molecule, donor type, donor heavy atom, donor atom, acceptor molecule, acceptor atom, score
      L1  H     3    22       P1  7957  0.73
      L1  H    15    34       P1  7957  1.00
      L1  H    19    21       P1 10171  0.45
      L1  C    20    36       P1 10171  0.23

> <Gold.PLP.Chemscore.Internal.Correction>
0.4300

> <Gold.Rescore>
     Score         DG    S(hbond)    S(metal)    S(lipo)     H(rot)  DE(clash)    DE(int)     intcor
     13.03     -16.40       2.03        0.00      74.21       1.78       0.33       3.04       ----

> <Gold.Chemscore.Fitness>
13.0288

> <Gold.Chemscore.DG>
-16.4008

> <Gold.Chemscore.ZeroCoef>
-5.4800

> <Gold.Chemscore.Hbond>
2.0338

> <Gold.Chemscore.Metal>
0.0000

> <Gold.Chemscore.Lipo>
74.2133

> <Gold.Chemscore.Internal_Hbond>
0.0000

> <Gold.Chemscore.DEClash>
0.3307

> <Gold.Chemscore.DEInternal>
3.0413

> <Gold.Chemscore.Rot>
1.7793

> <Gold.Chemscore.Internal.Correction>
   9.000000E+99

> <Gold.Chemscore.Hbonds>
donor molecule, donor type, donor heavy atom, donor atom, acceptor molecule, acceptor atom, score
      L1  H     3    22       P1  7957  0.62
      L1  H    15    34       P1  7957  0.99
      L1  H    19    21       P1 10171  0.44

> <Gold.Chemscore.Hbond.Weighted>
-6.7929

> <Gold.Chemscore.Metal.Weighted>
-0.0000

> <Gold.Chemscore.Lipo.Weighted>
-8.6830

> <Gold.Chemscore.Internal_Hbond.Weighted>
0.0000

> <Gold.Chemscore.DEClash.Weighted>
0.3307

> <Gold.Chemscore.DEInternal.Weighted>
3.0413

> <Gold.Chemscore.Rot.Weighted>
4.5551

> <Gold.Chemscore.Internal.Correction.Weighted>
   9.000000E+99

> <Gold.Protein.RotatedTorsions>
[ 6907 6896 6895 6894 ] final  -49.04 input  -60.11 | X-H torsion
[ 7974 7965 7964 7962 ] final  108.38 input  175.53 | X-H torsion
[ 8008 7997 7996 7995 ] final -136.59 input   59.86 | X-H torsion
[ 10167 10162 10161 10158 ] final -132.35 input  -65.29 | X-H torsion
[ 10718 10713 10712 10709 ] final  170.34 input   66.30 | X-H torsion
[ 10763 10752 10751 10750 ] final  -41.34 input  -60.55 | X-H torsion
[ 11005 11000 10999 10996 ] final -111.22 input  -57.11 | X-H torsion

> <Gold.Protein.ActiveResidues>
 VAL166  LYS551  ARG553  GLY616  TRP617  ASP618  TYR619  PRO620  LYS621  CYS622 
 ASP623  PHE694  ASN695  SER759  ASP760  ASP761  ALA762  ILE779  LEU786  VAL792 
 PHE793  MET794  SER795  GLU796  ALA797  LYS798  CYS799  TRP800  GLU811  SER814 

> <Gold.Protein.RotatedAtoms>
  150.8845  134.8241  159.7248 H   0  0  0  0  0  0  0  0  0  0  0  0  # atno 6907 bound_to 6896
  152.4799  134.4744  159.9656 H   0  0  0  0  0  0  0  0  0  0  0  0  # atno 6908 bound_to 6896
  151.4815  133.3506  159.2874 H   0  0  0  0  0  0  0  0  0  0  0  0  # atno 6909 bound_to 6896
  145.2814  139.2631  143.3913 H   0  0  0  0  0  0  0  0  0  0  0  0  # atno 7974 bound_to 7965
  155.3977  140.0504  157.3038 H   0  0  0  0  0  0  0  0  0  0  0  0  # atno 8008 bound_to 7997
  154.5005  140.2155  155.9317 H   0  0  0  0  0  0  0  0  0  0  0  0  # atno 8009 bound_to 7997
  156.1461  140.3145  155.8578 H   0  0  0  0  0  0  0  0  0  0  0  0  # atno 8010 bound_to 7997
  139.9095  143.6511  152.2578 H   0  0  0  0  0  0  0  0  0  0  0  0  # atno 10167 bound_to 10162
  157.0095  131.0200  151.2807 H   0  0  0  0  0  0  0  0  0  0  0  0  # atno 10718 bound_to 10713
  153.9609  135.6739  153.4745 H   0  0  0  0  0  0  0  0  0  0  0  0  # atno 10763 bound_to 10752
  153.0839  135.4909  154.8554 H   0  0  0  0  0  0  0  0  0  0  0  0  # atno 10764 bound_to 10752
  154.7273  135.3130  154.8909 H   0  0  0  0  0  0  0  0  0  0  0  0  # atno 10765 bound_to 10752
  141.0747  133.9322  157.2414 H   0  0  0  0  0  0  0  0  0  0  0  0  # atno 11005 bound_to 11000
  146.3215  140.3283  142.8638 LP  0  0  0  0  0  0  0  0  0  0  0  0  # atno 17320 bound_to 7965
  144.9250  140.7911  143.5725 LP  0  0  0  0  0  0  0  0  0  0  0  0  # atno 17321 bound_to 7965
  139.6955  144.7642  151.1364 LP  0  0  0  0  0  0  0  0  0  0  0  0  # atno 17342 bound_to 10162
  140.7689  143.5529  150.9184 LP  0  0  0  0  0  0  0  0  0  0  0  0  # atno 17343 bound_to 10162
  157.5331  130.8071  149.7940 LP  0  0  0  0  0  0  0  0  0  0  0  0  # atno 17370 bound_to 10713
  156.0141  130.3821  150.2167 LP  0  0  0  0  0  0  0  0  0  0  0  0  # atno 17371 bound_to 10713
  139.9559  135.0165  156.9127 LP  0  0  0  0  0  0  0  0  0  0  0  0  # atno 17394 bound_to 11000
  140.5599  134.0545  155.7395 LP  0  0  0  0  0  0  0  0  0  0  0  0  # atno 17395 bound_to 11000

$$$$
