AV-unprocessed.smi:1978|AV-procd|sdf|8008|dock1
  -GOLD-   2272010193D 1   1.00000     0.00000
 Structure written by MMmdl.
 44 45  0  0  0  0  0  0  0  0  3 V2000
  152.8652  142.2616  159.2047 C   0  0  0  0  0  0  0  0  0  0  0  0
  152.1160  141.2869  158.3626 C   0  0  0  0  0  0  0  0  0  0  0  0
  150.8280  141.2479  157.9083 C   0  0  0  0  0  0  0  0  0  0  0  0
  150.7873  140.0411  157.1604 C   0  0  0  0  0  0  0  0  0  0  0  0
  149.5928  139.6333  156.5100 N   0  0  0  0  0  0  0  0  0  0  0  0
  149.2981  139.6543  155.1973 C   0  0  0  0  0  0  0  0  0  0  0  0
  150.1281  140.0615  154.3759 O   0  0  0  0  0  0  0  0  0  0  0  0
  148.0395  139.1999  154.9446 N   0  5  0  0  0  0  0  0  0  0  0  0
  147.6662  138.3584  153.8065 C   0  0  0  0  0  0  0  0  0  0  0  0
  146.7808  137.1655  154.2584 C   0  0  2  0  0  0  0  0  0  0  0  0
  147.3379  136.4079  155.4936 C   0  0  0  0  0  0  0  0  0  0  0  0
  146.5065  136.2749  153.0863 N   0  3  1  0  0  0  0  0  0  0  0  0
  146.2779  134.8292  153.3829 C   0  0  0  0  0  0  0  0  0  0  0  0
  146.3349  133.9875  152.0985 C   0  0  0  0  0  0  0  0  0  0  0  0
  145.3361  134.5030  151.0557 C   0  0  0  0  0  0  0  0  0  0  0  0
  145.5790  135.9956  150.7884 C   0  0  0  0  0  0  0  0  0  0  0  0
  145.5466  136.8329  152.0845 C   0  0  1  0  0  0  0  0  0  0  0  0
  144.1155  137.0078  152.6343 C   0  0  0  0  0  0  0  0  0  0  0  0
  151.9476  139.4014  157.1590 N   0  0  0  0  0  0  0  0  0  0  0  0
  152.8045  140.1963  157.9297 O   0  0  0  0  0  0  0  0  0  0  0  0
  152.2118  143.0653  159.5449 H   0  0  0  0  0  0  0  0  0  0  0  0
  153.6852  142.7079  158.6420 H   0  0  0  0  0  0  0  0  0  0  0  0
  153.2838  141.7715  160.0837 H   0  0  0  0  0  0  0  0  0  0  0  0
  150.0427  141.9680  158.0831 H   0  0  0  0  0  0  0  0  0  0  0  0
  148.8639  139.2871  157.1159 H   0  0  0  0  0  0  0  0  0  0  0  0
  147.1280  138.9292  153.0480 H   0  0  0  0  0  0  0  0  0  0  0  0
  148.5472  137.9704  153.2948 H   0  0  0  0  0  0  0  0  0  0  0  0
  145.8246  137.5946  154.5619 H   0  0  0  0  0  0  0  0  0  0  0  0
  147.3783  137.0503  156.3749 H   0  0  0  0  0  0  0  0  0  0  0  0
  148.3445  136.0172  155.3349 H   0  0  0  0  0  0  0  0  0  0  0  0
  146.7024  135.5644  155.7614 H   0  0  0  0  0  0  0  0  0  0  0  0
  147.0421  134.4654  154.0704 H   0  0  0  0  0  0  0  0  0  0  0  0
  145.3169  134.6862  153.8773 H   0  0  0  0  0  0  0  0  0  0  0  0
  147.3442  134.0193  151.6859 H   0  0  0  0  0  0  0  0  0  0  0  0
  146.1278  132.9421  152.3286 H   0  0  0  0  0  0  0  0  0  0  0  0
  145.4352  133.9354  150.1301 H   0  0  0  0  0  0  0  0  0  0  0  0
  144.3161  134.3447  151.4075 H   0  0  0  0  0  0  0  0  0  0  0  0
  146.5529  136.1151  150.3116 H   0  0  0  0  0  0  0  0  0  0  0  0
  144.8463  136.3729  150.0743 H   0  0  0  0  0  0  0  0  0  0  0  0
  145.9064  137.8268  151.8140 H   0  0  0  0  0  0  0  0  0  0  0  0
  143.4537  137.4058  151.8650 H   0  0  0  0  0  0  0  0  0  0  0  0
  144.0883  137.7111  153.4661 H   0  0  0  0  0  0  0  0  0  0  0  0
  143.6845  136.0680  152.9781 H   0  0  0  0  0  0  0  0  0  0  0  0
  147.3873  136.2874  152.5916 H   0  0  0  0  0  0  0  0  0  0  0  0
  1  2  1  0  0  0  0
  1 21  1  0  0  0  0
  1 22  1  0  0  0  0
  1 23  1  0  0  0  0
  2 20  1  0  0  0  0
  2  3  2  0  0  0  0
  3  4  1  0  0  0  0
  3 24  1  0  0  0  0
  4  5  1  0  0  0  0
  4 19  2  0  0  0  0
  5  6  1  0  0  0  0
  5 25  1  0  0  0  0
  6  7  2  0  0  0  0
  6  8  1  0  0  0  0
  8  9  1  0  0  0  0
  9 10  1  0  0  0  0
  9 26  1  0  0  0  0
  9 27  1  0  0  0  0
 10 11  1  0  0  0  0
 10 12  1  0  0  0  0
 10 28  1  0  0  0  0
 11 29  1  0  0  0  0
 11 30  1  0  0  0  0
 11 31  1  0  0  0  0
 12 17  1  0  0  0  0
 12 13  1  0  0  0  0
 12 44  1  0  0  0  0
 13 14  1  0  0  0  0
 13 32  1  0  0  0  0
 13 33  1  0  0  0  0
 14 15  1  0  0  0  0
 14 34  1  0  0  0  0
 14 35  1  0  0  0  0
 15 16  1  0  0  0  0
 15 36  1  0  0  0  0
 15 37  1  0  0  0  0
 16 17  1  0  0  0  0
 16 38  1  0  0  0  0
 16 39  1  0  0  0  0
 17 18  1  0  0  0  0
 17 40  1  0  0  0  0
 18 41  1  0  0  0  0
 18 42  1  0  0  0  0
 18 43  1  0  0  0  0
 19 20  1  0  0  0  0
M  CHG  1   8  -1
M  CHG  1  12   1
M  END
> <s_m_source_file>
AV-unprocessed.smi

> <i_m_source_file_index>
1978

> <i_lp_mmshare_version>
43012

> <i_f3d_flags>
0

> <s_epik_input>
W0NIM11jMVtjSF1jKG5vMSlbTkhdQyg9TylbTkhdW0NIMl1bQ0BIXShbQ0gzXSlOMltDSDJdW0NIMl1bQ0gyXVtDSDJdW0NASF0yW0NIM10=

> <s_epik_cmdline>
J2VwaWtfcHl0aG9uJywgJy1waCcsICc3LjAnLCAnLXRuJywgJzgnLCAnLW1hJywgJzIwMCcsICctbWV0YWxfYmluZGluZycsICctaW1hZScsICc8aW5maWxlLm1hZT4nLCAnLW9tYWUnLCAnPG91dGZpbGUubWFlPic=

> <r_epik_Ionization_Penalty>
6.7666

> <r_epik_Ionization_Penalty_Charging>
6.7666

> <r_epik_Ionization_Penalty_Neutral>
5.77131e-06

> <r_epik_State_Penalty>
6.79217

> <r_epik_Charging_Adjusted_Penalty>
13.5588

> <i_epik_Tot_Q>
0

> <i_epik_Tot_abs_Q>
2

> <r_epik_Metal_State_Penalty>
2.72569

> <b_epik_Metal_Only>
1

> <s_lp_Force_Field>
OPLS_2005

> <r_lp_Energy>
20.2617

> <b_lp_Chiralities_Consistent>
1

> <s_lp_Variant>
AV-unprocessed.smi:1978-17

> <Gold.Version>
5.8.1

> <Gold.Id.Protein>
6NUR|6NUR_protein|mol2

> <Gold.PLP.Fitness>
35.3349

> <Gold.PLP.PLP>
-26.5097

> <Gold.PLP.part.hbond>
-3.0000

> <Gold.PLP.part.metal>
0.0000

> <Gold.PLP.part.buried>
-3.1471

> <Gold.PLP.part.nonpolar>
-20.8458

> <Gold.PLP.part.repulsive>
0.1874

> <Gold.PLP.ligand.clash>
0.0000

> <Gold.PLP.ligand.torsion>
1.6801

> <Gold.PLP.Chemscore.Hbond>
3.9920

> <Gold.PLP.Chemscore.CHOScore>
0.0000

> <Gold.PLP.Chemscore.Metal>
0.0000

> <Gold.Chemscore.Hbonds>
donor molecule, donor type, donor heavy atom, donor atom, acceptor molecule, acceptor atom, score
      L1  H    12    44       P1  7948  2.00
      P1  H  7989  7998       L1     7  1.00
      P1  H  7997  8008       L1    20  0.99

> <Gold.PLP.Chemscore.Internal.Correction>
0.2095

> <Gold.Rescore>
     Score         DG    S(hbond)    S(metal)    S(lipo)     H(rot)  DE(clash)    DE(int)     intcor
     16.35     -17.93       2.86        0.00      58.14       1.52       0.01       1.57       ----

> <Gold.Chemscore.Fitness>
16.3504

> <Gold.Chemscore.DG>
-17.9307

> <Gold.Chemscore.ZeroCoef>
-5.4800

> <Gold.Chemscore.Hbond>
2.8552

> <Gold.Chemscore.Metal>
0.0000

> <Gold.Chemscore.Lipo>
58.1440

> <Gold.Chemscore.Internal_Hbond>
0.0000

> <Gold.Chemscore.DEClash>
0.0090

> <Gold.Chemscore.DEInternal>
1.5714

> <Gold.Chemscore.Rot>
1.5190

> <Gold.Chemscore.Internal.Correction>
   9.000000E+99

> <Gold.Chemscore.Hbonds>
donor molecule, donor type, donor heavy atom, donor atom, acceptor molecule, acceptor atom, score
      L1  H    12    44       P1  7948  1.00
      P1  H  7989  7998       L1     7  0.97
      P1  H  7997  8008       L1    20  0.32

> <Gold.Chemscore.Hbond.Weighted>
-9.5365

> <Gold.Chemscore.Metal.Weighted>
-0.0000

> <Gold.Chemscore.Lipo.Weighted>
-6.8028

> <Gold.Chemscore.Internal_Hbond.Weighted>
0.0000

> <Gold.Chemscore.DEClash.Weighted>
0.0090

> <Gold.Chemscore.DEInternal.Weighted>
1.5714

> <Gold.Chemscore.Rot.Weighted>
3.8886

> <Gold.Chemscore.Internal.Correction.Weighted>
   9.000000E+99

> <Gold.Protein.RotatedTorsions>
[ 6907 6896 6895 6894 ] final   27.29 input  -60.11 | X-H torsion
[ 7974 7965 7964 7962 ] final  144.98 input  175.53 | X-H torsion
[ 8008 7997 7996 7995 ] final  -78.37 input   59.86 | X-H torsion
[ 10167 10162 10161 10158 ] final   62.72 input  -65.29 | X-H torsion
[ 10718 10713 10712 10709 ] final  138.06 input   66.30 | X-H torsion
[ 10763 10752 10751 10750 ] final  -78.60 input  -60.55 | X-H torsion
[ 11005 11000 10999 10996 ] final  175.86 input  -57.11 | X-H torsion

> <Gold.Protein.ActiveResidues>
 VAL166  LYS551  ARG553  GLY616  TRP617  ASP618  TYR619  PRO620  LYS621  CYS622 
 ASP623  PHE694  ASN695  SER759  ASP760  ASP761  ALA762  ILE779  LEU786  VAL792 
 PHE793  MET794  SER795  GLU796  ALA797  LYS798  CYS799  TRP800  GLU811  SER814 

> <Gold.Protein.RotatedAtoms>
  152.0000  134.9933  160.0564 H   0  0  0  0  0  0  0  0  0  0  0  0  # atno 6907 bound_to 6896
  152.1528  133.4528  159.4830 H   0  0  0  0  0  0  0  0  0  0  0  0  # atno 6908 bound_to 6896
  150.6877  134.2086  159.4393 H   0  0  0  0  0  0  0  0  0  0  0  0  # atno 6909 bound_to 6896
  144.8790  139.5728  143.5851 H   0  0  0  0  0  0  0  0  0  0  0  0  # atno 7974 bound_to 7965
  154.5683  140.0695  156.8925 H   0  0  0  0  0  0  0  0  0  0  0  0  # atno 8008 bound_to 7997
  155.2682  140.3363  155.4249 H   0  0  0  0  0  0  0  0  0  0  0  0  # atno 8009 bound_to 7997
  156.2098  140.1754  156.7705 H   0  0  0  0  0  0  0  0  0  0  0  0  # atno 8010 bound_to 7997
  140.1409  144.4555  150.6812 H   0  0  0  0  0  0  0  0  0  0  0  0  # atno 10167 bound_to 10162
  157.4294  131.1047  151.0266 H   0  0  0  0  0  0  0  0  0  0  0  0  # atno 10718 bound_to 10713
  154.5280  135.5724  153.6735 H   0  0  0  0  0  0  0  0  0  0  0  0  # atno 10763 bound_to 10752
  152.9932  135.6198  154.2667 H   0  0  0  0  0  0  0  0  0  0  0  0  # atno 10764 bound_to 10752
  154.2591  135.2856  155.2765 H   0  0  0  0  0  0  0  0  0  0  0  0  # atno 10765 bound_to 10752
  140.3668  134.7065  157.4367 H   0  0  0  0  0  0  0  0  0  0  0  0  # atno 11005 bound_to 11000
  146.2982  139.7343  142.9111 LP  0  0  0  0  0  0  0  0  0  0  0  0  # atno 17320 bound_to 7965
  145.3989  141.0382  143.3082 LP  0  0  0  0  0  0  0  0  0  0  0  0  # atno 17321 bound_to 7965
  140.6761  143.2306  151.5503 LP  0  0  0  0  0  0  0  0  0  0  0  0  # atno 17342 bound_to 10162
  139.5473  144.2488  152.1465 LP  0  0  0  0  0  0  0  0  0  0  0  0  # atno 17343 bound_to 10162
  157.1168  130.6045  149.5495 LP  0  0  0  0  0  0  0  0  0  0  0  0  # atno 17370 bound_to 10713
  155.9908  130.4960  150.7272 LP  0  0  0  0  0  0  0  0  0  0  0  0  # atno 17371 bound_to 10713
  140.0583  134.6032  155.8779 LP  0  0  0  0  0  0  0  0  0  0  0  0  # atno 17394 bound_to 11000
  141.1967  133.6593  156.5705 LP  0  0  0  0  0  0  0  0  0  0  0  0  # atno 17395 bound_to 11000

$$$$
