AV-unprocessed.smi:2839|AV-procd|sdf|10930|dock4
  -GOLD-   2272015373D 1   1.00000     0.00000
 Structure written by MMmdl.
 32 33  0  0  0  0  0  0  0  0  1 V2000
  149.7909  136.3477  155.3322 C   0  0  0  0  0  0  0  0  0  0  0  0
  150.0494  137.7744  155.1871 N   0  0  0  0  0  0  0  0  0  0  0  0
  150.8532  138.3027  154.2032 C   0  0  0  0  0  0  0  0  0  0  0  0
  150.9380  139.5859  154.2914 N   0  0  0  0  0  0  0  0  0  0  0  0
  150.1586  139.8688  155.3690 N   0  0  0  0  0  0  0  0  0  0  0  0
  149.9874  141.2618  155.7855 C   0  0  0  0  0  0  0  0  0  0  0  0
  151.0980  141.7570  156.7220 C   0  0  0  0  0  0  0  0  0  0  0  0
  151.9731  140.9910  157.1286 O   0  0  0  0  0  0  0  0  0  0  0  0
  151.0374  143.0515  157.0684 N   0  0  0  0  0  0  0  0  0  0  0  0
  151.9860  143.7317  157.9463 C   0  0  0  0  0  0  0  0  0  0  0  0
  152.3334  142.8530  159.1637 C   0  0  0  0  0  0  0  0  0  0  0  0
  152.1779  143.7497  160.3934 C   0  0  0  0  0  0  0  0  0  0  0  0
  151.1088  144.7604  159.9913 C   0  0  0  0  0  0  0  0  0  0  0  0
  151.3932  145.0366  158.5149 C   0  0  0  0  0  0  0  0  0  0  0  0
  149.6146  138.7822  155.9354 C   0  0  0  0  0  0  0  0  0  0  0  0
  148.8817  138.7294  156.9228 O   0  0  0  0  0  0  0  0  0  0  0  0
  149.9749  135.8069  154.4027 H   0  0  0  0  0  0  0  0  0  0  0  0
  148.7533  136.1721  155.6192 H   0  0  0  0  0  0  0  0  0  0  0  0
  150.4337  135.9261  156.1056 H   0  0  0  0  0  0  0  0  0  0  0  0
  151.3250  137.6406  153.4752 H   0  0  0  0  0  0  0  0  0  0  0  0
  149.9543  141.8953  154.8975 H   0  0  0  0  0  0  0  0  0  0  0  0
  149.0276  141.3854  156.2893 H   0  0  0  0  0  0  0  0  0  0  0  0
  150.2835  143.6085  156.6932 H   0  0  0  0  0  0  0  0  0  0  0  0
  152.8986  143.9585  157.3917 H   0  0  0  0  0  0  0  0  0  0  0  0
  151.6384  142.0159  159.2464 H   0  0  0  0  0  0  0  0  0  0  0  0
  153.3363  142.4307  159.0933 H   0  0  0  0  0  0  0  0  0  0  0  0
  151.9117  143.1906  161.2907 H   0  0  0  0  0  0  0  0  0  0  0  0
  153.1163  144.2695  160.5909 H   0  0  0  0  0  0  0  0  0  0  0  0
  150.1200  144.3120  160.0976 H   0  0  0  0  0  0  0  0  0  0  0  0
  151.1338  145.6645  160.6001 H   0  0  0  0  0  0  0  0  0  0  0  0
  152.1361  145.8310  158.4352 H   0  0  0  0  0  0  0  0  0  0  0  0
  150.5029  145.3791  157.9854 H   0  0  0  0  0  0  0  0  0  0  0  0
  1  2  1  0  0  0  0
  1 17  1  0  0  0  0
  1 18  1  0  0  0  0
  1 19  1  0  0  0  0
  2 15  1  0  0  0  0
  2  3  1  0  0  0  0
  3  4  2  0  0  0  0
  3 20  1  0  0  0  0
  4  5  1  0  0  0  0
  5  6  1  0  0  0  0
  5 15  1  0  0  0  0
  6  7  1  0  0  0  0
  6 21  1  0  0  0  0
  6 22  1  0  0  0  0
  7  8  2  0  0  0  0
  7  9  1  0  0  0  0
  9 10  1  0  0  0  0
  9 23  1  0  0  0  0
 10 14  1  0  0  0  0
 10 11  1  0  0  0  0
 10 24  1  0  0  0  0
 11 12  1  0  0  0  0
 11 25  1  0  0  0  0
 11 26  1  0  0  0  0
 12 13  1  0  0  0  0
 12 27  1  0  0  0  0
 12 28  1  0  0  0  0
 13 14  1  0  0  0  0
 13 29  1  0  0  0  0
 13 30  1  0  0  0  0
 14 31  1  0  0  0  0
 14 32  1  0  0  0  0
 15 16  2  0  0  0  0
M  END
> <s_m_source_file>
AV-unprocessed.smi

> <i_m_source_file_index>
2839

> <i_lp_mmshare_version>
43012

> <i_f3d_flags>
0

> <s_epik_input>
W0NIM11uMVtjSF1ubihjMT1PKVtDSDJdQyg9TylbTkhdW0NIXTJbQ0gyXVtDSDJdW0NIMl1bQ0gyXTI=

> <s_epik_cmdline>
J2VwaWtfcHl0aG9uJywgJy1waCcsICc3LjAnLCAnLXRuJywgJzgnLCAnLW1hJywgJzIwMCcsICctbWV0YWxfYmluZGluZycsICctaW1hZScsICc8aW5maWxlLm1hZT4nLCAnLW9tYWUnLCAnPG91dGZpbGUubWFlPic=

> <r_lp_tautomer_probability>
1

> <r_epik_Ionization_Penalty>
1.58668e-07

> <r_epik_Ionization_Penalty_Charging>
8.23952e-09

> <r_epik_Ionization_Penalty_Neutral>
1.50429e-07

> <r_epik_State_Penalty>
-0

> <r_epik_Charging_Adjusted_Penalty>
8.23952e-09

> <i_epik_Tot_Q>
0

> <i_epik_Tot_abs_Q>
0

> <r_epik_Metal_State_Penalty>
-0

> <b_epik_Metal_Only>
0

> <s_lp_Force_Field>
OPLS_2005

> <r_lp_Energy>
35.3478

> <b_lp_Chiralities_Consistent>
1

> <s_lp_Variant>
AV-unprocessed.smi:2839-1

> <Gold.Version>
5.8.1

> <Gold.Id.Protein>
6NUR|6NUR_protein|mol2

> <Gold.PLP.Fitness>
39.6674

> <Gold.PLP.PLP>
-31.9808

> <Gold.PLP.part.hbond>
-2.0000

> <Gold.PLP.part.metal>
0.0000

> <Gold.PLP.part.buried>
-4.0657

> <Gold.PLP.part.nonpolar>
-26.0925

> <Gold.PLP.part.repulsive>
0.1743

> <Gold.PLP.ligand.clash>
0.0000

> <Gold.PLP.ligand.torsion>
0.6218

> <Gold.PLP.Chemscore.Hbond>
2.0000

> <Gold.PLP.Chemscore.CHOScore>
0.9754

> <Gold.PLP.Chemscore.Metal>
0.0000

> <Gold.Chemscore.Hbonds>
donor molecule, donor type, donor heavy atom, donor atom, acceptor molecule, acceptor atom, score
      L1  H     9    23       P1  8028  0.94
      P1  H  7989  7998       L1     4  1.00
      L1  C     3    20       P1  7949  0.86

> <Gold.PLP.Chemscore.Internal.Correction>
0.0039

> <Gold.Rescore>
     Score         DG    S(hbond)    S(metal)    S(lipo)     H(rot)  DE(clash)    DE(int)     intcor
     13.95     -16.00       1.99        0.00      70.82       1.72       0.25       1.80       ----

> <Gold.Chemscore.Fitness>
13.9506

> <Gold.Chemscore.DG>
-16.0012

> <Gold.Chemscore.ZeroCoef>
-5.4800

> <Gold.Chemscore.Hbond>
1.9876

> <Gold.Chemscore.Metal>
0.0000

> <Gold.Chemscore.Lipo>
70.8213

> <Gold.Chemscore.Internal_Hbond>
0.0000

> <Gold.Chemscore.DEClash>
0.2478

> <Gold.Chemscore.DEInternal>
1.8028

> <Gold.Chemscore.Rot>
1.7201

> <Gold.Chemscore.Internal.Correction>
   9.000000E+99

> <Gold.Chemscore.Hbonds>
donor molecule, donor type, donor heavy atom, donor atom, acceptor molecule, acceptor atom, score
      L1  H     9    23       P1  8028  0.90
      P1  H  7989  7998       L1     4  0.96

> <Gold.Chemscore.Hbond.Weighted>
-6.6385

> <Gold.Chemscore.Metal.Weighted>
-0.0000

> <Gold.Chemscore.Lipo.Weighted>
-8.2861

> <Gold.Chemscore.Internal_Hbond.Weighted>
0.0000

> <Gold.Chemscore.DEClash.Weighted>
0.2478

> <Gold.Chemscore.DEInternal.Weighted>
1.8028

> <Gold.Chemscore.Rot.Weighted>
4.4033

> <Gold.Chemscore.Internal.Correction.Weighted>
   9.000000E+99

> <Gold.Protein.RotatedTorsions>
[ 6907 6896 6895 6894 ] final  -43.14 input  -60.11 | X-H torsion
[ 7974 7965 7964 7962 ] final -118.53 input  175.53 | X-H torsion
[ 8008 7997 7996 7995 ] final -110.02 input   59.86 | X-H torsion
[ 10167 10162 10161 10158 ] final  154.82 input  -65.29 | X-H torsion
[ 10718 10713 10712 10709 ] final   -1.99 input   66.30 | X-H torsion
[ 10763 10752 10751 10750 ] final -103.42 input  -60.55 | X-H torsion
[ 11005 11000 10999 10996 ] final  -79.07 input  -57.11 | X-H torsion

> <Gold.Protein.ActiveResidues>
 VAL166  LYS551  ARG553  GLY616  TRP617  ASP618  TYR619  PRO620  LYS621  CYS622 
 ASP623  PHE694  ASN695  SER759  ASP760  ASP761  ALA762  ILE779  LEU786  VAL792 
 PHE793  MET794  SER795  GLU796  ALA797  LYS798  CYS799  TRP800  GLU811  SER814 

> <Gold.Protein.RotatedAtoms>
  150.9473  134.8876  159.7649 H   0  0  0  0  0  0  0  0  0  0  0  0  # atno 6907 bound_to 6896
  152.5105  134.3857  159.9376 H   0  0  0  0  0  0  0  0  0  0  0  0  # atno 6908 bound_to 6896
  151.3875  133.3760  159.2752 H   0  0  0  0  0  0  0  0  0  0  0  0  # atno 6909 bound_to 6896
  145.0728  140.8371  143.4085 H   0  0  0  0  0  0  0  0  0  0  0  0  # atno 7974 bound_to 7965
  154.9682  140.0398  157.2222 H   0  0  0  0  0  0  0  0  0  0  0  0  # atno 8008 bound_to 7997
  154.7826  140.2821  155.6030 H   0  0  0  0  0  0  0  0  0  0  0  0  # atno 8009 bound_to 7997
  156.2938  140.2589  156.2655 H   0  0  0  0  0  0  0  0  0  0  0  0  # atno 8010 bound_to 7997
  139.4822  144.5153  151.7962 H   0  0  0  0  0  0  0  0  0  0  0  0  # atno 10167 bound_to 10162
  156.7974  130.5382  149.5726 H   0  0  0  0  0  0  0  0  0  0  0  0  # atno 10718 bound_to 10713
  154.7806  135.4824  153.9836 H   0  0  0  0  0  0  0  0  0  0  0  0  # atno 10763 bound_to 10752
  153.1488  135.6787  153.8921 H   0  0  0  0  0  0  0  0  0  0  0  0  # atno 10764 bound_to 10752
  153.8572  135.3160  155.3414 H   0  0  0  0  0  0  0  0  0  0  0  0  # atno 10765 bound_to 10752
  141.1666  133.7090  156.8067 H   0  0  0  0  0  0  0  0  0  0  0  0  # atno 11005 bound_to 11000
  145.1272  139.2655  143.5558 LP  0  0  0  0  0  0  0  0  0  0  0  0  # atno 17320 bound_to 7965
  146.3529  140.0912  142.8612 LP  0  0  0  0  0  0  0  0  0  0  0  0  # atno 17321 bound_to 7965
  140.4660  144.1654  150.5912 LP  0  0  0  0  0  0  0  0  0  0  0  0  # atno 17342 bound_to 10162
  140.4433  143.2517  151.9444 LP  0  0  0  0  0  0  0  0  0  0  0  0  # atno 17343 bound_to 10162
  156.1122  130.6048  151.0064 LP  0  0  0  0  0  0  0  0  0  0  0  0  # atno 17370 bound_to 10713
  157.6570  131.0887  150.7924 LP  0  0  0  0  0  0  0  0  0  0  0  0  # atno 17371 bound_to 10713
  140.2217  134.8752  157.3384 LP  0  0  0  0  0  0  0  0  0  0  0  0  # atno 17394 bound_to 11000
  140.1981  134.4288  155.7678 LP  0  0  0  0  0  0  0  0  0  0  0  0  # atno 17395 bound_to 11000

$$$$
