AV-unprocessed.smi:1705|AV-procd|sdf|6883|dock1
  -GOLD-   22720 8 93D 1   1.00000     0.00000
 Structure written by MMmdl.
 38 39  0  0  0  0  0  0  0  0  1 V2000
  147.9975  142.0093  154.0848 C   0  0  0  0  0  0  0  0  0  0  0  0
  148.9140  141.1341  154.9525 C   0  0  1  0  0  0  0  0  0  0  0  0
  149.1741  141.7957  156.2238 N   0  0  0  0  0  0  0  0  0  0  0  0
  150.2362  141.5747  157.0967 C   0  0  0  0  0  0  0  0  0  0  0  0
  151.2115  140.6585  156.8344 C   0  0  0  0  0  0  0  0  0  0  0  0
  151.2716  139.8803  155.6371 C   0  0  0  0  0  0  0  0  0  0  0  0
  151.3525  139.2612  154.6618 N   0  0  0  0  0  0  0  0  0  0  0  0
  152.3197  140.4205  157.7572 C   0  0  0  0  0  0  0  0  0  0  0  0
  153.2122  139.5925  157.5592 O   0  0  0  0  0  0  0  0  0  0  0  0
  152.3005  141.2123  158.9227 N   0  0  0  0  0  0  0  0  0  0  0  0
  153.3781  140.9958  159.8684 C   0  0  0  0  0  0  0  0  0  0  0  0
  151.3021  142.1617  159.2224 C   0  0  0  0  0  0  0  0  0  0  0  0
  151.3176  142.8097  160.2735 O   0  0  0  0  0  0  0  0  0  0  0  0
  150.2713  142.3399  158.2671 N   0  0  0  0  0  0  0  0  0  0  0  0
  149.2843  143.3379  158.6301 C   0  0  0  0  0  0  0  0  0  0  0  0
  148.3069  139.7399  155.1943 C   0  0  2  0  0  0  0  0  0  0  0  0
  148.0220  138.9453  153.9184 C   0  0  0  0  0  0  0  0  0  0  0  0
  146.9177  137.9862  154.3329 C   0  0  0  0  0  0  0  0  0  0  0  0
  146.3811  138.5785  155.6388 C   0  0  0  0  0  0  0  0  0  0  0  0
  147.0102  139.8465  155.7607 O   0  0  0  0  0  0  0  0  0  0  0  0
  147.8376  141.5610  153.1040 H   0  0  0  0  0  0  0  0  0  0  0  0
  148.4263  142.9987  153.9258 H   0  0  0  0  0  0  0  0  0  0  0  0
  147.0214  142.1444  154.5517 H   0  0  0  0  0  0  0  0  0  0  0  0
  149.8560  140.9895  154.4252 H   0  0  0  0  0  0  0  0  0  0  0  0
  148.3224  142.0954  156.6765 H   0  0  0  0  0  0  0  0  0  0  0  0
  153.3850  141.7586  160.6463 H   0  0  0  0  0  0  0  0  0  0  0  0
  154.3199  141.0493  159.3186 H   0  0  0  0  0  0  0  0  0  0  0  0
  153.2267  140.0066  160.3032 H   0  0  0  0  0  0  0  0  0  0  0  0
  148.7674  142.9739  159.5198 H   0  0  0  0  0  0  0  0  0  0  0  0
  148.5738  143.4912  157.8211 H   0  0  0  0  0  0  0  0  0  0  0  0
  149.8118  144.2742  158.8221 H   0  0  0  0  0  0  0  0  0  0  0  0
  148.9398  139.1549  155.8650 H   0  0  0  0  0  0  0  0  0  0  0  0
  147.6545  139.6092  153.1347 H   0  0  0  0  0  0  0  0  0  0  0  0
  148.9043  138.4322  153.5352 H   0  0  0  0  0  0  0  0  0  0  0  0
  146.1448  137.9248  153.5661 H   0  0  0  0  0  0  0  0  0  0  0  0
  147.3062  136.9812  154.5003 H   0  0  0  0  0  0  0  0  0  0  0  0
  145.2957  138.6801  155.6376 H   0  0  0  0  0  0  0  0  0  0  0  0
  146.6638  137.9538  156.4873 H   0  0  0  0  0  0  0  0  0  0  0  0
  1  2  1  0  0  0  0
  1 21  1  0  0  0  0
  1 22  1  0  0  0  0
  1 23  1  0  0  0  0
  2  3  1  0  0  0  0
  2 16  1  0  0  0  0
  2 24  1  0  0  0  0
  3  4  1  0  0  0  0
  3 25  1  0  0  0  0
  4 14  1  0  0  0  0
  4  5  2  0  0  0  0
  5  6  1  0  0  0  0
  5  8  1  0  0  0  0
  6  7  3  0  0  0  0
  8  9  2  0  0  0  0
  8 10  1  0  0  0  0
 10 11  1  0  0  0  0
 10 12  1  0  0  0  0
 11 26  1  0  0  0  0
 11 27  1  0  0  0  0
 11 28  1  0  0  0  0
 12 13  2  0  0  0  0
 12 14  1  0  0  0  0
 14 15  1  0  0  0  0
 15 29  1  0  0  0  0
 15 30  1  0  0  0  0
 15 31  1  0  0  0  0
 16 20  1  0  0  0  0
 16 17  1  0  0  0  0
 16 32  1  0  0  0  0
 17 18  1  0  0  0  0
 17 33  1  0  0  0  0
 17 34  1  0  0  0  0
 18 19  1  0  0  0  0
 18 35  1  0  0  0  0
 18 36  1  0  0  0  0
 19 20  1  0  0  0  0
 19 37  1  0  0  0  0
 19 38  1  0  0  0  0
M  END
> <s_m_source_file>
AV-unprocessed.smi

> <i_m_source_file_index>
1705

> <i_lp_mmshare_version>
43012

> <i_f3d_flags>
0

> <s_epik_input>
TzFbQ0gyXVtDSDJdW0NIMl1bQ0BIXTFbQ0BIXShbQ0gzXSlbTkhdYzJjKEMjTiljKD1PKW4oW0NIM10pYyg9TyluMltDSDNd

> <s_epik_cmdline>
J2VwaWtfcHl0aG9uJywgJy1waCcsICc3LjAnLCAnLXRuJywgJzgnLCAnLW1hJywgJzIwMCcsICctbWV0YWxfYmluZGluZycsICctaW1hZScsICc8aW5maWxlLm1hZT4nLCAnLW9tYWUnLCAnPG91dGZpbGUubWFlPic=

> <r_epik_Ionization_Penalty>
0.000446268

> <r_epik_Ionization_Penalty_Charging>
9.41922e-10

> <r_epik_Ionization_Penalty_Neutral>
0.000446267

> <r_epik_State_Penalty>
0.000275531

> <r_epik_Charging_Adjusted_Penalty>
0.000275532

> <i_epik_Tot_Q>
0

> <i_epik_Tot_abs_Q>
0

> <r_epik_Metal_State_Penalty>
-0

> <b_epik_Metal_Only>
0

> <s_lp_Force_Field>
OPLS_2005

> <r_lp_Energy>
36.9916

> <b_lp_Chiralities_Consistent>
1

> <s_lp_Variant>
AV-unprocessed.smi:1705-2

> <Gold.Version>
5.8.1

> <Gold.Id.Protein>
6NUR|6NUR_protein|mol2

> <Gold.PLP.Fitness>
32.9165

> <Gold.PLP.PLP>
-28.2351

> <Gold.PLP.part.hbond>
-3.8843

> <Gold.PLP.part.metal>
0.0000

> <Gold.PLP.part.buried>
-2.0662

> <Gold.PLP.part.nonpolar>
-22.5933

> <Gold.PLP.part.repulsive>
0.1972

> <Gold.PLP.ligand.clash>
7.7832

> <Gold.PLP.ligand.torsion>
0.2981

> <Gold.PLP.Chemscore.Hbond>
1.7500

> <Gold.PLP.Chemscore.CHOScore>
0.0000

> <Gold.PLP.Chemscore.Metal>
0.0000

> <Gold.Chemscore.Hbonds>
donor molecule, donor type, donor heavy atom, donor atom, acceptor molecule, acceptor atom, score
      P1  H  7989  7998       L1     7  0.75
      P1  H  7997  8008       L1     9  1.00

> <Gold.PLP.Chemscore.Internal.Correction>
7.8108

> <Gold.Rescore>
     Score         DG    S(hbond)    S(metal)    S(lipo)     H(rot)  DE(clash)    DE(int)     intcor
      9.55     -12.03       1.45        0.00      42.49       1.28       0.08       2.40       ----

> <Gold.Chemscore.Fitness>
9.5533

> <Gold.Chemscore.DG>
-12.0329

> <Gold.Chemscore.ZeroCoef>
-5.4800

> <Gold.Chemscore.Hbond>
1.4530

> <Gold.Chemscore.Metal>
0.0000

> <Gold.Chemscore.Lipo>
42.4929

> <Gold.Chemscore.Internal_Hbond>
0.0000

> <Gold.Chemscore.DEClash>
0.0811

> <Gold.Chemscore.DEInternal>
2.3984

> <Gold.Chemscore.Rot>
1.2780

> <Gold.Chemscore.Internal.Correction>
   9.000000E+99

> <Gold.Chemscore.Hbonds>
donor molecule, donor type, donor heavy atom, donor atom, acceptor molecule, acceptor atom, score
      P1  H  7989  7998       L1     7  0.09
      P1  H  7997  8008       L1     9  0.85

> <Gold.Chemscore.Hbond.Weighted>
-4.8529

> <Gold.Chemscore.Metal.Weighted>
-0.0000

> <Gold.Chemscore.Lipo.Weighted>
-4.9717

> <Gold.Chemscore.Internal_Hbond.Weighted>
0.0000

> <Gold.Chemscore.DEClash.Weighted>
0.0811

> <Gold.Chemscore.DEInternal.Weighted>
2.3984

> <Gold.Chemscore.Rot.Weighted>
3.2717

> <Gold.Chemscore.Internal.Correction.Weighted>
   9.000000E+99

> <Gold.Protein.RotatedTorsions>
[ 6907 6896 6895 6894 ] final  175.79 input  -60.11 | X-H torsion
[ 7974 7965 7964 7962 ] final  -76.70 input  175.53 | X-H torsion
[ 8008 7997 7996 7995 ] final  -57.68 input   59.86 | X-H torsion
[ 10167 10162 10161 10158 ] final  154.15 input  -65.29 | X-H torsion
[ 10718 10713 10712 10709 ] final  104.96 input   66.30 | X-H torsion
[ 10763 10752 10751 10750 ] final  -79.70 input  -60.55 | X-H torsion
[ 11005 11000 10999 10996 ] final  136.70 input  -57.11 | X-H torsion

> <Gold.Protein.ActiveResidues>
 VAL166  LYS551  ARG553  GLY616  TRP617  ASP618  TYR619  PRO620  LYS621  CYS622 
 ASP623  PHE694  ASN695  SER759  ASP760  ASP761  ALA762  ILE779  LEU786  VAL792 
 PHE793  MET794  SER795  GLU796  ALA797  LYS798  CYS799  TRP800  GLU811  SER814 

> <Gold.Protein.RotatedAtoms>
  151.7306  133.3317  159.3338 H   0  0  0  0  0  0  0  0  0  0  0  0  # atno 6907 bound_to 6896
  150.7614  134.6367  159.6224 H   0  0  0  0  0  0  0  0  0  0  0  0  # atno 6908 bound_to 6896
  152.3594  134.6896  160.0263 H   0  0  0  0  0  0  0  0  0  0  0  0  # atno 6909 bound_to 6896
  145.6094  140.9390  143.1198 H   0  0  0  0  0  0  0  0  0  0  0  0  # atno 7974 bound_to 7965
  154.4278  140.1101  156.5837 H   0  0  0  0  0  0  0  0  0  0  0  0  # atno 8008 bound_to 7997
  155.6085  140.3494  155.4596 H   0  0  0  0  0  0  0  0  0  0  0  0  # atno 8009 bound_to 7997
  156.0117  140.1220  157.0436 H   0  0  0  0  0  0  0  0  0  0  0  0  # atno 8010 bound_to 7997
  139.4824  144.5212  151.7873 H   0  0  0  0  0  0  0  0  0  0  0  0  # atno 10167 bound_to 10162
  157.6722  131.0816  150.5784 H   0  0  0  0  0  0  0  0  0  0  0  0  # atno 10718 bound_to 10713
  154.5419  135.5686  153.6846 H   0  0  0  0  0  0  0  0  0  0  0  0  # atno 10763 bound_to 10752
  152.9966  135.6230  154.2491 H   0  0  0  0  0  0  0  0  0  0  0  0  # atno 10764 bound_to 10752
  154.2422  135.2862  155.2829 H   0  0  0  0  0  0  0  0  0  0  0  0  # atno 10765 bound_to 10752
  140.0064  134.9457  157.0183 H   0  0  0  0  0  0  0  0  0  0  0  0  # atno 11005 bound_to 11000
  144.7276  139.7825  143.7359 LP  0  0  0  0  0  0  0  0  0  0  0  0  # atno 17320 bound_to 7965
  146.1516  139.4601  143.0045 LP  0  0  0  0  0  0  0  0  0  0  0  0  # atno 17321 bound_to 7965
  140.4726  144.1565  150.5920 LP  0  0  0  0  0  0  0  0  0  0  0  0  # atno 17342 bound_to 10162
  140.4365  143.2545  151.9528 LP  0  0  0  0  0  0  0  0  0  0  0  0  # atno 17343 bound_to 10162
  156.6085  130.4373  149.5868 LP  0  0  0  0  0  0  0  0  0  0  0  0  # atno 17370 bound_to 10713
  156.2449  130.6873  151.1591 LP  0  0  0  0  0  0  0  0  0  0  0  0  # atno 17371 bound_to 10713
  140.4634  134.1460  155.7194 LP  0  0  0  0  0  0  0  0  0  0  0  0  # atno 17394 bound_to 11000
  141.1679  133.8666  157.1658 LP  0  0  0  0  0  0  0  0  0  0  0  0  # atno 17395 bound_to 11000

$$$$
