AV-unprocessed.smi:290|AV-procd|sdf|2222|dock7
  -GOLD-   2262022 73D 1   1.00000     0.00000
 Structure written by MMmdl.
 59 62  0  0  0  0  0  0  0  0  2 V2000
  149.9874  139.0951  153.6912 C   0  0  0  0  0  0  0  0  0  0  0  0
  149.7583  139.7606  155.0574 C   0  0  1  0  0  0  0  0  0  0  0  0
  151.0046  140.3815  155.3797 O   0  0  0  0  0  0  0  0  0  0  0  0
  150.7942  141.6938  155.8739 C   0  0  0  0  0  0  0  0  0  0  0  0
  149.5435  142.1501  155.1380 C   0  0  0  0  0  0  0  0  0  0  0  0
  148.6900  140.8898  155.1186 C   0  0  2  0  0  0  0  0  0  0  0  0
  148.0413  140.8077  156.3765 O   0  0  0  0  0  0  0  0  0  0  0  0
  147.5969  140.9399  154.0147 C   0  0  0  0  0  0  0  0  0  0  0  0
  146.9142  139.6804  153.7336 N   0  0  0  0  0  0  0  0  0  0  0  0
  146.8628  138.9902  152.5397 C   0  0  0  0  0  0  0  0  0  0  0  0
  146.2025  137.8647  152.5696 N   0  0  0  0  0  0  0  0  0  0  0  0
  145.7918  137.7534  153.8898 C   0  0  0  0  0  0  0  0  0  0  0  0
  145.0557  136.7796  154.6123 C   0  0  0  0  0  0  0  0  0  0  0  0
  144.5837  135.6618  154.0154 N   0  0  0  0  0  0  0  0  0  0  0  0
  145.5845  134.6366  153.7912 C   0  0  0  0  0  0  0  0  0  0  0  0
  144.9712  133.6817  152.7669 C   0  0  0  0  0  0  0  0  0  0  0  0
  143.7604  134.4231  152.1606 C   0  0  2  0  0  0  0  0  0  0  0  0
  143.7514  134.3194  150.6669 N   0  3  1  0  0  0  0  0  0  0  0  0
  144.6418  135.3406  150.0558 C   0  0  0  0  0  0  0  0  0  0  0  0
  143.9959  132.9536  150.1206 C   0  0  0  0  0  0  0  0  0  0  0  0
  143.6278  132.7968  148.6330 C   0  0  0  0  0  0  0  0  0  0  0  0
  142.4078  132.0980  148.4996 O   0  0  0  0  0  0  0  0  0  0  0  0
  143.8748  135.8480  152.7553 C   0  0  1  0  0  0  0  0  0  0  0  0
  142.5179  136.5412  153.0111 C   0  0  0  0  0  0  0  0  0  0  0  0
  144.8471  136.9916  155.9386 N   0  0  0  0  0  0  0  0  0  0  0  0
  145.3310  138.0935  156.5202 C   0  0  0  0  0  0  0  0  0  0  0  0
  146.0346  139.0865  155.9713 N   0  0  0  0  0  0  0  0  0  0  0  0
  146.2422  138.8746  154.6391 C   0  0  0  0  0  0  0  0  0  0  0  0
  142.8470  133.9672  152.5481 H   0  0  0  0  0  0  0  0  0  0  0  0
  144.4915  136.4650  152.0999 H   0  0  0  0  0  0  0  0  0  0  0  0
  149.1595  138.4461  153.4146 H   0  0  0  0  0  0  0  0  0  0  0  0
  150.8783  138.4673  153.7160 H   0  0  0  0  0  0  0  0  0  0  0  0
  150.1279  139.8340  152.9021 H   0  0  0  0  0  0  0  0  0  0  0  0
  149.5485  138.9835  155.7943 H   0  0  0  0  0  0  0  0  0  0  0  0
  150.6242  141.6542  156.9508 H   0  0  0  0  0  0  0  0  0  0  0  0
  151.6541  142.3364  155.6847 H   0  0  0  0  0  0  0  0  0  0  0  0
  149.0569  143.0049  155.6099 H   0  0  0  0  0  0  0  0  0  0  0  0
  149.8128  142.4403  154.1213 H   0  0  0  0  0  0  0  0  0  0  0  0
  147.2403  141.3071  156.3340 H   0  0  0  0  0  0  0  0  0  0  0  0
  146.8361  141.6748  154.2805 H   0  0  0  0  0  0  0  0  0  0  0  0
  148.0387  141.3014  153.0859 H   0  0  0  0  0  0  0  0  0  0  0  0
  147.3334  139.3384  151.6327 H   0  0  0  0  0  0  0  0  0  0  0  0
  146.5048  135.0705  153.3970 H   0  0  0  0  0  0  0  0  0  0  0  0
  145.8272  134.1222  154.7217 H   0  0  0  0  0  0  0  0  0  0  0  0
  145.7204  133.4142  152.0206 H   0  0  0  0  0  0  0  0  0  0  0  0
  144.6449  132.7580  153.2465 H   0  0  0  0  0  0  0  0  0  0  0  0
  145.6904  135.0659  150.1779 H   0  0  0  0  0  0  0  0  0  0  0  0
  144.5025  136.3230  150.5058 H   0  0  0  0  0  0  0  0  0  0  0  0
  144.4384  135.4646  148.9931 H   0  0  0  0  0  0  0  0  0  0  0  0
  145.0443  132.6917  150.2693 H   0  0  0  0  0  0  0  0  0  0  0  0
  143.4024  132.2192  150.6620 H   0  0  0  0  0  0  0  0  0  0  0  0
  143.5708  133.7529  148.1142 H   0  0  0  0  0  0  0  0  0  0  0  0
  144.4026  132.2229  148.1240 H   0  0  0  0  0  0  0  0  0  0  0  0
  141.6988  132.6762  148.7380 H   0  0  0  0  0  0  0  0  0  0  0  0
  141.9189  136.6506  152.1099 H   0  0  0  0  0  0  0  0  0  0  0  0
  142.6582  137.5422  153.4199 H   0  0  0  0  0  0  0  0  0  0  0  0
  141.9208  135.9773  153.7287 H   0  0  0  0  0  0  0  0  0  0  0  0
  145.1261  138.1946  157.5759 H   0  0  0  0  0  0  0  0  0  0  0  0
  142.8103  134.5550  150.3846 H   0  0  0  0  0  0  0  0  0  0  0  0
  1  2  1  0  0  0  0
  1 31  1  0  0  0  0
  1 32  1  0  0  0  0
  1 33  1  0  0  0  0
  2  6  1  0  0  0  0
  2  3  1  0  0  0  0
  2 34  1  0  0  0  0
  3  4  1  0  0  0  0
  4  5  1  0  0  0  0
  4 35  1  0  0  0  0
  4 36  1  0  0  0  0
  5  6  1  0  0  0  0
  5 37  1  0  0  0  0
  5 38  1  0  0  0  0
  6  7  1  0  0  0  0
  6  8  1  0  0  0  0
  7 39  1  0  0  0  0
  8  9  1  0  0  0  0
  8 40  1  0  0  0  0
  8 41  1  0  0  0  0
  9 28  1  0  0  0  0
  9 10  1  0  0  0  0
 10 11  2  0  0  0  0
 10 42  1  0  0  0  0
 11 12  1  0  0  0  0
 12 28  2  0  0  0  0
 12 13  1  0  0  0  0
 13 14  1  0  0  0  0
 13 25  2  0  0  0  0
 14 23  1  0  0  0  0
 14 15  1  0  0  0  0
 15 16  1  0  0  0  0
 15 43  1  0  0  0  0
 15 44  1  0  0  0  0
 16 17  1  0  0  0  0
 16 45  1  0  0  0  0
 16 46  1  0  0  0  0
 17 29  1  0  0  0  0
 17 18  1  0  0  0  0
 17 23  1  0  0  0  0
 18 19  1  0  0  0  0
 18 20  1  0  0  0  0
 18 59  1  0  0  0  0
 19 47  1  0  0  0  0
 19 48  1  0  0  0  0
 19 49  1  0  0  0  0
 20 21  1  0  0  0  0
 20 50  1  0  0  0  0
 20 51  1  0  0  0  0
 21 22  1  0  0  0  0
 21 52  1  0  0  0  0
 21 53  1  0  0  0  0
 22 54  1  0  0  0  0
 23 30  1  0  0  0  0
 23 24  1  0  0  0  0
 24 55  1  0  0  0  0
 24 56  1  0  0  0  0
 24 57  1  0  0  0  0
 25 26  1  0  0  0  0
 26 27  2  0  0  0  0
 26 58  1  0  0  0  0
 27 28  1  0  0  0  0
M  CHG  1  18   1
M  END
> <s_m_source_file>
AV-unprocessed.smi

> <i_m_source_file_index>
290

> <i_lp_mmshare_version>
43012

> <i_f3d_flags>
0

> <s_epik_input>
W0NIMl0xW0NIMl1PW0NAQEhdKFtDSDNdKVtDQEBdMShbT0hdKVtDSDJdbihbY0hdbjIpYyhjMjMpbltjSF1uYzNONFtDSDJdW0NIMl1bQ0BIXShbQ0BIXTRbQ0gzXSlOKFtDSDNdKVtDSDJdW0NIMl1bT0hd

> <s_epik_cmdline>
J2VwaWtfcHl0aG9uJywgJy1waCcsICc3LjAnLCAnLXRuJywgJzgnLCAnLW1hJywgJzIwMCcsICctbWV0YWxfYmluZGluZycsICctaW1hZScsICc8aW5maWxlLm1hZT4nLCAnLW9tYWUnLCAnPG91dGZpbGUubWFlPic=

> <r_lp_tautomer_probability>
1

> <r_epik_Ionization_Penalty>
0.0036983

> <r_epik_Ionization_Penalty_Charging>
0.0032725

> <r_epik_Ionization_Penalty_Neutral>
0.000425798

> <r_epik_State_Penalty>
-0

> <r_epik_Charging_Adjusted_Penalty>
0.0032725

> <i_epik_Tot_Q>
1

> <i_epik_Tot_abs_Q>
1

> <r_epik_Metal_State_Penalty>
-0

> <b_epik_Metal_Only>
0

> <s_lp_Force_Field>
OPLS_2005

> <r_lp_Energy>
67.3345

> <b_lp_Chiralities_Consistent>
1

> <s_lp_Variant>
AV-unprocessed.smi:290-8

> <Gold.Version>
5.8.1

> <Gold.Id.Protein>
6NUR|6NUR_protein|mol2

> <Gold.PLP.Fitness>
51.4604

> <Gold.PLP.PLP>
-36.6749

> <Gold.PLP.part.hbond>
-5.4658

> <Gold.PLP.part.metal>
0.0000

> <Gold.PLP.part.buried>
1.4905

> <Gold.PLP.part.nonpolar>
-32.4883

> <Gold.PLP.part.repulsive>
0.3712

> <Gold.PLP.ligand.clash>
0.0000

> <Gold.PLP.ligand.torsion>
1.2406

> <Gold.PLP.Chemscore.Hbond>
4.7074

> <Gold.PLP.Chemscore.CHOScore>
1.0000

> <Gold.PLP.Chemscore.Metal>
0.0000

> <Gold.Chemscore.Hbonds>
donor molecule, donor type, donor heavy atom, donor atom, acceptor molecule, acceptor atom, score
      L1  H    18    59       P1 10186  2.00
      L1  H    22    54       P1 10186  1.00
      P1  H  7989  7998       L1     3  0.88
      P1  H 10785 10796       L1    22  0.69
      L1  C    10    42       P1  7957  1.00

> <Gold.PLP.Chemscore.Internal.Correction>
0.1446

> <Gold.Rescore>
     Score         DG    S(hbond)    S(metal)    S(lipo)     H(rot)  DE(clash)    DE(int)     intcor
      7.27     -13.12       1.87        0.00      92.00       3.67       2.79       3.05       ----

> <Gold.Chemscore.Fitness>
7.2713

> <Gold.Chemscore.DG>
-13.1166

> <Gold.Chemscore.ZeroCoef>
-5.4800

> <Gold.Chemscore.Hbond>
1.8734

> <Gold.Chemscore.Metal>
0.0000

> <Gold.Chemscore.Lipo>
91.9990

> <Gold.Chemscore.Internal_Hbond>
0.0000

> <Gold.Chemscore.DEClash>
2.7904

> <Gold.Chemscore.DEInternal>
3.0548

> <Gold.Chemscore.Rot>
3.6658

> <Gold.Chemscore.Internal.Correction>
   9.000000E+99

> <Gold.Chemscore.Hbonds>
donor molecule, donor type, donor heavy atom, donor atom, acceptor molecule, acceptor atom, score
      L1  H    18    59       P1 10186  0.49
      L1  H    22    54       P1 10186  0.92
      P1  H  7989  7998       L1     3  0.04
      P1  H 10785 10796       L1    22  0.13

> <Gold.Chemscore.Hbond.Weighted>
-6.2571

> <Gold.Chemscore.Metal.Weighted>
-0.0000

> <Gold.Chemscore.Lipo.Weighted>
-10.7639

> <Gold.Chemscore.Internal_Hbond.Weighted>
0.0000

> <Gold.Chemscore.DEClash.Weighted>
2.7904

> <Gold.Chemscore.DEInternal.Weighted>
3.0548

> <Gold.Chemscore.Rot.Weighted>
9.3844

> <Gold.Chemscore.Internal.Correction.Weighted>
   9.000000E+99

> <Gold.Protein.RotatedTorsions>
[ 6907 6896 6895 6894 ] final  178.89 input  -60.11 | X-H torsion
[ 7974 7965 7964 7962 ] final  -20.66 input  175.53 | X-H torsion
[ 8008 7997 7996 7995 ] final  -59.23 input   59.86 | X-H torsion
[ 10167 10162 10161 10158 ] final  -87.59 input  -65.29 | X-H torsion
[ 10718 10713 10712 10709 ] final  -35.46 input   66.30 | X-H torsion
[ 10763 10752 10751 10750 ] final -177.87 input  -60.55 | X-H torsion
[ 11005 11000 10999 10996 ] final  -52.80 input  -57.11 | X-H torsion

> <Gold.Protein.ActiveResidues>
 VAL166  LYS551  ARG553  GLY616  TRP617  ASP618  TYR619  PRO620  LYS621  CYS622 
 ASP623  PHE694  ASN695  SER759  ASP760  ASP761  ALA762  ILE779  LEU786  VAL792 
 PHE793  MET794  SER795  GLU796  ALA797  LYS798  CYS799  TRP800  GLU811  SER814 

> <Gold.Protein.RotatedAtoms>
  151.6806  133.3312  159.3218 H   0  0  0  0  0  0  0  0  0  0  0  0  # atno 6907 bound_to 6896
  150.7825  134.6784  159.6440 H   0  0  0  0  0  0  0  0  0  0  0  0  # atno 6908 bound_to 6896
  152.3886  134.6481  160.0168 H   0  0  0  0  0  0  0  0  0  0  0  0  # atno 6909 bound_to 6896
  146.1776  140.4233  142.8507 H   0  0  0  0  0  0  0  0  0  0  0  0  # atno 7974 bound_to 7965
  154.4343  140.1066  156.6083 H   0  0  0  0  0  0  0  0  0  0  0  0  # atno 8008 bound_to 7997
  155.5837  140.3491  155.4528 H   0  0  0  0  0  0  0  0  0  0  0  0  # atno 8009 bound_to 7997
  156.0299  140.1258  157.0258 H   0  0  0  0  0  0  0  0  0  0  0  0  # atno 8010 bound_to 7997
  140.3829  143.2740  151.9361 H   0  0  0  0  0  0  0  0  0  0  0  0  # atno 10167 bound_to 10162
  156.3383  130.4289  149.7810 H   0  0  0  0  0  0  0  0  0  0  0  0  # atno 10718 bound_to 10713
  154.5548  135.2815  155.0975 H   0  0  0  0  0  0  0  0  0  0  0  0  # atno 10763 bound_to 10752
  154.2406  135.6357  153.5210 H   0  0  0  0  0  0  0  0  0  0  0  0  # atno 10764 bound_to 10752
  153.0013  135.5559  154.6125 H   0  0  0  0  0  0  0  0  0  0  0  0  # atno 10765 bound_to 10752
  141.0943  133.6627  156.4078 H   0  0  0  0  0  0  0  0  0  0  0  0  # atno 11005 bound_to 11000
  144.8261  140.6631  143.6321 LP  0  0  0  0  0  0  0  0  0  0  0  0  # atno 17320 bound_to 7965
  145.4168  139.1570  143.4096 LP  0  0  0  0  0  0  0  0  0  0  0  0  # atno 17321 bound_to 7965
  139.4794  144.5801  151.7947 LP  0  0  0  0  0  0  0  0  0  0  0  0  # atno 17342 bound_to 10162
  140.4919  144.1298  150.5952 LP  0  0  0  0  0  0  0  0  0  0  0  0  # atno 17343 bound_to 10162
  156.5056  130.8149  151.3149 LP  0  0  0  0  0  0  0  0  0  0  0  0  # atno 17370 bound_to 10713
  157.7442  130.9930  150.2658 LP  0  0  0  0  0  0  0  0  0  0  0  0  # atno 17371 bound_to 10713
  140.5177  134.6334  157.5307 LP  0  0  0  0  0  0  0  0  0  0  0  0  # atno 17394 bound_to 11000
  139.9776  134.7190  155.9920 LP  0  0  0  0  0  0  0  0  0  0  0  0  # atno 17395 bound_to 11000

$$$$
