AV-unprocessed.smi:2946|AV-procd|sdf|11281|dock1
  -GOLD-   2272016173D 1   1.00000     0.00000
 Structure written by MMmdl.
 35 36  0  0  0  0  0  0  0  0  1 V2000
  151.6572  141.6652  156.8969 C   0  0  0  0  0  0  0  0  0  0  0  0
  151.7814  140.2216  156.8778 N   0  0  0  0  0  0  0  0  0  0  0  0
  152.3072  139.4562  157.9226 C   0  0  0  0  0  0  0  0  0  0  0  0
  152.7549  140.1287  159.0547 N   0  0  0  0  0  0  0  0  0  0  0  0
  152.7340  141.5679  159.2711 C   0  0  0  0  0  0  0  0  0  0  0  0
  152.4435  141.9232  160.7375 C   0  0  1  0  0  0  0  0  0  0  0  0
  153.6434  141.8406  161.6847 C   0  0  0  0  0  0  0  0  0  0  0  0
  153.2379  142.8129  162.7692 C   0  0  0  0  0  0  0  0  0  0  0  0
  152.5471  143.9083  161.9622 C   0  0  0  0  0  0  0  0  0  0  0  0
  151.9339  143.2495  160.8573 O   0  0  0  0  0  0  0  0  0  0  0  0
  152.3689  138.0982  157.8316 C   0  0  0  0  0  0  0  0  0  0  0  0
  152.8394  137.2607  158.8899 C   0  0  0  0  0  0  0  0  0  0  0  0
  153.2076  136.5683  159.7421 N   0  0  0  0  0  0  0  0  0  0  0  0
  151.9161  137.3798  156.6425 C   0  0  0  0  0  0  0  0  0  0  0  0
  151.9434  136.1519  156.5302 O   0  0  0  0  0  0  0  0  0  0  0  0
  151.4288  138.2016  155.6060 N   0  0  0  0  0  0  0  0  0  0  0  0
  150.9684  137.5259  154.4087 C   0  0  0  0  0  0  0  0  0  0  0  0
  151.3389  139.6075  155.6803 C   0  0  0  0  0  0  0  0  0  0  0  0
  150.8905  140.2796  154.7467 O   0  0  0  0  0  0  0  0  0  0  0  0
  151.9129  142.0593  157.8777 H   0  0  0  0  0  0  0  0  0  0  0  0
  150.6181  141.9152  156.6743 H   0  0  0  0  0  0  0  0  0  0  0  0
  152.3403  142.0586  156.1418 H   0  0  0  0  0  0  0  0  0  0  0  0
  152.6371  139.6169  159.9176 H   0  0  0  0  0  0  0  0  0  0  0  0
  153.6992  141.9768  158.9713 H   0  0  0  0  0  0  0  0  0  0  0  0
  151.9785  142.0368  158.6411 H   0  0  0  0  0  0  0  0  0  0  0  0
  151.6677  141.2545  161.1130 H   0  0  0  0  0  0  0  0  0  0  0  0
  153.8208  140.8320  162.0586 H   0  0  0  0  0  0  0  0  0  0  0  0
  154.5576  142.1888  161.2039 H   0  0  0  0  0  0  0  0  0  0  0  0
  152.5272  142.3410  163.4491 H   0  0  0  0  0  0  0  0  0  0  0  0
  154.0810  143.1810  163.3544 H   0  0  0  0  0  0  0  0  0  0  0  0
  151.8171  144.4639  162.5510 H   0  0  0  0  0  0  0  0  0  0  0  0
  153.2819  144.6169  161.5788 H   0  0  0  0  0  0  0  0  0  0  0  0
  150.7783  138.2323  153.6012 H   0  0  0  0  0  0  0  0  0  0  0  0
  150.0540  136.9935  154.6752 H   0  0  0  0  0  0  0  0  0  0  0  0
  151.7534  136.8363  154.0921 H   0  0  0  0  0  0  0  0  0  0  0  0
  1  2  1  0  0  0  0
  1 20  1  0  0  0  0
  1 21  1  0  0  0  0
  1 22  1  0  0  0  0
  2 18  1  0  0  0  0
  2  3  1  0  0  0  0
  3  4  1  0  0  0  0
  3 11  2  0  0  0  0
  4  5  1  0  0  0  0
  4 23  1  0  0  0  0
  5  6  1  0  0  0  0
  5 24  1  0  0  0  0
  5 25  1  0  0  0  0
  6 10  1  0  0  0  0
  6  7  1  0  0  0  0
  6 26  1  0  0  0  0
  7  8  1  0  0  0  0
  7 27  1  0  0  0  0
  7 28  1  0  0  0  0
  8  9  1  0  0  0  0
  8 29  1  0  0  0  0
  8 30  1  0  0  0  0
  9 10  1  0  0  0  0
  9 31  1  0  0  0  0
  9 32  1  0  0  0  0
 11 12  1  0  0  0  0
 11 14  1  0  0  0  0
 12 13  3  0  0  0  0
 14 15  2  0  0  0  0
 14 16  1  0  0  0  0
 16 17  1  0  0  0  0
 16 18  1  0  0  0  0
 17 33  1  0  0  0  0
 17 34  1  0  0  0  0
 17 35  1  0  0  0  0
 18 19  2  0  0  0  0
M  END
> <s_m_source_file>
AV-unprocessed.smi

> <i_m_source_file_index>
2946

> <i_lp_mmshare_version>
43012

> <i_f3d_flags>
0

> <s_epik_input>
Tz1jMW4oW0NIM10pYyg9TyljKEMjTiljKG4xW0NIM10pW05IXVtDSDJdW0NAQEhdMltDSDJdW0NIMl1bQ0gyXU8y

> <s_epik_cmdline>
J2VwaWtfcHl0aG9uJywgJy1waCcsICc3LjAnLCAnLXRuJywgJzgnLCAnLW1hJywgJzIwMCcsICctbWV0YWxfYmluZGluZycsICctaW1hZScsICc8aW5maWxlLm1hZT4nLCAnLW9tYWUnLCAnPG91dGZpbGUubWFlPic=

> <r_epik_Ionization_Penalty>
0.000541801

> <r_epik_Ionization_Penalty_Charging>
8.97317e-10

> <r_epik_Ionization_Penalty_Neutral>
0.000541801

> <r_epik_State_Penalty>
0.000338907

> <r_epik_Charging_Adjusted_Penalty>
0.000338908

> <i_epik_Tot_Q>
0

> <i_epik_Tot_abs_Q>
0

> <r_epik_Metal_State_Penalty>
-0

> <b_epik_Metal_Only>
0

> <s_lp_Force_Field>
OPLS_2005

> <r_lp_Energy>
39.9681

> <b_lp_Chiralities_Consistent>
1

> <s_lp_Variant>
AV-unprocessed.smi:2946-2

> <Gold.Version>
5.8.1

> <Gold.Id.Protein>
6NUR|6NUR_protein|mol2

> <Gold.PLP.Fitness>
41.9059

> <Gold.PLP.PLP>
-35.9624

> <Gold.PLP.part.hbond>
-3.1935

> <Gold.PLP.part.metal>
0.0000

> <Gold.PLP.part.buried>
-6.3902

> <Gold.PLP.part.nonpolar>
-26.7754

> <Gold.PLP.part.repulsive>
0.2664

> <Gold.PLP.ligand.clash>
12.1893

> <Gold.PLP.ligand.torsion>
0.3824

> <Gold.PLP.Chemscore.Hbond>
3.0000

> <Gold.PLP.Chemscore.CHOScore>
0.0000

> <Gold.PLP.Chemscore.Metal>
0.0000

> <Gold.Chemscore.Hbonds>
donor molecule, donor type, donor heavy atom, donor atom, acceptor molecule, acceptor atom, score
      P1  H  6896  6908       L1    13  1.00
      P1  H  7989  7998       L1    19  1.00
      P1  H 10752 10764       L1    15  0.96

> <Gold.PLP.Chemscore.Internal.Correction>
9.8975

> <Gold.Rescore>
     Score         DG    S(hbond)    S(metal)    S(lipo)     H(rot)  DE(clash)    DE(int)     intcor
     18.39     -20.40       2.91        0.00      72.83       1.29       0.07       1.93       ----

> <Gold.Chemscore.Fitness>
18.3949

> <Gold.Chemscore.DG>
-20.4020

> <Gold.Chemscore.ZeroCoef>
-5.4800

> <Gold.Chemscore.Hbond>
2.9087

> <Gold.Chemscore.Metal>
0.0000

> <Gold.Chemscore.Lipo>
72.8296

> <Gold.Chemscore.Internal_Hbond>
0.0000

> <Gold.Chemscore.DEClash>
0.0728

> <Gold.Chemscore.DEInternal>
1.9342

> <Gold.Chemscore.Rot>
1.2946

> <Gold.Chemscore.Internal.Correction>
   9.000000E+99

> <Gold.Chemscore.Hbonds>
donor molecule, donor type, donor heavy atom, donor atom, acceptor molecule, acceptor atom, score
      P1  H  6896  6908       L1    13  0.92
      P1  H  7989  7998       L1    19  0.96
      P1  H 10752 10764       L1    15  0.77

> <Gold.Chemscore.Hbond.Weighted>
-9.7150

> <Gold.Chemscore.Metal.Weighted>
-0.0000

> <Gold.Chemscore.Lipo.Weighted>
-8.5211

> <Gold.Chemscore.Internal_Hbond.Weighted>
0.0000

> <Gold.Chemscore.DEClash.Weighted>
0.0728

> <Gold.Chemscore.DEInternal.Weighted>
1.9342

> <Gold.Chemscore.Rot.Weighted>
3.3141

> <Gold.Chemscore.Internal.Correction.Weighted>
   9.000000E+99

> <Gold.Protein.RotatedTorsions>
[ 6907 6896 6895 6894 ] final  -85.04 input  -60.11 | X-H torsion
[ 7974 7965 7964 7962 ] final   85.59 input  175.53 | X-H torsion
[ 8008 7997 7996 7995 ] final -161.18 input   59.86 | X-H torsion
[ 10167 10162 10161 10158 ] final  -10.95 input  -65.29 | X-H torsion
[ 10718 10713 10712 10709 ] final -130.73 input   66.30 | X-H torsion
[ 10763 10752 10751 10750 ] final  -39.26 input  -60.55 | X-H torsion
[ 11005 11000 10999 10996 ] final -102.62 input  -57.11 | X-H torsion

> <Gold.Protein.ActiveResidues>
 VAL166  LYS551  ARG553  GLY616  TRP617  ASP618  TYR619  PRO620  LYS621  CYS622 
 ASP623  PHE694  ASN695  SER759  ASP760  ASP761  ALA762  ILE779  LEU786  VAL792 
 PHE793  MET794  SER795  GLU796  ALA797  LYS798  CYS799  TRP800  GLU811  SER814 

> <Gold.Protein.RotatedAtoms>
  150.6872  134.3266  159.4808 H   0  0  0  0  0  0  0  0  0  0  0  0  # atno 6907 bound_to 6896
  152.1135  134.9254  160.0575 H   0  0  0  0  0  0  0  0  0  0  0  0  # atno 6908 bound_to 6896
  152.0488  133.3975  159.4405 H   0  0  0  0  0  0  0  0  0  0  0  0  # atno 6909 bound_to 6896
  145.5835  139.2328  143.2340 H   0  0  0  0  0  0  0  0  0  0  0  0  # atno 7974 bound_to 7965
  155.7883  140.0875  157.2022 H   0  0  0  0  0  0  0  0  0  0  0  0  # atno 8008 bound_to 7997
  154.3986  140.1495  156.3191 H   0  0  0  0  0  0  0  0  0  0  0  0  # atno 8009 bound_to 7997
  155.8584  140.3431  155.5742 H   0  0  0  0  0  0  0  0  0  0  0  0  # atno 8010 bound_to 7997
  140.7126  143.5692  150.9110 H   0  0  0  0  0  0  0  0  0  0  0  0  # atno 10167 bound_to 10162
  156.2173  130.6956  151.0717 H   0  0  0  0  0  0  0  0  0  0  0  0  # atno 10718 bound_to 10713
  153.9264  135.6776  153.4746 H   0  0  0  0  0  0  0  0  0  0  0  0  # atno 10763 bound_to 10752
  153.1002  135.4832  154.8850 H   0  0  0  0  0  0  0  0  0  0  0  0  # atno 10764 bound_to 10752
  154.7451  135.3170  154.8616 H   0  0  0  0  0  0  0  0  0  0  0  0  # atno 10765 bound_to 10752
  141.1181  133.8573  157.1383 H   0  0  0  0  0  0  0  0  0  0  0  0  # atno 11005 bound_to 11000
  146.1699  140.6661  142.9238 LP  0  0  0  0  0  0  0  0  0  0  0  0  # atno 17320 bound_to 7965
  144.7383  140.4872  143.6887 LP  0  0  0  0  0  0  0  0  0  0  0  0  # atno 17321 bound_to 7965
  139.9418  143.6373  152.3051 LP  0  0  0  0  0  0  0  0  0  0  0  0  # atno 17342 bound_to 10162
  139.6860  144.7651  151.1523 LP  0  0  0  0  0  0  0  0  0  0  0  0  # atno 17343 bound_to 10162
  157.7070  131.0752  150.6634 LP  0  0  0  0  0  0  0  0  0  0  0  0  # atno 17370 bound_to 10713
  156.6695  130.4535  149.5661 LP  0  0  0  0  0  0  0  0  0  0  0  0  # atno 17371 bound_to 10713
  140.0118  134.9985  157.0411 LP  0  0  0  0  0  0  0  0  0  0  0  0  # atno 17394 bound_to 11000
  140.4587  134.1507  155.7189 LP  0  0  0  0  0  0  0  0  0  0  0  0  # atno 17395 bound_to 11000

$$$$
