AV-unprocessed.smi:3126|AV-procd|sdf|11913|dock2
  -GOLD-   2272017293D 1   1.00000     0.00000
 Structure written by MMmdl.
 42 43  0  0  0  0  0  0  0  0  2 V2000
  153.6816  141.8853  162.1834 C   0  0  0  0  0  0  0  0  0  0  0  0
  153.6981  142.0660  160.6594 C   0  0  0  0  0  0  0  0  0  0  0  0
  152.4983  142.8613  160.1055 C   0  0  1  0  0  0  0  0  0  0  0  0
  152.1929  144.1243  160.9386 C   0  0  0  0  0  0  0  0  0  0  0  0
  151.0113  144.9177  160.3592 C   0  0  0  0  0  0  0  0  0  0  0  0
  151.2525  145.2938  158.8882 C   0  0  0  0  0  0  0  0  0  0  0  0
  151.5802  144.0636  158.0219 C   0  0  2  0  0  0  0  0  0  0  0  0
  150.3818  143.2149  157.8331 N   0  3  0  0  0  0  0  0  0  0  0  0
  150.6566  141.8515  157.3389 C   0  0  0  0  0  0  0  0  0  0  0  0
  150.6297  141.8065  155.8059 C   0  0  0  0  0  0  0  0  0  0  0  0
  150.8284  140.4008  155.2748 C   0  0  0  0  0  0  0  0  0  0  0  0
  152.0194  139.6913  155.5341 C   0  0  0  0  0  0  0  0  0  0  0  0
  152.1610  138.3902  155.0154 C   0  0  0  0  0  0  0  0  0  0  0  0
  151.1028  137.8520  154.2562 C   0  0  0  0  0  0  0  0  0  0  0  0
  149.9587  138.5226  154.0004 N   0  0  0  0  0  0  0  0  0  0  0  0
  149.8301  139.7691  154.5027 C   0  0  0  0  0  0  0  0  0  0  0  0
  152.7382  143.2479  158.6294 C   0  0  0  0  0  0  0  0  0  0  0  0
  154.5122  141.2560  162.5038 H   0  0  0  0  0  0  0  0  0  0  0  0
  152.7594  141.4074  162.5145 H   0  0  0  0  0  0  0  0  0  0  0  0
  153.7760  142.8374  162.7047 H   0  0  0  0  0  0  0  0  0  0  0  0
  154.6319  142.5426  160.3582 H   0  0  0  0  0  0  0  0  0  0  0  0
  153.7081  141.0744  160.2055 H   0  0  0  0  0  0  0  0  0  0  0  0
  151.6242  142.2093  160.1429 H   0  0  0  0  0  0  0  0  0  0  0  0
  151.9633  143.8553  161.9692 H   0  0  0  0  0  0  0  0  0  0  0  0
  153.0763  144.7635  160.9770 H   0  0  0  0  0  0  0  0  0  0  0  0
  150.0975  144.3289  160.4460 H   0  0  0  0  0  0  0  0  0  0  0  0
  150.8500  145.8210  160.9484 H   0  0  0  0  0  0  0  0  0  0  0  0
  150.3863  145.8217  158.4871 H   0  0  0  0  0  0  0  0  0  0  0  0
  152.0852  145.9966  158.8366 H   0  0  0  0  0  0  0  0  0  0  0  0
  151.9082  144.4220  157.0448 H   0  0  0  0  0  0  0  0  0  0  0  0
  149.9076  143.1387  158.7217 H   0  0  0  0  0  0  0  0  0  0  0  0
  151.6304  141.5241  157.7066 H   0  0  0  0  0  0  0  0  0  0  0  0
  149.9086  141.1687  157.7449 H   0  0  0  0  0  0  0  0  0  0  0  0
  149.6793  142.1938  155.4357 H   0  0  0  0  0  0  0  0  0  0  0  0
  151.4071  142.4540  155.3972 H   0  0  0  0  0  0  0  0  0  0  0  0
  152.8118  140.1353  156.1187 H   0  0  0  0  0  0  0  0  0  0  0  0
  153.0588  137.8172  155.1947 H   0  0  0  0  0  0  0  0  0  0  0  0
  151.1780  136.8569  153.8432 H   0  0  0  0  0  0  0  0  0  0  0  0
  148.9042  140.2781  154.2789 H   0  0  0  0  0  0  0  0  0  0  0  0
  153.6555  143.8348  158.5615 H   0  0  0  0  0  0  0  0  0  0  0  0
  152.9108  142.3537  158.0288 H   0  0  0  0  0  0  0  0  0  0  0  0
  149.7641  143.6774  157.1812 H   0  0  0  0  0  0  0  0  0  0  0  0
  1  2  1  0  0  0  0
  1 18  1  0  0  0  0
  1 19  1  0  0  0  0
  1 20  1  0  0  0  0
  2  3  1  0  0  0  0
  2 21  1  0  0  0  0
  2 22  1  0  0  0  0
  3 17  1  0  0  0  0
  3  4  1  0  0  0  0
  3 23  1  0  0  0  0
  4  5  1  0  0  0  0
  4 24  1  0  0  0  0
  4 25  1  0  0  0  0
  5  6  1  0  0  0  0
  5 26  1  0  0  0  0
  5 27  1  0  0  0  0
  6  7  1  0  0  0  0
  6 28  1  0  0  0  0
  6 29  1  0  0  0  0
  7  8  1  0  0  0  0
  7 17  1  0  0  0  0
  7 30  1  0  0  0  0
  8  9  1  0  0  0  0
  8 31  1  0  0  0  0
  8 42  1  0  0  0  0
  9 10  1  0  0  0  0
  9 32  1  0  0  0  0
  9 33  1  0  0  0  0
 10 11  1  0  0  0  0
 10 34  1  0  0  0  0
 10 35  1  0  0  0  0
 11 16  1  0  0  0  0
 11 12  2  0  0  0  0
 12 13  1  0  0  0  0
 12 36  1  0  0  0  0
 13 14  2  0  0  0  0
 13 37  1  0  0  0  0
 14 15  1  0  0  0  0
 14 38  1  0  0  0  0
 15 16  2  0  0  0  0
 16 39  1  0  0  0  0
 17 40  1  0  0  0  0
 17 41  1  0  0  0  0
M  CHG  1   8   1
M  END
> <s_m_source_file>
AV-unprocessed.smi

> <i_m_source_file_index>
3126

> <i_lp_mmshare_version>
43012

> <i_f3d_flags>
0

> <s_epik_input>
W0NIM11bQ0gyXVtDQEBIXTFbQ0gyXVtDSDJdW0NIMl1bQ0BIXShbQ0gyXTEpW05IXVtDSDJdW0NIMl1jMltjSF1bY0hdW2NIXW5bY0hdMg==

> <s_epik_cmdline>
J2VwaWtfcHl0aG9uJywgJy1waCcsICc3LjAnLCAnLXRuJywgJzgnLCAnLW1hJywgJzIwMCcsICctbWV0YWxfYmluZGluZycsICctaW1hZScsICc8aW5maWxlLm1hZT4nLCAnLW9tYWUnLCAnPG91dGZpbGUubWFlPic=

> <r_lp_tautomer_probability>
1

> <r_epik_Ionization_Penalty>
0.000947364

> <r_epik_Ionization_Penalty_Charging>
0.000286103

> <r_epik_Ionization_Penalty_Neutral>
0.000661261

> <r_epik_State_Penalty>
-0

> <r_epik_Charging_Adjusted_Penalty>
0.000286103

> <i_epik_Tot_Q>
1

> <i_epik_Tot_abs_Q>
1

> <r_epik_Metal_State_Penalty>
-0

> <b_epik_Metal_Only>
0

> <s_lp_Force_Field>
OPLS_2005

> <r_lp_Energy>
19.3892

> <b_lp_Chiralities_Consistent>
1

> <s_lp_Variant>
AV-unprocessed.smi:3126-4

> <Gold.Version>
5.8.1

> <Gold.Id.Protein>
6NUR|6NUR_protein|mol2

> <Gold.PLP.Fitness>
57.4421

> <Gold.PLP.PLP>
-49.2860

> <Gold.PLP.part.hbond>
-1.0000

> <Gold.PLP.part.metal>
0.0000

> <Gold.PLP.part.buried>
-3.2946

> <Gold.PLP.part.nonpolar>
-44.7959

> <Gold.PLP.part.repulsive>
0.2788

> <Gold.PLP.ligand.clash>
0.0000

> <Gold.PLP.ligand.torsion>
0.4387

> <Gold.PLP.Chemscore.Hbond>
2.0000

> <Gold.PLP.Chemscore.CHOScore>
0.9971

> <Gold.PLP.Chemscore.Metal>
0.0000

> <Gold.Chemscore.Hbonds>
donor molecule, donor type, donor heavy atom, donor atom, acceptor molecule, acceptor atom, score
      L1  H     8    42       P1  8028  2.00
      L1  C    14    38       P1  7949  1.00

> <Gold.PLP.Chemscore.Internal.Correction>
0.0421

> <Gold.Rescore>
     Score         DG    S(hbond)    S(metal)    S(lipo)     H(rot)  DE(clash)    DE(int)     intcor
     21.37     -21.93       0.91        0.00     144.14       1.35       0.17       0.39       ----

> <Gold.Chemscore.Fitness>
21.3705

> <Gold.Chemscore.DG>
-21.9276

> <Gold.Chemscore.ZeroCoef>
-5.4800

> <Gold.Chemscore.Hbond>
0.9105

> <Gold.Chemscore.Metal>
0.0000

> <Gold.Chemscore.Lipo>
144.1402

> <Gold.Chemscore.Internal_Hbond>
0.0000

> <Gold.Chemscore.DEClash>
0.1695

> <Gold.Chemscore.DEInternal>
0.3877

> <Gold.Chemscore.Rot>
1.3507

> <Gold.Chemscore.Internal.Correction>
   9.000000E+99

> <Gold.Chemscore.Hbonds>
donor molecule, donor type, donor heavy atom, donor atom, acceptor molecule, acceptor atom, score
      L1  H     8    42       P1  8028  0.85

> <Gold.Chemscore.Hbond.Weighted>
-3.0411

> <Gold.Chemscore.Metal.Weighted>
-0.0000

> <Gold.Chemscore.Lipo.Weighted>
-16.8644

> <Gold.Chemscore.Internal_Hbond.Weighted>
0.0000

> <Gold.Chemscore.DEClash.Weighted>
0.1695

> <Gold.Chemscore.DEInternal.Weighted>
0.3877

> <Gold.Chemscore.Rot.Weighted>
3.4579

> <Gold.Chemscore.Internal.Correction.Weighted>
   9.000000E+99

> <Gold.Protein.RotatedTorsions>
[ 6907 6896 6895 6894 ] final   61.46 input  -60.11 | X-H torsion
[ 7974 7965 7964 7962 ] final   27.76 input  175.53 | X-H torsion
[ 8008 7997 7996 7995 ] final  -66.88 input   59.86 | X-H torsion
[ 10167 10162 10161 10158 ] final  -82.55 input  -65.29 | X-H torsion
[ 10718 10713 10712 10709 ] final  -84.24 input   66.30 | X-H torsion
[ 10763 10752 10751 10750 ] final  -71.40 input  -60.55 | X-H torsion
[ 11005 11000 10999 10996 ] final  -22.68 input  -57.11 | X-H torsion

> <Gold.Protein.ActiveResidues>
 VAL166  LYS551  ARG553  GLY616  TRP617  ASP618  TYR619  PRO620  LYS621  CYS622 
 ASP623  PHE694  ASN695  SER759  ASP760  ASP761  ALA762  ILE779  LEU786  VAL792 
 PHE793  MET794  SER795  GLU796  ALA797  LYS798  CYS799  TRP800  GLU811  SER814 

> <Gold.Protein.RotatedAtoms>
  152.4090  134.6157  160.0037 H   0  0  0  0  0  0  0  0  0  0  0  0  # atno 6907 bound_to 6896
  151.6340  133.3324  159.3123 H   0  0  0  0  0  0  0  0  0  0  0  0  # atno 6908 bound_to 6896
  150.7982  134.7098  159.6642 H   0  0  0  0  0  0  0  0  0  0  0  0  # atno 6909 bound_to 6896
  146.1767  139.7148  142.8930 H   0  0  0  0  0  0  0  0  0  0  0  0  # atno 7974 bound_to 7965
  154.4763  140.0904  156.7270 H   0  0  0  0  0  0  0  0  0  0  0  0  # atno 8008 bound_to 7997
  155.4588  140.3460  155.4292 H   0  0  0  0  0  0  0  0  0  0  0  0  # atno 8009 bound_to 7997
  156.1121  140.1451  156.9311 H   0  0  0  0  0  0  0  0  0  0  0  0  # atno 8010 bound_to 7997
  140.4310  143.2549  151.8760 H   0  0  0  0  0  0  0  0  0  0  0  0  # atno 10167 bound_to 10162
  156.0008  130.4691  150.4379 H   0  0  0  0  0  0  0  0  0  0  0  0  # atno 10718 bound_to 10713
  154.4312  135.5963  153.6070 H   0  0  0  0  0  0  0  0  0  0  0  0  # atno 10763 bound_to 10752
  152.9799  135.5975  154.3837 H   0  0  0  0  0  0  0  0  0  0  0  0  # atno 10764 bound_to 10752
  154.3675  135.2841  155.2264 H   0  0  0  0  0  0  0  0  0  0  0  0  # atno 10765 bound_to 10752
  140.8680  133.7741  156.0152 H   0  0  0  0  0  0  0  0  0  0  0  0  # atno 11005 bound_to 11000
  145.4193  141.0405  143.2973 LP  0  0  0  0  0  0  0  0  0  0  0  0  # atno 17320 bound_to 7965
  144.8247  139.5731  143.6971 LP  0  0  0  0  0  0  0  0  0  0  0  0  # atno 17321 bound_to 7965
  139.4785  144.5335  151.8632 LP  0  0  0  0  0  0  0  0  0  0  0  0  # atno 17342 bound_to 10162
  140.4427  144.1963  150.5892 LP  0  0  0  0  0  0  0  0  0  0  0  0  # atno 17343 bound_to 10162
  157.2423  131.0528  151.2429 LP  0  0  0  0  0  0  0  0  0  0  0  0  # atno 17370 bound_to 10713
  157.3608  130.7130  149.6501 LP  0  0  0  0  0  0  0  0  0  0  0  0  # atno 17371 bound_to 10713
  140.8606  134.2845  157.5236 LP  0  0  0  0  0  0  0  0  0  0  0  0  # atno 17394 bound_to 11000
  139.8710  134.9516  156.4090 LP  0  0  0  0  0  0  0  0  0  0  0  0  # atno 17395 bound_to 11000

$$$$
