AV-unprocessed.smi:2400|AV-procd|sdf|9502|dock4
  -GOLD-   2272013133D 1   1.00000     0.00000
 Structure written by MMmdl.
 44 45  0  0  0  0  0  0  0  0  1 V2000
  151.3461  137.9607  154.2023 C   0  0  0  0  0  0  0  0  0  0  0  0
  150.5537  138.3986  155.2927 O   0  0  0  0  0  0  0  0  0  0  0  0
  149.7349  139.4272  154.9846 C   0  0  0  0  0  0  0  0  0  0  0  0
  148.6617  139.5202  154.1420 C   0  0  0  0  0  0  0  0  0  0  0  0
  148.0619  138.5334  153.3184 N   0  0  0  0  0  0  0  0  0  0  0  0
  146.7534  138.2596  153.1990 C   0  0  0  0  0  0  0  0  0  0  0  0
  145.8543  138.8201  153.8247 O   0  0  0  0  0  0  0  0  0  0  0  0
  146.5425  137.2717  152.3179 N   0  0  0  0  0  0  0  0  0  0  0  0
  145.2339  136.7272  151.9551 C   0  0  1  0  0  0  0  0  0  0  0  0
  145.3963  135.5900  150.9266 C   0  0  0  0  0  0  0  0  0  0  0  0
  144.8220  134.3328  151.5755 C   0  0  0  0  0  0  0  0  0  0  0  0
  143.8002  134.8625  152.5761 C   0  0  0  0  0  0  0  0  0  0  0  0
  144.4296  136.1414  153.1580 C   0  0  0  0  0  0  0  0  0  0  0  0
  145.3143  135.7620  154.3707 C   0  0  0  0  0  0  0  0  0  0  0  0
  143.3390  137.1207  153.6318 C   0  0  0  0  0  0  0  0  0  0  0  0
  148.1870  140.8523  154.2960 C   0  0  0  0  0  0  0  0  0  0  0  0
  147.0140  141.5261  153.6437 C   0  0  0  0  0  0  0  0  0  0  0  0
  148.9489  141.5382  155.1407 N   0  0  0  0  0  0  0  0  0  0  0  0
  149.9022  140.6701  155.5585 N   0  0  0  0  0  0  0  0  0  0  0  0
  150.8993  141.1111  156.5121 C   0  0  0  0  0  0  0  0  0  0  0  0
  151.9912  137.1433  154.5242 H   0  0  0  0  0  0  0  0  0  0  0  0
  151.9829  138.7595  153.8203 H   0  0  0  0  0  0  0  0  0  0  0  0
  150.7191  137.5951  153.3880 H   0  0  0  0  0  0  0  0  0  0  0  0
  148.6988  137.9275  152.8225 H   0  0  0  0  0  0  0  0  0  0  0  0
  147.3442  136.8651  151.8588 H   0  0  0  0  0  0  0  0  0  0  0  0
  144.6493  137.5105  151.4677 H   0  0  0  0  0  0  0  0  0  0  0  0
  144.8232  135.8304  150.0300 H   0  0  0  0  0  0  0  0  0  0  0  0
  146.4294  135.4369  150.6107 H   0  0  0  0  0  0  0  0  0  0  0  0
  144.3811  133.6515  150.8472 H   0  0  0  0  0  0  0  0  0  0  0  0
  145.6103  133.7916  152.1001 H   0  0  0  0  0  0  0  0  0  0  0  0
  142.8805  135.1054  152.0411 H   0  0  0  0  0  0  0  0  0  0  0  0
  143.5422  134.1243  153.3367 H   0  0  0  0  0  0  0  0  0  0  0  0
  144.7298  135.2555  155.1398 H   0  0  0  0  0  0  0  0  0  0  0  0
  145.7564  136.6421  154.8387 H   0  0  0  0  0  0  0  0  0  0  0  0
  146.1278  135.0934  154.0881 H   0  0  0  0  0  0  0  0  0  0  0  0
  142.7281  136.6801  154.4202 H   0  0  0  0  0  0  0  0  0  0  0  0
  142.6702  137.4030  152.8179 H   0  0  0  0  0  0  0  0  0  0  0  0
  143.7772  138.0374  154.0277 H   0  0  0  0  0  0  0  0  0  0  0  0
  146.4772  140.8443  152.9844 H   0  0  0  0  0  0  0  0  0  0  0  0
  147.3358  142.3787  153.0451 H   0  0  0  0  0  0  0  0  0  0  0  0
  146.3067  141.8897  154.3895 H   0  0  0  0  0  0  0  0  0  0  0  0
  151.7264  140.4019  156.5484 H   0  0  0  0  0  0  0  0  0  0  0  0
  150.4508  141.1846  157.5029 H   0  0  0  0  0  0  0  0  0  0  0  0
  151.2872  142.0877  156.2204 H   0  0  0  0  0  0  0  0  0  0  0  0
  1  2  1  0  0  0  0
  1 21  1  0  0  0  0
  1 22  1  0  0  0  0
  1 23  1  0  0  0  0
  2  3  1  0  0  0  0
  3 19  1  0  0  0  0
  3  4  2  0  0  0  0
  4  5  1  0  0  0  0
  4 16  1  0  0  0  0
  5  6  1  0  0  0  0
  5 24  1  0  0  0  0
  6  7  2  0  0  0  0
  6  8  1  0  0  0  0
  8  9  1  0  0  0  0
  8 25  1  0  0  0  0
  9 13  1  0  0  0  0
  9 10  1  0  0  0  0
  9 26  1  0  0  0  0
 10 11  1  0  0  0  0
 10 27  1  0  0  0  0
 10 28  1  0  0  0  0
 11 12  1  0  0  0  0
 11 29  1  0  0  0  0
 11 30  1  0  0  0  0
 12 13  1  0  0  0  0
 12 31  1  0  0  0  0
 12 32  1  0  0  0  0
 13 14  1  0  0  0  0
 13 15  1  0  0  0  0
 14 33  1  0  0  0  0
 14 34  1  0  0  0  0
 14 35  1  0  0  0  0
 15 36  1  0  0  0  0
 15 37  1  0  0  0  0
 15 38  1  0  0  0  0
 16 17  1  0  0  0  0
 16 18  2  0  0  0  0
 17 39  1  0  0  0  0
 17 40  1  0  0  0  0
 17 41  1  0  0  0  0
 18 19  1  0  0  0  0
 19 20  1  0  0  0  0
 20 42  1  0  0  0  0
 20 43  1  0  0  0  0
 20 44  1  0  0  0  0
M  END
> <s_m_source_file>
AV-unprocessed.smi

> <i_m_source_file_index>
2400

> <i_lp_mmshare_version>
43012

> <i_f3d_flags>
0

> <s_epik_input>
W0NIM11uMW5jKFtDSDNdKWMoYzFPW0NIM10pW05IXUMoPU8pW05IXVtDQEBIXShDMihbQ0gzXSlbQ0gzXSlbQ0gyXVtDSDJdW0NIMl0y

> <s_epik_cmdline>
J2VwaWtfcHl0aG9uJywgJy1waCcsICc3LjAnLCAnLXRuJywgJzgnLCAnLW1hJywgJzIwMCcsICctbWV0YWxfYmluZGluZycsICctaW1hZScsICc8aW5maWxlLm1hZT4nLCAnLW9tYWUnLCAnPG91dGZpbGUubWFlPic=

> <r_lp_tautomer_probability>
1

> <r_epik_Ionization_Penalty>
0.000423583

> <r_epik_Ionization_Penalty_Charging>
0

> <r_epik_Ionization_Penalty_Neutral>
0.000423583

> <r_epik_State_Penalty>
-0

> <r_epik_Charging_Adjusted_Penalty>
0

> <i_epik_Tot_Q>
0

> <i_epik_Tot_abs_Q>
0

> <r_epik_Metal_State_Penalty>
-0

> <b_epik_Metal_Only>
0

> <s_lp_Force_Field>
OPLS_2005

> <r_lp_Energy>
29.9284

> <b_lp_Chiralities_Consistent>
1

> <s_lp_Variant>
AV-unprocessed.smi:2400-2

> <Gold.Version>
5.8.1

> <Gold.Id.Protein>
6NUR|6NUR_protein|mol2

> <Gold.PLP.Fitness>
37.5137

> <Gold.PLP.PLP>
-32.5003

> <Gold.PLP.part.hbond>
-3.0000

> <Gold.PLP.part.metal>
0.0000

> <Gold.PLP.part.buried>
-4.3360

> <Gold.PLP.part.nonpolar>
-27.0175

> <Gold.PLP.part.repulsive>
1.1521

> <Gold.PLP.ligand.clash>
0.0000

> <Gold.PLP.ligand.torsion>
0.4106

> <Gold.PLP.Chemscore.Hbond>
1.9440

> <Gold.PLP.Chemscore.CHOScore>
0.0000

> <Gold.PLP.Chemscore.Metal>
0.0000

> <Gold.Chemscore.Hbonds>
donor molecule, donor type, donor heavy atom, donor atom, acceptor molecule, acceptor atom, score
      L1  H     5    24       P1  7948  0.96
      L1  H     8    25       P1  7948  1.00

> <Gold.PLP.Chemscore.Internal.Correction>
0.0026

> <Gold.Rescore>
     Score         DG    S(hbond)    S(metal)    S(lipo)     H(rot)  DE(clash)    DE(int)     intcor
     15.42     -15.93       1.87        0.00      62.55       1.21       0.02       0.49       ----

> <Gold.Chemscore.Fitness>
15.4199

> <Gold.Chemscore.DG>
-15.9306

> <Gold.Chemscore.ZeroCoef>
-5.4800

> <Gold.Chemscore.Hbond>
1.8666

> <Gold.Chemscore.Metal>
0.0000

> <Gold.Chemscore.Lipo>
62.5521

> <Gold.Chemscore.Internal_Hbond>
0.0000

> <Gold.Chemscore.DEClash>
0.0247

> <Gold.Chemscore.DEInternal>
0.4860

> <Gold.Chemscore.Rot>
1.2119

> <Gold.Chemscore.Internal.Correction>
   9.000000E+99

> <Gold.Chemscore.Hbonds>
donor molecule, donor type, donor heavy atom, donor atom, acceptor molecule, acceptor atom, score
      L1  H     5    24       P1  7948  0.91
      L1  H     8    25       P1  7948  0.98

> <Gold.Chemscore.Hbond.Weighted>
-6.2344

> <Gold.Chemscore.Metal.Weighted>
-0.0000

> <Gold.Chemscore.Lipo.Weighted>
-7.3186

> <Gold.Chemscore.Internal_Hbond.Weighted>
0.0000

> <Gold.Chemscore.DEClash.Weighted>
0.0247

> <Gold.Chemscore.DEInternal.Weighted>
0.4860

> <Gold.Chemscore.Rot.Weighted>
3.1024

> <Gold.Chemscore.Internal.Correction.Weighted>
   9.000000E+99

> <Gold.Protein.RotatedTorsions>
[ 6907 6896 6895 6894 ] final   29.71 input  -60.11 | X-H torsion
[ 7974 7965 7964 7962 ] final   89.39 input  175.53 | X-H torsion
[ 8008 7997 7996 7995 ] final  110.82 input   59.86 | X-H torsion
[ 10167 10162 10161 10158 ] final   -8.34 input  -65.29 | X-H torsion
[ 10718 10713 10712 10709 ] final  -90.26 input   66.30 | X-H torsion
[ 10763 10752 10751 10750 ] final  -19.82 input  -60.55 | X-H torsion
[ 11005 11000 10999 10996 ] final -146.68 input  -57.11 | X-H torsion

> <Gold.Protein.ActiveResidues>
 VAL166  LYS551  ARG553  GLY616  TRP617  ASP618  TYR619  PRO620  LYS621  CYS622 
 ASP623  PHE694  ASN695  SER759  ASP760  ASP761  ALA762  ILE779  LEU786  VAL792 
 PHE793  MET794  SER795  GLU796  ALA797  LYS798  CYS799  TRP800  GLU811  SER814 

> <Gold.Protein.RotatedAtoms>
  152.0355  134.9742  160.0572 H   0  0  0  0  0  0  0  0  0  0  0  0  # atno 6907 bound_to 6896
  152.1202  133.4344  159.4680 H   0  0  0  0  0  0  0  0  0  0  0  0  # atno 6908 bound_to 6896
  150.6848  134.2463  159.4536 H   0  0  0  0  0  0  0  0  0  0  0  0  # atno 6909 bound_to 6896
  145.5330  139.2284  143.2608 H   0  0  0  0  0  0  0  0  0  0  0  0  # atno 7974 bound_to 7965
  156.2080  140.3031  155.9669 H   0  0  0  0  0  0  0  0  0  0  0  0  # atno 8008 bound_to 7997
  155.2794  140.0437  157.3031 H   0  0  0  0  0  0  0  0  0  0  0  0  # atno 8009 bound_to 7997
  154.5660  140.2334  155.8272 H   0  0  0  0  0  0  0  0  0  0  0  0  # atno 8010 bound_to 7997
  140.7056  143.5980  150.8826 H   0  0  0  0  0  0  0  0  0  0  0  0  # atno 10167 bound_to 10162
  155.9987  130.4903  150.5295 H   0  0  0  0  0  0  0  0  0  0  0  0  # atno 10718 bound_to 10713
  153.6107  135.6996  153.5348 H   0  0  0  0  0  0  0  0  0  0  0  0  # atno 10763 bound_to 10752
  153.3019  135.4126  155.1259 H   0  0  0  0  0  0  0  0  0  0  0  0  # atno 10764 bound_to 10752
  154.8564  135.3651  154.5646 H   0  0  0  0  0  0  0  0  0  0  0  0  # atno 10765 bound_to 10752
  140.7794  134.3096  157.5050 H   0  0  0  0  0  0  0  0  0  0  0  0  # atno 11005 bound_to 11000
  146.2032  140.6147  142.9093 LP  0  0  0  0  0  0  0  0  0  0  0  0  # atno 17320 bound_to 7965
  144.7616  140.5435  143.6731 LP  0  0  0  0  0  0  0  0  0  0  0  0  # atno 17321 bound_to 7965
  139.9705  143.6062  152.2975 LP  0  0  0  0  0  0  0  0  0  0  0  0  # atno 17342 bound_to 10162
  139.6647  144.7662  151.1895 LP  0  0  0  0  0  0  0  0  0  0  0  0  # atno 17343 bound_to 10162
  157.3246  131.0688  151.1906 LP  0  0  0  0  0  0  0  0  0  0  0  0  # atno 17370 bound_to 10713
  157.2808  130.6749  149.6065 LP  0  0  0  0  0  0  0  0  0  0  0  0  # atno 17371 bound_to 10713
  139.8744  134.9309  156.3515 LP  0  0  0  0  0  0  0  0  0  0  0  0  # atno 17394 bound_to 11000
  140.9497  133.7459  156.0255 LP  0  0  0  0  0  0  0  0  0  0  0  0  # atno 17395 bound_to 11000

$$$$
