AV-unprocessed.smi:2065|AV-procd|sdf|8418|dock1
  -GOLD-   2272011113D 1   1.00000     0.00000
 Structure written by MMmdl.
 38 39  0  0  0  0  0  0  0  0  1 V2000
  150.5233  133.8557  156.0003 C   0  0  0  0  0  0  0  0  0  0  0  0
  150.6326  135.1334  156.7789 C   0  0  0  0  0  0  0  0  0  0  0  0
  151.5973  136.1721  156.6297 C   0  0  0  0  0  0  0  0  0  0  0  0
  151.2181  137.0743  157.5858 C   0  0  0  0  0  0  0  0  0  0  0  0
  151.7809  138.2701  157.9050 N   0  0  0  0  0  0  0  0  0  0  0  0
  151.1762  139.4471  158.1422 C   0  0  0  0  0  0  0  0  0  0  0  0
  149.9617  139.6467  158.1084 O   0  0  0  0  0  0  0  0  0  0  0  0
  152.0742  140.4006  158.4298 N   0  0  0  0  0  0  0  0  0  0  0  0
  151.7710  141.8037  158.7172 C   0  0  1  0  0  0  0  0  0  0  0  0
  153.0528  142.5452  159.1587 C   0  0  0  0  0  0  0  0  0  0  0  0
  152.7877  143.8147  159.9841 C   0  0  0  0  0  0  0  0  0  0  0  0
  152.0256  144.9213  159.2398 C   0  0  0  0  0  0  0  0  0  0  0  0
  150.5856  144.5330  158.8622 C   0  0  0  0  0  0  0  0  0  0  0  0
  150.5257  143.6881  157.6760 N   0  0  0  0  0  0  0  0  0  0  0  0
  151.0396  142.4574  157.5294 C   0  0  0  0  0  0  0  0  0  0  0  0
  150.9347  141.8607  156.4577 O   0  0  0  0  0  0  0  0  0  0  0  0
  150.1100  136.5876  158.2426 N   0  0  0  0  0  0  0  0  0  0  0  0
  149.3501  137.1776  159.3273 C   0  0  0  0  0  0  0  0  0  0  0  0
  149.7507  135.3868  157.7393 N   0  0  0  0  0  0  0  0  0  0  0  0
  151.3543  133.7470  155.3031 H   0  0  0  0  0  0  0  0  0  0  0  0
  149.5996  133.8270  155.4219 H   0  0  0  0  0  0  0  0  0  0  0  0
  150.5308  132.9895  156.6622 H   0  0  0  0  0  0  0  0  0  0  0  0
  152.4200  136.2247  155.9327 H   0  0  0  0  0  0  0  0  0  0  0  0
  152.7878  138.2659  157.9756 H   0  0  0  0  0  0  0  0  0  0  0  0
  153.0518  140.1477  158.4291 H   0  0  0  0  0  0  0  0  0  0  0  0
  151.0644  141.8099  159.5495 H   0  0  0  0  0  0  0  0  0  0  0  0
  153.6640  141.8832  159.7736 H   0  0  0  0  0  0  0  0  0  0  0  0
  153.6654  142.7856  158.2885 H   0  0  0  0  0  0  0  0  0  0  0  0
  152.2481  143.5499  160.8943 H   0  0  0  0  0  0  0  0  0  0  0  0
  153.7456  144.2171  160.3150 H   0  0  0  0  0  0  0  0  0  0  0  0
  151.9843  145.7957  159.8901 H   0  0  0  0  0  0  0  0  0  0  0  0
  152.5793  145.2349  158.3536 H   0  0  0  0  0  0  0  0  0  0  0  0
  150.0737  144.0537  159.6978 H   0  0  0  0  0  0  0  0  0  0  0  0
  150.0205  145.4377  158.6366 H   0  0  0  0  0  0  0  0  0  0  0  0
  150.0521  144.0822  156.8759 H   0  0  0  0  0  0  0  0  0  0  0  0
  148.9581  138.1461  159.0151 H   0  0  0  0  0  0  0  0  0  0  0  0
  149.9977  137.3173  160.1932 H   0  0  0  0  0  0  0  0  0  0  0  0
  148.5162  136.5329  159.6088 H   0  0  0  0  0  0  0  0  0  0  0  0
  1  2  1  0  0  0  0
  1 20  1  0  0  0  0
  1 21  1  0  0  0  0
  1 22  1  0  0  0  0
  2 19  2  0  0  0  0
  2  3  1  0  0  0  0
  3  4  2  0  0  0  0
  3 23  1  0  0  0  0
  4  5  1  0  0  0  0
  4 17  1  0  0  0  0
  5  6  1  0  0  0  0
  5 24  1  0  0  0  0
  6  7  2  0  0  0  0
  6  8  1  0  0  0  0
  8  9  1  0  0  0  0
  8 25  1  0  0  0  0
  9 15  1  0  0  0  0
  9 10  1  0  0  0  0
  9 26  1  0  0  0  0
 10 11  1  0  0  0  0
 10 27  1  0  0  0  0
 10 28  1  0  0  0  0
 11 12  1  0  0  0  0
 11 29  1  0  0  0  0
 11 30  1  0  0  0  0
 12 13  1  0  0  0  0
 12 31  1  0  0  0  0
 12 32  1  0  0  0  0
 13 14  1  0  0  0  0
 13 33  1  0  0  0  0
 13 34  1  0  0  0  0
 14 15  1  0  0  0  0
 14 35  1  0  0  0  0
 15 16  2  0  0  0  0
 17 18  1  0  0  0  0
 17 19  1  0  0  0  0
 18 36  1  0  0  0  0
 18 37  1  0  0  0  0
 18 38  1  0  0  0  0
M  END
> <s_m_source_file>
AV-unprocessed.smi

> <i_m_source_file_index>
2065

> <i_lp_mmshare_version>
43012

> <i_f3d_flags>
0

> <s_epik_input>
W0NIM11jMVtjSF1jKG4objEpW0NIM10pW05IXUMoPU8pW05IXVtDQEBIXTJbQ0gyXVtDSDJdW0NIMl1bQ0gyXVtOSF1DMj1P

> <s_epik_cmdline>
J2VwaWtfcHl0aG9uJywgJy1waCcsICc3LjAnLCAnLXRuJywgJzgnLCAnLW1hJywgJzIwMCcsICctbWV0YWxfYmluZGluZycsICctaW1hZScsICc8aW5maWxlLm1hZT4nLCAnLW9tYWUnLCAnPG91dGZpbGUubWFlPic=

> <r_lp_tautomer_probability>
1

> <r_epik_Ionization_Penalty>
8.1752e-05

> <r_epik_Ionization_Penalty_Charging>
0

> <r_epik_Ionization_Penalty_Neutral>
8.1752e-05

> <r_epik_State_Penalty>
-0

> <r_epik_Charging_Adjusted_Penalty>
0

> <i_epik_Tot_Q>
0

> <i_epik_Tot_abs_Q>
0

> <r_epik_Metal_State_Penalty>
-0

> <b_epik_Metal_Only>
0

> <s_lp_Force_Field>
OPLS_2005

> <r_lp_Energy>
11.1948

> <b_lp_Chiralities_Consistent>
1

> <s_lp_Variant>
AV-unprocessed.smi:2065-2

> <Gold.Version>
5.8.1

> <Gold.Id.Protein>
6NUR|6NUR_protein|mol2

> <Gold.PLP.Fitness>
33.2341

> <Gold.PLP.PLP>
-30.2110

> <Gold.PLP.part.hbond>
-1.6898

> <Gold.PLP.part.metal>
0.0000

> <Gold.PLP.part.buried>
-5.6094

> <Gold.PLP.part.nonpolar>
-23.9982

> <Gold.PLP.part.repulsive>
0.2471

> <Gold.PLP.ligand.clash>
0.0000

> <Gold.PLP.ligand.torsion>
0.3924

> <Gold.PLP.Chemscore.Hbond>
1.2603

> <Gold.PLP.Chemscore.CHOScore>
0.0000

> <Gold.PLP.Chemscore.Metal>
0.0000

> <Gold.Chemscore.Hbonds>
donor molecule, donor type, donor heavy atom, donor atom, acceptor molecule, acceptor atom, score
      L1  H    14    35       P1  8028  1.00
      P1  H  6896  6907       L1    19  0.34

> <Gold.PLP.Chemscore.Internal.Correction>
0.0271

> <Gold.Rescore>
     Score         DG    S(hbond)    S(metal)    S(lipo)     H(rot)  DE(clash)    DE(int)     intcor
     13.58     -14.89       0.98        0.00      74.20       1.00       0.01       1.29       ----

> <Gold.Chemscore.Fitness>
13.5833

> <Gold.Chemscore.DG>
-14.8906

> <Gold.Chemscore.ZeroCoef>
-5.4800

> <Gold.Chemscore.Hbond>
0.9848

> <Gold.Chemscore.Metal>
0.0000

> <Gold.Chemscore.Lipo>
74.2009

> <Gold.Chemscore.Internal_Hbond>
0.0000

> <Gold.Chemscore.DEClash>
0.0132

> <Gold.Chemscore.DEInternal>
1.2941

> <Gold.Chemscore.Rot>
1.0000

> <Gold.Chemscore.Internal.Correction>
   9.000000E+99

> <Gold.Chemscore.Hbonds>
donor molecule, donor type, donor heavy atom, donor atom, acceptor molecule, acceptor atom, score
      L1  H    14    35       P1  8028  0.96
      P1  H  6896  6907       L1    19  0.01

> <Gold.Chemscore.Hbond.Weighted>
-3.2891

> <Gold.Chemscore.Metal.Weighted>
-0.0000

> <Gold.Chemscore.Lipo.Weighted>
-8.6815

> <Gold.Chemscore.Internal_Hbond.Weighted>
0.0000

> <Gold.Chemscore.DEClash.Weighted>
0.0132

> <Gold.Chemscore.DEInternal.Weighted>
1.2941

> <Gold.Chemscore.Rot.Weighted>
2.5600

> <Gold.Chemscore.Internal.Correction.Weighted>
   9.000000E+99

> <Gold.Protein.RotatedTorsions>
[ 6907 6896 6895 6894 ] final  -90.62 input  -60.11 | X-H torsion
[ 7974 7965 7964 7962 ] final   78.02 input  175.53 | X-H torsion
[ 8008 7997 7996 7995 ] final  134.15 input   59.86 | X-H torsion
[ 10167 10162 10161 10158 ] final   70.98 input  -65.29 | X-H torsion
[ 10718 10713 10712 10709 ] final   -8.22 input   66.30 | X-H torsion
[ 10763 10752 10751 10750 ] final  170.77 input  -60.55 | X-H torsion
[ 11005 11000 10999 10996 ] final  129.21 input  -57.11 | X-H torsion

> <Gold.Protein.ActiveResidues>
 VAL166  LYS551  ARG553  GLY616  TRP617  ASP618  TYR619  PRO620  LYS621  CYS622 
 ASP623  PHE694  ASN695  SER759  ASP760  ASP761  ALA762  ILE779  LEU786  VAL792 
 PHE793  MET794  SER795  GLU796  ALA797  LYS798  CYS799  TRP800  GLU811  SER814 

> <Gold.Protein.RotatedAtoms>
  150.6883  134.2403  159.4469 H   0  0  0  0  0  0  0  0  0  0  0  0  # atno 6907 bound_to 6896
  152.0348  134.9744  160.0582 H   0  0  0  0  0  0  0  0  0  0  0  0  # atno 6908 bound_to 6896
  152.1269  133.4350  159.4739 H   0  0  0  0  0  0  0  0  0  0  0  0  # atno 6909 bound_to 6896
  145.6825  139.2528  143.1806 H   0  0  0  0  0  0  0  0  0  0  0  0  # atno 7974 bound_to 7965
  156.2997  140.2503  156.3369 H   0  0  0  0  0  0  0  0  0  0  0  0  # atno 8008 bound_to 7997
  154.9091  140.0404  157.1955 H   0  0  0  0  0  0  0  0  0  0  0  0  # atno 8009 bound_to 7997
  154.8423  140.2893  155.5656 H   0  0  0  0  0  0  0  0  0  0  0  0  # atno 8010 bound_to 7997
  140.0510  144.5311  150.7363 H   0  0  0  0  0  0  0  0  0  0  0  0  # atno 10167 bound_to 10162
  156.7058  130.5107  149.5905 H   0  0  0  0  0  0  0  0  0  0  0  0  # atno 10718 bound_to 10713
  154.4024  135.2755  155.2088 H   0  0  0  0  0  0  0  0  0  0  0  0  # atno 10763 bound_to 10752
  154.4109  135.6022  153.5955 H   0  0  0  0  0  0  0  0  0  0  0  0  # atno 10764 bound_to 10752
  152.9831  135.5949  154.4293 H   0  0  0  0  0  0  0  0  0  0  0  0  # atno 10765 bound_to 10752
  139.9603  134.9604  156.9114 H   0  0  0  0  0  0  0  0  0  0  0  0  # atno 11005 bound_to 11000
  146.0952  140.7609  142.9576 LP  0  0  0  0  0  0  0  0  0  0  0  0  # atno 17320 bound_to 7965
  144.7021  140.3700  143.7147 LP  0  0  0  0  0  0  0  0  0  0  0  0  # atno 17321 bound_to 7965
  140.7216  143.2595  151.4258 LP  0  0  0  0  0  0  0  0  0  0  0  0  # atno 17342 bound_to 10162
  139.5953  144.1411  152.2136 LP  0  0  0  0  0  0  0  0  0  0  0  0  # atno 17343 bound_to 10162
  156.1696  130.6428  151.0821 LP  0  0  0  0  0  0  0  0  0  0  0  0  # atno 17370 bound_to 10713
  157.6955  131.0795  150.6981 LP  0  0  0  0  0  0  0  0  0  0  0  0  # atno 17371 bound_to 10713
  140.5516  134.0621  155.7371 LP  0  0  0  0  0  0  0  0  0  0  0  0  # atno 17394 bound_to 11000
  141.1279  133.9352  157.2597 LP  0  0  0  0  0  0  0  0  0  0  0  0  # atno 17395 bound_to 11000

$$$$
