AV-unprocessed.smi:735|AV-procd|sdf|3532|dock1
  -GOLD-   22720 0523D 1   1.00000     0.00000
 Structure written by MMmdl.
 16 16  0  0  0  0  0  0  0  0  3 V2000
  152.1493  136.9391  155.8064 O   0  0  0  0  0  0  0  0  0  0  0  0
  152.0277  138.0734  155.2916 C   0  0  0  0  0  0  0  0  0  0  0  0
  152.9796  138.8211  154.9724 O   0  5  0  0  0  0  0  0  0  0  0  0
  150.6041  138.6172  155.0962 C   0  0  0  0  0  0  0  0  0  0  0  0
  150.4213  138.8441  153.7929 F   0  0  0  0  0  0  0  0  0  0  0  0
  149.7215  137.6773  155.4460 F   0  0  0  0  0  0  0  0  0  0  0  0
  150.4040  139.9163  155.8790 C   0  0  0  0  0  0  0  0  0  0  0  0
  150.6270  140.0076  157.2415 C   0  0  0  0  0  0  0  0  0  0  0  0
  150.5273  141.1025  158.0254 N   0  5  0  0  0  0  0  0  0  0  0  0
  150.1830  142.2654  157.4021 C   0  0  0  0  0  0  0  0  0  0  0  0
  150.0629  143.3418  157.9834 O   0  0  0  0  0  0  0  0  0  0  0  0
  149.9550  142.2511  156.0599 N   0  0  0  0  0  0  0  0  0  0  0  0
  150.0253  141.1788  155.2238 C   0  0  0  0  0  0  0  0  0  0  0  0
  149.7719  141.3097  154.0272 O   0  0  0  0  0  0  0  0  0  0  0  0
  149.6988  143.1318  155.6389 H   0  0  0  0  0  0  0  0  0  0  0  0
  150.9390  139.0805  157.7686 H   0  0  0  0  0  0  0  0  0  0  0  0
  1  2  2  0  0  0  0
  2  3  1  0  0  0  0
  2  4  1  0  0  0  0
  4  5  1  0  0  0  0
  4  6  1  0  0  0  0
  4  7  1  0  0  0  0
  7 13  1  0  0  0  0
  7  8  2  0  0  0  0
  8  9  1  0  0  0  0
  8 16  1  0  0  0  0
  9 10  1  0  0  0  0
 10 11  2  0  0  0  0
 10 12  1  0  0  0  0
 12 15  1  0  0  0  0
 12 13  1  0  0  0  0
 13 14  2  0  0  0  0
M  CHG  1   3  -1
M  CHG  1   9  -1
M  END
> <s_m_source_file>
AV-unprocessed.smi

> <i_m_source_file_index>
735

> <i_lp_mmshare_version>
43012

> <i_f3d_flags>
0

> <s_epik_input>
Tz1DKFtPSF0pQyhGKShGKWMxW2NIXVtuSF1jKD1PKVtuSF1jMT1P

> <s_epik_cmdline>
J2VwaWtfcHl0aG9uJywgJy1waCcsICc3LjAnLCAnLXRuJywgJzgnLCAnLW1hJywgJzIwMCcsICctbWV0YWxfYmluZGluZycsICctaW1hZScsICc8aW5maWxlLm1hZT4nLCAnLW9tYWUnLCAnPG91dGZpbGUubWFlPic=

> <r_lp_tautomer_probability>
0.998954

> <r_epik_Ionization_Penalty>
1.12544

> <r_epik_Ionization_Penalty_Charging>
4.09586e-06

> <r_epik_Ionization_Penalty_Neutral>
1.12544

> <r_epik_State_Penalty>
0.173947

> <r_epik_Charging_Adjusted_Penalty>
0.173951

> <i_epik_Tot_Q>
-2

> <i_epik_Tot_abs_Q>
2

> <r_epik_Metal_State_Penalty>
0.0317114

> <b_epik_Metal_Only>
0

> <s_lp_Force_Field>
OPLS_2005

> <r_lp_Energy>
15.2406

> <b_lp_Chiralities_Consistent>
1

> <s_lp_Variant>
AV-unprocessed.smi:735-1

> <Gold.Version>
5.8.1

> <Gold.Id.Protein>
6NUR|6NUR_protein|mol2

> <Gold.PLP.Fitness>
36.2278

> <Gold.PLP.PLP>
-20.2722

> <Gold.PLP.part.hbond>
-4.8539

> <Gold.PLP.part.metal>
0.0000

> <Gold.PLP.part.buried>
-3.4046

> <Gold.PLP.part.nonpolar>
-13.3746

> <Gold.PLP.part.repulsive>
1.0410

> <Gold.PLP.ligand.clash>
0.0000

> <Gold.PLP.ligand.torsion>
0.0719

> <Gold.PLP.Chemscore.Hbond>
5.3469

> <Gold.PLP.Chemscore.CHOScore>
0.0000

> <Gold.PLP.Chemscore.Metal>
0.0000

> <Gold.Chemscore.Hbonds>
donor molecule, donor type, donor heavy atom, donor atom, acceptor molecule, acceptor atom, score
      L1  H    12    15       P1  8028  1.00
      P1  H  7989  7998       L1    14  0.21
      P1  H  7997  8010       L1     3  1.07
      P1  H  8011  8017       L1    14  0.72
      P1  H 10752 10765       L1     1  1.70

> <Gold.PLP.Chemscore.Internal.Correction>
0.0586

> <Gold.Rescore>
     Score         DG    S(hbond)    S(metal)    S(lipo)     H(rot)  DE(clash)    DE(int)     intcor
     12.44     -14.47       3.60        0.00      13.50       1.81       0.18       1.85       ----

> <Gold.Chemscore.Fitness>
12.4406

> <Gold.Chemscore.DG>
-14.4695

> <Gold.Chemscore.ZeroCoef>
-5.4800

> <Gold.Chemscore.Hbond>
3.6032

> <Gold.Chemscore.Metal>
0.0000

> <Gold.Chemscore.Lipo>
13.4979

> <Gold.Chemscore.Internal_Hbond>
0.0000

> <Gold.Chemscore.DEClash>
0.1800

> <Gold.Chemscore.DEInternal>
1.8489

> <Gold.Chemscore.Rot>
1.8064

> <Gold.Chemscore.Internal.Correction>
   9.000000E+99

> <Gold.Chemscore.Hbonds>
donor molecule, donor type, donor heavy atom, donor atom, acceptor molecule, acceptor atom, score
      L1  H    12    15       P1  8028  0.97
      P1  H  7989  7998       L1    14  0.02
      P1  H  7997  8010       L1     3  0.54
      P1  H  8011  8017       L1    14  0.68
      P1  H 10752 10765       L1     1  0.84

> <Gold.Chemscore.Hbond.Weighted>
-12.0347

> <Gold.Chemscore.Metal.Weighted>
-0.0000

> <Gold.Chemscore.Lipo.Weighted>
-1.5793

> <Gold.Chemscore.Internal_Hbond.Weighted>
0.0000

> <Gold.Chemscore.DEClash.Weighted>
0.1800

> <Gold.Chemscore.DEInternal.Weighted>
1.8489

> <Gold.Chemscore.Rot.Weighted>
4.6244

> <Gold.Chemscore.Internal.Correction.Weighted>
   9.000000E+99

> <Gold.Protein.RotatedTorsions>
[ 6907 6896 6895 6894 ] final  149.40 input  -60.11 | X-H torsion
[ 7974 7965 7964 7962 ] final  -75.38 input  175.53 | X-H torsion
[ 8008 7997 7996 7995 ] final   94.30 input   59.86 | X-H torsion
[ 10167 10162 10161 10158 ] final  -55.46 input  -65.29 | X-H torsion
[ 10718 10713 10712 10709 ] final -149.60 input   66.30 | X-H torsion
[ 10763 10752 10751 10750 ] final -142.12 input  -60.55 | X-H torsion
[ 11005 11000 10999 10996 ] final -102.53 input  -57.11 | X-H torsion

> <Gold.Protein.ActiveResidues>
 VAL166  LYS551  ARG553  GLY616  TRP617  ASP618  TYR619  PRO620  LYS621  CYS622 
 ASP623  PHE694  ASN695  SER759  ASP760  ASP761  ALA762  ILE779  LEU786  VAL792 
 PHE793  MET794  SER795  GLU796  ALA797  LYS798  CYS799  TRP800  GLU811  SER814 

> <Gold.Protein.RotatedAtoms>
  152.1285  133.4394  159.4709 H   0  0  0  0  0  0  0  0  0  0  0  0  # atno 6907 bound_to 6896
  150.6876  134.2449  159.4496 H   0  0  0  0  0  0  0  0  0  0  0  0  # atno 6908 bound_to 6896
  152.0331  134.9755  160.0623 H   0  0  0  0  0  0  0  0  0  0  0  0  # atno 6909 bound_to 6896
  145.6268  140.9348  143.1109 H   0  0  0  0  0  0  0  0  0  0  0  0  # atno 7974 bound_to 7965
  156.0564  140.3301  155.7410 H   0  0  0  0  0  0  0  0  0  0  0  0  # atno 8008 bound_to 7997
  155.5523  140.0611  157.2865 H   0  0  0  0  0  0  0  0  0  0  0  0  # atno 8009 bound_to 7997
  154.4460  140.1892  156.0687 H   0  0  0  0  0  0  0  0  0  0  0  0  # atno 8010 bound_to 7997
  140.6373  143.2489  151.5083 H   0  0  0  0  0  0  0  0  0  0  0  0  # atno 10167 bound_to 10162
  156.4353  130.8095  151.2323 H   0  0  0  0  0  0  0  0  0  0  0  0  # atno 10718 bound_to 10713
  154.8520  135.3505  154.5977 H   0  0  0  0  0  0  0  0  0  0  0  0  # atno 10763 bound_to 10752
  153.6586  135.6990  153.5189 H   0  0  0  0  0  0  0  0  0  0  0  0  # atno 10764 bound_to 10752
  153.2835  135.4256  155.1059 H   0  0  0  0  0  0  0  0  0  0  0  0  # atno 10765 bound_to 10752
  141.1185  133.8566  157.1372 H   0  0  0  0  0  0  0  0  0  0  0  0  # atno 11005 bound_to 11000
  144.7209  139.8033  143.7382 LP  0  0  0  0  0  0  0  0  0  0  0  0  # atno 17320 bound_to 7965
  146.1388  139.4440  143.0122 LP  0  0  0  0  0  0  0  0  0  0  0  0  # atno 17321 bound_to 7965
  139.5583  144.2219  152.1649 LP  0  0  0  0  0  0  0  0  0  0  0  0  # atno 17342 bound_to 10162
  140.1480  144.5141  150.6704 LP  0  0  0  0  0  0  0  0  0  0  0  0  # atno 17343 bound_to 10162
  157.7507  131.0185  150.3630 LP  0  0  0  0  0  0  0  0  0  0  0  0  # atno 17370 bound_to 10713
  156.3976  130.3909  149.6983 LP  0  0  0  0  0  0  0  0  0  0  0  0  # atno 17371 bound_to 10713
  140.0124  134.9982  157.0423 LP  0  0  0  0  0  0  0  0  0  0  0  0  # atno 17394 bound_to 11000
  140.4577  134.1517  155.7188 LP  0  0  0  0  0  0  0  0  0  0  0  0  # atno 17395 bound_to 11000

$$$$
