AV-unprocessed.smi:1692|AV-procd|sdf|6780|dock9
  -GOLD-   22720 7543D 1   1.00000     0.00000
 Structure written by MMmdl.
 46 47  0  0  0  0  0  0  0  0  2 V2000
  143.5644  144.7430  156.5838 C   0  0  0  0  0  0  0  0  0  0  0  0
  144.6023  143.6760  156.2187 C   0  0  2  0  0  0  0  0  0  0  0  0
  144.2619  142.9650  154.8929 C   0  0  0  0  0  0  0  0  0  0  0  0
  145.2316  141.8819  154.5987 N   0  3  1  0  0  0  0  0  0  0  0  0
  146.5328  142.3757  154.0738 C   0  0  0  0  0  0  0  0  0  0  0  0
  147.3725  141.2558  153.4366 C   0  0  0  0  0  0  0  0  0  0  0  0
  148.4490  140.7197  154.3948 C   0  0  0  0  0  0  0  0  0  0  0  0
  148.9563  141.7660  155.2751 N   0  0  0  0  0  0  0  0  0  0  0  0
  149.8770  141.5837  156.2331 C   0  0  0  0  0  0  0  0  0  0  0  0
  150.4042  140.4953  156.4660 O   0  0  0  0  0  0  0  0  0  0  0  0
  150.1367  142.7309  156.8846 N   0  0  0  0  0  0  0  0  0  0  0  0
  151.0492  142.9478  157.9515 C   0  0  0  0  0  0  0  0  0  0  0  0
  151.3443  144.3036  158.2194 C   0  0  0  0  0  0  0  0  0  0  0  0
  152.2384  144.6262  159.2586 C   0  0  0  0  0  0  0  0  0  0  0  0
  152.8157  143.5829  160.0040 C   0  0  0  0  0  0  0  0  0  0  0  0
  152.4692  142.2602  159.6720 C   0  0  0  0  0  0  0  0  0  0  0  0
  151.6125  141.9488  158.6761 N   0  0  0  0  0  0  0  0  0  0  0  0
  145.3352  140.9548  155.7548 C   0  0  0  0  0  0  0  0  0  0  0  0
  145.6268  141.7118  157.0687 C   0  0  2  0  0  0  0  0  0  0  0  0
  145.6093  140.7792  158.2847 C   0  0  0  0  0  0  0  0  0  0  0  0
  144.6309  142.7105  157.2644 O   0  0  0  0  0  0  0  0  0  0  0  0
  143.5099  145.5164  155.8171 H   0  0  0  0  0  0  0  0  0  0  0  0
  143.8197  145.2279  157.5264 H   0  0  0  0  0  0  0  0  0  0  0  0
  142.5706  144.3077  156.6922 H   0  0  0  0  0  0  0  0  0  0  0  0
  145.5783  144.1586  156.1467 H   0  0  0  0  0  0  0  0  0  0  0  0
  143.2676  142.5212  154.9634 H   0  0  0  0  0  0  0  0  0  0  0  0
  144.2196  143.6762  154.0670 H   0  0  0  0  0  0  0  0  0  0  0  0
  146.3406  143.1254  153.3052 H   0  0  0  0  0  0  0  0  0  0  0  0
  147.1003  142.8810  154.8552 H   0  0  0  0  0  0  0  0  0  0  0  0
  146.7283  140.4326  153.1299 H   0  0  0  0  0  0  0  0  0  0  0  0
  147.8490  141.6297  152.5293 H   0  0  0  0  0  0  0  0  0  0  0  0
  148.0326  139.9270  155.0169 H   0  0  0  0  0  0  0  0  0  0  0  0
  149.2727  140.2740  153.8344 H   0  0  0  0  0  0  0  0  0  0  0  0
  148.5734  142.6921  155.1516 H   0  0  0  0  0  0  0  0  0  0  0  0
  149.6208  143.5447  156.5843 H   0  0  0  0  0  0  0  0  0  0  0  0
  150.8916  145.0932  157.6375 H   0  0  0  0  0  0  0  0  0  0  0  0
  152.4762  145.6562  159.4790 H   0  0  0  0  0  0  0  0  0  0  0  0
  153.5056  143.7905  160.8085 H   0  0  0  0  0  0  0  0  0  0  0  0
  152.8904  141.4302  160.2194 H   0  0  0  0  0  0  0  0  0  0  0  0
  144.3836  140.4292  155.8466 H   0  0  0  0  0  0  0  0  0  0  0  0
  146.0859  140.1859  155.5783 H   0  0  0  0  0  0  0  0  0  0  0  0
  146.6069  142.1879  157.0227 H   0  0  0  0  0  0  0  0  0  0  0  0
  146.3646  139.9984  158.1910 H   0  0  0  0  0  0  0  0  0  0  0  0
  144.6388  140.2952  158.3980 H   0  0  0  0  0  0  0  0  0  0  0  0
  145.8150  141.3309  159.2022 H   0  0  0  0  0  0  0  0  0  0  0  0
  144.8280  141.3512  153.8399 H   0  0  0  0  0  0  0  0  0  0  0  0
  1  2  1  0  0  0  0
  1 22  1  0  0  0  0
  1 23  1  0  0  0  0
  1 24  1  0  0  0  0
  2 21  1  0  0  0  0
  2  3  1  0  0  0  0
  2 25  1  0  0  0  0
  3  4  1  0  0  0  0
  3 26  1  0  0  0  0
  3 27  1  0  0  0  0
  4  5  1  0  0  0  0
  4 18  1  0  0  0  0
  4 46  1  0  0  0  0
  5  6  1  0  0  0  0
  5 28  1  0  0  0  0
  5 29  1  0  0  0  0
  6  7  1  0  0  0  0
  6 30  1  0  0  0  0
  6 31  1  0  0  0  0
  7  8  1  0  0  0  0
  7 32  1  0  0  0  0
  7 33  1  0  0  0  0
  8  9  1  0  0  0  0
  8 34  1  0  0  0  0
  9 10  2  0  0  0  0
  9 11  1  0  0  0  0
 11 12  1  0  0  0  0
 11 35  1  0  0  0  0
 12 17  1  0  0  0  0
 12 13  2  0  0  0  0
 13 14  1  0  0  0  0
 13 36  1  0  0  0  0
 14 15  2  0  0  0  0
 14 37  1  0  0  0  0
 15 16  1  0  0  0  0
 15 38  1  0  0  0  0
 16 17  2  0  0  0  0
 16 39  1  0  0  0  0
 18 19  1  0  0  0  0
 18 40  1  0  0  0  0
 18 41  1  0  0  0  0
 19 20  1  0  0  0  0
 19 21  1  0  0  0  0
 19 42  1  0  0  0  0
 20 43  1  0  0  0  0
 20 44  1  0  0  0  0
 20 45  1  0  0  0  0
M  CHG  1   4   1
M  END
> <s_m_source_file>
AV-unprocessed.smi

> <i_m_source_file_index>
1692

> <i_lp_mmshare_version>
43012

> <i_f3d_flags>
0

> <s_epik_input>
W0NIM11bQ0BASF0xW0NIMl1OKFtDSDJdW0NASF0oTzEpW0NIM10pW0NIMl1bQ0gyXVtDSDJdW05IXUMoPU8pW05IXWMyW2NIXVtjSF1bY0hdW2NIXW4y

> <s_epik_cmdline>
J2VwaWtfcHl0aG9uJywgJy1waCcsICc3LjAnLCAnLXRuJywgJzgnLCAnLW1hJywgJzIwMCcsICctbWV0YWxfYmluZGluZycsICctaW1hZScsICc8aW5maWxlLm1hZT4nLCAnLW9tYWUnLCAnPG91dGZpbGUubWFlPic=

> <r_epik_Ionization_Penalty>
0.270538

> <r_epik_Ionization_Penalty_Charging>
0.270496

> <r_epik_Ionization_Penalty_Neutral>
4.22978e-05

> <r_epik_State_Penalty>
0.262618

> <r_epik_Charging_Adjusted_Penalty>
0.533114

> <i_epik_Tot_Q>
1

> <i_epik_Tot_abs_Q>
1

> <r_epik_Metal_State_Penalty>
0.262618

> <b_epik_Metal_Only>
0

> <s_lp_Force_Field>
OPLS_2005

> <r_lp_Energy>
18.3

> <b_lp_Chiralities_Consistent>
1

> <s_lp_Variant>
AV-unprocessed.smi:1692-3

> <Gold.Version>
5.8.1

> <Gold.Id.Protein>
6NUR|6NUR_protein|mol2

> <Gold.PLP.Fitness>
49.7229

> <Gold.PLP.PLP>
-39.4873

> <Gold.PLP.part.hbond>
-3.0000

> <Gold.PLP.part.metal>
0.0000

> <Gold.PLP.part.buried>
-6.9364

> <Gold.PLP.part.nonpolar>
-31.5642

> <Gold.PLP.part.repulsive>
0.3075

> <Gold.PLP.ligand.clash>
0.0000

> <Gold.PLP.ligand.torsion>
0.5470

> <Gold.PLP.Chemscore.Hbond>
3.7582

> <Gold.PLP.Chemscore.CHOScore>
0.0000

> <Gold.PLP.Chemscore.Metal>
0.0000

> <Gold.Chemscore.Hbonds>
donor molecule, donor type, donor heavy atom, donor atom, acceptor molecule, acceptor atom, score
      L1  H     4    46       P1 10175  2.00
      L1  H     8    34       P1  8028  0.73
      L1  H    11    35       P1  8028  1.00

> <Gold.PLP.Chemscore.Internal.Correction>
0.0551

> <Gold.Rescore>
     Score         DG    S(hbond)    S(metal)    S(lipo)     H(rot)  DE(clash)    DE(int)     intcor
     16.97     -18.82       2.27        0.00      88.14       1.78       0.08       1.78       ----

> <Gold.Chemscore.Fitness>
16.9657

> <Gold.Chemscore.DG>
-18.8220

> <Gold.Chemscore.ZeroCoef>
-5.4800

> <Gold.Chemscore.Hbond>
2.2723

> <Gold.Chemscore.Metal>
0.0000

> <Gold.Chemscore.Lipo>
88.1444

> <Gold.Chemscore.Internal_Hbond>
0.0000

> <Gold.Chemscore.DEClash>
0.0753

> <Gold.Chemscore.DEInternal>
1.7810

> <Gold.Chemscore.Rot>
1.7814

> <Gold.Chemscore.Internal.Correction>
   9.000000E+99

> <Gold.Chemscore.Hbonds>
donor molecule, donor type, donor heavy atom, donor atom, acceptor molecule, acceptor atom, score
      L1  H     4    46       P1 10175  0.34
      L1  H     8    34       P1  8028  0.71
      L1  H    11    35       P1  8028  1.00

> <Gold.Chemscore.Hbond.Weighted>
-7.5894

> <Gold.Chemscore.Metal.Weighted>
-0.0000

> <Gold.Chemscore.Lipo.Weighted>
-10.3129

> <Gold.Chemscore.Internal_Hbond.Weighted>
0.0000

> <Gold.Chemscore.DEClash.Weighted>
0.0753

> <Gold.Chemscore.DEInternal.Weighted>
1.7810

> <Gold.Chemscore.Rot.Weighted>
4.5603

> <Gold.Chemscore.Internal.Correction.Weighted>
   9.000000E+99

> <Gold.Protein.RotatedTorsions>
[ 6907 6896 6895 6894 ] final  163.74 input  -60.11 | X-H torsion
[ 7974 7965 7964 7962 ] final   -3.62 input  175.53 | X-H torsion
[ 8008 7997 7996 7995 ] final -132.22 input   59.86 | X-H torsion
[ 10167 10162 10161 10158 ] final   96.34 input  -65.29 | X-H torsion
[ 10718 10713 10712 10709 ] final  -61.85 input   66.30 | X-H torsion
[ 10763 10752 10751 10750 ] final    7.58 input  -60.55 | X-H torsion
[ 11005 11000 10999 10996 ] final   61.28 input  -57.11 | X-H torsion

> <Gold.Protein.ActiveResidues>
 VAL166  LYS551  ARG553  GLY616  TRP617  ASP618  TYR619  PRO620  LYS621  CYS622 
 ASP623  PHE694  ASN695  SER759  ASP760  ASP761  ALA762  ILE779  LEU786  VAL792 
 PHE793  MET794  SER795  GLU796  ALA797  LYS798  CYS799  TRP800  GLU811  SER814 

> <Gold.Protein.RotatedAtoms>
  151.9205  133.3584  159.3895 H   0  0  0  0  0  0  0  0  0  0  0  0  # atno 6907 bound_to 6896
  150.7038  134.4640  159.5403 H   0  0  0  0  0  0  0  0  0  0  0  0  # atno 6908 bound_to 6896
  152.2262  134.8366  160.0530 H   0  0  0  0  0  0  0  0  0  0  0  0  # atno 6909 bound_to 6896
  146.2386  140.1748  142.8332 H   0  0  0  0  0  0  0  0  0  0  0  0  # atno 7974 bound_to 7965
  155.3253  140.0464  157.3041 H   0  0  0  0  0  0  0  0  0  0  0  0  # atno 8008 bound_to 7997
  154.5357  140.2271  155.8692 H   0  0  0  0  0  0  0  0  0  0  0  0  # atno 8009 bound_to 7997
  156.1833  140.3068  155.9196 H   0  0  0  0  0  0  0  0  0  0  0  0  # atno 8010 bound_to 7997
  139.7903  144.6854  150.9901 H   0  0  0  0  0  0  0  0  0  0  0  0  # atno 10167 bound_to 10162
  156.0894  130.4202  150.1052 H   0  0  0  0  0  0  0  0  0  0  0  0  # atno 10718 bound_to 10713
  153.2347  135.6896  153.7850 H   0  0  0  0  0  0  0  0  0  0  0  0  # atno 10763 bound_to 10752
  153.7001  135.3299  155.3223 H   0  0  0  0  0  0  0  0  0  0  0  0  # atno 10764 bound_to 10752
  154.8329  135.4566  154.1246 H   0  0  0  0  0  0  0  0  0  0  0  0  # atno 10765 bound_to 10752
  140.0172  134.6207  155.9692 H   0  0  0  0  0  0  0  0  0  0  0  0  # atno 11005 bound_to 11000
  144.9982  140.8608  143.5298 LP  0  0  0  0  0  0  0  0  0  0  0  0  # atno 17320 bound_to 7965
  145.1764  139.2376  143.5315 LP  0  0  0  0  0  0  0  0  0  0  0  0  # atno 17321 bound_to 7965
  140.7820  143.4387  151.0584 LP  0  0  0  0  0  0  0  0  0  0  0  0  # atno 17342 bound_to 10162
  139.8064  143.8011  152.3167 LP  0  0  0  0  0  0  0  0  0  0  0  0  # atno 17343 bound_to 10162
  156.9066  130.9638  151.3569 LP  0  0  0  0  0  0  0  0  0  0  0  0  # atno 17370 bound_to 10713
  157.6039  130.8532  149.8844 LP  0  0  0  0  0  0  0  0  0  0  0  0  # atno 17371 bound_to 10713
  141.1750  133.6540  156.4796 LP  0  0  0  0  0  0  0  0  0  0  0  0  # atno 17394 bound_to 11000
  140.4450  134.6981  157.5011 LP  0  0  0  0  0  0  0  0  0  0  0  0  # atno 17395 bound_to 11000

$$$$
