AV-unprocessed.smi:701|AV-procd|sdf|3408|dock3
  -GOLD-   22720 0383D 1   1.00000     0.00000
 Structure written by MMmdl.
 49 51  0  0  0  0  0  0  0  0  1 V2000
  153.0870  139.3574  159.8235 C   0  0  0  0  0  0  0  0  0  0  0  0
  153.4769  140.8133  160.0877 C   0  0  0  0  0  0  0  0  0  0  0  0
  153.0158  141.6106  159.0102 O   0  0  0  0  0  0  0  0  0  0  0  0
  151.5981  141.7170  158.9569 C   0  0  2  0  0  0  0  0  0  0  0  0
  150.9907  140.8075  157.8804 C   0  0  0  0  0  0  0  0  0  0  0  0
  151.1844  141.9776  156.9153 C   0  0  1  0  0  0  0  0  0  0  0  0
  150.0854  142.1174  155.9671 N   0  0  0  0  0  0  0  0  0  0  0  0
  149.8296  141.2523  154.9755 C   0  0  0  0  0  0  0  0  0  0  0  0
  150.5120  140.2486  154.7651 O   0  0  0  0  0  0  0  0  0  0  0  0
  148.6401  141.5909  154.0670 C   0  0  0  0  0  0  0  0  0  0  0  0
  147.3460  141.3736  154.7289 N   0  0  0  0  0  0  0  0  0  0  0  0
  146.9784  142.1442  155.8230 C   0  0  0  0  0  0  0  0  0  0  0  0
  145.7954  142.0072  156.4676 C   0  0  0  0  0  0  0  0  0  0  0  0
  144.8245  141.0118  156.0258 C   0  0  0  0  0  0  0  0  0  0  0  0
  143.7280  140.8120  156.5434 O   0  0  0  0  0  0  0  0  0  0  0  0
  145.2307  140.2572  154.9219 N   0  0  0  0  0  0  0  0  0  0  0  0
  146.4473  140.3948  154.2519 C   0  0  0  0  0  0  0  0  0  0  0  0
  146.7044  139.6797  153.2840 O   0  0  0  0  0  0  0  0  0  0  0  0
  151.1225  142.9417  158.1288 C   0  0  0  0  0  0  0  0  0  0  0  0
  149.7320  143.4962  158.5196 C   0  0  0  0  0  0  0  0  0  0  0  0
  149.7443  144.2609  159.8552 C   0  0  0  0  0  0  0  0  0  0  0  0
  150.7622  145.4085  159.8315 C   0  0  0  0  0  0  0  0  0  0  0  0
  152.1486  144.9143  159.3988 C   0  0  0  0  0  0  0  0  0  0  0  0
  152.0725  144.1512  158.0664 C   0  0  0  0  0  0  0  0  0  0  0  0
  144.5903  139.5562  154.5791 H   0  0  0  0  0  0  0  0  0  0  0  0
  153.4223  138.7105  160.6342 H   0  0  0  0  0  0  0  0  0  0  0  0
  153.5347  138.9943  158.8979 H   0  0  0  0  0  0  0  0  0  0  0  0
  152.0054  139.2525  159.7370 H   0  0  0  0  0  0  0  0  0  0  0  0
  153.0389  141.1493  161.0281 H   0  0  0  0  0  0  0  0  0  0  0  0
  154.5605  140.8984  160.1793 H   0  0  0  0  0  0  0  0  0  0  0  0
  151.1236  141.6337  159.9357 H   0  0  0  0  0  0  0  0  0  0  0  0
  151.5726  139.9191  157.6347 H   0  0  0  0  0  0  0  0  0  0  0  0
  149.9452  140.5612  158.0736 H   0  0  0  0  0  0  0  0  0  0  0  0
  152.1725  141.9486  156.4495 H   0  0  0  0  0  0  0  0  0  0  0  0
  149.4846  142.9222  156.0703 H   0  0  0  0  0  0  0  0  0  0  0  0
  148.7148  142.6215  153.7139 H   0  0  0  0  0  0  0  0  0  0  0  0
  148.7154  140.9741  153.1705 H   0  0  0  0  0  0  0  0  0  0  0  0
  147.6646  142.8980  156.1819 H   0  0  0  0  0  0  0  0  0  0  0  0
  145.5653  142.6386  157.3136 H   0  0  0  0  0  0  0  0  0  0  0  0
  149.3634  144.1646  157.7401 H   0  0  0  0  0  0  0  0  0  0  0  0
  148.9981  142.6929  158.5864 H   0  0  0  0  0  0  0  0  0  0  0  0
  148.7496  144.6537  160.0671 H   0  0  0  0  0  0  0  0  0  0  0  0
  149.9833  143.5782  160.6709 H   0  0  0  0  0  0  0  0  0  0  0  0
  150.4211  146.1785  159.1383 H   0  0  0  0  0  0  0  0  0  0  0  0
  150.8203  145.8794  160.8130 H   0  0  0  0  0  0  0  0  0  0  0  0
  152.8308  145.7596  159.3055 H   0  0  0  0  0  0  0  0  0  0  0  0
  152.5651  144.2642  160.1693 H   0  0  0  0  0  0  0  0  0  0  0  0
  153.0764  143.8396  157.7771 H   0  0  0  0  0  0  0  0  0  0  0  0
  151.7484  144.8360  157.2817 H   0  0  0  0  0  0  0  0  0  0  0  0
  1  2  1  0  0  0  0
  1 26  1  0  0  0  0
  1 27  1  0  0  0  0
  1 28  1  0  0  0  0
  2  3  1  0  0  0  0
  2 29  1  0  0  0  0
  2 30  1  0  0  0  0
  3  4  1  0  0  0  0
  4 19  1  0  0  0  0
  4  5  1  0  0  0  0
  4 31  1  0  0  0  0
  5  6  1  0  0  0  0
  5 32  1  0  0  0  0
  5 33  1  0  0  0  0
  6  7  1  0  0  0  0
  6 19  1  0  0  0  0
  6 34  1  0  0  0  0
  7  8  1  0  0  0  0
  7 35  1  0  0  0  0
  8  9  2  0  0  0  0
  8 10  1  0  0  0  0
 10 11  1  0  0  0  0
 10 36  1  0  0  0  0
 10 37  1  0  0  0  0
 11 17  1  0  0  0  0
 11 12  1  0  0  0  0
 12 13  2  0  0  0  0
 12 38  1  0  0  0  0
 13 14  1  0  0  0  0
 13 39  1  0  0  0  0
 14 15  2  0  0  0  0
 14 16  1  0  0  0  0
 16 25  1  0  0  0  0
 16 17  1  0  0  0  0
 17 18  2  0  0  0  0
 19 24  1  0  0  0  0
 19 20  1  0  0  0  0
 20 21  1  0  0  0  0
 20 40  1  0  0  0  0
 20 41  1  0  0  0  0
 21 22  1  0  0  0  0
 21 42  1  0  0  0  0
 21 43  1  0  0  0  0
 22 23  1  0  0  0  0
 22 44  1  0  0  0  0
 22 45  1  0  0  0  0
 23 24  1  0  0  0  0
 23 46  1  0  0  0  0
 23 47  1  0  0  0  0
 24 48  1  0  0  0  0
 24 49  1  0  0  0  0
M  END
> <s_m_source_file>
AV-unprocessed.smi

> <i_m_source_file_index>
701

> <i_lp_mmshare_version>
43012

> <i_f3d_flags>
0

> <s_epik_input>
W0NIMl0xW0NIMl1bQ0gyXVtDSDJdW0NIMl1DMTJbQ0BIXShPW0NIMl1bQ0gzXSlbQ0gyXVtDQEhdMltOSF1DKD1PKVtDSDJdbjNbY0hdW2NIXWMoPU8pW25IXWMzPU8=

> <s_epik_cmdline>
J2VwaWtfcHl0aG9uJywgJy1waCcsICc3LjAnLCAnLXRuJywgJzgnLCAnLW1hJywgJzIwMCcsICctbWV0YWxfYmluZGluZycsICctaW1hZScsICc8aW5maWxlLm1hZT4nLCAnLW9tYWUnLCAnPG91dGZpbGUubWFlPic=

> <r_lp_tautomer_probability>
0.999537

> <r_epik_Ionization_Penalty>
0.00304597

> <r_epik_Ionization_Penalty_Charging>
0.00304595

> <r_epik_Ionization_Penalty_Neutral>
1.88422e-08

> <r_epik_State_Penalty>
0.00214084

> <r_epik_Charging_Adjusted_Penalty>
0.00518679

> <i_epik_Tot_Q>
0

> <i_epik_Tot_abs_Q>
0

> <r_epik_Metal_State_Penalty>
0.361872

> <b_epik_Metal_Only>
0

> <s_lp_Force_Field>
OPLS_2005

> <r_lp_Energy>
27.2214

> <b_lp_Chiralities_Consistent>
1

> <s_lp_Variant>
AV-unprocessed.smi:701-1

> <Gold.Version>
5.8.1

> <Gold.Id.Protein>
6NUR|6NUR_protein|mol2

> <Gold.PLP.Fitness>
49.8577

> <Gold.PLP.PLP>
-41.8615

> <Gold.PLP.part.hbond>
-3.0000

> <Gold.PLP.part.metal>
0.0000

> <Gold.PLP.part.buried>
-3.7951

> <Gold.PLP.part.nonpolar>
-35.9198

> <Gold.PLP.part.repulsive>
0.4511

> <Gold.PLP.ligand.clash>
0.0000

> <Gold.PLP.ligand.torsion>
0.6724

> <Gold.PLP.Chemscore.Hbond>
2.0000

> <Gold.PLP.Chemscore.CHOScore>
1.0000

> <Gold.PLP.Chemscore.Metal>
0.0000

> <Gold.Chemscore.Hbonds>
donor molecule, donor type, donor heavy atom, donor atom, acceptor molecule, acceptor atom, score
      L1  H     7    35       P1  8028  1.00
      P1  H  7989  7998       L1     9  1.00
      L1  C    12    38       P1  8028  0.98

> <Gold.PLP.Chemscore.Internal.Correction>
0.3410

> <Gold.Rescore>
     Score         DG    S(hbond)    S(metal)    S(lipo)     H(rot)  DE(clash)    DE(int)     intcor
     15.08     -16.03       1.20        0.00     101.61       2.09       0.28       0.67       ----

> <Gold.Chemscore.Fitness>
15.0823

> <Gold.Chemscore.DG>
-16.0284

> <Gold.Chemscore.ZeroCoef>
-5.4800

> <Gold.Chemscore.Hbond>
1.2032

> <Gold.Chemscore.Metal>
0.0000

> <Gold.Chemscore.Lipo>
101.6111

> <Gold.Chemscore.Internal_Hbond>
0.0000

> <Gold.Chemscore.DEClash>
0.2782

> <Gold.Chemscore.DEInternal>
0.6679

> <Gold.Chemscore.Rot>
2.0933

> <Gold.Chemscore.Internal.Correction>
   9.000000E+99

> <Gold.Chemscore.Hbonds>
donor molecule, donor type, donor heavy atom, donor atom, acceptor molecule, acceptor atom, score
      L1  H     7    35       P1  8028  0.97
      L1  H    16    25       P1 10175  0.01
      P1  H  7989  7998       L1     9  0.25

> <Gold.Chemscore.Hbond.Weighted>
-4.0187

> <Gold.Chemscore.Metal.Weighted>
-0.0000

> <Gold.Chemscore.Lipo.Weighted>
-11.8885

> <Gold.Chemscore.Internal_Hbond.Weighted>
0.0000

> <Gold.Chemscore.DEClash.Weighted>
0.2782

> <Gold.Chemscore.DEInternal.Weighted>
0.6679

> <Gold.Chemscore.Rot.Weighted>
5.3588

> <Gold.Chemscore.Internal.Correction.Weighted>
   9.000000E+99

> <Gold.Protein.RotatedTorsions>
[ 6907 6896 6895 6894 ] final  107.85 input  -60.11 | X-H torsion
[ 7974 7965 7964 7962 ] final   88.36 input  175.53 | X-H torsion
[ 8008 7997 7996 7995 ] final  134.78 input   59.86 | X-H torsion
[ 10167 10162 10161 10158 ] final  130.30 input  -65.29 | X-H torsion
[ 10718 10713 10712 10709 ] final -155.29 input   66.30 | X-H torsion
[ 10763 10752 10751 10750 ] final  141.30 input  -60.55 | X-H torsion
[ 11005 11000 10999 10996 ] final   69.36 input  -57.11 | X-H torsion

> <Gold.Protein.ActiveResidues>
 VAL166  LYS551  ARG553  GLY616  TRP617  ASP618  TYR619  PRO620  LYS621  CYS622 
 ASP623  PHE694  ASN695  SER759  ASP760  ASP761  ALA762  ILE779  LEU786  VAL792 
 PHE793  MET794  SER795  GLU796  ALA797  LYS798  CYS799  TRP800  GLU811  SER814 

> <Gold.Protein.RotatedAtoms>
  152.5137  133.9174  159.7517 H   0  0  0  0  0  0  0  0  0  0  0  0  # atno 6907 bound_to 6896
  150.9553  133.6496  159.2771 H   0  0  0  0  0  0  0  0  0  0  0  0  # atno 6908 bound_to 6896
  151.3760  135.0936  159.9533 H   0  0  0  0  0  0  0  0  0  0  0  0  # atno 6909 bound_to 6896
  145.5467  139.2292  143.2535 H   0  0  0  0  0  0  0  0  0  0  0  0  # atno 7974 bound_to 7965
  156.3000  140.2487  156.3473 H   0  0  0  0  0  0  0  0  0  0  0  0  # atno 8008 bound_to 7997
  154.8999  140.0406  157.1906 H   0  0  0  0  0  0  0  0  0  0  0  0  # atno 8009 bound_to 7997
  154.8512  140.2906  155.5601 H   0  0  0  0  0  0  0  0  0  0  0  0  # atno 8010 bound_to 7997
  139.5436  144.6753  151.4544 H   0  0  0  0  0  0  0  0  0  0  0  0  # atno 10167 bound_to 10162
  156.5109  130.8434  151.2646 H   0  0  0  0  0  0  0  0  0  0  0  0  # atno 10718 bound_to 10713
  153.9370  135.2984  155.3444 H   0  0  0  0  0  0  0  0  0  0  0  0  # atno 10763 bound_to 10752
  154.7497  135.4986  153.9270 H   0  0  0  0  0  0  0  0  0  0  0  0  # atno 10764 bound_to 10752
  153.1062  135.6747  153.9688 H   0  0  0  0  0  0  0  0  0  0  0  0  # atno 10765 bound_to 10752
  139.9658  134.6983  156.0549 H   0  0  0  0  0  0  0  0  0  0  0  0  # atno 11005 bound_to 11000
  146.1944  140.6289  142.9131 LP  0  0  0  0  0  0  0  0  0  0  0  0  # atno 17320 bound_to 7965
  144.7550  140.5284  143.6775 LP  0  0  0  0  0  0  0  0  0  0  0  0  # atno 17321 bound_to 7965
  140.6676  143.8364  150.6960 LP  0  0  0  0  0  0  0  0  0  0  0  0  # atno 17342 bound_to 10162
  140.1778  143.4140  152.1955 LP  0  0  0  0  0  0  0  0  0  0  0  0  # atno 17343 bound_to 10162
  157.7450  130.9950  150.2727 LP  0  0  0  0  0  0  0  0  0  0  0  0  # atno 17370 bound_to 10713
  156.3241  130.3790  149.7549 LP  0  0  0  0  0  0  0  0  0  0  0  0  # atno 17371 bound_to 10713
  141.1337  133.6580  156.3535 LP  0  0  0  0  0  0  0  0  0  0  0  0  # atno 17394 bound_to 11000
  140.5400  134.6130  157.5377 LP  0  0  0  0  0  0  0  0  0  0  0  0  # atno 17395 bound_to 11000

$$$$
