AV-unprocessed.smi:1285|AV-procd|sdf|5368|dock2
  -GOLD-   22720 4513D 1   1.00000     0.00000
 Structure written by MMmdl.
 46 47  0  0  0  0  0  0  0  0  1 V2000
  149.3547  132.8557  155.1216 C   0  0  0  0  0  0  0  0  0  0  0  0
  149.8474  134.2100  154.5800 C   0  0  0  0  0  0  0  0  0  0  0  0
  149.1057  135.4693  155.1328 C   0  0  2  0  0  0  0  0  0  0  0  0
  149.3517  135.4795  156.6660 C   0  0  0  0  0  0  0  0  0  0  0  0
  147.5735  135.2910  154.8733 C   0  0  0  0  0  0  0  0  0  0  0  0
  147.2381  135.1413  153.4588 N   0  0  0  0  0  0  0  0  0  0  0  0
  146.1693  134.4975  152.9624 C   0  0  0  0  0  0  0  0  0  0  0  0
  145.2742  134.0322  153.6688 O   0  0  0  0  0  0  0  0  0  0  0  0
  146.1330  134.3388  151.4333 C   0  0  2  0  0  0  0  0  0  0  0  0
  145.6733  135.6163  150.7017 C   0  0  0  0  0  0  0  0  0  0  0  0
  145.3216  133.1820  151.0709 N   0  0  0  0  0  0  0  0  0  0  0  0
  145.6923  131.9749  150.6376 C   0  0  0  0  0  0  0  0  0  0  0  0
  144.6843  131.1322  150.4621 N   0  0  0  0  0  0  0  0  0  0  0  0
  143.6464  131.9374  150.8369 C   0  0  0  0  0  0  0  0  0  0  0  0
  143.9731  133.1719  151.2184 N   0  0  0  0  0  0  0  0  0  0  0  0
  149.6348  136.7184  154.5152 N   0  0  0  0  0  0  0  0  0  0  0  0
  151.0595  136.9795  154.7546 C   0  0  0  0  0  0  0  0  0  0  0  0
  151.5610  138.2037  153.9695 C   0  0  0  0  0  0  0  0  0  0  0  0
  150.7790  139.3433  154.3056 O   0  0  0  0  0  0  0  0  0  0  0  0
  149.3958  139.1515  154.0343 C   0  0  0  0  0  0  0  0  0  0  0  0
  148.8778  137.9377  154.8237 C   0  0  0  0  0  0  0  0  0  0  0  0
  149.9353  132.0397  154.6913 H   0  0  0  0  0  0  0  0  0  0  0  0
  148.3099  132.6754  154.8704 H   0  0  0  0  0  0  0  0  0  0  0  0
  149.4561  132.7897  156.2047 H   0  0  0  0  0  0  0  0  0  0  0  0
  150.9189  134.2921  154.7621 H   0  0  0  0  0  0  0  0  0  0  0  0
  149.7594  134.1715  153.4936 H   0  0  0  0  0  0  0  0  0  0  0  0
  149.2117  134.4942  157.1115 H   0  0  0  0  0  0  0  0  0  0  0  0
  148.6664  136.1509  157.1837 H   0  0  0  0  0  0  0  0  0  0  0  0
  150.3653  135.7981  156.9099 H   0  0  0  0  0  0  0  0  0  0  0  0
  147.1742  134.4481  155.4376 H   0  0  0  0  0  0  0  0  0  0  0  0
  147.0238  136.1651  155.2202 H   0  0  0  0  0  0  0  0  0  0  0  0
  147.9156  135.4970  152.8004 H   0  0  0  0  0  0  0  0  0  0  0  0
  147.1544  134.1288  151.1116 H   0  0  0  0  0  0  0  0  0  0  0  0
  146.3267  136.4584  150.9319 H   0  0  0  0  0  0  0  0  0  0  0  0
  144.6568  135.9016  150.9759 H   0  0  0  0  0  0  0  0  0  0  0  0
  145.6955  135.4738  149.6209 H   0  0  0  0  0  0  0  0  0  0  0  0
  146.7220  131.7031  150.4570 H   0  0  0  0  0  0  0  0  0  0  0  0
  142.6200  131.6015  150.8353 H   0  0  0  0  0  0  0  0  0  0  0  0
  151.2414  137.1482  155.8159 H   0  0  0  0  0  0  0  0  0  0  0  0
  151.6678  136.1257  154.4611 H   0  0  0  0  0  0  0  0  0  0  0  0
  152.6052  138.4055  154.2091 H   0  0  0  0  0  0  0  0  0  0  0  0
  151.5085  138.0212  152.8950 H   0  0  0  0  0  0  0  0  0  0  0  0
  148.8495  140.0504  154.3201 H   0  0  0  0  0  0  0  0  0  0  0  0
  149.2422  139.0098  152.9632 H   0  0  0  0  0  0  0  0  0  0  0  0
  147.8224  137.8136  154.5885 H   0  0  0  0  0  0  0  0  0  0  0  0
  148.9410  138.1638  155.8880 H   0  0  0  0  0  0  0  0  0  0  0  0
  1  2  1  0  0  0  0
  1 22  1  0  0  0  0
  1 23  1  0  0  0  0
  1 24  1  0  0  0  0
  2  3  1  0  0  0  0
  2 25  1  0  0  0  0
  2 26  1  0  0  0  0
  3  4  1  0  0  0  0
  3  5  1  0  0  0  0
  3 16  1  0  0  0  0
  4 27  1  0  0  0  0
  4 28  1  0  0  0  0
  4 29  1  0  0  0  0
  5  6  1  0  0  0  0
  5 30  1  0  0  0  0
  5 31  1  0  0  0  0
  6  7  1  0  0  0  0
  6 32  1  0  0  0  0
  7  8  2  0  0  0  0
  7  9  1  0  0  0  0
  9 10  1  0  0  0  0
  9 11  1  0  0  0  0
  9 33  1  0  0  0  0
 10 34  1  0  0  0  0
 10 35  1  0  0  0  0
 10 36  1  0  0  0  0
 11 15  1  0  0  0  0
 11 12  1  0  0  0  0
 12 13  2  0  0  0  0
 12 37  1  0  0  0  0
 13 14  1  0  0  0  0
 14 15  2  0  0  0  0
 14 38  1  0  0  0  0
 16 21  1  0  0  0  0
 16 17  1  0  0  0  0
 17 18  1  0  0  0  0
 17 39  1  0  0  0  0
 17 40  1  0  0  0  0
 18 19  1  0  0  0  0
 18 41  1  0  0  0  0
 18 42  1  0  0  0  0
 19 20  1  0  0  0  0
 20 21  1  0  0  0  0
 20 43  1  0  0  0  0
 20 44  1  0  0  0  0
 21 45  1  0  0  0  0
 21 46  1  0  0  0  0
M  END
> <s_m_source_file>
AV-unprocessed.smi

> <i_m_source_file_index>
1285

> <i_lp_mmshare_version>
43012

> <i_f3d_flags>
0

> <s_epik_input>
W0NIMl0xW0NIMl1PW0NIMl1bQ0gyXU4xW0NAQF0oW0NIM10pKFtDSDJdW0NIM10pW0NIMl1bTkhdQyg9TylbQ0BIXShbQ0gzXSluMltjSF1uW2NIXW4y

> <s_epik_cmdline>
J2VwaWtfcHl0aG9uJywgJy1waCcsICc3LjAnLCAnLXRuJywgJzgnLCAnLW1hJywgJzIwMCcsICctbWV0YWxfYmluZGluZycsICctaW1hZScsICc8aW5maWxlLm1hZT4nLCAnLW9tYWUnLCAnPG91dGZpbGUubWFlPic=

> <r_lp_tautomer_probability>
1

> <r_epik_Ionization_Penalty>
0.285697

> <r_epik_Ionization_Penalty_Charging>
0

> <r_epik_Ionization_Penalty_Neutral>
0.285697

> <r_epik_State_Penalty>
0.278478

> <r_epik_Charging_Adjusted_Penalty>
0.278478

> <i_epik_Tot_Q>
0

> <i_epik_Tot_abs_Q>
0

> <r_epik_Metal_State_Penalty>
0.278477

> <b_epik_Metal_Only>
0

> <s_lp_Force_Field>
OPLS_2005

> <r_lp_Energy>
47.2582

> <b_lp_Chiralities_Consistent>
1

> <s_lp_Variant>
AV-unprocessed.smi:1285-2

> <Gold.Version>
5.8.1

> <Gold.Id.Protein>
6NUR|6NUR_protein|mol2

> <Gold.PLP.Fitness>
40.2772

> <Gold.PLP.PLP>
-30.2118

> <Gold.PLP.part.hbond>
-2.9331

> <Gold.PLP.part.metal>
0.0000

> <Gold.PLP.part.buried>
-5.9406

> <Gold.PLP.part.nonpolar>
-24.7487

> <Gold.PLP.part.repulsive>
2.6072

> <Gold.PLP.ligand.clash>
0.0000

> <Gold.PLP.ligand.torsion>
1.0553

> <Gold.PLP.Chemscore.Hbond>
2.0127

> <Gold.PLP.Chemscore.CHOScore>
1.9112

> <Gold.PLP.Chemscore.Metal>
0.0000

> <Gold.Chemscore.Hbonds>
donor molecule, donor type, donor heavy atom, donor atom, acceptor molecule, acceptor atom, score
      L1  H     6    32       P1  7948  1.00
      P1  H  7989  7998       L1    19  1.00
      L1  C    12    37       P1 10747  1.00
      L1  C    14    38       P1 10952  0.95

> <Gold.PLP.Chemscore.Internal.Correction>
0.4043

> <Gold.Rescore>
     Score         DG    S(hbond)    S(metal)    S(lipo)     H(rot)  DE(clash)    DE(int)     intcor
      7.10      -9.61       1.31        0.00      56.57       2.68       0.49       2.02       ----

> <Gold.Chemscore.Fitness>
7.0979

> <Gold.Chemscore.DG>
-9.6061

> <Gold.Chemscore.ZeroCoef>
-5.4800

> <Gold.Chemscore.Hbond>
1.3096

> <Gold.Chemscore.Metal>
0.0000

> <Gold.Chemscore.Lipo>
56.5666

> <Gold.Chemscore.Internal_Hbond>
0.0000

> <Gold.Chemscore.DEClash>
0.4885

> <Gold.Chemscore.DEInternal>
2.0197

> <Gold.Chemscore.Rot>
2.6821

> <Gold.Chemscore.Internal.Correction>
   9.000000E+99

> <Gold.Chemscore.Hbonds>
donor molecule, donor type, donor heavy atom, donor atom, acceptor molecule, acceptor atom, score
      L1  H     6    32       P1  7948  0.96
      P1  H  7989  7998       L1    19  0.52

> <Gold.Chemscore.Hbond.Weighted>
-4.3740

> <Gold.Chemscore.Metal.Weighted>
-0.0000

> <Gold.Chemscore.Lipo.Weighted>
-6.6183

> <Gold.Chemscore.Internal_Hbond.Weighted>
0.0000

> <Gold.Chemscore.DEClash.Weighted>
0.4885

> <Gold.Chemscore.DEInternal.Weighted>
2.0197

> <Gold.Chemscore.Rot.Weighted>
6.8661

> <Gold.Chemscore.Internal.Correction.Weighted>
   9.000000E+99

> <Gold.Protein.RotatedTorsions>
[ 6907 6896 6895 6894 ] final -102.17 input  -60.11 | X-H torsion
[ 7974 7965 7964 7962 ] final  175.30 input  175.53 | X-H torsion
[ 8008 7997 7996 7995 ] final  -41.26 input   59.86 | X-H torsion
[ 10167 10162 10161 10158 ] final  -98.59 input  -65.29 | X-H torsion
[ 10718 10713 10712 10709 ] final  -45.58 input   66.30 | X-H torsion
[ 10763 10752 10751 10750 ] final  -60.28 input  -60.55 | X-H torsion
[ 11005 11000 10999 10996 ] final   43.37 input  -57.11 | X-H torsion

> <Gold.Protein.ActiveResidues>
 VAL166  LYS551  ARG553  GLY616  TRP617  ASP618  TYR619  PRO620  LYS621  CYS622 
 ASP623  PHE694  ASN695  SER759  ASP760  ASP761  ALA762  ILE779  LEU786  VAL792 
 PHE793  MET794  SER795  GLU796  ALA797  LYS798  CYS799  TRP800  GLU811  SER814 

> <Gold.Protein.RotatedAtoms>
  150.7185  134.0622  159.3834 H   0  0  0  0  0  0  0  0  0  0  0  0  # atno 6907 bound_to 6896
  151.8602  135.0524  160.0478 H   0  0  0  0  0  0  0  0  0  0  0  0  # atno 6908 bound_to 6896
  152.2723  133.5358  159.5483 H   0  0  0  0  0  0  0  0  0  0  0  0  # atno 6909 bound_to 6896
  144.7204  139.9927  143.6440 H   0  0  0  0  0  0  0  0  0  0  0  0  # atno 7974 bound_to 7965
  154.4005  140.1504  156.3162 H   0  0  0  0  0  0  0  0  0  0  0  0  # atno 8008 bound_to 7997
  155.8570  140.3455  155.5710 H   0  0  0  0  0  0  0  0  0  0  0  0  # atno 8009 bound_to 7997
  155.7921  140.0858  157.1993 H   0  0  0  0  0  0  0  0  0  0  0  0  # atno 8010 bound_to 7997
  140.2714  143.3341  152.0531 H   0  0  0  0  0  0  0  0  0  0  0  0  # atno 10167 bound_to 10162
  156.2269  130.4170  149.8923 H   0  0  0  0  0  0  0  0  0  0  0  0  # atno 10718 bound_to 10713
  154.2668  135.6298  153.5295 H   0  0  0  0  0  0  0  0  0  0  0  0  # atno 10763 bound_to 10752
  152.9886  135.5601  154.5643 H   0  0  0  0  0  0  0  0  0  0  0  0  # atno 10764 bound_to 10752
  154.5205  135.2882  155.1242 H   0  0  0  0  0  0  0  0  0  0  0  0  # atno 10765 bound_to 10752
  140.1652  134.4291  155.8292 H   0  0  0  0  0  0  0  0  0  0  0  0  # atno 11005 bound_to 11000
  146.0399  139.3412  143.0704 LP  0  0  0  0  0  0  0  0  0  0  0  0  # atno 17320 bound_to 7965
  145.8348  140.9612  143.0830 LP  0  0  0  0  0  0  0  0  0  0  0  0  # atno 17321 bound_to 7965
  139.4988  144.6654  151.6369 LP  0  0  0  0  0  0  0  0  0  0  0  0  # atno 17342 bound_to 10162
  140.5887  143.9819  150.6311 LP  0  0  0  0  0  0  0  0  0  0  0  0  # atno 17343 bound_to 10162
  156.6551  130.8759  151.3538 LP  0  0  0  0  0  0  0  0  0  0  0  0  # atno 17370 bound_to 10713
  157.7114  130.9445  150.1104 LP  0  0  0  0  0  0  0  0  0  0  0  0  # atno 17371 bound_to 10713
  141.2213  133.6931  156.7665 LP  0  0  0  0  0  0  0  0  0  0  0  0  # atno 17394 bound_to 11000
  140.2443  134.8590  157.3604 LP  0  0  0  0  0  0  0  0  0  0  0  0  # atno 17395 bound_to 11000

$$$$
