AV-unprocessed.smi:1916|AV-procd|sdf|7764|dock3
  -GOLD-   22720 9503D 1   1.00000     0.00000
 Structure written by MMmdl.
 45 47  0  0  0  0  0  0  0  0  1 V2000
  153.0716  139.5263  156.6733 O   0  0  0  0  0  0  0  0  0  0  0  0
  151.9870  140.0956  156.8013 C   0  0  0  0  0  0  0  0  0  0  0  0
  151.4364  140.3739  157.9936 N   0  0  0  0  0  0  0  0  0  0  0  0
  152.0621  140.1276  159.2911 C   0  0  0  0  0  0  0  0  0  0  0  0
  152.9681  141.2946  159.7358 C   0  0  0  0  0  0  0  0  0  0  0  0
  152.2555  142.6359  159.8031 C   0  0  0  0  0  0  0  0  0  0  0  0
  152.2040  143.3672  161.0100 C   0  0  0  0  0  0  0  0  0  0  0  0
  151.4961  144.5844  161.0277 C   0  0  0  0  0  0  0  0  0  0  0  0
  150.8719  145.0231  159.8444 C   0  0  0  0  0  0  0  0  0  0  0  0
  150.9899  144.2249  158.6890 C   0  0  0  0  0  0  0  0  0  0  0  0
  151.6682  143.0572  158.6604 N   0  0  0  0  0  0  0  0  0  0  0  0
  151.2130  140.5704  155.5617 C   0  0  2  0  0  0  0  0  0  0  0  0
  150.2123  141.6905  155.8972 C   0  0  0  0  0  0  0  0  0  0  0  0
  148.8564  141.0147  155.7737 C   0  0  0  0  0  0  0  0  0  0  0  0
  147.8122  141.5627  156.1242 O   0  0  0  0  0  0  0  0  0  0  0  0
  148.9676  139.7780  155.2681 N   0  0  0  0  0  0  0  0  0  0  0  0
  147.8499  138.8313  155.1148 C   0  0  0  0  0  0  0  0  0  0  0  0
  148.2364  137.4247  154.6134 C   0  0  0  0  0  0  0  0  0  0  0  0
  146.9907  136.9202  153.8919 C   0  0  0  0  0  0  0  0  0  0  0  0
  146.4540  138.1623  153.1857 C   0  0  0  0  0  0  0  0  0  0  0  0
  146.7754  139.3327  154.1233 C   0  0  0  0  0  0  0  0  0  0  0  0
  150.3526  139.4388  154.9646 C   0  0  0  0  0  0  0  0  0  0  0  0
  150.5408  140.8402  158.0028 H   0  0  0  0  0  0  0  0  0  0  0  0
  151.2711  139.9807  160.0265 H   0  0  0  0  0  0  0  0  0  0  0  0
  152.6324  139.1971  159.2726 H   0  0  0  0  0  0  0  0  0  0  0  0
  153.3951  141.0712  160.7142 H   0  0  0  0  0  0  0  0  0  0  0  0
  153.8137  141.3807  159.0525 H   0  0  0  0  0  0  0  0  0  0  0  0
  152.6812  142.9980  161.9058 H   0  0  0  0  0  0  0  0  0  0  0  0
  151.4267  145.1671  161.9344 H   0  0  0  0  0  0  0  0  0  0  0  0
  150.3167  145.9492  159.8221 H   0  0  0  0  0  0  0  0  0  0  0  0
  150.5259  144.5318  157.7633 H   0  0  0  0  0  0  0  0  0  0  0  0
  151.9242  140.9251  154.8137 H   0  0  0  0  0  0  0  0  0  0  0  0
  150.3434  142.1161  156.8935 H   0  0  0  0  0  0  0  0  0  0  0  0
  150.2769  142.5040  155.1739 H   0  0  0  0  0  0  0  0  0  0  0  0
  147.3783  138.7109  156.0920 H   0  0  0  0  0  0  0  0  0  0  0  0
  149.0436  137.4645  153.8819 H   0  0  0  0  0  0  0  0  0  0  0  0
  148.5519  136.7636  155.4213 H   0  0  0  0  0  0  0  0  0  0  0  0
  147.2060  136.1042  153.2013 H   0  0  0  0  0  0  0  0  0  0  0  0
  146.2611  136.5617  154.6193 H   0  0  0  0  0  0  0  0  0  0  0  0
  146.9812  138.2980  152.2403 H   0  0  0  0  0  0  0  0  0  0  0  0
  145.3896  138.0869  152.9610 H   0  0  0  0  0  0  0  0  0  0  0  0
  145.8842  139.6452  154.6687 H   0  0  0  0  0  0  0  0  0  0  0  0
  147.1116  140.1930  153.5424 H   0  0  0  0  0  0  0  0  0  0  0  0
  150.4836  139.3897  153.8828 H   0  0  0  0  0  0  0  0  0  0  0  0
  150.6147  138.4630  155.3754 H   0  0  0  0  0  0  0  0  0  0  0  0
  1  2  2  0  0  0  0
  2  3  1  0  0  0  0
  2 12  1  0  0  0  0
  3  4  1  0  0  0  0
  3 23  1  0  0  0  0
  4  5  1  0  0  0  0
  4 24  1  0  0  0  0
  4 25  1  0  0  0  0
  5  6  1  0  0  0  0
  5 26  1  0  0  0  0
  5 27  1  0  0  0  0
  6 11  1  0  0  0  0
  6  7  2  0  0  0  0
  7  8  1  0  0  0  0
  7 28  1  0  0  0  0
  8  9  2  0  0  0  0
  8 29  1  0  0  0  0
  9 10  1  0  0  0  0
  9 30  1  0  0  0  0
 10 11  2  0  0  0  0
 10 31  1  0  0  0  0
 12 22  1  0  0  0  0
 12 13  1  0  0  0  0
 12 32  1  0  0  0  0
 13 14  1  0  0  0  0
 13 33  1  0  0  0  0
 13 34  1  0  0  0  0
 14 15  2  0  0  0  0
 14 16  1  0  0  0  0
 16 17  1  0  0  0  0
 16 22  1  0  0  0  0
 17 21  1  0  0  0  0
 17 18  1  0  0  0  0
 17 35  1  0  0  0  0
 18 19  1  0  0  0  0
 18 36  1  0  0  0  0
 18 37  1  0  0  0  0
 19 20  1  0  0  0  0
 19 38  1  0  0  0  0
 19 39  1  0  0  0  0
 20 21  1  0  0  0  0
 20 40  1  0  0  0  0
 20 41  1  0  0  0  0
 21 42  1  0  0  0  0
 21 43  1  0  0  0  0
 22 44  1  0  0  0  0
 22 45  1  0  0  0  0
M  END
> <s_m_source_file>
AV-unprocessed.smi

> <i_m_source_file_index>
1916

> <i_lp_mmshare_version>
43012

> <i_f3d_flags>
0

> <s_epik_input>
W0NIMl0xW0NIMl1bQ0gyXVtDSDJdW0NIXTFOKFtDSDJdMilDKD1PKVtDSDJdW0NASF0yQyg9TylbTkhdW0NIMl1bQ0gyXWMzW2NIXVtjSF1bY0hdW2NIXW4z

> <s_epik_cmdline>
J2VwaWtfcHl0aG9uJywgJy1waCcsICc3LjAnLCAnLXRuJywgJzgnLCAnLW1hJywgJzIwMCcsICctbWV0YWxfYmluZGluZycsICctaW1hZScsICc8aW5maWxlLm1hZT4nLCAnLW9tYWUnLCAnPG91dGZpbGUubWFlPic=

> <r_epik_Ionization_Penalty>
0.0252359

> <r_epik_Ionization_Penalty_Charging>
0

> <r_epik_Ionization_Penalty_Neutral>
0.0252359

> <r_epik_State_Penalty>
0.020532

> <r_epik_Charging_Adjusted_Penalty>
0.020532

> <i_epik_Tot_Q>
0

> <i_epik_Tot_abs_Q>
0

> <r_epik_Metal_State_Penalty>
0.0196901

> <b_epik_Metal_Only>
0

> <s_lp_Force_Field>
OPLS_2005

> <r_lp_Energy>
33.617

> <b_lp_Chiralities_Consistent>
1

> <s_lp_Variant>
AV-unprocessed.smi:1916-1

> <Gold.Version>
5.8.1

> <Gold.Id.Protein>
6NUR|6NUR_protein|mol2

> <Gold.PLP.Fitness>
44.9390

> <Gold.PLP.PLP>
-40.5262

> <Gold.PLP.part.hbond>
-1.0000

> <Gold.PLP.part.metal>
0.0000

> <Gold.PLP.part.buried>
-3.5092

> <Gold.PLP.part.nonpolar>
-35.9628

> <Gold.PLP.part.repulsive>
0.4503

> <Gold.PLP.ligand.clash>
0.0000

> <Gold.PLP.ligand.torsion>
0.8407

> <Gold.PLP.Chemscore.Hbond>
1.0000

> <Gold.PLP.Chemscore.CHOScore>
1.0000

> <Gold.PLP.Chemscore.Metal>
0.0000

> <Gold.Chemscore.Hbonds>
donor molecule, donor type, donor heavy atom, donor atom, acceptor molecule, acceptor atom, score
      P1  H  7997  8008       L1     1  0.81
      L1  C    10    31       P1  8028  0.73

> <Gold.PLP.Chemscore.Internal.Correction>
0.0942

> <Gold.Rescore>
     Score         DG    S(hbond)    S(metal)    S(lipo)     H(rot)  DE(clash)    DE(int)     intcor
     14.96     -16.40       0.79        0.00     105.98       1.61       0.30       1.15       ----

> <Gold.Chemscore.Fitness>
14.9584

> <Gold.Chemscore.DG>
-16.4017

> <Gold.Chemscore.ZeroCoef>
-5.4800

> <Gold.Chemscore.Hbond>
0.7925

> <Gold.Chemscore.Metal>
0.0000

> <Gold.Chemscore.Lipo>
105.9752

> <Gold.Chemscore.Internal_Hbond>
0.0000

> <Gold.Chemscore.DEClash>
0.2970

> <Gold.Chemscore.DEInternal>
1.1463

> <Gold.Chemscore.Rot>
1.6110

> <Gold.Chemscore.Internal.Correction>
   9.000000E+99

> <Gold.Chemscore.Hbonds>
donor molecule, donor type, donor heavy atom, donor atom, acceptor molecule, acceptor atom, score
      P1  H  7997  8008       L1     1  0.79

> <Gold.Chemscore.Hbond.Weighted>
-2.6469

> <Gold.Chemscore.Metal.Weighted>
-0.0000

> <Gold.Chemscore.Lipo.Weighted>
-12.3991

> <Gold.Chemscore.Internal_Hbond.Weighted>
0.0000

> <Gold.Chemscore.DEClash.Weighted>
0.2970

> <Gold.Chemscore.DEInternal.Weighted>
1.1463

> <Gold.Chemscore.Rot.Weighted>
4.1243

> <Gold.Chemscore.Internal.Correction.Weighted>
   9.000000E+99

> <Gold.Protein.RotatedTorsions>
[ 6907 6896 6895 6894 ] final -175.95 input  -60.11 | X-H torsion
[ 7974 7965 7964 7962 ] final  -95.32 input  175.53 | X-H torsion
[ 8008 7997 7996 7995 ] final  -38.78 input   59.86 | X-H torsion
[ 10167 10162 10161 10158 ] final   46.39 input  -65.29 | X-H torsion
[ 10718 10713 10712 10709 ] final -174.25 input   66.30 | X-H torsion
[ 10763 10752 10751 10750 ] final  168.53 input  -60.55 | X-H torsion
[ 11005 11000 10999 10996 ] final -159.09 input  -57.11 | X-H torsion

> <Gold.Protein.ActiveResidues>
 VAL166  LYS551  ARG553  GLY616  TRP617  ASP618  TYR619  PRO620  LYS621  CYS622 
 ASP623  PHE694  ASN695  SER759  ASP760  ASP761  ALA762  ILE779  LEU786  VAL792 
 PHE793  MET794  SER795  GLU796  ALA797  LYS798  CYS799  TRP800  GLU811  SER814 

> <Gold.Protein.RotatedAtoms>
  151.5968  133.3360  159.3038 H   0  0  0  0  0  0  0  0  0  0  0  0  # atno 6907 bound_to 6896
  150.8229  134.7450  159.6799 H   0  0  0  0  0  0  0  0  0  0  0  0  # atno 6908 bound_to 6896
  152.4321  134.5763  159.9987 H   0  0  0  0  0  0  0  0  0  0  0  0  # atno 6909 bound_to 6896
  145.3616  140.9492  143.2497 H   0  0  0  0  0  0  0  0  0  0  0  0  # atno 7974 bound_to 7965
  154.4032  140.1569  156.2756 H   0  0  0  0  0  0  0  0  0  0  0  0  # atno 8008 bound_to 7997
  155.8915  140.3438  155.5937 H   0  0  0  0  0  0  0  0  0  0  0  0  # atno 8009 bound_to 7997
  155.7553  140.0810  157.2172 H   0  0  0  0  0  0  0  0  0  0  0  0  # atno 8010 bound_to 7997
  140.3144  144.2781  150.6194 H   0  0  0  0  0  0  0  0  0  0  0  0  # atno 10167 bound_to 10162
  156.7823  130.9488  151.3120 H   0  0  0  0  0  0  0  0  0  0  0  0  # atno 10718 bound_to 10713
  154.3699  135.2753  155.2272 H   0  0  0  0  0  0  0  0  0  0  0  0  # atno 10763 bound_to 10752
  154.4424  135.5951  153.6141 H   0  0  0  0  0  0  0  0  0  0  0  0  # atno 10764 bound_to 10752
  152.9839  135.6022  154.3929 H   0  0  0  0  0  0  0  0  0  0  0  0  # atno 10765 bound_to 10752
  140.6465  134.4496  157.5234 H   0  0  0  0  0  0  0  0  0  0  0  0  # atno 11005 bound_to 11000
  144.8642  139.5132  143.6798 LP  0  0  0  0  0  0  0  0  0  0  0  0  # atno 17320 bound_to 7965
  146.2925  139.7180  142.9151 LP  0  0  0  0  0  0  0  0  0  0  0  0  # atno 17321 bound_to 7965
  140.5539  143.2202  151.7880 LP  0  0  0  0  0  0  0  0  0  0  0  0  # atno 17342 bound_to 10162
  139.4887  144.4439  151.9732 LP  0  0  0  0  0  0  0  0  0  0  0  0  # atno 17343 bound_to 10162
  157.6640  130.8991  149.9892 LP  0  0  0  0  0  0  0  0  0  0  0  0  # atno 17370 bound_to 10713
  156.1210  130.3646  149.9887 LP  0  0  0  0  0  0  0  0  0  0  0  0  # atno 17371 bound_to 10713
  139.9061  134.8446  156.1701 LP  0  0  0  0  0  0  0  0  0  0  0  0  # atno 17394 bound_to 11000
  141.0568  133.6861  156.1877 LP  0  0  0  0  0  0  0  0  0  0  0  0  # atno 17395 bound_to 11000

$$$$
