AV-unprocessed.smi:157|AV-procd|sdf|1299|dock1
  -GOLD-   2262018583D 1   1.00000     0.00000
 Structure written by MMmdl.
 35 37  0  0  0  0  0  0  0  0  1 V2000
  148.6400  143.5455  160.0012 O   0  0  0  0  0  0  0  0  0  0  0  0
  149.7497  144.2986  159.5599 C   0  0  0  0  0  0  0  0  0  0  0  0
  150.7842  144.4266  160.6994 C   0  0  1  0  0  0  0  0  0  0  0  0
  151.2248  143.1066  161.0342 O   0  0  0  0  0  0  0  0  0  0  0  0
  152.5332  142.8858  160.5922 C   0  0  1  0  0  0  0  0  0  0  0  0
  152.5862  141.5942  159.8367 N   0  0  0  0  0  0  0  0  0  0  0  0
  153.2921  140.5025  160.1620 C   0  0  0  0  0  0  0  0  0  0  0  0
  153.1495  139.4873  159.3271 N   0  0  0  0  0  0  0  0  0  0  0  0
  152.2683  139.9681  158.3603 C   0  0  0  0  0  0  0  0  0  0  0  0
  151.9096  141.2754  158.6559 C   0  0  0  0  0  0  0  0  0  0  0  0
  151.0895  142.2344  158.0927 N   0  0  0  0  0  0  0  0  0  0  0  0
  150.7481  142.0890  156.8510 C   0  0  0  0  0  0  0  0  0  0  0  0
  150.9961  141.0458  155.9701 N   0  0  0  0  0  0  0  0  0  0  0  0
  150.7703  139.6501  156.3050 C   0  0  0  0  0  0  0  0  0  0  0  0
  151.8345  139.0654  157.2418 C   0  0  1  0  0  0  0  0  0  0  0  0
  152.9908  138.7514  156.4931 O   0  0  0  0  0  0  0  0  0  0  0  0
  152.8975  144.0517  159.6796 C   0  0  0  0  0  0  0  0  0  0  0  0
  152.0863  145.1545  160.3195 C   0  0  1  0  0  0  0  0  0  0  0  0
  151.9191  146.2594  159.4540 O   0  0  0  0  0  0  0  0  0  0  0  0
  150.3279  144.9102  161.5646 H   0  0  0  0  0  0  0  0  0  0  0  0
  153.2019  142.7645  161.4453 H   0  0  0  0  0  0  0  0  0  0  0  0
  151.4576  138.1267  157.6489 H   0  0  0  0  0  0  0  0  0  0  0  0
  152.5911  145.4925  161.2257 H   0  0  0  0  0  0  0  0  0  0  0  0
  148.3093  143.0426  159.2729 H   0  0  0  0  0  0  0  0  0  0  0  0
  150.1823  143.8467  158.6675 H   0  0  0  0  0  0  0  0  0  0  0  0
  149.3649  145.2761  159.2699 H   0  0  0  0  0  0  0  0  0  0  0  0
  153.9257  140.4449  161.0346 H   0  0  0  0  0  0  0  0  0  0  0  0
  150.1664  142.8812  156.3777 H   0  0  0  0  0  0  0  0  0  0  0  0
  150.8691  141.2095  154.9818 H   0  0  0  0  0  0  0  0  0  0  0  0
  149.7979  139.5888  156.7959 H   0  0  0  0  0  0  0  0  0  0  0  0
  150.6886  139.0578  155.3932 H   0  0  0  0  0  0  0  0  0  0  0  0
  153.3716  137.9657  156.8552 H   0  0  0  0  0  0  0  0  0  0  0  0
  153.9728  144.2323  159.6737 H   0  0  0  0  0  0  0  0  0  0  0  0
  152.5582  143.8494  158.6619 H   0  0  0  0  0  0  0  0  0  0  0  0
  152.2038  146.0083  158.5885 H   0  0  0  0  0  0  0  0  0  0  0  0
  1  2  1  0  0  0  0
  1 24  1  0  0  0  0
  2  3  1  0  0  0  0
  2 25  1  0  0  0  0
  2 26  1  0  0  0  0
  3 20  1  0  0  0  0
  3 18  1  0  0  0  0
  3  4  1  0  0  0  0
  4  5  1  0  0  0  0
  5 21  1  0  0  0  0
  5  6  1  0  0  0  0
  5 17  1  0  0  0  0
  6 10  1  0  0  0  0
  6  7  1  0  0  0  0
  7  8  2  0  0  0  0
  7 27  1  0  0  0  0
  8  9  1  0  0  0  0
  9 15  1  0  0  0  0
  9 10  2  0  0  0  0
 10 11  1  0  0  0  0
 11 12  2  0  0  0  0
 12 13  1  0  0  0  0
 12 28  1  0  0  0  0
 13 14  1  0  0  0  0
 13 29  1  0  0  0  0
 14 15  1  0  0  0  0
 14 30  1  0  0  0  0
 14 31  1  0  0  0  0
 15 22  1  0  0  0  0
 15 16  1  0  0  0  0
 16 32  1  0  0  0  0
 17 18  1  0  0  0  0
 17 33  1  0  0  0  0
 17 34  1  0  0  0  0
 18 23  1  0  0  0  0
 18 19  1  0  0  0  0
 19 35  1  0  0  0  0
M  END
> <s_m_source_file>
AV-unprocessed.smi

> <i_m_source_file_index>
157

> <i_lp_mmshare_version>
43012

> <i_f3d_flags>
0

> <s_epik_input>
W09IXVtDSDJdW0NASF0xT1tDQEhdKFtDSDJdW0NAQEhdMVtPSF0pbihbY0hdbjIpYyhjMjMpTj1bQ0hdW05IXVtDSDJdW0NASF0zW09IXQ==

> <s_epik_cmdline>
J2VwaWtfcHl0aG9uJywgJy1waCcsICc3LjAnLCAnLXRuJywgJzgnLCAnLW1hJywgJzIwMCcsICctbWV0YWxfYmluZGluZycsICctaW1hZScsICc8aW5maWxlLm1hZT4nLCAnLW9tYWUnLCAnPG91dGZpbGUubWFlPic=

> <r_lp_tautomer_probability>
1

> <r_epik_Ionization_Penalty>
0.0357149

> <r_epik_Ionization_Penalty_Charging>
0.0355056

> <r_epik_Ionization_Penalty_Neutral>
0.000209255

> <r_epik_State_Penalty>
0.0296046

> <r_epik_Charging_Adjusted_Penalty>
0.0651102

> <i_epik_Tot_Q>
0

> <i_epik_Tot_abs_Q>
0

> <r_epik_Metal_State_Penalty>
3.03559e-05

> <b_epik_Metal_Only>
0

> <s_epik_Chemistry_Notes>
This compound has an imine and may undergo hydrolysis. This compound contains an acetal/aminal-like group ( X-CH(R)-Y where X, Y are N, S, or O) that may be acid/base labile, releasing an aldehyde.

> <s_lp_Force_Field>
OPLS_2005

> <r_lp_Energy>
47.2619

> <b_lp_Chiralities_Consistent>
1

> <s_lp_Variant>
AV-unprocessed.smi:157-9

> <Gold.Version>
5.8.1

> <Gold.Id.Protein>
6NUR|6NUR_protein|mol2

> <Gold.PLP.Fitness>
42.7720

> <Gold.PLP.PLP>
-34.3850

> <Gold.PLP.part.hbond>
-4.4280

> <Gold.PLP.part.metal>
0.0000

> <Gold.PLP.part.buried>
-5.3952

> <Gold.PLP.part.nonpolar>
-24.6636

> <Gold.PLP.part.repulsive>
0.3257

> <Gold.PLP.ligand.clash>
0.0000

> <Gold.PLP.ligand.torsion>
0.0360

> <Gold.PLP.Chemscore.Hbond>
1.8149

> <Gold.PLP.Chemscore.CHOScore>
1.0000

> <Gold.PLP.Chemscore.Metal>
0.0000

> <Gold.Chemscore.Hbonds>
donor molecule, donor type, donor heavy atom, donor atom, acceptor molecule, acceptor atom, score
      P1  H  6933  6944       L1     1  0.69
      P1  H  6933  6945       L1     4  0.16
      P1  H  7997  8009       L1    16  1.00
      L1  C    12    28       P1  8028  1.00

> <Gold.PLP.Chemscore.Internal.Correction>
0.0144

> <Gold.Rescore>
     Score         DG    S(hbond)    S(metal)    S(lipo)     H(rot)  DE(clash)    DE(int)     intcor
      2.98      -7.38       1.43        0.00      54.82       3.64       1.30       3.09       ----

> <Gold.Chemscore.Fitness>
2.9838

> <Gold.Chemscore.DG>
-7.3756

> <Gold.Chemscore.ZeroCoef>
-5.4800

> <Gold.Chemscore.Hbond>
1.4343

> <Gold.Chemscore.Metal>
0.0000

> <Gold.Chemscore.Lipo>
54.8177

> <Gold.Chemscore.Internal_Hbond>
0.0000

> <Gold.Chemscore.DEClash>
1.3027

> <Gold.Chemscore.DEInternal>
3.0891

> <Gold.Chemscore.Rot>
3.6362

> <Gold.Chemscore.Internal.Correction>
   9.000000E+99

> <Gold.Chemscore.Hbonds>
donor molecule, donor type, donor heavy atom, donor atom, acceptor molecule, acceptor atom, score
      P1  H  6933  6944       L1     1  0.27
      P1  H  6933  6945       L1     4  0.16
      P1  H  7997  8009       L1    16  0.34

> <Gold.Chemscore.Hbond.Weighted>
-4.7907

> <Gold.Chemscore.Metal.Weighted>
-0.0000

> <Gold.Chemscore.Lipo.Weighted>
-6.4137

> <Gold.Chemscore.Internal_Hbond.Weighted>
0.0000

> <Gold.Chemscore.DEClash.Weighted>
1.3027

> <Gold.Chemscore.DEInternal.Weighted>
3.0891

> <Gold.Chemscore.Rot.Weighted>
9.3087

> <Gold.Chemscore.Internal.Correction.Weighted>
   9.000000E+99

> <Gold.Protein.RotatedTorsions>
[ 6907 6896 6895 6894 ] final  -42.73 input  -60.11 | X-H torsion
[ 7974 7965 7964 7962 ] final  -53.17 input  175.53 | X-H torsion
[ 8008 7997 7996 7995 ] final  175.57 input   59.86 | X-H torsion
[ 10167 10162 10161 10158 ] final   14.06 input  -65.29 | X-H torsion
[ 10718 10713 10712 10709 ] final   63.24 input   66.30 | X-H torsion
[ 10763 10752 10751 10750 ] final -109.72 input  -60.55 | X-H torsion
[ 11005 11000 10999 10996 ] final   65.84 input  -57.11 | X-H torsion

> <Gold.Protein.ActiveResidues>
 VAL166  LYS551  ARG553  GLY616  TRP617  ASP618  TYR619  PRO620  LYS621  CYS622 
 ASP623  PHE694  ASN695  SER759  ASP760  ASP761  ALA762  ILE779  LEU786  VAL792 
 PHE793  MET794  SER795  GLU796  ALA797  LYS798  CYS799  TRP800  GLU811  SER814 

> <Gold.Protein.RotatedAtoms>
  150.9519  134.8918  159.7676 H   0  0  0  0  0  0  0  0  0  0  0  0  # atno 6907 bound_to 6896
  152.5123  134.3795  159.9356 H   0  0  0  0  0  0  0  0  0  0  0  0  # atno 6908 bound_to 6896
  151.3811  133.3781  159.2745 H   0  0  0  0  0  0  0  0  0  0  0  0  # atno 6909 bound_to 6896
  145.8998  140.8003  142.9749 H   0  0  0  0  0  0  0  0  0  0  0  0  # atno 7974 bound_to 7965
  156.0856  140.1405  156.9657 H   0  0  0  0  0  0  0  0  0  0  0  0  # atno 8008 bound_to 7997
  154.4611  140.0943  156.6943 H   0  0  0  0  0  0  0  0  0  0  0  0  # atno 8009 bound_to 7997
  155.5003  140.3451  155.4372 H   0  0  0  0  0  0  0  0  0  0  0  0  # atno 8010 bound_to 7997
  140.5961  143.8698  150.6919 H   0  0  0  0  0  0  0  0  0  0  0  0  # atno 10167 bound_to 10162
  157.5957  130.9094  149.9691 H   0  0  0  0  0  0  0  0  0  0  0  0  # atno 10718 bound_to 10713
  154.8209  135.4590  154.0776 H   0  0  0  0  0  0  0  0  0  0  0  0  # atno 10763 bound_to 10752
  153.2130  135.6884  153.8097 H   0  0  0  0  0  0  0  0  0  0  0  0  # atno 10764 bound_to 10752
  153.7541  135.3293  155.3303 H   0  0  0  0  0  0  0  0  0  0  0  0  # atno 10765 bound_to 10752
  139.9869  134.6653  156.0160 H   0  0  0  0  0  0  0  0  0  0  0  0  # atno 11005 bound_to 11000
  144.6735  140.1659  143.7418 LP  0  0  0  0  0  0  0  0  0  0  0  0  # atno 17320 bound_to 7965
  145.8805  139.2320  143.1608 LP  0  0  0  0  0  0  0  0  0  0  0  0  # atno 17321 bound_to 7965
  140.2233  143.3792  152.1625 LP  0  0  0  0  0  0  0  0  0  0  0  0  # atno 17342 bound_to 10162
  139.5259  144.7101  151.5231 LP  0  0  0  0  0  0  0  0  0  0  0  0  # atno 17343 bound_to 10162
  156.1020  130.3655  150.0201 LP  0  0  0  0  0  0  0  0  0  0  0  0  # atno 17370 bound_to 10713
  156.8315  130.9394  151.3637 LP  0  0  0  0  0  0  0  0  0  0  0  0  # atno 17371 bound_to 10713
  141.1532  133.6546  156.4080 LP  0  0  0  0  0  0  0  0  0  0  0  0  # atno 17394 bound_to 11000
  140.4984  134.6509  157.5239 LP  0  0  0  0  0  0  0  0  0  0  0  0  # atno 17395 bound_to 11000

$$$$
