AV-unprocessed.smi:2731|AV-procd|sdf|10530|dock1
  -GOLD-   2272014573D 1   1.00000     0.00000
 Structure written by MMmdl.
 45 46  0  0  0  0  0  0  0  0  1 V2000
  150.6810  138.5207  153.9733 C   0  0  0  0  0  0  0  0  0  0  0  0
  151.0772  139.2349  155.2331 C   0  0  0  0  0  0  0  0  0  0  0  0
  151.0668  140.5571  155.2511 N   0  0  0  0  0  0  0  0  0  0  0  0
  151.4807  140.8885  156.4901 N   0  0  0  0  0  0  0  0  0  0  0  0
  151.5764  142.2887  156.8554 C   0  0  0  0  0  0  0  0  0  0  0  0
  151.7578  139.7724  157.2557 C   0  0  0  0  0  0  0  0  0  0  0  0
  152.2472  139.8743  158.6647 C   0  0  0  0  0  0  0  0  0  0  0  0
  151.5009  138.6763  156.4752 C   0  0  0  0  0  0  0  0  0  0  0  0
  151.6493  137.2141  156.8247 C   0  0  0  0  0  0  0  0  0  0  0  0
  150.4998  136.3390  156.2868 C   0  0  0  0  0  0  0  0  0  0  0  0
  149.2891  136.4638  157.0956 N   0  0  0  0  0  0  0  0  0  0  0  0
  148.8405  135.5450  157.9652 C   0  0  0  0  0  0  0  0  0  0  0  0
  149.3742  134.4456  158.1205 O   0  0  0  0  0  0  0  0  0  0  0  0
  147.6078  135.9421  158.7874 C   0  0  0  0  0  0  0  0  0  0  0  0
  147.6958  135.4872  160.1812 N   0  0  0  0  0  0  0  0  0  0  0  0
  147.7405  134.0376  160.4095 C   0  0  0  0  0  0  0  0  0  0  0  0
  146.7208  133.6267  161.4848 C   0  0  0  0  0  0  0  0  0  0  0  0
  146.8711  134.4494  162.7805 C   0  0  0  0  0  0  0  0  0  0  0  0
  147.7371  135.7209  162.6322 C   0  0  0  0  0  0  0  0  0  0  0  0
  147.6644  136.3409  161.2306 C   0  0  0  0  0  0  0  0  0  0  0  0
  147.5956  137.5642  161.1128 O   0  0  0  0  0  0  0  0  0  0  0  0
  151.5020  138.5156  153.2561 H   0  0  0  0  0  0  0  0  0  0  0  0
  149.8245  138.9998  153.4979 H   0  0  0  0  0  0  0  0  0  0  0  0
  150.4089  137.4845  154.1722 H   0  0  0  0  0  0  0  0  0  0  0  0
  152.5773  142.5062  157.2286 H   0  0  0  0  0  0  0  0  0  0  0  0
  150.8484  142.5127  157.6356 H   0  0  0  0  0  0  0  0  0  0  0  0
  151.3785  142.9267  155.9925 H   0  0  0  0  0  0  0  0  0  0  0  0
  152.6802  138.9331  159.0023 H   0  0  0  0  0  0  0  0  0  0  0  0
  151.4300  140.1316  159.3386 H   0  0  0  0  0  0  0  0  0  0  0  0
  153.0183  140.6389  158.7588 H   0  0  0  0  0  0  0  0  0  0  0  0
  152.5920  136.8232  156.4418 H   0  0  0  0  0  0  0  0  0  0  0  0
  151.7104  137.0856  157.9055 H   0  0  0  0  0  0  0  0  0  0  0  0
  150.2641  136.6305  155.2631 H   0  0  0  0  0  0  0  0  0  0  0  0
  150.8212  135.2975  156.2352 H   0  0  0  0  0  0  0  0  0  0  0  0
  148.7832  137.3345  157.0248 H   0  0  0  0  0  0  0  0  0  0  0  0
  147.4974  137.0277  158.7741 H   0  0  0  0  0  0  0  0  0  0  0  0
  146.7159  135.5489  158.2970 H   0  0  0  0  0  0  0  0  0  0  0  0
  147.5351  133.4926  159.4876 H   0  0  0  0  0  0  0  0  0  0  0  0
  148.7490  133.7580  160.7172 H   0  0  0  0  0  0  0  0  0  0  0  0
  145.7178  133.7794  161.0834 H   0  0  0  0  0  0  0  0  0  0  0  0
  146.7995  132.5610  161.7003 H   0  0  0  0  0  0  0  0  0  0  0  0
  145.8809  134.7190  163.1500 H   0  0  0  0  0  0  0  0  0  0  0  0
  147.3127  133.8208  163.5545 H   0  0  0  0  0  0  0  0  0  0  0  0
  147.4580  136.4575  163.3866 H   0  0  0  0  0  0  0  0  0  0  0  0
  148.7821  135.4709  162.8184 H   0  0  0  0  0  0  0  0  0  0  0  0
  1  2  1  0  0  0  0
  1 22  1  0  0  0  0
  1 23  1  0  0  0  0
  1 24  1  0  0  0  0
  2  8  1  0  0  0  0
  2  3  2  0  0  0  0
  3  4  1  0  0  0  0
  4  5  1  0  0  0  0
  4  6  1  0  0  0  0
  5 25  1  0  0  0  0
  5 26  1  0  0  0  0
  5 27  1  0  0  0  0
  6  7  1  0  0  0  0
  6  8  2  0  0  0  0
  7 28  1  0  0  0  0
  7 29  1  0  0  0  0
  7 30  1  0  0  0  0
  8  9  1  0  0  0  0
  9 10  1  0  0  0  0
  9 31  1  0  0  0  0
  9 32  1  0  0  0  0
 10 11  1  0  0  0  0
 10 33  1  0  0  0  0
 10 34  1  0  0  0  0
 11 12  1  0  0  0  0
 11 35  1  0  0  0  0
 12 13  2  0  0  0  0
 12 14  1  0  0  0  0
 14 15  1  0  0  0  0
 14 36  1  0  0  0  0
 14 37  1  0  0  0  0
 15 20  1  0  0  0  0
 15 16  1  0  0  0  0
 16 17  1  0  0  0  0
 16 38  1  0  0  0  0
 16 39  1  0  0  0  0
 17 18  1  0  0  0  0
 17 40  1  0  0  0  0
 17 41  1  0  0  0  0
 18 19  1  0  0  0  0
 18 42  1  0  0  0  0
 18 43  1  0  0  0  0
 19 20  1  0  0  0  0
 19 44  1  0  0  0  0
 19 45  1  0  0  0  0
 20 21  2  0  0  0  0
M  END
> <s_m_source_file>
AV-unprocessed.smi

> <i_m_source_file_index>
2731

> <i_lp_mmshare_version>
43012

> <i_f3d_flags>
0

> <s_epik_input>
W0NIM11jMW5uKFtDSDNdKWMoW0NIM10pYzFbQ0gyXVtDSDJdW05IXUMoPU8pW0NIMl1OMltDSDJdW0NIMl1bQ0gyXVtDSDJdQzI9Tw==

> <s_epik_cmdline>
J2VwaWtfcHl0aG9uJywgJy1waCcsICc3LjAnLCAnLXRuJywgJzgnLCAnLW1hJywgJzIwMCcsICctbWV0YWxfYmluZGluZycsICctaW1hZScsICc8aW5maWxlLm1hZT4nLCAnLW9tYWUnLCAnPG91dGZpbGUubWFlPic=

> <r_lp_tautomer_probability>
1

> <r_epik_Ionization_Penalty>
0.0111965

> <r_epik_Ionization_Penalty_Charging>
0

> <r_epik_Ionization_Penalty_Neutral>
0.0111965

> <r_epik_State_Penalty>
0.00860379

> <r_epik_Charging_Adjusted_Penalty>
0.00860379

> <i_epik_Tot_Q>
0

> <i_epik_Tot_abs_Q>
0

> <r_epik_Metal_State_Penalty>
0.00844338

> <b_epik_Metal_Only>
0

> <s_lp_Force_Field>
OPLS_2005

> <r_lp_Energy>
7.02137

> <b_lp_Chiralities_Consistent>
1

> <s_lp_Variant>
AV-unprocessed.smi:2731-1

> <Gold.Version>
5.8.1

> <Gold.Id.Protein>
6NUR|6NUR_protein|mol2

> <Gold.PLP.Fitness>
46.8367

> <Gold.PLP.PLP>
-37.1522

> <Gold.PLP.part.hbond>
-3.8119

> <Gold.PLP.part.metal>
0.0000

> <Gold.PLP.part.buried>
-3.1684

> <Gold.PLP.part.nonpolar>
-29.4835

> <Gold.PLP.part.repulsive>
0.1063

> <Gold.PLP.ligand.clash>
0.0000

> <Gold.PLP.ligand.torsion>
0.7294

> <Gold.PLP.Chemscore.Hbond>
3.6880

> <Gold.PLP.Chemscore.CHOScore>
0.0000

> <Gold.PLP.Chemscore.Metal>
0.0000

> <Gold.Chemscore.Hbonds>
donor molecule, donor type, donor heavy atom, donor atom, acceptor molecule, acceptor atom, score
      P1  H  6896  6907       L1    13  1.00
      P1  H  6931  6943       L1    21  0.70
      P1  H  6934  6947       L1    21  0.84
      P1  H  7989  7998       L1     3  0.88

> <Gold.PLP.Chemscore.Internal.Correction>
0.0794

> <Gold.Rescore>
     Score         DG    S(hbond)    S(metal)    S(lipo)     H(rot)  DE(clash)    DE(int)     intcor
     19.66     -21.87       3.43        0.00      81.15       1.78       0.15       2.07       ----

> <Gold.Chemscore.Fitness>
19.6563

> <Gold.Chemscore.DG>
-21.8746

> <Gold.Chemscore.ZeroCoef>
-5.4800

> <Gold.Chemscore.Hbond>
3.4278

> <Gold.Chemscore.Metal>
0.0000

> <Gold.Chemscore.Lipo>
81.1455

> <Gold.Chemscore.Internal_Hbond>
0.0000

> <Gold.Chemscore.DEClash>
0.1477

> <Gold.Chemscore.DEInternal>
2.0707

> <Gold.Chemscore.Rot>
1.7767

> <Gold.Chemscore.Internal.Correction>
   9.000000E+99

> <Gold.Chemscore.Hbonds>
donor molecule, donor type, donor heavy atom, donor atom, acceptor molecule, acceptor atom, score
      P1  H  6896  6907       L1    13  0.97
      P1  H  6931  6943       L1    21  0.46
      P1  H  6934  6947       L1    21  0.78
      P1  H  7989  7998       L1     3  0.20

> <Gold.Chemscore.Hbond.Weighted>
-11.4489

> <Gold.Chemscore.Metal.Weighted>
-0.0000

> <Gold.Chemscore.Lipo.Weighted>
-9.4940

> <Gold.Chemscore.Internal_Hbond.Weighted>
0.0000

> <Gold.Chemscore.DEClash.Weighted>
0.1477

> <Gold.Chemscore.DEInternal.Weighted>
2.0707

> <Gold.Chemscore.Rot.Weighted>
4.5483

> <Gold.Chemscore.Internal.Correction.Weighted>
   9.000000E+99

> <Gold.Protein.RotatedTorsions>
[ 6907 6896 6895 6894 ] final  -90.84 input  -60.11 | X-H torsion
[ 7974 7965 7964 7962 ] final -156.33 input  175.53 | X-H torsion
[ 8008 7997 7996 7995 ] final  -70.83 input   59.86 | X-H torsion
[ 10167 10162 10161 10158 ] final   27.82 input  -65.29 | X-H torsion
[ 10718 10713 10712 10709 ] final -162.26 input   66.30 | X-H torsion
[ 10763 10752 10751 10750 ] final -149.53 input  -60.55 | X-H torsion
[ 11005 11000 10999 10996 ] final  -65.98 input  -57.11 | X-H torsion

> <Gold.Protein.ActiveResidues>
 VAL166  LYS551  ARG553  GLY616  TRP617  ASP618  TYR619  PRO620  LYS621  CYS622 
 ASP623  PHE694  ASN695  SER759  ASP760  ASP761  ALA762  ILE779  LEU786  VAL792 
 PHE793  MET794  SER795  GLU796  ALA797  LYS798  CYS799  TRP800  GLU811  SER814 

> <Gold.Protein.RotatedAtoms>
  150.6886  134.2370  159.4456 H   0  0  0  0  0  0  0  0  0  0  0  0  # atno 6907 bound_to 6896
  152.0317  134.9761  160.0582 H   0  0  0  0  0  0  0  0  0  0  0  0  # atno 6908 bound_to 6896
  152.1298  133.4366  159.4752 H   0  0  0  0  0  0  0  0  0  0  0  0  # atno 6909 bound_to 6896
  144.7598  140.4124  143.5985 H   0  0  0  0  0  0  0  0  0  0  0  0  # atno 7974 bound_to 7965
  154.5041  140.0827  156.7859 H   0  0  0  0  0  0  0  0  0  0  0  0  # atno 8008 bound_to 7997
  155.3933  140.3433  155.4234 H   0  0  0  0  0  0  0  0  0  0  0  0  # atno 8009 bound_to 7997
  156.1494  140.1553  156.8782 H   0  0  0  0  0  0  0  0  0  0  0  0  # atno 8010 bound_to 7997
  140.4905  144.0474  150.6295 H   0  0  0  0  0  0  0  0  0  0  0  0  # atno 10167 bound_to 10162
  156.6080  130.8838  151.2929 H   0  0  0  0  0  0  0  0  0  0  0  0  # atno 10718 bound_to 10713
  154.8172  135.3307  154.7142 H   0  0  0  0  0  0  0  0  0  0  0  0  # atno 10763 bound_to 10752
  153.7781  135.6920  153.4898 H   0  0  0  0  0  0  0  0  0  0  0  0  # atno 10764 bound_to 10752
  153.1999  135.4520  155.0201 H   0  0  0  0  0  0  0  0  0  0  0  0  # atno 10765 bound_to 10752
  141.1469  133.6691  156.6069 H   0  0  0  0  0  0  0  0  0  0  0  0  # atno 11005 bound_to 11000
  145.6657  139.1589  143.2783 LP  0  0  0  0  0  0  0  0  0  0  0  0  # atno 17320 bound_to 7965
  146.1648  140.6734  142.9260 LP  0  0  0  0  0  0  0  0  0  0  0  0  # atno 17321 bound_to 7965
  140.3741  143.2838  152.0244 LP  0  0  0  0  0  0  0  0  0  0  0  0  # atno 17342 bound_to 10162
  139.4850  144.6206  151.7262 LP  0  0  0  0  0  0  0  0  0  0  0  0  # atno 17343 bound_to 10162
  157.7262  130.9626  150.1646 LP  0  0  0  0  0  0  0  0  0  0  0  0  # atno 17370 bound_to 10713
  156.2414  130.3691  149.8333 LP  0  0  0  0  0  0  0  0  0  0  0  0  # atno 17371 bound_to 10713
  140.3645  134.7659  157.4556 LP  0  0  0  0  0  0  0  0  0  0  0  0  # atno 17394 bound_to 11000
  140.0759  134.5798  155.8592 LP  0  0  0  0  0  0  0  0  0  0  0  0  # atno 17395 bound_to 11000

$$$$
