AV-unprocessed.smi:1570|AV-procd|sdf|6321|dock3
  -GOLD-   22720 6533D 1   1.00000     0.00000
 Structure written by MMmdl.
 52 54  0  0  0  0  0  0  0  0  2 V2000
  153.9736  139.9394  161.0713 C   0  0  0  0  0  0  0  0  0  0  0  0
  154.1661  141.4029  160.6531 C   0  0  0  0  0  0  0  0  0  0  0  0
  153.1474  141.8152  159.6909 N   0  0  0  0  0  0  0  0  0  0  0  0
  152.7302  141.1170  158.6092 C   0  0  0  0  0  0  0  0  0  0  0  0
  153.1550  140.0200  158.2459 O   0  0  0  0  0  0  0  0  0  0  0  0
  151.7476  141.8252  158.0035 N   0  0  0  0  0  0  0  0  0  0  0  0
  151.0130  141.4328  156.8015 C   0  0  0  0  0  0  0  0  0  0  0  0
  150.3840  140.0321  156.9463 C   0  0  1  0  0  0  0  0  0  0  0  0
  149.1353  140.1722  157.5955 O   0  0  0  0  0  0  0  0  0  0  0  0
  150.1271  139.3770  155.5745 C   0  0  0  0  0  0  0  0  0  0  0  0
  148.8586  139.8433  154.9603 N   0  3  1  0  0  0  0  0  0  0  0  0
  148.9249  141.2527  154.5085 C   0  0  0  0  0  0  0  0  0  0  0  0
  147.5666  141.7203  153.9493 C   0  0  2  0  0  0  0  0  0  0  0  0
  146.5054  141.9628  155.0376 C   0  0  0  0  0  0  0  0  0  0  0  0
  147.1103  140.8179  152.9412 O   0  0  0  0  0  0  0  0  0  0  0  0
  147.0091  139.4571  153.3537 C   0  0  1  0  0  0  0  0  0  0  0  0
  146.5173  138.6357  152.1566 C   0  0  0  0  0  0  0  0  0  0  0  0
  148.3795  138.9735  153.8593 C   0  0  0  0  0  0  0  0  0  0  0  0
  151.5202  143.0055  158.7265 C   0  0  0  0  0  0  0  0  0  0  0  0
  150.6068  144.0555  158.5254 C   0  0  0  0  0  0  0  0  0  0  0  0
  150.6270  145.1181  159.4593 C   0  0  0  0  0  0  0  0  0  0  0  0
  151.5347  145.1110  160.5499 C   0  0  0  0  0  0  0  0  0  0  0  0
  152.4411  144.0404  160.7309 C   0  0  0  0  0  0  0  0  0  0  0  0
  152.4015  142.9985  159.7880 C   0  0  0  0  0  0  0  0  0  0  0  0
  154.7377  139.6372  161.7876 H   0  0  0  0  0  0  0  0  0  0  0  0
  154.0407  139.2712  160.2124 H   0  0  0  0  0  0  0  0  0  0  0  0
  153.0007  139.7873  161.5399 H   0  0  0  0  0  0  0  0  0  0  0  0
  154.1260  142.0511  161.5290 H   0  0  0  0  0  0  0  0  0  0  0  0
  155.1598  141.5372  160.2231 H   0  0  0  0  0  0  0  0  0  0  0  0
  150.2638  142.1776  156.5316 H   0  0  0  0  0  0  0  0  0  0  0  0
  151.7284  141.4289  155.9774 H   0  0  0  0  0  0  0  0  0  0  0  0
  151.0284  139.3944  157.5503 H   0  0  0  0  0  0  0  0  0  0  0  0
  148.5554  140.6657  157.0350 H   0  0  0  0  0  0  0  0  0  0  0  0
  150.9690  139.5990  154.9163 H   0  0  0  0  0  0  0  0  0  0  0  0
  150.0955  138.2900  155.6656 H   0  0  0  0  0  0  0  0  0  0  0  0
  149.2289  141.8995  155.3328 H   0  0  0  0  0  0  0  0  0  0  0  0
  149.6915  141.3425  153.7371 H   0  0  0  0  0  0  0  0  0  0  0  0
  147.7262  142.6756  153.4482 H   0  0  0  0  0  0  0  0  0  0  0  0
  146.8225  142.7555  155.7157 H   0  0  0  0  0  0  0  0  0  0  0  0
  146.3202  141.0753  155.6423 H   0  0  0  0  0  0  0  0  0  0  0  0
  145.5580  142.2699  154.5943 H   0  0  0  0  0  0  0  0  0  0  0  0
  146.2709  139.3667  154.1511 H   0  0  0  0  0  0  0  0  0  0  0  0
  146.4089  137.5832  152.4198 H   0  0  0  0  0  0  0  0  0  0  0  0
  147.2130  138.7014  151.3194 H   0  0  0  0  0  0  0  0  0  0  0  0
  145.5468  138.9931  151.8113 H   0  0  0  0  0  0  0  0  0  0  0  0
  149.1064  138.9827  153.0450 H   0  0  0  0  0  0  0  0  0  0  0  0
  148.2961  137.9409  154.1966 H   0  0  0  0  0  0  0  0  0  0  0  0
  149.9139  144.0568  157.6975 H   0  0  0  0  0  0  0  0  0  0  0  0
  149.9415  145.9444  159.3417 H   0  0  0  0  0  0  0  0  0  0  0  0
  151.5321  145.9320  161.2516 H   0  0  0  0  0  0  0  0  0  0  0  0
  153.1314  144.0274  161.5614 H   0  0  0  0  0  0  0  0  0  0  0  0
  148.1617  139.8123  155.6915 H   0  0  0  0  0  0  0  0  0  0  0  0
  1  2  1  0  0  0  0
  1 25  1  0  0  0  0
  1 26  1  0  0  0  0
  1 27  1  0  0  0  0
  2  3  1  0  0  0  0
  2 28  1  0  0  0  0
  2 29  1  0  0  0  0
  3 24  1  0  0  0  0
  3  4  1  0  0  0  0
  4  5  2  0  0  0  0
  4  6  1  0  0  0  0
  6  7  1  0  0  0  0
  6 19  1  0  0  0  0
  7  8  1  0  0  0  0
  7 30  1  0  0  0  0
  7 31  1  0  0  0  0
  8  9  1  0  0  0  0
  8 10  1  0  0  0  0
  8 32  1  0  0  0  0
  9 33  1  0  0  0  0
 10 11  1  0  0  0  0
 10 34  1  0  0  0  0
 10 35  1  0  0  0  0
 11 18  1  0  0  0  0
 11 12  1  0  0  0  0
 11 52  1  0  0  0  0
 12 13  1  0  0  0  0
 12 36  1  0  0  0  0
 12 37  1  0  0  0  0
 13 14  1  0  0  0  0
 13 15  1  0  0  0  0
 13 38  1  0  0  0  0
 14 39  1  0  0  0  0
 14 40  1  0  0  0  0
 14 41  1  0  0  0  0
 15 16  1  0  0  0  0
 16 17  1  0  0  0  0
 16 18  1  0  0  0  0
 16 42  1  0  0  0  0
 17 43  1  0  0  0  0
 17 44  1  0  0  0  0
 17 45  1  0  0  0  0
 18 46  1  0  0  0  0
 18 47  1  0  0  0  0
 19 24  2  0  0  0  0
 19 20  1  0  0  0  0
 20 21  2  0  0  0  0
 20 48  1  0  0  0  0
 21 22  1  0  0  0  0
 21 49  1  0  0  0  0
 22 23  2  0  0  0  0
 22 50  1  0  0  0  0
 23 24  1  0  0  0  0
 23 51  1  0  0  0  0
M  CHG  1  11   1
M  END
> <s_m_source_file>
AV-unprocessed.smi

> <i_m_source_file_index>
1570

> <i_lp_mmshare_version>
43012

> <i_f3d_flags>
0

> <s_epik_input>
W2NIXTFbY0hdW2NIXVtjSF1jKGMxMiluKFtDSDJdW0NIM10pYyg9TyluMltDSDJdW0NASF0oW09IXSlbQ0gyXU4zW0NIMl1bQ0BASF0oW0NIM10pT1tDQEBIXShbQ0gzXSlbQ0gyXTM=

> <s_epik_cmdline>
J2VwaWtfcHl0aG9uJywgJy1waCcsICc3LjAnLCAnLXRuJywgJzgnLCAnLW1hJywgJzIwMCcsICctbWV0YWxfYmluZGluZycsICctaW1hZScsICc8aW5maWxlLm1hZT4nLCAnLW9tYWUnLCAnPG91dGZpbGUubWFlPic=

> <r_epik_Ionization_Penalty>
0.706332

> <r_epik_Ionization_Penalty_Charging>
0.706318

> <r_epik_Ionization_Penalty_Neutral>
1.42224e-05

> <r_epik_State_Penalty>
0.729493

> <r_epik_Charging_Adjusted_Penalty>
1.43581

> <i_epik_Tot_Q>
1

> <i_epik_Tot_abs_Q>
1

> <r_epik_Metal_State_Penalty>
0.729493

> <b_epik_Metal_Only>
0

> <s_lp_Force_Field>
OPLS_2005

> <r_lp_Energy>
54.8336

> <b_lp_Chiralities_Consistent>
1

> <s_lp_Variant>
AV-unprocessed.smi:1570-10

> <Gold.Version>
5.8.1

> <Gold.Id.Protein>
6NUR|6NUR_protein|mol2

> <Gold.PLP.Fitness>
52.7935

> <Gold.PLP.PLP>
-51.2523

> <Gold.PLP.part.hbond>
-1.0000

> <Gold.PLP.part.metal>
0.0000

> <Gold.PLP.part.buried>
-4.9790

> <Gold.PLP.part.nonpolar>
-45.8068

> <Gold.PLP.part.repulsive>
0.4653

> <Gold.PLP.ligand.clash>
0.0000

> <Gold.PLP.ligand.torsion>
0.7870

> <Gold.PLP.Chemscore.Hbond>
1.0000

> <Gold.PLP.Chemscore.CHOScore>
0.0000

> <Gold.PLP.Chemscore.Metal>
0.0000

> <Gold.Chemscore.Hbonds>
donor molecule, donor type, donor heavy atom, donor atom, acceptor molecule, acceptor atom, score
      P1  H  7997  8008       L1     5  1.00

> <Gold.PLP.Chemscore.Internal.Correction>
0.1152

> <Gold.Rescore>
     Score         DG    S(hbond)    S(metal)    S(lipo)     H(rot)  DE(clash)    DE(int)     intcor
     18.55     -19.20       0.93        0.00     137.24       2.13       0.02       0.63       ----

> <Gold.Chemscore.Fitness>
18.5515

> <Gold.Chemscore.DG>
-19.2041

> <Gold.Chemscore.ZeroCoef>
-5.4800

> <Gold.Chemscore.Hbond>
0.9342

> <Gold.Chemscore.Metal>
0.0000

> <Gold.Chemscore.Lipo>
137.2446

> <Gold.Chemscore.Internal_Hbond>
0.0000

> <Gold.Chemscore.DEClash>
0.0205

> <Gold.Chemscore.DEInternal>
0.6321

> <Gold.Chemscore.Rot>
2.1303

> <Gold.Chemscore.Internal.Correction>
   9.000000E+99

> <Gold.Chemscore.Hbonds>
donor molecule, donor type, donor heavy atom, donor atom, acceptor molecule, acceptor atom, score
      P1  H  7997  8008       L1     5  0.90

> <Gold.Chemscore.Hbond.Weighted>
-3.1201

> <Gold.Chemscore.Metal.Weighted>
-0.0000

> <Gold.Chemscore.Lipo.Weighted>
-16.0576

> <Gold.Chemscore.Internal_Hbond.Weighted>
0.0000

> <Gold.Chemscore.DEClash.Weighted>
0.0205

> <Gold.Chemscore.DEInternal.Weighted>
0.6321

> <Gold.Chemscore.Rot.Weighted>
5.4535

> <Gold.Chemscore.Internal.Correction.Weighted>
   9.000000E+99

> <Gold.Protein.RotatedTorsions>
[ 6907 6896 6895 6894 ] final  -58.73 input  -60.11 | X-H torsion
[ 7974 7965 7964 7962 ] final    4.10 input  175.53 | X-H torsion
[ 8008 7997 7996 7995 ] final  -87.01 input   59.86 | X-H torsion
[ 10167 10162 10161 10158 ] final  107.71 input  -65.29 | X-H torsion
[ 10718 10713 10712 10709 ] final  -48.26 input   66.30 | X-H torsion
[ 10763 10752 10751 10750 ] final  132.79 input  -60.55 | X-H torsion
[ 11005 11000 10999 10996 ] final  124.82 input  -57.11 | X-H torsion

> <Gold.Protein.ActiveResidues>
 VAL166  LYS551  ARG553  GLY616  TRP617  ASP618  TYR619  PRO620  LYS621  CYS622 
 ASP623  PHE694  ASN695  SER759  ASP760  ASP761  ALA762  ILE779  LEU786  VAL792 
 PHE793  MET794  SER795  GLU796  ALA797  LYS798  CYS799  TRP800  GLU811  SER814 

> <Gold.Protein.RotatedAtoms>
  150.7984  134.7061  159.6576 H   0  0  0  0  0  0  0  0  0  0  0  0  # atno 6907 bound_to 6896
  152.4099  134.6139  160.0043 H   0  0  0  0  0  0  0  0  0  0  0  0  # atno 6908 bound_to 6896
  151.6385  133.3290  159.3161 H   0  0  0  0  0  0  0  0  0  0  0  0  # atno 6909 bound_to 6896
  146.2444  140.0586  142.8370 H   0  0  0  0  0  0  0  0  0  0  0  0  # atno 7974 bound_to 7965
  154.6584  140.0571  157.0034 H   0  0  0  0  0  0  0  0  0  0  0  0  # atno 8008 bound_to 7997
  155.1266  140.3252  155.4465 H   0  0  0  0  0  0  0  0  0  0  0  0  # atno 8009 bound_to 7997
  156.2607  140.1988  156.6386 H   0  0  0  0  0  0  0  0  0  0  0  0  # atno 8010 bound_to 7997
  139.6905  144.7108  151.1357 H   0  0  0  0  0  0  0  0  0  0  0  0  # atno 10167 bound_to 10162
  156.2005  130.4156  149.9247 H   0  0  0  0  0  0  0  0  0  0  0  0  # atno 10718 bound_to 10713
  153.7965  135.3148  155.3385 H   0  0  0  0  0  0  0  0  0  0  0  0  # atno 10763 bound_to 10752
  154.8106  135.4670  154.0509 H   0  0  0  0  0  0  0  0  0  0  0  0  # atno 10764 bound_to 10752
  153.1843  135.6898  153.8523 H   0  0  0  0  0  0  0  0  0  0  0  0  # atno 10765 bound_to 10752
  139.9377  134.9638  156.8466 H   0  0  0  0  0  0  0  0  0  0  0  0  # atno 11005 bound_to 11000
  145.0920  140.9291  143.4763 LP  0  0  0  0  0  0  0  0  0  0  0  0  # atno 17320 bound_to 7965
  145.0760  139.2995  143.5807 LP  0  0  0  0  0  0  0  0  0  0  0  0  # atno 17321 bound_to 7965
  140.7681  143.5567  150.9144 LP  0  0  0  0  0  0  0  0  0  0  0  0  # atno 17342 bound_to 10162
  139.9244  143.6567  152.3090 LP  0  0  0  0  0  0  0  0  0  0  0  0  # atno 17343 bound_to 10162
  156.6958  130.8913  151.3593 LP  0  0  0  0  0  0  0  0  0  0  0  0  # atno 17370 bound_to 10713
  157.6983  130.9305  150.0709 LP  0  0  0  0  0  0  0  0  0  0  0  0  # atno 17371 bound_to 10713
  140.6034  134.0151  155.7546 LP  0  0  0  0  0  0  0  0  0  0  0  0  # atno 17394 bound_to 11000
  141.0997  133.9787  157.3099 LP  0  0  0  0  0  0  0  0  0  0  0  0  # atno 17395 bound_to 11000

$$$$
