AV-unprocessed.smi:1564|AV-procd|sdf|6294|dock9
  -GOLD-   22720 6493D 1   1.00000     0.00000
 Structure written by MMmdl.
 43 44  0  0  0  0  0  0  0  0  2 V2000
  150.7480  141.6250  157.7837 C   0  0  0  0  0  0  0  0  0  0  0  0
  151.2535  140.9696  156.6259 O   0  0  0  0  0  0  0  0  0  0  0  0
  150.4431  140.0557  155.9839 C   0  0  0  0  0  0  0  0  0  0  0  0
  149.3157  139.5586  156.6669 C   0  0  0  0  0  0  0  0  0  0  0  0
  148.4831  138.6257  156.0199 C   0  0  0  0  0  0  0  0  0  0  0  0
  148.8013  138.2237  154.7004 C   0  0  0  0  0  0  0  0  0  0  0  0
  148.0537  137.2785  153.9465 N   0  0  0  0  0  0  0  0  0  0  0  0
  146.9271  136.6325  154.2934 C   0  0  0  0  0  0  0  0  0  0  0  0
  146.3170  136.7782  155.3521 O   0  0  0  0  0  0  0  0  0  0  0  0
  146.5216  135.8047  153.3203 N   0  0  0  0  0  0  0  0  0  0  0  0
  145.3235  134.9747  153.3883 C   0  0  1  0  0  0  0  0  0  0  0  0
  144.0932  135.5862  152.7164 C   0  0  0  0  0  0  0  0  0  0  0  0
  143.2866  134.3775  152.2141 C   0  0  0  0  0  0  0  0  0  0  0  0
  144.1181  133.1681  152.4439 N   0  3  1  0  0  0  0  0  0  0  0  0
  143.9533  132.0856  151.4333 C   0  0  0  0  0  0  0  0  0  0  0  0
  145.0430  131.0086  151.5918 C   0  0  0  0  0  0  0  0  0  0  0  0
  143.9809  132.6399  149.9964 C   0  0  0  0  0  0  0  0  0  0  0  0
  145.4980  133.6589  152.6375 C   0  0  0  0  0  0  0  0  0  0  0  0
  149.9599  138.7709  154.1105 C   0  0  0  0  0  0  0  0  0  0  0  0
  150.7620  139.6657  154.7250 N   0  0  0  0  0  0  0  0  0  0  0  0
  151.5019  142.3130  158.1663 H   0  0  0  0  0  0  0  0  0  0  0  0
  150.5179  140.9124  158.5770 H   0  0  0  0  0  0  0  0  0  0  0  0
  149.8546  142.2077  157.5546 H   0  0  0  0  0  0  0  0  0  0  0  0
  149.0956  139.8834  157.6731 H   0  0  0  0  0  0  0  0  0  0  0  0
  147.6324  138.2317  156.5533 H   0  0  0  0  0  0  0  0  0  0  0  0
  148.3914  137.1115  153.0099 H   0  0  0  0  0  0  0  0  0  0  0  0
  147.0763  135.7474  152.4788 H   0  0  0  0  0  0  0  0  0  0  0  0
  145.0906  134.7505  154.4315 H   0  0  0  0  0  0  0  0  0  0  0  0
  143.5214  136.2134  153.4014 H   0  0  0  0  0  0  0  0  0  0  0  0
  144.3882  136.2066  151.8686 H   0  0  0  0  0  0  0  0  0  0  0  0
  142.3415  134.2777  152.7488 H   0  0  0  0  0  0  0  0  0  0  0  0
  143.0582  134.5055  151.1548 H   0  0  0  0  0  0  0  0  0  0  0  0
  142.9823  131.6145  151.5938 H   0  0  0  0  0  0  0  0  0  0  0  0
  144.9400  130.2329  150.8322 H   0  0  0  0  0  0  0  0  0  0  0  0
  144.9900  130.5109  152.5601 H   0  0  0  0  0  0  0  0  0  0  0  0
  146.0408  131.4370  151.4908 H   0  0  0  0  0  0  0  0  0  0  0  0
  143.9215  131.8327  149.2656 H   0  0  0  0  0  0  0  0  0  0  0  0
  144.9006  133.1926  149.8016 H   0  0  0  0  0  0  0  0  0  0  0  0
  143.1399  133.3045  149.7989 H   0  0  0  0  0  0  0  0  0  0  0  0
  145.9706  133.8272  151.6678 H   0  0  0  0  0  0  0  0  0  0  0  0
  146.1076  132.9511  153.2001 H   0  0  0  0  0  0  0  0  0  0  0  0
  150.2525  138.4859  153.1106 H   0  0  0  0  0  0  0  0  0  0  0  0
  143.8297  132.7923  153.3361 H   0  0  0  0  0  0  0  0  0  0  0  0
  1  2  1  0  0  0  0
  1 21  1  0  0  0  0
  1 22  1  0  0  0  0
  1 23  1  0  0  0  0
  2  3  1  0  0  0  0
  3 20  1  0  0  0  0
  3  4  2  0  0  0  0
  4  5  1  0  0  0  0
  4 24  1  0  0  0  0
  5  6  2  0  0  0  0
  5 25  1  0  0  0  0
  6  7  1  0  0  0  0
  6 19  1  0  0  0  0
  7  8  1  0  0  0  0
  7 26  1  0  0  0  0
  8  9  2  0  0  0  0
  8 10  1  0  0  0  0
 10 11  1  0  0  0  0
 10 27  1  0  0  0  0
 11 18  1  0  0  0  0
 11 12  1  0  0  0  0
 11 28  1  0  0  0  0
 12 13  1  0  0  0  0
 12 29  1  0  0  0  0
 12 30  1  0  0  0  0
 13 14  1  0  0  0  0
 13 31  1  0  0  0  0
 13 32  1  0  0  0  0
 14 15  1  0  0  0  0
 14 18  1  0  0  0  0
 14 43  1  0  0  0  0
 15 16  1  0  0  0  0
 15 17  1  0  0  0  0
 15 33  1  0  0  0  0
 16 34  1  0  0  0  0
 16 35  1  0  0  0  0
 16 36  1  0  0  0  0
 17 37  1  0  0  0  0
 17 38  1  0  0  0  0
 17 39  1  0  0  0  0
 18 40  1  0  0  0  0
 18 41  1  0  0  0  0
 19 20  2  0  0  0  0
 19 42  1  0  0  0  0
M  CHG  1  14   1
M  END
> <s_m_source_file>
AV-unprocessed.smi

> <i_m_source_file_index>
1564

> <i_lp_mmshare_version>
43012

> <i_f3d_flags>
0

> <s_epik_input>
W0NIM11PYzFbY0hdW2NIXWMoW2NIXW4xKVtOSF1DKD1PKVtOSF1bQ0BASF0yW0NIMl1bQ0gyXU4oW0NIMl0yKVtDSF0oW0NIM10pW0NIM10=

> <s_epik_cmdline>
J2VwaWtfcHl0aG9uJywgJy1waCcsICc3LjAnLCAnLXRuJywgJzgnLCAnLW1hJywgJzIwMCcsICctbWV0YWxfYmluZGluZycsICctaW1hZScsICc8aW5maWxlLm1hZT4nLCAnLW9tYWUnLCAnPG91dGZpbGUubWFlPic=

> <r_lp_tautomer_probability>
1

> <r_epik_Ionization_Penalty>
0.000679474

> <r_epik_Ionization_Penalty_Charging>
0.000606352

> <r_epik_Ionization_Penalty_Neutral>
7.31222e-05

> <r_epik_State_Penalty>
0.000382168

> <r_epik_Charging_Adjusted_Penalty>
0.00098852

> <i_epik_Tot_Q>
1

> <i_epik_Tot_abs_Q>
1

> <r_epik_Metal_State_Penalty>
-0

> <b_epik_Metal_Only>
0

> <s_lp_Force_Field>
OPLS_2005

> <r_lp_Energy>
32.3031

> <b_lp_Chiralities_Consistent>
1

> <s_lp_Variant>
AV-unprocessed.smi:1564-2

> <Gold.Version>
5.8.1

> <Gold.Id.Protein>
6NUR|6NUR_protein|mol2

> <Gold.PLP.Fitness>
40.3558

> <Gold.PLP.PLP>
-25.9562

> <Gold.PLP.part.hbond>
-3.6903

> <Gold.PLP.part.metal>
0.0000

> <Gold.PLP.part.buried>
-5.2031

> <Gold.PLP.part.nonpolar>
-19.0961

> <Gold.PLP.part.repulsive>
0.1265

> <Gold.PLP.ligand.clash>
0.0000

> <Gold.PLP.ligand.torsion>
0.7704

> <Gold.PLP.Chemscore.Hbond>
4.3115

> <Gold.PLP.Chemscore.CHOScore>
0.9942

> <Gold.PLP.Chemscore.Metal>
0.0000

> <Gold.Chemscore.Hbonds>
donor molecule, donor type, donor heavy atom, donor atom, acceptor molecule, acceptor atom, score
      L1  H     7    26       P1  7948  1.00
      L1  H    10    27       P1  7948  0.78
      L1  H    14    43       P1 10957  1.59
      P1  H  7989  7998       L1    20  1.00
      L1  C    19    42       P1  7948  0.20
      L1  C    19    42       P1  7957  0.74

> <Gold.PLP.Chemscore.Internal.Correction>
0.0233

> <Gold.Rescore>
     Score         DG    S(hbond)    S(metal)    S(lipo)     H(rot)  DE(clash)    DE(int)     intcor
     18.26     -20.04       3.40        0.00      59.08       1.44       0.11       1.66       ----

> <Gold.Chemscore.Fitness>
18.2643

> <Gold.Chemscore.DG>
-20.0396

> <Gold.Chemscore.ZeroCoef>
-5.4800

> <Gold.Chemscore.Hbond>
3.3967

> <Gold.Chemscore.Metal>
0.0000

> <Gold.Chemscore.Lipo>
59.0819

> <Gold.Chemscore.Internal_Hbond>
0.0000

> <Gold.Chemscore.DEClash>
0.1117

> <Gold.Chemscore.DEInternal>
1.6636

> <Gold.Chemscore.Rot>
1.4445

> <Gold.Chemscore.Internal.Correction>
   9.000000E+99

> <Gold.Chemscore.Hbonds>
donor molecule, donor type, donor heavy atom, donor atom, acceptor molecule, acceptor atom, score
      L1  H     7    26       P1  7948  0.93
      L1  H    10    27       P1  7948  0.75
      L1  H    14    43       P1 10957  0.43
      P1  H  7989  7998       L1    20  0.84

> <Gold.Chemscore.Hbond.Weighted>
-11.3449

> <Gold.Chemscore.Metal.Weighted>
-0.0000

> <Gold.Chemscore.Lipo.Weighted>
-6.9126

> <Gold.Chemscore.Internal_Hbond.Weighted>
0.0000

> <Gold.Chemscore.DEClash.Weighted>
0.1117

> <Gold.Chemscore.DEInternal.Weighted>
1.6636

> <Gold.Chemscore.Rot.Weighted>
3.6979

> <Gold.Chemscore.Internal.Correction.Weighted>
   9.000000E+99

> <Gold.Protein.RotatedTorsions>
[ 6907 6896 6895 6894 ] final  134.97 input  -60.11 | X-H torsion
[ 7974 7965 7964 7962 ] final  -73.74 input  175.53 | X-H torsion
[ 8008 7997 7996 7995 ] final  -33.17 input   59.86 | X-H torsion
[ 10167 10162 10161 10158 ] final -124.93 input  -65.29 | X-H torsion
[ 10718 10713 10712 10709 ] final -154.12 input   66.30 | X-H torsion
[ 10763 10752 10751 10750 ] final  159.69 input  -60.55 | X-H torsion
[ 11005 11000 10999 10996 ] final   57.04 input  -57.11 | X-H torsion

> <Gold.Protein.ActiveResidues>
 VAL166  LYS551  ARG553  GLY616  TRP617  ASP618  TYR619  PRO620  LYS621  CYS622 
 ASP623  PHE694  ASN695  SER759  ASP760  ASP761  ALA762  ILE779  LEU786  VAL792 
 PHE793  MET794  SER795  GLU796  ALA797  LYS798  CYS799  TRP800  GLU811  SER814 

> <Gold.Protein.RotatedAtoms>
  152.3055  133.5699  159.5646 H   0  0  0  0  0  0  0  0  0  0  0  0  # atno 6907 bound_to 6896
  150.7298  134.0229  159.3716 H   0  0  0  0  0  0  0  0  0  0  0  0  # atno 6908 bound_to 6896
  151.8125  135.0677  160.0465 H   0  0  0  0  0  0  0  0  0  0  0  0  # atno 6909 bound_to 6896
  145.6482  140.9291  143.0999 H   0  0  0  0  0  0  0  0  0  0  0  0  # atno 7974 bound_to 7965
  154.4157  140.1718  156.1844 H   0  0  0  0  0  0  0  0  0  0  0  0  # atno 8008 bound_to 7997
  155.9655  140.3390  155.6505 H   0  0  0  0  0  0  0  0  0  0  0  0  # atno 8009 bound_to 7997
  155.6693  140.0710  157.2516 H   0  0  0  0  0  0  0  0  0  0  0  0  # atno 8010 bound_to 7997
  139.9875  143.5676  152.2355 H   0  0  0  0  0  0  0  0  0  0  0  0  # atno 10167 bound_to 10162
  156.4949  130.8365  151.2586 H   0  0  0  0  0  0  0  0  0  0  0  0  # atno 10718 bound_to 10713
  154.2356  135.2776  155.2873 H   0  0  0  0  0  0  0  0  0  0  0  0  # atno 10763 bound_to 10752
  154.5587  135.5653  153.6991 H   0  0  0  0  0  0  0  0  0  0  0  0  # atno 10764 bound_to 10752
  153.0010  135.6292  154.2499 H   0  0  0  0  0  0  0  0  0  0  0  0  # atno 10765 bound_to 10752
  140.0483  134.5774  155.9295 H   0  0  0  0  0  0  0  0  0  0  0  0  # atno 11005 bound_to 11000
  144.7132  139.8292  143.7407 LP  0  0  0  0  0  0  0  0  0  0  0  0  # atno 17320 bound_to 7965
  146.1225  139.4246  143.0219 LP  0  0  0  0  0  0  0  0  0  0  0  0  # atno 17321 bound_to 7965
  139.6364  144.7650  151.2428 LP  0  0  0  0  0  0  0  0  0  0  0  0  # atno 17342 bound_to 10162
  140.7467  143.6391  150.8352 LP  0  0  0  0  0  0  0  0  0  0  0  0  # atno 17343 bound_to 10162
  157.7469  131.0001  150.2913 LP  0  0  0  0  0  0  0  0  0  0  0  0  # atno 17370 bound_to 10713
  156.3389  130.3812  149.7426 LP  0  0  0  0  0  0  0  0  0  0  0  0  # atno 17371 bound_to 10713
  141.1918  133.6573  156.5472 LP  0  0  0  0  0  0  0  0  0  0  0  0  # atno 17394 bound_to 11000
  140.3958  134.7400  157.4750 LP  0  0  0  0  0  0  0  0  0  0  0  0  # atno 17395 bound_to 11000

$$$$
