AV-unprocessed.smi:1801|AV-procd|sdf|7267|dock4
  -GOLD-   22720 8523D 1   1.00000     0.00000
 Structure written by MMmdl.
 38 39  0  0  0  0  0  0  0  0  2 V2000
  145.3726  134.1963  153.2895 C   0  0  0  0  0  0  0  0  0  0  0  0
  146.6498  133.5480  153.8501 C   0  0  2  0  0  0  0  0  0  0  0  0
  147.3062  134.4893  154.8873 C   0  0  0  0  0  0  0  0  0  0  0  0
  147.9775  135.6419  154.2909 N   0  0  0  0  0  0  0  0  0  0  0  0
  148.1594  136.8304  154.8849 C   0  0  0  0  0  0  0  0  0  0  0  0
  147.7795  137.0825  156.0285 O   0  0  0  0  0  0  0  0  0  0  0  0
  148.8027  137.6868  154.0721 N   0  0  0  0  0  0  0  0  0  0  0  0
  149.2258  139.0136  154.3503 C   0  0  0  0  0  0  0  0  0  0  0  0
  150.4368  139.3206  154.8413 N   0  0  0  0  0  0  0  0  0  0  0  0
  150.5954  140.6897  155.0132 N   0  0  0  0  0  0  0  0  0  0  0  0
  149.5005  141.3604  154.6442 C   0  0  0  0  0  0  0  0  0  0  0  0
  148.1691  140.3852  154.0463 S   0  0  0  0  0  0  0  0  0  0  0  0
  147.6230  133.1494  152.7156 C   0  0  0  0  0  0  0  0  0  0  0  0
  147.0345  132.1555  151.7864 N   0  3  0  0  0  0  0  0  0  0  0  0
  146.3292  131.0451  152.4563 C   0  0  0  0  0  0  0  0  0  0  0  0
  145.3720  130.4970  151.4034 C   0  0  0  0  0  0  0  0  0  0  0  0
  144.9196  131.7546  150.6681 C   0  0  0  0  0  0  0  0  0  0  0  0
  146.1157  132.7120  150.7628 C   0  0  0  0  0  0  0  0  0  0  0  0
  145.5997  135.1084  152.7366 H   0  0  0  0  0  0  0  0  0  0  0  0
  144.6824  134.4588  154.0919 H   0  0  0  0  0  0  0  0  0  0  0  0
  144.8429  133.5219  152.6164 H   0  0  0  0  0  0  0  0  0  0  0  0
  146.3428  132.6453  154.3782 H   0  0  0  0  0  0  0  0  0  0  0  0
  146.5493  134.8660  155.5761 H   0  0  0  0  0  0  0  0  0  0  0  0
  148.0258  133.9381  155.4950 H   0  0  0  0  0  0  0  0  0  0  0  0
  148.3154  135.5290  153.3463 H   0  0  0  0  0  0  0  0  0  0  0  0
  149.0237  137.3483  153.1473 H   0  0  0  0  0  0  0  0  0  0  0  0
  149.4773  142.4372  154.7225 H   0  0  0  0  0  0  0  0  0  0  0  0
  147.9046  134.0415  152.1542 H   0  0  0  0  0  0  0  0  0  0  0  0
  148.5486  132.7340  153.1153 H   0  0  0  0  0  0  0  0  0  0  0  0
  147.0241  130.2910  152.8264 H   0  0  0  0  0  0  0  0  0  0  0  0
  145.7595  131.4276  153.3051 H   0  0  0  0  0  0  0  0  0  0  0  0
  145.9093  129.8384  150.7192 H   0  0  0  0  0  0  0  0  0  0  0  0
  144.5429  129.9344  151.8336 H   0  0  0  0  0  0  0  0  0  0  0  0
  144.6225  131.5532  149.6382 H   0  0  0  0  0  0  0  0  0  0  0  0
  144.0607  132.1895  151.1816 H   0  0  0  0  0  0  0  0  0  0  0  0
  145.7769  133.7176  151.0179 H   0  0  0  0  0  0  0  0  0  0  0  0
  146.6467  132.7746  149.8125 H   0  0  0  0  0  0  0  0  0  0  0  0
  147.7982  131.7313  151.2792 H   0  0  0  0  0  0  0  0  0  0  0  0
  1  2  1  0  0  0  0
  1 19  1  0  0  0  0
  1 20  1  0  0  0  0
  1 21  1  0  0  0  0
  2  3  1  0  0  0  0
  2 13  1  0  0  0  0
  2 22  1  0  0  0  0
  3  4  1  0  0  0  0
  3 23  1  0  0  0  0
  3 24  1  0  0  0  0
  4  5  1  0  0  0  0
  4 25  1  0  0  0  0
  5  6  2  0  0  0  0
  5  7  1  0  0  0  0
  7  8  1  0  0  0  0
  7 26  1  0  0  0  0
  8 12  1  0  0  0  0
  8  9  2  0  0  0  0
  9 10  1  0  0  0  0
 10 11  2  0  0  0  0
 11 12  1  0  0  0  0
 11 27  1  0  0  0  0
 13 14  1  0  0  0  0
 13 28  1  0  0  0  0
 13 29  1  0  0  0  0
 14 18  1  0  0  0  0
 14 15  1  0  0  0  0
 14 38  1  0  0  0  0
 15 16  1  0  0  0  0
 15 30  1  0  0  0  0
 15 31  1  0  0  0  0
 16 17  1  0  0  0  0
 16 32  1  0  0  0  0
 16 33  1  0  0  0  0
 17 18  1  0  0  0  0
 17 34  1  0  0  0  0
 17 35  1  0  0  0  0
 18 36  1  0  0  0  0
 18 37  1  0  0  0  0
M  CHG  1  14   1
M  END
> <s_m_source_file>
AV-unprocessed.smi

> <i_m_source_file_index>
1801

> <i_lp_mmshare_version>
43012

> <i_f3d_flags>
0

> <s_epik_input>
W0NIMl0xW0NIMl1bQ0gyXVtDSDJdTjFbQ0gyXVtDQEhdKFtDSDNdKVtDSDJdW05IXUMoPU8pW05IXWMybm5bY0hdczI=

> <s_epik_cmdline>
J2VwaWtfcHl0aG9uJywgJy1waCcsICc3LjAnLCAnLXRuJywgJzgnLCAnLW1hJywgJzIwMCcsICctbWV0YWxfYmluZGluZycsICctaW1hZScsICc8aW5maWxlLm1hZT4nLCAnLW9tYWUnLCAnPG91dGZpbGUubWFlPic=

> <r_lp_tautomer_probability>
1

> <r_epik_Ionization_Penalty>
0.00281598

> <r_epik_Ionization_Penalty_Charging>
0.000371708

> <r_epik_Ionization_Penalty_Neutral>
0.00244427

> <r_epik_State_Penalty>
-0

> <r_epik_Charging_Adjusted_Penalty>
0.000371708

> <i_epik_Tot_Q>
1

> <i_epik_Tot_abs_Q>
1

> <r_epik_Metal_State_Penalty>
0.350595

> <b_epik_Metal_Only>
0

> <s_lp_Force_Field>
OPLS_2005

> <r_lp_Energy>
28.9171

> <b_lp_Chiralities_Consistent>
1

> <s_lp_Variant>
AV-unprocessed.smi:1801-1

> <Gold.Version>
5.8.1

> <Gold.Id.Protein>
6NUR|6NUR_protein|mol2

> <Gold.PLP.Fitness>
39.8963

> <Gold.PLP.PLP>
-28.2662

> <Gold.PLP.part.hbond>
-4.0000

> <Gold.PLP.part.metal>
0.0000

> <Gold.PLP.part.buried>
-3.7295

> <Gold.PLP.part.nonpolar>
-20.0842

> <Gold.PLP.part.repulsive>
0.2080

> <Gold.PLP.ligand.clash>
0.0000

> <Gold.PLP.ligand.torsion>
1.1619

> <Gold.PLP.Chemscore.Hbond>
3.6384

> <Gold.PLP.Chemscore.CHOScore>
1.0000

> <Gold.PLP.Chemscore.Metal>
0.0000

> <Gold.Chemscore.Hbonds>
donor molecule, donor type, donor heavy atom, donor atom, acceptor molecule, acceptor atom, score
      L1  H     4    25       P1  7948  1.00
      L1  H     7    26       P1  7948  1.00
      L1  H    14    38       P1 10747  1.00
      P1  H  7989  7998       L1    10  0.64
      L1  C    11    27       P1  8028  1.00

> <Gold.PLP.Chemscore.Internal.Correction>
0.0387

> <Gold.Rescore>
     Score         DG    S(hbond)    S(metal)    S(lipo)     H(rot)  DE(clash)    DE(int)     intcor
     16.69     -17.91       2.98        0.00      64.34       1.97       0.00       1.23       ----

> <Gold.Chemscore.Fitness>
16.6879

> <Gold.Chemscore.DG>
-17.9133

> <Gold.Chemscore.ZeroCoef>
-5.4800

> <Gold.Chemscore.Hbond>
2.9761

> <Gold.Chemscore.Metal>
0.0000

> <Gold.Chemscore.Lipo>
64.3423

> <Gold.Chemscore.Internal_Hbond>
0.0000

> <Gold.Chemscore.DEClash>
0.0000

> <Gold.Chemscore.DEInternal>
1.2254

> <Gold.Chemscore.Rot>
1.9667

> <Gold.Chemscore.Internal.Correction>
   9.000000E+99

> <Gold.Chemscore.Hbonds>
donor molecule, donor type, donor heavy atom, donor atom, acceptor molecule, acceptor atom, score
      L1  H     4    25       P1  7948  0.95
      L1  H     7    26       P1  7948  0.98
      L1  H    14    38       P1 10747  1.00
      P1  H  7989  7998       L1    10  0.02

> <Gold.Chemscore.Hbond.Weighted>
-9.9401

> <Gold.Chemscore.Metal.Weighted>
-0.0000

> <Gold.Chemscore.Lipo.Weighted>
-7.5281

> <Gold.Chemscore.Internal_Hbond.Weighted>
0.0000

> <Gold.Chemscore.DEClash.Weighted>
0.0000

> <Gold.Chemscore.DEInternal.Weighted>
1.2254

> <Gold.Chemscore.Rot.Weighted>
5.0348

> <Gold.Chemscore.Internal.Correction.Weighted>
   9.000000E+99

> <Gold.Protein.RotatedTorsions>
[ 6907 6896 6895 6894 ] final -115.33 input  -60.11 | X-H torsion
[ 7974 7965 7964 7962 ] final  115.73 input  175.53 | X-H torsion
[ 8008 7997 7996 7995 ] final   56.32 input   59.86 | X-H torsion
[ 10167 10162 10161 10158 ] final   25.38 input  -65.29 | X-H torsion
[ 10718 10713 10712 10709 ] final   30.41 input   66.30 | X-H torsion
[ 10763 10752 10751 10750 ] final   75.12 input  -60.55 | X-H torsion
[ 11005 11000 10999 10996 ] final  -95.81 input  -57.11 | X-H torsion

> <Gold.Protein.ActiveResidues>
 VAL166  LYS551  ARG553  GLY616  TRP617  ASP618  TYR619  PRO620  LYS621  CYS622 
 ASP623  PHE694  ASN695  SER759  ASP760  ASP761  ALA762  ILE779  LEU786  VAL792 
 PHE793  MET794  SER795  GLU796  ALA797  LYS798  CYS799  TRP800  GLU811  SER814 

> <Gold.Protein.RotatedAtoms>
  150.7969  133.8674  159.3248 H   0  0  0  0  0  0  0  0  0  0  0  0  # atno 6907 bound_to 6896
  151.6496  135.1001  160.0167 H   0  0  0  0  0  0  0  0  0  0  0  0  # atno 6908 bound_to 6896
  152.4052  133.6839  159.6385 H   0  0  0  0  0  0  0  0  0  0  0  0  # atno 6909 bound_to 6896
  145.1883  139.3013  143.4381 H   0  0  0  0  0  0  0  0  0  0  0  0  # atno 7974 bound_to 7965
  155.5155  140.3478  155.4396 H   0  0  0  0  0  0  0  0  0  0  0  0  # atno 8008 bound_to 7997
  156.0820  140.1389  156.9727 H   0  0  0  0  0  0  0  0  0  0  0  0  # atno 8009 bound_to 7997
  154.4585  140.0944  156.6803 H   0  0  0  0  0  0  0  0  0  0  0  0  # atno 8010 bound_to 7997
  140.5110  144.0159  150.6373 H   0  0  0  0  0  0  0  0  0  0  0  0  # atno 10167 bound_to 10162
  157.2592  130.7153  149.6445 H   0  0  0  0  0  0  0  0  0  0  0  0  # atno 10718 bound_to 10713
  153.0633  135.5000  154.8143 H   0  0  0  0  0  0  0  0  0  0  0  0  # atno 10763 bound_to 10752
  154.6915  135.2985  154.9474 H   0  0  0  0  0  0  0  0  0  0  0  0  # atno 10764 bound_to 10752
  154.0227  135.6740  153.4826 H   0  0  0  0  0  0  0  0  0  0  0  0  # atno 10765 bound_to 10752
  141.1431  133.8052  157.0486 H   0  0  0  0  0  0  0  0  0  0  0  0  # atno 11005 bound_to 11000
  146.3441  140.2087  142.8590 LP  0  0  0  0  0  0  0  0  0  0  0  0  # atno 17320 bound_to 7965
  145.0066  140.8678  143.5249 LP  0  0  0  0  0  0  0  0  0  0  0  0  # atno 17321 bound_to 7965
  140.3482  143.2979  152.0515 LP  0  0  0  0  0  0  0  0  0  0  0  0  # atno 17342 bound_to 10162
  139.4896  144.6393  151.6910 LP  0  0  0  0  0  0  0  0  0  0  0  0  # atno 17343 bound_to 10162
  155.9664  130.4403  150.5293 LP  0  0  0  0  0  0  0  0  0  0  0  0  # atno 17370 bound_to 10713
  157.3194  131.0679  151.1943 LP  0  0  0  0  0  0  0  0  0  0  0  0  # atno 17371 bound_to 10713
  140.0646  134.9736  157.1364 LP  0  0  0  0  0  0  0  0  0  0  0  0  # atno 17394 bound_to 11000
  140.3798  134.2300  155.7172 LP  0  0  0  0  0  0  0  0  0  0  0  0  # atno 17395 bound_to 11000

$$$$
