AV-unprocessed.smi:2178|AV-procd|sdf|8852|dock1
  -GOLD-   2272012 43D 1   1.00000     0.00000
 Structure written by MMmdl.
 46 48  0  0  0  0  0  0  0  0  1 V2000
  145.8246  135.3206  152.4065 C   0  0  0  0  0  0  0  0  0  0  0  0
  145.3552  134.0599  151.7036 C   0  0  0  0  0  0  0  0  0  0  0  0
  144.4938  134.1701  150.5927 C   0  0  0  0  0  0  0  0  0  0  0  0
  144.0301  133.0148  149.9368 C   0  0  0  0  0  0  0  0  0  0  0  0
  144.4215  131.7425  150.3919 C   0  0  0  0  0  0  0  0  0  0  0  0
  145.2849  131.6199  151.5001 C   0  0  0  0  0  0  0  0  0  0  0  0
  145.6935  130.2417  151.9859 C   0  0  0  0  0  0  0  0  0  0  0  0
  145.7657  132.7804  152.1499 C   0  0  0  0  0  0  0  0  0  0  0  0
  146.6050  132.6543  153.2266 O   0  0  0  0  0  0  0  0  0  0  0  0
  147.9411  133.0547  152.9591 C   0  0  0  0  0  0  0  0  0  0  0  0
  148.9009  132.0580  153.6256 C   0  0  2  0  0  0  0  0  0  0  0  0
  148.6250  130.7644  153.1244 O   0  0  0  0  0  0  0  0  0  0  0  0
  148.7472  132.0505  155.1598 C   0  0  0  0  0  0  0  0  0  0  0  0
  150.0272  132.1068  155.8536 N   0  0  0  0  0  0  0  0  0  0  0  0
  150.4000  132.9446  156.8540 C   0  0  0  0  0  0  0  0  0  0  0  0
  149.4761  133.9817  157.4152 C   0  0  0  0  0  0  0  0  0  0  0  0
  150.0919  135.2445  157.5498 O   0  0  0  0  0  0  0  0  0  0  0  0
  151.6409  132.7837  157.3143 N   0  0  0  0  0  0  0  0  0  0  0  0
  152.1180  131.7423  156.5427 C   0  0  0  0  0  0  0  0  0  0  0  0
  153.3769  131.1001  156.5461 C   0  0  0  0  0  0  0  0  0  0  0  0
  153.6407  130.0414  155.6525 C   0  0  0  0  0  0  0  0  0  0  0  0
  152.6513  129.6103  154.7452 C   0  0  0  0  0  0  0  0  0  0  0  0
  151.3900  130.2360  154.7258 C   0  0  0  0  0  0  0  0  0  0  0  0
  151.1319  131.2932  155.6191 C   0  0  0  0  0  0  0  0  0  0  0  0
  145.0957  136.1234  152.2920 H   0  0  0  0  0  0  0  0  0  0  0  0
  146.7711  135.6578  151.9840 H   0  0  0  0  0  0  0  0  0  0  0  0
  145.9648  135.1490  153.4741 H   0  0  0  0  0  0  0  0  0  0  0  0
  144.1824  135.1428  150.2413 H   0  0  0  0  0  0  0  0  0  0  0  0
  143.3687  133.1046  149.0876 H   0  0  0  0  0  0  0  0  0  0  0  0
  144.0546  130.8607  149.8870 H   0  0  0  0  0  0  0  0  0  0  0  0
  145.5787  130.1661  153.0676 H   0  0  0  0  0  0  0  0  0  0  0  0
  146.7360  130.0458  151.7351 H   0  0  0  0  0  0  0  0  0  0  0  0
  145.0821  129.4632  151.5287 H   0  0  0  0  0  0  0  0  0  0  0  0
  148.0897  133.0395  151.8782 H   0  0  0  0  0  0  0  0  0  0  0  0
  148.1394  134.0753  153.2901 H   0  0  0  0  0  0  0  0  0  0  0  0
  149.9279  132.3193  153.3692 H   0  0  0  0  0  0  0  0  0  0  0  0
  148.4183  130.8356  152.2052 H   0  0  0  0  0  0  0  0  0  0  0  0
  148.1379  132.8941  155.4841 H   0  0  0  0  0  0  0  0  0  0  0  0
  148.2138  131.1557  155.4833 H   0  0  0  0  0  0  0  0  0  0  0  0
  148.6105  134.0847  156.7595 H   0  0  0  0  0  0  0  0  0  0  0  0
  149.0970  133.6586  158.3841 H   0  0  0  0  0  0  0  0  0  0  0  0
  149.4478  135.9124  157.3717 H   0  0  0  0  0  0  0  0  0  0  0  0
  154.1407  131.4230  157.2379 H   0  0  0  0  0  0  0  0  0  0  0  0
  154.6067  129.5582  155.6634 H   0  0  0  0  0  0  0  0  0  0  0  0
  152.8617  128.7991  154.0637 H   0  0  0  0  0  0  0  0  0  0  0  0
  150.6312  129.9086  154.0309 H   0  0  0  0  0  0  0  0  0  0  0  0
  1  2  1  0  0  0  0
  1 25  1  0  0  0  0
  1 26  1  0  0  0  0
  1 27  1  0  0  0  0
  2  8  1  0  0  0  0
  2  3  2  0  0  0  0
  3  4  1  0  0  0  0
  3 28  1  0  0  0  0
  4  5  2  0  0  0  0
  4 29  1  0  0  0  0
  5  6  1  0  0  0  0
  5 30  1  0  0  0  0
  6  7  1  0  0  0  0
  6  8  2  0  0  0  0
  7 31  1  0  0  0  0
  7 32  1  0  0  0  0
  7 33  1  0  0  0  0
  8  9  1  0  0  0  0
  9 10  1  0  0  0  0
 10 11  1  0  0  0  0
 10 34  1  0  0  0  0
 10 35  1  0  0  0  0
 11 12  1  0  0  0  0
 11 13  1  0  0  0  0
 11 36  1  0  0  0  0
 12 37  1  0  0  0  0
 13 14  1  0  0  0  0
 13 38  1  0  0  0  0
 13 39  1  0  0  0  0
 14 24  1  0  0  0  0
 14 15  1  0  0  0  0
 15 16  1  0  0  0  0
 15 18  2  0  0  0  0
 16 17  1  0  0  0  0
 16 40  1  0  0  0  0
 16 41  1  0  0  0  0
 17 42  1  0  0  0  0
 18 19  1  0  0  0  0
 19 24  2  0  0  0  0
 19 20  1  0  0  0  0
 20 21  2  0  0  0  0
 20 43  1  0  0  0  0
 21 22  1  0  0  0  0
 21 44  1  0  0  0  0
 22 23  2  0  0  0  0
 22 45  1  0  0  0  0
 23 24  1  0  0  0  0
 23 46  1  0  0  0  0
M  END
> <s_m_source_file>
AV-unprocessed.smi

> <i_m_source_file_index>
2178

> <i_lp_mmshare_version>
43012

> <i_f3d_flags>
0

> <s_epik_input>
W0NIM11jMVtjSF1bY0hdW2NIXWMoW0NIM10pYzFPW0NIMl1bQ0BIXShbT0hdKVtDSDJdbihjKG4yKVtDSDJdW09IXSljKGMyMylbY0hdW2NIXVtjSF1bY0hdMw==

> <s_epik_cmdline>
J2VwaWtfcHl0aG9uJywgJy1waCcsICc3LjAnLCAnLXRuJywgJzgnLCAnLW1hJywgJzIwMCcsICctbWV0YWxfYmluZGluZycsICctaW1hZScsICc8aW5maWxlLm1hZT4nLCAnLW9tYWUnLCAnPG91dGZpbGUubWFlPic=

> <r_lp_tautomer_probability>
1

> <r_epik_Ionization_Penalty>
0.0555874

> <r_epik_Ionization_Penalty_Charging>
0

> <r_epik_Ionization_Penalty_Neutral>
0.0555874

> <r_epik_State_Penalty>
0.0478234

> <r_epik_Charging_Adjusted_Penalty>
0.0478234

> <i_epik_Tot_Q>
0

> <i_epik_Tot_abs_Q>
0

> <r_epik_Metal_State_Penalty>
4.98044e-05

> <b_epik_Metal_Only>
0

> <s_lp_Force_Field>
OPLS_2005

> <r_lp_Energy>
19.7692

> <b_lp_Chiralities_Consistent>
1

> <s_lp_Variant>
AV-unprocessed.smi:2178-1

> <Gold.Version>
5.8.1

> <Gold.Id.Protein>
6NUR|6NUR_protein|mol2

> <Gold.PLP.Fitness>
48.3730

> <Gold.PLP.PLP>
-42.9271

> <Gold.PLP.part.hbond>
-3.0000

> <Gold.PLP.part.metal>
0.0000

> <Gold.PLP.part.buried>
-4.0574

> <Gold.PLP.part.nonpolar>
-36.3017

> <Gold.PLP.part.repulsive>
0.1139

> <Gold.PLP.ligand.clash>
0.0000

> <Gold.PLP.ligand.torsion>
1.3112

> <Gold.PLP.Chemscore.Hbond>
2.6177

> <Gold.PLP.Chemscore.CHOScore>
0.0000

> <Gold.PLP.Chemscore.Metal>
0.0000

> <Gold.Chemscore.Hbonds>
donor molecule, donor type, donor heavy atom, donor atom, acceptor molecule, acceptor atom, score
      L1  H    12    37       P1 10747  0.99
      P1  H  6896  6907       L1    18  0.85
      P1  H  6896  6908       L1    17  0.18

> <Gold.PLP.Chemscore.Internal.Correction>
0.2150

> <Gold.Rescore>
     Score         DG    S(hbond)    S(metal)    S(lipo)     H(rot)  DE(clash)    DE(int)     intcor
     17.08     -18.67       2.43        0.00     107.92       2.96       0.09       1.49       ----

> <Gold.Chemscore.Fitness>
17.0821

> <Gold.Chemscore.DG>
-18.6668

> <Gold.Chemscore.ZeroCoef>
-5.4800

> <Gold.Chemscore.Hbond>
2.4334

> <Gold.Chemscore.Metal>
0.0000

> <Gold.Chemscore.Lipo>
107.9206

> <Gold.Chemscore.Internal_Hbond>
0.0000

> <Gold.Chemscore.DEClash>
0.0916

> <Gold.Chemscore.DEInternal>
1.4930

> <Gold.Chemscore.Rot>
2.9561

> <Gold.Chemscore.Internal.Correction>
   9.000000E+99

> <Gold.Chemscore.Hbonds>
donor molecule, donor type, donor heavy atom, donor atom, acceptor molecule, acceptor atom, score
      L1  H    12    37       P1 10747  0.87
      P1  H  6896  6907       L1    18  0.58
      P1  H  6896  6908       L1    17  0.01

> <Gold.Chemscore.Hbond.Weighted>
-8.1277

> <Gold.Chemscore.Metal.Weighted>
-0.0000

> <Gold.Chemscore.Lipo.Weighted>
-12.6267

> <Gold.Chemscore.Internal_Hbond.Weighted>
0.0000

> <Gold.Chemscore.DEClash.Weighted>
0.0916

> <Gold.Chemscore.DEInternal.Weighted>
1.4930

> <Gold.Chemscore.Rot.Weighted>
7.5677

> <Gold.Chemscore.Internal.Correction.Weighted>
   9.000000E+99

> <Gold.Protein.RotatedTorsions>
[ 6907 6896 6895 6894 ] final  175.74 input  -60.11 | X-H torsion
[ 7974 7965 7964 7962 ] final  -66.61 input  175.53 | X-H torsion
[ 8008 7997 7996 7995 ] final   13.86 input   59.86 | X-H torsion
[ 10167 10162 10161 10158 ] final -101.71 input  -65.29 | X-H torsion
[ 10718 10713 10712 10709 ] final -164.14 input   66.30 | X-H torsion
[ 10763 10752 10751 10750 ] final  -92.67 input  -60.55 | X-H torsion
[ 11005 11000 10999 10996 ] final  -36.31 input  -57.11 | X-H torsion

> <Gold.Protein.ActiveResidues>
 VAL166  LYS551  ARG553  GLY616  TRP617  ASP618  TYR619  PRO620  LYS621  CYS622 
 ASP623  PHE694  ASN695  SER759  ASP760  ASP761  ALA762  ILE779  LEU786  VAL792 
 PHE793  MET794  SER795  GLU796  ALA797  LYS798  CYS799  TRP800  GLU811  SER814 

> <Gold.Protein.RotatedAtoms>
  151.7314  133.3318  159.3340 H   0  0  0  0  0  0  0  0  0  0  0  0  # atno 6907 bound_to 6896
  150.7611  134.6360  159.6221 H   0  0  0  0  0  0  0  0  0  0  0  0  # atno 6908 bound_to 6896
  152.3589  134.6902  160.0265 H   0  0  0  0  0  0  0  0  0  0  0  0  # atno 6909 bound_to 6896
  145.7396  140.8959  143.0537 H   0  0  0  0  0  0  0  0  0  0  0  0  # atno 7974 bound_to 7965
  154.8404  140.2913  155.5663 H   0  0  0  0  0  0  0  0  0  0  0  0  # atno 8008 bound_to 7997
  156.3011  140.2515  156.3277 H   0  0  0  0  0  0  0  0  0  0  0  0  # atno 8009 bound_to 7997
  154.9132  140.0388  157.1947 H   0  0  0  0  0  0  0  0  0  0  0  0  # atno 8010 bound_to 7997
  140.2384  143.3556  152.0824 H   0  0  0  0  0  0  0  0  0  0  0  0  # atno 10167 bound_to 10162
  156.6348  130.8944  151.2984 H   0  0  0  0  0  0  0  0  0  0  0  0  # atno 10718 bound_to 10713
  154.6884  135.5222  153.8359 H   0  0  0  0  0  0  0  0  0  0  0  0  # atno 10763 bound_to 10752
  153.0614  135.6570  154.0463 H   0  0  0  0  0  0  0  0  0  0  0  0  # atno 10764 bound_to 10752
  154.0340  135.2983  155.3344 H   0  0  0  0  0  0  0  0  0  0  0  0  # atno 10765 bound_to 10752
  140.9865  133.7028  156.1774 H   0  0  0  0  0  0  0  0  0  0  0  0  # atno 11005 bound_to 11000
  144.6873  139.9443  143.7476 LP  0  0  0  0  0  0  0  0  0  0  0  0  # atno 17320 bound_to 7965
  146.0460  139.3466  143.0668 LP  0  0  0  0  0  0  0  0  0  0  0  0  # atno 17321 bound_to 7965
  139.5086  144.6852  151.5906 LP  0  0  0  0  0  0  0  0  0  0  0  0  # atno 17342 bound_to 10162
  140.6132  143.9397  150.6469 LP  0  0  0  0  0  0  0  0  0  0  0  0  # atno 17343 bound_to 10162
  157.7189  130.9533  150.1361 LP  0  0  0  0  0  0  0  0  0  0  0  0  # atno 17370 bound_to 10713
  156.2206  130.3673  149.8560 LP  0  0  0  0  0  0  0  0  0  0  0  0  # atno 17371 bound_to 10713
  140.7107  134.4465  157.5581 LP  0  0  0  0  0  0  0  0  0  0  0  0  # atno 17394 bound_to 11000
  139.8973  134.8640  156.2051 LP  0  0  0  0  0  0  0  0  0  0  0  0  # atno 17395 bound_to 11000

$$$$
