AV-unprocessed.smi:2411|AV-procd|sdf|9531|dock2
  -GOLD-   2272013163D 1   1.00000     0.00000
 Structure written by MMmdl.
 42 44  0  0  0  0  0  0  0  0  2 V2000
  146.0902  143.2846  153.4525 C   0  0  0  0  0  0  0  0  0  0  0  0
  146.5258  142.3884  154.5153 N   0  0  0  0  0  0  0  0  0  0  0  0
  145.5879  142.1925  155.6143 C   0  0  0  0  0  0  0  0  0  0  0  0
  147.1944  141.2400  154.0449 C   0  0  0  0  0  0  0  0  0  0  0  0
  146.5515  140.4478  153.1559 N   0  0  0  0  0  0  0  0  0  0  0  0
  147.1603  139.3606  152.6712 C   0  0  0  0  0  0  0  0  0  0  0  0
  148.3994  138.9999  153.0295 N   0  3  0  0  0  0  0  0  0  0  0  0
  149.0856  139.7562  153.9186 C   0  0  0  0  0  0  0  0  0  0  0  0
  148.5097  140.9273  154.4650 C   0  0  0  0  0  0  0  0  0  0  0  0
  149.1645  141.7359  155.4362 N   0  0  0  0  0  0  0  0  0  0  0  0
  150.2980  141.4691  156.1046 C   0  0  0  0  0  0  0  0  0  0  0  0
  150.9522  140.4317  156.0014 O   0  0  0  0  0  0  0  0  0  0  0  0
  150.6503  142.4964  156.8893 N   0  0  0  0  0  0  0  0  0  0  0  0
  151.8504  142.5549  157.7211 C   0  0  0  0  0  0  0  0  0  0  0  0
  152.0514  143.7973  158.5882 C   0  0  0  0  0  0  0  0  0  0  0  0
  152.9826  143.5583  159.7721 C   0  0  0  0  0  0  0  0  0  0  0  0
  153.4065  142.1526  160.1262 C   0  0  0  0  0  0  0  0  0  0  0  0
  152.5577  142.9469  161.0916 C   0  0  0  0  0  0  0  0  0  0  0  0
  152.1309  145.1676  157.9378 C   0  0  0  0  0  0  0  0  0  0  0  0
  150.8929  144.7801  158.7016 C   0  0  0  0  0  0  0  0  0  0  0  0
  146.9112  143.5623  152.7917 H   0  0  0  0  0  0  0  0  0  0  0  0
  145.6795  144.2024  153.8742 H   0  0  0  0  0  0  0  0  0  0  0  0
  145.3136  142.8118  152.8500 H   0  0  0  0  0  0  0  0  0  0  0  0
  146.0200  141.5565  156.3880 H   0  0  0  0  0  0  0  0  0  0  0  0
  144.6639  141.7328  155.2613 H   0  0  0  0  0  0  0  0  0  0  0  0
  145.3375  143.1501  156.0715 H   0  0  0  0  0  0  0  0  0  0  0  0
  146.6532  138.7225  151.9624 H   0  0  0  0  0  0  0  0  0  0  0  0
  150.0647  139.3766  154.1691 H   0  0  0  0  0  0  0  0  0  0  0  0
  148.7803  142.6617  155.5602 H   0  0  0  0  0  0  0  0  0  0  0  0
  150.0514  143.3091  156.9055 H   0  0  0  0  0  0  0  0  0  0  0  0
  151.8172  141.6896  158.3837 H   0  0  0  0  0  0  0  0  0  0  0  0
  152.7398  142.4157  157.1041 H   0  0  0  0  0  0  0  0  0  0  0  0
  153.7615  144.3127  159.8686 H   0  0  0  0  0  0  0  0  0  0  0  0
  152.9270  141.3309  159.5977 H   0  0  0  0  0  0  0  0  0  0  0  0
  154.4515  141.9943  160.3843 H   0  0  0  0  0  0  0  0  0  0  0  0
  153.0443  143.3194  161.9907 H   0  0  0  0  0  0  0  0  0  0  0  0
  151.5274  142.6312  161.2296 H   0  0  0  0  0  0  0  0  0  0  0  0
  152.7844  145.9071  158.3961 H   0  0  0  0  0  0  0  0  0  0  0  0
  152.0504  145.2397  156.8560 H   0  0  0  0  0  0  0  0  0  0  0  0
  149.9933  144.5910  158.1199 H   0  0  0  0  0  0  0  0  0  0  0  0
  150.7120  145.2807  159.6485 H   0  0  0  0  0  0  0  0  0  0  0  0
  148.8296  138.1581  152.6457 H   0  0  0  0  0  0  0  0  0  0  0  0
  1  2  1  0  0  0  0
  1 21  1  0  0  0  0
  1 22  1  0  0  0  0
  1 23  1  0  0  0  0
  2  3  1  0  0  0  0
  2  4  1  0  0  0  0
  3 24  1  0  0  0  0
  3 25  1  0  0  0  0
  3 26  1  0  0  0  0
  4  9  1  0  0  0  0
  4  5  2  0  0  0  0
  5  6  1  0  0  0  0
  6  7  2  0  0  0  0
  6 27  1  0  0  0  0
  7  8  1  0  0  0  0
  7 42  1  0  0  0  0
  8  9  2  0  0  0  0
  8 28  1  0  0  0  0
  9 10  1  0  0  0  0
 10 11  1  0  0  0  0
 10 29  1  0  0  0  0
 11 12  2  0  0  0  0
 11 13  1  0  0  0  0
 13 14  1  0  0  0  0
 13 30  1  0  0  0  0
 14 15  1  0  0  0  0
 14 31  1  0  0  0  0
 14 32  1  0  0  0  0
 15 20  1  0  0  0  0
 15 16  1  0  0  0  0
 15 19  1  0  0  0  0
 16 18  1  0  0  0  0
 16 17  1  0  0  0  0
 16 33  1  0  0  0  0
 17 18  1  0  0  0  0
 17 34  1  0  0  0  0
 17 35  1  0  0  0  0
 18 36  1  0  0  0  0
 18 37  1  0  0  0  0
 19 20  1  0  0  0  0
 19 38  1  0  0  0  0
 19 39  1  0  0  0  0
 20 40  1  0  0  0  0
 20 41  1  0  0  0  0
M  CHG  1   7   1
M  END
> <s_m_source_file>
AV-unprocessed.smi

> <i_m_source_file_index>
2411

> <i_lp_mmshare_version>
43012

> <i_f3d_flags>
0

> <s_epik_input>
W0NIM11OKFtDSDNdKWMxbltjSF1uW2NIXWMxW05IXUMoPU8pW05IXVtDSDJdQzIoW0NIMl1bQ0gyXTIpW0NIXTNbQ0gyXVtDSDJdMw==

> <s_epik_cmdline>
J2VwaWtfcHl0aG9uJywgJy1waCcsICc3LjAnLCAnLXRuJywgJzgnLCAnLW1hJywgJzIwMCcsICctbWV0YWxfYmluZGluZycsICctaW1hZScsICc8aW5maWxlLm1hZT4nLCAnLW9tYWUnLCAnPG91dGZpbGUubWFlPic=

> <r_lp_tautomer_probability>
0.999336

> <r_epik_Ionization_Penalty>
2.09151

> <r_epik_Ionization_Penalty_Charging>
2.09146

> <r_epik_Ionization_Penalty_Neutral>
4.82975e-05

> <r_epik_State_Penalty>
2.22693

> <r_epik_Charging_Adjusted_Penalty>
4.31839

> <i_epik_Tot_Q>
1

> <i_epik_Tot_abs_Q>
1

> <r_epik_Metal_State_Penalty>
2.24413

> <b_epik_Metal_Only>
0

> <s_lp_Force_Field>
OPLS_2005

> <r_lp_Energy>
35.9765

> <b_lp_Chiralities_Consistent>
1

> <s_lp_Variant>
AV-unprocessed.smi:2411-2

> <Gold.Version>
5.8.1

> <Gold.Id.Protein>
6NUR|6NUR_protein|mol2

> <Gold.PLP.Fitness>
50.1489

> <Gold.PLP.PLP>
-41.7717

> <Gold.PLP.part.hbond>
-3.4656

> <Gold.PLP.part.metal>
0.0000

> <Gold.PLP.part.buried>
-4.6284

> <Gold.PLP.part.nonpolar>
-35.7066

> <Gold.PLP.part.repulsive>
1.9003

> <Gold.PLP.ligand.clash>
0.0000

> <Gold.PLP.ligand.torsion>
2.0720

> <Gold.PLP.Chemscore.Hbond>
3.1935

> <Gold.PLP.Chemscore.CHOScore>
0.0000

> <Gold.PLP.Chemscore.Metal>
0.0000

> <Gold.Chemscore.Hbonds>
donor molecule, donor type, donor heavy atom, donor atom, acceptor molecule, acceptor atom, score
      L1  H     7    42       P1  7948  1.89
      L1  H    10    29       P1  8028  0.94
      L1  H    13    30       P1  8028  0.50

> <Gold.PLP.Chemscore.Internal.Correction>
2.9408

> <Gold.Rescore>
     Score         DG    S(hbond)    S(metal)    S(lipo)     H(rot)  DE(clash)    DE(int)     intcor
     15.78     -22.25       2.51        0.00     108.99       1.71       3.42       3.05       ----

> <Gold.Chemscore.Fitness>
15.7841

> <Gold.Chemscore.DG>
-22.2480

> <Gold.Chemscore.ZeroCoef>
-5.4800

> <Gold.Chemscore.Hbond>
2.5093

> <Gold.Chemscore.Metal>
0.0000

> <Gold.Chemscore.Lipo>
108.9914

> <Gold.Chemscore.Internal_Hbond>
0.0000

> <Gold.Chemscore.DEClash>
3.4159

> <Gold.Chemscore.DEInternal>
3.0479

> <Gold.Chemscore.Rot>
1.7051

> <Gold.Chemscore.Internal.Correction>
   9.000000E+99

> <Gold.Chemscore.Hbonds>
donor molecule, donor type, donor heavy atom, donor atom, acceptor molecule, acceptor atom, score
      L1  H     7    42       P1  7948  0.89
      L1  H    10    29       P1  8028  0.88
      L1  H    13    30       P1  8028  0.50

> <Gold.Chemscore.Hbond.Weighted>
-8.3810

> <Gold.Chemscore.Metal.Weighted>
-0.0000

> <Gold.Chemscore.Lipo.Weighted>
-12.7520

> <Gold.Chemscore.Internal_Hbond.Weighted>
0.0000

> <Gold.Chemscore.DEClash.Weighted>
3.4159

> <Gold.Chemscore.DEInternal.Weighted>
3.0479

> <Gold.Chemscore.Rot.Weighted>
4.3650

> <Gold.Chemscore.Internal.Correction.Weighted>
   9.000000E+99

> <Gold.Protein.RotatedTorsions>
[ 6907 6896 6895 6894 ] final -101.09 input  -60.11 | X-H torsion
[ 7974 7965 7964 7962 ] final  -24.52 input  175.53 | X-H torsion
[ 8008 7997 7996 7995 ] final   67.38 input   59.86 | X-H torsion
[ 10167 10162 10161 10158 ] final  154.87 input  -65.29 | X-H torsion
[ 10718 10713 10712 10709 ] final   67.33 input   66.30 | X-H torsion
[ 10763 10752 10751 10750 ] final   53.16 input  -60.55 | X-H torsion
[ 11005 11000 10999 10996 ] final   47.49 input  -57.11 | X-H torsion

> <Gold.Protein.ActiveResidues>
 VAL166  LYS551  ARG553  GLY616  TRP617  ASP618  TYR619  PRO620  LYS621  CYS622 
 ASP623  PHE694  ASN695  SER759  ASP760  ASP761  ALA762  ILE779  LEU786  VAL792 
 PHE793  MET794  SER795  GLU796  ALA797  LYS798  CYS799  TRP800  GLU811  SER814 

> <Gold.Protein.RotatedAtoms>
  150.7141  134.0787  159.3889 H   0  0  0  0  0  0  0  0  0  0  0  0  # atno 6907 bound_to 6896
  151.8770  135.0465  160.0494 H   0  0  0  0  0  0  0  0  0  0  0  0  # atno 6908 bound_to 6896
  152.2598  133.5251  159.5411 H   0  0  0  0  0  0  0  0  0  0  0  0  # atno 6909 bound_to 6896
  146.1550  140.4762  142.8595 H   0  0  0  0  0  0  0  0  0  0  0  0  # atno 7974 bound_to 7965
  155.6921  140.3496  155.4898 H   0  0  0  0  0  0  0  0  0  0  0  0  # atno 8008 bound_to 7997
  155.9515  140.1120  157.0995 H   0  0  0  0  0  0  0  0  0  0  0  0  # atno 8009 bound_to 7997
  154.4123  140.1193  156.5045 H   0  0  0  0  0  0  0  0  0  0  0  0  # atno 8010 bound_to 7997
  139.4822  144.5148  151.7968 H   0  0  0  0  0  0  0  0  0  0  0  0  # atno 10167 bound_to 10162
  157.6224  130.9315  150.0228 H   0  0  0  0  0  0  0  0  0  0  0  0  # atno 10718 bound_to 10713
  152.9793  135.5788  154.4696 H   0  0  0  0  0  0  0  0  0  0  0  0  # atno 10763 bound_to 10752
  154.4260  135.2772  155.1946 H   0  0  0  0  0  0  0  0  0  0  0  0  # atno 10764 bound_to 10752
  154.3674  135.6175  153.5776 H   0  0  0  0  0  0  0  0  0  0  0  0  # atno 10765 bound_to 10752
  140.1275  134.4749  155.8548 H   0  0  0  0  0  0  0  0  0  0  0  0  # atno 11005 bound_to 11000
  144.7951  140.6107  143.6515 LP  0  0  0  0  0  0  0  0  0  0  0  0  # atno 17320 bound_to 7965
  145.4731  139.1501  143.3803 LP  0  0  0  0  0  0  0  0  0  0  0  0  # atno 17321 bound_to 7965
  140.4656  144.1660  150.5911 LP  0  0  0  0  0  0  0  0  0  0  0  0  # atno 17342 bound_to 10162
  140.4438  143.2515  151.9438 LP  0  0  0  0  0  0  0  0  0  0  0  0  # atno 17343 bound_to 10162
  156.1376  130.3642  149.9632 LP  0  0  0  0  0  0  0  0  0  0  0  0  # atno 17370 bound_to 10713
  156.7680  130.9175  151.3643 LP  0  0  0  0  0  0  0  0  0  0  0  0  # atno 17371 bound_to 10713
  141.2164  133.6783  156.7006 LP  0  0  0  0  0  0  0  0  0  0  0  0  # atno 17394 bound_to 11000
  140.2885  134.8259  157.3996 LP  0  0  0  0  0  0  0  0  0  0  0  0  # atno 17395 bound_to 11000

$$$$
