AV-unprocessed.smi:1245|AV-procd|sdf|5239|dock8
  -GOLD-   22720 4343D 1   1.00000     0.00000
 Structure written by MMmdl.
 43 44  0  0  0  0  0  0  0  0  1 V2000
  149.5218  135.4307  156.4134 O   0  0  0  0  0  0  0  0  0  0  0  0
  149.3810  135.8377  155.2603 C   0  0  0  0  0  0  0  0  0  0  0  0
  149.8102  137.2583  154.8895 C   0  0  0  0  0  0  0  0  0  0  0  0
  151.3194  137.4929  155.0749 C   0  0  0  0  0  0  0  0  0  0  0  0
  151.7180  139.2923  155.2200 S   0  0  0  0  0  0  0  0  0  0  0  0
  153.1351  139.4808  154.8732 O   0  0  0  0  0  0  0  0  0  0  0  0
  150.6931  140.0537  154.4897 O   0  0  0  0  0  0  0  0  0  0  0  0
  151.5046  139.6059  157.0337 C   0  0  0  0  0  0  0  0  0  0  0  0
  150.0468  139.3400  157.4598 C   0  0  0  0  0  0  0  0  0  0  0  0
  149.4911  140.6644  157.9968 C   0  0  0  0  0  0  0  0  0  0  0  0
  150.4082  141.7455  157.4311 C   0  0  0  0  0  0  0  0  0  0  0  0
  151.7799  141.0754  157.3933 C   0  0  0  0  0  0  0  0  0  0  0  0
  148.8559  135.0967  154.2736 N   0  0  0  0  0  0  0  0  0  0  0  0
  148.3833  133.7231  154.4156 C   0  0  0  0  0  0  0  0  0  0  0  0
  148.6464  132.8680  153.1602 C   0  0  0  0  0  0  0  0  0  0  0  0
  147.3916  132.5672  152.3577 C   0  0  0  0  0  0  0  0  0  0  0  0
  146.5498  131.4906  152.7110 C   0  0  0  0  0  0  0  0  0  0  0  0
  145.3925  131.2628  151.9418 C   0  0  0  0  0  0  0  0  0  0  0  0
  145.1227  132.1157  150.8542 C   0  0  0  0  0  0  0  0  0  0  0  0
  146.0269  133.1618  150.5825 C   0  0  0  0  0  0  0  0  0  0  0  0
  147.1396  133.3887  151.3136 N   0  0  0  0  0  0  0  0  0  0  0  0
  149.5136  137.4946  153.8667 H   0  0  0  0  0  0  0  0  0  0  0  0
  149.2588  137.9446  155.5327 H   0  0  0  0  0  0  0  0  0  0  0  0
  151.6566  137.0056  155.9894 H   0  0  0  0  0  0  0  0  0  0  0  0
  151.8913  137.0660  154.2514 H   0  0  0  0  0  0  0  0  0  0  0  0
  152.1904  138.9427  157.5615 H   0  0  0  0  0  0  0  0  0  0  0  0
  149.4495  139.0083  156.6098 H   0  0  0  0  0  0  0  0  0  0  0  0
  149.9857  138.5561  158.2152 H   0  0  0  0  0  0  0  0  0  0  0  0
  148.4462  140.8201  157.7268 H   0  0  0  0  0  0  0  0  0  0  0  0
  149.5547  140.6699  159.0857 H   0  0  0  0  0  0  0  0  0  0  0  0
  150.0918  142.0101  156.4215 H   0  0  0  0  0  0  0  0  0  0  0  0
  150.4032  142.6559  158.0311 H   0  0  0  0  0  0  0  0  0  0  0  0
  152.2282  141.1243  158.3861 H   0  0  0  0  0  0  0  0  0  0  0  0
  152.4628  141.5738  156.7063 H   0  0  0  0  0  0  0  0  0  0  0  0
  148.7801  135.5119  153.3560 H   0  0  0  0  0  0  0  0  0  0  0  0
  148.9056  133.2866  155.2674 H   0  0  0  0  0  0  0  0  0  0  0  0
  147.3220  133.7129  154.6683 H   0  0  0  0  0  0  0  0  0  0  0  0
  149.3660  133.3751  152.5162 H   0  0  0  0  0  0  0  0  0  0  0  0
  149.1162  131.9269  153.4490 H   0  0  0  0  0  0  0  0  0  0  0  0
  146.7815  130.8578  153.5555 H   0  0  0  0  0  0  0  0  0  0  0  0
  144.7234  130.4500  152.1831 H   0  0  0  0  0  0  0  0  0  0  0  0
  144.2440  131.9720  150.2430 H   0  0  0  0  0  0  0  0  0  0  0  0
  145.8513  133.8354  149.7568 H   0  0  0  0  0  0  0  0  0  0  0  0
  1  2  2  0  0  0  0
  2  3  1  0  0  0  0
  2 13  1  0  0  0  0
  3  4  1  0  0  0  0
  3 22  1  0  0  0  0
  3 23  1  0  0  0  0
  4  5  1  0  0  0  0
  4 24  1  0  0  0  0
  4 25  1  0  0  0  0
  5  6  2  0  0  0  0
  5  7  2  0  0  0  0
  5  8  1  0  0  0  0
  8 12  1  0  0  0  0
  8  9  1  0  0  0  0
  8 26  1  0  0  0  0
  9 10  1  0  0  0  0
  9 27  1  0  0  0  0
  9 28  1  0  0  0  0
 10 11  1  0  0  0  0
 10 29  1  0  0  0  0
 10 30  1  0  0  0  0
 11 12  1  0  0  0  0
 11 31  1  0  0  0  0
 11 32  1  0  0  0  0
 12 33  1  0  0  0  0
 12 34  1  0  0  0  0
 13 14  1  0  0  0  0
 13 35  1  0  0  0  0
 14 15  1  0  0  0  0
 14 36  1  0  0  0  0
 14 37  1  0  0  0  0
 15 16  1  0  0  0  0
 15 38  1  0  0  0  0
 15 39  1  0  0  0  0
 16 21  1  0  0  0  0
 16 17  2  0  0  0  0
 17 18  1  0  0  0  0
 17 40  1  0  0  0  0
 18 19  2  0  0  0  0
 18 41  1  0  0  0  0
 19 20  1  0  0  0  0
 19 42  1  0  0  0  0
 20 21  2  0  0  0  0
 20 43  1  0  0  0  0
M  END
> <s_m_source_file>
AV-unprocessed.smi

> <i_m_source_file_index>
1245

> <i_lp_mmshare_version>
43012

> <i_f3d_flags>
0

> <s_epik_input>
W0NIMl0xW0NIMl1bQ0gyXVtDSDJdW0NIXTFTKD1PKSg9TylbQ0gyXVtDSDJdQyg9TylbTkhdW0NIMl1bQ0gyXWMyW2NIXVtjSF1bY0hdW2NIXW4y

> <s_epik_cmdline>
J2VwaWtfcHl0aG9uJywgJy1waCcsICc3LjAnLCAnLXRuJywgJzgnLCAnLW1hJywgJzIwMCcsICctbWV0YWxfYmluZGluZycsICctaW1hZScsICc8aW5maWxlLm1hZT4nLCAnLW9tYWUnLCAnPG91dGZpbGUubWFlPic=

> <r_epik_Ionization_Penalty>
0.0243247

> <r_epik_Ionization_Penalty_Charging>
0

> <r_epik_Ionization_Penalty_Neutral>
0.0243247

> <r_epik_State_Penalty>
0.0197389

> <r_epik_Charging_Adjusted_Penalty>
0.0197389

> <i_epik_Tot_Q>
0

> <i_epik_Tot_abs_Q>
0

> <r_epik_Metal_State_Penalty>
0.0189562

> <b_epik_Metal_Only>
0

> <s_lp_Force_Field>
OPLS_2005

> <r_lp_Energy>
12.2182

> <b_lp_Chiralities_Consistent>
1

> <s_lp_Variant>
AV-unprocessed.smi:1245-1

> <Gold.Version>
5.8.1

> <Gold.Id.Protein>
6NUR|6NUR_protein|mol2

> <Gold.PLP.Fitness>
44.0984

> <Gold.PLP.PLP>
-34.8826

> <Gold.PLP.part.hbond>
-3.9757

> <Gold.PLP.part.metal>
0.0000

> <Gold.PLP.part.buried>
-5.2998

> <Gold.PLP.part.nonpolar>
-26.2225

> <Gold.PLP.part.repulsive>
0.3653

> <Gold.PLP.ligand.clash>
0.0000

> <Gold.PLP.ligand.torsion>
1.5394

> <Gold.PLP.Chemscore.Hbond>
3.0000

> <Gold.PLP.Chemscore.CHOScore>
1.0000

> <Gold.PLP.Chemscore.Metal>
0.0000

> <Gold.Chemscore.Hbonds>
donor molecule, donor type, donor heavy atom, donor atom, acceptor molecule, acceptor atom, score
      L1  H    13    35       P1  7948  1.00
      P1  H  7989  7998       L1     7  1.00
      P1  H  7997  8010       L1     6  1.00
      L1  C    20    43       P1  7921  1.00

> <Gold.PLP.Chemscore.Internal.Correction>
0.2945

> <Gold.Rescore>
     Score         DG    S(hbond)    S(metal)    S(lipo)     H(rot)  DE(clash)    DE(int)     intcor
     17.74     -19.25       2.90        0.00      78.77       2.00       0.00       1.51       ----

> <Gold.Chemscore.Fitness>
17.7421

> <Gold.Chemscore.DG>
-19.2520

> <Gold.Chemscore.ZeroCoef>
-5.4800

> <Gold.Chemscore.Hbond>
2.8982

> <Gold.Chemscore.Metal>
0.0000

> <Gold.Chemscore.Lipo>
78.7660

> <Gold.Chemscore.Internal_Hbond>
0.0000

> <Gold.Chemscore.DEClash>
0.0036

> <Gold.Chemscore.DEInternal>
1.5063

> <Gold.Chemscore.Rot>
2.0014

> <Gold.Chemscore.Internal.Correction>
   9.000000E+99

> <Gold.Chemscore.Hbonds>
donor molecule, donor type, donor heavy atom, donor atom, acceptor molecule, acceptor atom, score
      L1  H    13    35       P1  7948  0.90
      P1  H  7989  7998       L1     7  0.25
      P1  H  7997  8010       L1     6  0.97

> <Gold.Chemscore.Hbond.Weighted>
-9.6799

> <Gold.Chemscore.Metal.Weighted>
-0.0000

> <Gold.Chemscore.Lipo.Weighted>
-9.2156

> <Gold.Chemscore.Internal_Hbond.Weighted>
0.0000

> <Gold.Chemscore.DEClash.Weighted>
0.0036

> <Gold.Chemscore.DEInternal.Weighted>
1.5063

> <Gold.Chemscore.Rot.Weighted>
5.1236

> <Gold.Chemscore.Internal.Correction.Weighted>
   9.000000E+99

> <Gold.Protein.RotatedTorsions>
[ 6907 6896 6895 6894 ] final   91.36 input  -60.11 | X-H torsion
[ 7974 7965 7964 7962 ] final -160.93 input  175.53 | X-H torsion
[ 8008 7997 7996 7995 ] final  126.51 input   59.86 | X-H torsion
[ 10167 10162 10161 10158 ] final  128.82 input  -65.29 | X-H torsion
[ 10718 10713 10712 10709 ] final  149.29 input   66.30 | X-H torsion
[ 10763 10752 10751 10750 ] final -179.54 input  -60.55 | X-H torsion
[ 11005 11000 10999 10996 ] final  -11.57 input  -57.11 | X-H torsion

> <Gold.Protein.ActiveResidues>
 VAL166  LYS551  ARG553  GLY616  TRP617  ASP618  TYR619  PRO620  LYS621  CYS622 
 ASP623  PHE694  ASN695  SER759  ASP760  ASP761  ALA762  ILE779  LEU786  VAL792 
 PHE793  MET794  SER795  GLU796  ALA797  LYS798  CYS799  TRP800  GLU811  SER814 

> <Gold.Protein.RotatedAtoms>
  152.5449  134.1669  159.8580 H   0  0  0  0  0  0  0  0  0  0  0  0  # atno 6907 bound_to 6896
  151.1682  133.4794  159.2601 H   0  0  0  0  0  0  0  0  0  0  0  0  # atno 6908 bound_to 6896
  151.1302  135.0137  159.8634 H   0  0  0  0  0  0  0  0  0  0  0  0  # atno 6909 bound_to 6896
  144.7409  140.3471  143.6123 H   0  0  0  0  0  0  0  0  0  0  0  0  # atno 7974 bound_to 7965
  156.2866  140.2691  156.2123 H   0  0  0  0  0  0  0  0  0  0  0  0  # atno 8008 bound_to 7997
  155.0252  140.0386  157.2471 H   0  0  0  0  0  0  0  0  0  0  0  0  # atno 8009 bound_to 7997
  154.7401  140.2723  155.6385 H   0  0  0  0  0  0  0  0  0  0  0  0  # atno 8010 bound_to 7997
  139.5508  144.6811  151.4329 H   0  0  0  0  0  0  0  0  0  0  0  0  # atno 10167 bound_to 10162
  157.2980  131.0865  151.1412 H   0  0  0  0  0  0  0  0  0  0  0  0  # atno 10718 bound_to 10713
  154.5337  135.2801  155.1157 H   0  0  0  0  0  0  0  0  0  0  0  0  # atno 10763 bound_to 10752
  154.2667  135.6311  153.5298 H   0  0  0  0  0  0  0  0  0  0  0  0  # atno 10764 bound_to 10752
  152.9963  135.5618  154.5858 H   0  0  0  0  0  0  0  0  0  0  0  0  # atno 10765 bound_to 10752
  140.7567  133.8548  155.9090 H   0  0  0  0  0  0  0  0  0  0  0  0  # atno 11005 bound_to 11000
  145.7314  139.1737  143.2428 LP  0  0  0  0  0  0  0  0  0  0  0  0  # atno 17320 bound_to 7965
  146.1203  140.7317  142.9461 LP  0  0  0  0  0  0  0  0  0  0  0  0  # atno 17321 bound_to 7965
  140.6770  143.8167  150.7071 LP  0  0  0  0  0  0  0  0  0  0  0  0  # atno 17342 bound_to 10162
  140.1609  143.4276  152.2067 LP  0  0  0  0  0  0  0  0  0  0  0  0  # atno 17343 bound_to 10162
  157.2782  130.6737  149.6053 LP  0  0  0  0  0  0  0  0  0  0  0  0  # atno 17370 bound_to 10713
  155.9670  130.4458  150.5515 LP  0  0  0  0  0  0  0  0  0  0  0  0  # atno 17371 bound_to 10713
  140.9701  134.1542  157.4583 LP  0  0  0  0  0  0  0  0  0  0  0  0  # atno 17394 bound_to 11000
  139.8778  134.9975  156.5852 LP  0  0  0  0  0  0  0  0  0  0  0  0  # atno 17395 bound_to 11000

$$$$
