AV-unprocessed.smi:72|AV-procd|sdf|665|dock4
  -GOLD-   2262016563D 1   1.00000     0.00000
 Structure written by MMmdl.
 29 30  0  0  0  0  0  0  0  0  1 V2000
  140.5893  134.8764  153.7996 N   0  0  0  0  0  0  0  0  0  0  0  0
  141.7396  135.3481  153.4739 C   0  0  0  0  0  0  0  0  0  0  0  0
  141.9658  136.6045  152.8931 N   0  0  0  0  0  0  0  0  0  0  0  0
  143.1822  136.9447  152.5963 C   0  0  0  0  0  0  0  0  0  0  0  0
  144.3168  136.0585  152.8278 N   0  0  0  0  0  0  0  0  0  0  0  0
  145.7483  136.4465  152.4927 C   0  0  2  0  0  0  0  0  0  0  0  0
  146.4936  136.5851  153.6684 O   0  0  0  0  0  0  0  0  0  0  0  0
  146.5666  137.9602  154.0342 C   0  0  1  0  0  0  0  0  0  0  0  0
  147.6957  138.2104  155.0489 C   0  0  0  0  0  0  0  0  0  0  0  0
  148.9081  137.6760  154.5613 O   0  0  0  0  0  0  0  0  0  0  0  0
  146.7317  138.6389  152.6714 C   0  0  1  0  0  0  0  0  0  0  0  0
  148.0836  138.5768  152.2461 O   0  0  0  0  0  0  0  0  0  0  0  0
  145.7965  137.8184  151.7829 C   0  0  1  0  0  0  0  0  0  0  0  0
  146.2480  137.7434  150.4435 O   0  0  0  0  0  0  0  0  0  0  0  0
  144.1057  134.8057  153.4557 C   0  0  0  0  0  0  0  0  0  0  0  0
  145.0298  134.0371  153.7208 O   0  0  0  0  0  0  0  0  0  0  0  0
  142.8222  134.5016  153.7439 N   0  0  0  0  0  0  0  0  0  0  0  0
  146.1413  135.6152  151.9042 H   0  0  0  0  0  0  0  0  0  0  0  0
  145.6107  138.2770  154.4558 H   0  0  0  0  0  0  0  0  0  0  0  0
  146.4347  139.6877  152.7035 H   0  0  0  0  0  0  0  0  0  0  0  0
  144.8037  138.2710  151.7999 H   0  0  0  0  0  0  0  0  0  0  0  0
  139.8595  135.5374  153.5773 H   0  0  0  0  0  0  0  0  0  0  0  0
  143.4196  137.9139  152.1578 H   0  0  0  0  0  0  0  0  0  0  0  0
  147.8106  139.2733  155.2645 H   0  0  0  0  0  0  0  0  0  0  0  0
  147.4725  137.7080  155.9905 H   0  0  0  0  0  0  0  0  0  0  0  0
  148.8064  137.4946  153.6395 H   0  0  0  0  0  0  0  0  0  0  0  0
  148.3465  137.6688  152.2306 H   0  0  0  0  0  0  0  0  0  0  0  0
  145.5848  138.1206  149.8849 H   0  0  0  0  0  0  0  0  0  0  0  0
  142.6427  133.6105  154.1830 H   0  0  0  0  0  0  0  0  0  0  0  0
  1  2  2  0  0  0  0
  1 22  1  0  0  0  0
  2 17  1  0  0  0  0
  2  3  1  0  0  0  0
  3  4  2  0  0  0  0
  4  5  1  0  0  0  0
  4 23  1  0  0  0  0
  5  6  1  0  0  0  0
  5 15  1  0  0  0  0
  6 18  1  0  0  0  0
  6 13  1  0  0  0  0
  6  7  1  0  0  0  0
  7  8  1  0  0  0  0
  8 19  1  0  0  0  0
  8  9  1  0  0  0  0
  8 11  1  0  0  0  0
  9 10  1  0  0  0  0
  9 24  1  0  0  0  0
  9 25  1  0  0  0  0
 10 26  1  0  0  0  0
 11 20  1  0  0  0  0
 11 12  1  0  0  0  0
 11 13  1  0  0  0  0
 12 27  1  0  0  0  0
 13 21  1  0  0  0  0
 13 14  1  0  0  0  0
 14 28  1  0  0  0  0
 15 16  2  0  0  0  0
 15 17  1  0  0  0  0
 17 29  1  0  0  0  0
M  END
> <s_m_source_file>
AV-unprocessed.smi

> <i_m_source_file_index>
72

> <i_lp_mmshare_version>
43012

> <i_f3d_flags>
0

> <s_epik_input>
W05IMl1jMW5bY0hdbihjKD1PKW4xKVtDQEBIXTJPW0NASF0oW0NIMl1bT0hdKVtDQEBIXShbT0hdKVtDQEhdMltPSF0=

> <s_epik_cmdline>
J2VwaWtfcHl0aG9uJywgJy1waCcsICc3LjAnLCAnLXRuJywgJzgnLCAnLW1hJywgJzIwMCcsICctbWV0YWxfYmluZGluZycsICctaW1hZScsICc8aW5maWxlLm1hZT4nLCAnLW9tYWUnLCAnPG91dGZpbGUubWFlPic=

> <r_lp_tautomer_probability>
7.17554e-07

> <r_epik_Ionization_Penalty>
0.0066451

> <r_epik_Ionization_Penalty_Charging>
0.00663793

> <r_epik_Ionization_Penalty_Neutral>
7.17052e-06

> <r_epik_State_Penalty>
0.419231

> <r_epik_Charging_Adjusted_Penalty>
0.425868

> <i_epik_Tot_Q>
0

> <i_epik_Tot_abs_Q>
0

> <r_epik_Metal_State_Penalty>
1.44144

> <b_epik_Metal_Only>
0

> <s_epik_Chemistry_Notes>
This compound contains an acetal/aminal-like group ( X-CH(R)-Y where X, Y are N, S, or O) that may be acid/base labile, releasing an aldehyde.

> <s_lp_Force_Field>
OPLS_2005

> <r_lp_Energy>
42.7632

> <b_lp_Chiralities_Consistent>
1

> <s_lp_Variant>
AV-unprocessed.smi:72-3

> <Gold.Version>
5.8.1

> <Gold.Id.Protein>
6NUR|6NUR_protein|mol2

> <Gold.PLP.Fitness>
45.1422

> <Gold.PLP.PLP>
-22.0478

> <Gold.PLP.part.hbond>
-7.3884

> <Gold.PLP.part.metal>
0.0000

> <Gold.PLP.part.buried>
-1.5738

> <Gold.PLP.part.nonpolar>
-14.0062

> <Gold.PLP.part.repulsive>
1.0996

> <Gold.PLP.ligand.clash>
0.0000

> <Gold.PLP.ligand.torsion>
0.0658

> <Gold.PLP.Chemscore.Hbond>
5.7668

> <Gold.PLP.Chemscore.CHOScore>
1.9674

> <Gold.PLP.Chemscore.Metal>
0.0000

> <Gold.Chemscore.Hbonds>
donor molecule, donor type, donor heavy atom, donor atom, acceptor molecule, acceptor atom, score
      L1  H    10    26       P1  7948  0.65
      L1  H    12    27       P1  7948  1.00
      L1  H    14    28       P1 10171  0.91
      L1  H    17    29       P1 10957  1.00
      P1  H  7954  7966       L1    14  0.86
      P1  H 11000 11005       L1     1  0.94
      L1  C     4    23       P1 10171  1.00
      L1  C     4    23       P1 10175  0.97

> <Gold.PLP.Chemscore.Internal.Correction>
0.0236

> <Gold.Rescore>
     Score         DG    S(hbond)    S(metal)    S(lipo)     H(rot)  DE(clash)    DE(int)     intcor
     12.23     -14.58       5.14        0.00      19.77       4.06       1.19       1.15       ----

> <Gold.Chemscore.Fitness>
12.2297

> <Gold.Chemscore.DG>
-14.5765

> <Gold.Chemscore.ZeroCoef>
-5.4800

> <Gold.Chemscore.Hbond>
5.1428

> <Gold.Chemscore.Metal>
0.0000

> <Gold.Chemscore.Lipo>
19.7710

> <Gold.Chemscore.Internal_Hbond>
0.0000

> <Gold.Chemscore.DEClash>
1.1937

> <Gold.Chemscore.DEInternal>
1.1531

> <Gold.Chemscore.Rot>
4.0600

> <Gold.Chemscore.Internal.Correction>
   9.000000E+99

> <Gold.Chemscore.Hbonds>
donor molecule, donor type, donor heavy atom, donor atom, acceptor molecule, acceptor atom, score
      L1  H    10    26       P1  7948  0.63
      L1  H    12    27       P1  7948  0.97
      L1  H    14    28       P1 10171  0.88
      L1  H    17    29       P1 10957  0.99
      P1  H  7954  7966       L1    14  0.79
      P1  H 11000 11005       L1     1  0.30

> <Gold.Chemscore.Hbond.Weighted>
-17.1769

> <Gold.Chemscore.Metal.Weighted>
-0.0000

> <Gold.Chemscore.Lipo.Weighted>
-2.3132

> <Gold.Chemscore.Internal_Hbond.Weighted>
0.0000

> <Gold.Chemscore.DEClash.Weighted>
1.1937

> <Gold.Chemscore.DEInternal.Weighted>
1.1531

> <Gold.Chemscore.Rot.Weighted>
10.3936

> <Gold.Chemscore.Internal.Correction.Weighted>
   9.000000E+99

> <Gold.Protein.RotatedTorsions>
[ 6907 6896 6895 6894 ] final   60.15 input  -60.11 | X-H torsion
[ 7974 7965 7964 7962 ] final -164.84 input  175.53 | X-H torsion
[ 8008 7997 7996 7995 ] final  128.69 input   59.86 | X-H torsion
[ 10167 10162 10161 10158 ] final -160.52 input  -65.29 | X-H torsion
[ 10718 10713 10712 10709 ] final   87.64 input   66.30 | X-H torsion
[ 10763 10752 10751 10750 ] final -100.05 input  -60.55 | X-H torsion
[ 11005 11000 10999 10996 ] final   43.25 input  -57.11 | X-H torsion

> <Gold.Protein.ActiveResidues>
 VAL166  LYS551  ARG553  GLY616  TRP617  ASP618  TYR619  PRO620  LYS621  CYS622 
 ASP623  PHE694  ASN695  SER759  ASP760  ASP761  ALA762  ILE779  LEU786  VAL792 
 PHE793  MET794  SER795  GLU796  ALA797  LYS798  CYS799  TRP800  GLU811  SER814 

> <Gold.Protein.RotatedAtoms>
  152.3978  134.6336  160.0081 H   0  0  0  0  0  0  0  0  0  0  0  0  # atno 6907 bound_to 6896
  151.6551  133.3313  159.3169 H   0  0  0  0  0  0  0  0  0  0  0  0  # atno 6908 bound_to 6896
  150.7883  134.6929  159.6551 H   0  0  0  0  0  0  0  0  0  0  0  0  # atno 6909 bound_to 6896
  144.7286  140.2902  143.6221 H   0  0  0  0  0  0  0  0  0  0  0  0  # atno 7974 bound_to 7965
  156.2920  140.2638  156.2477 H   0  0  0  0  0  0  0  0  0  0  0  0  # atno 8008 bound_to 7997
  154.9914  140.0388  157.2339 H   0  0  0  0  0  0  0  0  0  0  0  0  # atno 8009 bound_to 7997
  154.7682  140.2773  155.6163 H   0  0  0  0  0  0  0  0  0  0  0  0  # atno 8010 bound_to 7997
  139.6534  144.0043  152.2177 H   0  0  0  0  0  0  0  0  0  0  0  0  # atno 10167 bound_to 10162
  157.6942  131.0263  150.3154 H   0  0  0  0  0  0  0  0  0  0  0  0  # atno 10718 bound_to 10713
  154.7548  135.4949  153.9354 H   0  0  0  0  0  0  0  0  0  0  0  0  # atno 10763 bound_to 10752
  153.1183  135.6726  153.9387 H   0  0  0  0  0  0  0  0  0  0  0  0  # atno 10764 bound_to 10752
  153.9127  135.3097  155.3427 H   0  0  0  0  0  0  0  0  0  0  0  0  # atno 10765 bound_to 10752
  140.1662  134.4279  155.8286 H   0  0  0  0  0  0  0  0  0  0  0  0  # atno 11005 bound_to 11000
  145.7862  139.1910  143.2129 LP  0  0  0  0  0  0  0  0  0  0  0  0  # atno 17320 bound_to 7965
  146.0793  140.7782  142.9649 LP  0  0  0  0  0  0  0  0  0  0  0  0  # atno 17321 bound_to 7965
  139.9763  144.6459  150.7942 LP  0  0  0  0  0  0  0  0  0  0  0  0  # atno 17342 bound_to 10162
  140.7548  143.3034  151.3024 LP  0  0  0  0  0  0  0  0  0  0  0  0  # atno 17343 bound_to 10162
  156.3649  130.3853  149.7222 LP  0  0  0  0  0  0  0  0  0  0  0  0  # atno 17370 bound_to 10713
  156.4655  130.7972  151.2991 LP  0  0  0  0  0  0  0  0  0  0  0  0  # atno 17371 bound_to 10713
  141.2214  133.6935  156.7682 LP  0  0  0  0  0  0  0  0  0  0  0  0  # atno 17394 bound_to 11000
  140.2431  134.8598  157.3593 LP  0  0  0  0  0  0  0  0  0  0  0  0  # atno 17395 bound_to 11000

$$$$
