AV-unprocessed.smi:3085|AV-procd|sdf|11761|dock1
  -GOLD-   2272017143D 1   1.00000     0.00000
 Structure written by MMmdl.
 27 28  0  0  0  0  0  0  0  0  3 V2000
  152.8027  142.2103  159.2622 C   0  0  0  0  0  0  0  0  0  0  0  0
  151.7433  141.1132  159.1170 C   0  0  0  0  0  0  0  0  0  0  0  0
  151.5439  140.7022  157.6746 C   0  0  0  0  0  0  0  0  0  0  0  0
  150.4051  140.7782  156.9929 N   0  0  0  0  0  0  0  0  0  0  0  0
  150.6696  140.2669  155.7825 C   0  0  0  0  0  0  0  0  0  0  0  0
  149.6678  140.1907  154.6494 C   0  0  1  0  0  0  0  0  0  0  0  0
  149.5246  138.7463  154.1315 C   0  0  0  0  0  0  0  0  0  0  0  0
  148.5369  138.6919  153.0366 N   0  3  0  0  0  0  0  0  0  0  0  0
  147.2415  139.2701  153.4434 C   0  0  0  0  0  0  0  0  0  0  0  0
  147.4481  140.6946  153.9847 C   0  0  0  0  0  0  0  0  0  0  0  0
  148.3858  140.6669  155.0548 O   0  0  0  0  0  0  0  0  0  0  0  0
  151.9534  139.8852  155.6974 N   0  0  0  0  0  0  0  0  0  0  0  0
  152.4753  140.1489  156.8777 N   0  5  0  0  0  0  0  0  0  0  0  0
  152.9265  142.4959  160.3066 H   0  0  0  0  0  0  0  0  0  0  0  0
  152.5224  143.1032  158.7026 H   0  0  0  0  0  0  0  0  0  0  0  0
  153.7702  141.8711  158.8908 H   0  0  0  0  0  0  0  0  0  0  0  0
  152.0313  140.2371  159.6987 H   0  0  0  0  0  0  0  0  0  0  0  0
  150.7907  141.4592  159.5195 H   0  0  0  0  0  0  0  0  0  0  0  0
  150.0388  140.8315  153.8470 H   0  0  0  0  0  0  0  0  0  0  0  0
  150.4818  138.3719  153.7674 H   0  0  0  0  0  0  0  0  0  0  0  0
  149.2047  138.0837  154.9370 H   0  0  0  0  0  0  0  0  0  0  0  0
  148.8965  139.2220  152.2556 H   0  0  0  0  0  0  0  0  0  0  0  0
  146.5645  139.2781  152.5892 H   0  0  0  0  0  0  0  0  0  0  0  0
  146.7896  138.6375  154.2086 H   0  0  0  0  0  0  0  0  0  0  0  0
  147.7970  141.3653  153.1978 H   0  0  0  0  0  0  0  0  0  0  0  0
  146.5042  141.0981  154.3518 H   0  0  0  0  0  0  0  0  0  0  0  0
  148.4043  137.7322  152.7511 H   0  0  0  0  0  0  0  0  0  0  0  0
  1  2  1  0  0  0  0
  1 14  1  0  0  0  0
  1 15  1  0  0  0  0
  1 16  1  0  0  0  0
  2  3  1  0  0  0  0
  2 17  1  0  0  0  0
  2 18  1  0  0  0  0
  3 13  1  0  0  0  0
  3  4  2  0  0  0  0
  4  5  1  0  0  0  0
  5  6  1  0  0  0  0
  5 12  2  0  0  0  0
  6 11  1  0  0  0  0
  6  7  1  0  0  0  0
  6 19  1  0  0  0  0
  7  8  1  0  0  0  0
  7 20  1  0  0  0  0
  7 21  1  0  0  0  0
  8  9  1  0  0  0  0
  8 22  1  0  0  0  0
  8 27  1  0  0  0  0
  9 10  1  0  0  0  0
  9 23  1  0  0  0  0
  9 24  1  0  0  0  0
 10 11  1  0  0  0  0
 10 25  1  0  0  0  0
 10 26  1  0  0  0  0
 12 13  1  0  0  0  0
M  CHG  1   8   1
M  CHG  1  13  -1
M  END
> <s_m_source_file>
AV-unprocessed.smi

> <i_m_source_file_index>
3085

> <i_lp_mmshare_version>
43012

> <i_f3d_flags>
0

> <s_epik_input>
W0NIM11bQ0gyXWMxbmMobltuSF0xKVtDQEBIXTJbQ0gyXVtOSF1bQ0gyXVtDSDJdTzI=

> <s_epik_cmdline>
J2VwaWtfcHl0aG9uJywgJy1waCcsICc3LjAnLCAnLXRuJywgJzgnLCAnLW1hJywgJzIwMCcsICctbWV0YWxfYmluZGluZycsICctaW1hZScsICc8aW5maWxlLm1hZT4nLCAnLW9tYWUnLCAnPG91dGZpbGUubWFlPic=

> <r_lp_tautomer_probability>
0.948284

> <r_epik_Ionization_Penalty>
5.24708

> <r_epik_Ionization_Penalty_Charging>
5.24708

> <r_epik_Ionization_Penalty_Neutral>
2.10756e-13

> <r_epik_State_Penalty>
3.12001

> <r_epik_Charging_Adjusted_Penalty>
8.36709

> <i_epik_Tot_Q>
0

> <i_epik_Tot_abs_Q>
2

> <r_epik_Metal_State_Penalty>
0.69864

> <b_epik_Metal_Only>
1

> <s_lp_Force_Field>
OPLS_2005

> <r_lp_Energy>
4.67027

> <b_lp_Chiralities_Consistent>
1

> <s_lp_Variant>
AV-unprocessed.smi:3085-12

> <Gold.Version>
5.8.1

> <Gold.Id.Protein>
6NUR|6NUR_protein|mol2

> <Gold.PLP.Fitness>
37.8719

> <Gold.PLP.PLP>
-22.9240

> <Gold.PLP.part.hbond>
-3.1397

> <Gold.PLP.part.metal>
0.0000

> <Gold.PLP.part.buried>
-2.8982

> <Gold.PLP.part.nonpolar>
-17.2069

> <Gold.PLP.part.repulsive>
0.1896

> <Gold.PLP.ligand.clash>
0.0000

> <Gold.PLP.ligand.torsion>
0.0208

> <Gold.PLP.Chemscore.Hbond>
4.9913

> <Gold.PLP.Chemscore.CHOScore>
0.0000

> <Gold.PLP.Chemscore.Metal>
0.0000

> <Gold.Chemscore.Hbonds>
donor molecule, donor type, donor heavy atom, donor atom, acceptor molecule, acceptor atom, score
      L1  H     8    22       P1  7957  0.99
      L1  H     8    27       P1  7948  2.00
      P1  H  7997  8010       L1    13  2.00

> <Gold.PLP.Chemscore.Internal.Correction>
0.0158

> <Gold.Rescore>
     Score         DG    S(hbond)    S(metal)    S(lipo)     H(rot)  DE(clash)    DE(int)     intcor
     16.59     -16.74       2.74        0.00      45.96       1.28       0.04       0.11       ----

> <Gold.Chemscore.Fitness>
16.5926

> <Gold.Chemscore.DG>
-16.7391

> <Gold.Chemscore.ZeroCoef>
-5.4800

> <Gold.Chemscore.Hbond>
2.7445

> <Gold.Chemscore.Metal>
0.0000

> <Gold.Chemscore.Lipo>
45.9648

> <Gold.Chemscore.Internal_Hbond>
0.0000

> <Gold.Chemscore.DEClash>
0.0386

> <Gold.Chemscore.DEInternal>
0.1079

> <Gold.Chemscore.Rot>
1.2833

> <Gold.Chemscore.Internal.Correction>
   9.000000E+99

> <Gold.Chemscore.Hbonds>
donor molecule, donor type, donor heavy atom, donor atom, acceptor molecule, acceptor atom, score
      L1  H     8    22       P1  7957  0.92
      L1  H     8    27       P1  7948  0.94
      P1  H  7997  8010       L1    13  0.25

> <Gold.Chemscore.Hbond.Weighted>
-9.1666

> <Gold.Chemscore.Metal.Weighted>
-0.0000

> <Gold.Chemscore.Lipo.Weighted>
-5.3779

> <Gold.Chemscore.Internal_Hbond.Weighted>
0.0000

> <Gold.Chemscore.DEClash.Weighted>
0.0386

> <Gold.Chemscore.DEInternal.Weighted>
0.1079

> <Gold.Chemscore.Rot.Weighted>
3.2853

> <Gold.Chemscore.Internal.Correction.Weighted>
   9.000000E+99

> <Gold.Protein.RotatedTorsions>
[ 6907 6896 6895 6894 ] final -142.87 input  -60.11 | X-H torsion
[ 7974 7965 7964 7962 ] final  127.35 input  175.53 | X-H torsion
[ 8008 7997 7996 7995 ] final   72.52 input   59.86 | X-H torsion
[ 10167 10162 10161 10158 ] final  169.37 input  -65.29 | X-H torsion
[ 10718 10713 10712 10709 ] final  -21.53 input   66.30 | X-H torsion
[ 10763 10752 10751 10750 ] final -134.42 input  -60.55 | X-H torsion
[ 11005 11000 10999 10996 ] final   -1.83 input  -57.11 | X-H torsion

> <Gold.Protein.ActiveResidues>
 VAL166  LYS551  ARG553  GLY616  TRP617  ASP618  TYR619  PRO620  LYS621  CYS622 
 ASP623  PHE694  ASN695  SER759  ASP760  ASP761  ALA762  ILE779  LEU786  VAL792 
 PHE793  MET794  SER795  GLU796  ALA797  LYS798  CYS799  TRP800  GLU811  SER814 

> <Gold.Protein.RotatedAtoms>
  151.0928  133.5302  159.2613 H   0  0  0  0  0  0  0  0  0  0  0  0  # atno 6907 bound_to 6896
  151.2163  135.0500  159.8941 H   0  0  0  0  0  0  0  0  0  0  0  0  # atno 6908 bound_to 6896
  152.5436  134.0737  159.8259 H   0  0  0  0  0  0  0  0  0  0  0  0  # atno 6909 bound_to 6896
  145.0516  139.3878  143.5051 H   0  0  0  0  0  0  0  0  0  0  0  0  # atno 7974 bound_to 7965
  155.7701  140.3484  155.5242 H   0  0  0  0  0  0  0  0  0  0  0  0  # atno 8008 bound_to 7997
  155.8830  140.1005  157.1493 H   0  0  0  0  0  0  0  0  0  0  0  0  # atno 8009 bound_to 7997
  154.4026  140.1319  156.4208 H   0  0  0  0  0  0  0  0  0  0  0  0  # atno 8010 bound_to 7997
  139.4990  144.3714  151.9721 H   0  0  0  0  0  0  0  0  0  0  0  0  # atno 10167 bound_to 10162
  156.5169  130.4623  149.6617 H   0  0  0  0  0  0  0  0  0  0  0  0  # atno 10718 bound_to 10713
  154.8719  135.3735  154.4733 H   0  0  0  0  0  0  0  0  0  0  0  0  # atno 10763 bound_to 10752
  153.5392  135.7026  153.5650 H   0  0  0  0  0  0  0  0  0  0  0  0  # atno 10764 bound_to 10752
  153.3820  135.3994  155.1828 H   0  0  0  0  0  0  0  0  0  0  0  0  # atno 10765 bound_to 10752
  140.6517  133.9399  155.8384 H   0  0  0  0  0  0  0  0  0  0  0  0  # atno 11005 bound_to 11000
  146.3518  140.0169  142.8662 LP  0  0  0  0  0  0  0  0  0  0  0  0  # atno 17320 bound_to 7965
  145.1520  140.9628  143.4427 LP  0  0  0  0  0  0  0  0  0  0  0  0  # atno 17321 bound_to 7965
  140.3150  144.3494  150.6024 LP  0  0  0  0  0  0  0  0  0  0  0  0  # atno 17342 bound_to 10162
  140.5768  143.2176  151.7500 LP  0  0  0  0  0  0  0  0  0  0  0  0  # atno 17343 bound_to 10162
  156.3186  130.7268  151.2176 LP  0  0  0  0  0  0  0  0  0  0  0  0  # atno 17370 bound_to 10713
  157.7442  131.0462  150.4880 LP  0  0  0  0  0  0  0  0  0  0  0  0  # atno 17371 bound_to 10713
  141.0532  134.0455  157.3757 LP  0  0  0  0  0  0  0  0  0  0  0  0  # atno 17394 bound_to 11000
  139.9043  135.0175  156.7416 LP  0  0  0  0  0  0  0  0  0  0  0  0  # atno 17395 bound_to 11000

$$$$
