AV-unprocessed.smi:1325|AV-procd|sdf|5473|dock2
  -GOLD-   22720 5 43D 1   1.00000     0.00000
 Structure written by MMmdl.
 35 36  0  0  0  0  0  0  0  0  1 V2000
  151.8804  144.1131  161.2874 C   0  0  0  0  0  0  0  0  0  0  0  0
  152.2106  142.9080  160.4485 C   0  0  0  0  0  0  0  0  0  0  0  0
  151.6161  142.8159  159.3046 N   0  0  0  0  0  0  0  0  0  0  0  0
  151.8437  141.7485  158.4591 N   0  0  0  0  0  0  0  0  0  0  0  0
  151.0820  141.8094  157.2052 C   0  0  0  0  0  0  0  0  0  0  0  0
  149.5591  141.9072  157.4443 C   0  0  1  0  0  0  0  0  0  0  0  0
  149.2585  143.1976  157.9394 O   0  0  0  0  0  0  0  0  0  0  0  0
  148.7871  141.6131  156.1668 C   0  0  0  0  0  0  0  0  0  0  0  0
  147.3795  141.7285  156.1342 C   0  0  0  0  0  0  0  0  0  0  0  0
  146.6724  141.4625  154.9456 C   0  0  0  0  0  0  0  0  0  0  0  0
  147.3680  141.0808  153.7823 C   0  0  0  0  0  0  0  0  0  0  0  0
  148.7713  140.9672  153.8080 C   0  0  0  0  0  0  0  0  0  0  0  0
  149.4789  141.2339  154.9963 C   0  0  0  0  0  0  0  0  0  0  0  0
  152.6895  140.7127  158.7266 C   0  0  0  0  0  0  0  0  0  0  0  0
  152.8592  139.7764  157.9438 O   0  0  0  0  0  0  0  0  0  0  0  0
  153.3631  140.8246  160.0225 C   0  0  0  0  0  0  0  0  0  0  0  0
  154.2594  139.7609  160.3420 C   0  0  0  0  0  0  0  0  0  0  0  0
  154.9915  138.9076  160.6180 N   0  0  0  0  0  0  0  0  0  0  0  0
  153.1482  141.8686  160.8616 C   0  0  0  0  0  0  0  0  0  0  0  0
  153.8209  142.0318  162.2177 C   0  0  0  0  0  0  0  0  0  0  0  0
  151.4840  143.8134  162.2574 H   0  0  0  0  0  0  0  0  0  0  0  0
  151.1331  144.7490  160.8102 H   0  0  0  0  0  0  0  0  0  0  0  0
  152.7692  144.7205  161.4581 H   0  0  0  0  0  0  0  0  0  0  0  0
  151.4236  142.6348  156.5770 H   0  0  0  0  0  0  0  0  0  0  0  0
  151.3023  140.9087  156.6286 H   0  0  0  0  0  0  0  0  0  0  0  0
  149.2505  141.1863  158.2024 H   0  0  0  0  0  0  0  0  0  0  0  0
  149.0251  143.7503  157.2093 H   0  0  0  0  0  0  0  0  0  0  0  0
  146.8379  142.0239  157.0209 H   0  0  0  0  0  0  0  0  0  0  0  0
  145.5962  141.5520  154.9263 H   0  0  0  0  0  0  0  0  0  0  0  0
  146.8256  140.8769  152.8709 H   0  0  0  0  0  0  0  0  0  0  0  0
  149.3056  140.6764  152.9155 H   0  0  0  0  0  0  0  0  0  0  0  0
  150.5557  141.1468  155.0043 H   0  0  0  0  0  0  0  0  0  0  0  0
  154.5265  141.2288  162.4281 H   0  0  0  0  0  0  0  0  0  0  0  0
  153.0773  142.0324  163.0153 H   0  0  0  0  0  0  0  0  0  0  0  0
  154.3735  142.9707  162.2610 H   0  0  0  0  0  0  0  0  0  0  0  0
  1  2  1  0  0  0  0
  1 21  1  0  0  0  0
  1 22  1  0  0  0  0
  1 23  1  0  0  0  0
  2 19  1  0  0  0  0
  2  3  2  0  0  0  0
  3  4  1  0  0  0  0
  4  5  1  0  0  0  0
  4 14  1  0  0  0  0
  5  6  1  0  0  0  0
  5 24  1  0  0  0  0
  5 25  1  0  0  0  0
  6  7  1  0  0  0  0
  6  8  1  0  0  0  0
  6 26  1  0  0  0  0
  7 27  1  0  0  0  0
  8 13  1  0  0  0  0
  8  9  2  0  0  0  0
  9 10  1  0  0  0  0
  9 28  1  0  0  0  0
 10 11  2  0  0  0  0
 10 29  1  0  0  0  0
 11 12  1  0  0  0  0
 11 30  1  0  0  0  0
 12 13  2  0  0  0  0
 12 31  1  0  0  0  0
 13 32  1  0  0  0  0
 14 15  2  0  0  0  0
 14 16  1  0  0  0  0
 16 17  1  0  0  0  0
 16 19  2  0  0  0  0
 17 18  3  0  0  0  0
 19 20  1  0  0  0  0
 20 33  1  0  0  0  0
 20 34  1  0  0  0  0
 20 35  1  0  0  0  0
M  END
> <s_m_source_file>
AV-unprocessed.smi

> <i_m_source_file_index>
1325

> <i_lp_mmshare_version>
43012

> <i_f3d_flags>
0

> <s_epik_input>
TiNDYyhjMVtDSDNdKWMoPU8pbihuYzFbQ0gzXSlbQ0gyXVtDQEhdKFtPSF0pYzJbY0hdW2NIXVtjSF1bY0hdW2NIXTI=

> <s_epik_cmdline>
J2VwaWtfcHl0aG9uJywgJy1waCcsICc3LjAnLCAnLXRuJywgJzgnLCAnLW1hJywgJzIwMCcsICctbWV0YWxfYmluZGluZycsICctaW1hZScsICc8aW5maWxlLm1hZT4nLCAnLW9tYWUnLCAnPG91dGZpbGUubWFlPic=

> <r_lp_tautomer_probability>
1

> <r_epik_Ionization_Penalty>
7.1854e-08

> <r_epik_Ionization_Penalty_Charging>
1.40848e-10

> <r_epik_Ionization_Penalty_Neutral>
7.17131e-08

> <r_epik_State_Penalty>
-0

> <r_epik_Charging_Adjusted_Penalty>
1.40848e-10

> <i_epik_Tot_Q>
0

> <i_epik_Tot_abs_Q>
0

> <r_epik_Metal_State_Penalty>
-0

> <b_epik_Metal_Only>
0

> <s_lp_Force_Field>
OPLS_2005

> <r_lp_Energy>
28.0712

> <b_lp_Chiralities_Consistent>
1

> <s_lp_Variant>
AV-unprocessed.smi:1325-2

> <Gold.Version>
5.8.1

> <Gold.Id.Protein>
6NUR|6NUR_protein|mol2

> <Gold.PLP.Fitness>
45.9741

> <Gold.PLP.PLP>
-40.2328

> <Gold.PLP.part.hbond>
-2.8547

> <Gold.PLP.part.metal>
0.0000

> <Gold.PLP.part.buried>
0.6132

> <Gold.PLP.part.nonpolar>
-37.0475

> <Gold.PLP.part.repulsive>
0.0011

> <Gold.PLP.ligand.clash>
0.0000

> <Gold.PLP.ligand.torsion>
0.1320

> <Gold.PLP.Chemscore.Hbond>
2.0000

> <Gold.PLP.Chemscore.CHOScore>
0.0000

> <Gold.PLP.Chemscore.Metal>
0.0000

> <Gold.Chemscore.Hbonds>
donor molecule, donor type, donor heavy atom, donor atom, acceptor molecule, acceptor atom, score
      L1  H     7    27       P1  8028  1.00
      P1  H  7997  8010       L1    15  1.00

> <Gold.PLP.Chemscore.Internal.Correction>
0.0052

> <Gold.Rescore>
     Score         DG    S(hbond)    S(metal)    S(lipo)     H(rot)  DE(clash)    DE(int)     intcor
     16.26     -16.80       1.25        0.00     102.59       1.90       0.40       0.14       ----

> <Gold.Chemscore.Fitness>
16.2613

> <Gold.Chemscore.DG>
-16.7970

> <Gold.Chemscore.ZeroCoef>
-5.4800

> <Gold.Chemscore.Hbond>
1.2544

> <Gold.Chemscore.Metal>
0.0000

> <Gold.Chemscore.Lipo>
102.5916

> <Gold.Chemscore.Internal_Hbond>
0.0000

> <Gold.Chemscore.DEClash>
0.3956

> <Gold.Chemscore.DEInternal>
0.1401

> <Gold.Chemscore.Rot>
1.9047

> <Gold.Chemscore.Internal.Correction>
   9.000000E+99

> <Gold.Chemscore.Hbonds>
donor molecule, donor type, donor heavy atom, donor atom, acceptor molecule, acceptor atom, score
      L1  H     7    27       P1  8028  0.26
      P1  H  7997  8010       L1    15  0.56

> <Gold.Chemscore.Hbond.Weighted>
-4.1898

> <Gold.Chemscore.Metal.Weighted>
-0.0000

> <Gold.Chemscore.Lipo.Weighted>
-12.0032

> <Gold.Chemscore.Internal_Hbond.Weighted>
0.0000

> <Gold.Chemscore.DEClash.Weighted>
0.3956

> <Gold.Chemscore.DEInternal.Weighted>
0.1401

> <Gold.Chemscore.Rot.Weighted>
4.8760

> <Gold.Chemscore.Internal.Correction.Weighted>
   9.000000E+99

> <Gold.Protein.RotatedTorsions>
[ 6907 6896 6895 6894 ] final  122.27 input  -60.11 | X-H torsion
[ 7974 7965 7964 7962 ] final -117.70 input  175.53 | X-H torsion
[ 8008 7997 7996 7995 ] final   29.36 input   59.86 | X-H torsion
[ 10167 10162 10161 10158 ] final -149.81 input  -65.29 | X-H torsion
[ 10718 10713 10712 10709 ] final   53.15 input   66.30 | X-H torsion
[ 10763 10752 10751 10750 ] final -139.86 input  -60.55 | X-H torsion
[ 11005 11000 10999 10996 ] final -121.45 input  -57.11 | X-H torsion

> <Gold.Protein.ActiveResidues>
 VAL166  LYS551  ARG553  GLY616  TRP617  ASP618  TYR619  PRO620  LYS621  CYS622 
 ASP623  PHE694  ASN695  SER759  ASP760  ASP761  ALA762  ILE779  LEU786  VAL792 
 PHE793  MET794  SER795  GLU796  ALA797  LYS798  CYS799  TRP800  GLU811  SER814 

> <Gold.Protein.RotatedAtoms>
  152.4256  133.7190  159.6521 H   0  0  0  0  0  0  0  0  0  0  0  0  # atno 6907 bound_to 6896
  150.8133  133.8372  159.3178 H   0  0  0  0  0  0  0  0  0  0  0  0  # atno 6908 bound_to 6896
  151.6076  135.1045  160.0125 H   0  0  0  0  0  0  0  0  0  0  0  0  # atno 6909 bound_to 6896
  145.0823  140.8434  143.4032 H   0  0  0  0  0  0  0  0  0  0  0  0  # atno 7974 bound_to 7965
  155.0732  140.3202  155.4624 H   0  0  0  0  0  0  0  0  0  0  0  0  # atno 8008 bound_to 7997
  156.2785  140.2108  156.5805 H   0  0  0  0  0  0  0  0  0  0  0  0  # atno 8009 bound_to 7997
  154.7038  140.0504  157.0471 H   0  0  0  0  0  0  0  0  0  0  0  0  # atno 8010 bound_to 7997
  139.7409  143.8663  152.2562 H   0  0  0  0  0  0  0  0  0  0  0  0  # atno 10167 bound_to 10162
  157.5140  130.8520  149.8472 H   0  0  0  0  0  0  0  0  0  0  0  0  # atno 10718 bound_to 10713
  154.8596  135.3570  154.5614 H   0  0  0  0  0  0  0  0  0  0  0  0  # atno 10763 bound_to 10752
  153.6229  135.7005  153.5308 H   0  0  0  0  0  0  0  0  0  0  0  0  # atno 10764 bound_to 10752
  153.3114  135.4177  155.1299 H   0  0  0  0  0  0  0  0  0  0  0  0  # atno 10765 bound_to 10752
  141.0069  134.0322  157.3465 H   0  0  0  0  0  0  0  0  0  0  0  0  # atno 11005 bound_to 11000
  145.1164  139.2723  143.5611 LP  0  0  0  0  0  0  0  0  0  0  0  0  # atno 17320 bound_to 7965
  146.3531  140.0775  142.8619 LP  0  0  0  0  0  0  0  0  0  0  0  0  # atno 17321 bound_to 7965
  139.8613  144.7115  150.9096 LP  0  0  0  0  0  0  0  0  0  0  0  0  # atno 17342 bound_to 10162
  140.7786  143.3815  151.1469 LP  0  0  0  0  0  0  0  0  0  0  0  0  # atno 17343 bound_to 10162
  156.0308  130.3765  150.1693 LP  0  0  0  0  0  0  0  0  0  0  0  0  # atno 17370 bound_to 10713
  156.9882  130.9885  151.3421 LP  0  0  0  0  0  0  0  0  0  0  0  0  # atno 17371 bound_to 10713
  139.9068  135.0181  156.7521 LP  0  0  0  0  0  0  0  0  0  0  0  0  # atno 17394 bound_to 11000
  140.6798  133.9485  155.7904 LP  0  0  0  0  0  0  0  0  0  0  0  0  # atno 17395 bound_to 11000

$$$$
