AV-unprocessed.smi:3269|AV-procd|sdf|12510|dock2
  -GOLD-   2272018413D 1   1.00000     0.00000
 Structure written by MMmdl.
 39 40  0  0  0  0  0  0  0  0  1 V2000
  150.9266  138.6332  154.8179 C   0  0  0  0  0  0  0  0  0  0  0  0
  149.6817  139.4067  154.4918 C   0  0  0  0  0  0  0  0  0  0  0  0
  148.7037  138.8148  153.8262 N   0  0  0  0  0  0  0  0  0  0  0  0
  147.7506  139.7602  153.7029 N   0  0  0  0  0  0  0  0  0  0  0  0
  146.5176  139.4415  153.0096 C   0  0  0  0  0  0  0  0  0  0  0  0
  148.1270  140.9512  154.2932 C   0  0  0  0  0  0  0  0  0  0  0  0
  147.2394  142.1537  154.2994 C   0  0  0  0  0  0  0  0  0  0  0  0
  149.3811  140.7634  154.8101 C   0  0  0  0  0  0  0  0  0  0  0  0
  150.2573  141.7476  155.5474 C   0  0  0  0  0  0  0  0  0  0  0  0
  150.5287  141.2999  156.9887 C   0  0  0  0  0  0  0  0  0  0  0  0
  149.9230  140.3498  157.4868 O   0  0  0  0  0  0  0  0  0  0  0  0
  151.4543  142.0092  157.6519 N   0  0  0  0  0  0  0  0  0  0  0  0
  151.9000  141.7507  159.0178 C   0  0  0  0  0  0  0  0  0  0  0  0
  151.5267  142.8865  159.9900 C   0  0  2  0  0  0  0  0  0  0  0  0
  152.1146  144.2628  159.6654 C   0  0  0  0  0  0  0  0  0  0  0  0
  152.0820  144.9287  161.0223 C   0  0  0  0  0  0  0  0  0  0  0  0
  152.4556  143.7711  161.9436 C   0  0  0  0  0  0  0  0  0  0  0  0
  151.9452  142.5951  161.3215 O   0  0  0  0  0  0  0  0  0  0  0  0
  151.2078  138.7729  155.8613 H   0  0  0  0  0  0  0  0  0  0  0  0
  151.7625  138.9638  154.2015 H   0  0  0  0  0  0  0  0  0  0  0  0
  150.7937  137.5633  154.6537 H   0  0  0  0  0  0  0  0  0  0  0  0
  146.3650  140.1461  152.1915 H   0  0  0  0  0  0  0  0  0  0  0  0
  145.6792  139.5121  153.7026 H   0  0  0  0  0  0  0  0  0  0  0  0
  146.5543  138.4305  152.6010 H   0  0  0  0  0  0  0  0  0  0  0  0
  147.6194  142.9217  154.9727 H   0  0  0  0  0  0  0  0  0  0  0  0
  146.2337  141.8942  154.6302 H   0  0  0  0  0  0  0  0  0  0  0  0
  147.1675  142.5857  153.3012 H   0  0  0  0  0  0  0  0  0  0  0  0
  151.2121  141.8703  155.0345 H   0  0  0  0  0  0  0  0  0  0  0  0
  149.8033  142.7383  155.5757 H   0  0  0  0  0  0  0  0  0  0  0  0
  151.8991  142.7749  157.1669 H   0  0  0  0  0  0  0  0  0  0  0  0
  151.4299  140.8245  159.3489 H   0  0  0  0  0  0  0  0  0  0  0  0
  152.9760  141.5704  159.0450 H   0  0  0  0  0  0  0  0  0  0  0  0
  150.4399  142.9775  160.0206 H   0  0  0  0  0  0  0  0  0  0  0  0
  153.1465  144.1889  159.3210 H   0  0  0  0  0  0  0  0  0  0  0  0
  151.5416  144.8017  158.9105 H   0  0  0  0  0  0  0  0  0  0  0  0
  152.7642  145.7753  161.1029 H   0  0  0  0  0  0  0  0  0  0  0  0
  151.0729  145.2776  161.2452 H   0  0  0  0  0  0  0  0  0  0  0  0
  153.5395  143.6800  162.0161 H   0  0  0  0  0  0  0  0  0  0  0  0
  152.0586  143.8947  162.9513 H   0  0  0  0  0  0  0  0  0  0  0  0
  1  2  1  0  0  0  0
  1 19  1  0  0  0  0
  1 20  1  0  0  0  0
  1 21  1  0  0  0  0
  2  8  1  0  0  0  0
  2  3  2  0  0  0  0
  3  4  1  0  0  0  0
  4  5  1  0  0  0  0
  4  6  1  0  0  0  0
  5 22  1  0  0  0  0
  5 23  1  0  0  0  0
  5 24  1  0  0  0  0
  6  7  1  0  0  0  0
  6  8  2  0  0  0  0
  7 25  1  0  0  0  0
  7 26  1  0  0  0  0
  7 27  1  0  0  0  0
  8  9  1  0  0  0  0
  9 10  1  0  0  0  0
  9 28  1  0  0  0  0
  9 29  1  0  0  0  0
 10 11  2  0  0  0  0
 10 12  1  0  0  0  0
 12 13  1  0  0  0  0
 12 30  1  0  0  0  0
 13 14  1  0  0  0  0
 13 31  1  0  0  0  0
 13 32  1  0  0  0  0
 14 18  1  0  0  0  0
 14 15  1  0  0  0  0
 14 33  1  0  0  0  0
 15 16  1  0  0  0  0
 15 34  1  0  0  0  0
 15 35  1  0  0  0  0
 16 17  1  0  0  0  0
 16 36  1  0  0  0  0
 16 37  1  0  0  0  0
 17 18  1  0  0  0  0
 17 38  1  0  0  0  0
 17 39  1  0  0  0  0
M  END
> <s_m_source_file>
AV-unprocessed.smi

> <i_m_source_file_index>
3269

> <i_lp_mmshare_version>
43012

> <i_f3d_flags>
0

> <s_epik_input>
W0NIM11jMW5uKFtDSDNdKWMoW0NIM10pYzFbQ0gyXUMoPU8pW05IXVtDSDJdW0NAQEhdMltDSDJdW0NIMl1bQ0gyXU8y

> <s_epik_cmdline>
J2VwaWtfcHl0aG9uJywgJy1waCcsICc3LjAnLCAnLXRuJywgJzgnLCAnLW1hJywgJzIwMCcsICctbWV0YWxfYmluZGluZycsICctaW1hZScsICc8aW5maWxlLm1hZT4nLCAnLW9tYWUnLCAnPG91dGZpbGUubWFlPic=

> <r_lp_tautomer_probability>
1

> <r_epik_Ionization_Penalty>
0.00306713

> <r_epik_Ionization_Penalty_Charging>
0

> <r_epik_Ionization_Penalty_Neutral>
0.00306713

> <r_epik_State_Penalty>
0.00215672

> <r_epik_Charging_Adjusted_Penalty>
0.00215672

> <i_epik_Tot_Q>
0

> <i_epik_Tot_abs_Q>
0

> <r_epik_Metal_State_Penalty>
-0

> <b_epik_Metal_Only>
0

> <s_lp_Force_Field>
OPLS_2005

> <r_lp_Energy>
13.6043

> <b_lp_Chiralities_Consistent>
1

> <s_lp_Variant>
AV-unprocessed.smi:3269-1

> <Gold.Version>
5.8.1

> <Gold.Id.Protein>
6NUR|6NUR_protein|mol2

> <Gold.PLP.Fitness>
37.3983

> <Gold.PLP.PLP>
-37.2383

> <Gold.PLP.part.hbond>
-0.8173

> <Gold.PLP.part.metal>
0.0000

> <Gold.PLP.part.buried>
-2.0563

> <Gold.PLP.part.nonpolar>
-34.8033

> <Gold.PLP.part.repulsive>
1.1965

> <Gold.PLP.ligand.clash>
0.0000

> <Gold.PLP.ligand.torsion>
0.1118

> <Gold.PLP.Chemscore.Hbond>
0.1251

> <Gold.PLP.Chemscore.CHOScore>
0.0000

> <Gold.PLP.Chemscore.Metal>
0.0000

> <Gold.Chemscore.Hbonds>
donor molecule, donor type, donor heavy atom, donor atom, acceptor molecule, acceptor atom, score
      P1  H  6933  6945       L1    18  0.24

> <Gold.PLP.Chemscore.Internal.Correction>
0.0083

> <Gold.Rescore>
     Score         DG    S(hbond)    S(metal)    S(lipo)     H(rot)  DE(clash)    DE(int)     intcor
     13.25     -13.45       0.02        0.00     100.30       1.50       0.08       0.11       ----

> <Gold.Chemscore.Fitness>
13.2523

> <Gold.Chemscore.DG>
-13.4453

> <Gold.Chemscore.ZeroCoef>
-5.4800

> <Gold.Chemscore.Hbond>
0.0203

> <Gold.Chemscore.Metal>
0.0000

> <Gold.Chemscore.Lipo>
100.2956

> <Gold.Chemscore.Internal_Hbond>
0.0000

> <Gold.Chemscore.DEClash>
0.0847

> <Gold.Chemscore.DEInternal>
0.1083

> <Gold.Chemscore.Rot>
1.4989

> <Gold.Chemscore.Internal.Correction>
   9.000000E+99

> <Gold.Chemscore.Hbonds>
donor molecule, donor type, donor heavy atom, donor atom, acceptor molecule, acceptor atom, score
      P1  H  6933  6945       L1    18  0.07

> <Gold.Chemscore.Hbond.Weighted>
-0.0678

> <Gold.Chemscore.Metal.Weighted>
-0.0000

> <Gold.Chemscore.Lipo.Weighted>
-11.7346

> <Gold.Chemscore.Internal_Hbond.Weighted>
0.0000

> <Gold.Chemscore.DEClash.Weighted>
0.0847

> <Gold.Chemscore.DEInternal.Weighted>
0.1083

> <Gold.Chemscore.Rot.Weighted>
3.8371

> <Gold.Chemscore.Internal.Correction.Weighted>
   9.000000E+99

> <Gold.Protein.RotatedTorsions>
[ 6907 6896 6895 6894 ] final   63.16 input  -60.11 | X-H torsion
[ 7974 7965 7964 7962 ] final  143.91 input  175.53 | X-H torsion
[ 8008 7997 7996 7995 ] final   53.17 input   59.86 | X-H torsion
[ 10167 10162 10161 10158 ] final -156.33 input  -65.29 | X-H torsion
[ 10718 10713 10712 10709 ] final   78.55 input   66.30 | X-H torsion
[ 10763 10752 10751 10750 ] final  -29.95 input  -60.55 | X-H torsion
[ 11005 11000 10999 10996 ] final   91.61 input  -57.11 | X-H torsion

> <Gold.Protein.ActiveResidues>
 VAL166  LYS551  ARG553  GLY616  TRP617  ASP618  TYR619  PRO620  LYS621  CYS622 
 ASP623  PHE694  ASN695  SER759  ASP760  ASP761  ALA762  ILE779  LEU786  VAL792 
 PHE793  MET794  SER795  GLU796  ALA797  LYS798  CYS799  TRP800  GLU811  SER814 

> <Gold.Protein.RotatedAtoms>
  152.4231  134.5918  159.9976 H   0  0  0  0  0  0  0  0  0  0  0  0  # atno 6907 bound_to 6896
  151.6062  133.3346  159.3066 H   0  0  0  0  0  0  0  0  0  0  0  0  # atno 6908 bound_to 6896
  150.8120  134.7317  159.6761 H   0  0  0  0  0  0  0  0  0  0  0  0  # atno 6909 bound_to 6896
  144.8881  139.5599  143.5811 H   0  0  0  0  0  0  0  0  0  0  0  0  # atno 7974 bound_to 7965
  155.4639  140.3463  155.4316 H   0  0  0  0  0  0  0  0  0  0  0  0  # atno 8008 bound_to 7997
  156.1143  140.1469  156.9324 H   0  0  0  0  0  0  0  0  0  0  0  0  # atno 8009 bound_to 7997
  154.4778  140.0879  156.7283 H   0  0  0  0  0  0  0  0  0  0  0  0  # atno 8010 bound_to 7997
  139.6859  143.9502  152.2361 H   0  0  0  0  0  0  0  0  0  0  0  0  # atno 10167 bound_to 10162
  157.6748  130.9873  150.1802 H   0  0  0  0  0  0  0  0  0  0  0  0  # atno 10718 bound_to 10713
  153.7729  135.6911  153.4903 H   0  0  0  0  0  0  0  0  0  0  0  0  # atno 10763 bound_to 10752
  153.1862  135.4488  155.0090 H   0  0  0  0  0  0  0  0  0  0  0  0  # atno 10764 bound_to 10752
  154.8111  135.3378  154.7237 H   0  0  0  0  0  0  0  0  0  0  0  0  # atno 10765 bound_to 10752
  139.8836  134.8684  156.3453 H   0  0  0  0  0  0  0  0  0  0  0  0  # atno 11005 bound_to 11000
  146.3037  139.7508  142.9072 LP  0  0  0  0  0  0  0  0  0  0  0  0  # atno 17320 bound_to 7965
  145.3833  141.0361  143.3165 LP  0  0  0  0  0  0  0  0  0  0  0  0  # atno 17321 bound_to 7965
  139.9305  144.6744  150.8368 LP  0  0  0  0  0  0  0  0  0  0  0  0  # atno 17342 bound_to 10162
  140.7667  143.3312  151.2406 LP  0  0  0  0  0  0  0  0  0  0  0  0  # atno 17343 bound_to 10162
  156.2536  130.3703  149.8205 LP  0  0  0  0  0  0  0  0  0  0  0  0  # atno 17370 bound_to 10713
  156.5971  130.8531  151.3422 LP  0  0  0  0  0  0  0  0  0  0  0  0  # atno 17371 bound_to 10713
  140.9631  133.7376  156.0428 LP  0  0  0  0  0  0  0  0  0  0  0  0  # atno 17394 bound_to 11000
  140.7965  134.3558  157.5451 LP  0  0  0  0  0  0  0  0  0  0  0  0  # atno 17395 bound_to 11000

$$$$
