AV-unprocessed.smi:219|AV-procd|sdf|1681|dock9
  -GOLD-   2262020113D 1   1.00000     0.00000
 Structure written by MMmdl.
 50 53  0  0  0  0  0  0  0  0  1 V2000
  143.8285  134.8597  149.7216 N   0  0  0  0  0  0  0  0  0  0  0  0
  144.1147  133.9386  150.6448 C   0  0  0  0  0  0  0  0  0  0  0  0
  143.2452  133.4130  151.3370 O   0  0  0  0  0  0  0  0  0  0  0  0
  145.5937  133.5824  150.8412 C   0  0  0  0  0  0  0  0  0  0  0  0
  145.8632  132.3530  151.7592 C   0  0  1  0  0  0  0  0  0  0  0  0
  145.8384  131.0707  150.8946 C   0  0  0  0  0  0  0  0  0  0  0  0
  146.1217  129.8083  151.7193 C   0  0  0  0  0  0  0  0  0  0  0  0
  147.4526  129.9616  152.4614 C   0  0  0  0  0  0  0  0  0  0  0  0
  147.4311  131.2289  153.3243 C   0  0  0  0  0  0  0  0  0  0  0  0
  147.1258  132.4154  152.5222 N   0  0  0  0  0  0  0  0  0  0  0  0
  147.3411  133.5470  153.2295 C   0  0  0  0  0  0  0  0  0  0  0  0
  146.3509  134.4702  153.3551 N   0  0  0  0  0  0  0  0  0  0  0  0
  146.5788  135.6016  154.0287 C   0  0  0  0  0  0  0  0  0  0  0  0
  147.7002  136.0032  154.6317 N   0  0  0  0  0  0  0  0  0  0  0  0
  148.6931  135.0760  154.5033 C   0  0  0  0  0  0  0  0  0  0  0  0
  148.5935  133.8247  153.8352 C   0  0  0  0  0  0  0  0  0  0  0  0
  149.7989  133.1405  153.9132 N   0  0  0  0  0  0  0  0  0  0  0  0
  150.5757  133.9509  154.5792 C   0  0  0  0  0  0  0  0  0  0  0  0
  149.9984  135.1431  154.9575 N   0  0  0  0  0  0  0  0  0  0  0  0
  150.6382  136.2298  155.6824 C   0  0  0  0  0  0  0  0  0  0  0  0
  151.4311  137.1936  154.7677 C   0  0  2  0  0  0  0  0  0  0  0  0
  151.8884  136.4773  153.6330 O   0  0  0  0  0  0  0  0  0  0  0  0
  152.6386  137.8118  155.4598 C   0  0  0  0  0  0  0  0  0  0  0  0
  152.7985  139.1390  154.7308 C   0  0  0  0  0  0  0  0  0  0  0  0
  151.4592  139.5646  154.5452 O   0  0  0  0  0  0  0  0  0  0  0  0
  150.6420  138.4276  154.2808 C   0  0  0  0  0  0  0  0  0  0  0  0
  142.8669  135.1203  149.5571 H   0  0  0  0  0  0  0  0  0  0  0  0
  144.5709  135.2888  149.1888 H   0  0  0  0  0  0  0  0  0  0  0  0
  145.9909  133.3900  149.8435 H   0  0  0  0  0  0  0  0  0  0  0  0
  146.1397  134.4538  151.2057 H   0  0  0  0  0  0  0  0  0  0  0  0
  145.0519  132.2734  152.4847 H   0  0  0  0  0  0  0  0  0  0  0  0
  144.8704  130.9671  150.4029 H   0  0  0  0  0  0  0  0  0  0  0  0
  146.5807  131.1526  150.0992 H   0  0  0  0  0  0  0  0  0  0  0  0
  145.3147  129.6445  152.4347 H   0  0  0  0  0  0  0  0  0  0  0  0
  146.1503  128.9321  151.0713 H   0  0  0  0  0  0  0  0  0  0  0  0
  147.6405  129.0871  153.0843 H   0  0  0  0  0  0  0  0  0  0  0  0
  148.2726  130.0181  151.7442 H   0  0  0  0  0  0  0  0  0  0  0  0
  146.6846  131.1180  154.1123 H   0  0  0  0  0  0  0  0  0  0  0  0
  148.3980  131.3511  153.8151 H   0  0  0  0  0  0  0  0  0  0  0  0
  145.7460  136.2868  154.0856 H   0  0  0  0  0  0  0  0  0  0  0  0
  151.6035  133.7050  154.8029 H   0  0  0  0  0  0  0  0  0  0  0  0
  149.8671  136.7777  156.2254 H   0  0  0  0  0  0  0  0  0  0  0  0
  151.2954  135.7980  156.4381 H   0  0  0  0  0  0  0  0  0  0  0  0
  151.2116  136.4985  152.9739 H   0  0  0  0  0  0  0  0  0  0  0  0
  152.4145  138.0083  156.5092 H   0  0  0  0  0  0  0  0  0  0  0  0
  153.5339  137.1895  155.4226 H   0  0  0  0  0  0  0  0  0  0  0  0
  153.3774  139.8671  155.2993 H   0  0  0  0  0  0  0  0  0  0  0  0
  153.2760  138.9988  153.7598 H   0  0  0  0  0  0  0  0  0  0  0  0
  150.3997  138.3731  153.2184 H   0  0  0  0  0  0  0  0  0  0  0  0
  149.7055  138.5601  154.8206 H   0  0  0  0  0  0  0  0  0  0  0  0
  1  2  1  0  0  0  0
  1 27  1  0  0  0  0
  1 28  1  0  0  0  0
  2  3  2  0  0  0  0
  2  4  1  0  0  0  0
  4  5  1  0  0  0  0
  4 29  1  0  0  0  0
  4 30  1  0  0  0  0
  5 10  1  0  0  0  0
  5  6  1  0  0  0  0
  5 31  1  0  0  0  0
  6  7  1  0  0  0  0
  6 32  1  0  0  0  0
  6 33  1  0  0  0  0
  7  8  1  0  0  0  0
  7 34  1  0  0  0  0
  7 35  1  0  0  0  0
  8  9  1  0  0  0  0
  8 36  1  0  0  0  0
  8 37  1  0  0  0  0
  9 10  1  0  0  0  0
  9 38  1  0  0  0  0
  9 39  1  0  0  0  0
 10 11  1  0  0  0  0
 11 16  1  0  0  0  0
 11 12  2  0  0  0  0
 12 13  1  0  0  0  0
 13 14  2  0  0  0  0
 13 40  1  0  0  0  0
 14 15  1  0  0  0  0
 15 19  1  0  0  0  0
 15 16  2  0  0  0  0
 16 17  1  0  0  0  0
 17 18  2  0  0  0  0
 18 19  1  0  0  0  0
 18 41  1  0  0  0  0
 19 20  1  0  0  0  0
 20 21  1  0  0  0  0
 20 42  1  0  0  0  0
 20 43  1  0  0  0  0
 21 26  1  0  0  0  0
 21 22  1  0  0  0  0
 21 23  1  0  0  0  0
 22 44  1  0  0  0  0
 23 24  1  0  0  0  0
 23 45  1  0  0  0  0
 23 46  1  0  0  0  0
 24 25  1  0  0  0  0
 24 47  1  0  0  0  0
 24 48  1  0  0  0  0
 25 26  1  0  0  0  0
 26 49  1  0  0  0  0
 26 50  1  0  0  0  0
M  END
> <s_m_source_file>
AV-unprocessed.smi

> <i_m_source_file_index>
219

> <i_lp_mmshare_version>
43012

> <i_f3d_flags>
0

> <s_epik_input>
W05IMl1DKD1PKVtDSDJdW0NAQEhdMVtDSDJdW0NIMl1bQ0gyXVtDSDJdTjFjKG5bY0hdbjIpYyhjMjMpbltjSF1uM1tDSDJdW0NAQF00KFtPSF0pW0NIMl1bQ0gyXU9bQ0gyXTQ=

> <s_epik_cmdline>
J2VwaWtfcHl0aG9uJywgJy1waCcsICc3LjAnLCAnLXRuJywgJzgnLCAnLW1hJywgJzIwMCcsICctbWV0YWxfYmluZGluZycsICctaW1hZScsICc8aW5maWxlLm1hZT4nLCAnLW9tYWUnLCAnPG91dGZpbGUubWFlPic=

> <r_lp_tautomer_probability>
1

> <r_epik_Ionization_Penalty>
0.00228532

> <r_epik_Ionization_Penalty_Charging>
0

> <r_epik_Ionization_Penalty_Neutral>
0.00228532

> <r_epik_State_Penalty>
0.00140978

> <r_epik_Charging_Adjusted_Penalty>
0.00140978

> <i_epik_Tot_Q>
0

> <i_epik_Tot_abs_Q>
0

> <r_epik_Metal_State_Penalty>
-0

> <b_epik_Metal_Only>
0

> <s_lp_Force_Field>
OPLS_2005

> <r_lp_Energy>
35.4504

> <b_lp_Chiralities_Consistent>
1

> <s_lp_Variant>
AV-unprocessed.smi:219-4

> <Gold.Version>
5.8.1

> <Gold.Id.Protein>
6NUR|6NUR_protein|mol2

> <Gold.PLP.Fitness>
49.6872

> <Gold.PLP.PLP>
-39.3614

> <Gold.PLP.part.hbond>
-5.0000

> <Gold.PLP.part.metal>
0.0000

> <Gold.PLP.part.buried>
-6.1033

> <Gold.PLP.part.nonpolar>
-29.7697

> <Gold.PLP.part.repulsive>
1.0339

> <Gold.PLP.ligand.clash>
0.0000

> <Gold.PLP.ligand.torsion>
1.5269

> <Gold.PLP.Chemscore.Hbond>
4.3720

> <Gold.PLP.Chemscore.CHOScore>
0.0000

> <Gold.PLP.Chemscore.Metal>
0.0000

> <Gold.Chemscore.Hbonds>
donor molecule, donor type, donor heavy atom, donor atom, acceptor molecule, acceptor atom, score
      L1  H     1    27       P1 10186  0.90
      L1  H     1    28       P1  7921  0.39
      L1  H    22    44       P1  7949  0.64
      P1  H  7989  7998       L1    25  1.00
      P1  H 10752 10763       L1    22  0.76

> <Gold.PLP.Chemscore.Internal.Correction>
0.2635

> <Gold.Rescore>
     Score         DG    S(hbond)    S(metal)    S(lipo)     H(rot)  DE(clash)    DE(int)     intcor
     13.51     -16.83       3.10        0.00      82.28       3.37       0.30       3.02       ----

> <Gold.Chemscore.Fitness>
13.5125

> <Gold.Chemscore.DG>
-16.8338

> <Gold.Chemscore.ZeroCoef>
-5.4800

> <Gold.Chemscore.Hbond>
3.1000

> <Gold.Chemscore.Metal>
0.0000

> <Gold.Chemscore.Lipo>
82.2755

> <Gold.Chemscore.Internal_Hbond>
0.0000

> <Gold.Chemscore.DEClash>
0.2976

> <Gold.Chemscore.DEInternal>
3.0238

> <Gold.Chemscore.Rot>
3.3697

> <Gold.Chemscore.Internal.Correction>
   9.000000E+99

> <Gold.Chemscore.Hbonds>
donor molecule, donor type, donor heavy atom, donor atom, acceptor molecule, acceptor atom, score
      L1  H     1    27       P1 10186  0.43
      L1  H     1    28       P1  7921  0.38
      L1  H    22    44       P1  7949  0.34
      P1  H  7989  7998       L1    25  0.34
      P1  H 10752 10763       L1    22  0.65

> <Gold.Chemscore.Hbond.Weighted>
-10.3540

> <Gold.Chemscore.Metal.Weighted>
-0.0000

> <Gold.Chemscore.Lipo.Weighted>
-9.6262

> <Gold.Chemscore.Internal_Hbond.Weighted>
0.0000

> <Gold.Chemscore.DEClash.Weighted>
0.2976

> <Gold.Chemscore.DEInternal.Weighted>
3.0238

> <Gold.Chemscore.Rot.Weighted>
8.6264

> <Gold.Chemscore.Internal.Correction.Weighted>
   9.000000E+99

> <Gold.Protein.RotatedTorsions>
[ 6907 6896 6895 6894 ] final   21.26 input  -60.11 | X-H torsion
[ 7974 7965 7964 7962 ] final  122.57 input  175.53 | X-H torsion
[ 8008 7997 7996 7995 ] final   85.13 input   59.86 | X-H torsion
[ 10167 10162 10161 10158 ] final   49.27 input  -65.29 | X-H torsion
[ 10718 10713 10712 10709 ] final  107.40 input   66.30 | X-H torsion
[ 10763 10752 10751 10750 ] final   17.48 input  -60.55 | X-H torsion
[ 11005 11000 10999 10996 ] final   95.74 input  -57.11 | X-H torsion

> <Gold.Protein.ActiveResidues>
 VAL166  LYS551  ARG553  GLY616  TRP617  ASP618  TYR619  PRO620  LYS621  CYS622 
 ASP623  PHE694  ASN695  SER759  ASP760  ASP761  ALA762  ILE779  LEU786  VAL792 
 PHE793  MET794  SER795  GLU796  ALA797  LYS798  CYS799  TRP800  GLU811  SER814 

> <Gold.Protein.RotatedAtoms>
  151.9090  135.0347  160.0512 H   0  0  0  0  0  0  0  0  0  0  0  0  # atno 6907 bound_to 6896
  152.2295  133.5042  159.5216 H   0  0  0  0  0  0  0  0  0  0  0  0  # atno 6908 bound_to 6896
  150.7021  134.1152  159.4057 H   0  0  0  0  0  0  0  0  0  0  0  0  # atno 6909 bound_to 6896
  145.1060  139.3485  143.4787 H   0  0  0  0  0  0  0  0  0  0  0  0  # atno 7974 bound_to 7965
  155.9461  140.3404  155.6368 H   0  0  0  0  0  0  0  0  0  0  0  0  # atno 8008 bound_to 7997
  155.6979  140.0756  157.2440 H   0  0  0  0  0  0  0  0  0  0  0  0  # atno 8009 bound_to 7997
  154.4112  140.1645  156.2146 H   0  0  0  0  0  0  0  0  0  0  0  0  # atno 8010 bound_to 7997
  140.2847  144.3116  150.6255 H   0  0  0  0  0  0  0  0  0  0  0  0  # atno 10167 bound_to 10162
  157.6630  131.0872  150.6151 H   0  0  0  0  0  0  0  0  0  0  0  0  # atno 10718 bound_to 10713
  153.1335  135.6745  153.9139 H   0  0  0  0  0  0  0  0  0  0  0  0  # atno 10763 bound_to 10752
  153.8618  135.3080  155.3439 H   0  0  0  0  0  0  0  0  0  0  0  0  # atno 10764 bound_to 10752
  154.7728  135.4930  153.9765 H   0  0  0  0  0  0  0  0  0  0  0  0  # atno 10765 bound_to 10752
  139.8786  134.8915  156.4056 H   0  0  0  0  0  0  0  0  0  0  0  0  # atno 11005 bound_to 11000
  146.3528  140.0958  142.8610 LP  0  0  0  0  0  0  0  0  0  0  0  0  # atno 17320 bound_to 7965
  145.0901  140.9279  143.4774 LP  0  0  0  0  0  0  0  0  0  0  0  0  # atno 17321 bound_to 7965
  140.5783  143.2174  151.7475 LP  0  0  0  0  0  0  0  0  0  0  0  0  # atno 17342 bound_to 10162
  139.4953  144.4118  152.0072 LP  0  0  0  0  0  0  0  0  0  0  0  0  # atno 17343 bound_to 10162
  156.6453  130.4470  149.5738 LP  0  0  0  0  0  0  0  0  0  0  0  0  # atno 17370 bound_to 10713
  156.2178  130.6719  151.1337 LP  0  0  0  0  0  0  0  0  0  0  0  0  # atno 17371 bound_to 10713
  140.9237  133.7627  155.9937 LP  0  0  0  0  0  0  0  0  0  0  0  0  # atno 17394 bound_to 11000
  140.8411  134.3066  157.5313 LP  0  0  0  0  0  0  0  0  0  0  0  0  # atno 17395 bound_to 11000

$$$$
