AV-unprocessed.smi:72|AV-procd|sdf|687|dock1
  -GOLD-   2262017 03D 1   1.00000     0.00000
 Structure written by MMmdl.
 29 30  0  0  0  0  0  0  0  0  1 V2000
  149.1929  134.2757  158.5703 N   0  0  0  0  0  0  0  0  0  0  0  0
  149.5862  135.3086  157.9155 C   0  0  0  0  0  0  0  0  0  0  0  0
  149.6166  136.6210  158.4111 N   0  0  0  0  0  0  0  0  0  0  0  0
  150.0466  137.5671  157.6343 C   0  0  0  0  0  0  0  0  0  0  0  0
  150.5014  137.3092  156.2763 N   0  0  0  0  0  0  0  0  0  0  0  0
  151.0044  138.4385  155.4015 C   0  0  2  0  0  0  0  0  0  0  0  0
  151.2003  139.5605  156.2056 O   0  0  0  0  0  0  0  0  0  0  0  0
  150.8106  140.7239  155.4930 C   0  0  2  0  0  0  0  0  0  0  0  0
  150.4772  141.8408  156.4949 C   0  0  0  0  0  0  0  0  0  0  0  0
  150.9654  143.0831  156.0356 O   0  0  0  0  0  0  0  0  0  0  0  0
  149.6305  140.2477  154.6373 C   0  0  1  0  0  0  0  0  0  0  0  0
  149.5030  141.0437  153.4758 O   0  0  0  0  0  0  0  0  0  0  0  0
  150.0263  138.8226  154.2667 C   0  0  2  0  0  0  0  0  0  0  0  0
  148.8834  137.9919  154.1643 O   0  0  0  0  0  0  0  0  0  0  0  0
  150.4588  135.9934  155.7546 C   0  0  0  0  0  0  0  0  0  0  0  0
  150.7996  135.7250  154.6028 O   0  0  0  0  0  0  0  0  0  0  0  0
  150.0062  135.0464  156.6046 N   0  0  0  0  0  0  0  0  0  0  0  0
  151.9800  138.1333  155.0203 H   0  0  0  0  0  0  0  0  0  0  0  0
  151.6532  141.0119  154.8605 H   0  0  0  0  0  0  0  0  0  0  0  0
  148.7073  140.2588  155.2193 H   0  0  0  0  0  0  0  0  0  0  0  0
  150.5830  138.7975  153.3285 H   0  0  0  0  0  0  0  0  0  0  0  0
  149.2661  133.4505  157.9925 H   0  0  0  0  0  0  0  0  0  0  0  0
  150.0907  138.6127  157.9429 H   0  0  0  0  0  0  0  0  0  0  0  0
  149.4025  141.9059  156.6676 H   0  0  0  0  0  0  0  0  0  0  0  0
  150.9448  141.6299  157.4570 H   0  0  0  0  0  0  0  0  0  0  0  0
  150.2355  143.5980  155.7269 H   0  0  0  0  0  0  0  0  0  0  0  0
  149.2207  140.4919  152.7629 H   0  0  0  0  0  0  0  0  0  0  0  0
  148.9865  137.4322  153.4098 H   0  0  0  0  0  0  0  0  0  0  0  0
  149.9643  134.0954  156.2681 H   0  0  0  0  0  0  0  0  0  0  0  0
  1  2  2  0  0  0  0
  1 22  1  0  0  0  0
  2 17  1  0  0  0  0
  2  3  1  0  0  0  0
  3  4  2  0  0  0  0
  4  5  1  0  0  0  0
  4 23  1  0  0  0  0
  5  6  1  0  0  0  0
  5 15  1  0  0  0  0
  6 18  1  0  0  0  0
  6 13  1  0  0  0  0
  6  7  1  0  0  0  0
  7  8  1  0  0  0  0
  8 19  1  0  0  0  0
  8  9  1  0  0  0  0
  8 11  1  0  0  0  0
  9 10  1  0  0  0  0
  9 24  1  0  0  0  0
  9 25  1  0  0  0  0
 10 26  1  0  0  0  0
 11 20  1  0  0  0  0
 11 12  1  0  0  0  0
 11 13  1  0  0  0  0
 12 27  1  0  0  0  0
 13 21  1  0  0  0  0
 13 14  1  0  0  0  0
 14 28  1  0  0  0  0
 15 16  2  0  0  0  0
 15 17  1  0  0  0  0
 17 29  1  0  0  0  0
M  END
> <s_m_source_file>
AV-unprocessed.smi

> <i_m_source_file_index>
72

> <i_lp_mmshare_version>
43012

> <i_f3d_flags>
0

> <s_epik_input>
W05IMl1jMW5bY0hdbihjKD1PKW4xKVtDQEBIXTJPW0NASF0oW0NIMl1bT0hdKVtDQEBIXShbT0hdKVtDQEhdMltPSF0=

> <s_epik_cmdline>
J2VwaWtfcHl0aG9uJywgJy1waCcsICc3LjAnLCAnLXRuJywgJzgnLCAnLW1hJywgJzIwMCcsICctbWV0YWxfYmluZGluZycsICctaW1hZScsICc8aW5maWxlLm1hZT4nLCAnLW9tYWUnLCAnPG91dGZpbGUubWFlPic=

> <r_lp_tautomer_probability>
7.17554e-07

> <r_epik_Ionization_Penalty>
0.0066451

> <r_epik_Ionization_Penalty_Charging>
0.00663793

> <r_epik_Ionization_Penalty_Neutral>
7.17052e-06

> <r_epik_State_Penalty>
0.419231

> <r_epik_Charging_Adjusted_Penalty>
0.425868

> <i_epik_Tot_Q>
0

> <i_epik_Tot_abs_Q>
0

> <r_epik_Metal_State_Penalty>
1.44144

> <b_epik_Metal_Only>
0

> <s_epik_Chemistry_Notes>
This compound contains an acetal/aminal-like group ( X-CH(R)-Y where X, Y are N, S, or O) that may be acid/base labile, releasing an aldehyde.

> <s_lp_Force_Field>
OPLS_2005

> <r_lp_Energy>
41.3964

> <b_lp_Chiralities_Consistent>
1

> <s_lp_Variant>
AV-unprocessed.smi:72-25

> <Gold.Version>
5.8.1

> <Gold.Id.Protein>
6NUR|6NUR_protein|mol2

> <Gold.PLP.Fitness>
35.8811

> <Gold.PLP.PLP>
-22.1453

> <Gold.PLP.part.hbond>
-7.0000

> <Gold.PLP.part.metal>
0.0000

> <Gold.PLP.part.buried>
-1.3944

> <Gold.PLP.part.nonpolar>
-13.8244

> <Gold.PLP.part.repulsive>
1.2515

> <Gold.PLP.ligand.clash>
0.0000

> <Gold.PLP.ligand.torsion>
0.8594

> <Gold.PLP.Chemscore.Hbond>
5.1097

> <Gold.PLP.Chemscore.CHOScore>
0.0000

> <Gold.PLP.Chemscore.Metal>
0.0000

> <Gold.Chemscore.Hbonds>
donor molecule, donor type, donor heavy atom, donor atom, acceptor molecule, acceptor atom, score
      L1  H    10    26       P1  8028  1.00
      L1  H    12    27       P1  7957  0.85
      L1  H    14    28       P1  7948  1.00
      P1  H  6896  6909       L1     1  0.42
      P1  H  7989  7998       L1    12  0.03
      P1  H  8011  8017       L1    12  0.55
      P1  H 10752 10763       L1    16  0.62

> <Gold.PLP.Chemscore.Internal.Correction>
0.1254

> <Gold.Rescore>
     Score         DG    S(hbond)    S(metal)    S(lipo)     H(rot)  DE(clash)    DE(int)     intcor
     10.15     -11.36       3.85        0.00      29.02       4.06       0.22       0.98       ----

> <Gold.Chemscore.Fitness>
10.1520

> <Gold.Chemscore.DG>
-11.3553

> <Gold.Chemscore.ZeroCoef>
-5.4800

> <Gold.Chemscore.Hbond>
3.8543

> <Gold.Chemscore.Metal>
0.0000

> <Gold.Chemscore.Lipo>
29.0230

> <Gold.Chemscore.Internal_Hbond>
0.0000

> <Gold.Chemscore.DEClash>
0.2247

> <Gold.Chemscore.DEInternal>
0.9787

> <Gold.Chemscore.Rot>
4.0600

> <Gold.Chemscore.Internal.Correction>
   9.000000E+99

> <Gold.Chemscore.Hbonds>
donor molecule, donor type, donor heavy atom, donor atom, acceptor molecule, acceptor atom, score
      L1  H    10    26       P1  8028  1.00
      L1  H    12    27       P1  7957  0.83
      L1  H    14    28       P1  7948  0.99
      P1  H  8011  8017       L1    12  0.03
      P1  H 10752 10763       L1    16  0.55

> <Gold.Chemscore.Hbond.Weighted>
-12.8732

> <Gold.Chemscore.Metal.Weighted>
-0.0000

> <Gold.Chemscore.Lipo.Weighted>
-3.3957

> <Gold.Chemscore.Internal_Hbond.Weighted>
0.0000

> <Gold.Chemscore.DEClash.Weighted>
0.2247

> <Gold.Chemscore.DEInternal.Weighted>
0.9787

> <Gold.Chemscore.Rot.Weighted>
10.3936

> <Gold.Chemscore.Internal.Correction.Weighted>
   9.000000E+99

> <Gold.Protein.RotatedTorsions>
[ 6907 6896 6895 6894 ] final    5.99 input  -60.11 | X-H torsion
[ 7974 7965 7964 7962 ] final   -0.91 input  175.53 | X-H torsion
[ 8008 7997 7996 7995 ] final   18.11 input   59.86 | X-H torsion
[ 10167 10162 10161 10158 ] final   10.44 input  -65.29 | X-H torsion
[ 10718 10713 10712 10709 ] final  -43.64 input   66.30 | X-H torsion
[ 10763 10752 10751 10750 ] final   36.42 input  -60.55 | X-H torsion
[ 11005 11000 10999 10996 ] final  -93.37 input  -57.11 | X-H torsion

> <Gold.Protein.ActiveResidues>
 VAL166  LYS551  ARG553  GLY616  TRP617  ASP618  TYR619  PRO620  LYS621  CYS622 
 ASP623  PHE694  ASN695  SER759  ASP760  ASP761  ALA762  ILE779  LEU786  VAL792 
 PHE793  MET794  SER795  GLU796  ALA797  LYS798  CYS799  TRP800  GLU811  SER814 

> <Gold.Protein.RotatedAtoms>
  151.6665  135.0982  160.0189 H   0  0  0  0  0  0  0  0  0  0  0  0  # atno 6907 bound_to 6896
  152.3916  133.6683  159.6251 H   0  0  0  0  0  0  0  0  0  0  0  0  # atno 6908 bound_to 6896
  150.7831  133.8861  159.3341 H   0  0  0  0  0  0  0  0  0  0  0  0  # atno 6909 bound_to 6896
  146.2422  140.1341  142.8337 H   0  0  0  0  0  0  0  0  0  0  0  0  # atno 7974 bound_to 7965
  154.9012  140.3001  155.5316 H   0  0  0  0  0  0  0  0  0  0  0  0  # atno 8008 bound_to 7997
  156.3018  140.2406  156.3975 H   0  0  0  0  0  0  0  0  0  0  0  0  # atno 8009 bound_to 7997
  154.8519  140.0409  157.1598 H   0  0  0  0  0  0  0  0  0  0  0  0  # atno 8010 bound_to 7997
  140.6194  143.8238  150.7157 H   0  0  0  0  0  0  0  0  0  0  0  0  # atno 10167 bound_to 10162
  156.2469  130.4184  149.8695 H   0  0  0  0  0  0  0  0  0  0  0  0  # atno 10718 bound_to 10713
  153.0077  135.6306  154.1983 H   0  0  0  0  0  0  0  0  0  0  0  0  # atno 10763 bound_to 10752
  154.1726  135.2817  155.3078 H   0  0  0  0  0  0  0  0  0  0  0  0  # atno 10764 bound_to 10752
  154.5896  135.5621  153.7326 H   0  0  0  0  0  0  0  0  0  0  0  0  # atno 10765 bound_to 10752
  141.1499  133.7883  157.0151 H   0  0  0  0  0  0  0  0  0  0  0  0  # atno 11005 bound_to 11000
  145.0302  140.8864  143.5114 LP  0  0  0  0  0  0  0  0  0  0  0  0  # atno 17320 bound_to 7965
  145.1403  139.2576  143.5493 LP  0  0  0  0  0  0  0  0  0  0  0  0  # atno 17321 bound_to 7965
  140.1824  143.4104  152.1923 LP  0  0  0  0  0  0  0  0  0  0  0  0  # atno 17342 bound_to 10162
  139.5426  144.7270  151.4686 LP  0  0  0  0  0  0  0  0  0  0  0  0  # atno 17343 bound_to 10162
  156.6257  130.8645  151.3485 LP  0  0  0  0  0  0  0  0  0  0  0  0  # atno 17370 bound_to 10713
  157.7198  130.9544  150.1396 LP  0  0  0  0  0  0  0  0  0  0  0  0  # atno 17371 bound_to 10713
  140.0852  134.9625  157.1689 LP  0  0  0  0  0  0  0  0  0  0  0  0  # atno 17394 bound_to 11000
  140.3521  134.2587  155.7197 LP  0  0  0  0  0  0  0  0  0  0  0  0  # atno 17395 bound_to 11000

$$$$
