AV-unprocessed.smi:648|AV-procd|sdf|3171|dock9
  -GOLD-   22720 0 93D 1   1.00000     0.00000
 Structure written by MMmdl.
 46 47  0  0  0  0  0  0  0  0  2 V2000
  152.9813  140.3195  159.5987 C   0  0  0  0  0  0  0  0  0  0  0  0
  152.0688  141.4873  159.1956 C   0  0  1  0  0  0  0  0  0  0  0  0
  152.8808  142.7838  159.0122 C   0  0  0  0  0  0  0  0  0  0  0  0
  152.0229  144.0104  158.6202 C   0  0  0  0  0  0  0  0  0  0  0  0
  151.2562  144.5596  159.8451 C   0  0  0  0  0  0  0  0  0  0  0  0
  152.9723  145.1385  158.1609 C   0  0  0  0  0  0  0  0  0  0  0  0
  151.0873  143.6586  157.4244 C   0  0  0  0  0  0  0  0  0  0  0  0
  150.3223  142.2997  157.4686 C   0  0  1  0  0  0  0  0  0  0  0  0
  149.1015  142.3811  158.4259 C   0  0  0  0  0  0  0  0  0  0  0  0
  147.9850  142.9886  157.8037 O   0  0  0  0  0  0  0  0  0  0  0  0
  149.7370  142.0418  156.1197 N   0  3  0  0  0  0  0  0  0  0  0  0
  148.9108  140.8301  155.9083 C   0  0  0  0  0  0  0  0  0  0  0  0
  149.1434  140.2569  154.5030 C   0  0  0  0  0  0  0  0  0  0  0  0
  150.3103  139.3975  154.4565 N   0  0  0  0  0  0  0  0  0  0  0  0
  150.4221  138.0947  154.1925 C   0  0  0  0  0  0  0  0  0  0  0  0
  151.6687  137.6455  154.2347 N   0  0  0  0  0  0  0  0  0  0  0  0
  152.3194  138.8055  154.5475 C   0  0  0  0  0  0  0  0  0  0  0  0
  151.5510  139.8858  154.6896 N   0  0  0  0  0  0  0  0  0  0  0  0
  151.2971  141.1676  157.9013 C   0  0  0  0  0  0  0  0  0  0  0  0
  153.7272  140.1120  158.8307 H   0  0  0  0  0  0  0  0  0  0  0  0
  152.4053  139.4077  159.7591 H   0  0  0  0  0  0  0  0  0  0  0  0
  153.5113  140.5388  160.5261 H   0  0  0  0  0  0  0  0  0  0  0  0
  151.3618  141.6223  160.0125 H   0  0  0  0  0  0  0  0  0  0  0  0
  153.4395  143.0023  159.9236 H   0  0  0  0  0  0  0  0  0  0  0  0
  153.6324  142.6090  158.2406 H   0  0  0  0  0  0  0  0  0  0  0  0
  150.5329  145.3220  159.5543 H   0  0  0  0  0  0  0  0  0  0  0  0
  151.9412  145.0226  160.5565 H   0  0  0  0  0  0  0  0  0  0  0  0
  150.7296  143.7950  160.4075 H   0  0  0  0  0  0  0  0  0  0  0  0
  152.4179  146.0353  157.8813 H   0  0  0  0  0  0  0  0  0  0  0  0
  153.5684  144.8411  157.2972 H   0  0  0  0  0  0  0  0  0  0  0  0
  153.6713  145.4189  158.9499 H   0  0  0  0  0  0  0  0  0  0  0  0
  150.3825  144.4742  157.2563 H   0  0  0  0  0  0  0  0  0  0  0  0
  151.7171  143.6569  156.5361 H   0  0  0  0  0  0  0  0  0  0  0  0
  148.7668  141.4079  158.7659 H   0  0  0  0  0  0  0  0  0  0  0  0
  149.3491  142.9558  159.3195 H   0  0  0  0  0  0  0  0  0  0  0  0
  148.2554  143.8219  157.4475 H   0  0  0  0  0  0  0  0  0  0  0  0
  149.1544  142.8366  155.8962 H   0  0  0  0  0  0  0  0  0  0  0  0
  149.1420  140.0698  156.6526 H   0  0  0  0  0  0  0  0  0  0  0  0
  147.8561  141.0836  156.0197 H   0  0  0  0  0  0  0  0  0  0  0  0
  148.2752  139.6820  154.1775 H   0  0  0  0  0  0  0  0  0  0  0  0
  149.2811  141.0620  153.7796 H   0  0  0  0  0  0  0  0  0  0  0  0
  149.5768  137.4615  153.9652 H   0  0  0  0  0  0  0  0  0  0  0  0
  153.3907  138.8557  154.6739 H   0  0  0  0  0  0  0  0  0  0  0  0
  152.0468  140.9963  157.1294 H   0  0  0  0  0  0  0  0  0  0  0  0
  150.7601  140.2244  158.0089 H   0  0  0  0  0  0  0  0  0  0  0  0
  150.5002  142.0228  155.4585 H   0  0  0  0  0  0  0  0  0  0  0  0
  1  2  1  0  0  0  0
  1 20  1  0  0  0  0
  1 21  1  0  0  0  0
  1 22  1  0  0  0  0
  2 19  1  0  0  0  0
  2  3  1  0  0  0  0
  2 23  1  0  0  0  0
  3  4  1  0  0  0  0
  3 24  1  0  0  0  0
  3 25  1  0  0  0  0
  4  5  1  0  0  0  0
  4  6  1  0  0  0  0
  4  7  1  0  0  0  0
  5 26  1  0  0  0  0
  5 27  1  0  0  0  0
  5 28  1  0  0  0  0
  6 29  1  0  0  0  0
  6 30  1  0  0  0  0
  6 31  1  0  0  0  0
  7  8  1  0  0  0  0
  7 32  1  0  0  0  0
  7 33  1  0  0  0  0
  8  9  1  0  0  0  0
  8 11  1  0  0  0  0
  8 19  1  0  0  0  0
  9 10  1  0  0  0  0
  9 34  1  0  0  0  0
  9 35  1  0  0  0  0
 10 36  1  0  0  0  0
 11 12  1  0  0  0  0
 11 37  1  0  0  0  0
 11 46  1  0  0  0  0
 12 13  1  0  0  0  0
 12 38  1  0  0  0  0
 12 39  1  0  0  0  0
 13 14  1  0  0  0  0
 13 40  1  0  0  0  0
 13 41  1  0  0  0  0
 14 18  1  0  0  0  0
 14 15  1  0  0  0  0
 15 16  2  0  0  0  0
 15 42  1  0  0  0  0
 16 17  1  0  0  0  0
 17 18  2  0  0  0  0
 17 43  1  0  0  0  0
 19 44  1  0  0  0  0
 19 45  1  0  0  0  0
M  CHG  1  11   1
M  END
> <s_m_source_file>
AV-unprocessed.smi

> <i_m_source_file_index>
648

> <i_lp_mmshare_version>
43012

> <i_f3d_flags>
0

> <s_epik_input>
W0NIM11DMShbQ0gzXSlbQ0gyXVtDQEBIXShbQ0gzXSlbQ0gyXVtDQF0oW0NIMl0xKShbQ0gyXVtPSF0pW05IXVtDSDJdW0NIMl1uMltjSF1uW2NIXW4y

> <s_epik_cmdline>
J2VwaWtfcHl0aG9uJywgJy1waCcsICc3LjAnLCAnLXRuJywgJzgnLCAnLW1hJywgJzIwMCcsICctbWV0YWxfYmluZGluZycsICctaW1hZScsICc8aW5maWxlLm1hZT4nLCAnLW9tYWUnLCAnPG91dGZpbGUubWFlPic=

> <r_lp_tautomer_probability>
1

> <r_epik_Ionization_Penalty>
0.00942316

> <r_epik_Ionization_Penalty_Charging>
0.00942185

> <r_epik_Ionization_Penalty_Neutral>
1.31257e-06

> <r_epik_State_Penalty>
0.00715409

> <r_epik_Charging_Adjusted_Penalty>
0.0165759

> <i_epik_Tot_Q>
1

> <i_epik_Tot_abs_Q>
1

> <r_epik_Metal_State_Penalty>
0.00715563

> <b_epik_Metal_Only>
0

> <s_lp_Force_Field>
OPLS_2005

> <r_lp_Energy>
31.5534

> <b_lp_Chiralities_Consistent>
1

> <s_lp_Variant>
AV-unprocessed.smi:648-2

> <Gold.Version>
5.8.1

> <Gold.Id.Protein>
6NUR|6NUR_protein|mol2

> <Gold.PLP.Fitness>
54.6785

> <Gold.PLP.PLP>
-41.9043

> <Gold.PLP.part.hbond>
-5.0000

> <Gold.PLP.part.metal>
0.0000

> <Gold.PLP.part.buried>
-3.4145

> <Gold.PLP.part.nonpolar>
-34.1811

> <Gold.PLP.part.repulsive>
0.3173

> <Gold.PLP.ligand.clash>
0.0000

> <Gold.PLP.ligand.torsion>
0.7486

> <Gold.PLP.Chemscore.Hbond>
3.7480

> <Gold.PLP.Chemscore.CHOScore>
1.0000

> <Gold.PLP.Chemscore.Metal>
0.0000

> <Gold.Chemscore.Hbonds>
donor molecule, donor type, donor heavy atom, donor atom, acceptor molecule, acceptor atom, score
      L1  H    10    36       P1  8028  0.12
      L1  H    11    37       P1  8028  2.00
      P1  H  7989  7998       L1    18  0.95
      P1  H 10752 10763       L1    16  0.17
      L1  C    15    42       P1  7948  1.00

> <Gold.PLP.Chemscore.Internal.Correction>
0.0273

> <Gold.Rescore>
     Score         DG    S(hbond)    S(metal)    S(lipo)     H(rot)  DE(clash)    DE(int)     intcor
     14.28     -16.90       2.10        0.00     107.27       3.17       1.96       0.65       ----

> <Gold.Chemscore.Fitness>
14.2850

> <Gold.Chemscore.DG>
-16.9014

> <Gold.Chemscore.ZeroCoef>
-5.4800

> <Gold.Chemscore.Hbond>
2.0956

> <Gold.Chemscore.Metal>
0.0000

> <Gold.Chemscore.Lipo>
107.2654

> <Gold.Chemscore.Internal_Hbond>
0.0000

> <Gold.Chemscore.DEClash>
1.9621

> <Gold.Chemscore.DEInternal>
0.6544

> <Gold.Chemscore.Rot>
3.1750

> <Gold.Chemscore.Internal.Correction>
   9.000000E+99

> <Gold.Chemscore.Hbonds>
donor molecule, donor type, donor heavy atom, donor atom, acceptor molecule, acceptor atom, score
      L1  H    11    37       P1  8028  0.96
      P1  H  7989  7998       L1    18  0.17
      P1  H 10752 10763       L1    16  0.17

> <Gold.Chemscore.Hbond.Weighted>
-6.9993

> <Gold.Chemscore.Metal.Weighted>
-0.0000

> <Gold.Chemscore.Lipo.Weighted>
-12.5501

> <Gold.Chemscore.Internal_Hbond.Weighted>
0.0000

> <Gold.Chemscore.DEClash.Weighted>
1.9621

> <Gold.Chemscore.DEInternal.Weighted>
0.6544

> <Gold.Chemscore.Rot.Weighted>
8.1279

> <Gold.Chemscore.Internal.Correction.Weighted>
   9.000000E+99

> <Gold.Protein.RotatedTorsions>
[ 6907 6896 6895 6894 ] final   75.89 input  -60.11 | X-H torsion
[ 7974 7965 7964 7962 ] final  145.92 input  175.53 | X-H torsion
[ 8008 7997 7996 7995 ] final  143.23 input   59.86 | X-H torsion
[ 10167 10162 10161 10158 ] final  -38.04 input  -65.29 | X-H torsion
[ 10718 10713 10712 10709 ] final  -57.62 input   66.30 | X-H torsion
[ 10763 10752 10751 10750 ] final   45.83 input  -60.55 | X-H torsion
[ 11005 11000 10999 10996 ] final -117.78 input  -57.11 | X-H torsion

> <Gold.Protein.ActiveResidues>
 VAL166  LYS551  ARG553  GLY616  TRP617  ASP618  TYR619  PRO620  LYS621  CYS622 
 ASP623  PHE694  ASN695  SER759  ASP760  ASP761  ALA762  ILE779  LEU786  VAL792 
 PHE793  MET794  SER795  GLU796  ALA797  LYS798  CYS799  TRP800  GLU811  SER814 

> <Gold.Protein.RotatedAtoms>
  152.5047  134.4053  159.9429 H   0  0  0  0  0  0  0  0  0  0  0  0  # atno 6907 bound_to 6896
  151.4018  133.3749  159.2741 H   0  0  0  0  0  0  0  0  0  0  0  0  # atno 6908 bound_to 6896
  150.9356  134.8790  159.7638 H   0  0  0  0  0  0  0  0  0  0  0  0  # atno 6909 bound_to 6896
  144.8713  139.5842  143.5885 H   0  0  0  0  0  0  0  0  0  0  0  0  # atno 7974 bound_to 7965
  156.2934  140.2268  156.4856 H   0  0  0  0  0  0  0  0  0  0  0  0  # atno 8008 bound_to 7997
  154.7815  140.0460  157.1152 H   0  0  0  0  0  0  0  0  0  0  0  0  # atno 8009 bound_to 7997
  154.9753  140.3071  155.4973 H   0  0  0  0  0  0  0  0  0  0  0  0  # atno 8010 bound_to 7997
  140.7103  143.3303  151.2585 H   0  0  0  0  0  0  0  0  0  0  0  0  # atno 10167 bound_to 10162
  156.1197  130.4167  150.0465 H   0  0  0  0  0  0  0  0  0  0  0  0  # atno 10718 bound_to 10713
  152.9819  135.6027  154.3500 H   0  0  0  0  0  0  0  0  0  0  0  0  # atno 10763 bound_to 10752
  154.3190  135.2770  155.2531 H   0  0  0  0  0  0  0  0  0  0  0  0  # atno 10764 bound_to 10752
  154.4706  135.5943  153.6374 H   0  0  0  0  0  0  0  0  0  0  0  0  # atno 10765 bound_to 10752
  141.0331  133.9950  157.3112 H   0  0  0  0  0  0  0  0  0  0  0  0  # atno 11005 bound_to 11000
  146.2932  139.7200  142.9146 LP  0  0  0  0  0  0  0  0  0  0  0  0  # atno 17320 bound_to 7965
  145.4125  141.0398  143.3009 LP  0  0  0  0  0  0  0  0  0  0  0  0  # atno 17321 bound_to 7965
  139.6783  143.9899  152.2793 LP  0  0  0  0  0  0  0  0  0  0  0  0  # atno 17342 bound_to 10162
  139.9521  144.6614  150.8162 LP  0  0  0  0  0  0  0  0  0  0  0  0  # atno 17343 bound_to 10162
  156.8407  130.9424  151.3632 LP  0  0  0  0  0  0  0  0  0  0  0  0  # atno 17370 bound_to 10713
  157.6380  130.8783  149.9396 LP  0  0  0  0  0  0  0  0  0  0  0  0  # atno 17371 bound_to 10713
  139.9222  135.0201  156.8105 LP  0  0  0  0  0  0  0  0  0  0  0  0  # atno 17394 bound_to 11000
  140.6370  133.9853  155.7689 LP  0  0  0  0  0  0  0  0  0  0  0  0  # atno 17395 bound_to 11000

$$$$
