AV-unprocessed.smi:95|AV-procd|sdf|856|dock6
  -GOLD-   2262017303D 1   1.00000     0.00000
 Structure written by MMmdl.
 41 44  0  0  0  0  0  0  0  0  1 V2000
  149.9513  139.1806  154.0735 O   0  0  0  0  0  0  0  0  0  0  0  0
  150.3804  139.9007  154.9771 C   0  0  0  0  0  0  0  0  0  0  0  0
  149.9007  141.2563  155.2219 C   0  0  0  0  0  0  0  0  0  0  0  0
  148.9514  141.7788  154.4270 F   0  0  0  0  0  0  0  0  0  0  0  0
  150.3927  141.9986  156.2376 C   0  0  0  0  0  0  0  0  0  0  0  0
  151.3709  141.5390  157.1051 N   0  0  0  0  0  0  0  0  0  0  0  0
  151.8924  142.3819  158.2506 C   0  0  1  0  0  0  0  0  0  0  0  0
  152.3344  143.7698  157.7469 C   0  0  0  0  0  0  0  0  0  0  0  0
  151.5930  144.7148  158.6715 C   0  0  0  0  0  0  0  0  0  0  0  0
  150.3538  143.9054  159.0222 C   0  0  0  0  0  0  0  0  0  0  0  0
  150.8754  142.5938  159.1884 O   0  0  0  0  0  0  0  0  0  0  0  0
  151.8858  140.2333  156.9489 C   0  0  0  0  0  0  0  0  0  0  0  0
  152.7338  139.7948  157.7299 O   0  0  0  0  0  0  0  0  0  0  0  0
  151.3828  139.4610  155.8749 N   0  0  0  0  0  0  0  0  0  0  0  0
  151.8763  138.1021  155.7068 C   0  0  0  0  0  0  0  0  0  0  0  0
  153.3924  137.9545  155.6394 C   0  0  0  0  0  0  0  0  0  0  0  0
  154.0966  137.4431  156.7474 C   0  0  0  0  0  0  0  0  0  0  0  0
  155.4931  137.3057  156.6505 C   0  0  0  0  0  0  0  0  0  0  0  0
  156.1320  137.6791  155.4507 C   0  0  0  0  0  0  0  0  0  0  0  0
  157.5307  137.5537  155.3226 C   0  0  0  0  0  0  0  0  0  0  0  0
  158.1629  137.9284  154.1229 C   0  0  0  0  0  0  0  0  0  0  0  0
  157.3965  138.4270  153.0538 C   0  0  0  0  0  0  0  0  0  0  0  0
  155.9995  138.5502  153.1841 C   0  0  0  0  0  0  0  0  0  0  0  0
  155.3443  138.1807  154.3782 C   0  0  0  0  0  0  0  0  0  0  0  0
  154.0022  138.3064  154.4837 N   0  0  0  0  0  0  0  0  0  0  0  0
  149.9880  142.9910  156.3625 H   0  0  0  0  0  0  0  0  0  0  0  0
  152.6917  141.7955  158.7075 H   0  0  0  0  0  0  0  0  0  0  0  0
  153.4182  143.8785  157.7998 H   0  0  0  0  0  0  0  0  0  0  0  0
  152.0133  143.9184  156.7147 H   0  0  0  0  0  0  0  0  0  0  0  0
  152.1834  144.9021  159.5693 H   0  0  0  0  0  0  0  0  0  0  0  0
  151.3606  145.6734  158.2070 H   0  0  0  0  0  0  0  0  0  0  0  0
  149.8583  144.2587  159.9265 H   0  0  0  0  0  0  0  0  0  0  0  0
  149.6331  143.9237  158.2036 H   0  0  0  0  0  0  0  0  0  0  0  0
  151.4671  137.5150  156.5312 H   0  0  0  0  0  0  0  0  0  0  0  0
  151.4209  137.6729  154.8139 H   0  0  0  0  0  0  0  0  0  0  0  0
  153.5796  137.1636  157.6538 H   0  0  0  0  0  0  0  0  0  0  0  0
  156.0605  136.9196  157.4845 H   0  0  0  0  0  0  0  0  0  0  0  0
  158.1224  137.1710  156.1415 H   0  0  0  0  0  0  0  0  0  0  0  0
  159.2343  137.8336  154.0231 H   0  0  0  0  0  0  0  0  0  0  0  0
  157.8798  138.7154  152.1320 H   0  0  0  0  0  0  0  0  0  0  0  0
  155.4231  138.9344  152.3554 H   0  0  0  0  0  0  0  0  0  0  0  0
  1  2  2  0  0  0  0
  2 14  1  0  0  0  0
  2  3  1  0  0  0  0
  3  4  1  0  0  0  0
  3  5  2  0  0  0  0
  5  6  1  0  0  0  0
  5 26  1  0  0  0  0
  6  7  1  0  0  0  0
  6 12  1  0  0  0  0
  7 11  1  0  0  0  0
  7  8  1  0  0  0  0
  7 27  1  0  0  0  0
  8  9  1  0  0  0  0
  8 28  1  0  0  0  0
  8 29  1  0  0  0  0
  9 10  1  0  0  0  0
  9 30  1  0  0  0  0
  9 31  1  0  0  0  0
 10 11  1  0  0  0  0
 10 32  1  0  0  0  0
 10 33  1  0  0  0  0
 12 13  2  0  0  0  0
 12 14  1  0  0  0  0
 14 15  1  0  0  0  0
 15 16  1  0  0  0  0
 15 34  1  0  0  0  0
 15 35  1  0  0  0  0
 16 25  1  0  0  0  0
 16 17  2  0  0  0  0
 17 18  1  0  0  0  0
 17 36  1  0  0  0  0
 18 19  2  0  0  0  0
 18 37  1  0  0  0  0
 19 24  1  0  0  0  0
 19 20  1  0  0  0  0
 20 21  2  0  0  0  0
 20 38  1  0  0  0  0
 21 22  1  0  0  0  0
 21 39  1  0  0  0  0
 22 23  2  0  0  0  0
 22 40  1  0  0  0  0
 23 24  1  0  0  0  0
 23 41  1  0  0  0  0
 24 25  2  0  0  0  0
M  END
> <s_m_source_file>
AV-unprocessed.smi

> <i_m_source_file_index>
95

> <i_lp_mmshare_version>
43012

> <i_f3d_flags>
0

> <s_epik_input>
TzFbQ0gyXVtDSDJdW0NIMl1bQ0BIXTFuKFtjSF1jKEYpYzI9TyljKD1PKW4yW0NIMl1jKFtjSF1bY0hdMyluYyhjMzQpW2NIXVtjSF1bY0hdW2NIXTQ=

> <s_epik_cmdline>
J2VwaWtfcHl0aG9uJywgJy1waCcsICc3LjAnLCAnLXRuJywgJzgnLCAnLW1hJywgJzIwMCcsICctbWV0YWxfYmluZGluZycsICctaW1hZScsICc8aW5maWxlLm1hZT4nLCAnLW9tYWUnLCAnPG91dGZpbGUubWFlPic=

> <r_lp_tautomer_probability>
1

> <r_epik_Ionization_Penalty>
0.0274176

> <r_epik_Ionization_Penalty_Charging>
1.11818e-08

> <r_epik_Ionization_Penalty_Neutral>
0.0274176

> <r_epik_State_Penalty>
0.0224396

> <r_epik_Charging_Adjusted_Penalty>
0.0224396

> <i_epik_Tot_Q>
0

> <i_epik_Tot_abs_Q>
0

> <r_epik_Metal_State_Penalty>
2.28695e-05

> <b_epik_Metal_Only>
0

> <s_epik_Chemistry_Notes>
This compound contains an acetal/aminal-like group ( X-CH(R)-Y where X, Y are N, S, or O) that may be acid/base labile, releasing an aldehyde.

> <s_lp_Force_Field>
OPLS_2005

> <r_lp_Energy>
34.6925

> <b_lp_Chiralities_Consistent>
1

> <s_lp_Variant>
AV-unprocessed.smi:95-2

> <Gold.Version>
5.8.1

> <Gold.Id.Protein>
6NUR|6NUR_protein|mol2

> <Gold.PLP.Fitness>
48.5383

> <Gold.PLP.PLP>
-43.2836

> <Gold.PLP.part.hbond>
-2.9411

> <Gold.PLP.part.metal>
0.0000

> <Gold.PLP.part.buried>
3.4089

> <Gold.PLP.part.nonpolar>
-43.5653

> <Gold.PLP.part.repulsive>
0.2258

> <Gold.PLP.ligand.clash>
0.0000

> <Gold.PLP.ligand.torsion>
0.3795

> <Gold.PLP.Chemscore.Hbond>
1.0000

> <Gold.PLP.Chemscore.CHOScore>
1.0000

> <Gold.PLP.Chemscore.Metal>
0.0000

> <Gold.Chemscore.Hbonds>
donor molecule, donor type, donor heavy atom, donor atom, acceptor molecule, acceptor atom, score
      P1  H  7997  8009       L1    13  1.00
      L1  C     5    26       P1  8028  1.00

> <Gold.PLP.Chemscore.Internal.Correction>
0.0137

> <Gold.Rescore>
     Score         DG    S(hbond)    S(metal)    S(lipo)     H(rot)  DE(clash)    DE(int)     intcor
     14.68     -20.87       0.90        0.00     138.71       1.50       3.37       2.82       ----

> <Gold.Chemscore.Fitness>
14.6794

> <Gold.Chemscore.DG>
-20.8729

> <Gold.Chemscore.ZeroCoef>
-5.4800

> <Gold.Chemscore.Hbond>
0.8981

> <Gold.Chemscore.Metal>
0.0000

> <Gold.Chemscore.Lipo>
138.7146

> <Gold.Chemscore.Internal_Hbond>
0.0000

> <Gold.Chemscore.DEClash>
3.3705

> <Gold.Chemscore.DEInternal>
2.8230

> <Gold.Chemscore.Rot>
1.4985

> <Gold.Chemscore.Internal.Correction>
   9.000000E+99

> <Gold.Chemscore.Hbonds>
donor molecule, donor type, donor heavy atom, donor atom, acceptor molecule, acceptor atom, score
      P1  H  7997  8009       L1    13  0.68

> <Gold.Chemscore.Hbond.Weighted>
-2.9995

> <Gold.Chemscore.Metal.Weighted>
-0.0000

> <Gold.Chemscore.Lipo.Weighted>
-16.2296

> <Gold.Chemscore.Internal_Hbond.Weighted>
0.0000

> <Gold.Chemscore.DEClash.Weighted>
3.3705

> <Gold.Chemscore.DEInternal.Weighted>
2.8230

> <Gold.Chemscore.Rot.Weighted>
3.8362

> <Gold.Chemscore.Internal.Correction.Weighted>
   9.000000E+99

> <Gold.Protein.RotatedTorsions>
[ 6907 6896 6895 6894 ] final  111.25 input  -60.11 | X-H torsion
[ 7974 7965 7964 7962 ] final  123.81 input  175.53 | X-H torsion
[ 8008 7997 7996 7995 ] final  158.80 input   59.86 | X-H torsion
[ 10167 10162 10161 10158 ] final  130.88 input  -65.29 | X-H torsion
[ 10718 10713 10712 10709 ] final -131.51 input   66.30 | X-H torsion
[ 10763 10752 10751 10750 ] final   50.67 input  -60.55 | X-H torsion
[ 11005 11000 10999 10996 ] final   62.40 input  -57.11 | X-H torsion

> <Gold.Protein.ActiveResidues>
 VAL166  LYS551  ARG553  GLY616  TRP617  ASP618  TYR619  PRO620  LYS621  CYS622 
 ASP623  PHE694  ASN695  SER759  ASP760  ASP761  ALA762  ILE779  LEU786  VAL792 
 PHE793  MET794  SER795  GLU796  ALA797  LYS798  CYS799  TRP800  GLU811  SER814 

> <Gold.Protein.RotatedAtoms>
  152.4979  133.8684  159.7285 H   0  0  0  0  0  0  0  0  0  0  0  0  # atno 6907 bound_to 6896
  150.9177  133.6910  159.2846 H   0  0  0  0  0  0  0  0  0  0  0  0  # atno 6908 bound_to 6896
  151.4297  135.1012  159.9691 H   0  0  0  0  0  0  0  0  0  0  0  0  # atno 6909 bound_to 6896
  145.0917  139.3582  143.4857 H   0  0  0  0  0  0  0  0  0  0  0  0  # atno 7974 bound_to 7965
  156.2279  140.1848  156.7316 H   0  0  0  0  0  0  0  0  0  0  0  0  # atno 8008 bound_to 7997
  154.5973  140.0641  156.9348 H   0  0  0  0  0  0  0  0  0  0  0  0  # atno 8009 bound_to 7997
  155.2234  140.3309  155.4315 H   0  0  0  0  0  0  0  0  0  0  0  0  # atno 8010 bound_to 7997
  139.5409  144.6729  151.4627 H   0  0  0  0  0  0  0  0  0  0  0  0  # atno 10167 bound_to 10162
  156.2252  130.7003  151.0799 H   0  0  0  0  0  0  0  0  0  0  0  0  # atno 10718 bound_to 10713
  152.9784  135.5871  154.4290 H   0  0  0  0  0  0  0  0  0  0  0  0  # atno 10763 bound_to 10752
  154.3906  135.2768  155.2159 H   0  0  0  0  0  0  0  0  0  0  0  0  # atno 10764 bound_to 10752
  154.4033  135.6098  153.5964 H   0  0  0  0  0  0  0  0  0  0  0  0  # atno 10765 bound_to 10752
  140.0095  134.6319  155.9803 H   0  0  0  0  0  0  0  0  0  0  0  0  # atno 11005 bound_to 11000
  146.3531  140.0754  142.8621 LP  0  0  0  0  0  0  0  0  0  0  0  0  # atno 17320 bound_to 7965
  145.1059  140.9375  143.4685 LP  0  0  0  0  0  0  0  0  0  0  0  0  # atno 17321 bound_to 7965
  140.6639  143.8440  150.6919 LP  0  0  0  0  0  0  0  0  0  0  0  0  # atno 17342 bound_to 10162
  140.1843  143.4088  152.1910 LP  0  0  0  0  0  0  0  0  0  0  0  0  # atno 17343 bound_to 10162
  157.7107  131.0735  150.6512 LP  0  0  0  0  0  0  0  0  0  0  0  0  # atno 17370 bound_to 10713
  156.6576  130.4503  149.5698 LP  0  0  0  0  0  0  0  0  0  0  0  0  # atno 17371 bound_to 10713
  141.1700  133.6537  156.4619 LP  0  0  0  0  0  0  0  0  0  0  0  0  # atno 17394 bound_to 11000
  140.4581  134.6867  157.5072 LP  0  0  0  0  0  0  0  0  0  0  0  0  # atno 17395 bound_to 11000

$$$$
