AV-unprocessed.smi:2503|AV-procd|sdf|9847|dock9
  -GOLD-   2272013473D 1   1.00000     0.00000
 Structure written by MMmdl.
 37 38  0  0  0  0  0  0  0  0  2 V2000
  152.3695  144.8109  157.9877 C   0  0  0  0  0  0  0  0  0  0  0  0
  151.5322  143.9652  158.9569 C   0  0  0  0  0  0  0  0  0  0  0  0
  150.9185  144.8262  160.0722 C   0  0  0  0  0  0  0  0  0  0  0  0
  152.3322  142.8152  159.5050 C   0  0  0  0  0  0  0  0  0  0  0  0
  153.4593  142.9275  160.2197 N   0  3  0  0  0  0  0  0  0  0  0  0
  153.9544  141.6925  160.5358 C   0  0  0  0  0  0  0  0  0  0  0  0
  153.1019  140.7800  159.9740 C   0  0  0  0  0  0  0  0  0  0  0  0
  152.1191  141.4959  159.3375 N   0  0  0  0  0  0  0  0  0  0  0  0
  150.9897  140.9270  158.5855 C   0  0  0  0  0  0  0  0  0  0  0  0
  151.4004  140.4359  157.1920 C   0  0  0  0  0  0  0  0  0  0  0  0
  152.5019  139.9033  157.0362 O   0  0  0  0  0  0  0  0  0  0  0  0
  150.4767  140.6371  156.2241 N   0  0  0  0  0  0  0  0  0  0  0  0
  150.4763  140.3076  154.9105 C   0  0  0  0  0  0  0  0  0  0  0  0
  151.4409  139.7281  154.4147 O   0  0  0  0  0  0  0  0  0  0  0  0
  149.3905  140.6494  154.1922 N   0  0  0  0  0  0  0  0  0  0  0  0
  148.2774  141.4037  154.6701 C   0  0  0  0  0  0  0  0  0  0  0  0
  146.9512  140.6875  154.8043 C   0  0  0  0  0  0  0  0  0  0  0  0
  147.1529  141.6854  153.6975 C   0  0  0  0  0  0  0  0  0  0  0  0
  152.7447  144.2069  157.1612 H   0  0  0  0  0  0  0  0  0  0  0  0
  153.2278  145.2580  158.4902 H   0  0  0  0  0  0  0  0  0  0  0  0
  151.7760  145.6198  157.5608 H   0  0  0  0  0  0  0  0  0  0  0  0
  150.7050  143.5288  158.3989 H   0  0  0  0  0  0  0  0  0  0  0  0
  150.2904  144.2250  160.7302 H   0  0  0  0  0  0  0  0  0  0  0  0
  150.2934  145.6166  159.6558 H   0  0  0  0  0  0  0  0  0  0  0  0
  151.6863  145.3014  160.6834 H   0  0  0  0  0  0  0  0  0  0  0  0
  154.8547  141.5591  161.1178 H   0  0  0  0  0  0  0  0  0  0  0  0
  153.1224  139.6997  159.9780 H   0  0  0  0  0  0  0  0  0  0  0  0
  150.5523  140.1208  159.1762 H   0  0  0  0  0  0  0  0  0  0  0  0
  150.2266  141.6993  158.4819 H   0  0  0  0  0  0  0  0  0  0  0  0
  149.6397  141.1112  156.5308 H   0  0  0  0  0  0  0  0  0  0  0  0
  149.3515  140.3479  153.2287 H   0  0  0  0  0  0  0  0  0  0  0  0
  148.4781  142.1826  155.4046 H   0  0  0  0  0  0  0  0  0  0  0  0
  146.9098  139.6351  154.5295 H   0  0  0  0  0  0  0  0  0  0  0  0
  146.3064  140.9775  155.6317 H   0  0  0  0  0  0  0  0  0  0  0  0
  146.6422  142.6422  153.7852 H   0  0  0  0  0  0  0  0  0  0  0  0
  147.2455  141.2984  152.6843 H   0  0  0  0  0  0  0  0  0  0  0  0
  153.8814  143.8070  160.4901 H   0  0  0  0  0  0  0  0  0  0  0  0
  1  2  1  0  0  0  0
  1 19  1  0  0  0  0
  1 20  1  0  0  0  0
  1 21  1  0  0  0  0
  2  3  1  0  0  0  0
  2  4  1  0  0  0  0
  2 22  1  0  0  0  0
  3 23  1  0  0  0  0
  3 24  1  0  0  0  0
  3 25  1  0  0  0  0
  4  8  1  0  0  0  0
  4  5  2  0  0  0  0
  5  6  1  0  0  0  0
  5 37  1  0  0  0  0
  6  7  2  0  0  0  0
  6 26  1  0  0  0  0
  7  8  1  0  0  0  0
  7 27  1  0  0  0  0
  8  9  1  0  0  0  0
  9 10  1  0  0  0  0
  9 28  1  0  0  0  0
  9 29  1  0  0  0  0
 10 11  2  0  0  0  0
 10 12  1  0  0  0  0
 12 13  1  0  0  0  0
 12 30  1  0  0  0  0
 13 14  2  0  0  0  0
 13 15  1  0  0  0  0
 15 16  1  0  0  0  0
 15 31  1  0  0  0  0
 16 18  1  0  0  0  0
 16 17  1  0  0  0  0
 16 32  1  0  0  0  0
 17 18  1  0  0  0  0
 17 33  1  0  0  0  0
 17 34  1  0  0  0  0
 18 35  1  0  0  0  0
 18 36  1  0  0  0  0
M  CHG  1   5   1
M  END
> <s_m_source_file>
AV-unprocessed.smi

> <i_m_source_file_index>
2503

> <i_lp_mmshare_version>
43012

> <i_f3d_flags>
0

> <s_epik_input>
W0NIM11bQ0hdKFtDSDNdKWMxbltjSF1bY0hdbjFbQ0gyXUMoPU8pW05IXUMoPU8pW05IXVtDSF0yW0NIMl1bQ0gyXTI=

> <s_epik_cmdline>
J2VwaWtfcHl0aG9uJywgJy1waCcsICc3LjAnLCAnLXRuJywgJzgnLCAnLW1hJywgJzIwMCcsICctbWV0YWxfYmluZGluZycsICctaW1hZScsICc8aW5maWxlLm1hZT4nLCAnLW9tYWUnLCAnPG91dGZpbGUubWFlPic=

> <r_lp_tautomer_probability>
1

> <r_epik_Ionization_Penalty>
0.381304

> <r_epik_Ionization_Penalty_Charging>
0

> <r_epik_Ionization_Penalty_Neutral>
0.381304

> <r_epik_State_Penalty>
0.37936

> <r_epik_Charging_Adjusted_Penalty>
0.37936

> <i_epik_Tot_Q>
1

> <i_epik_Tot_abs_Q>
1

> <r_epik_Metal_State_Penalty>
0.628559

> <b_epik_Metal_Only>
0

> <s_lp_Force_Field>
OPLS_2005

> <r_lp_Energy>
25.6891

> <b_lp_Chiralities_Consistent>
1

> <s_lp_Variant>
AV-unprocessed.smi:2503-1

> <Gold.Version>
5.8.1

> <Gold.Id.Protein>
6NUR|6NUR_protein|mol2

> <Gold.PLP.Fitness>
45.0009

> <Gold.PLP.PLP>
-39.2633

> <Gold.PLP.part.hbond>
-2.7400

> <Gold.PLP.part.metal>
0.0000

> <Gold.PLP.part.buried>
-3.8834

> <Gold.PLP.part.nonpolar>
-32.8556

> <Gold.PLP.part.repulsive>
0.5631

> <Gold.PLP.ligand.clash>
0.0000

> <Gold.PLP.ligand.torsion>
0.6216

> <Gold.PLP.Chemscore.Hbond>
2.2963

> <Gold.PLP.Chemscore.CHOScore>
0.0000

> <Gold.PLP.Chemscore.Metal>
0.0000

> <Gold.Chemscore.Hbonds>
donor molecule, donor type, donor heavy atom, donor atom, acceptor molecule, acceptor atom, score
      L1  H    15    31       P1  7957  0.81
      P1  H  7989  7998       L1    14  0.42
      P1  H  7997  8009       L1    11  1.00

> <Gold.PLP.Chemscore.Internal.Correction>
0.0920

> <Gold.Rescore>
     Score         DG    S(hbond)    S(metal)    S(lipo)     H(rot)  DE(clash)    DE(int)     intcor
     13.83     -16.34       1.90        0.00      78.59       1.82       0.45       2.06       ----

> <Gold.Chemscore.Fitness>
13.8316

> <Gold.Chemscore.DG>
-16.3405

> <Gold.Chemscore.ZeroCoef>
-5.4800

> <Gold.Chemscore.Hbond>
1.8950

> <Gold.Chemscore.Metal>
0.0000

> <Gold.Chemscore.Lipo>
78.5933

> <Gold.Chemscore.Internal_Hbond>
0.0000

> <Gold.Chemscore.DEClash>
0.4469

> <Gold.Chemscore.DEInternal>
2.0621

> <Gold.Chemscore.Rot>
1.8220

> <Gold.Chemscore.Internal.Correction>
   9.000000E+99

> <Gold.Chemscore.Hbonds>
donor molecule, donor type, donor heavy atom, donor atom, acceptor molecule, acceptor atom, score
      L1  H    15    31       P1  7957  0.80
      P1  H  7989  7998       L1    14  0.02
      P1  H  7997  8009       L1    11  0.99

> <Gold.Chemscore.Hbond.Weighted>
-6.3294

> <Gold.Chemscore.Metal.Weighted>
-0.0000

> <Gold.Chemscore.Lipo.Weighted>
-9.1954

> <Gold.Chemscore.Internal_Hbond.Weighted>
0.0000

> <Gold.Chemscore.DEClash.Weighted>
0.4469

> <Gold.Chemscore.DEInternal.Weighted>
2.0621

> <Gold.Chemscore.Rot.Weighted>
4.6643

> <Gold.Chemscore.Internal.Correction.Weighted>
   9.000000E+99

> <Gold.Protein.RotatedTorsions>
[ 6907 6896 6895 6894 ] final   75.68 input  -60.11 | X-H torsion
[ 7974 7965 7964 7962 ] final   48.50 input  175.53 | X-H torsion
[ 8008 7997 7996 7995 ] final -174.05 input   59.86 | X-H torsion
[ 10167 10162 10161 10158 ] final -172.64 input  -65.29 | X-H torsion
[ 10718 10713 10712 10709 ] final  100.04 input   66.30 | X-H torsion
[ 10763 10752 10751 10750 ] final   31.02 input  -60.55 | X-H torsion
[ 11005 11000 10999 10996 ] final -136.28 input  -57.11 | X-H torsion

> <Gold.Protein.ActiveResidues>
 VAL166  LYS551  ARG553  GLY616  TRP617  ASP618  TYR619  PRO620  LYS621  CYS622 
 ASP623  PHE694  ASN695  SER759  ASP760  ASP761  ALA762  ILE779  LEU786  VAL792 
 PHE793  MET794  SER795  GLU796  ALA797  LYS798  CYS799  TRP800  GLU811  SER814 

> <Gold.Protein.RotatedAtoms>
  152.5037  134.4084  159.9440 H   0  0  0  0  0  0  0  0  0  0  0  0  # atno 6907 bound_to 6896
  151.4051  133.3739  159.2745 H   0  0  0  0  0  0  0  0  0  0  0  0  # atno 6908 bound_to 6896
  150.9333  134.8768  159.7624 H   0  0  0  0  0  0  0  0  0  0  0  0  # atno 6909 bound_to 6896
  146.0198  139.4638  142.9904 H   0  0  0  0  0  0  0  0  0  0  0  0  # atno 7974 bound_to 7965
  155.9651  140.1152  157.0861 H   0  0  0  0  0  0  0  0  0  0  0  0  # atno 8008 bound_to 7997
  154.4142  140.1174  156.5299 H   0  0  0  0  0  0  0  0  0  0  0  0  # atno 8009 bound_to 7997
  155.6669  140.3473  155.4806 H   0  0  0  0  0  0  0  0  0  0  0  0  # atno 8010 bound_to 7997
  139.5733  144.1591  152.1415 H   0  0  0  0  0  0  0  0  0  0  0  0  # atno 10167 bound_to 10162
  157.6863  131.0687  150.5040 H   0  0  0  0  0  0  0  0  0  0  0  0  # atno 10718 bound_to 10713
  153.0339  135.6449  154.1134 H   0  0  0  0  0  0  0  0  0  0  0  0  # atno 10763 bound_to 10752
  154.0852  135.2870  155.3284 H   0  0  0  0  0  0  0  0  0  0  0  0  # atno 10764 bound_to 10752
  154.6502  135.5428  153.7957 H   0  0  0  0  0  0  0  0  0  0  0  0  # atno 10765 bound_to 10752
  140.8819  134.1920  157.4585 H   0  0  0  0  0  0  0  0  0  0  0  0  # atno 11005 bound_to 11000
  145.7211  141.0075  143.1402 LP  0  0  0  0  0  0  0  0  0  0  0  0  # atno 17320 bound_to 7965
  144.6985  139.8871  143.7451 LP  0  0  0  0  0  0  0  0  0  0  0  0  # atno 17321 bound_to 7965
  140.1128  144.5442  150.6913 LP  0  0  0  0  0  0  0  0  0  0  0  0  # atno 17342 bound_to 10162
  140.7017  143.2439  151.4845 LP  0  0  0  0  0  0  0  0  0  0  0  0  # atno 17343 bound_to 10162
  156.5360  130.4196  149.6177 LP  0  0  0  0  0  0  0  0  0  0  0  0  # atno 17370 bound_to 10713
  156.3027  130.7185  151.2061 LP  0  0  0  0  0  0  0  0  0  0  0  0  # atno 17371 bound_to 10713
  139.8720  134.9821  156.5143 LP  0  0  0  0  0  0  0  0  0  0  0  0  # atno 17394 bound_to 11000
  140.8450  133.8175  155.9112 LP  0  0  0  0  0  0  0  0  0  0  0  0  # atno 17395 bound_to 11000

$$$$
