AV-unprocessed.smi:2007|AV-procd|sdf|8136|dock1
  -GOLD-   2272010373D 1   1.00000     0.00000
 Structure written by MMmdl.
 37 38  0  0  0  0  0  0  0  0  2 V2000
  146.7916  137.9066  155.5487 C   0  0  0  0  0  0  0  0  0  0  0  0
  146.5357  138.3273  154.0951 C   0  0  1  0  0  0  0  0  0  0  0  0
  147.4091  139.5426  153.7044 C   0  0  0  0  0  0  0  0  0  0  0  0
  148.6451  139.6614  154.5188 N   0  3  0  0  0  0  0  0  0  0  0  0
  149.7348  138.7574  154.0771 C   0  0  0  0  0  0  0  0  0  0  0  0
  150.9436  138.8842  155.0190 C   0  0  0  0  0  0  0  0  0  0  0  0
  151.3794  140.2381  155.0531 O   0  0  0  0  0  0  0  0  0  0  0  0
  150.3703  141.1108  155.5468 C   0  0  0  0  0  0  0  0  0  0  0  0
  149.1396  141.0536  154.6257 C   0  0  0  0  0  0  0  0  0  0  0  0
  146.7852  137.1809  153.2196 N   0  0  0  0  0  0  0  0  0  0  0  0
  145.8544  136.3607  152.7086 C   0  0  0  0  0  0  0  0  0  0  0  0
  144.6461  136.5075  152.8944 O   0  0  0  0  0  0  0  0  0  0  0  0
  146.4143  135.3836  151.9744 N   0  0  0  0  0  0  0  0  0  0  0  0
  145.7639  134.3543  151.2446 C   0  0  0  0  0  0  0  0  0  0  0  0
  144.4660  134.3651  150.9186 N   0  0  0  0  0  0  0  0  0  0  0  0
  144.0975  133.2269  150.1967 C   0  0  0  0  0  0  0  0  0  0  0  0
  145.1355  132.3559  149.9772 C   0  0  0  0  0  0  0  0  0  0  0  0
  146.6264  132.9341  150.6718 S   0  0  0  0  0  0  0  0  0  0  0  0
  146.5759  138.7243  156.2371 H   0  0  0  0  0  0  0  0  0  0  0  0
  147.8298  137.6093  155.7014 H   0  0  0  0  0  0  0  0  0  0  0  0
  146.1587  137.0648  155.8320 H   0  0  0  0  0  0  0  0  0  0  0  0
  145.4823  138.6029  154.0286 H   0  0  0  0  0  0  0  0  0  0  0  0
  147.6735  139.5044  152.6466 H   0  0  0  0  0  0  0  0  0  0  0  0
  146.8086  140.4447  153.8325 H   0  0  0  0  0  0  0  0  0  0  0  0
  149.3918  137.7233  154.0670 H   0  0  0  0  0  0  0  0  0  0  0  0
  150.0295  139.0063  153.0564 H   0  0  0  0  0  0  0  0  0  0  0  0
  150.6916  138.5434  156.0247 H   0  0  0  0  0  0  0  0  0  0  0  0
  151.7627  138.2577  154.6659 H   0  0  0  0  0  0  0  0  0  0  0  0
  150.1043  140.8363  156.5689 H   0  0  0  0  0  0  0  0  0  0  0  0
  150.7665  142.1257  155.5824 H   0  0  0  0  0  0  0  0  0  0  0  0
  149.3928  141.4305  153.6335 H   0  0  0  0  0  0  0  0  0  0  0  0
  148.3552  141.6973  155.0251 H   0  0  0  0  0  0  0  0  0  0  0  0
  147.7525  136.9798  153.0104 H   0  0  0  0  0  0  0  0  0  0  0  0
  147.4226  135.3747  151.9290 H   0  0  0  0  0  0  0  0  0  0  0  0
  143.0719  133.1176  149.8762 H   0  0  0  0  0  0  0  0  0  0  0  0
  145.1133  131.4131  149.4508 H   0  0  0  0  0  0  0  0  0  0  0  0
  148.3947  139.3790  155.4562 H   0  0  0  0  0  0  0  0  0  0  0  0
  1  2  1  0  0  0  0
  1 19  1  0  0  0  0
  1 20  1  0  0  0  0
  1 21  1  0  0  0  0
  2  3  1  0  0  0  0
  2 10  1  0  0  0  0
  2 22  1  0  0  0  0
  3  4  1  0  0  0  0
  3 23  1  0  0  0  0
  3 24  1  0  0  0  0
  4  9  1  0  0  0  0
  4  5  1  0  0  0  0
  4 37  1  0  0  0  0
  5  6  1  0  0  0  0
  5 25  1  0  0  0  0
  5 26  1  0  0  0  0
  6  7  1  0  0  0  0
  6 27  1  0  0  0  0
  6 28  1  0  0  0  0
  7  8  1  0  0  0  0
  8  9  1  0  0  0  0
  8 29  1  0  0  0  0
  8 30  1  0  0  0  0
  9 31  1  0  0  0  0
  9 32  1  0  0  0  0
 10 11  1  0  0  0  0
 10 33  1  0  0  0  0
 11 12  2  0  0  0  0
 11 13  1  0  0  0  0
 13 14  1  0  0  0  0
 13 34  1  0  0  0  0
 14 18  1  0  0  0  0
 14 15  2  0  0  0  0
 15 16  1  0  0  0  0
 16 17  2  0  0  0  0
 16 35  1  0  0  0  0
 17 18  1  0  0  0  0
 17 36  1  0  0  0  0
M  CHG  1   4   1
M  END
> <s_m_source_file>
AV-unprocessed.smi

> <i_m_source_file_index>
2007

> <i_lp_mmshare_version>
43012

> <i_f3d_flags>
0

> <s_epik_input>
W0NIMl0xW0NIMl1PW0NIMl1bQ0gyXU4xW0NIMl1bQ0BASF0oW0NIM10pW05IXUMoPU8pW05IXWMybltjSF1bY0hdczI=

> <s_epik_cmdline>
J2VwaWtfcHl0aG9uJywgJy1waCcsICc3LjAnLCAnLXRuJywgJzgnLCAnLW1hJywgJzIwMCcsICctbWV0YWxfYmluZGluZycsICctaW1hZScsICc8aW5maWxlLm1hZT4nLCAnLW9tYWUnLCAnPG91dGZpbGUubWFlPic=

> <r_lp_tautomer_probability>
0.999

> <r_epik_Ionization_Penalty>
0.695848

> <r_epik_Ionization_Penalty_Charging>
0.695697

> <r_epik_Ionization_Penalty_Neutral>
0.000150585

> <r_epik_State_Penalty>
0.717972

> <r_epik_Charging_Adjusted_Penalty>
1.41367

> <i_epik_Tot_Q>
1

> <i_epik_Tot_abs_Q>
1

> <r_epik_Metal_State_Penalty>
0.763271

> <b_epik_Metal_Only>
0

> <s_lp_Force_Field>
OPLS_2005

> <r_lp_Energy>
20.6539

> <b_lp_Chiralities_Consistent>
1

> <s_lp_Variant>
AV-unprocessed.smi:2007-4

> <Gold.Version>
5.8.1

> <Gold.Id.Protein>
6NUR|6NUR_protein|mol2

> <Gold.PLP.Fitness>
39.2258

> <Gold.PLP.PLP>
-29.5156

> <Gold.PLP.part.hbond>
-3.0000

> <Gold.PLP.part.metal>
0.0000

> <Gold.PLP.part.buried>
-4.4138

> <Gold.PLP.part.nonpolar>
-23.0048

> <Gold.PLP.part.repulsive>
0.5065

> <Gold.PLP.ligand.clash>
0.0000

> <Gold.PLP.ligand.torsion>
1.0718

> <Gold.PLP.Chemscore.Hbond>
2.9440

> <Gold.PLP.Chemscore.CHOScore>
1.0000

> <Gold.PLP.Chemscore.Metal>
0.0000

> <Gold.Chemscore.Hbonds>
donor molecule, donor type, donor heavy atom, donor atom, acceptor molecule, acceptor atom, score
      L1  H    10    33       P1  7948  0.94
      L1  H    13    34       P1  7948  1.00
      P1  H  7989  7998       L1     7  1.00
      L1  C    16    35       P1 10186  1.00

> <Gold.PLP.Chemscore.Internal.Correction>
0.0218

> <Gold.Rescore>
     Score         DG    S(hbond)    S(metal)    S(lipo)     H(rot)  DE(clash)    DE(int)     intcor
     15.66     -18.05       2.69        0.00      66.20       1.63       0.02       2.36       ----

> <Gold.Chemscore.Fitness>
15.6647

> <Gold.Chemscore.DG>
-18.0464

> <Gold.Chemscore.ZeroCoef>
-5.4800

> <Gold.Chemscore.Hbond>
2.6932

> <Gold.Chemscore.Metal>
0.0000

> <Gold.Chemscore.Lipo>
66.1989

> <Gold.Chemscore.Internal_Hbond>
0.0000

> <Gold.Chemscore.DEClash>
0.0208

> <Gold.Chemscore.DEInternal>
2.3608

> <Gold.Chemscore.Rot>
1.6306

> <Gold.Chemscore.Internal.Correction>
   9.000000E+99

> <Gold.Chemscore.Hbonds>
donor molecule, donor type, donor heavy atom, donor atom, acceptor molecule, acceptor atom, score
      L1  H    10    33       P1  7948  0.91
      L1  H    13    34       P1  7948  0.95
      P1  H  7989  7998       L1     7  0.25

> <Gold.Chemscore.Hbond.Weighted>
-8.9954

> <Gold.Chemscore.Metal.Weighted>
-0.0000

> <Gold.Chemscore.Lipo.Weighted>
-7.7453

> <Gold.Chemscore.Internal_Hbond.Weighted>
0.0000

> <Gold.Chemscore.DEClash.Weighted>
0.0208

> <Gold.Chemscore.DEInternal.Weighted>
2.3608

> <Gold.Chemscore.Rot.Weighted>
4.1743

> <Gold.Chemscore.Internal.Correction.Weighted>
   9.000000E+99

> <Gold.Protein.RotatedTorsions>
[ 6907 6896 6895 6894 ] final  137.49 input  -60.11 | X-H torsion
[ 7974 7965 7964 7962 ] final   19.93 input  175.53 | X-H torsion
[ 8008 7997 7996 7995 ] final   90.86 input   59.86 | X-H torsion
[ 10167 10162 10161 10158 ] final  -87.76 input  -65.29 | X-H torsion
[ 10718 10713 10712 10709 ] final   40.93 input   66.30 | X-H torsion
[ 10763 10752 10751 10750 ] final  154.39 input  -60.55 | X-H torsion
[ 11005 11000 10999 10996 ] final  -85.36 input  -57.11 | X-H torsion

> <Gold.Protein.ActiveResidues>
 VAL166  LYS551  ARG553  GLY616  TRP617  ASP618  TYR619  PRO620  LYS621  CYS622 
 ASP623  PHE694  ASN695  SER759  ASP760  ASP761  ALA762  ILE779  LEU786  VAL792 
 PHE793  MET794  SER795  GLU796  ALA797  LYS798  CYS799  TRP800  GLU811  SER814 

> <Gold.Protein.RotatedAtoms>
  152.2775  133.5439  159.5476 H   0  0  0  0  0  0  0  0  0  0  0  0  # atno 6907 bound_to 6896
  150.7183  134.0611  159.3840 H   0  0  0  0  0  0  0  0  0  0  0  0  # atno 6908 bound_to 6896
  151.8523  135.0553  160.0511 H   0  0  0  0  0  0  0  0  0  0  0  0  # atno 6909 bound_to 6896
  146.2131  139.8242  142.8673 H   0  0  0  0  0  0  0  0  0  0  0  0  # atno 7974 bound_to 7965
  156.0170  140.3344  155.6999 H   0  0  0  0  0  0  0  0  0  0  0  0  # atno 8008 bound_to 7997
  155.6077  140.0662  157.2733 H   0  0  0  0  0  0  0  0  0  0  0  0  # atno 8009 bound_to 7997
  154.4302  140.1799  156.1227 H   0  0  0  0  0  0  0  0  0  0  0  0  # atno 8010 bound_to 7997
  140.3813  143.2747  151.9381 H   0  0  0  0  0  0  0  0  0  0  0  0  # atno 10167 bound_to 10162
  157.3878  130.7789  149.7244 H   0  0  0  0  0  0  0  0  0  0  0  0  # atno 10718 bound_to 10713
  154.1516  135.2815  155.3134 H   0  0  0  0  0  0  0  0  0  0  0  0  # atno 10763 bound_to 10752
  154.6213  135.5466  153.7582 H   0  0  0  0  0  0  0  0  0  0  0  0  # atno 10764 bound_to 10752
  153.0219  135.6440  154.1660 H   0  0  0  0  0  0  0  0  0  0  0  0  # atno 10765 bound_to 10752
  141.1642  133.7395  156.9003 H   0  0  0  0  0  0  0  0  0  0  0  0  # atno 11005 bound_to 11000
  145.3064  141.0208  143.3579 LP  0  0  0  0  0  0  0  0  0  0  0  0  # atno 17320 bound_to 7965
  144.8968  139.4702  143.6652 LP  0  0  0  0  0  0  0  0  0  0  0  0  # atno 17321 bound_to 7965
  139.4795  144.5816  151.7923 LP  0  0  0  0  0  0  0  0  0  0  0  0  # atno 17342 bound_to 10162
  140.4935  144.1275  150.5955 LP  0  0  0  0  0  0  0  0  0  0  0  0  # atno 17343 bound_to 10162
  155.9791  130.4044  150.3609 LP  0  0  0  0  0  0  0  0  0  0  0  0  # atno 17370 bound_to 10713
  157.1721  131.0371  151.2790 LP  0  0  0  0  0  0  0  0  0  0  0  0  # atno 17371 bound_to 10713
  140.1587  134.9180  157.2687 LP  0  0  0  0  0  0  0  0  0  0  0  0  # atno 17394 bound_to 11000
  140.2637  134.3541  155.7397 LP  0  0  0  0  0  0  0  0  0  0  0  0  # atno 17395 bound_to 11000

$$$$
