AV-unprocessed.smi:2899|AV-procd|sdf|11144|dock5
  -GOLD-   2272016 23D 1   1.00000     0.00000
 Structure written by MMmdl.
 30 32  0  0  0  0  0  0  0  0  1 V2000
  153.1783  142.3531  161.5196 C   0  0  0  0  0  0  0  0  0  0  0  0
  152.5824  142.5995  160.1500 C   0  0  0  0  0  0  0  0  0  0  0  0
  152.4093  143.9039  159.6426 C   0  0  0  0  0  0  0  0  0  0  0  0
  151.8437  143.9990  158.3549 C   0  0  0  0  0  0  0  0  0  0  0  0
  151.4908  142.9019  157.6495 N   0  0  0  0  0  0  0  0  0  0  0  0
  151.7005  141.7155  158.2256 C   0  0  0  0  0  0  0  0  0  0  0  0
  151.3299  140.6166  157.4726 N   0  0  0  0  0  0  0  0  0  0  0  0
  151.3249  140.5744  156.0147 C   0  0  1  0  0  0  0  0  0  0  0  0
  152.1727  139.4363  155.4417 C   0  0  0  0  0  0  0  0  0  0  0  0
  151.1701  138.7340  154.5144 C   0  0  1  0  0  0  0  0  0  0  0  0
  150.1495  137.9101  155.3102 C   0  0  0  0  0  0  0  0  0  0  0  0
  149.2786  139.0048  155.9236 C   0  0  0  0  0  0  0  0  0  0  0  0
  149.9472  140.2825  155.3880 C   0  0  2  0  0  0  0  0  0  0  0  0
  150.3608  139.8265  154.1108 O   0  0  0  0  0  0  0  0  0  0  0  0
  152.2264  141.5074  159.4390 N   0  0  0  0  0  0  0  0  0  0  0  0
  153.3798  143.2919  162.0363 H   0  0  0  0  0  0  0  0  0  0  0  0
  154.1159  141.8036  161.4315 H   0  0  0  0  0  0  0  0  0  0  0  0
  152.4921  141.7678  162.1323 H   0  0  0  0  0  0  0  0  0  0  0  0
  152.6916  144.7821  160.2042 H   0  0  0  0  0  0  0  0  0  0  0  0
  151.6737  144.9582  157.8890 H   0  0  0  0  0  0  0  0  0  0  0  0
  150.9344  139.8327  157.9705 H   0  0  0  0  0  0  0  0  0  0  0  0
  151.7047  141.5220  155.6301 H   0  0  0  0  0  0  0  0  0  0  0  0
  153.0123  139.8401  154.8749 H   0  0  0  0  0  0  0  0  0  0  0  0
  152.5712  138.7591  156.1987 H   0  0  0  0  0  0  0  0  0  0  0  0
  151.6338  138.1885  153.6922 H   0  0  0  0  0  0  0  0  0  0  0  0
  149.5579  137.2775  154.6476 H   0  0  0  0  0  0  0  0  0  0  0  0
  150.6220  137.2742  156.0597 H   0  0  0  0  0  0  0  0  0  0  0  0
  148.2559  138.9256  155.5534 H   0  0  0  0  0  0  0  0  0  0  0  0
  149.2447  138.9635  157.0125 H   0  0  0  0  0  0  0  0  0  0  0  0
  149.2829  141.1464  155.3559 H   0  0  0  0  0  0  0  0  0  0  0  0
  1  2  1  0  0  0  0
  1 16  1  0  0  0  0
  1 17  1  0  0  0  0
  1 18  1  0  0  0  0
  2 15  1  0  0  0  0
  2  3  2  0  0  0  0
  3  4  1  0  0  0  0
  3 19  1  0  0  0  0
  4  5  2  0  0  0  0
  4 20  1  0  0  0  0
  5  6  1  0  0  0  0
  6  7  1  0  0  0  0
  6 15  2  0  0  0  0
  7  8  1  0  0  0  0
  7 21  1  0  0  0  0
  8 13  1  0  0  0  0
  8  9  1  0  0  0  0
  8 22  1  0  0  0  0
  9 10  1  0  0  0  0
  9 23  1  0  0  0  0
  9 24  1  0  0  0  0
 10 14  1  0  0  0  0
 10 11  1  0  0  0  0
 10 25  1  0  0  0  0
 11 12  1  0  0  0  0
 11 26  1  0  0  0  0
 11 27  1  0  0  0  0
 12 13  1  0  0  0  0
 12 28  1  0  0  0  0
 12 29  1  0  0  0  0
 13 14  1  0  0  0  0
 13 30  1  0  0  0  0
M  END
> <s_m_source_file>
AV-unprocessed.smi

> <i_m_source_file_index>
2899

> <i_lp_mmshare_version>
43012

> <i_f3d_flags>
0

> <s_epik_input>
W0NIM11jMVtjSF1bY0hdbmMobjEpW05IXVtDQEhdKFtDSDJdW0NAQEhdMjMpW0NAQEhdKE8zKVtDSDJdW0NIMl0y

> <s_epik_cmdline>
J2VwaWtfcHl0aG9uJywgJy1waCcsICc3LjAnLCAnLXRuJywgJzgnLCAnLW1hJywgJzIwMCcsICctbWV0YWxfYmluZGluZycsICctaW1hZScsICc8aW5maWxlLm1hZT4nLCAnLW9tYWUnLCAnPG91dGZpbGUubWFlPic=

> <r_lp_tautomer_probability>
1

> <r_epik_Ionization_Penalty>
0.00589655

> <r_epik_Ionization_Penalty_Charging>
0

> <r_epik_Ionization_Penalty_Neutral>
0.00589655

> <r_epik_State_Penalty>
0.00375391

> <r_epik_Charging_Adjusted_Penalty>
0.00375391

> <i_epik_Tot_Q>
0

> <i_epik_Tot_abs_Q>
0

> <r_epik_Metal_State_Penalty>
-0

> <b_epik_Metal_Only>
0

> <s_lp_Force_Field>
OPLS_2005

> <r_lp_Energy>
31.8412

> <b_lp_Chiralities_Consistent>
1

> <s_lp_Variant>
AV-unprocessed.smi:2899-2

> <Gold.Version>
5.8.1

> <Gold.Id.Protein>
6NUR|6NUR_protein|mol2

> <Gold.PLP.Fitness>
35.7528

> <Gold.PLP.PLP>
-33.1159

> <Gold.PLP.part.hbond>
-1.0000

> <Gold.PLP.part.metal>
0.0000

> <Gold.PLP.part.buried>
-4.4536

> <Gold.PLP.part.nonpolar>
-28.5578

> <Gold.PLP.part.repulsive>
0.8314

> <Gold.PLP.ligand.clash>
0.0000

> <Gold.PLP.ligand.torsion>
0.1860

> <Gold.PLP.Chemscore.Hbond>
1.0000

> <Gold.PLP.Chemscore.CHOScore>
0.0000

> <Gold.PLP.Chemscore.Metal>
0.0000

> <Gold.Chemscore.Hbonds>
donor molecule, donor type, donor heavy atom, donor atom, acceptor molecule, acceptor atom, score
      P1  H  7989  7998       L1    14  0.95

> <Gold.PLP.Chemscore.Internal.Correction>
0.0088

> <Gold.Rescore>
     Score         DG    S(hbond)    S(metal)    S(lipo)     H(rot)  DE(clash)    DE(int)     intcor
     15.36     -15.61       0.87        0.00      83.65       1.00       0.07       0.18       ----

> <Gold.Chemscore.Fitness>
15.3595

> <Gold.Chemscore.DG>
-15.6074

> <Gold.Chemscore.ZeroCoef>
-5.4800

> <Gold.Chemscore.Hbond>
0.8684

> <Gold.Chemscore.Metal>
0.0000

> <Gold.Chemscore.Lipo>
83.6494

> <Gold.Chemscore.Internal_Hbond>
0.0000

> <Gold.Chemscore.DEClash>
0.0727

> <Gold.Chemscore.DEInternal>
0.1752

> <Gold.Chemscore.Rot>
1.0000

> <Gold.Chemscore.Internal.Correction>
   9.000000E+99

> <Gold.Chemscore.Hbonds>
donor molecule, donor type, donor heavy atom, donor atom, acceptor molecule, acceptor atom, score
      P1  H  7989  7998       L1    14  0.16

> <Gold.Chemscore.Hbond.Weighted>
-2.9004

> <Gold.Chemscore.Metal.Weighted>
-0.0000

> <Gold.Chemscore.Lipo.Weighted>
-9.7870

> <Gold.Chemscore.Internal_Hbond.Weighted>
0.0000

> <Gold.Chemscore.DEClash.Weighted>
0.0727

> <Gold.Chemscore.DEInternal.Weighted>
0.1752

> <Gold.Chemscore.Rot.Weighted>
2.5600

> <Gold.Chemscore.Internal.Correction.Weighted>
   9.000000E+99

> <Gold.Protein.RotatedTorsions>
[ 6907 6896 6895 6894 ] final   62.73 input  -60.11 | X-H torsion
[ 7974 7965 7964 7962 ] final   -5.92 input  175.53 | X-H torsion
[ 8008 7997 7996 7995 ] final  143.42 input   59.86 | X-H torsion
[ 10167 10162 10161 10158 ] final -150.67 input  -65.29 | X-H torsion
[ 10718 10713 10712 10709 ] final -125.40 input   66.30 | X-H torsion
[ 10763 10752 10751 10750 ] final  144.20 input  -60.55 | X-H torsion
[ 11005 11000 10999 10996 ] final -129.29 input  -57.11 | X-H torsion

> <Gold.Protein.ActiveResidues>
 VAL166  LYS551  ARG553  GLY616  TRP617  ASP618  TYR619  PRO620  LYS621  CYS622 
 ASP623  PHE694  ASN695  SER759  ASP760  ASP761  ALA762  ILE779  LEU786  VAL792 
 PHE793  MET794  SER795  GLU796  ALA797  LYS798  CYS799  TRP800  GLU811  SER814 

> <Gold.Protein.RotatedAtoms>
  152.4196  134.5979  159.9991 H   0  0  0  0  0  0  0  0  0  0  0  0  # atno 6907 bound_to 6896
  151.6132  133.3340  159.3080 H   0  0  0  0  0  0  0  0  0  0  0  0  # atno 6908 bound_to 6896
  150.8084  134.7262  159.6731 H   0  0  0  0  0  0  0  0  0  0  0  0  # atno 6909 bound_to 6896
  146.2342  140.2094  142.8335 H   0  0  0  0  0  0  0  0  0  0  0  0  # atno 7974 bound_to 7965
  156.2930  140.2263  156.4887 H   0  0  0  0  0  0  0  0  0  0  0  0  # atno 8008 bound_to 7997
  154.7790  140.0461  157.1133 H   0  0  0  0  0  0  0  0  0  0  0  0  # atno 8009 bound_to 7997
  154.9782  140.3075  155.4961 H   0  0  0  0  0  0  0  0  0  0  0  0  # atno 8010 bound_to 7997
  139.7334  143.8773  152.2541 H   0  0  0  0  0  0  0  0  0  0  0  0  # atno 10167 bound_to 10162
  156.1672  130.6643  151.0131 H   0  0  0  0  0  0  0  0  0  0  0  0  # atno 10718 bound_to 10713
  153.9849  135.2937  155.3417 H   0  0  0  0  0  0  0  0  0  0  0  0  # atno 10763 bound_to 10752
  154.7248  135.5093  153.8871 H   0  0  0  0  0  0  0  0  0  0  0  0  # atno 10764 bound_to 10752
  153.0837  135.6687  154.0108 H   0  0  0  0  0  0  0  0  0  0  0  0  # atno 10765 bound_to 10752
  140.9444  134.1150  157.4121 H   0  0  0  0  0  0  0  0  0  0  0  0  # atno 11005 bound_to 11000
  144.9719  140.8377  143.5450 LP  0  0  0  0  0  0  0  0  0  0  0  0  # atno 17320 bound_to 7965
  145.2076  139.2220  143.5160 LP  0  0  0  0  0  0  0  0  0  0  0  0  # atno 17321 bound_to 7965
  139.8703  144.7072  150.8996 LP  0  0  0  0  0  0  0  0  0  0  0  0  # atno 17342 bound_to 10162
  140.7775  143.3744  151.1590 LP  0  0  0  0  0  0  0  0  0  0  0  0  # atno 17343 bound_to 10162
  157.6776  131.0846  150.7453 LP  0  0  0  0  0  0  0  0  0  0  0  0  # atno 17370 bound_to 10713
  156.7513  130.4769  149.5456 LP  0  0  0  0  0  0  0  0  0  0  0  0  # atno 17371 bound_to 10713
  139.8829  135.0046  156.6263 LP  0  0  0  0  0  0  0  0  0  0  0  0  # atno 17394 bound_to 11000
  140.7690  133.8754  155.8477 LP  0  0  0  0  0  0  0  0  0  0  0  0  # atno 17395 bound_to 11000

$$$$
