AV-unprocessed.smi:560|AV-procd|sdf|2929|dock7
  -GOLD-   2262023423D 1   1.00000     0.00000
 Structure written by MMmdl.
 42 43  0  0  0  0  0  0  0  0  2 V2000
  153.3969  142.0307  161.9169 C   0  0  0  0  0  0  0  0  0  0  0  0
  153.4601  142.2892  160.3977 C   0  0  1  0  0  0  0  0  0  0  0  0
  153.0282  141.0725  159.5612 C   0  0  0  0  0  0  0  0  0  0  0  0
  153.6238  139.9982  159.6523 O   0  0  0  0  0  0  0  0  0  0  0  0
  151.9846  141.2594  158.7369 N   0  0  0  0  0  0  0  0  0  0  0  0
  151.3982  140.2377  157.8757 C   0  0  2  0  0  0  0  0  0  0  0  0
  152.1538  140.1449  156.5371 C   0  0  0  0  0  0  0  0  0  0  0  0
  151.4746  139.1494  155.5818 C   0  0  0  0  0  0  0  0  0  0  0  0
  150.0513  139.5087  155.3561 N   0  3  1  0  0  0  0  0  0  0  0  0
  149.4055  138.6536  154.3272 C   0  0  0  0  0  0  0  0  0  0  0  0
  148.0123  139.1495  153.9255 C   0  0  0  0  0  0  0  0  0  0  0  0
  147.4128  138.5105  152.9184 N   0  0  0  0  0  0  0  0  0  0  0  0
  147.4891  140.1020  154.5017 O   0  0  0  0  0  0  0  0  0  0  0  0
  149.2927  139.5589  156.6350 C   0  0  0  0  0  0  0  0  0  0  0  0
  149.9203  140.5675  157.6111 C   0  0  0  0  0  0  0  0  0  0  0  0
  152.6966  143.4722  160.0151 N   0  0  0  0  0  0  0  0  0  0  0  0
  151.9759  144.3189  160.8332 C   0  0  0  0  0  0  0  0  0  0  0  0
  151.4538  145.3051  160.0464 C   0  0  0  0  0  0  0  0  0  0  0  0
  151.9218  144.9803  158.7429 C   0  0  0  0  0  0  0  0  0  0  0  0
  152.6702  143.8896  158.7279 N   0  0  0  0  0  0  0  0  0  0  0  0
  154.0268  141.1862  162.1992 H   0  0  0  0  0  0  0  0  0  0  0  0
  152.3822  141.8140  162.2540 H   0  0  0  0  0  0  0  0  0  0  0  0
  153.7498  142.8997  162.4727 H   0  0  0  0  0  0  0  0  0  0  0  0
  154.5040  142.4872  160.1495 H   0  0  0  0  0  0  0  0  0  0  0  0
  151.5538  142.1724  158.7226 H   0  0  0  0  0  0  0  0  0  0  0  0
  151.4482  139.2720  158.3829 H   0  0  0  0  0  0  0  0  0  0  0  0
  152.1952  141.1280  156.0657 H   0  0  0  0  0  0  0  0  0  0  0  0
  153.1874  139.8405  156.7061 H   0  0  0  0  0  0  0  0  0  0  0  0
  152.0096  139.1466  154.6312 H   0  0  0  0  0  0  0  0  0  0  0  0
  151.5368  138.1370  155.9845 H   0  0  0  0  0  0  0  0  0  0  0  0
  150.0090  138.6537  153.4184 H   0  0  0  0  0  0  0  0  0  0  0  0
  149.3600  137.6194  154.6734 H   0  0  0  0  0  0  0  0  0  0  0  0
  146.4916  138.7910  152.6139 H   0  0  0  0  0  0  0  0  0  0  0  0
  147.8832  137.7404  152.4643 H   0  0  0  0  0  0  0  0  0  0  0  0
  148.2566  139.8425  156.4478 H   0  0  0  0  0  0  0  0  0  0  0  0
  149.2699  138.5655  157.0859 H   0  0  0  0  0  0  0  0  0  0  0  0
  149.3634  140.5670  158.5494 H   0  0  0  0  0  0  0  0  0  0  0  0
  149.8304  141.5736  157.1983 H   0  0  0  0  0  0  0  0  0  0  0  0
  151.8945  144.1510  161.8971 H   0  0  0  0  0  0  0  0  0  0  0  0
  150.8336  146.1336  160.3548 H   0  0  0  0  0  0  0  0  0  0  0  0
  151.7449  145.5029  157.8143 H   0  0  0  0  0  0  0  0  0  0  0  0
  150.0519  140.4455  154.9776 H   0  0  0  0  0  0  0  0  0  0  0  0
  1  2  1  0  0  0  0
  1 21  1  0  0  0  0
  1 22  1  0  0  0  0
  1 23  1  0  0  0  0
  2  3  1  0  0  0  0
  2 16  1  0  0  0  0
  2 24  1  0  0  0  0
  3  4  2  0  0  0  0
  3  5  1  0  0  0  0
  5  6  1  0  0  0  0
  5 25  1  0  0  0  0
  6 15  1  0  0  0  0
  6  7  1  0  0  0  0
  6 26  1  0  0  0  0
  7  8  1  0  0  0  0
  7 27  1  0  0  0  0
  7 28  1  0  0  0  0
  8  9  1  0  0  0  0
  8 29  1  0  0  0  0
  8 30  1  0  0  0  0
  9 10  1  0  0  0  0
  9 14  1  0  0  0  0
  9 42  1  0  0  0  0
 10 11  1  0  0  0  0
 10 31  1  0  0  0  0
 10 32  1  0  0  0  0
 11 12  1  0  0  0  0
 11 13  2  0  0  0  0
 12 33  1  0  0  0  0
 12 34  1  0  0  0  0
 14 15  1  0  0  0  0
 14 35  1  0  0  0  0
 14 36  1  0  0  0  0
 15 37  1  0  0  0  0
 15 38  1  0  0  0  0
 16 20  1  0  0  0  0
 16 17  1  0  0  0  0
 17 18  2  0  0  0  0
 17 39  1  0  0  0  0
 18 19  1  0  0  0  0
 18 40  1  0  0  0  0
 19 20  2  0  0  0  0
 19 41  1  0  0  0  0
M  CHG  1   9   1
M  END
> <s_m_source_file>
AV-unprocessed.smi

> <i_m_source_file_index>
560

> <i_lp_mmshare_version>
43012

> <i_f3d_flags>
0

> <s_epik_input>
bjFbY0hdW2NIXVtjSF1uMVtDQEhdKFtDSDNdKUMoPU8pW05IXVtDSF0yW0NIMl1bQ0gyXU4oW0NIMl1bQ0gyXTIpW0NIMl1DKD1PKVtOSDJd

> <s_epik_cmdline>
J2VwaWtfcHl0aG9uJywgJy1waCcsICc3LjAnLCAnLXRuJywgJzgnLCAnLW1hJywgJzIwMCcsICctbWV0YWxfYmluZGluZycsICctaW1hZScsICc8aW5maWxlLm1hZT4nLCAnLW9tYWUnLCAnPG91dGZpbGUubWFlPic=

> <r_lp_tautomer_probability>
1

> <r_epik_Ionization_Penalty>
1.02943

> <r_epik_Ionization_Penalty_Charging>
1.02936

> <r_epik_Ionization_Penalty_Neutral>
7.4537e-05

> <r_epik_State_Penalty>
1.08036

> <r_epik_Charging_Adjusted_Penalty>
2.10972

> <i_epik_Tot_Q>
1

> <i_epik_Tot_abs_Q>
1

> <r_epik_Metal_State_Penalty>
1.09347

> <b_epik_Metal_Only>
0

> <s_lp_Force_Field>
OPLS_2005

> <r_lp_Energy>
15.5023

> <b_lp_Chiralities_Consistent>
1

> <s_lp_Variant>
AV-unprocessed.smi:560-4

> <Gold.Version>
5.8.1

> <Gold.Id.Protein>
6NUR|6NUR_protein|mol2

> <Gold.PLP.Fitness>
45.1306

> <Gold.PLP.PLP>
-42.9458

> <Gold.PLP.part.hbond>
-2.0000

> <Gold.PLP.part.metal>
0.0000

> <Gold.PLP.part.buried>
-4.9595

> <Gold.PLP.part.nonpolar>
-35.8833

> <Gold.PLP.part.repulsive>
0.3621

> <Gold.PLP.ligand.clash>
0.0000

> <Gold.PLP.ligand.torsion>
0.4791

> <Gold.PLP.Chemscore.Hbond>
1.0000

> <Gold.PLP.Chemscore.CHOScore>
0.0000

> <Gold.PLP.Chemscore.Metal>
0.0000

> <Gold.Chemscore.Hbonds>
donor molecule, donor type, donor heavy atom, donor atom, acceptor molecule, acceptor atom, score
      L1  H    12    34       P1  7948  1.00

> <Gold.PLP.Chemscore.Internal.Correction>
0.1431

> <Gold.Rescore>
     Score         DG    S(hbond)    S(metal)    S(lipo)     H(rot)  DE(clash)    DE(int)     intcor
     11.96     -15.19       1.64        0.00      91.36       2.52       0.47       2.77       ----

> <Gold.Chemscore.Fitness>
11.9563

> <Gold.Chemscore.DG>
-15.1887

> <Gold.Chemscore.ZeroCoef>
-5.4800

> <Gold.Chemscore.Hbond>
1.6412

> <Gold.Chemscore.Metal>
0.0000

> <Gold.Chemscore.Lipo>
91.3610

> <Gold.Chemscore.Internal_Hbond>
0.0000

> <Gold.Chemscore.DEClash>
0.4654

> <Gold.Chemscore.DEInternal>
2.7670

> <Gold.Chemscore.Rot>
2.5243

> <Gold.Chemscore.Internal.Correction>
   9.000000E+99

> <Gold.Chemscore.Hbonds>
donor molecule, donor type, donor heavy atom, donor atom, acceptor molecule, acceptor atom, score
      L1  H    12    34       P1  7948  1.00

> <Gold.Chemscore.Hbond.Weighted>
-5.4816

> <Gold.Chemscore.Metal.Weighted>
-0.0000

> <Gold.Chemscore.Lipo.Weighted>
-10.6892

> <Gold.Chemscore.Internal_Hbond.Weighted>
0.0000

> <Gold.Chemscore.DEClash.Weighted>
0.4654

> <Gold.Chemscore.DEInternal.Weighted>
2.7670

> <Gold.Chemscore.Rot.Weighted>
6.4622

> <Gold.Chemscore.Internal.Correction.Weighted>
   9.000000E+99

> <Gold.Protein.RotatedTorsions>
[ 6907 6896 6895 6894 ] final  -18.39 input  -60.11 | X-H torsion
[ 7974 7965 7964 7962 ] final   78.91 input  175.53 | X-H torsion
[ 8008 7997 7996 7995 ] final  109.02 input   59.86 | X-H torsion
[ 10167 10162 10161 10158 ] final   49.61 input  -65.29 | X-H torsion
[ 10718 10713 10712 10709 ] final -139.36 input   66.30 | X-H torsion
[ 10763 10752 10751 10750 ] final -102.19 input  -60.55 | X-H torsion
[ 11005 11000 10999 10996 ] final -164.26 input  -57.11 | X-H torsion

> <Gold.Protein.ActiveResidues>
 VAL166  LYS551  ARG553  GLY616  TRP617  ASP618  TYR619  PRO620  LYS621  CYS622 
 ASP623  PHE694  ASN695  SER759  ASP760  ASP761  ALA762  ILE779  LEU786  VAL792 
 PHE793  MET794  SER795  GLU796  ALA797  LYS798  CYS799  TRP800  GLU811  SER814 

> <Gold.Protein.RotatedAtoms>
  151.2789  135.0707  159.9161 H   0  0  0  0  0  0  0  0  0  0  0  0  # atno 6907 bound_to 6896
  152.5337  134.0052  159.7923 H   0  0  0  0  0  0  0  0  0  0  0  0  # atno 6908 bound_to 6896
  151.0302  133.5746  159.2692 H   0  0  0  0  0  0  0  0  0  0  0  0  # atno 6909 bound_to 6896
  145.6710  139.2497  143.1868 H   0  0  0  0  0  0  0  0  0  0  0  0  # atno 7974 bound_to 7965
  156.1947  140.3065  155.9404 H   0  0  0  0  0  0  0  0  0  0  0  0  # atno 8008 bound_to 7997
  155.3092  140.0450  157.3051 H   0  0  0  0  0  0  0  0  0  0  0  0  # atno 8009 bound_to 7997
  154.5495  140.2287  155.8517 H   0  0  0  0  0  0  0  0  0  0  0  0  # atno 8010 bound_to 7997
  140.2810  144.3156  150.6264 H   0  0  0  0  0  0  0  0  0  0  0  0  # atno 10167 bound_to 10162
  156.3099  130.7476  151.1549 H   0  0  0  0  0  0  0  0  0  0  0  0  # atno 10718 bound_to 10713
  154.7715  135.4870  153.9658 H   0  0  0  0  0  0  0  0  0  0  0  0  # atno 10763 bound_to 10752
  153.1374  135.6765  153.9089 H   0  0  0  0  0  0  0  0  0  0  0  0  # atno 10764 bound_to 10752
  153.8774  135.3136  155.3422 H   0  0  0  0  0  0  0  0  0  0  0  0  # atno 10765 bound_to 10752
  140.5889  134.5065  157.5190 H   0  0  0  0  0  0  0  0  0  0  0  0  # atno 11005 bound_to 11000
  146.1045  140.7504  142.9533 LP  0  0  0  0  0  0  0  0  0  0  0  0  # atno 17320 bound_to 7965
  144.7057  140.3840  143.7120 LP  0  0  0  0  0  0  0  0  0  0  0  0  # atno 17321 bound_to 7965
  140.5811  143.2173  151.7426 LP  0  0  0  0  0  0  0  0  0  0  0  0  # atno 17342 bound_to 10162
  139.4962  144.4078  152.0113 LP  0  0  0  0  0  0  0  0  0  0  0  0  # atno 17343 bound_to 10162
  157.7388  131.0536  150.5269 LP  0  0  0  0  0  0  0  0  0  0  0  0  # atno 17370 bound_to 10713
  156.5408  130.4207  149.6155 LP  0  0  0  0  0  0  0  0  0  0  0  0  # atno 17371 bound_to 10713
  139.9283  134.8013  156.1004 LP  0  0  0  0  0  0  0  0  0  0  0  0  # atno 17394 bound_to 11000
  141.0948  133.6700  156.2620 LP  0  0  0  0  0  0  0  0  0  0  0  0  # atno 17395 bound_to 11000

$$$$
