AV-unprocessed.smi:1066|AV-procd|sdf|4670|dock4
  -GOLD-   22720 3183D 1   1.00000     0.00000
 Structure written by MMmdl.
 38 40  0  0  0  0  0  0  0  0  2 V2000
  150.1841  135.1583  156.5526 C   0  0  0  0  0  0  0  0  0  0  0  0
  150.4091  133.6781  156.4340 C   0  0  0  0  0  0  0  0  0  0  0  0
  150.9171  133.0152  157.4647 N   0  0  0  0  0  0  0  0  0  0  0  0
  151.0154  131.6777  157.0645 O   0  0  0  0  0  0  0  0  0  0  0  0
  150.5514  131.6094  155.7960 C   0  0  0  0  0  0  0  0  0  0  0  0
  150.5128  130.1372  154.9086 Cl  0  0  0  0  0  0  0  0  0  0  0  0
  150.1492  132.8248  155.3215 C   0  0  0  0  0  0  0  0  0  0  0  0
  149.5830  133.1884  153.9714 C   0  0  0  0  0  0  0  0  0  0  0  0
  148.1909  132.5768  153.8097 C   0  0  0  0  0  0  0  0  0  0  0  0
  147.9588  131.4481  154.2408 O   0  0  0  0  0  0  0  0  0  0  0  0
  147.2723  133.3338  153.1904 N   0  0  0  0  0  0  0  0  0  0  0  0
  145.8820  132.9525  152.9762 C   0  0  2  0  0  0  0  0  0  0  0  0
  145.5302  132.6478  151.5184 C   0  0  0  0  0  0  0  0  0  0  0  0
  144.0494  133.0466  151.3880 C   0  0  0  0  0  0  0  0  0  0  0  0
  143.6708  133.7117  152.6570 N   0  3  2  0  0  0  0  0  0  0  0  0
  142.7105  134.8242  152.5018 C   0  0  0  0  0  0  0  0  0  0  0  0
  142.3019  135.4540  153.8120 C   0  0  0  0  0  0  0  0  0  0  0  0
  141.3484  134.5316  153.0835 C   0  0  0  0  0  0  0  0  0  0  0  0
  144.9283  134.0904  153.3233 C   0  0  0  0  0  0  0  0  0  0  0  0
  150.1146  135.6295  155.5720 H   0  0  0  0  0  0  0  0  0  0  0  0
  151.0001  135.6420  157.0904 H   0  0  0  0  0  0  0  0  0  0  0  0
  149.2592  135.3701  157.0890 H   0  0  0  0  0  0  0  0  0  0  0  0
  149.5105  134.2689  153.8435 H   0  0  0  0  0  0  0  0  0  0  0  0
  150.2264  132.8331  153.1656 H   0  0  0  0  0  0  0  0  0  0  0  0
  147.5551  134.2469  152.8637 H   0  0  0  0  0  0  0  0  0  0  0  0
  145.6298  132.0897  153.5965 H   0  0  0  0  0  0  0  0  0  0  0  0
  146.1331  133.2575  150.8434 H   0  0  0  0  0  0  0  0  0  0  0  0
  145.7048  131.6017  151.2638 H   0  0  0  0  0  0  0  0  0  0  0  0
  143.9160  133.7157  150.5362 H   0  0  0  0  0  0  0  0  0  0  0  0
  143.4100  132.1776  151.2300 H   0  0  0  0  0  0  0  0  0  0  0  0
  142.8102  135.4317  151.6038 H   0  0  0  0  0  0  0  0  0  0  0  0
  142.7596  135.0829  154.7276 H   0  0  0  0  0  0  0  0  0  0  0  0
  142.0679  136.5167  153.8072 H   0  0  0  0  0  0  0  0  0  0  0  0
  140.4866  134.9877  152.6003 H   0  0  0  0  0  0  0  0  0  0  0  0
  141.1727  133.5475  153.5142 H   0  0  0  0  0  0  0  0  0  0  0  0
  144.7931  134.2109  154.3987 H   0  0  0  0  0  0  0  0  0  0  0  0
  145.2925  135.0359  152.9158 H   0  0  0  0  0  0  0  0  0  0  0  0
  143.2389  133.0058  153.2364 H   0  0  0  0  0  0  0  0  0  0  0  0
  1  2  1  0  0  0  0
  1 20  1  0  0  0  0
  1 21  1  0  0  0  0
  1 22  1  0  0  0  0
  2  7  1  0  0  0  0
  2  3  2  0  0  0  0
  3  4  1  0  0  0  0
  4  5  1  0  0  0  0
  5  6  1  0  0  0  0
  5  7  2  0  0  0  0
  7  8  1  0  0  0  0
  8  9  1  0  0  0  0
  8 23  1  0  0  0  0
  8 24  1  0  0  0  0
  9 10  2  0  0  0  0
  9 11  1  0  0  0  0
 11 12  1  0  0  0  0
 11 25  1  0  0  0  0
 12 19  1  0  0  0  0
 12 13  1  0  0  0  0
 12 26  1  0  0  0  0
 13 14  1  0  0  0  0
 13 27  1  0  0  0  0
 13 28  1  0  0  0  0
 14 15  1  0  0  0  0
 14 29  1  0  0  0  0
 14 30  1  0  0  0  0
 15 16  1  0  0  0  0
 15 19  1  0  0  0  0
 15 38  1  0  0  0  0
 16 18  1  0  0  0  0
 16 17  1  0  0  0  0
 16 31  1  0  0  0  0
 17 18  1  0  0  0  0
 17 32  1  0  0  0  0
 17 33  1  0  0  0  0
 18 34  1  0  0  0  0
 18 35  1  0  0  0  0
 19 36  1  0  0  0  0
 19 37  1  0  0  0  0
M  CHG  1  15   1
M  END
> <s_m_source_file>
AV-unprocessed.smi

> <i_m_source_file_index>
1066

> <i_lp_mmshare_version>
43012

> <i_f3d_flags>
0

> <s_epik_input>
W0NIM11jMW5vYyhDbCljMVtDSDJdQyg9TylbTkhdW0NAQEhdMltDSDJdW0NIMl1OKFtDSDJdMilbQ0hdM1tDSDJdW0NIMl0z

> <s_epik_cmdline>
J2VwaWtfcHl0aG9uJywgJy1waCcsICc3LjAnLCAnLXRuJywgJzgnLCAnLW1hJywgJzIwMCcsICctbWV0YWxfYmluZGluZycsICctaW1hZScsICc8aW5maWxlLm1hZT4nLCAnLW9tYWUnLCAnPG91dGZpbGUubWFlPic=

> <r_epik_Ionization_Penalty>
0.00108138

> <r_epik_Ionization_Penalty_Charging>
0.00108128

> <r_epik_Ionization_Penalty_Neutral>
9.66632e-08

> <r_epik_State_Penalty>
0.000708577

> <r_epik_Charging_Adjusted_Penalty>
0.00178986

> <i_epik_Tot_Q>
1

> <i_epik_Tot_abs_Q>
1

> <r_epik_Metal_State_Penalty>
-0

> <b_epik_Metal_Only>
0

> <s_lp_Force_Field>
OPLS_2005

> <r_lp_Energy>
30.9378

> <b_lp_Chiralities_Consistent>
1

> <s_lp_Variant>
AV-unprocessed.smi:1066-3

> <Gold.Version>
5.8.1

> <Gold.Id.Protein>
6NUR|6NUR_protein|mol2

> <Gold.PLP.Fitness>
39.8115

> <Gold.PLP.PLP>
-32.0079

> <Gold.PLP.part.hbond>
-2.0000

> <Gold.PLP.part.metal>
0.0000

> <Gold.PLP.part.buried>
-6.3580

> <Gold.PLP.part.nonpolar>
-24.3434

> <Gold.PLP.part.repulsive>
0.0520

> <Gold.PLP.ligand.clash>
0.0000

> <Gold.PLP.ligand.torsion>
1.2314

> <Gold.PLP.Chemscore.Hbond>
3.0000

> <Gold.PLP.Chemscore.CHOScore>
0.0000

> <Gold.PLP.Chemscore.Metal>
0.0000

> <Gold.Chemscore.Hbonds>
donor molecule, donor type, donor heavy atom, donor atom, acceptor molecule, acceptor atom, score
      L1  H    15    38       P1 10957  1.89
      P1  H  6896  6908       L1     3  0.90

> <Gold.PLP.Chemscore.Internal.Correction>
1.2665

> <Gold.Rescore>
     Score         DG    S(hbond)    S(metal)    S(lipo)     H(rot)  DE(clash)    DE(int)     intcor
     14.13     -15.46       1.91        0.00      65.12       1.57       0.00       1.33       ----

> <Gold.Chemscore.Fitness>
14.1298

> <Gold.Chemscore.DG>
-15.4573

> <Gold.Chemscore.ZeroCoef>
-5.4800

> <Gold.Chemscore.Hbond>
1.9103

> <Gold.Chemscore.Metal>
0.0000

> <Gold.Chemscore.Lipo>
65.1181

> <Gold.Chemscore.Internal_Hbond>
0.0000

> <Gold.Chemscore.DEClash>
0.0000

> <Gold.Chemscore.DEInternal>
1.3274

> <Gold.Chemscore.Rot>
1.5711

> <Gold.Chemscore.Internal.Correction>
   9.000000E+99

> <Gold.Chemscore.Hbonds>
donor molecule, donor type, donor heavy atom, donor atom, acceptor molecule, acceptor atom, score
      L1  H    15    38       P1 10957  0.67
      P1  H  6896  6908       L1     3  0.82

> <Gold.Chemscore.Hbond.Weighted>
-6.3805

> <Gold.Chemscore.Metal.Weighted>
-0.0000

> <Gold.Chemscore.Lipo.Weighted>
-7.6188

> <Gold.Chemscore.Internal_Hbond.Weighted>
0.0000

> <Gold.Chemscore.DEClash.Weighted>
0.0000

> <Gold.Chemscore.DEInternal.Weighted>
1.3274

> <Gold.Chemscore.Rot.Weighted>
4.0221

> <Gold.Chemscore.Internal.Correction.Weighted>
   9.000000E+99

> <Gold.Protein.RotatedTorsions>
[ 6907 6896 6895 6894 ] final   75.38 input  -60.11 | X-H torsion
[ 7974 7965 7964 7962 ] final  119.30 input  175.53 | X-H torsion
[ 8008 7997 7996 7995 ] final -156.40 input   59.86 | X-H torsion
[ 10167 10162 10161 10158 ] final  163.42 input  -65.29 | X-H torsion
[ 10718 10713 10712 10709 ] final  110.12 input   66.30 | X-H torsion
[ 10763 10752 10751 10750 ] final   92.29 input  -60.55 | X-H torsion
[ 11005 11000 10999 10996 ] final -137.41 input  -57.11 | X-H torsion

> <Gold.Protein.ActiveResidues>
 VAL166  LYS551  ARG553  GLY616  TRP617  ASP618  TYR619  PRO620  LYS621  CYS622 
 ASP623  PHE694  ASN695  SER759  ASP760  ASP761  ALA762  ILE779  LEU786  VAL792 
 PHE793  MET794  SER795  GLU796  ALA797  LYS798  CYS799  TRP800  GLU811  SER814 

> <Gold.Protein.RotatedAtoms>
  152.5023  134.4129  159.9454 H   0  0  0  0  0  0  0  0  0  0  0  0  # atno 6907 bound_to 6896
  151.4098  133.3725  159.2750 H   0  0  0  0  0  0  0  0  0  0  0  0  # atno 6908 bound_to 6896
  150.9300  134.8737  159.7604 H   0  0  0  0  0  0  0  0  0  0  0  0  # atno 6909 bound_to 6896
  145.1448  139.3246  143.4597 H   0  0  0  0  0  0  0  0  0  0  0  0  # atno 7974 bound_to 7965
  155.7167  140.0785  157.2348 H   0  0  0  0  0  0  0  0  0  0  0  0  # atno 8008 bound_to 7997
  154.4051  140.1620  156.2410 H   0  0  0  0  0  0  0  0  0  0  0  0  # atno 8009 bound_to 7997
  155.9234  140.3396  155.6194 H   0  0  0  0  0  0  0  0  0  0  0  0  # atno 8010 bound_to 7997
  139.4873  144.4339  151.9037 H   0  0  0  0  0  0  0  0  0  0  0  0  # atno 10167 bound_to 10162
  157.6509  131.0927  150.6555 H   0  0  0  0  0  0  0  0  0  0  0  0  # atno 10718 bound_to 10713
  153.2175  135.4367  155.0451 H   0  0  0  0  0  0  0  0  0  0  0  0  # atno 10763 bound_to 10752
  154.8233  135.3348  154.6976 H   0  0  0  0  0  0  0  0  0  0  0  0  # atno 10764 bound_to 10752
  153.7410  135.7005  153.5023 H   0  0  0  0  0  0  0  0  0  0  0  0  # atno 10765 bound_to 10752
  140.8714  134.2046  157.4649 H   0  0  0  0  0  0  0  0  0  0  0  0  # atno 11005 bound_to 11000
  146.3501  140.1499  142.8592 LP  0  0  0  0  0  0  0  0  0  0  0  0  # atno 17320 bound_to 7965
  145.0493  140.9006  143.5005 LP  0  0  0  0  0  0  0  0  0  0  0  0  # atno 17321 bound_to 7965
  140.3787  144.2763  150.5911 LP  0  0  0  0  0  0  0  0  0  0  0  0  # atno 17342 bound_to 10162
  140.5253  143.2256  151.8325 LP  0  0  0  0  0  0  0  0  0  0  0  0  # atno 17343 bound_to 10162
  156.6867  130.4583  149.5612 LP  0  0  0  0  0  0  0  0  0  0  0  0  # atno 17370 bound_to 10713
  156.1891  130.6548  151.1040 LP  0  0  0  0  0  0  0  0  0  0  0  0  # atno 17371 bound_to 10713
  139.8712  134.9776  156.4964 LP  0  0  0  0  0  0  0  0  0  0  0  0  # atno 17394 bound_to 11000
  140.8569  133.8089  155.9225 LP  0  0  0  0  0  0  0  0  0  0  0  0  # atno 17395 bound_to 11000

$$$$
