AV-unprocessed.smi:2183|AV-procd|sdf|8865|dock9
  -GOLD-   2272012 63D 1   1.00000     0.00000
 Structure written by MMmdl.
 40 42  0  0  0  0  0  0  0  0  1 V2000
  153.2658  139.5069  154.7151 O   0  0  0  0  0  0  0  0  0  0  0  0
  152.0518  139.4146  155.4283 C   0  0  0  0  0  0  0  0  0  0  0  0
  151.9820  140.3635  156.5861 C   0  0  0  0  0  0  0  0  0  0  0  0
  152.7033  140.1698  157.6910 N   0  0  0  0  0  0  0  0  0  0  0  0
  152.3645  141.2570  158.4718 C   0  0  0  0  0  0  0  0  0  0  0  0
  152.7989  141.6306  159.7637 C   0  0  0  0  0  0  0  0  0  0  0  0
  152.3124  142.8090  160.3672 C   0  0  0  0  0  0  0  0  0  0  0  0
  151.3875  143.6287  159.6886 C   0  0  0  0  0  0  0  0  0  0  0  0
  150.9407  143.2735  158.4014 C   0  0  0  0  0  0  0  0  0  0  0  0
  151.4270  142.0946  157.8046 C   0  0  0  0  0  0  0  0  0  0  0  0
  151.1935  141.4698  156.5829 N   0  0  0  0  0  0  0  0  0  0  0  0
  150.2972  141.9522  155.5389 C   0  0  0  0  0  0  0  0  0  0  0  0
  149.4491  140.8264  154.9124 C   0  0  2  0  0  0  0  0  0  0  0  0
  149.6996  140.7481  153.5239 O   0  0  0  0  0  0  0  0  0  0  0  0
  147.9440  141.0435  155.1228 C   0  0  0  0  0  0  0  0  0  0  0  0
  147.4790  141.9841  154.1641 O   0  0  0  0  0  0  0  0  0  0  0  0
  146.4104  142.7863  154.5005 C   0  0  0  0  0  0  0  0  0  0  0  0
  145.8748  143.5975  153.4789 C   0  0  0  0  0  0  0  0  0  0  0  0
  144.7831  144.4499  153.7325 C   0  0  0  0  0  0  0  0  0  0  0  0
  144.2133  144.4985  155.0184 C   0  0  0  0  0  0  0  0  0  0  0  0
  142.8754  145.5413  155.3327 Cl  0  0  0  0  0  0  0  0  0  0  0  0
  144.7376  143.6942  156.0475 C   0  0  0  0  0  0  0  0  0  0  0  0
  145.8297  142.8417  155.7931 C   0  0  0  0  0  0  0  0  0  0  0  0
  153.1253  139.1810  153.8395 H   0  0  0  0  0  0  0  0  0  0  0  0
  151.2324  139.6264  154.7404 H   0  0  0  0  0  0  0  0  0  0  0  0
  151.9044  138.3924  155.7768 H   0  0  0  0  0  0  0  0  0  0  0  0
  153.5090  141.0108  160.2905 H   0  0  0  0  0  0  0  0  0  0  0  0
  152.6516  143.0857  161.3546 H   0  0  0  0  0  0  0  0  0  0  0  0
  151.0215  144.5307  160.1568 H   0  0  0  0  0  0  0  0  0  0  0  0
  150.2332  143.9003  157.8793 H   0  0  0  0  0  0  0  0  0  0  0  0
  149.6454  142.7040  155.9853 H   0  0  0  0  0  0  0  0  0  0  0  0
  150.8652  142.4680  154.7660 H   0  0  0  0  0  0  0  0  0  0  0  0
  149.7289  139.8661  155.3463 H   0  0  0  0  0  0  0  0  0  0  0  0
  149.0943  140.1291  153.1445 H   0  0  0  0  0  0  0  0  0  0  0  0
  147.4122  140.0953  155.0265 H   0  0  0  0  0  0  0  0  0  0  0  0
  147.7653  141.4327  156.1268 H   0  0  0  0  0  0  0  0  0  0  0  0
  146.3063  143.5660  152.4890 H   0  0  0  0  0  0  0  0  0  0  0  0
  144.3851  145.0652  152.9391 H   0  0  0  0  0  0  0  0  0  0  0  0
  144.3025  143.7294  157.0354 H   0  0  0  0  0  0  0  0  0  0  0  0
  146.2039  142.2407  156.6077 H   0  0  0  0  0  0  0  0  0  0  0  0
  1  2  1  0  0  0  0
  1 24  1  0  0  0  0
  2  3  1  0  0  0  0
  2 25  1  0  0  0  0
  2 26  1  0  0  0  0
  3 11  1  0  0  0  0
  3  4  2  0  0  0  0
  4  5  1  0  0  0  0
  5 10  2  0  0  0  0
  5  6  1  0  0  0  0
  6  7  2  0  0  0  0
  6 27  1  0  0  0  0
  7  8  1  0  0  0  0
  7 28  1  0  0  0  0
  8  9  2  0  0  0  0
  8 29  1  0  0  0  0
  9 10  1  0  0  0  0
  9 30  1  0  0  0  0
 10 11  1  0  0  0  0
 11 12  1  0  0  0  0
 12 13  1  0  0  0  0
 12 31  1  0  0  0  0
 12 32  1  0  0  0  0
 13 14  1  0  0  0  0
 13 15  1  0  0  0  0
 13 33  1  0  0  0  0
 14 34  1  0  0  0  0
 15 16  1  0  0  0  0
 15 35  1  0  0  0  0
 15 36  1  0  0  0  0
 16 17  1  0  0  0  0
 17 23  1  0  0  0  0
 17 18  2  0  0  0  0
 18 19  1  0  0  0  0
 18 37  1  0  0  0  0
 19 20  2  0  0  0  0
 19 38  1  0  0  0  0
 20 21  1  0  0  0  0
 20 22  1  0  0  0  0
 22 23  2  0  0  0  0
 22 39  1  0  0  0  0
 23 40  1  0  0  0  0
M  END
> <s_m_source_file>
AV-unprocessed.smi

> <i_m_source_file_index>
2183

> <i_lp_mmshare_version>
43012

> <i_f3d_flags>
0

> <s_epik_input>
W2NIXTFbY0hdW2NIXVtjSF1jKGMxMiluKGMobjIpW0NIMl1bT0hdKVtDSDJdW0NASF0oW09IXSlbQ0gyXU9jM1tjSF1bY0hdYyhDbClbY0hdW2NIXTM=

> <s_epik_cmdline>
J2VwaWtfcHl0aG9uJywgJy1waCcsICc3LjAnLCAnLXRuJywgJzgnLCAnLW1hJywgJzIwMCcsICctbWV0YWxfYmluZGluZycsICctaW1hZScsICc8aW5maWxlLm1hZT4nLCAnLW9tYWUnLCAnPG91dGZpbGUubWFlPic=

> <r_lp_tautomer_probability>
1

> <r_epik_Ionization_Penalty>
0.0586933

> <r_epik_Ionization_Penalty_Charging>
0

> <r_epik_Ionization_Penalty_Neutral>
0.0586933

> <r_epik_State_Penalty>
0.0507031

> <r_epik_Charging_Adjusted_Penalty>
0.0507031

> <i_epik_Tot_Q>
0

> <i_epik_Tot_abs_Q>
0

> <r_epik_Metal_State_Penalty>
5.29335e-05

> <b_epik_Metal_Only>
0

> <s_lp_Force_Field>
OPLS_2005

> <r_lp_Energy>
13.44

> <b_lp_Chiralities_Consistent>
1

> <s_lp_Variant>
AV-unprocessed.smi:2183-1

> <Gold.Version>
5.8.1

> <Gold.Id.Protein>
6NUR|6NUR_protein|mol2

> <Gold.PLP.Fitness>
55.2629

> <Gold.PLP.PLP>
-49.8888

> <Gold.PLP.part.hbond>
-5.7631

> <Gold.PLP.part.metal>
0.0000

> <Gold.PLP.part.buried>
-5.2621

> <Gold.PLP.part.nonpolar>
-38.0466

> <Gold.PLP.part.repulsive>
0.1583

> <Gold.PLP.ligand.clash>
0.0000

> <Gold.PLP.ligand.torsion>
1.5105

> <Gold.PLP.Chemscore.Hbond>
2.7755

> <Gold.PLP.Chemscore.CHOScore>
0.0000

> <Gold.PLP.Chemscore.Metal>
0.0000

> <Gold.Chemscore.Hbonds>
donor molecule, donor type, donor heavy atom, donor atom, acceptor molecule, acceptor atom, score
      L1  H    14    34       P1  7957  0.09
      P1  H  7989  7998       L1    14  0.38
      P1  H  7997  8008       L1     1  0.66
      P1  H  7997  8010       L1     4  0.66
      P1  H  8011  8017       L1    14  0.96

> <Gold.PLP.Chemscore.Internal.Correction>
0.0684

> <Gold.Rescore>
     Score         DG    S(hbond)    S(metal)    S(lipo)     H(rot)  DE(clash)    DE(int)     intcor
     16.45     -19.72       2.26        0.00     123.59       3.04       0.86       2.40       ----

> <Gold.Chemscore.Fitness>
16.4467

> <Gold.Chemscore.DG>
-19.7155

> <Gold.Chemscore.ZeroCoef>
-5.4800

> <Gold.Chemscore.Hbond>
2.2594

> <Gold.Chemscore.Metal>
0.0000

> <Gold.Chemscore.Lipo>
123.5942

> <Gold.Chemscore.Internal_Hbond>
0.0000

> <Gold.Chemscore.DEClash>
0.8647

> <Gold.Chemscore.DEInternal>
2.4041

> <Gold.Chemscore.Rot>
3.0358

> <Gold.Chemscore.Internal.Correction>
   9.000000E+99

> <Gold.Chemscore.Hbonds>
donor molecule, donor type, donor heavy atom, donor atom, acceptor molecule, acceptor atom, score
      L1  H    14    34       P1  7957  0.11
      P1  H  7989  7998       L1    14  0.13
      P1  H  7997  8008       L1     1  0.63
      P1  H  7997  8010       L1     4  0.36
      P1  H  8011  8017       L1    14  0.62

> <Gold.Chemscore.Hbond.Weighted>
-7.5466

> <Gold.Chemscore.Metal.Weighted>
-0.0000

> <Gold.Chemscore.Lipo.Weighted>
-14.4605

> <Gold.Chemscore.Internal_Hbond.Weighted>
0.0000

> <Gold.Chemscore.DEClash.Weighted>
0.8647

> <Gold.Chemscore.DEInternal.Weighted>
2.4041

> <Gold.Chemscore.Rot.Weighted>
7.7716

> <Gold.Chemscore.Internal.Correction.Weighted>
   9.000000E+99

> <Gold.Protein.RotatedTorsions>
[ 6907 6896 6895 6894 ] final -134.58 input  -60.11 | X-H torsion
[ 7974 7965 7964 7962 ] final   56.19 input  175.53 | X-H torsion
[ 8008 7997 7996 7995 ] final   26.16 input   59.86 | X-H torsion
[ 10167 10162 10161 10158 ] final  -34.79 input  -65.29 | X-H torsion
[ 10718 10713 10712 10709 ] final   -4.97 input   66.30 | X-H torsion
[ 10763 10752 10751 10750 ] final -103.66 input  -60.55 | X-H torsion
[ 11005 11000 10999 10996 ] final  133.83 input  -57.11 | X-H torsion

> <Gold.Protein.ActiveResidues>
 VAL166  LYS551  ARG553  GLY616  TRP617  ASP618  TYR619  PRO620  LYS621  CYS622 
 ASP623  PHE694  ASN695  SER759  ASP760  ASP761  ALA762  ILE779  LEU786  VAL792 
 PHE793  MET794  SER795  GLU796  ALA797  LYS798  CYS799  TRP800  GLU811  SER814 

> <Gold.Protein.RotatedAtoms>
  150.9876  133.6182  159.2712 H   0  0  0  0  0  0  0  0  0  0  0  0  # atno 6907 bound_to 6896
  151.3415  135.0863  159.9382 H   0  0  0  0  0  0  0  0  0  0  0  0  # atno 6908 bound_to 6896
  152.5235  133.9486  159.7715 H   0  0  0  0  0  0  0  0  0  0  0  0  # atno 6909 bound_to 6896
  145.9424  139.3900  143.0355 H   0  0  0  0  0  0  0  0  0  0  0  0  # atno 7974 bound_to 7965
  155.0229  140.3150  155.4786 H   0  0  0  0  0  0  0  0  0  0  0  0  # atno 8008 bound_to 7997
  156.2888  140.2194  156.5290 H   0  0  0  0  0  0  0  0  0  0  0  0  # atno 8009 bound_to 7997
  154.7436  140.0471  157.0820 H   0  0  0  0  0  0  0  0  0  0  0  0  # atno 8010 bound_to 7997
  140.7178  143.3523  151.2130 H   0  0  0  0  0  0  0  0  0  0  0  0  # atno 10167 bound_to 10162
  156.7535  130.5247  149.5799 H   0  0  0  0  0  0  0  0  0  0  0  0  # atno 10718 bound_to 10713
  154.7823  135.4815  153.9871 H   0  0  0  0  0  0  0  0  0  0  0  0  # atno 10763 bound_to 10752
  153.1511  135.6791  153.8888 H   0  0  0  0  0  0  0  0  0  0  0  0  # atno 10764 bound_to 10752
  153.8532  135.3164  155.3412 H   0  0  0  0  0  0  0  0  0  0  0  0  # atno 10765 bound_to 10752
  139.9876  134.9526  156.9780 H   0  0  0  0  0  0  0  0  0  0  0  0  # atno 11005 bound_to 11000
  145.8282  140.9644  143.0863 LP  0  0  0  0  0  0  0  0  0  0  0  0  # atno 17320 bound_to 7965
  144.6781  140.0128  143.7484 LP  0  0  0  0  0  0  0  0  0  0  0  0  # atno 17321 bound_to 7965
  139.7057  143.9460  152.2925 LP  0  0  0  0  0  0  0  0  0  0  0  0  # atno 17342 bound_to 10162
  139.9168  144.6824  150.8504 LP  0  0  0  0  0  0  0  0  0  0  0  0  # atno 17343 bound_to 10162
  156.1386  130.6228  151.0435 LP  0  0  0  0  0  0  0  0  0  0  0  0  # atno 17370 bound_to 10713
  157.6766  131.0848  150.7477 LP  0  0  0  0  0  0  0  0  0  0  0  0  # atno 17371 bound_to 10713
  140.4971  134.1134  155.7243 LP  0  0  0  0  0  0  0  0  0  0  0  0  # atno 17394 bound_to 11000
  141.1538  133.8920  157.2029 LP  0  0  0  0  0  0  0  0  0  0  0  0  # atno 17395 bound_to 11000

$$$$
