AV-unprocessed.smi:49|AV-procd|sdf|485|dock3
  -GOLD-   2262016343D 1   1.00000     0.00000
 Structure written by MMmdl.
 27 28  0  0  0  0  0  0  0  0  3 V2000
  152.5189  141.8653  159.1119 C   0  0  0  0  0  0  0  0  0  0  0  0
  151.6767  140.6357  158.7581 C   0  0  0  0  0  0  0  0  0  0  0  0
  151.3477  140.5759  157.2824 C   0  0  0  0  0  0  0  0  0  0  0  0
  150.2022  140.9543  156.7239 N   0  0  0  0  0  0  0  0  0  0  0  0
  150.3605  140.7722  155.4064 C   0  0  0  0  0  0  0  0  0  0  0  0
  149.2850  141.0402  154.3748 C   0  0  2  0  0  0  0  0  0  0  0  0
  148.0096  141.6422  154.9684 C   0  0  0  0  0  0  0  0  0  0  0  0
  146.9526  141.2465  153.9430 C   0  0  2  0  0  0  0  0  0  0  0  0
  145.6511  141.2492  154.4904 O   0  0  0  0  0  0  0  0  0  0  0  0
  147.3963  139.8465  153.5068 C   0  0  0  0  0  0  0  0  0  0  0  0
  148.8622  139.8080  153.6799 N   0  3  0  0  0  0  0  0  0  0  0  0
  151.5802  140.2801  155.1373 N   0  0  0  0  0  0  0  0  0  0  0  0
  152.1814  140.1792  156.3044 N   0  5  0  0  0  0  0  0  0  0  0  0
  149.6811  141.7193  153.6182 H   0  0  0  0  0  0  0  0  0  0  0  0
  146.9919  141.9296  153.0932 H   0  0  0  0  0  0  0  0  0  0  0  0
  152.7427  141.8895  160.1784 H   0  0  0  0  0  0  0  0  0  0  0  0
  151.9932  142.7866  158.8595 H   0  0  0  0  0  0  0  0  0  0  0  0
  153.4658  141.8599  158.5712 H   0  0  0  0  0  0  0  0  0  0  0  0
  152.2089  139.7263  159.0382 H   0  0  0  0  0  0  0  0  0  0  0  0
  150.7467  140.6440  159.3272 H   0  0  0  0  0  0  0  0  0  0  0  0
  147.7877  141.1683  155.9268 H   0  0  0  0  0  0  0  0  0  0  0  0
  148.0808  142.7177  155.1337 H   0  0  0  0  0  0  0  0  0  0  0  0
  145.0539  140.8867  153.8534 H   0  0  0  0  0  0  0  0  0  0  0  0
  146.9657  139.0834  154.1568 H   0  0  0  0  0  0  0  0  0  0  0  0
  147.1057  139.6185  152.4812 H   0  0  0  0  0  0  0  0  0  0  0  0
  149.3319  139.7421  152.7887 H   0  0  0  0  0  0  0  0  0  0  0  0
  149.1044  139.0110  154.2518 H   0  0  0  0  0  0  0  0  0  0  0  0
  1  2  1  0  0  0  0
  1 16  1  0  0  0  0
  1 17  1  0  0  0  0
  1 18  1  0  0  0  0
  2  3  1  0  0  0  0
  2 19  1  0  0  0  0
  2 20  1  0  0  0  0
  3 13  1  0  0  0  0
  3  4  2  0  0  0  0
  4  5  1  0  0  0  0
  5  6  1  0  0  0  0
  5 12  2  0  0  0  0
  6 14  1  0  0  0  0
  6 11  1  0  0  0  0
  6  7  1  0  0  0  0
  7  8  1  0  0  0  0
  7 21  1  0  0  0  0
  7 22  1  0  0  0  0
  8 15  1  0  0  0  0
  8  9  1  0  0  0  0
  8 10  1  0  0  0  0
  9 23  1  0  0  0  0
 10 11  1  0  0  0  0
 10 24  1  0  0  0  0
 10 25  1  0  0  0  0
 11 26  1  0  0  0  0
 11 27  1  0  0  0  0
 12 13  1  0  0  0  0
M  CHG  1  11   1
M  CHG  1  13  -1
M  END
> <s_m_source_file>
AV-unprocessed.smi

> <i_m_source_file_index>
49

> <i_lp_mmshare_version>
43012

> <i_f3d_flags>
0

> <s_epik_input>
W0NIM11bQ0gyXWMxbmMobltuSF0xKVtDQEBIXTJbQ0gyXVtDQEBIXShbT0hdKVtDSDJdW05IXTI=

> <s_epik_cmdline>
J2VwaWtfcHl0aG9uJywgJy1waCcsICc3LjAnLCAnLXRuJywgJzgnLCAnLW1hJywgJzIwMCcsICctbWV0YWxfYmluZGluZycsICctaW1hZScsICc8aW5maWxlLm1hZT4nLCAnLW9tYWUnLCAnPG91dGZpbGUubWFlPic=

> <r_lp_tautomer_probability>
0.948284

> <r_epik_Ionization_Penalty>
3.22013

> <r_epik_Ionization_Penalty_Charging>
3.22013

> <r_epik_Ionization_Penalty_Neutral>
3.9133e-08

> <r_epik_State_Penalty>
2.79459

> <r_epik_Charging_Adjusted_Penalty>
6.01472

> <i_epik_Tot_Q>
0

> <i_epik_Tot_abs_Q>
2

> <r_epik_Metal_State_Penalty>
0.589377

> <b_epik_Metal_Only>
1

> <s_lp_Force_Field>
OPLS_2005

> <r_lp_Energy>
9.52655

> <b_lp_Chiralities_Consistent>
1

> <s_lp_Variant>
AV-unprocessed.smi:49-23

> <Gold.Version>
5.8.1

> <Gold.Id.Protein>
6NUR|6NUR_protein|mol2

> <Gold.PLP.Fitness>
36.2862

> <Gold.PLP.PLP>
-23.5242

> <Gold.PLP.part.hbond>
-3.9224

> <Gold.PLP.part.metal>
0.0000

> <Gold.PLP.part.buried>
-0.7123

> <Gold.PLP.part.nonpolar>
-18.1230

> <Gold.PLP.part.repulsive>
0.1990

> <Gold.PLP.ligand.clash>
0.0000

> <Gold.PLP.ligand.torsion>
0.2916

> <Gold.PLP.Chemscore.Hbond>
4.4452

> <Gold.PLP.Chemscore.CHOScore>
0.0000

> <Gold.PLP.Chemscore.Metal>
0.0000

> <Gold.Chemscore.Hbonds>
donor molecule, donor type, donor heavy atom, donor atom, acceptor molecule, acceptor atom, score
      L1  H     9    23       P1 10175  1.00
      L1  H    11    26       P1  7957  1.00
      P1  H  7989  7998       L1    12  0.76
      P1  H  7997  8009       L1    13  1.40

> <Gold.PLP.Chemscore.Internal.Correction>
0.0097

> <Gold.Rescore>
     Score         DG    S(hbond)    S(metal)    S(lipo)     H(rot)  DE(clash)    DE(int)     intcor
     14.68     -15.24       2.77        0.00      45.07       1.86       0.25       0.30       ----

> <Gold.Chemscore.Fitness>
14.6810

> <Gold.Chemscore.DG>
-15.2356

> <Gold.Chemscore.ZeroCoef>
-5.4800

> <Gold.Chemscore.Hbond>
2.7650

> <Gold.Chemscore.Metal>
0.0000

> <Gold.Chemscore.Lipo>
45.0734

> <Gold.Chemscore.Internal_Hbond>
0.0000

> <Gold.Chemscore.DEClash>
0.2524

> <Gold.Chemscore.DEInternal>
0.3022

> <Gold.Chemscore.Rot>
1.8567

> <Gold.Chemscore.Internal.Correction>
   9.000000E+99

> <Gold.Chemscore.Hbonds>
donor molecule, donor type, donor heavy atom, donor atom, acceptor molecule, acceptor atom, score
      L1  H     9    23       P1 10175  0.89
      L1  H    11    26       P1  7957  0.99
      P1  H  7989  7998       L1    12  0.11
      P1  H  7997  8009       L1    13  0.67

> <Gold.Chemscore.Hbond.Weighted>
-9.2351

> <Gold.Chemscore.Metal.Weighted>
-0.0000

> <Gold.Chemscore.Lipo.Weighted>
-5.2736

> <Gold.Chemscore.Internal_Hbond.Weighted>
0.0000

> <Gold.Chemscore.DEClash.Weighted>
0.2524

> <Gold.Chemscore.DEInternal.Weighted>
0.3022

> <Gold.Chemscore.Rot.Weighted>
4.7531

> <Gold.Chemscore.Internal.Correction.Weighted>
   9.000000E+99

> <Gold.Protein.RotatedTorsions>
[ 6907 6896 6895 6894 ] final -107.02 input  -60.11 | X-H torsion
[ 7974 7965 7964 7962 ] final   13.70 input  175.53 | X-H torsion
[ 8008 7997 7996 7995 ] final -161.33 input   59.86 | X-H torsion
[ 10167 10162 10161 10158 ] final  138.29 input  -65.29 | X-H torsion
[ 10718 10713 10712 10709 ] final -118.71 input   66.30 | X-H torsion
[ 10763 10752 10751 10750 ] final  175.64 input  -60.55 | X-H torsion
[ 11005 11000 10999 10996 ] final  -82.97 input  -57.11 | X-H torsion

> <Gold.Protein.ActiveResidues>
 VAL166  LYS551  ARG553  GLY616  TRP617  ASP618  TYR619  PRO620  LYS621  CYS622 
 ASP623  PHE694  ASN695  SER759  ASP760  ASP761  ALA762  ILE779  LEU786  VAL792 
 PHE793  MET794  SER795  GLU796  ALA797  LYS798  CYS799  TRP800  GLU811  SER814 

> <Gold.Protein.RotatedAtoms>
  150.7421  133.9889  159.3600 H   0  0  0  0  0  0  0  0  0  0  0  0  # atno 6907 bound_to 6896
  151.7835  135.0753  160.0386 H   0  0  0  0  0  0  0  0  0  0  0  0  # atno 6908 bound_to 6896
  152.3257  133.5866  159.5811 H   0  0  0  0  0  0  0  0  0  0  0  0  # atno 6909 bound_to 6896
  146.2323  139.9150  142.8518 H   0  0  0  0  0  0  0  0  0  0  0  0  # atno 7974 bound_to 7965
  155.7906  140.0878  157.2011 H   0  0  0  0  0  0  0  0  0  0  0  0  # atno 8008 bound_to 7997
  154.3985  140.1491  156.3216 H   0  0  0  0  0  0  0  0  0  0  0  0  # atno 8009 bound_to 7997
  155.8563  140.3432  155.5729 H   0  0  0  0  0  0  0  0  0  0  0  0  # atno 8010 bound_to 7997
  139.5116  144.6362  151.5691 H   0  0  0  0  0  0  0  0  0  0  0  0  # atno 10167 bound_to 10162
  156.1127  130.6261  150.9325 H   0  0  0  0  0  0  0  0  0  0  0  0  # atno 10718 bound_to 10713
  154.4703  135.2771  155.1647 H   0  0  0  0  0  0  0  0  0  0  0  0  # atno 10763 bound_to 10752
  154.3399  135.6172  153.5595 H   0  0  0  0  0  0  0  0  0  0  0  0  # atno 10764 bound_to 10752
  152.9863  135.5786  154.5083 H   0  0  0  0  0  0  0  0  0  0  0  0  # atno 10765 bound_to 10752
  141.1660  133.7271  156.8651 H   0  0  0  0  0  0  0  0  0  0  0  0  # atno 11005 bound_to 11000
  145.2192  140.9928  143.4055 LP  0  0  0  0  0  0  0  0  0  0  0  0  # atno 17320 bound_to 7965
  144.9625  139.3965  143.6349 LP  0  0  0  0  0  0  0  0  0  0  0  0  # atno 17321 bound_to 7965
  140.6112  143.9433  150.6454 LP  0  0  0  0  0  0  0  0  0  0  0  0  # atno 17342 bound_to 10162
  140.2676  143.3479  152.1267 LP  0  0  0  0  0  0  0  0  0  0  0  0  # atno 17343 bound_to 10162
  157.6308  131.0921  150.8444 LP  0  0  0  0  0  0  0  0  0  0  0  0  # atno 17370 bound_to 10713
  156.8552  130.5094  149.5308 LP  0  0  0  0  0  0  0  0  0  0  0  0  # atno 17371 bound_to 10713
  140.1821  134.9026  157.2961 LP  0  0  0  0  0  0  0  0  0  0  0  0  # atno 17394 bound_to 11000
  140.2383  134.3826  155.7491 LP  0  0  0  0  0  0  0  0  0  0  0  0  # atno 17395 bound_to 11000

$$$$
