AV-unprocessed.smi:2775|AV-procd|sdf|10703|dock2
  -GOLD-   2272015143D 1   1.00000     0.00000
 Structure written by MMmdl.
 43 46  0  0  0  0  0  0  0  0  2 V2000
  144.3850  132.4276  150.4669 C   0  0  0  0  0  0  0  0  0  0  0  0
  144.3792  133.7528  151.2042 C   0  0  0  0  0  0  0  0  0  0  0  0
  143.1908  134.3739  151.3708 N   0  3  0  0  0  0  0  0  0  0  0  0
  143.0606  135.5509  152.0171 C   0  0  0  0  0  0  0  0  0  0  0  0
  144.1972  136.1904  152.5484 C   0  0  0  0  0  0  0  0  0  0  0  0
  145.4724  135.5915  152.3877 C   0  0  0  0  0  0  0  0  0  0  0  0
  146.6709  136.1573  152.9046 N   0  0  0  0  0  0  0  0  0  0  0  0
  146.8475  136.9019  154.0134 C   0  0  0  0  0  0  0  0  0  0  0  0
  145.9614  137.1911  154.8143 O   0  0  0  0  0  0  0  0  0  0  0  0
  148.1080  137.3371  154.1802 N   0  0  0  0  0  0  0  0  0  0  0  0
  148.6254  138.1645  155.2787 C   0  0  1  0  0  0  0  0  0  0  0  0
  150.1566  138.1820  155.3869 C   0  0  1  0  0  0  0  0  0  0  0  0
  151.2594  137.2727  154.9804 C   0  0  0  0  0  0  0  0  0  0  0  0
  152.2509  138.3704  154.5166 C   0  0  0  0  0  0  0  0  0  0  0  0
  151.5010  139.6113  154.5291 O   0  0  0  0  0  0  0  0  0  0  0  0
  150.1634  139.2213  154.2775 C   0  0  2  0  0  0  0  0  0  0  0  0
  148.8229  139.6655  154.8901 C   0  0  0  0  0  0  0  0  0  0  0  0
  147.7925  140.4411  154.0602 C   0  0  0  0  0  0  0  0  0  0  0  0
  148.2094  141.7055  154.8189 C   0  0  0  0  0  0  0  0  0  0  0  0
  148.7702  140.8031  155.9226 C   0  0  0  0  0  0  0  0  0  0  0  0
  145.5571  134.3465  151.7160 C   0  0  0  0  0  0  0  0  0  0  0  0
  147.0854  133.5569  151.5159 Cl  0  0  0  0  0  0  0  0  0  0  0  0
  145.0174  132.4887  149.5809 H   0  0  0  0  0  0  0  0  0  0  0  0
  143.3812  132.1450  150.1477 H   0  0  0  0  0  0  0  0  0  0  0  0
  144.7703  131.6368  151.1114 H   0  0  0  0  0  0  0  0  0  0  0  0
  142.0562  135.9410  152.0951 H   0  0  0  0  0  0  0  0  0  0  0  0
  144.0650  137.1208  153.0788 H   0  0  0  0  0  0  0  0  0  0  0  0
  147.4814  136.0642  152.3094 H   0  0  0  0  0  0  0  0  0  0  0  0
  148.7805  137.0651  153.4772 H   0  0  0  0  0  0  0  0  0  0  0  0
  148.1084  138.0299  156.2302 H   0  0  0  0  0  0  0  0  0  0  0  0
  150.4066  138.6239  156.3584 H   0  0  0  0  0  0  0  0  0  0  0  0
  151.6478  136.6779  155.8069 H   0  0  0  0  0  0  0  0  0  0  0  0
  150.9716  136.6114  154.1624 H   0  0  0  0  0  0  0  0  0  0  0  0
  153.1100  138.4540  155.1830 H   0  0  0  0  0  0  0  0  0  0  0  0
  152.6200  138.1604  153.5119 H   0  0  0  0  0  0  0  0  0  0  0  0
  150.0513  138.8036  153.2723 H   0  0  0  0  0  0  0  0  0  0  0  0
  147.9916  140.4652  152.9886 H   0  0  0  0  0  0  0  0  0  0  0  0
  146.7664  140.1398  154.2754 H   0  0  0  0  0  0  0  0  0  0  0  0
  148.9873  142.2693  154.3015 H   0  0  0  0  0  0  0  0  0  0  0  0
  147.3831  142.3456  155.1291 H   0  0  0  0  0  0  0  0  0  0  0  0
  148.0496  140.6161  156.7201 H   0  0  0  0  0  0  0  0  0  0  0  0
  149.7379  141.1153  156.3161 H   0  0  0  0  0  0  0  0  0  0  0  0
  142.3524  133.9295  150.9959 H   0  0  0  0  0  0  0  0  0  0  0  0
  1  2  1  0  0  0  0
  1 23  1  0  0  0  0
  1 24  1  0  0  0  0
  1 25  1  0  0  0  0
  2 21  1  0  0  0  0
  2  3  2  0  0  0  0
  3  4  1  0  0  0  0
  3 43  1  0  0  0  0
  4  5  2  0  0  0  0
  4 26  1  0  0  0  0
  5  6  1  0  0  0  0
  5 27  1  0  0  0  0
  6  7  1  0  0  0  0
  6 21  2  0  0  0  0
  7  8  1  0  0  0  0
  7 28  1  0  0  0  0
  8  9  2  0  0  0  0
  8 10  1  0  0  0  0
 10 11  1  0  0  0  0
 10 29  1  0  0  0  0
 11 17  1  0  0  0  0
 11 12  1  0  0  0  0
 11 30  1  0  0  0  0
 12 16  1  0  0  0  0
 12 13  1  0  0  0  0
 12 31  1  0  0  0  0
 13 14  1  0  0  0  0
 13 32  1  0  0  0  0
 13 33  1  0  0  0  0
 14 15  1  0  0  0  0
 14 34  1  0  0  0  0
 14 35  1  0  0  0  0
 15 16  1  0  0  0  0
 16 17  1  0  0  0  0
 16 36  1  0  0  0  0
 17 20  1  0  0  0  0
 17 18  1  0  0  0  0
 18 19  1  0  0  0  0
 18 37  1  0  0  0  0
 18 38  1  0  0  0  0
 19 20  1  0  0  0  0
 19 39  1  0  0  0  0
 19 40  1  0  0  0  0
 20 41  1  0  0  0  0
 20 42  1  0  0  0  0
 21 22  1  0  0  0  0
M  CHG  1   3   1
M  END
> <s_m_source_file>
AV-unprocessed.smi

> <i_m_source_file_index>
2775

> <i_lp_mmshare_version>
43012

> <i_f3d_flags>
0

> <s_epik_input>
W0NIM11jMW5bY0hdW2NIXWMoYzFDbClbTkhdQyg9TylbTkhdW0NAQEhdMltDQEhdKFtDSDJdW0NIMl1PMylbQ0BASF0zQzI0W0NIMl1bQ0gyXVtDSDJdNA==

> <s_epik_cmdline>
J2VwaWtfcHl0aG9uJywgJy1waCcsICc3LjAnLCAnLXRuJywgJzgnLCAnLW1hJywgJzIwMCcsICctbWV0YWxfYmluZGluZycsICctaW1hZScsICc8aW5maWxlLm1hZT4nLCAnLW9tYWUnLCAnPG91dGZpbGUubWFlPic=

> <r_epik_Ionization_Penalty>
2.4104

> <r_epik_Ionization_Penalty_Charging>
2.41038

> <r_epik_Ionization_Penalty_Neutral>
1.9872e-05

> <r_epik_State_Penalty>
2.56896

> <r_epik_Charging_Adjusted_Penalty>
4.97934

> <i_epik_Tot_Q>
1

> <i_epik_Tot_abs_Q>
1

> <r_epik_Metal_State_Penalty>
2.57906

> <b_epik_Metal_Only>
0

> <s_lp_Force_Field>
OPLS_2005

> <r_lp_Energy>
86.6526

> <b_lp_Chiralities_Consistent>
1

> <s_lp_Variant>
AV-unprocessed.smi:2775-16

> <Gold.Version>
5.8.1

> <Gold.Id.Protein>
6NUR|6NUR_protein|mol2

> <Gold.PLP.Fitness>
44.4583

> <Gold.PLP.PLP>
-32.2322

> <Gold.PLP.part.hbond>
-3.8997

> <Gold.PLP.part.metal>
0.0000

> <Gold.PLP.part.buried>
-3.4359

> <Gold.PLP.part.nonpolar>
-24.1234

> <Gold.PLP.part.repulsive>
0.1555

> <Gold.PLP.ligand.clash>
0.0000

> <Gold.PLP.ligand.torsion>
0.4349

> <Gold.PLP.Chemscore.Hbond>
4.2600

> <Gold.PLP.Chemscore.CHOScore>
0.0000

> <Gold.PLP.Chemscore.Metal>
0.0000

> <Gold.Chemscore.Hbonds>
donor molecule, donor type, donor heavy atom, donor atom, acceptor molecule, acceptor atom, score
      L1  H     3    43       P1 10186  1.38
      L1  H     7    28       P1  7948  1.00
      L1  H    10    29       P1  7948  0.90
      P1  H  7989  7998       L1    15  1.00

> <Gold.PLP.Chemscore.Internal.Correction>
0.3160

> <Gold.Rescore>
     Score         DG    S(hbond)    S(metal)    S(lipo)     H(rot)  DE(clash)    DE(int)     intcor
     21.94     -23.37       3.01        0.00      88.99       1.00       0.14       1.29       ----

> <Gold.Chemscore.Fitness>
21.9409

> <Gold.Chemscore.DG>
-23.3737

> <Gold.Chemscore.ZeroCoef>
-5.4800

> <Gold.Chemscore.Hbond>
3.0067

> <Gold.Chemscore.Metal>
0.0000

> <Gold.Chemscore.Lipo>
88.9853

> <Gold.Chemscore.Internal_Hbond>
0.0000

> <Gold.Chemscore.DEClash>
0.1433

> <Gold.Chemscore.DEInternal>
1.2895

> <Gold.Chemscore.Rot>
1.0000

> <Gold.Chemscore.Internal.Correction>
   9.000000E+99

> <Gold.Chemscore.Hbonds>
donor molecule, donor type, donor heavy atom, donor atom, acceptor molecule, acceptor atom, score
      L1  H     3    43       P1 10186  0.28
      L1  H     7    28       P1  7948  0.93
      L1  H    10    29       P1  7948  0.87
      P1  H  7989  7998       L1    15  0.30

> <Gold.Chemscore.Hbond.Weighted>
-10.0424

> <Gold.Chemscore.Metal.Weighted>
-0.0000

> <Gold.Chemscore.Lipo.Weighted>
-10.4113

> <Gold.Chemscore.Internal_Hbond.Weighted>
0.0000

> <Gold.Chemscore.DEClash.Weighted>
0.1433

> <Gold.Chemscore.DEInternal.Weighted>
1.2895

> <Gold.Chemscore.Rot.Weighted>
2.5600

> <Gold.Chemscore.Internal.Correction.Weighted>
   9.000000E+99

> <Gold.Protein.RotatedTorsions>
[ 6907 6896 6895 6894 ] final  -47.09 input  -60.11 | X-H torsion
[ 7974 7965 7964 7962 ] final  141.00 input  175.53 | X-H torsion
[ 8008 7997 7996 7995 ] final  -16.19 input   59.86 | X-H torsion
[ 10167 10162 10161 10158 ] final -117.01 input  -65.29 | X-H torsion
[ 10718 10713 10712 10709 ] final   11.94 input   66.30 | X-H torsion
[ 10763 10752 10751 10750 ] final   33.53 input  -60.55 | X-H torsion
[ 11005 11000 10999 10996 ] final  143.71 input  -57.11 | X-H torsion

> <Gold.Protein.ActiveResidues>
 VAL166  LYS551  ARG553  GLY616  TRP617  ASP618  TYR619  PRO620  LYS621  CYS622 
 ASP623  PHE694  ASN695  SER759  ASP760  ASP761  ALA762  ILE779  LEU786  VAL792 
 PHE793  MET794  SER795  GLU796  ALA797  LYS798  CYS799  TRP800  GLU811  SER814 

> <Gold.Protein.RotatedAtoms>
  150.9044  134.8458  159.7382 H   0  0  0  0  0  0  0  0  0  0  0  0  # atno 6907 bound_to 6896
  152.4910  134.4453  159.9567 H   0  0  0  0  0  0  0  0  0  0  0  0  # atno 6908 bound_to 6896
  151.4501  133.3580  159.2829 H   0  0  0  0  0  0  0  0  0  0  0  0  # atno 6909 bound_to 6896
  144.9135  139.5261  143.5697 H   0  0  0  0  0  0  0  0  0  0  0  0  # atno 7974 bound_to 7965
  154.5072  140.2176  155.9228 H   0  0  0  0  0  0  0  0  0  0  0  0  # atno 8008 bound_to 7997
  156.1508  140.3162  155.8611 H   0  0  0  0  0  0  0  0  0  0  0  0  # atno 8009 bound_to 7997
  155.3943  140.0480  157.3030 H   0  0  0  0  0  0  0  0  0  0  0  0  # atno 8010 bound_to 7997
  140.0730  143.4859  152.1969 H   0  0  0  0  0  0  0  0  0  0  0  0  # atno 10167 bound_to 10162
  157.0029  130.6086  149.5698 H   0  0  0  0  0  0  0  0  0  0  0  0  # atno 10718 bound_to 10713
  153.0208  135.6384  154.1525 H   0  0  0  0  0  0  0  0  0  0  0  0  # atno 10763 bound_to 10752
  154.1260  135.2843  155.3198 H   0  0  0  0  0  0  0  0  0  0  0  0  # atno 10764 bound_to 10752
  154.6229  135.5519  153.7657 H   0  0  0  0  0  0  0  0  0  0  0  0  # atno 10765 bound_to 10752
  140.0575  134.9222  157.1126 H   0  0  0  0  0  0  0  0  0  0  0  0  # atno 11005 bound_to 11000
  146.3170  139.7960  142.8975 LP  0  0  0  0  0  0  0  0  0  0  0  0  # atno 17320 bound_to 7965
  145.3414  141.0288  143.3390 LP  0  0  0  0  0  0  0  0  0  0  0  0  # atno 17321 bound_to 7965
  139.5825  144.7516  151.3604 LP  0  0  0  0  0  0  0  0  0  0  0  0  # atno 17342 bound_to 10162
  140.7116  143.7375  150.7578 LP  0  0  0  0  0  0  0  0  0  0  0  0  # atno 17343 bound_to 10162
  156.0164  130.5259  150.8148 LP  0  0  0  0  0  0  0  0  0  0  0  0  # atno 17370 bound_to 10713
  157.5377  131.0939  150.9870 LP  0  0  0  0  0  0  0  0  0  0  0  0  # atno 17371 bound_to 10713
  140.3821  134.2275  155.7170 LP  0  0  0  0  0  0  0  0  0  0  0  0  # atno 17394 bound_to 11000
  141.1958  133.8096  157.0697 LP  0  0  0  0  0  0  0  0  0  0  0  0  # atno 17395 bound_to 11000

$$$$
