AV-unprocessed.smi:29|AV-procd|sdf|191|dock7
  -GOLD-   2262015463D 1   1.00000     0.00000
 Structure written by MMmdl.
 56 59  0  0  0  0  0  0  0  0  1 V2000
  150.6637  140.7182  156.3209 O   0  0  0  0  0  0  0  0  0  0  0  0
  151.6485  139.9934  156.4632 C   0  0  0  0  0  0  0  0  0  0  0  0
  151.9055  138.8408  155.4805 C   0  0  0  0  0  0  0  0  0  0  0  0
  150.8244  137.8322  155.4770 N   0  0  0  0  0  0  0  0  0  0  0  0
  149.5470  138.1945  154.9811 C   0  0  0  0  0  0  0  0  0  0  0  0
  149.3198  139.3340  154.5724 O   0  0  0  0  0  0  0  0  0  0  0  0
  148.5466  137.1329  154.9820 C   0  0  0  0  0  0  0  0  0  0  0  0
  147.3100  137.3835  154.5197 F   0  0  0  0  0  0  0  0  0  0  0  0
  148.8445  135.8981  155.4355 C   0  0  0  0  0  0  0  0  0  0  0  0
  150.0938  135.5609  155.9233 N   0  0  0  0  0  0  0  0  0  0  0  0
  150.3985  134.1624  156.4120 C   0  0  2  0  0  0  0  0  0  0  0  0
  150.1124  133.1407  155.3056 C   0  0  0  0  0  0  0  0  0  0  0  0
  148.6949  132.7215  155.6292 C   0  0  0  0  0  0  0  0  0  0  0  0
  148.6993  132.7760  157.1527 C   0  0  0  0  0  0  0  0  0  0  0  0
  149.5598  133.8613  157.4903 O   0  0  0  0  0  0  0  0  0  0  0  0
  151.1218  136.5279  155.9392 C   0  0  0  0  0  0  0  0  0  0  0  0
  152.2527  136.2385  156.3366 O   0  0  0  0  0  0  0  0  0  0  0  0
  152.5401  140.0970  157.4649 N   0  0  0  0  0  0  0  0  0  0  0  0
  152.5935  141.0260  158.5452 C   0  0  0  0  0  0  0  0  0  0  0  0
  152.1092  142.3538  158.4443 C   0  0  0  0  0  0  0  0  0  0  0  0
  152.1955  143.2424  159.5359 C   0  0  0  0  0  0  0  0  0  0  0  0
  151.6614  144.6596  159.3903 C   0  0  0  0  0  0  0  0  0  0  0  0
  152.0747  145.4526  160.3798 F   0  0  0  0  0  0  0  0  0  0  0  0
  152.0755  145.1794  158.2347 F   0  0  0  0  0  0  0  0  0  0  0  0
  150.3290  144.6321  159.3963 F   0  0  0  0  0  0  0  0  0  0  0  0
  152.7747  142.8011  160.7432 C   0  0  0  0  0  0  0  0  0  0  0  0
  153.2756  141.4913  160.8491 C   0  0  0  0  0  0  0  0  0  0  0  0
  153.1975  140.6001  159.7551 C   0  0  0  0  0  0  0  0  0  0  0  0
  153.7169  139.2986  159.8605 N   0  0  0  0  0  0  0  0  0  0  0  0
  154.7005  139.1405  160.9238 C   0  0  0  0  0  0  0  0  0  0  0  0
  155.3252  137.7364  160.8541 C   0  0  0  0  0  0  0  0  0  0  0  0
  154.2957  136.7524  160.9080 O   0  0  0  0  0  0  0  0  0  0  0  0
  153.3835  136.8705  159.8193 C   0  0  0  0  0  0  0  0  0  0  0  0
  152.7047  138.2507  159.8623 C   0  0  0  0  0  0  0  0  0  0  0  0
  152.0524  139.2426  154.4760 H   0  0  0  0  0  0  0  0  0  0  0  0
  152.8698  138.3951  155.7283 H   0  0  0  0  0  0  0  0  0  0  0  0
  148.0661  135.1504  155.4047 H   0  0  0  0  0  0  0  0  0  0  0  0
  151.4368  134.1760  156.7473 H   0  0  0  0  0  0  0  0  0  0  0  0
  150.2365  133.5602  154.3062 H   0  0  0  0  0  0  0  0  0  0  0  0
  150.7965  132.2994  155.4240 H   0  0  0  0  0  0  0  0  0  0  0  0
  147.9857  133.4450  155.2253 H   0  0  0  0  0  0  0  0  0  0  0  0
  148.4393  131.7364  155.2381 H   0  0  0  0  0  0  0  0  0  0  0  0
  147.7020  132.9105  157.5719 H   0  0  0  0  0  0  0  0  0  0  0  0
  149.1200  131.8572  157.5633 H   0  0  0  0  0  0  0  0  0  0  0  0
  153.2460  139.3753  157.4949 H   0  0  0  0  0  0  0  0  0  0  0  0
  151.6762  142.7256  157.5294 H   0  0  0  0  0  0  0  0  0  0  0  0
  152.8478  143.4627  161.5933 H   0  0  0  0  0  0  0  0  0  0  0  0
  153.7262  141.1755  161.7788 H   0  0  0  0  0  0  0  0  0  0  0  0
  155.4766  139.9008  160.8269 H   0  0  0  0  0  0  0  0  0  0  0  0
  154.2246  139.2847  161.8946 H   0  0  0  0  0  0  0  0  0  0  0  0
  155.9104  137.6161  159.9409 H   0  0  0  0  0  0  0  0  0  0  0  0
  156.0067  137.5856  161.6915 H   0  0  0  0  0  0  0  0  0  0  0  0
  153.9091  136.7251  158.8740 H   0  0  0  0  0  0  0  0  0  0  0  0
  152.6359  136.0807  159.8935 H   0  0  0  0  0  0  0  0  0  0  0  0
  152.0880  138.3311  160.7582 H   0  0  0  0  0  0  0  0  0  0  0  0
  152.0452  138.3714  159.0020 H   0  0  0  0  0  0  0  0  0  0  0  0
  1  2  2  0  0  0  0
  2  3  1  0  0  0  0
  2 18  1  0  0  0  0
  3  4  1  0  0  0  0
  3 35  1  0  0  0  0
  3 36  1  0  0  0  0
  4 16  1  0  0  0  0
  4  5  1  0  0  0  0
  5  6  2  0  0  0  0
  5  7  1  0  0  0  0
  7  8  1  0  0  0  0
  7  9  2  0  0  0  0
  9 10  1  0  0  0  0
  9 37  1  0  0  0  0
 10 11  1  0  0  0  0
 10 16  1  0  0  0  0
 11 15  1  0  0  0  0
 11 12  1  0  0  0  0
 11 38  1  0  0  0  0
 12 13  1  0  0  0  0
 12 39  1  0  0  0  0
 12 40  1  0  0  0  0
 13 14  1  0  0  0  0
 13 41  1  0  0  0  0
 13 42  1  0  0  0  0
 14 15  1  0  0  0  0
 14 43  1  0  0  0  0
 14 44  1  0  0  0  0
 16 17  2  0  0  0  0
 18 19  1  0  0  0  0
 18 45  1  0  0  0  0
 19 28  1  0  0  0  0
 19 20  2  0  0  0  0
 20 21  1  0  0  0  0
 20 46  1  0  0  0  0
 21 22  1  0  0  0  0
 21 26  2  0  0  0  0
 22 23  1  0  0  0  0
 22 24  1  0  0  0  0
 22 25  1  0  0  0  0
 26 27  1  0  0  0  0
 26 47  1  0  0  0  0
 27 28  2  0  0  0  0
 27 48  1  0  0  0  0
 28 29  1  0  0  0  0
 29 34  1  0  0  0  0
 29 30  1  0  0  0  0
 30 31  1  0  0  0  0
 30 49  1  0  0  0  0
 30 50  1  0  0  0  0
 31 32  1  0  0  0  0
 31 51  1  0  0  0  0
 31 52  1  0  0  0  0
 32 33  1  0  0  0  0
 33 34  1  0  0  0  0
 33 53  1  0  0  0  0
 33 54  1  0  0  0  0
 34 55  1  0  0  0  0
 34 56  1  0  0  0  0
M  END
> <s_m_source_file>
AV-unprocessed.smi

> <i_m_source_file_index>
29

> <i_lp_mmshare_version>
43012

> <i_f3d_flags>
0

> <s_epik_input>
TzFbQ0gyXVtDSDJdW0NIMl1bQ0BIXTFuKGMyPU8pW2NIXWMoRiljKD1PKW4yW0NIMl1DKD1PKVtOSF1jM1tjSF1jKEMoRikoRilGKVtjSF1bY0hdYzNONFtDSDJdW0NIMl1PW0NIMl1bQ0gyXTQ=

> <s_epik_cmdline>
J2VwaWtfcHl0aG9uJywgJy1waCcsICc3LjAnLCAnLXRuJywgJzgnLCAnLW1hJywgJzIwMCcsICctbWV0YWxfYmluZGluZycsICctaW1hZScsICc8aW5maWxlLm1hZT4nLCAnLW9tYWUnLCAnPG91dGZpbGUubWFlPic=

> <r_lp_tautomer_probability>
1

> <r_epik_Ionization_Penalty>
3.5967e-06

> <r_epik_Ionization_Penalty_Charging>
3.88729e-08

> <r_epik_Ionization_Penalty_Neutral>
3.55783e-06

> <r_epik_State_Penalty>
-0

> <r_epik_Charging_Adjusted_Penalty>
3.88729e-08

> <i_epik_Tot_Q>
0

> <i_epik_Tot_abs_Q>
0

> <r_epik_Metal_State_Penalty>
-0

> <b_epik_Metal_Only>
0

> <s_epik_Chemistry_Notes>
This compound contains an acetal/aminal-like group ( X-CH(R)-Y where X, Y are N, S, or O) that may be acid/base labile, releasing an aldehyde.

> <s_lp_Force_Field>
OPLS_2005

> <r_lp_Energy>
49.5757

> <b_lp_Chiralities_Consistent>
1

> <s_lp_Variant>
AV-unprocessed.smi:29-1

> <Gold.Version>
5.8.1

> <Gold.Id.Protein>
6NUR|6NUR_protein|mol2

> <Gold.PLP.Fitness>
57.2252

> <Gold.PLP.PLP>
-53.6034

> <Gold.PLP.part.hbond>
-2.0000

> <Gold.PLP.part.metal>
0.0000

> <Gold.PLP.part.buried>
-8.9609

> <Gold.PLP.part.nonpolar>
-43.9926

> <Gold.PLP.part.repulsive>
1.6735

> <Gold.PLP.ligand.clash>
0.0024

> <Gold.PLP.ligand.torsion>
1.1049

> <Gold.PLP.Chemscore.Hbond>
1.8640

> <Gold.PLP.Chemscore.CHOScore>
0.0000

> <Gold.PLP.Chemscore.Metal>
0.0000

> <Gold.Chemscore.Hbonds>
donor molecule, donor type, donor heavy atom, donor atom, acceptor molecule, acceptor atom, score
      P1  H  6896  6908       L1    15  0.31
      P1  H 10752 10765       L1    17  1.00

> <Gold.PLP.Chemscore.Internal.Correction>
0.2420

> <Gold.Rescore>
     Score         DG    S(hbond)    S(metal)    S(lipo)     H(rot)  DE(clash)    DE(int)     intcor
     16.71     -19.55       1.92        0.00     108.34       1.96       0.03       2.82       ----

> <Gold.Chemscore.Fitness>
16.7104

> <Gold.Chemscore.DG>
-19.5548

> <Gold.Chemscore.ZeroCoef>
-5.4800

> <Gold.Chemscore.Hbond>
1.9243

> <Gold.Chemscore.Metal>
0.0000

> <Gold.Chemscore.Lipo>
108.3399

> <Gold.Chemscore.Internal_Hbond>
0.0000

> <Gold.Chemscore.DEClash>
0.0275

> <Gold.Chemscore.DEInternal>
2.8168

> <Gold.Chemscore.Rot>
1.9641

> <Gold.Chemscore.Internal.Correction>
   9.000000E+99

> <Gold.Chemscore.Hbonds>
donor molecule, donor type, donor heavy atom, donor atom, acceptor molecule, acceptor atom, score
      P1  H  6896  6908       L1    15  0.12
      P1  H 10752 10765       L1    17  0.82

> <Gold.Chemscore.Hbond.Weighted>
-6.4270

> <Gold.Chemscore.Metal.Weighted>
-0.0000

> <Gold.Chemscore.Lipo.Weighted>
-12.6758

> <Gold.Chemscore.Internal_Hbond.Weighted>
0.0000

> <Gold.Chemscore.DEClash.Weighted>
0.0275

> <Gold.Chemscore.DEInternal.Weighted>
2.8168

> <Gold.Chemscore.Rot.Weighted>
5.0280

> <Gold.Chemscore.Internal.Correction.Weighted>
   9.000000E+99

> <Gold.Protein.RotatedTorsions>
[ 6907 6896 6895 6894 ] final   99.19 input  -60.11 | X-H torsion
[ 7974 7965 7964 7962 ] final -114.95 input  175.53 | X-H torsion
[ 8008 7997 7996 7995 ] final -115.31 input   59.86 | X-H torsion
[ 10167 10162 10161 10158 ] final  120.83 input  -65.29 | X-H torsion
[ 10718 10713 10712 10709 ] final  109.46 input   66.30 | X-H torsion
[ 10763 10752 10751 10750 ] final -147.35 input  -60.55 | X-H torsion
[ 11005 11000 10999 10996 ] final  -53.60 input  -57.11 | X-H torsion

> <Gold.Protein.ActiveResidues>
 VAL166  LYS551  ARG553  GLY616  TRP617  ASP618  TYR619  PRO620  LYS621  CYS622 
 ASP623  PHE694  ASN695  SER759  ASP760  ASP761  ALA762  ILE779  LEU786  VAL792 
 PHE793  MET794  SER795  GLU796  ALA797  LYS798  CYS799  TRP800  GLU811  SER814 

> <Gold.Protein.RotatedAtoms>
  152.5396  134.0466  159.8090 H   0  0  0  0  0  0  0  0  0  0  0  0  # atno 6907 bound_to 6896
  151.0614  133.5534  159.2641 H   0  0  0  0  0  0  0  0  0  0  0  0  # atno 6908 bound_to 6896
  151.2431  135.0604  159.9086 H   0  0  0  0  0  0  0  0  0  0  0  0  # atno 6909 bound_to 6896
  145.1141  140.8629  143.3852 H   0  0  0  0  0  0  0  0  0  0  0  0  # atno 7974 bound_to 7965
  155.0500  140.0393  157.2540 H   0  0  0  0  0  0  0  0  0  0  0  0  # atno 8008 bound_to 7997
  154.7145  140.2699  155.6574 H   0  0  0  0  0  0  0  0  0  0  0  0  # atno 8009 bound_to 7997
  156.2799  140.2715  156.1797 H   0  0  0  0  0  0  0  0  0  0  0  0  # atno 8010 bound_to 7997
  139.5957  144.7041  151.3182 H   0  0  0  0  0  0  0  0  0  0  0  0  # atno 10167 bound_to 10162
  157.6540  131.0914  150.6456 H   0  0  0  0  0  0  0  0  0  0  0  0  # atno 10718 bound_to 10713
  154.8290  135.3362  154.6804 H   0  0  0  0  0  0  0  0  0  0  0  0  # atno 10763 bound_to 10752
  153.7426  135.6945  153.4968 H   0  0  0  0  0  0  0  0  0  0  0  0  # atno 10764 bound_to 10752
  153.2233  135.4441  155.0465 H   0  0  0  0  0  0  0  0  0  0  0  0  # atno 10765 bound_to 10752
  141.0984  133.6621  156.4196 H   0  0  0  0  0  0  0  0  0  0  0  0  # atno 11005 bound_to 11000
  145.0814  139.2957  143.5782 LP  0  0  0  0  0  0  0  0  0  0  0  0  # atno 17320 bound_to 7965
  146.3525  140.0321  142.8649 LP  0  0  0  0  0  0  0  0  0  0  0  0  # atno 17321 bound_to 7965
  140.7210  143.7136  150.7750 LP  0  0  0  0  0  0  0  0  0  0  0  0  # atno 17342 bound_to 10162
  140.0701  143.5069  152.2584 LP  0  0  0  0  0  0  0  0  0  0  0  0  # atno 17343 bound_to 10162
  156.6765  130.4554  149.5641 LP  0  0  0  0  0  0  0  0  0  0  0  0  # atno 17370 bound_to 10713
  156.1960  130.6590  151.1115 LP  0  0  0  0  0  0  0  0  0  0  0  0  # atno 17371 bound_to 10713
  140.5083  134.6420  157.5275 LP  0  0  0  0  0  0  0  0  0  0  0  0  # atno 17394 bound_to 11000
  139.9828  134.7110  155.9829 LP  0  0  0  0  0  0  0  0  0  0  0  0  # atno 17395 bound_to 11000

$$$$
