AV-unprocessed.smi:1600|AV-procd|sdf|6429|dock4
  -GOLD-   22720 7 73D 1   1.00000     0.00000
 Structure written by MMmdl.
 46 47  0  0  0  0  0  0  0  0  2 V2000
  154.0477  141.7662  160.2085 C   0  0  0  0  0  0  0  0  0  0  0  0
  152.9834  142.3653  159.3372 C   0  0  0  0  0  0  0  0  0  0  0  0
  152.2228  141.7256  158.3156 C   0  0  0  0  0  0  0  0  0  0  0  0
  151.4162  142.7344  157.8642 C   0  0  0  0  0  0  0  0  0  0  0  0
  150.4777  142.7035  156.8807 N   0  0  0  0  0  0  0  0  0  0  0  0
  150.1064  141.6685  156.1068 C   0  0  0  0  0  0  0  0  0  0  0  0
  150.5790  140.5327  156.1560 O   0  0  0  0  0  0  0  0  0  0  0  0
  149.1359  142.0245  155.2529 N   0  0  0  0  0  0  0  0  0  0  0  0
  148.4957  141.1290  154.2947 C   0  0  0  0  0  0  0  0  0  0  0  0
  147.0235  141.5047  154.0371 C   0  0  2  0  0  0  0  0  0  0  0  0
  146.7636  142.9995  153.8556 C   0  0  0  0  0  0  0  0  0  0  0  0
  145.2969  143.1928  154.2653 C   0  0  0  0  0  0  0  0  0  0  0  0
  144.8635  141.9464  154.9470 N   0  3  2  0  0  0  0  0  0  0  0  0
  143.9794  142.1444  156.1305 C   0  0  0  0  0  0  0  0  0  0  0  0
  143.5186  140.8021  156.7306 C   0  0  0  0  0  0  0  0  0  0  0  0
  142.7469  142.9942  155.7660 C   0  0  0  0  0  0  0  0  0  0  0  0
  146.0855  141.1486  155.1878 C   0  0  0  0  0  0  0  0  0  0  0  0
  151.6951  143.8797  158.5768 N   0  0  0  0  0  0  0  0  0  0  0  0
  151.1102  145.2017  158.4643 C   0  0  0  0  0  0  0  0  0  0  0  0
  152.6658  143.6466  159.4864 N   0  0  0  0  0  0  0  0  0  0  0  0
  154.1792  140.7049  159.9967 H   0  0  0  0  0  0  0  0  0  0  0  0
  153.7928  141.8643  161.2640 H   0  0  0  0  0  0  0  0  0  0  0  0
  155.0080  142.2574  160.0490 H   0  0  0  0  0  0  0  0  0  0  0  0
  152.2777  140.6990  157.9863 H   0  0  0  0  0  0  0  0  0  0  0  0
  149.9878  143.5727  156.7282 H   0  0  0  0  0  0  0  0  0  0  0  0
  148.8042  142.9778  155.2788 H   0  0  0  0  0  0  0  0  0  0  0  0
  149.0552  141.1319  153.3577 H   0  0  0  0  0  0  0  0  0  0  0  0
  148.5611  140.1138  154.6870 H   0  0  0  0  0  0  0  0  0  0  0  0
  146.6687  140.9853  153.1452 H   0  0  0  0  0  0  0  0  0  0  0  0
  147.4062  143.5753  154.5233 H   0  0  0  0  0  0  0  0  0  0  0  0
  146.9605  143.3356  152.8370 H   0  0  0  0  0  0  0  0  0  0  0  0
  145.2096  144.0648  154.9152 H   0  0  0  0  0  0  0  0  0  0  0  0
  144.6615  143.3616  153.3954 H   0  0  0  0  0  0  0  0  0  0  0  0
  144.5494  142.6764  156.8941 H   0  0  0  0  0  0  0  0  0  0  0  0
  142.8345  140.9624  157.5645 H   0  0  0  0  0  0  0  0  0  0  0  0
  144.3535  140.2183  157.1187 H   0  0  0  0  0  0  0  0  0  0  0  0
  142.9982  140.1934  155.9901 H   0  0  0  0  0  0  0  0  0  0  0  0
  142.0927  143.1226  156.6289 H   0  0  0  0  0  0  0  0  0  0  0  0
  142.1607  142.5228  154.9763 H   0  0  0  0  0  0  0  0  0  0  0  0
  143.0204  143.9928  155.4259 H   0  0  0  0  0  0  0  0  0  0  0  0
  145.8717  140.0799  155.2231 H   0  0  0  0  0  0  0  0  0  0  0  0
  146.5320  141.4396  156.1405 H   0  0  0  0  0  0  0  0  0  0  0  0
  150.0227  145.1236  158.4546 H   0  0  0  0  0  0  0  0  0  0  0  0
  151.4441  145.6715  157.5387 H   0  0  0  0  0  0  0  0  0  0  0  0
  151.4088  145.8261  159.3078 H   0  0  0  0  0  0  0  0  0  0  0  0
  144.3301  141.4280  154.2636 H   0  0  0  0  0  0  0  0  0  0  0  0
  1  2  1  0  0  0  0
  1 21  1  0  0  0  0
  1 22  1  0  0  0  0
  1 23  1  0  0  0  0
  2 20  2  0  0  0  0
  2  3  1  0  0  0  0
  3  4  2  0  0  0  0
  3 24  1  0  0  0  0
  4  5  1  0  0  0  0
  4 18  1  0  0  0  0
  5  6  1  0  0  0  0
  5 25  1  0  0  0  0
  6  7  2  0  0  0  0
  6  8  1  0  0  0  0
  8  9  1  0  0  0  0
  8 26  1  0  0  0  0
  9 10  1  0  0  0  0
  9 27  1  0  0  0  0
  9 28  1  0  0  0  0
 10 17  1  0  0  0  0
 10 11  1  0  0  0  0
 10 29  1  0  0  0  0
 11 12  1  0  0  0  0
 11 30  1  0  0  0  0
 11 31  1  0  0  0  0
 12 13  1  0  0  0  0
 12 32  1  0  0  0  0
 12 33  1  0  0  0  0
 13 14  1  0  0  0  0
 13 17  1  0  0  0  0
 13 46  1  0  0  0  0
 14 15  1  0  0  0  0
 14 16  1  0  0  0  0
 14 34  1  0  0  0  0
 15 35  1  0  0  0  0
 15 36  1  0  0  0  0
 15 37  1  0  0  0  0
 16 38  1  0  0  0  0
 16 39  1  0  0  0  0
 16 40  1  0  0  0  0
 17 41  1  0  0  0  0
 17 42  1  0  0  0  0
 18 19  1  0  0  0  0
 18 20  1  0  0  0  0
 19 43  1  0  0  0  0
 19 44  1  0  0  0  0
 19 45  1  0  0  0  0
M  CHG  1  13   1
M  END
> <s_m_source_file>
AV-unprocessed.smi

> <i_m_source_file_index>
1600

> <i_lp_mmshare_version>
43012

> <i_f3d_flags>
0

> <s_epik_input>
W0NIM11jMVtjSF1jKG4objEpW0NIM10pW05IXUMoPU8pW05IXVtDSDJdW0NAQEhdMltDSDJdW0NIMl1OKFtDSDJdMilbQ0hdKFtDSDNdKVtDSDNd

> <s_epik_cmdline>
J2VwaWtfcHl0aG9uJywgJy1waCcsICc3LjAnLCAnLXRuJywgJzgnLCAnLW1hJywgJzIwMCcsICctbWV0YWxfYmluZGluZycsICctaW1hZScsICc8aW5maWxlLm1hZT4nLCAnLW9tYWUnLCAnPG91dGZpbGUubWFlPic=

> <r_lp_tautomer_probability>
1

> <r_epik_Ionization_Penalty>
0.000297652

> <r_epik_Ionization_Penalty_Charging>
0.000213653

> <r_epik_Ionization_Penalty_Neutral>
8.3999e-05

> <r_epik_State_Penalty>
-0

> <r_epik_Charging_Adjusted_Penalty>
0.000213653

> <i_epik_Tot_Q>
1

> <i_epik_Tot_abs_Q>
1

> <r_epik_Metal_State_Penalty>
-0

> <b_epik_Metal_Only>
0

> <s_lp_Force_Field>
OPLS_2005

> <r_lp_Energy>
32.0246

> <b_lp_Chiralities_Consistent>
1

> <s_lp_Variant>
AV-unprocessed.smi:1600-3

> <Gold.Version>
5.8.1

> <Gold.Id.Protein>
6NUR|6NUR_protein|mol2

> <Gold.PLP.Fitness>
50.6178

> <Gold.PLP.PLP>
-39.1834

> <Gold.PLP.part.hbond>
-3.0000

> <Gold.PLP.part.metal>
0.0000

> <Gold.PLP.part.buried>
-6.0941

> <Gold.PLP.part.nonpolar>
-30.7606

> <Gold.PLP.part.repulsive>
0.2300

> <Gold.PLP.ligand.clash>
0.0000

> <Gold.PLP.ligand.torsion>
0.3101

> <Gold.PLP.Chemscore.Hbond>
4.0000

> <Gold.PLP.Chemscore.CHOScore>
0.0000

> <Gold.PLP.Chemscore.Metal>
0.0000

> <Gold.Chemscore.Hbonds>
donor molecule, donor type, donor heavy atom, donor atom, acceptor molecule, acceptor atom, score
      L1  H     5    25       P1  8028  1.00
      L1  H     8    26       P1  8028  1.00
      L1  H    13    46       P1 10175  1.69

> <Gold.PLP.Chemscore.Internal.Correction>
0.0547

> <Gold.Rescore>
     Score         DG    S(hbond)    S(metal)    S(lipo)     H(rot)  DE(clash)    DE(int)     intcor
     18.47     -20.08       2.87        0.00      74.16       1.44       0.02       1.60       ----

> <Gold.Chemscore.Fitness>
18.4652

> <Gold.Chemscore.DG>
-20.0802

> <Gold.Chemscore.ZeroCoef>
-5.4800

> <Gold.Chemscore.Hbond>
2.8748

> <Gold.Chemscore.Metal>
0.0000

> <Gold.Chemscore.Lipo>
74.1618

> <Gold.Chemscore.Internal_Hbond>
0.0000

> <Gold.Chemscore.DEClash>
0.0174

> <Gold.Chemscore.DEInternal>
1.5976

> <Gold.Chemscore.Rot>
1.4369

> <Gold.Chemscore.Internal.Correction>
   9.000000E+99

> <Gold.Chemscore.Hbonds>
donor molecule, donor type, donor heavy atom, donor atom, acceptor molecule, acceptor atom, score
      L1  H     5    25       P1  8028  0.96
      L1  H     8    26       P1  8028  0.99
      L1  H    13    46       P1 10175  0.33

> <Gold.Chemscore.Hbond.Weighted>
-9.6018

> <Gold.Chemscore.Metal.Weighted>
-0.0000

> <Gold.Chemscore.Lipo.Weighted>
-8.6769

> <Gold.Chemscore.Internal_Hbond.Weighted>
0.0000

> <Gold.Chemscore.DEClash.Weighted>
0.0174

> <Gold.Chemscore.DEInternal.Weighted>
1.5976

> <Gold.Chemscore.Rot.Weighted>
3.6785

> <Gold.Chemscore.Internal.Correction.Weighted>
   9.000000E+99

> <Gold.Protein.RotatedTorsions>
[ 6907 6896 6895 6894 ] final  142.85 input  -60.11 | X-H torsion
[ 7974 7965 7964 7962 ] final   95.21 input  175.53 | X-H torsion
[ 8008 7997 7996 7995 ] final  133.46 input   59.86 | X-H torsion
[ 10167 10162 10161 10158 ] final -135.40 input  -65.29 | X-H torsion
[ 10718 10713 10712 10709 ] final -150.65 input   66.30 | X-H torsion
[ 10763 10752 10751 10750 ] final  135.16 input  -60.55 | X-H torsion
[ 11005 11000 10999 10996 ] final -127.22 input  -57.11 | X-H torsion

> <Gold.Protein.ActiveResidues>
 VAL166  LYS551  ARG553  GLY616  TRP617  ASP618  TYR619  PRO620  LYS621  CYS622 
 ASP623  PHE694  ASN695  SER759  ASP760  ASP761  ALA762  ILE779  LEU786  VAL792 
 PHE793  MET794  SER795  GLU796  ALA797  LYS798  CYS799  TRP800  GLU811  SER814 

> <Gold.Protein.RotatedAtoms>
  152.2136  133.4930  159.5123 H   0  0  0  0  0  0  0  0  0  0  0  0  # atno 6907 bound_to 6896
  150.6996  134.1435  159.4122 H   0  0  0  0  0  0  0  0  0  0  0  0  # atno 6908 bound_to 6896
  151.9354  135.0237  160.0583 H   0  0  0  0  0  0  0  0  0  0  0  0  # atno 6909 bound_to 6896
  145.4552  139.2290  143.3018 H   0  0  0  0  0  0  0  0  0  0  0  0  # atno 7974 bound_to 7965
  156.2992  140.2520  156.3257 H   0  0  0  0  0  0  0  0  0  0  0  0  # atno 8008 bound_to 7997
  154.9192  140.0401  157.2008 H   0  0  0  0  0  0  0  0  0  0  0  0  # atno 8009 bound_to 7997
  154.8328  140.2878  155.5715 H   0  0  0  0  0  0  0  0  0  0  0  0  # atno 8010 bound_to 7997
  139.8782  143.6872  152.2631 H   0  0  0  0  0  0  0  0  0  0  0  0  # atno 10167 bound_to 10162
  156.4489  130.8158  151.2389 H   0  0  0  0  0  0  0  0  0  0  0  0  # atno 10718 bound_to 10713
  153.8354  135.3098  155.3422 H   0  0  0  0  0  0  0  0  0  0  0  0  # atno 10763 bound_to 10752
  154.7955  135.4757  154.0155 H   0  0  0  0  0  0  0  0  0  0  0  0  # atno 10764 bound_to 10752
  153.1608  135.6860  153.8836 H   0  0  0  0  0  0  0  0  0  0  0  0  # atno 10765 bound_to 10752
  140.9617  134.0926  157.3961 H   0  0  0  0  0  0  0  0  0  0  0  0  # atno 11005 bound_to 11000
  146.2482  140.5315  142.8905 LP  0  0  0  0  0  0  0  0  0  0  0  0  # atno 17320 bound_to 7965
  144.8037  140.6260  143.6461 LP  0  0  0  0  0  0  0  0  0  0  0  0  # atno 17321 bound_to 7965
  139.7220  144.7600  151.0940 LP  0  0  0  0  0  0  0  0  0  0  0  0  # atno 17342 bound_to 10162
  140.7749  143.5195  150.9553 LP  0  0  0  0  0  0  0  0  0  0  0  0  # atno 17343 bound_to 10162
  157.7503  131.0144  150.3463 LP  0  0  0  0  0  0  0  0  0  0  0  0  # atno 17370 bound_to 10713
  156.3837  130.3885  149.7082 LP  0  0  0  0  0  0  0  0  0  0  0  0  # atno 17371 bound_to 10713
  139.8880  135.0094  156.6597 LP  0  0  0  0  0  0  0  0  0  0  0  0  # atno 17394 bound_to 11000
  140.7457  133.8940  155.8310 LP  0  0  0  0  0  0  0  0  0  0  0  0  # atno 17395 bound_to 11000

$$$$
