AV-unprocessed.smi:2359|AV-procd|sdf|9408|dock5
  -GOLD-   2272013 43D 1   1.00000     0.00000
 Structure written by MMmdl.
 40 41  0  0  0  0  0  0  0  0  1 V2000
  146.0788  129.0829  152.6064 C   0  0  0  0  0  0  0  0  0  0  0  0
  146.7885  130.3961  152.8608 C   0  0  0  0  0  0  0  0  0  0  0  0
  146.3913  131.5698  152.1938 C   0  0  0  0  0  0  0  0  0  0  0  0
  147.0788  132.7690  152.4620 C   0  0  0  0  0  0  0  0  0  0  0  0
  148.1447  132.7675  153.3897 C   0  0  0  0  0  0  0  0  0  0  0  0
  148.7728  134.0263  153.5857 N   0  0  0  0  0  0  0  0  0  0  0  0
  149.5868  134.4028  154.5878 C   0  0  0  0  0  0  0  0  0  0  0  0
  149.9218  133.6964  155.5394 O   0  0  0  0  0  0  0  0  0  0  0  0
  149.9995  135.6674  154.4279 N   0  0  0  0  0  0  0  0  0  0  0  0
  150.8875  136.3649  155.3480 C   0  0  0  0  0  0  0  0  0  0  0  0
  151.2300  137.7631  154.8136 C   0  0  0  0  0  0  0  0  0  0  0  0
  150.1647  138.8140  155.1641 C   0  0  1  0  0  0  0  0  0  0  0  0
  150.0689  139.0549  156.6834 C   0  0  0  0  0  0  0  0  0  0  0  0
  149.0510  140.1591  156.9906 C   0  0  0  0  0  0  0  0  0  0  0  0
  149.3871  141.4129  156.1765 C   0  0  0  0  0  0  0  0  0  0  0  0
  149.5289  141.0611  154.6871 C   0  0  0  0  0  0  0  0  0  0  0  0
  150.5080  140.0402  154.5210 O   0  0  0  0  0  0  0  0  0  0  0  0
  148.5195  131.6312  154.0285 N   0  0  0  0  0  0  0  0  0  0  0  0
  147.8600  130.4822  153.7711 C   0  0  0  0  0  0  0  0  0  0  0  0
  145.9993  128.8947  151.5354 H   0  0  0  0  0  0  0  0  0  0  0  0
  145.0736  129.1106  153.0270 H   0  0  0  0  0  0  0  0  0  0  0  0
  146.6168  128.2494  153.0586 H   0  0  0  0  0  0  0  0  0  0  0  0
  145.5738  131.5541  151.4880 H   0  0  0  0  0  0  0  0  0  0  0  0
  146.7864  133.6788  151.9583 H   0  0  0  0  0  0  0  0  0  0  0  0
  148.5828  134.7204  152.8783 H   0  0  0  0  0  0  0  0  0  0  0  0
  149.6791  136.1812  153.6201 H   0  0  0  0  0  0  0  0  0  0  0  0
  150.4042  136.4398  156.3231 H   0  0  0  0  0  0  0  0  0  0  0  0
  151.8006  135.7830  155.4837 H   0  0  0  0  0  0  0  0  0  0  0  0
  152.1891  138.0747  155.2294 H   0  0  0  0  0  0  0  0  0  0  0  0
  151.3622  137.7236  153.7314 H   0  0  0  0  0  0  0  0  0  0  0  0
  149.1976  138.4711  154.7915 H   0  0  0  0  0  0  0  0  0  0  0  0
  149.7854  138.1354  157.1965 H   0  0  0  0  0  0  0  0  0  0  0  0
  151.0462  139.3421  157.0734 H   0  0  0  0  0  0  0  0  0  0  0  0
  148.0474  139.8145  156.7374 H   0  0  0  0  0  0  0  0  0  0  0  0
  149.0456  140.3868  158.0567 H   0  0  0  0  0  0  0  0  0  0  0  0
  148.6156  142.1711  156.3144 H   0  0  0  0  0  0  0  0  0  0  0  0
  150.3205  141.8455  156.5384 H   0  0  0  0  0  0  0  0  0  0  0  0
  148.5744  140.7358  154.2704 H   0  0  0  0  0  0  0  0  0  0  0  0
  149.8389  141.9404  154.1225 H   0  0  0  0  0  0  0  0  0  0  0  0
  148.1999  129.6092  154.3084 H   0  0  0  0  0  0  0  0  0  0  0  0
  1  2  1  0  0  0  0
  1 20  1  0  0  0  0
  1 21  1  0  0  0  0
  1 22  1  0  0  0  0
  2 19  1  0  0  0  0
  2  3  2  0  0  0  0
  3  4  1  0  0  0  0
  3 23  1  0  0  0  0
  4  5  2  0  0  0  0
  4 24  1  0  0  0  0
  5  6  1  0  0  0  0
  5 18  1  0  0  0  0
  6  7  1  0  0  0  0
  6 25  1  0  0  0  0
  7  8  2  0  0  0  0
  7  9  1  0  0  0  0
  9 10  1  0  0  0  0
  9 26  1  0  0  0  0
 10 11  1  0  0  0  0
 10 27  1  0  0  0  0
 10 28  1  0  0  0  0
 11 12  1  0  0  0  0
 11 29  1  0  0  0  0
 11 30  1  0  0  0  0
 12 17  1  0  0  0  0
 12 13  1  0  0  0  0
 12 31  1  0  0  0  0
 13 14  1  0  0  0  0
 13 32  1  0  0  0  0
 13 33  1  0  0  0  0
 14 15  1  0  0  0  0
 14 34  1  0  0  0  0
 14 35  1  0  0  0  0
 15 16  1  0  0  0  0
 15 36  1  0  0  0  0
 15 37  1  0  0  0  0
 16 17  1  0  0  0  0
 16 38  1  0  0  0  0
 16 39  1  0  0  0  0
 18 19  2  0  0  0  0
 19 40  1  0  0  0  0
M  END
> <s_m_source_file>
AV-unprocessed.smi

> <i_m_source_file_index>
2359

> <i_lp_mmshare_version>
43012

> <i_f3d_flags>
0

> <s_epik_input>
W0NIM11jMVtjSF1bY0hdYyhuW2NIXTEpW05IXUMoPU8pW05IXVtDSDJdW0NIMl1bQ0BASF0yW0NIMl1bQ0gyXVtDSDJdW0NIMl1PMg==

> <s_epik_cmdline>
J2VwaWtfcHl0aG9uJywgJy1waCcsICc3LjAnLCAnLXRuJywgJzgnLCAnLW1hJywgJzIwMCcsICctbWV0YWxfYmluZGluZycsICctaW1hZScsICc8aW5maWxlLm1hZT4nLCAnLW9tYWUnLCAnPG91dGZpbGUubWFlPic=

> <r_lp_tautomer_probability>
1

> <r_epik_Ionization_Penalty>
5.73679e-05

> <r_epik_Ionization_Penalty_Charging>
0

> <r_epik_Ionization_Penalty_Neutral>
5.73679e-05

> <r_epik_State_Penalty>
-0

> <r_epik_Charging_Adjusted_Penalty>
0

> <i_epik_Tot_Q>
0

> <i_epik_Tot_abs_Q>
0

> <r_epik_Metal_State_Penalty>
-0

> <b_epik_Metal_Only>
0

> <s_lp_Force_Field>
OPLS_2005

> <r_lp_Energy>
11.4199

> <b_lp_Chiralities_Consistent>
1

> <s_lp_Variant>
AV-unprocessed.smi:2359-2

> <Gold.Version>
5.8.1

> <Gold.Id.Protein>
6NUR|6NUR_protein|mol2

> <Gold.PLP.Fitness>
39.4175

> <Gold.PLP.PLP>
-30.8295

> <Gold.PLP.part.hbond>
-3.6936

> <Gold.PLP.part.metal>
0.0000

> <Gold.PLP.part.buried>
-2.5663

> <Gold.PLP.part.nonpolar>
-24.4989

> <Gold.PLP.part.repulsive>
0.2535

> <Gold.PLP.ligand.clash>
0.0000

> <Gold.PLP.ligand.torsion>
0.2094

> <Gold.PLP.Chemscore.Hbond>
3.0000

> <Gold.PLP.Chemscore.CHOScore>
0.0000

> <Gold.PLP.Chemscore.Metal>
0.0000

> <Gold.Chemscore.Hbonds>
donor molecule, donor type, donor heavy atom, donor atom, acceptor molecule, acceptor atom, score
      L1  H     6    25       P1  7948  1.00
      L1  H     9    26       P1  7948  1.00
      P1  H  7989  7998       L1    17  1.00

> <Gold.PLP.Chemscore.Internal.Correction>
0.0068

> <Gold.Rescore>
     Score         DG    S(hbond)    S(metal)    S(lipo)     H(rot)  DE(clash)    DE(int)     intcor
     14.83     -16.38       2.00        0.00      67.38       1.42       0.10       1.45       ----

> <Gold.Chemscore.Fitness>
14.8300

> <Gold.Chemscore.DG>
-16.3809

> <Gold.Chemscore.ZeroCoef>
-5.4800

> <Gold.Chemscore.Hbond>
1.9955

> <Gold.Chemscore.Metal>
0.0000

> <Gold.Chemscore.Lipo>
67.3816

> <Gold.Chemscore.Internal_Hbond>
0.0000

> <Gold.Chemscore.DEClash>
0.0963

> <Gold.Chemscore.DEInternal>
1.4546

> <Gold.Chemscore.Rot>
1.4248

> <Gold.Chemscore.Internal.Correction>
   9.000000E+99

> <Gold.Chemscore.Hbonds>
donor molecule, donor type, donor heavy atom, donor atom, acceptor molecule, acceptor atom, score
      L1  H     6    25       P1  7948  0.25
      L1  H     9    26       P1  7948  0.33
      P1  H  7989  7998       L1    17  0.26

> <Gold.Chemscore.Hbond.Weighted>
-6.6648

> <Gold.Chemscore.Metal.Weighted>
-0.0000

> <Gold.Chemscore.Lipo.Weighted>
-7.8836

> <Gold.Chemscore.Internal_Hbond.Weighted>
0.0000

> <Gold.Chemscore.DEClash.Weighted>
0.0963

> <Gold.Chemscore.DEInternal.Weighted>
1.4546

> <Gold.Chemscore.Rot.Weighted>
3.6476

> <Gold.Chemscore.Internal.Correction.Weighted>
   9.000000E+99

> <Gold.Protein.RotatedTorsions>
[ 6907 6896 6895 6894 ] final -155.28 input  -60.11 | X-H torsion
[ 7974 7965 7964 7962 ] final  139.41 input  175.53 | X-H torsion
[ 8008 7997 7996 7995 ] final  -78.27 input   59.86 | X-H torsion
[ 10167 10162 10161 10158 ] final  129.53 input  -65.29 | X-H torsion
[ 10718 10713 10712 10709 ] final -109.77 input   66.30 | X-H torsion
[ 10763 10752 10751 10750 ] final -115.56 input  -60.55 | X-H torsion
[ 11005 11000 10999 10996 ] final  153.41 input  -57.11 | X-H torsion

> <Gold.Protein.ActiveResidues>
 VAL166  LYS551  ARG553  GLY616  TRP617  ASP618  TYR619  PRO620  LYS621  CYS622 
 ASP623  PHE694  ASN695  SER759  ASP760  ASP761  ALA762  ILE779  LEU786  VAL792 
 PHE793  MET794  SER795  GLU796  ALA797  LYS798  CYS799  TRP800  GLU811  SER814 

> <Gold.Protein.RotatedAtoms>
  151.2701  133.4259  159.2620 H   0  0  0  0  0  0  0  0  0  0  0  0  # atno 6907 bound_to 6896
  151.0452  134.9635  159.8193 H   0  0  0  0  0  0  0  0  0  0  0  0  # atno 6908 bound_to 6896
  152.5372  134.2658  159.9005 H   0  0  0  0  0  0  0  0  0  0  0  0  # atno 6909 bound_to 6896
  144.9281  139.5081  143.5631 H   0  0  0  0  0  0  0  0  0  0  0  0  # atno 7974 bound_to 7965
  154.5673  140.0697  156.8911 H   0  0  0  0  0  0  0  0  0  0  0  0  # atno 8008 bound_to 7997
  155.2699  140.3364  155.4248 H   0  0  0  0  0  0  0  0  0  0  0  0  # atno 8009 bound_to 7997
  156.2091  140.1752  156.7721 H   0  0  0  0  0  0  0  0  0  0  0  0  # atno 8010 bound_to 7997
  139.5473  144.6784  151.4433 H   0  0  0  0  0  0  0  0  0  0  0  0  # atno 10167 bound_to 10162
  156.0555  130.5781  150.8146 H   0  0  0  0  0  0  0  0  0  0  0  0  # atno 10718 bound_to 10713
  154.8486  135.4377  154.1683 H   0  0  0  0  0  0  0  0  0  0  0  0  # atno 10763 bound_to 10752
  153.2803  135.6953  153.7399 H   0  0  0  0  0  0  0  0  0  0  0  0  # atno 10764 bound_to 10752
  153.6605  135.3436  155.3101 H   0  0  0  0  0  0  0  0  0  0  0  0  # atno 10765 bound_to 10752
  140.1395  134.8748  157.2312 H   0  0  0  0  0  0  0  0  0  0  0  0  # atno 11005 bound_to 11000
  146.3235  139.8211  142.8926 LP  0  0  0  0  0  0  0  0  0  0  0  0  # atno 17320 bound_to 7965
  145.3186  141.0238  143.3513 LP  0  0  0  0  0  0  0  0  0  0  0  0  # atno 17321 bound_to 7965
  140.6725  143.8262  150.7017 LP  0  0  0  0  0  0  0  0  0  0  0  0  # atno 17342 bound_to 10162
  140.1690  143.4210  152.2014 LP  0  0  0  0  0  0  0  0  0  0  0  0  # atno 17343 bound_to 10162
  157.5521  131.0944  150.9681 LP  0  0  0  0  0  0  0  0  0  0  0  0  # atno 17370 bound_to 10713
  156.9939  130.5574  149.5305 LP  0  0  0  0  0  0  0  0  0  0  0  0  # atno 17371 bound_to 10713
  140.2740  134.3427  155.7364 LP  0  0  0  0  0  0  0  0  0  0  0  0  # atno 17394 bound_to 11000
  141.2183  133.7440  156.9265 LP  0  0  0  0  0  0  0  0  0  0  0  0  # atno 17395 bound_to 11000

$$$$
