AV-unprocessed.smi:2061|AV-procd|sdf|8382|dock1
  -GOLD-   2272011 63D 1   1.00000     0.00000
 Structure written by MMmdl.
 45 46  0  0  0  0  0  0  0  0  3 V2000
  148.0008  133.9236  154.8422 C   0  0  0  0  0  0  0  0  0  0  0  0
  149.2496  134.2775  155.5748 C   0  0  0  0  0  0  0  0  0  0  0  0
  150.0971  135.3462  155.5010 C   0  0  0  0  0  0  0  0  0  0  0  0
  151.0786  135.0508  156.4862 C   0  0  0  0  0  0  0  0  0  0  0  0
  152.1459  135.8063  156.7873 N   0  5  0  0  0  0  0  0  0  0  0  0
  152.0357  136.8171  157.6789 C   0  0  0  0  0  0  0  0  0  0  0  0
  151.3794  136.8065  158.7230 O   0  0  0  0  0  0  0  0  0  0  0  0
  152.7249  137.9143  157.3355 N   0  0  0  0  0  0  0  0  0  0  0  0
  152.7725  139.1610  158.0932 C   0  0  0  0  0  0  0  0  0  0  0  0
  151.7911  140.2363  157.5564 C   0  0  2  0  0  0  0  0  0  0  0  0
  151.8800  140.3166  156.0127 C   0  0  0  0  0  0  0  0  0  0  0  0
  152.0415  141.5451  158.2429 N   0  3  1  0  0  0  0  0  0  0  0  0
  151.0783  142.6376  157.9350 C   0  0  0  0  0  0  0  0  0  0  0  0
  151.4633  143.9520  158.6447 C   0  0  2  0  0  0  0  0  0  0  0  0
  152.6726  144.6610  158.0082 C   0  0  0  0  0  0  0  0  0  0  0  0
  151.6422  143.7352  160.0426 O   0  0  0  0  0  0  0  0  0  0  0  0
  152.5914  142.7256  160.3670 C   0  0  1  0  0  0  0  0  0  0  0  0
  152.6633  142.6217  161.8946 C   0  0  0  0  0  0  0  0  0  0  0  0
  152.1611  141.3994  159.7176 C   0  0  0  0  0  0  0  0  0  0  0  0
  150.8562  133.8962  157.0916 N   0  0  0  0  0  0  0  0  0  0  0  0
  149.6809  133.3971  156.5176 O   0  0  0  0  0  0  0  0  0  0  0  0
  148.1289  134.0674  153.7694 H   0  0  0  0  0  0  0  0  0  0  0  0
  147.1715  134.5494  155.1713 H   0  0  0  0  0  0  0  0  0  0  0  0
  147.7268  132.8823  155.0125 H   0  0  0  0  0  0  0  0  0  0  0  0
  150.0256  136.2043  154.8498 H   0  0  0  0  0  0  0  0  0  0  0  0
  153.2529  137.8786  156.4757 H   0  0  0  0  0  0  0  0  0  0  0  0
  152.5919  138.9255  159.1414 H   0  0  0  0  0  0  0  0  0  0  0  0
  153.7938  139.5395  158.0438 H   0  0  0  0  0  0  0  0  0  0  0  0
  150.7694  139.9348  157.7931 H   0  0  0  0  0  0  0  0  0  0  0  0
  151.7177  139.3438  155.5488 H   0  0  0  0  0  0  0  0  0  0  0  0
  152.8578  140.6729  155.6872 H   0  0  0  0  0  0  0  0  0  0  0  0
  151.1173  140.9719  155.5923 H   0  0  0  0  0  0  0  0  0  0  0  0
  151.0340  142.8394  156.8652 H   0  0  0  0  0  0  0  0  0  0  0  0
  150.0794  142.3284  158.2467 H   0  0  0  0  0  0  0  0  0  0  0  0
  150.6183  144.6354  158.5547 H   0  0  0  0  0  0  0  0  0  0  0  0
  152.4525  144.9542  156.9813 H   0  0  0  0  0  0  0  0  0  0  0  0
  153.5574  144.0258  157.9795 H   0  0  0  0  0  0  0  0  0  0  0  0
  152.9272  145.5661  158.5600 H   0  0  0  0  0  0  0  0  0  0  0  0
  153.5783  143.0106  160.0021 H   0  0  0  0  0  0  0  0  0  0  0  0
  153.3820  141.8622  162.2034 H   0  0  0  0  0  0  0  0  0  0  0  0
  151.6941  142.3578  162.3191 H   0  0  0  0  0  0  0  0  0  0  0  0
  152.9726  143.5695  162.3358 H   0  0  0  0  0  0  0  0  0  0  0  0
  151.2035  141.0740  160.1281 H   0  0  0  0  0  0  0  0  0  0  0  0
  152.8874  140.6317  159.9784 H   0  0  0  0  0  0  0  0  0  0  0  0
  152.9374  141.8666  157.9052 H   0  0  0  0  0  0  0  0  0  0  0  0
  1  2  1  0  0  0  0
  1 22  1  0  0  0  0
  1 23  1  0  0  0  0
  1 24  1  0  0  0  0
  2 21  1  0  0  0  0
  2  3  2  0  0  0  0
  3  4  1  0  0  0  0
  3 25  1  0  0  0  0
  4  5  1  0  0  0  0
  4 20  2  0  0  0  0
  5  6  1  0  0  0  0
  6  7  2  0  0  0  0
  6  8  1  0  0  0  0
  8  9  1  0  0  0  0
  8 26  1  0  0  0  0
  9 10  1  0  0  0  0
  9 27  1  0  0  0  0
  9 28  1  0  0  0  0
 10 11  1  0  0  0  0
 10 12  1  0  0  0  0
 10 29  1  0  0  0  0
 11 30  1  0  0  0  0
 11 31  1  0  0  0  0
 11 32  1  0  0  0  0
 12 19  1  0  0  0  0
 12 13  1  0  0  0  0
 12 45  1  0  0  0  0
 13 14  1  0  0  0  0
 13 33  1  0  0  0  0
 13 34  1  0  0  0  0
 14 15  1  0  0  0  0
 14 16  1  0  0  0  0
 14 35  1  0  0  0  0
 15 36  1  0  0  0  0
 15 37  1  0  0  0  0
 15 38  1  0  0  0  0
 16 17  1  0  0  0  0
 17 18  1  0  0  0  0
 17 19  1  0  0  0  0
 17 39  1  0  0  0  0
 18 40  1  0  0  0  0
 18 41  1  0  0  0  0
 18 42  1  0  0  0  0
 19 43  1  0  0  0  0
 19 44  1  0  0  0  0
 20 21  1  0  0  0  0
M  CHG  1   5  -1
M  CHG  1  12   1
M  END
> <s_m_source_file>
AV-unprocessed.smi

> <i_m_source_file_index>
2061

> <i_lp_mmshare_version>
43012

> <i_f3d_flags>
0

> <s_epik_input>
W0NIM11jMVtjSF1jKG5vMSlbTkhdQyg9TylbTkhdW0NIMl1bQ0BIXShbQ0gzXSlOMltDSDJdW0NAQEhdKFtDSDNdKU9bQ0BASF0oW0NIM10pW0NIMl0y

> <s_epik_cmdline>
J2VwaWtfcHl0aG9uJywgJy1waCcsICc3LjAnLCAnLXRuJywgJzgnLCAnLW1hJywgJzIwMCcsICctbWV0YWxfYmluZGluZycsICctaW1hZScsICc8aW5maWxlLm1hZT4nLCAnLW9tYWUnLCAnPG91dGZpbGUubWFlPic=

> <r_epik_Ionization_Penalty>
6.73511

> <r_epik_Ionization_Penalty_Charging>
6.73502

> <r_epik_Ionization_Penalty_Neutral>
9.50841e-05

> <r_epik_State_Penalty>
6.93549

> <r_epik_Charging_Adjusted_Penalty>
13.6705

> <i_epik_Tot_Q>
0

> <i_epik_Tot_abs_Q>
2

> <r_epik_Metal_State_Penalty>
2.87211

> <b_epik_Metal_Only>
1

> <s_lp_Force_Field>
OPLS_2005

> <r_lp_Energy>
12.0901

> <b_lp_Chiralities_Consistent>
1

> <s_lp_Variant>
AV-unprocessed.smi:2061-23

> <Gold.Version>
5.8.1

> <Gold.Id.Protein>
6NUR|6NUR_protein|mol2

> <Gold.PLP.Fitness>
44.3892

> <Gold.PLP.PLP>
-36.9190

> <Gold.PLP.part.hbond>
-3.0000

> <Gold.PLP.part.metal>
0.0000

> <Gold.PLP.part.buried>
-5.6804

> <Gold.PLP.part.nonpolar>
-29.1740

> <Gold.PLP.part.repulsive>
0.2534

> <Gold.PLP.ligand.clash>
0.0000

> <Gold.PLP.ligand.torsion>
1.3485

> <Gold.PLP.Chemscore.Hbond>
3.3546

> <Gold.PLP.Chemscore.CHOScore>
0.0000

> <Gold.PLP.Chemscore.Metal>
0.0000

> <Gold.Chemscore.Hbonds>
donor molecule, donor type, donor heavy atom, donor atom, acceptor molecule, acceptor atom, score
      P1  H  6896  6908       L1    20  0.45
      P1  H  6896  6909       L1     7  0.86
      P1  H 10752 10764       L1     5  2.00

> <Gold.PLP.Chemscore.Internal.Correction>
0.1033

> <Gold.Rescore>
     Score         DG    S(hbond)    S(metal)    S(lipo)     H(rot)  DE(clash)    DE(int)     intcor
     18.58     -19.94       2.27        0.00      92.92       1.56       0.02       1.34       ----

> <Gold.Chemscore.Fitness>
18.5834

> <Gold.Chemscore.DG>
-19.9439

> <Gold.Chemscore.ZeroCoef>
-5.4800

> <Gold.Chemscore.Hbond>
2.2675

> <Gold.Chemscore.Metal>
0.0000

> <Gold.Chemscore.Lipo>
92.9187

> <Gold.Chemscore.Internal_Hbond>
0.0000

> <Gold.Chemscore.DEClash>
0.0174

> <Gold.Chemscore.DEInternal>
1.3431

> <Gold.Chemscore.Rot>
1.5550

> <Gold.Chemscore.Internal.Correction>
   9.000000E+99

> <Gold.Chemscore.Hbonds>
donor molecule, donor type, donor heavy atom, donor atom, acceptor molecule, acceptor atom, score
      P1  H  6896  6908       L1    20  0.41
      P1  H  6896  6909       L1     7  0.78
      P1  H 10752 10764       L1     5  0.29

> <Gold.Chemscore.Hbond.Weighted>
-7.5733

> <Gold.Chemscore.Metal.Weighted>
-0.0000

> <Gold.Chemscore.Lipo.Weighted>
-10.8715

> <Gold.Chemscore.Internal_Hbond.Weighted>
0.0000

> <Gold.Chemscore.DEClash.Weighted>
0.0174

> <Gold.Chemscore.DEInternal.Weighted>
1.3431

> <Gold.Chemscore.Rot.Weighted>
3.9809

> <Gold.Chemscore.Internal.Correction.Weighted>
   9.000000E+99

> <Gold.Protein.RotatedTorsions>
[ 6907 6896 6895 6894 ] final  102.40 input  -60.11 | X-H torsion
[ 7974 7965 7964 7962 ] final  -42.11 input  175.53 | X-H torsion
[ 8008 7997 7996 7995 ] final -137.44 input   59.86 | X-H torsion
[ 10167 10162 10161 10158 ] final  -15.19 input  -65.29 | X-H torsion
[ 10718 10713 10712 10709 ] final  -74.42 input   66.30 | X-H torsion
[ 10763 10752 10751 10750 ] final  -12.99 input  -60.55 | X-H torsion
[ 11005 11000 10999 10996 ] final  -33.21 input  -57.11 | X-H torsion

> <Gold.Protein.ActiveResidues>
 VAL166  LYS551  ARG553  GLY616  TRP617  ASP618  TYR619  PRO620  LYS621  CYS622 
 ASP623  PHE694  ASN695  SER759  ASP760  ASP761  ALA762  ILE779  LEU786  VAL792 
 PHE793  MET794  SER795  GLU796  ALA797  LYS798  CYS799  TRP800  GLU811  SER814 

> <Gold.Protein.RotatedAtoms>
  152.5324  133.9981  159.7881 H   0  0  0  0  0  0  0  0  0  0  0  0  # atno 6907 bound_to 6896
  151.0205  133.5873  159.2679 H   0  0  0  0  0  0  0  0  0  0  0  0  # atno 6908 bound_to 6896
  151.2915  135.0750  159.9259 H   0  0  0  0  0  0  0  0  0  0  0  0  # atno 6909 bound_to 6896
  146.0147  140.6922  142.9207 H   0  0  0  0  0  0  0  0  0  0  0  0  # atno 7974 bound_to 7965
  155.4119  140.0512  157.3031 H   0  0  0  0  0  0  0  0  0  0  0  0  # atno 8008 bound_to 7997
  154.4942  140.2132  155.9442 H   0  0  0  0  0  0  0  0  0  0  0  0  # atno 8009 bound_to 7997
  156.1383  140.3159  155.8461 H   0  0  0  0  0  0  0  0  0  0  0  0  # atno 8010 bound_to 7997
  140.7214  143.5243  150.9595 H   0  0  0  0  0  0  0  0  0  0  0  0  # atno 10167 bound_to 10162
  156.0243  130.4416  150.2890 H   0  0  0  0  0  0  0  0  0  0  0  0  # atno 10718 bound_to 10713
  153.5067  135.7017  153.5802 H   0  0  0  0  0  0  0  0  0  0  0  0  # atno 10763 bound_to 10752
  153.3910  135.3896  155.1923 H   0  0  0  0  0  0  0  0  0  0  0  0  # atno 10764 bound_to 10752
  154.8706  135.3858  154.4543 H   0  0  0  0  0  0  0  0  0  0  0  0  # atno 10765 bound_to 10752
  140.9616  133.7161  156.1378 H   0  0  0  0  0  0  0  0  0  0  0  0  # atno 11005 bound_to 11000
  144.6966  140.3461  143.7190 LP  0  0  0  0  0  0  0  0  0  0  0  0  # atno 17320 bound_to 7965
  145.7287  139.1730  143.2443 LP  0  0  0  0  0  0  0  0  0  0  0  0  # atno 17321 bound_to 7965
  139.8962  143.6892  152.3138 LP  0  0  0  0  0  0  0  0  0  0  0  0  # atno 17342 bound_to 10162
  139.7225  144.7599  151.0931 LP  0  0  0  0  0  0  0  0  0  0  0  0  # atno 17343 bound_to 10162
  157.0994  131.0191  151.3091 LP  0  0  0  0  0  0  0  0  0  0  0  0  # atno 17370 bound_to 10713
  157.4792  130.7755  149.7397 LP  0  0  0  0  0  0  0  0  0  0  0  0  # atno 17371 bound_to 10713
  140.7459  134.4098  157.5548 LP  0  0  0  0  0  0  0  0  0  0  0  0  # atno 17394 bound_to 11000
  139.8880  134.8868  156.2498 LP  0  0  0  0  0  0  0  0  0  0  0  0  # atno 17395 bound_to 11000

$$$$
