AV-unprocessed.smi:2699|AV-procd|sdf|10425|dock2
  -GOLD-   2272014463D 1   1.00000     0.00000
 Structure written by MMmdl.
 43 45  0  0  0  0  0  0  0  0  1 V2000
  149.6495  138.0531  158.7368 C   0  0  0  0  0  0  0  0  0  0  0  0
  150.2056  137.9379  157.3231 C   0  0  0  0  0  0  0  0  0  0  0  0
  151.2391  138.7286  156.9514 C   0  0  0  0  0  0  0  0  0  0  0  0
  151.8272  138.6215  155.6049 C   0  0  0  0  0  0  0  0  0  0  0  0
  152.7415  139.3535  155.2314 O   0  0  0  0  0  0  0  0  0  0  0  0
  151.2565  137.5815  154.7380 C   0  0  0  0  0  0  0  0  0  0  0  0
  150.2260  136.8432  155.1927 C   0  0  0  0  0  0  0  0  0  0  0  0
  149.6912  135.8636  154.4481 O   0  0  0  0  0  0  0  0  0  0  0  0
  149.6197  136.9876  156.4568 N   0  0  0  0  0  0  0  0  0  0  0  0
  148.4299  136.2060  156.8418 C   0  0  0  0  0  0  0  0  0  0  0  0
  148.6636  135.3005  158.0666 C   0  0  0  0  0  0  0  0  0  0  0  0
  149.4881  134.3888  158.0207 O   0  0  0  0  0  0  0  0  0  0  0  0
  147.9505  135.5245  159.1809 N   0  0  0  0  0  0  0  0  0  0  0  0
  148.0324  134.7769  160.4323 C   0  0  0  0  0  0  0  0  0  0  0  0
  146.8740  135.1226  161.3873 C   0  0  0  0  0  0  0  0  0  0  0  0
  145.7203  134.1647  161.0716 C   0  0  0  0  0  0  0  0  0  0  0  0
  144.6281  133.8892  162.0742 C   0  0  0  0  0  0  0  0  0  0  0  0
  145.5715  132.7780  161.6531 C   0  0  0  0  0  0  0  0  0  0  0  0
  147.2459  135.2435  162.8817 C   0  0  0  0  0  0  0  0  0  0  0  0
  147.4759  136.7408  162.6867 C   0  0  0  0  0  0  0  0  0  0  0  0
  146.5642  136.6384  161.4650 C   0  0  0  0  0  0  0  0  0  0  0  0
  150.3574  138.5628  159.3913 H   0  0  0  0  0  0  0  0  0  0  0  0
  149.4577  137.0774  159.1824 H   0  0  0  0  0  0  0  0  0  0  0  0
  148.7246  138.6301  158.7356 H   0  0  0  0  0  0  0  0  0  0  0  0
  151.6676  139.4460  157.6362 H   0  0  0  0  0  0  0  0  0  0  0  0
  151.6830  137.4214  153.7582 H   0  0  0  0  0  0  0  0  0  0  0  0
  147.5819  136.8617  157.0353 H   0  0  0  0  0  0  0  0  0  0  0  0
  148.0970  135.5926  156.0043 H   0  0  0  0  0  0  0  0  0  0  0  0
  147.2836  136.2823  159.1575 H   0  0  0  0  0  0  0  0  0  0  0  0
  148.0338  133.7129  160.1919 H   0  0  0  0  0  0  0  0  0  0  0  0
  148.9854  134.9801  160.9228 H   0  0  0  0  0  0  0  0  0  0  0  0
  145.3966  134.2256  160.0344 H   0  0  0  0  0  0  0  0  0  0  0  0
  144.7451  134.2922  163.0782 H   0  0  0  0  0  0  0  0  0  0  0  0
  143.6062  133.8533  161.7028 H   0  0  0  0  0  0  0  0  0  0  0  0
  145.1693  132.0058  161.0008 H   0  0  0  0  0  0  0  0  0  0  0  0
  146.2962  132.4259  162.3821 H   0  0  0  0  0  0  0  0  0  0  0  0
  146.4054  135.0373  163.5468 H   0  0  0  0  0  0  0  0  0  0  0  0
  148.1327  134.6874  163.1869 H   0  0  0  0  0  0  0  0  0  0  0  0
  147.0935  137.3698  163.4911 H   0  0  0  0  0  0  0  0  0  0  0  0
  148.5081  136.9859  162.4327 H   0  0  0  0  0  0  0  0  0  0  0  0
  146.9022  137.2175  160.6050 H   0  0  0  0  0  0  0  0  0  0  0  0
  145.5331  136.8852  161.7137 H   0  0  0  0  0  0  0  0  0  0  0  0
  149.5241  136.2193  153.5889 H   0  0  0  0  0  0  0  0  0  0  0  0
  1  2  1  0  0  0  0
  1 22  1  0  0  0  0
  1 23  1  0  0  0  0
  1 24  1  0  0  0  0
  2  9  1  0  0  0  0
  2  3  2  0  0  0  0
  3  4  1  0  0  0  0
  3 25  1  0  0  0  0
  4  5  2  0  0  0  0
  4  6  1  0  0  0  0
  6  7  2  0  0  0  0
  6 26  1  0  0  0  0
  7  8  1  0  0  0  0
  7  9  1  0  0  0  0
  8 43  1  0  0  0  0
  9 10  1  0  0  0  0
 10 11  1  0  0  0  0
 10 27  1  0  0  0  0
 10 28  1  0  0  0  0
 11 12  2  0  0  0  0
 11 13  1  0  0  0  0
 13 14  1  0  0  0  0
 13 29  1  0  0  0  0
 14 15  1  0  0  0  0
 14 30  1  0  0  0  0
 14 31  1  0  0  0  0
 15 21  1  0  0  0  0
 15 16  1  0  0  0  0
 15 19  1  0  0  0  0
 16 18  1  0  0  0  0
 16 17  1  0  0  0  0
 16 32  1  0  0  0  0
 17 18  1  0  0  0  0
 17 33  1  0  0  0  0
 17 34  1  0  0  0  0
 18 35  1  0  0  0  0
 18 36  1  0  0  0  0
 19 20  1  0  0  0  0
 19 37  1  0  0  0  0
 19 38  1  0  0  0  0
 20 21  1  0  0  0  0
 20 39  1  0  0  0  0
 20 40  1  0  0  0  0
 21 41  1  0  0  0  0
 21 42  1  0  0  0  0
M  END
> <s_m_source_file>
AV-unprocessed.smi

> <i_m_source_file_index>
2699

> <i_lp_mmshare_version>
43012

> <i_f3d_flags>
0

> <s_epik_input>
W0NIM11jMVtjSF1jKFtPSF0pW2NIXWMoPU8pbjFbQ0gyXUMoPU8pW05IXVtDSDJdQzIoW0NIXTNbQ0gyXVtDSDJdMylbQ0gyXVtDSDJdW0NIMl0y

> <s_epik_cmdline>
J2VwaWtfcHl0aG9uJywgJy1waCcsICc3LjAnLCAnLXRuJywgJzgnLCAnLW1hJywgJzIwMCcsICctbWV0YWxfYmluZGluZycsICctaW1hZScsICc8aW5maWxlLm1hZT4nLCAnLW9tYWUnLCAnPG91dGZpbGUubWFlPic=

> <r_epik_Ionization_Penalty>
1.8336e-08

> <r_epik_Ionization_Penalty_Charging>
0

> <r_epik_Ionization_Penalty_Neutral>
1.8336e-08

> <r_epik_State_Penalty>
2.39433

> <r_epik_Charging_Adjusted_Penalty>
2.39433

> <i_epik_Tot_Q>
0

> <i_epik_Tot_abs_Q>
0

> <r_epik_Metal_State_Penalty>
2.39433

> <b_epik_Metal_Only>
0

> <s_lp_Force_Field>
OPLS_2005

> <r_lp_Energy>
30.2795

> <b_lp_Chiralities_Consistent>
1

> <s_lp_Variant>
AV-unprocessed.smi:2699-3

> <Gold.Version>
5.8.1

> <Gold.Id.Protein>
6NUR|6NUR_protein|mol2

> <Gold.PLP.Fitness>
40.7454

> <Gold.PLP.PLP>
-32.8156

> <Gold.PLP.part.hbond>
-3.0000

> <Gold.PLP.part.metal>
0.0000

> <Gold.PLP.part.buried>
-5.1267

> <Gold.PLP.part.nonpolar>
-24.9092

> <Gold.PLP.part.repulsive>
0.0770

> <Gold.PLP.ligand.clash>
0.0118

> <Gold.PLP.ligand.torsion>
1.3756

> <Gold.PLP.Chemscore.Hbond>
3.0000

> <Gold.PLP.Chemscore.CHOScore>
0.0000

> <Gold.PLP.Chemscore.Metal>
0.0000

> <Gold.Chemscore.Hbonds>
donor molecule, donor type, donor heavy atom, donor atom, acceptor molecule, acceptor atom, score
      L1  H     8    43       P1  7948  1.00
      P1  H  6896  6908       L1    12  0.96
      P1  H  7997  8008       L1     5  0.91

> <Gold.PLP.Chemscore.Internal.Correction>
1.6929

> <Gold.Rescore>
     Score         DG    S(hbond)    S(metal)    S(lipo)     H(rot)  DE(clash)    DE(int)     intcor
     13.68     -14.89       1.92        0.00      78.33       2.40       0.01       1.20       ----

> <Gold.Chemscore.Fitness>
13.6803

> <Gold.Chemscore.DG>
-14.8893

> <Gold.Chemscore.ZeroCoef>
-5.4800

> <Gold.Chemscore.Hbond>
1.9163

> <Gold.Chemscore.Metal>
0.0000

> <Gold.Chemscore.Lipo>
78.3345

> <Gold.Chemscore.Internal_Hbond>
0.0000

> <Gold.Chemscore.DEClash>
0.0106

> <Gold.Chemscore.DEInternal>
1.1984

> <Gold.Chemscore.Rot>
2.4048

> <Gold.Chemscore.Internal.Correction>
   9.000000E+99

> <Gold.Chemscore.Hbonds>
donor molecule, donor type, donor heavy atom, donor atom, acceptor molecule, acceptor atom, score
      L1  H     8    43       P1  7948  0.55
      P1  H  6896  6908       L1    12  0.92
      P1  H  7997  8008       L1     5  0.85

> <Gold.Chemscore.Hbond.Weighted>
-6.4006

> <Gold.Chemscore.Metal.Weighted>
-0.0000

> <Gold.Chemscore.Lipo.Weighted>
-9.1651

> <Gold.Chemscore.Internal_Hbond.Weighted>
0.0000

> <Gold.Chemscore.DEClash.Weighted>
0.0106

> <Gold.Chemscore.DEInternal.Weighted>
1.1984

> <Gold.Chemscore.Rot.Weighted>
6.1563

> <Gold.Chemscore.Internal.Correction.Weighted>
   9.000000E+99

> <Gold.Protein.RotatedTorsions>
[ 6907 6896 6895 6894 ] final  121.86 input  -60.11 | X-H torsion
[ 7974 7965 7964 7962 ] final  104.77 input  175.53 | X-H torsion
[ 8008 7997 7996 7995 ] final  -41.36 input   59.86 | X-H torsion
[ 10167 10162 10161 10158 ] final   85.01 input  -65.29 | X-H torsion
[ 10718 10713 10712 10709 ] final   46.40 input   66.30 | X-H torsion
[ 10763 10752 10751 10750 ] final -151.54 input  -60.55 | X-H torsion
[ 11005 11000 10999 10996 ] final  -18.42 input  -57.11 | X-H torsion

> <Gold.Protein.ActiveResidues>
 VAL166  LYS551  ARG553  GLY616  TRP617  ASP618  TYR619  PRO620  LYS621  CYS622 
 ASP623  PHE694  ASN695  SER759  ASP760  ASP761  ALA762  ILE779  LEU786  VAL792 
 PHE793  MET794  SER795  GLU796  ALA797  LYS798  CYS799  TRP800  GLU811  SER814 

> <Gold.Protein.RotatedAtoms>
  152.4289  133.7243  159.6550 H   0  0  0  0  0  0  0  0  0  0  0  0  # atno 6907 bound_to 6896
  150.8167  133.8314  159.3163 H   0  0  0  0  0  0  0  0  0  0  0  0  # atno 6908 bound_to 6896
  151.6009  135.1049  160.0111 H   0  0  0  0  0  0  0  0  0  0  0  0  # atno 6909 bound_to 6896
  145.3285  139.2493  143.3674 H   0  0  0  0  0  0  0  0  0  0  0  0  # atno 7974 bound_to 7965
  154.4005  140.1501  156.3178 H   0  0  0  0  0  0  0  0  0  0  0  0  # atno 8008 bound_to 7997
  155.8557  140.3456  155.5701 H   0  0  0  0  0  0  0  0  0  0  0  0  # atno 8009 bound_to 7997
  155.7936  140.0860  157.1986 H   0  0  0  0  0  0  0  0  0  0  0  0  # atno 8010 bound_to 7997
  139.9021  144.6323  150.8626 H   0  0  0  0  0  0  0  0  0  0  0  0  # atno 10167 bound_to 10162
  157.4477  130.8119  149.7756 H   0  0  0  0  0  0  0  0  0  0  0  0  # atno 10718 bound_to 10713
  154.8051  135.3257  154.7451 H   0  0  0  0  0  0  0  0  0  0  0  0  # atno 10763 bound_to 10752
  153.8111  135.6895  153.4845 H   0  0  0  0  0  0  0  0  0  0  0  0  # atno 10764 bound_to 10752
  153.1792  135.4593  154.9950 H   0  0  0  0  0  0  0  0  0  0  0  0  # atno 10765 bound_to 10752
  140.8266  133.8028  155.9714 H   0  0  0  0  0  0  0  0  0  0  0  0  # atno 11005 bound_to 11000
  146.3055  140.3857  142.8689 LP  0  0  0  0  0  0  0  0  0  0  0  0  # atno 17320 bound_to 7965
  144.8883  140.7491  143.5943 LP  0  0  0  0  0  0  0  0  0  0  0  0  # atno 17321 bound_to 7965
  140.7704  143.3429  151.2171 LP  0  0  0  0  0  0  0  0  0  0  0  0  # atno 17342 bound_to 10162
  139.7016  143.9524  152.2908 LP  0  0  0  0  0  0  0  0  0  0  0  0  # atno 17343 bound_to 10162
  155.9974  130.3900  150.2742 LP  0  0  0  0  0  0  0  0  0  0  0  0  # atno 17370 bound_to 10713
  157.0911  131.0170  151.3121 LP  0  0  0  0  0  0  0  0  0  0  0  0  # atno 17371 bound_to 10713
  140.9043  134.2340  157.5023 LP  0  0  0  0  0  0  0  0  0  0  0  0  # atno 17394 bound_to 11000
  139.8706  134.9721  156.4760 LP  0  0  0  0  0  0  0  0  0  0  0  0  # atno 17395 bound_to 11000

$$$$
