AV-unprocessed.smi:1435|AV-procd|sdf|5857|dock3
  -GOLD-   22720 5533D 1   1.00000     0.00000
 Structure written by MMmdl.
 43 44  0  0  0  0  0  0  0  0  1 V2000
  148.7482  134.7297  156.5837 O   0  0  0  0  0  0  0  0  0  0  0  0
  148.7388  135.3655  155.5296 C   0  0  0  0  0  0  0  0  0  0  0  0
  149.3521  136.7657  155.4737 C   0  0  0  0  0  0  0  0  0  0  0  0
  150.6334  136.8819  156.3185 C   0  0  0  0  0  0  0  0  0  0  0  0
  151.1860  138.6382  156.4868 S   0  0  0  0  0  0  0  0  0  0  0  0
  152.5251  138.6439  157.0950 O   0  0  0  0  0  0  0  0  0  0  0  0
  150.9829  139.3106  155.1942 O   0  0  0  0  0  0  0  0  0  0  0  0
  149.9727  139.3126  157.7170 C   0  0  0  0  0  0  0  0  0  0  0  0
  149.2171  140.5286  157.1655 C   0  0  0  0  0  0  0  0  0  0  0  0
  150.0653  141.7594  157.5201 C   0  0  0  0  0  0  0  0  0  0  0  0
  151.0928  141.2982  158.5645 C   0  0  0  0  0  0  0  0  0  0  0  0
  150.6909  139.8721  158.9480 C   0  0  0  0  0  0  0  0  0  0  0  0
  148.1922  134.9058  154.3939 N   0  0  0  0  0  0  0  0  0  0  0  0
  147.4845  133.6386  154.2635 C   0  0  0  0  0  0  0  0  0  0  0  0
  147.7995  132.9609  152.9200 C   0  0  0  0  0  0  0  0  0  0  0  0
  146.7036  133.1840  151.8973 C   0  0  0  0  0  0  0  0  0  0  0  0
  146.0298  132.0948  151.3080 C   0  0  0  0  0  0  0  0  0  0  0  0
  145.0151  132.3545  150.3664 C   0  0  0  0  0  0  0  0  0  0  0  0
  144.7178  133.6962  150.0540 C   0  0  0  0  0  0  0  0  0  0  0  0
  145.3568  134.7469  150.6124 N   0  0  0  0  0  0  0  0  0  0  0  0
  146.3284  134.4892  151.5143 C   0  0  0  0  0  0  0  0  0  0  0  0
  149.5882  136.9793  154.4310 H   0  0  0  0  0  0  0  0  0  0  0  0
  148.6251  137.5179  155.7834 H   0  0  0  0  0  0  0  0  0  0  0  0
  150.4933  136.4582  157.3129 H   0  0  0  0  0  0  0  0  0  0  0  0
  151.4409  136.3262  155.8426 H   0  0  0  0  0  0  0  0  0  0  0  0
  149.2967  138.5016  157.9888 H   0  0  0  0  0  0  0  0  0  0  0  0
  149.0170  140.4615  156.0965 H   0  0  0  0  0  0  0  0  0  0  0  0
  148.2515  140.6047  157.6667 H   0  0  0  0  0  0  0  0  0  0  0  0
  150.5748  142.1477  156.6375 H   0  0  0  0  0  0  0  0  0  0  0  0
  149.4357  142.5604  157.9091 H   0  0  0  0  0  0  0  0  0  0  0  0
  152.0896  141.2944  158.1220 H   0  0  0  0  0  0  0  0  0  0  0  0
  151.1253  141.9586  159.4316 H   0  0  0  0  0  0  0  0  0  0  0  0
  149.9929  139.9080  159.7853 H   0  0  0  0  0  0  0  0  0  0  0  0
  151.5420  139.2666  159.2604 H   0  0  0  0  0  0  0  0  0  0  0  0
  148.2295  135.4954  153.5751 H   0  0  0  0  0  0  0  0  0  0  0  0
  147.7899  132.9927  155.0870 H   0  0  0  0  0  0  0  0  0  0  0  0
  146.4099  133.7953  154.3725 H   0  0  0  0  0  0  0  0  0  0  0  0
  148.7394  133.3389  152.5155 H   0  0  0  0  0  0  0  0  0  0  0  0
  147.9383  131.8886  153.0648 H   0  0  0  0  0  0  0  0  0  0  0  0
  146.2831  131.0788  151.5732 H   0  0  0  0  0  0  0  0  0  0  0  0
  144.4772  131.5453  149.8955 H   0  0  0  0  0  0  0  0  0  0  0  0
  143.9453  133.9316  149.3369 H   0  0  0  0  0  0  0  0  0  0  0  0
  146.8182  135.3503  151.9445 H   0  0  0  0  0  0  0  0  0  0  0  0
  1  2  2  0  0  0  0
  2  3  1  0  0  0  0
  2 13  1  0  0  0  0
  3  4  1  0  0  0  0
  3 22  1  0  0  0  0
  3 23  1  0  0  0  0
  4  5  1  0  0  0  0
  4 24  1  0  0  0  0
  4 25  1  0  0  0  0
  5  6  2  0  0  0  0
  5  7  2  0  0  0  0
  5  8  1  0  0  0  0
  8 12  1  0  0  0  0
  8  9  1  0  0  0  0
  8 26  1  0  0  0  0
  9 10  1  0  0  0  0
  9 27  1  0  0  0  0
  9 28  1  0  0  0  0
 10 11  1  0  0  0  0
 10 29  1  0  0  0  0
 10 30  1  0  0  0  0
 11 12  1  0  0  0  0
 11 31  1  0  0  0  0
 11 32  1  0  0  0  0
 12 33  1  0  0  0  0
 12 34  1  0  0  0  0
 13 14  1  0  0  0  0
 13 35  1  0  0  0  0
 14 15  1  0  0  0  0
 14 36  1  0  0  0  0
 14 37  1  0  0  0  0
 15 16  1  0  0  0  0
 15 38  1  0  0  0  0
 15 39  1  0  0  0  0
 16 21  1  0  0  0  0
 16 17  2  0  0  0  0
 17 18  1  0  0  0  0
 17 40  1  0  0  0  0
 18 19  2  0  0  0  0
 18 41  1  0  0  0  0
 19 20  1  0  0  0  0
 19 42  1  0  0  0  0
 20 21  2  0  0  0  0
 21 43  1  0  0  0  0
M  END
> <s_m_source_file>
AV-unprocessed.smi

> <i_m_source_file_index>
1435

> <i_lp_mmshare_version>
43012

> <i_f3d_flags>
0

> <s_epik_input>
W0NIMl0xW0NIMl1bQ0gyXVtDSDJdW0NIXTFTKD1PKSg9TylbQ0gyXVtDSDJdQyg9TylbTkhdW0NIMl1bQ0gyXWMyW2NIXVtjSF1bY0hdbltjSF0y

> <s_epik_cmdline>
J2VwaWtfcHl0aG9uJywgJy1waCcsICc3LjAnLCAnLXRuJywgJzgnLCAnLW1hJywgJzIwMCcsICctbWV0YWxfYmluZGluZycsICctaW1hZScsICc8aW5maWxlLm1hZT4nLCAnLW9tYWUnLCAnPG91dGZpbGUubWFlPic=

> <r_epik_Ionization_Penalty>
0.0127849

> <r_epik_Ionization_Penalty_Charging>
0

> <r_epik_Ionization_Penalty_Neutral>
0.0127849

> <r_epik_State_Penalty>
0.00991539

> <r_epik_Charging_Adjusted_Penalty>
0.00991539

> <i_epik_Tot_Q>
0

> <i_epik_Tot_abs_Q>
0

> <r_epik_Metal_State_Penalty>
0.0097046

> <b_epik_Metal_Only>
0

> <s_lp_Force_Field>
OPLS_2005

> <r_lp_Energy>
9.74061

> <b_lp_Chiralities_Consistent>
1

> <s_lp_Variant>
AV-unprocessed.smi:1435-1

> <Gold.Version>
5.8.1

> <Gold.Id.Protein>
6NUR|6NUR_protein|mol2

> <Gold.PLP.Fitness>
47.6352

> <Gold.PLP.PLP>
-34.8537

> <Gold.PLP.part.hbond>
-3.0000

> <Gold.PLP.part.metal>
0.0000

> <Gold.PLP.part.buried>
-6.2351

> <Gold.PLP.part.nonpolar>
-26.0635

> <Gold.PLP.part.repulsive>
0.3177

> <Gold.PLP.ligand.clash>
0.0000

> <Gold.PLP.ligand.torsion>
1.1496

> <Gold.PLP.Chemscore.Hbond>
2.9120

> <Gold.PLP.Chemscore.CHOScore>
1.9956

> <Gold.PLP.Chemscore.Metal>
0.0000

> <Gold.Chemscore.Hbonds>
donor molecule, donor type, donor heavy atom, donor atom, acceptor molecule, acceptor atom, score
      L1  H    13    35       P1  7948  1.00
      P1  H  7989  7998       L1     7  0.10
      L1  C    19    42       P1  7921  0.01
      L1  C    21    43       P1  7948  1.00

> <Gold.PLP.Chemscore.Internal.Correction>
0.3578

> <Gold.Rescore>
     Score         DG    S(hbond)    S(metal)    S(lipo)     H(rot)  DE(clash)    DE(int)     intcor
     18.32     -19.48       2.90        0.00      80.64       2.00       0.14       1.02       ----

> <Gold.Chemscore.Fitness>
18.3206

> <Gold.Chemscore.DG>
-19.4816

> <Gold.Chemscore.ZeroCoef>
-5.4800

> <Gold.Chemscore.Hbond>
2.9014

> <Gold.Chemscore.Metal>
0.0000

> <Gold.Chemscore.Lipo>
80.6368

> <Gold.Chemscore.Internal_Hbond>
0.0000

> <Gold.Chemscore.DEClash>
0.1372

> <Gold.Chemscore.DEInternal>
1.0238

> <Gold.Chemscore.Rot>
2.0014

> <Gold.Chemscore.Internal.Correction>
   9.000000E+99

> <Gold.Chemscore.Hbonds>
donor molecule, donor type, donor heavy atom, donor atom, acceptor molecule, acceptor atom, score
      L1  H    13    35       P1  7948  0.96
      P1  H  7989  7998       L1     7  0.13
      P1  H  7997  8008       L1     6  0.01

> <Gold.Chemscore.Hbond.Weighted>
-9.6907

> <Gold.Chemscore.Metal.Weighted>
-0.0000

> <Gold.Chemscore.Lipo.Weighted>
-9.4345

> <Gold.Chemscore.Internal_Hbond.Weighted>
0.0000

> <Gold.Chemscore.DEClash.Weighted>
0.1372

> <Gold.Chemscore.DEInternal.Weighted>
1.0238

> <Gold.Chemscore.Rot.Weighted>
5.1236

> <Gold.Chemscore.Internal.Correction.Weighted>
   9.000000E+99

> <Gold.Protein.RotatedTorsions>
[ 6907 6896 6895 6894 ] final  -56.40 input  -60.11 | X-H torsion
[ 7974 7965 7964 7962 ] final -173.39 input  175.53 | X-H torsion
[ 8008 7997 7996 7995 ] final  -33.97 input   59.86 | X-H torsion
[ 10167 10162 10161 10158 ] final    9.18 input  -65.29 | X-H torsion
[ 10718 10713 10712 10709 ] final  132.12 input   66.30 | X-H torsion
[ 10763 10752 10751 10750 ] final   81.40 input  -60.55 | X-H torsion
[ 11005 11000 10999 10996 ] final -108.34 input  -57.11 | X-H torsion

> <Gold.Protein.ActiveResidues>
 VAL166  LYS551  ARG553  GLY616  TRP617  ASP618  TYR619  PRO620  LYS621  CYS622 
 ASP623  PHE694  ASN695  SER759  ASP760  ASP761  ALA762  ILE779  LEU786  VAL792 
 PHE793  MET794  SER795  GLU796  ALA797  LYS798  CYS799  TRP800  GLU811  SER814 

> <Gold.Protein.RotatedAtoms>
  150.8171  134.7358  159.6739 H   0  0  0  0  0  0  0  0  0  0  0  0  # atno 6907 bound_to 6896
  152.4289  134.5813  159.9958 H   0  0  0  0  0  0  0  0  0  0  0  0  # atno 6908 bound_to 6896
  151.6007  133.3319  159.3082 H   0  0  0  0  0  0  0  0  0  0  0  0  # atno 6909 bound_to 6896
  144.7138  140.1628  143.6374 H   0  0  0  0  0  0  0  0  0  0  0  0  # atno 7974 bound_to 7965
  154.4134  140.1696  156.1974 H   0  0  0  0  0  0  0  0  0  0  0  0  # atno 8008 bound_to 7997
  155.9553  140.3398  155.6419 H   0  0  0  0  0  0  0  0  0  0  0  0  # atno 8009 bound_to 7997
  155.6818  140.0723  157.2472 H   0  0  0  0  0  0  0  0  0  0  0  0  # atno 8010 bound_to 7997
  140.6270  143.8078  150.7246 H   0  0  0  0  0  0  0  0  0  0  0  0  # atno 10167 bound_to 10162
  157.4902  131.1090  150.9567 H   0  0  0  0  0  0  0  0  0  0  0  0  # atno 10718 bound_to 10713
  153.1114  135.4766  154.9041 H   0  0  0  0  0  0  0  0  0  0  0  0  # atno 10763 bound_to 10752
  154.7484  135.3100  154.8604 H   0  0  0  0  0  0  0  0  0  0  0  0  # atno 10764 bound_to 10752
  153.9192  135.6857  153.4802 H   0  0  0  0  0  0  0  0  0  0  0  0  # atno 10765 bound_to 10752
  141.0907  133.9060  157.2083 H   0  0  0  0  0  0  0  0  0  0  0  0  # atno 11005 bound_to 11000
  145.9014  139.2433  143.1491 LP  0  0  0  0  0  0  0  0  0  0  0  0  # atno 17320 bound_to 7965
  145.9806  140.8685  143.0116 LP  0  0  0  0  0  0  0  0  0  0  0  0  # atno 17321 bound_to 7965
  140.1681  143.4218  152.2020 LP  0  0  0  0  0  0  0  0  0  0  0  0  # atno 17342 bound_to 10162
  139.5489  144.7322  151.4496 LP  0  0  0  0  0  0  0  0  0  0  0  0  # atno 17343 bound_to 10162
  157.0271  130.5697  149.5338 LP  0  0  0  0  0  0  0  0  0  0  0  0  # atno 17370 bound_to 10713
  156.0169  130.5263  150.8161 LP  0  0  0  0  0  0  0  0  0  0  0  0  # atno 17371 bound_to 10713
  139.9732  135.0122  156.9565 LP  0  0  0  0  0  0  0  0  0  0  0  0  # atno 17394 bound_to 11000
  140.5259  134.0861  155.7303 LP  0  0  0  0  0  0  0  0  0  0  0  0  # atno 17395 bound_to 11000

$$$$
