AV-unprocessed.smi:1895|AV-procd|sdf|7680|dock5
  -GOLD-   22720 9423D 1   1.00000     0.00000
 Structure written by MMmdl.
 36 37  0  0  0  0  0  0  0  0  1 V2000
  154.0390  140.6834  160.7069 C   0  0  0  0  0  0  0  0  0  0  0  0
  153.2905  141.7276  159.9326 C   0  0  0  0  0  0  0  0  0  0  0  0
  153.2445  143.1311  160.1618 C   0  0  0  0  0  0  0  0  0  0  0  0
  152.4193  143.6067  159.1820 C   0  0  0  0  0  0  0  0  0  0  0  0
  151.9673  145.0015  158.8976 C   0  0  0  0  0  0  0  0  0  0  0  0
  152.0183  142.5157  158.4305 N   0  0  0  0  0  0  0  0  0  0  0  0
  151.1198  142.4679  157.2857 C   0  0  0  0  0  0  0  0  0  0  0  0
  149.8360  141.7117  157.6308 C   0  0  0  0  0  0  0  0  0  0  0  0
  149.8963  140.5805  158.1119 O   0  0  0  0  0  0  0  0  0  0  0  0
  148.6829  142.3384  157.3521 N   0  0  0  0  0  0  0  0  0  0  0  0
  147.3582  141.7388  157.4466 C   0  0  0  0  0  0  0  0  0  0  0  0
  146.5344  142.3740  158.5808 C   0  0  2  0  0  0  0  0  0  0  0  0
  147.3580  143.1262  159.6281 C   0  0  0  0  0  0  0  0  0  0  0  0
  146.5071  143.0383  160.8862 C   0  0  0  0  0  0  0  0  0  0  0  0
  145.4329  142.0015  160.5440 C   0  0  0  0  0  0  0  0  0  0  0  0
  145.8895  141.3757  159.3535 O   0  0  0  0  0  0  0  0  0  0  0  0
  152.5552  141.3657  158.8944 N   0  0  0  0  0  0  0  0  0  0  0  0
  154.6832  141.1377  161.4597 H   0  0  0  0  0  0  0  0  0  0  0  0
  154.6691  140.0823  160.0510 H   0  0  0  0  0  0  0  0  0  0  0  0
  153.3522  140.0105  161.2211 H   0  0  0  0  0  0  0  0  0  0  0  0
  153.7394  143.7024  160.9331 H   0  0  0  0  0  0  0  0  0  0  0  0
  152.4597  145.7129  159.5606 H   0  0  0  0  0  0  0  0  0  0  0  0
  150.8913  145.0982  159.0436 H   0  0  0  0  0  0  0  0  0  0  0  0
  152.1986  145.2856  157.8712 H   0  0  0  0  0  0  0  0  0  0  0  0
  150.8872  143.4868  156.9741 H   0  0  0  0  0  0  0  0  0  0  0  0
  151.6195  141.9828  156.4456 H   0  0  0  0  0  0  0  0  0  0  0  0
  148.7347  143.2700  156.9652 H   0  0  0  0  0  0  0  0  0  0  0  0
  146.8317  141.8292  156.4954 H   0  0  0  0  0  0  0  0  0  0  0  0
  147.4844  140.6716  157.6314 H   0  0  0  0  0  0  0  0  0  0  0  0
  145.7717  143.0372  158.1678 H   0  0  0  0  0  0  0  0  0  0  0  0
  148.3100  142.6208  159.7962 H   0  0  0  0  0  0  0  0  0  0  0  0
  147.5724  144.1538  159.3314 H   0  0  0  0  0  0  0  0  0  0  0  0
  147.1112  142.7205  161.7366 H   0  0  0  0  0  0  0  0  0  0  0  0
  146.0538  143.9980  161.1362 H   0  0  0  0  0  0  0  0  0  0  0  0
  145.2833  141.2729  161.3410 H   0  0  0  0  0  0  0  0  0  0  0  0
  144.4780  142.4909  160.3471 H   0  0  0  0  0  0  0  0  0  0  0  0
  1  2  1  0  0  0  0
  1 18  1  0  0  0  0
  1 19  1  0  0  0  0
  1 20  1  0  0  0  0
  2 17  2  0  0  0  0
  2  3  1  0  0  0  0
  3  4  2  0  0  0  0
  3 21  1  0  0  0  0
  4  5  1  0  0  0  0
  4  6  1  0  0  0  0
  5 22  1  0  0  0  0
  5 23  1  0  0  0  0
  5 24  1  0  0  0  0
  6  7  1  0  0  0  0
  6 17  1  0  0  0  0
  7  8  1  0  0  0  0
  7 25  1  0  0  0  0
  7 26  1  0  0  0  0
  8  9  2  0  0  0  0
  8 10  1  0  0  0  0
 10 11  1  0  0  0  0
 10 27  1  0  0  0  0
 11 12  1  0  0  0  0
 11 28  1  0  0  0  0
 11 29  1  0  0  0  0
 12 16  1  0  0  0  0
 12 13  1  0  0  0  0
 12 30  1  0  0  0  0
 13 14  1  0  0  0  0
 13 31  1  0  0  0  0
 13 32  1  0  0  0  0
 14 15  1  0  0  0  0
 14 33  1  0  0  0  0
 14 34  1  0  0  0  0
 15 16  1  0  0  0  0
 15 35  1  0  0  0  0
 15 36  1  0  0  0  0
M  END
> <s_m_source_file>
AV-unprocessed.smi

> <i_m_source_file_index>
1895

> <i_lp_mmshare_version>
43012

> <i_f3d_flags>
0

> <s_epik_input>
W0NIM11jMVtjSF1jKFtDSDNdKW4objEpW0NIMl1DKD1PKVtOSF1bQ0gyXVtDQEBIXTJbQ0gyXVtDSDJdW0NIMl1PMg==

> <s_epik_cmdline>
J2VwaWtfcHl0aG9uJywgJy1waCcsICc3LjAnLCAnLXRuJywgJzgnLCAnLW1hJywgJzIwMCcsICctbWV0YWxfYmluZGluZycsICctaW1hZScsICc8aW5maWxlLm1hZT4nLCAnLW9tYWUnLCAnPG91dGZpbGUubWFlPic=

> <r_lp_tautomer_probability>
1

> <r_epik_Ionization_Penalty>
0.000408438

> <r_epik_Ionization_Penalty_Charging>
0

> <r_epik_Ionization_Penalty_Neutral>
0.000408438

> <r_epik_State_Penalty>
-0

> <r_epik_Charging_Adjusted_Penalty>
0

> <i_epik_Tot_Q>
0

> <i_epik_Tot_abs_Q>
0

> <r_epik_Metal_State_Penalty>
-0

> <b_epik_Metal_Only>
0

> <s_lp_Force_Field>
OPLS_2005

> <r_lp_Energy>
14.7864

> <b_lp_Chiralities_Consistent>
1

> <s_lp_Variant>
AV-unprocessed.smi:1895-1

> <Gold.Version>
5.8.1

> <Gold.Id.Protein>
6NUR|6NUR_protein|mol2

> <Gold.PLP.Fitness>
40.7146

> <Gold.PLP.PLP>
-36.2186

> <Gold.PLP.part.hbond>
-2.5839

> <Gold.PLP.part.metal>
0.0000

> <Gold.PLP.part.buried>
-4.8160

> <Gold.PLP.part.nonpolar>
-29.6911

> <Gold.PLP.part.repulsive>
0.0723

> <Gold.PLP.ligand.clash>
0.0391

> <Gold.PLP.ligand.torsion>
0.7401

> <Gold.PLP.Chemscore.Hbond>
2.0000

> <Gold.PLP.Chemscore.CHOScore>
0.0000

> <Gold.PLP.Chemscore.Metal>
0.0000

> <Gold.Chemscore.Hbonds>
donor molecule, donor type, donor heavy atom, donor atom, acceptor molecule, acceptor atom, score
      L1  H    10    27       P1  8028  1.00

> <Gold.PLP.Chemscore.Internal.Correction>
0.0153

> <Gold.Rescore>
     Score         DG    S(hbond)    S(metal)    S(lipo)     H(rot)  DE(clash)    DE(int)     intcor
     14.43     -15.51       1.25        0.00      83.81       1.54       0.05       1.04       ----

> <Gold.Chemscore.Fitness>
14.4255

> <Gold.Chemscore.DG>
-15.5147

> <Gold.Chemscore.ZeroCoef>
-5.4800

> <Gold.Chemscore.Hbond>
1.2481

> <Gold.Chemscore.Metal>
0.0000

> <Gold.Chemscore.Lipo>
83.8050

> <Gold.Chemscore.Internal_Hbond>
0.0000

> <Gold.Chemscore.DEClash>
0.0466

> <Gold.Chemscore.DEInternal>
1.0426

> <Gold.Chemscore.Rot>
1.5387

> <Gold.Chemscore.Internal.Correction>
   9.000000E+99

> <Gold.Chemscore.Hbonds>
donor molecule, donor type, donor heavy atom, donor atom, acceptor molecule, acceptor atom, score
      L1  H    10    27       P1  8028  0.55

> <Gold.Chemscore.Hbond.Weighted>
-4.1687

> <Gold.Chemscore.Metal.Weighted>
-0.0000

> <Gold.Chemscore.Lipo.Weighted>
-9.8052

> <Gold.Chemscore.Internal_Hbond.Weighted>
0.0000

> <Gold.Chemscore.DEClash.Weighted>
0.0466

> <Gold.Chemscore.DEInternal.Weighted>
1.0426

> <Gold.Chemscore.Rot.Weighted>
3.9392

> <Gold.Chemscore.Internal.Correction.Weighted>
   9.000000E+99

> <Gold.Protein.RotatedTorsions>
[ 6907 6896 6895 6894 ] final   45.64 input  -60.11 | X-H torsion
[ 7974 7965 7964 7962 ] final -124.26 input  175.53 | X-H torsion
[ 8008 7997 7996 7995 ] final   20.23 input   59.86 | X-H torsion
[ 10167 10162 10161 10158 ] final   90.39 input  -65.29 | X-H torsion
[ 10718 10713 10712 10709 ] final  169.85 input   66.30 | X-H torsion
[ 10763 10752 10751 10750 ] final  101.82 input  -60.55 | X-H torsion
[ 11005 11000 10999 10996 ] final   74.93 input  -57.11 | X-H torsion

> <Gold.Protein.ActiveResidues>
 VAL166  LYS551  ARG553  GLY616  TRP617  ASP618  TYR619  PRO620  LYS621  CYS622 
 ASP623  PHE694  ASN695  SER759  ASP760  ASP761  ALA762  ILE779  LEU786  VAL792 
 PHE793  MET794  SER795  GLU796  ALA797  LYS798  CYS799  TRP800  GLU811  SER814 

> <Gold.Protein.RotatedAtoms>
  152.2469  134.8172  160.0451 H   0  0  0  0  0  0  0  0  0  0  0  0  # atno 6907 bound_to 6896
  151.8866  133.3502  159.3792 H   0  0  0  0  0  0  0  0  0  0  0  0  # atno 6908 bound_to 6896
  150.7071  134.4892  159.5551 H   0  0  0  0  0  0  0  0  0  0  0  0  # atno 6909 bound_to 6896
  145.0100  140.7897  143.4444 H   0  0  0  0  0  0  0  0  0  0  0  0  # atno 7974 bound_to 7965
  154.9326  140.3042  155.5160 H   0  0  0  0  0  0  0  0  0  0  0  0  # atno 8008 bound_to 7997
  156.3002  140.2351  156.4324 H   0  0  0  0  0  0  0  0  0  0  0  0  # atno 8009 bound_to 7997
  154.8223  140.0422  157.1408 H   0  0  0  0  0  0  0  0  0  0  0  0  # atno 8010 bound_to 7997
  139.8478  144.6609  150.9206 H   0  0  0  0  0  0  0  0  0  0  0  0  # atno 10167 bound_to 10162
  157.0166  131.0220  151.2787 H   0  0  0  0  0  0  0  0  0  0  0  0  # atno 10718 bound_to 10713
  153.3316  135.4031  155.1500 H   0  0  0  0  0  0  0  0  0  0  0  0  # atno 10763 bound_to 10752
  154.8624  135.3612  154.5462 H   0  0  0  0  0  0  0  0  0  0  0  0  # atno 10764 bound_to 10752
  153.5902  135.7074  153.5486 H   0  0  0  0  0  0  0  0  0  0  0  0  # atno 10765 bound_to 10752
  139.9368  134.7474  156.1208 H   0  0  0  0  0  0  0  0  0  0  0  0  # atno 11005 bound_to 11000
  145.2036  139.2239  143.5180 LP  0  0  0  0  0  0  0  0  0  0  0  0  # atno 17320 bound_to 7965
  146.3468  140.1859  142.8589 LP  0  0  0  0  0  0  0  0  0  0  0  0  # atno 17321 bound_to 7965
  140.7791  143.3854  151.1402 LP  0  0  0  0  0  0  0  0  0  0  0  0  # atno 17342 bound_to 10162
  139.7495  143.8800  152.3073 LP  0  0  0  0  0  0  0  0  0  0  0  0  # atno 17343 bound_to 10162
  157.5281  130.8041  149.7885 LP  0  0  0  0  0  0  0  0  0  0  0  0  # atno 17370 bound_to 10713
  156.0117  130.3830  150.2243 LP  0  0  0  0  0  0  0  0  0  0  0  0  # atno 17371 bound_to 10713
  141.0985  133.6686  156.2699 LP  0  0  0  0  0  0  0  0  0  0  0  0  # atno 17394 bound_to 11000
  140.6056  134.5511  157.5525 LP  0  0  0  0  0  0  0  0  0  0  0  0  # atno 17395 bound_to 11000

$$$$
