AV-unprocessed.smi:703|AV-procd|sdf|3429|dock4
  -GOLD-   22720 0413D 1   1.00000     0.00000
 Structure written by MMmdl.
 38 39  0  0  0  0  0  0  0  0  2 V2000
  145.1383  135.1674  151.7877 C   0  0  0  0  0  0  0  0  0  0  0  0
  145.9338  133.9037  152.1409 C   0  0  0  0  0  0  0  0  0  0  0  0
  147.2708  134.2201  152.6953 N   0  3  2  0  0  0  0  0  0  0  0  0
  148.1624  133.0611  152.8895 C   0  0  0  0  0  0  0  0  0  0  0  0
  149.2763  133.5739  153.8057 C   0  0  2  0  0  0  0  0  0  0  0  0
  149.9544  132.4713  154.6297 C   0  0  0  0  0  0  0  0  0  0  0  0
  148.5988  134.6641  154.6572 C   0  0  1  0  0  0  0  0  0  0  0  0
  149.4104  135.8848  154.6666 N   0  0  0  0  0  0  0  0  0  0  0  0
  148.8545  137.2299  155.5904 S   0  0  0  0  0  0  0  0  0  0  0  0
  147.3853  137.1647  155.6169 O   0  0  0  0  0  0  0  0  0  0  0  0
  149.6120  137.2442  156.8513 O   0  0  0  0  0  0  0  0  0  0  0  0
  149.3821  138.6687  154.5678 C   0  0  0  0  0  0  0  0  0  0  0  0
  150.8790  138.7876  154.6013 C   0  0  0  0  0  0  0  0  0  0  0  0
  151.8517  137.8175  154.2327 C   0  0  0  0  0  0  0  0  0  0  0  0
  153.0382  138.4523  154.4632 C   0  0  0  0  0  0  0  0  0  0  0  0
  152.8221  139.7054  154.9366 O   0  0  0  0  0  0  0  0  0  0  0  0
  151.4403  139.9098  155.0229 N   0  0  0  0  0  0  0  0  0  0  0  0
  147.2353  134.9203  153.9947 C   0  0  0  0  0  0  0  0  0  0  0  0
  144.1370  134.9078  151.4437 H   0  0  0  0  0  0  0  0  0  0  0  0
  145.6184  135.7368  150.9915 H   0  0  0  0  0  0  0  0  0  0  0  0
  145.0309  135.8220  152.6532 H   0  0  0  0  0  0  0  0  0  0  0  0
  145.3746  133.3366  152.8864 H   0  0  0  0  0  0  0  0  0  0  0  0
  146.0328  133.2595  151.2661 H   0  0  0  0  0  0  0  0  0  0  0  0
  147.6104  132.2549  153.3762 H   0  0  0  0  0  0  0  0  0  0  0  0
  148.5512  132.6824  151.9437 H   0  0  0  0  0  0  0  0  0  0  0  0
  150.0316  134.0358  153.1666 H   0  0  0  0  0  0  0  0  0  0  0  0
  149.2429  131.9688  155.2857 H   0  0  0  0  0  0  0  0  0  0  0  0
  150.7473  132.8851  155.2536 H   0  0  0  0  0  0  0  0  0  0  0  0
  150.4014  131.7172  153.9816 H   0  0  0  0  0  0  0  0  0  0  0  0
  148.4396  134.3207  155.6808 H   0  0  0  0  0  0  0  0  0  0  0  0
  149.6691  136.1692  153.7221 H   0  0  0  0  0  0  0  0  0  0  0  0
  149.0160  138.5206  153.5513 H   0  0  0  0  0  0  0  0  0  0  0  0
  148.9108  139.5678  154.9643 H   0  0  0  0  0  0  0  0  0  0  0  0
  151.7026  136.8166  153.8561 H   0  0  0  0  0  0  0  0  0  0  0  0
  154.0714  138.1604  154.3467 H   0  0  0  0  0  0  0  0  0  0  0  0
  147.0067  135.9793  153.8655 H   0  0  0  0  0  0  0  0  0  0  0  0
  146.4484  134.4901  154.6170 H   0  0  0  0  0  0  0  0  0  0  0  0
  147.7355  134.8413  152.0484 H   0  0  0  0  0  0  0  0  0  0  0  0
  1  2  1  0  0  0  0
  1 19  1  0  0  0  0
  1 20  1  0  0  0  0
  1 21  1  0  0  0  0
  2  3  1  0  0  0  0
  2 22  1  0  0  0  0
  2 23  1  0  0  0  0
  3 18  1  0  0  0  0
  3  4  1  0  0  0  0
  3 38  1  0  0  0  0
  4  5  1  0  0  0  0
  4 24  1  0  0  0  0
  4 25  1  0  0  0  0
  5  6  1  0  0  0  0
  5  7  1  0  0  0  0
  5 26  1  0  0  0  0
  6 27  1  0  0  0  0
  6 28  1  0  0  0  0
  6 29  1  0  0  0  0
  7  8  1  0  0  0  0
  7 18  1  0  0  0  0
  7 30  1  0  0  0  0
  8  9  1  0  0  0  0
  8 31  1  0  0  0  0
  9 10  2  0  0  0  0
  9 11  2  0  0  0  0
  9 12  1  0  0  0  0
 12 13  1  0  0  0  0
 12 32  1  0  0  0  0
 12 33  1  0  0  0  0
 13 17  2  0  0  0  0
 13 14  1  0  0  0  0
 14 15  2  0  0  0  0
 14 34  1  0  0  0  0
 15 16  1  0  0  0  0
 15 35  1  0  0  0  0
 16 17  1  0  0  0  0
 18 36  1  0  0  0  0
 18 37  1  0  0  0  0
M  CHG  1   3   1
M  END
> <s_m_source_file>
AV-unprocessed.smi

> <i_m_source_file_index>
703

> <i_lp_mmshare_version>
43012

> <i_f3d_flags>
0

> <s_epik_input>
W0NIM11bQ0gyXU4xW0NIMl1bQ0BASF0oW0NIM10pW0NASF0oW0NIMl0xKVtOSF1TKD1PKSg9TylbQ0gyXWMyW2NIXVtjSF1vbjI=

> <s_epik_cmdline>
J2VwaWtfcHl0aG9uJywgJy1waCcsICc3LjAnLCAnLXRuJywgJzgnLCAnLW1hJywgJzIwMCcsICctbWV0YWxfYmluZGluZycsICctaW1hZScsICc8aW5maWxlLm1hZT4nLCAnLW9tYWUnLCAnPG91dGZpbGUubWFlPic=

> <r_epik_Ionization_Penalty>
0.00324529

> <r_epik_Ionization_Penalty_Charging>
0.0019384

> <r_epik_Ionization_Penalty_Neutral>
0.00130689

> <r_epik_State_Penalty>
0.00218682

> <r_epik_Charging_Adjusted_Penalty>
0.00412522

> <i_epik_Tot_Q>
1

> <i_epik_Tot_abs_Q>
1

> <r_epik_Metal_State_Penalty>
0.310831

> <b_epik_Metal_Only>
0

> <s_lp_Force_Field>
OPLS_2005

> <r_lp_Energy>
19.0381

> <b_lp_Chiralities_Consistent>
1

> <s_lp_Variant>
AV-unprocessed.smi:703-4

> <Gold.Version>
5.8.1

> <Gold.Id.Protein>
6NUR|6NUR_protein|mol2

> <Gold.PLP.Fitness>
42.4678

> <Gold.PLP.PLP>
-30.9130

> <Gold.PLP.part.hbond>
-5.0000

> <Gold.PLP.part.metal>
0.0000

> <Gold.PLP.part.buried>
-2.7103

> <Gold.PLP.part.nonpolar>
-24.4503

> <Gold.PLP.part.repulsive>
0.1077

> <Gold.PLP.ligand.clash>
0.0000

> <Gold.PLP.ligand.torsion>
0.6841

> <Gold.PLP.Chemscore.Hbond>
4.2520

> <Gold.PLP.Chemscore.CHOScore>
0.0000

> <Gold.PLP.Chemscore.Metal>
0.0000

> <Gold.Chemscore.Hbonds>
donor molecule, donor type, donor heavy atom, donor atom, acceptor molecule, acceptor atom, score
      L1  H     3    38       P1  7948  1.89
      L1  H     8    31       P1  7948  0.85
      P1  H  7989  7998       L1    17  0.25
      P1  H  7997  8010       L1    16  1.00

> <Gold.PLP.Chemscore.Internal.Correction>
0.1669

> <Gold.Rescore>
     Score         DG    S(hbond)    S(metal)    S(lipo)     H(rot)  DE(clash)    DE(int)     intcor
     15.02     -16.68       2.70        0.00      61.13       1.94       0.01       1.66       ----

> <Gold.Chemscore.Fitness>
15.0188

> <Gold.Chemscore.DG>
-16.6837

> <Gold.Chemscore.ZeroCoef>
-5.4800

> <Gold.Chemscore.Hbond>
2.6999

> <Gold.Chemscore.Metal>
0.0000

> <Gold.Chemscore.Lipo>
61.1330

> <Gold.Chemscore.Internal_Hbond>
0.0000

> <Gold.Chemscore.DEClash>
0.0092

> <Gold.Chemscore.DEInternal>
1.6557

> <Gold.Chemscore.Rot>
1.9400

> <Gold.Chemscore.Internal.Correction>
   9.000000E+99

> <Gold.Chemscore.Hbonds>
donor molecule, donor type, donor heavy atom, donor atom, acceptor molecule, acceptor atom, score
      L1  H     3    38       P1  7948  0.64
      L1  H     8    31       P1  7948  0.33
      P1  H  7997  8010       L1    16  0.54

> <Gold.Chemscore.Hbond.Weighted>
-9.0176

> <Gold.Chemscore.Metal.Weighted>
-0.0000

> <Gold.Chemscore.Lipo.Weighted>
-7.1526

> <Gold.Chemscore.Internal_Hbond.Weighted>
0.0000

> <Gold.Chemscore.DEClash.Weighted>
0.0092

> <Gold.Chemscore.DEInternal.Weighted>
1.6557

> <Gold.Chemscore.Rot.Weighted>
4.9665

> <Gold.Chemscore.Internal.Correction.Weighted>
   9.000000E+99

> <Gold.Protein.RotatedTorsions>
[ 6907 6896 6895 6894 ] final   36.48 input  -60.11 | X-H torsion
[ 7974 7965 7964 7962 ] final   35.28 input  175.53 | X-H torsion
[ 8008 7997 7996 7995 ] final   98.30 input   59.86 | X-H torsion
[ 10167 10162 10161 10158 ] final  166.19 input  -65.29 | X-H torsion
[ 10718 10713 10712 10709 ] final  119.06 input   66.30 | X-H torsion
[ 10763 10752 10751 10750 ] final  -32.05 input  -60.55 | X-H torsion
[ 11005 11000 10999 10996 ] final -108.08 input  -57.11 | X-H torsion

> <Gold.Protein.ActiveResidues>
 VAL166  LYS551  ARG553  GLY616  TRP617  ASP618  TYR619  PRO620  LYS621  CYS622 
 ASP623  PHE694  ASN695  SER759  ASP760  ASP761  ALA762  ILE779  LEU786  VAL792 
 PHE793  MET794  SER795  GLU796  ALA797  LYS798  CYS799  TRP800  GLU811  SER814 

> <Gold.Protein.RotatedAtoms>
  152.1303  134.9140  160.0558 H   0  0  0  0  0  0  0  0  0  0  0  0  # atno 6907 bound_to 6896
  152.0247  133.3908  159.4281 H   0  0  0  0  0  0  0  0  0  0  0  0  # atno 6908 bound_to 6896
  150.6856  134.3508  159.4952 H   0  0  0  0  0  0  0  0  0  0  0  0  # atno 6909 bound_to 6896
  146.1294  139.6162  142.9237 H   0  0  0  0  0  0  0  0  0  0  0  0  # atno 7974 bound_to 7965
  156.0990  140.3245  155.7917 H   0  0  0  0  0  0  0  0  0  0  0  0  # atno 8008 bound_to 7997
  155.4868  140.0558  157.2976 H   0  0  0  0  0  0  0  0  0  0  0  0  # atno 8009 bound_to 7997
  154.4685  140.2000  156.0071 H   0  0  0  0  0  0  0  0  0  0  0  0  # atno 8010 bound_to 7997
  139.4920  144.4053  151.9362 H   0  0  0  0  0  0  0  0  0  0  0  0  # atno 10167 bound_to 10162
  157.5988  131.1054  150.7843 H   0  0  0  0  0  0  0  0  0  0  0  0  # atno 10718 bound_to 10713
  153.8073  135.6885  153.4846 H   0  0  0  0  0  0  0  0  0  0  0  0  # atno 10763 bound_to 10752
  153.1650  135.4565  154.9823 H   0  0  0  0  0  0  0  0  0  0  0  0  # atno 10764 bound_to 10752
  154.7982  135.3327  154.7557 H   0  0  0  0  0  0  0  0  0  0  0  0  # atno 10765 bound_to 10752
  141.0921  133.9037  157.2052 H   0  0  0  0  0  0  0  0  0  0  0  0  # atno 11005 bound_to 11000
  145.5295  141.0428  143.2391 LP  0  0  0  0  0  0  0  0  0  0  0  0  # atno 17320 bound_to 7965
  144.7675  139.6812  143.7209 LP  0  0  0  0  0  0  0  0  0  0  0  0  # atno 17321 bound_to 7965
  140.3493  144.3108  150.5952 LP  0  0  0  0  0  0  0  0  0  0  0  0  # atno 17342 bound_to 10162
  140.5498  143.2208  151.7945 LP  0  0  0  0  0  0  0  0  0  0  0  0  # atno 17343 bound_to 10162
  156.8247  130.4996  149.5339 LP  0  0  0  0  0  0  0  0  0  0  0  0  # atno 17370 bound_to 10713
  156.1056  130.6002  150.9965 LP  0  0  0  0  0  0  0  0  0  0  0  0  # atno 17371 bound_to 10713
  139.9749  135.0117  156.9605 LP  0  0  0  0  0  0  0  0  0  0  0  0  # atno 17394 bound_to 11000
  140.5228  134.0890  155.7296 LP  0  0  0  0  0  0  0  0  0  0  0  0  # atno 17395 bound_to 11000

$$$$
