AV-unprocessed.smi:772|AV-procd|sdf|3688|dock1
  -GOLD-   22720 1103D 1   1.00000     0.00000
 Structure written by MMmdl.
 47 48  0  0  0  0  0  0  0  0  2 V2000
  145.4610  141.6071  155.8024 C   0  0  0  0  0  0  0  0  0  0  0  0
  146.7121  140.8129  155.4926 C   0  0  0  0  0  0  0  0  0  0  0  0
  147.7438  141.3189  154.6733 C   0  0  0  0  0  0  0  0  0  0  0  0
  148.8787  140.5201  154.4236 C   0  0  0  0  0  0  0  0  0  0  0  0
  148.9589  139.2314  154.9961 C   0  0  0  0  0  0  0  0  0  0  0  0
  150.1516  138.3319  154.7221 C   0  0  0  0  0  0  0  0  0  0  0  0
  151.5037  138.9703  155.0938 C   0  0  0  0  0  0  0  0  0  0  0  0
  151.5722  139.3459  156.5042 N   0  0  0  0  0  0  0  0  0  0  0  0
  151.1630  140.5144  157.0301 C   0  0  0  0  0  0  0  0  0  0  0  0
  150.6688  141.4066  156.3386 O   0  0  0  0  0  0  0  0  0  0  0  0
  151.3172  140.6174  158.3749 N   0  0  0  0  0  0  0  0  0  0  0  0
  151.7963  139.5563  159.2749 C   0  0  0  0  0  0  0  0  0  0  0  0
  153.2968  139.7608  159.5327 C   0  0  0  0  0  0  0  0  0  0  0  0
  153.6007  141.3451  160.3735 S   0  0  0  0  0  0  0  0  0  0  0  0
  152.6456  142.4718  159.2957 C   0  0  2  0  0  0  0  0  0  0  0  0
  152.6428  143.9294  159.8220 C   0  0  0  0  0  0  0  0  0  0  0  0
  152.1493  144.0143  161.2765 C   0  0  0  0  0  0  0  0  0  0  0  0
  151.8752  144.9176  158.9239 C   0  0  0  0  0  0  0  0  0  0  0  0
  151.2245  141.9108  159.0629 C   0  0  0  0  0  0  0  0  0  0  0  0
  147.8988  138.7811  155.8117 C   0  0  0  0  0  0  0  0  0  0  0  0
  146.8286  139.5764  156.0264 N   0  3  0  0  0  0  0  0  0  0  0  0
  145.4610  142.5616  155.2753 H   0  0  0  0  0  0  0  0  0  0  0  0
  145.3941  141.8084  156.8718 H   0  0  0  0  0  0  0  0  0  0  0  0
  144.5729  141.0515  155.4997 H   0  0  0  0  0  0  0  0  0  0  0  0
  147.6677  142.3042  154.2369 H   0  0  0  0  0  0  0  0  0  0  0  0
  149.6718  140.8907  153.7905 H   0  0  0  0  0  0  0  0  0  0  0  0
  150.0277  137.3942  155.2656 H   0  0  0  0  0  0  0  0  0  0  0  0
  150.1518  138.0692  153.6638 H   0  0  0  0  0  0  0  0  0  0  0  0
  152.3066  138.2595  154.8970 H   0  0  0  0  0  0  0  0  0  0  0  0
  151.7028  139.8328  154.4555 H   0  0  0  0  0  0  0  0  0  0  0  0
  151.9666  138.6631  157.1352 H   0  0  0  0  0  0  0  0  0  0  0  0
  151.2498  139.5932  160.2183 H   0  0  0  0  0  0  0  0  0  0  0  0
  151.6168  138.5527  158.8890 H   0  0  0  0  0  0  0  0  0  0  0  0
  153.6894  138.9554  160.1534 H   0  0  0  0  0  0  0  0  0  0  0  0
  153.8522  139.7422  158.5945 H   0  0  0  0  0  0  0  0  0  0  0  0
  153.1547  142.4784  158.3306 H   0  0  0  0  0  0  0  0  0  0  0  0
  153.6820  144.2606  159.8359 H   0  0  0  0  0  0  0  0  0  0  0  0
  151.0975  143.7412  161.3629 H   0  0  0  0  0  0  0  0  0  0  0  0
  152.2582  145.0265  161.6670 H   0  0  0  0  0  0  0  0  0  0  0  0
  152.7204  143.3509  161.9264 H   0  0  0  0  0  0  0  0  0  0  0  0
  150.8144  144.6735  158.8670 H   0  0  0  0  0  0  0  0  0  0  0  0
  152.2707  144.9324  157.9088 H   0  0  0  0  0  0  0  0  0  0  0  0
  151.9540  145.9337  159.3114 H   0  0  0  0  0  0  0  0  0  0  0  0
  150.6251  142.6250  158.4961 H   0  0  0  0  0  0  0  0  0  0  0  0
  150.6993  141.7840  160.0100 H   0  0  0  0  0  0  0  0  0  0  0  0
  147.8691  137.8104  156.2850 H   0  0  0  0  0  0  0  0  0  0  0  0
  146.0722  139.2262  156.6148 H   0  0  0  0  0  0  0  0  0  0  0  0
  1  2  1  0  0  0  0
  1 22  1  0  0  0  0
  1 23  1  0  0  0  0
  1 24  1  0  0  0  0
  2 21  1  0  0  0  0
  2  3  2  0  0  0  0
  3  4  1  0  0  0  0
  3 25  1  0  0  0  0
  4  5  2  0  0  0  0
  4 26  1  0  0  0  0
  5  6  1  0  0  0  0
  5 20  1  0  0  0  0
  6  7  1  0  0  0  0
  6 27  1  0  0  0  0
  6 28  1  0  0  0  0
  7  8  1  0  0  0  0
  7 29  1  0  0  0  0
  7 30  1  0  0  0  0
  8  9  1  0  0  0  0
  8 31  1  0  0  0  0
  9 10  2  0  0  0  0
  9 11  1  0  0  0  0
 11 19  1  0  0  0  0
 11 12  1  0  0  0  0
 12 13  1  0  0  0  0
 12 32  1  0  0  0  0
 12 33  1  0  0  0  0
 13 14  1  0  0  0  0
 13 34  1  0  0  0  0
 13 35  1  0  0  0  0
 14 15  1  0  0  0  0
 15 16  1  0  0  0  0
 15 19  1  0  0  0  0
 15 36  1  0  0  0  0
 16 17  1  0  0  0  0
 16 18  1  0  0  0  0
 16 37  1  0  0  0  0
 17 38  1  0  0  0  0
 17 39  1  0  0  0  0
 17 40  1  0  0  0  0
 18 41  1  0  0  0  0
 18 42  1  0  0  0  0
 18 43  1  0  0  0  0
 19 44  1  0  0  0  0
 19 45  1  0  0  0  0
 20 21  2  0  0  0  0
 20 46  1  0  0  0  0
 21 47  1  0  0  0  0
M  CHG  1  21   1
M  END
> <s_m_source_file>
AV-unprocessed.smi

> <i_m_source_file_index>
772

> <i_lp_mmshare_version>
43012

> <i_f3d_flags>
0

> <s_epik_input>
W0NIM11jMVtjSF1bY0hdYyhbY0hdbjEpW0NIMl1bQ0gyXVtOSF1DKD1PKU4yW0NIMl1bQ0gyXVNbQ0BIXShbQ0gyXTIpW0NIXShbQ0gzXSlbQ0gzXQ==

> <s_epik_cmdline>
J2VwaWtfcHl0aG9uJywgJy1waCcsICc3LjAnLCAnLXRuJywgJzgnLCAnLW1hJywgJzIwMCcsICctbWV0YWxfYmluZGluZycsICctaW1hZScsICc8aW5maWxlLm1hZT4nLCAnLW9tYWUnLCAnPG91dGZpbGUubWFlPic=

> <r_epik_Ionization_Penalty>
1.41908

> <r_epik_Ionization_Penalty_Charging>
1.41903

> <r_epik_Ionization_Penalty_Neutral>
4.72921e-05

> <r_epik_State_Penalty>
1.50265

> <r_epik_Charging_Adjusted_Penalty>
2.92168

> <i_epik_Tot_Q>
1

> <i_epik_Tot_abs_Q>
1

> <r_epik_Metal_State_Penalty>
1.55496

> <b_epik_Metal_Only>
0

> <s_lp_Force_Field>
OPLS_2005

> <r_lp_Energy>
32.4452

> <b_lp_Chiralities_Consistent>
1

> <s_lp_Variant>
AV-unprocessed.smi:772-4

> <Gold.Version>
5.8.1

> <Gold.Id.Protein>
6NUR|6NUR_protein|mol2

> <Gold.PLP.Fitness>
45.5934

> <Gold.PLP.PLP>
-46.0566

> <Gold.PLP.part.hbond>
0.0000

> <Gold.PLP.part.metal>
0.0000

> <Gold.PLP.part.buried>
-3.6996

> <Gold.PLP.part.nonpolar>
-42.6522

> <Gold.PLP.part.repulsive>
0.1830

> <Gold.PLP.ligand.clash>
0.0000

> <Gold.PLP.ligand.torsion>
0.3002

> <Gold.PLP.Chemscore.Hbond>
0.0000

> <Gold.PLP.Chemscore.CHOScore>
0.0000

> <Gold.PLP.Chemscore.Metal>
0.0000

> <Gold.PLP.Chemscore.Internal.Correction>
0.1373

> <Gold.Rescore>
     Score         DG    S(hbond)    S(metal)    S(lipo)     H(rot)  DE(clash)    DE(int)     intcor
     14.64     -16.65       0.01        0.00     125.82       1.39       0.43       1.59       ----

> <Gold.Chemscore.Fitness>
14.6358

> <Gold.Chemscore.DG>
-16.6505

> <Gold.Chemscore.ZeroCoef>
-5.4800

> <Gold.Chemscore.Hbond>
0.0061

> <Gold.Chemscore.Metal>
0.0000

> <Gold.Chemscore.Lipo>
125.8221

> <Gold.Chemscore.Internal_Hbond>
0.0000

> <Gold.Chemscore.DEClash>
0.4266

> <Gold.Chemscore.DEInternal>
1.5881

> <Gold.Chemscore.Rot>
1.3949

> <Gold.Chemscore.Internal.Correction>
   9.000000E+99

> <Gold.Chemscore.Hbond.Weighted>
-0.0202

> <Gold.Chemscore.Metal.Weighted>
-0.0000

> <Gold.Chemscore.Lipo.Weighted>
-14.7212

> <Gold.Chemscore.Internal_Hbond.Weighted>
0.0000

> <Gold.Chemscore.DEClash.Weighted>
0.4266

> <Gold.Chemscore.DEInternal.Weighted>
1.5881

> <Gold.Chemscore.Rot.Weighted>
3.5709

> <Gold.Chemscore.Internal.Correction.Weighted>
   9.000000E+99

> <Gold.Protein.RotatedTorsions>
[ 6907 6896 6895 6894 ] final  128.04 input  -60.11 | X-H torsion
[ 7974 7965 7964 7962 ] final   62.49 input  175.53 | X-H torsion
[ 8008 7997 7996 7995 ] final  158.11 input   59.86 | X-H torsion
[ 10167 10162 10161 10158 ] final -114.01 input  -65.29 | X-H torsion
[ 10718 10713 10712 10709 ] final  116.83 input   66.30 | X-H torsion
[ 10763 10752 10751 10750 ] final  140.26 input  -60.55 | X-H torsion
[ 11005 11000 10999 10996 ] final  165.59 input  -57.11 | X-H torsion

> <Gold.Protein.ActiveResidues>
 VAL166  LYS551  ARG553  GLY616  TRP617  ASP618  TYR619  PRO620  LYS621  CYS622 
 ASP623  PHE694  ASN695  SER759  ASP760  ASP761  ALA762  ILE779  LEU786  VAL792 
 PHE793  MET794  SER795  GLU796  ALA797  LYS798  CYS799  TRP800  GLU811  SER814 

> <Gold.Protein.RotatedAtoms>
  152.3757  133.6478  159.6121 H   0  0  0  0  0  0  0  0  0  0  0  0  # atno 6907 bound_to 6896
  150.7702  133.9197  159.3403 H   0  0  0  0  0  0  0  0  0  0  0  0  # atno 6908 bound_to 6896
  151.7012  135.0931  160.0302 H   0  0  0  0  0  0  0  0  0  0  0  0  # atno 6909 bound_to 6896
  145.8728  139.3389  143.0752 H   0  0  0  0  0  0  0  0  0  0  0  0  # atno 7974 bound_to 7965
  156.2323  140.1867  156.7211 H   0  0  0  0  0  0  0  0  0  0  0  0  # atno 8008 bound_to 7997
  154.6044  140.0631  156.9438 H   0  0  0  0  0  0  0  0  0  0  0  0  # atno 8009 bound_to 7997
  155.2121  140.3300  155.4330 H   0  0  0  0  0  0  0  0  0  0  0  0  # atno 8010 bound_to 7997
  140.1057  143.4573  152.1784 H   0  0  0  0  0  0  0  0  0  0  0  0  # atno 10167 bound_to 10162
  157.6135  131.1030  150.7529 H   0  0  0  0  0  0  0  0  0  0  0  0  # atno 10718 bound_to 10713
  153.9198  135.3002  155.3448 H   0  0  0  0  0  0  0  0  0  0  0  0  # atno 10763 bound_to 10752
  154.7581  135.4947  153.9416 H   0  0  0  0  0  0  0  0  0  0  0  0  # atno 10764 bound_to 10752
  153.1148  135.6768  153.9541 H   0  0  0  0  0  0  0  0  0  0  0  0  # atno 10765 bound_to 10752
  140.2577  134.7927  157.3561 H   0  0  0  0  0  0  0  0  0  0  0  0  # atno 11005 bound_to 11000
  145.9117  140.9176  143.0451 LP  0  0  0  0  0  0  0  0  0  0  0  0  # atno 17320 bound_to 7965
  144.6726  140.1169  143.7452 LP  0  0  0  0  0  0  0  0  0  0  0  0  # atno 17321 bound_to 7965
  139.5647  144.7427  151.4056 LP  0  0  0  0  0  0  0  0  0  0  0  0  # atno 17342 bound_to 10162
  140.6953  143.7763  150.7318 LP  0  0  0  0  0  0  0  0  0  0  0  0  # atno 17343 bound_to 10162
  156.7901  130.4887  149.5386 LP  0  0  0  0  0  0  0  0  0  0  0  0  # atno 17370 bound_to 10713
  156.1248  130.6136  151.0247 LP  0  0  0  0  0  0  0  0  0  0  0  0  # atno 17371 bound_to 10713
  140.1495  134.4868  155.7971 LP  0  0  0  0  0  0  0  0  0  0  0  0  # atno 17394 bound_to 11000
  141.2194  133.6857  156.7353 LP  0  0  0  0  0  0  0  0  0  0  0  0  # atno 17395 bound_to 11000

$$$$
