AV-unprocessed.smi:415|AV-procd|sdf|2521|dock9
  -GOLD-   2262022473D 1   1.00000     0.00000
 Structure written by MMmdl.
 53 54  0  0  0  0  0  0  0  0  1 V2000
  146.8363  129.9832  152.1180 C   0  0  0  0  0  0  0  0  0  0  0  0
  146.3962  131.1571  152.7780 O   0  0  0  0  0  0  0  0  0  0  0  0
  147.3367  131.6331  153.7250 C   0  0  0  0  0  0  0  0  0  0  0  0
  148.6864  131.8357  153.0205 C   0  0  0  0  0  0  0  0  0  0  0  0
  149.6911  132.4127  153.8920 N   0  0  0  0  0  0  0  0  0  0  0  0
  150.9170  131.8071  154.1529 C   0  0  0  0  0  0  0  0  0  0  0  0
  151.2261  130.6004  153.5513 N   0  0  0  0  0  0  0  0  0  0  0  0
  151.8246  132.3798  154.9747 C   0  0  0  0  0  0  0  0  0  0  0  0
  151.5758  133.6597  155.6235 C   0  0  0  0  0  0  0  0  0  0  0  0
  152.3798  134.1860  156.3934 O   0  0  0  0  0  0  0  0  0  0  0  0
  150.3383  134.2718  155.3188 N   0  0  0  0  0  0  0  0  0  0  0  0
  150.0124  135.5716  155.9464 C   0  0  0  0  0  0  0  0  0  0  0  0
  150.9532  136.7079  155.5185 C   0  0  0  0  0  0  0  0  0  0  0  0
  151.1032  136.9949  154.3298 O   0  0  0  0  0  0  0  0  0  0  0  0
  151.5739  137.3561  156.5153 N   0  0  0  0  0  0  0  0  0  0  0  0
  152.5121  138.4681  156.3560 C   0  0  1  0  0  0  0  0  0  0  0  0
  151.8858  139.5945  155.5102 C   0  0  0  0  0  0  0  0  0  0  0  0
  150.7611  140.3163  156.2659 C   0  0  0  0  0  0  0  0  0  0  0  0
  151.2630  140.8536  157.6127 C   0  0  0  0  0  0  0  0  0  0  0  0
  151.8710  139.7421  158.4935 C   0  0  2  0  0  0  0  0  0  0  0  0
  152.3441  140.3397  159.8307 C   0  0  0  0  0  0  0  0  0  0  0  0
  153.0001  138.9924  157.7319 C   0  0  1  0  0  0  0  0  0  0  0  0
  153.6444  137.8634  158.5624 C   0  0  0  0  0  0  0  0  0  0  0  0
  149.3864  133.6762  154.4600 C   0  0  0  0  0  0  0  0  0  0  0  0
  148.3199  134.2496  154.2197 O   0  0  0  0  0  0  0  0  0  0  0  0
  146.0808  129.6610  151.4014 H   0  0  0  0  0  0  0  0  0  0  0  0
  146.9979  129.1694  152.8260 H   0  0  0  0  0  0  0  0  0  0  0  0
  147.7634  130.1614  151.5713 H   0  0  0  0  0  0  0  0  0  0  0  0
  146.9913  132.5760  154.1523 H   0  0  0  0  0  0  0  0  0  0  0  0
  147.4362  130.9172  154.5426 H   0  0  0  0  0  0  0  0  0  0  0  0
  149.0837  130.9041  152.6136 H   0  0  0  0  0  0  0  0  0  0  0  0
  148.5880  132.4976  152.1608 H   0  0  0  0  0  0  0  0  0  0  0  0
  150.5854  130.1383  152.9218 H   0  0  0  0  0  0  0  0  0  0  0  0
  152.1166  130.1462  153.6954 H   0  0  0  0  0  0  0  0  0  0  0  0
  152.7658  131.8825  155.1610 H   0  0  0  0  0  0  0  0  0  0  0  0
  148.9891  135.8772  155.7241 H   0  0  0  0  0  0  0  0  0  0  0  0
  150.0300  135.4874  157.0345 H   0  0  0  0  0  0  0  0  0  0  0  0
  151.3856  137.0563  157.4610 H   0  0  0  0  0  0  0  0  0  0  0  0
  153.3882  138.0976  155.8198 H   0  0  0  0  0  0  0  0  0  0  0  0
  152.6593  140.3169  155.2469 H   0  0  0  0  0  0  0  0  0  0  0  0
  151.5088  139.1995  154.5661 H   0  0  0  0  0  0  0  0  0  0  0  0
  150.3756  141.1367  155.6602 H   0  0  0  0  0  0  0  0  0  0  0  0
  149.9247  139.6354  156.4289 H   0  0  0  0  0  0  0  0  0  0  0  0
  152.0080  141.6305  157.4358 H   0  0  0  0  0  0  0  0  0  0  0  0
  150.4372  141.3353  158.1375 H   0  0  0  0  0  0  0  0  0  0  0  0
  151.0779  139.0281  158.7204 H   0  0  0  0  0  0  0  0  0  0  0  0
  153.1900  141.0127  159.6879 H   0  0  0  0  0  0  0  0  0  0  0  0
  152.6454  139.5656  160.5358 H   0  0  0  0  0  0  0  0  0  0  0  0
  151.5462  140.9085  160.3087 H   0  0  0  0  0  0  0  0  0  0  0  0
  153.7891  139.7179  157.5271 H   0  0  0  0  0  0  0  0  0  0  0  0
  152.9001  137.1545  158.9262 H   0  0  0  0  0  0  0  0  0  0  0  0
  154.1801  138.2554  159.4265 H   0  0  0  0  0  0  0  0  0  0  0  0
  154.3695  137.3069  157.9678 H   0  0  0  0  0  0  0  0  0  0  0  0
  1  2  1  0  0  0  0
  1 26  1  0  0  0  0
  1 27  1  0  0  0  0
  1 28  1  0  0  0  0
  2  3  1  0  0  0  0
  3  4  1  0  0  0  0
  3 29  1  0  0  0  0
  3 30  1  0  0  0  0
  4  5  1  0  0  0  0
  4 31  1  0  0  0  0
  4 32  1  0  0  0  0
  5 24  1  0  0  0  0
  5  6  1  0  0  0  0
  6  7  1  0  0  0  0
  6  8  2  0  0  0  0
  7 33  1  0  0  0  0
  7 34  1  0  0  0  0
  8  9  1  0  0  0  0
  8 35  1  0  0  0  0
  9 10  2  0  0  0  0
  9 11  1  0  0  0  0
 11 12  1  0  0  0  0
 11 24  1  0  0  0  0
 12 13  1  0  0  0  0
 12 36  1  0  0  0  0
 12 37  1  0  0  0  0
 13 14  2  0  0  0  0
 13 15  1  0  0  0  0
 15 16  1  0  0  0  0
 15 38  1  0  0  0  0
 16 22  1  0  0  0  0
 16 17  1  0  0  0  0
 16 39  1  0  0  0  0
 17 18  1  0  0  0  0
 17 40  1  0  0  0  0
 17 41  1  0  0  0  0
 18 19  1  0  0  0  0
 18 42  1  0  0  0  0
 18 43  1  0  0  0  0
 19 20  1  0  0  0  0
 19 44  1  0  0  0  0
 19 45  1  0  0  0  0
 20 21  1  0  0  0  0
 20 22  1  0  0  0  0
 20 46  1  0  0  0  0
 21 47  1  0  0  0  0
 21 48  1  0  0  0  0
 21 49  1  0  0  0  0
 22 23  1  0  0  0  0
 22 50  1  0  0  0  0
 23 51  1  0  0  0  0
 23 52  1  0  0  0  0
 23 53  1  0  0  0  0
 24 25  2  0  0  0  0
M  END
> <s_m_source_file>
AV-unprocessed.smi

> <i_m_source_file_index>
415

> <i_lp_mmshare_version>
43012

> <i_f3d_flags>
0

> <s_epik_input>
W0NIM11PW0NIMl1bQ0gyXW4xYyhbTkgyXSlbY0hdYyg9TyluKGMxPU8pW0NIMl1DKD1PKVtOSF1bQ0BASF0yW0NIMl1bQ0gyXVtDSDJdW0NAQEhdKFtDSDNdKVtDQEhdMltDSDNd

> <s_epik_cmdline>
J2VwaWtfcHl0aG9uJywgJy1waCcsICc3LjAnLCAnLXRuJywgJzgnLCAnLW1hJywgJzIwMCcsICctbWV0YWxfYmluZGluZycsICctaW1hZScsICc8aW5maWxlLm1hZT4nLCAnLW9tYWUnLCAnPG91dGZpbGUubWFlPic=

> <r_lp_tautomer_probability>
1

> <r_epik_Ionization_Penalty>
8.6647e-06

> <r_epik_Ionization_Penalty_Charging>
1.81162e-08

> <r_epik_Ionization_Penalty_Neutral>
8.64658e-06

> <r_epik_State_Penalty>
-0

> <r_epik_Charging_Adjusted_Penalty>
1.81162e-08

> <i_epik_Tot_Q>
0

> <i_epik_Tot_abs_Q>
0

> <r_epik_Metal_State_Penalty>
-0

> <b_epik_Metal_Only>
0

> <s_lp_Force_Field>
OPLS_2005

> <r_lp_Energy>
19.0862

> <b_lp_Chiralities_Consistent>
1

> <s_lp_Variant>
AV-unprocessed.smi:415-4

> <Gold.Version>
5.8.1

> <Gold.Id.Protein>
6NUR|6NUR_protein|mol2

> <Gold.PLP.Fitness>
41.6664

> <Gold.PLP.PLP>
-38.2523

> <Gold.PLP.part.hbond>
-2.0000

> <Gold.PLP.part.metal>
0.0000

> <Gold.PLP.part.buried>
-5.4043

> <Gold.PLP.part.nonpolar>
-32.1307

> <Gold.PLP.part.repulsive>
1.9037

> <Gold.PLP.ligand.clash>
0.0000

> <Gold.PLP.ligand.torsion>
0.0684

> <Gold.PLP.Chemscore.Hbond>
1.1635

> <Gold.PLP.Chemscore.CHOScore>
0.0000

> <Gold.PLP.Chemscore.Metal>
0.0000

> <Gold.Chemscore.Hbonds>
donor molecule, donor type, donor heavy atom, donor atom, acceptor molecule, acceptor atom, score
      P1  H 10752 10764       L1    14  0.01

> <Gold.PLP.Chemscore.Internal.Correction>
0.0602

> <Gold.Rescore>
     Score         DG    S(hbond)    S(metal)    S(lipo)     H(rot)  DE(clash)    DE(int)     intcor
     10.95     -12.74       1.51        0.00      68.51       2.26       0.00       1.79       ----

> <Gold.Chemscore.Fitness>
10.9465

> <Gold.Chemscore.DG>
-12.7380

> <Gold.Chemscore.ZeroCoef>
-5.4800

> <Gold.Chemscore.Hbond>
1.5090

> <Gold.Chemscore.Metal>
0.0000

> <Gold.Chemscore.Lipo>
68.5062

> <Gold.Chemscore.Internal_Hbond>
0.0000

> <Gold.Chemscore.DEClash>
0.0000

> <Gold.Chemscore.DEInternal>
1.7915

> <Gold.Chemscore.Rot>
2.2645

> <Gold.Chemscore.Internal.Correction>
   9.000000E+99

> <Gold.Chemscore.Hbond.Weighted>
-5.0399

> <Gold.Chemscore.Metal.Weighted>
-0.0000

> <Gold.Chemscore.Lipo.Weighted>
-8.0152

> <Gold.Chemscore.Internal_Hbond.Weighted>
0.0000

> <Gold.Chemscore.DEClash.Weighted>
0.0000

> <Gold.Chemscore.DEInternal.Weighted>
1.7915

> <Gold.Chemscore.Rot.Weighted>
5.7972

> <Gold.Chemscore.Internal.Correction.Weighted>
   9.000000E+99

> <Gold.Protein.RotatedTorsions>
[ 6907 6896 6895 6894 ] final -151.11 input  -60.11 | X-H torsion
[ 7974 7965 7964 7962 ] final  126.39 input  175.53 | X-H torsion
[ 8008 7997 7996 7995 ] final  -34.37 input   59.86 | X-H torsion
[ 10167 10162 10161 10158 ] final   97.41 input  -65.29 | X-H torsion
[ 10718 10713 10712 10709 ] final   -0.76 input   66.30 | X-H torsion
[ 10763 10752 10751 10750 ] final  -58.86 input  -60.55 | X-H torsion
[ 11005 11000 10999 10996 ] final -172.94 input  -57.11 | X-H torsion

> <Gold.Protein.ActiveResidues>
 VAL166  LYS551  ARG553  GLY616  TRP617  ASP618  TYR619  PRO620  LYS621  CYS622 
 ASP623  PHE694  ASN695  SER759  ASP760  ASP761  ALA762  ILE779  LEU786  VAL792 
 PHE793  MET794  SER795  GLU796  ALA797  LYS798  CYS799  TRP800  GLU811  SER814 

> <Gold.Protein.RotatedAtoms>
  151.2083  133.4571  159.2597 H   0  0  0  0  0  0  0  0  0  0  0  0  # atno 6907 bound_to 6896
  151.1002  134.9968  159.8455 H   0  0  0  0  0  0  0  0  0  0  0  0  # atno 6908 bound_to 6896
  152.5442  134.2010  159.8765 H   0  0  0  0  0  0  0  0  0  0  0  0  # atno 6909 bound_to 6896
  145.0623  139.3795  143.4999 H   0  0  0  0  0  0  0  0  0  0  0  0  # atno 7974 bound_to 7965
  154.4123  140.1686  156.2038 H   0  0  0  0  0  0  0  0  0  0  0  0  # atno 8008 bound_to 7997
  155.9502  140.3401  155.6377 H   0  0  0  0  0  0  0  0  0  0  0  0  # atno 8009 bound_to 7997
  155.6880  140.0730  157.2450 H   0  0  0  0  0  0  0  0  0  0  0  0  # atno 8010 bound_to 7997
  139.7803  144.6890  151.0031 H   0  0  0  0  0  0  0  0  0  0  0  0  # atno 10167 bound_to 10162
  156.8156  130.5439  149.5703 H   0  0  0  0  0  0  0  0  0  0  0  0  # atno 10718 bound_to 10713
  154.2447  135.6337  153.5219 H   0  0  0  0  0  0  0  0  0  0  0  0  # atno 10763 bound_to 10752
  152.9923  135.5550  154.5872 H   0  0  0  0  0  0  0  0  0  0  0  0  # atno 10764 bound_to 10752
  154.5386  135.2893  155.1091 H   0  0  0  0  0  0  0  0  0  0  0  0  # atno 10765 bound_to 10752
  140.4913  134.5982  157.4955 H   0  0  0  0  0  0  0  0  0  0  0  0  # atno 11005 bound_to 11000
  146.3525  140.0327  142.8649 LP  0  0  0  0  0  0  0  0  0  0  0  0  # atno 17320 bound_to 7965
  145.1393  140.9562  143.4498 LP  0  0  0  0  0  0  0  0  0  0  0  0  # atno 17321 bound_to 7965
  140.7818  143.4490  151.0441 LP  0  0  0  0  0  0  0  0  0  0  0  0  # atno 17342 bound_to 10162
  139.8171  143.7871  152.3175 LP  0  0  0  0  0  0  0  0  0  0  0  0  # atno 17343 bound_to 10162
  156.1018  130.5975  150.9907 LP  0  0  0  0  0  0  0  0  0  0  0  0  # atno 17370 bound_to 10713
  157.6483  131.0901  150.8106 LP  0  0  0  0  0  0  0  0  0  0  0  0  # atno 17371 bound_to 10713
  139.9768  134.7203  155.9935 LP  0  0  0  0  0  0  0  0  0  0  0  0  # atno 17394 bound_to 11000
  141.1483  133.6552  156.3933 LP  0  0  0  0  0  0  0  0  0  0  0  0  # atno 17395 bound_to 11000

$$$$
