AV-unprocessed.smi:1829|AV-procd|sdf|7430|dock8
  -GOLD-   22720 9113D 1   1.00000     0.00000
 Structure written by MMmdl.
 46 48  0  0  0  0  0  0  0  0  2 V2000
  145.6559  144.6585  160.9862 C   0  0  0  0  0  0  0  0  0  0  0  0
  146.9024  143.9062  160.4951 C   0  0  0  0  0  0  0  0  0  0  0  0
  148.1547  144.7970  160.5269 C   0  0  0  0  0  0  0  0  0  0  0  0
  146.6748  143.2957  159.1184 C   0  0  0  0  0  0  0  0  0  0  0  0
  147.6975  142.5430  158.5033 C   0  0  0  0  0  0  0  0  0  0  0  0
  147.4885  141.9595  157.2395 C   0  0  0  0  0  0  0  0  0  0  0  0
  146.2551  142.1214  156.5744 C   0  0  0  0  0  0  0  0  0  0  0  0
  146.0275  141.4448  155.2301 C   0  0  2  0  0  0  0  0  0  0  0  0
  145.9346  140.0399  155.3417 O   0  0  0  0  0  0  0  0  0  0  0  0
  147.1434  141.7739  154.2163 C   0  0  0  0  0  0  0  0  0  0  0  0
  147.9916  140.6121  153.9040 N   0  0  0  0  0  0  0  0  0  0  0  0
  147.7995  139.5824  153.0281 C   0  0  0  0  0  0  0  0  0  0  0  0
  146.6368  139.3799  152.1138 C   0  0  0  0  0  0  0  0  0  0  0  0
  146.8519  138.3304  151.1972 O   0  0  0  0  0  0  0  0  0  0  0  0
  148.8793  138.7578  153.1326 N   0  3  0  0  0  0  0  0  0  0  0  0
  149.7710  139.2633  154.0789 C   0  0  0  0  0  0  0  0  0  0  0  0
  150.9960  138.7790  154.5272 C   0  0  0  0  0  0  0  0  0  0  0  0
  151.6583  139.5455  155.5083 C   0  0  0  0  0  0  0  0  0  0  0  0
  151.1021  140.7428  156.0044 C   0  0  0  0  0  0  0  0  0  0  0  0
  149.8591  141.2235  155.5423 C   0  0  0  0  0  0  0  0  0  0  0  0
  149.2099  140.4580  154.5744 C   0  0  0  0  0  0  0  0  0  0  0  0
  145.2341  142.8815  157.1845 C   0  0  0  0  0  0  0  0  0  0  0  0
  145.4423  143.4627  158.4497 C   0  0  0  0  0  0  0  0  0  0  0  0
  144.7876  143.9993  161.0146 H   0  0  0  0  0  0  0  0  0  0  0  0
  145.4131  145.5007  160.3376 H   0  0  0  0  0  0  0  0  0  0  0  0
  145.8047  145.0489  161.9932 H   0  0  0  0  0  0  0  0  0  0  0  0
  147.0782  143.0874  161.1942 H   0  0  0  0  0  0  0  0  0  0  0  0
  149.0389  144.2394  160.2165 H   0  0  0  0  0  0  0  0  0  0  0  0
  148.3405  145.1738  161.5329 H   0  0  0  0  0  0  0  0  0  0  0  0
  148.0555  145.6591  159.8669 H   0  0  0  0  0  0  0  0  0  0  0  0
  148.6459  142.4023  159.0010 H   0  0  0  0  0  0  0  0  0  0  0  0
  148.2757  141.3739  156.7879 H   0  0  0  0  0  0  0  0  0  0  0  0
  145.0689  141.7819  154.8345 H   0  0  0  0  0  0  0  0  0  0  0  0
  145.0281  139.7907  155.2431 H   0  0  0  0  0  0  0  0  0  0  0  0
  146.7154  142.1391  153.2820 H   0  0  0  0  0  0  0  0  0  0  0  0
  147.7874  142.5713  154.5902 H   0  0  0  0  0  0  0  0  0  0  0  0
  145.7474  139.1574  152.7040 H   0  0  0  0  0  0  0  0  0  0  0  0
  146.4324  140.2984  151.5657 H   0  0  0  0  0  0  0  0  0  0  0  0
  147.1379  137.5673  151.6760 H   0  0  0  0  0  0  0  0  0  0  0  0
  151.4245  137.8628  154.1480 H   0  0  0  0  0  0  0  0  0  0  0  0
  152.6123  139.2086  155.8876 H   0  0  0  0  0  0  0  0  0  0  0  0
  151.6394  141.3040  156.7551 H   0  0  0  0  0  0  0  0  0  0  0  0
  149.4411  142.1414  155.9285 H   0  0  0  0  0  0  0  0  0  0  0  0
  144.2805  143.0074  156.6928 H   0  0  0  0  0  0  0  0  0  0  0  0
  144.6463  144.0309  158.9079 H   0  0  0  0  0  0  0  0  0  0  0  0
  148.9949  137.9113  152.5901 H   0  0  0  0  0  0  0  0  0  0  0  0
  1  2  1  0  0  0  0
  1 24  1  0  0  0  0
  1 25  1  0  0  0  0
  1 26  1  0  0  0  0
  2  3  1  0  0  0  0
  2  4  1  0  0  0  0
  2 27  1  0  0  0  0
  3 28  1  0  0  0  0
  3 29  1  0  0  0  0
  3 30  1  0  0  0  0
  4 23  1  0  0  0  0
  4  5  2  0  0  0  0
  5  6  1  0  0  0  0
  5 31  1  0  0  0  0
  6  7  2  0  0  0  0
  6 32  1  0  0  0  0
  7  8  1  0  0  0  0
  7 22  1  0  0  0  0
  8  9  1  0  0  0  0
  8 10  1  0  0  0  0
  8 33  1  0  0  0  0
  9 34  1  0  0  0  0
 10 11  1  0  0  0  0
 10 35  1  0  0  0  0
 10 36  1  0  0  0  0
 11 21  1  0  0  0  0
 11 12  1  0  0  0  0
 12 13  1  0  0  0  0
 12 15  2  0  0  0  0
 13 14  1  0  0  0  0
 13 37  1  0  0  0  0
 13 38  1  0  0  0  0
 14 39  1  0  0  0  0
 15 16  1  0  0  0  0
 15 46  1  0  0  0  0
 16 21  2  0  0  0  0
 16 17  1  0  0  0  0
 17 18  2  0  0  0  0
 17 40  1  0  0  0  0
 18 19  1  0  0  0  0
 18 41  1  0  0  0  0
 19 20  2  0  0  0  0
 19 42  1  0  0  0  0
 20 21  1  0  0  0  0
 20 43  1  0  0  0  0
 22 23  2  0  0  0  0
 22 44  1  0  0  0  0
 23 45  1  0  0  0  0
M  CHG  1  15   1
M  END
> <s_m_source_file>
AV-unprocessed.smi

> <i_m_source_file_index>
1829

> <i_lp_mmshare_version>
43012

> <i_f3d_flags>
0

> <s_epik_input>
W0NIM11bQ0hdKFtDSDNdKWMxW2NIXVtjSF1jKFtjSF1bY0hdMSlbQ0BIXShbT0hdKVtDSDJdbihjKG4yKVtDSDJdW09IXSljKGMyMylbY0hdW2NIXVtjSF1bY0hdMw==

> <s_epik_cmdline>
J2VwaWtfcHl0aG9uJywgJy1waCcsICc3LjAnLCAnLXRuJywgJzgnLCAnLW1hJywgJzIwMCcsICctbWV0YWxfYmluZGluZycsICctaW1hZScsICc8aW5maWxlLm1hZT4nLCAnLW9tYWUnLCAnPG91dGZpbGUubWFlPic=

> <r_epik_Ionization_Penalty>
1.35642

> <r_epik_Ionization_Penalty_Charging>
1.35557

> <r_epik_Ionization_Penalty_Neutral>
0.000856322

> <r_epik_State_Penalty>
1.43401

> <r_epik_Charging_Adjusted_Penalty>
2.78958

> <i_epik_Tot_Q>
1

> <i_epik_Tot_abs_Q>
1

> <r_epik_Metal_State_Penalty>
5.47166

> <b_epik_Metal_Only>
0

> <s_lp_Force_Field>
OPLS_2005

> <r_lp_Energy>
15.3194

> <b_lp_Chiralities_Consistent>
1

> <s_lp_Variant>
AV-unprocessed.smi:1829-3

> <Gold.Version>
5.8.1

> <Gold.Id.Protein>
6NUR|6NUR_protein|mol2

> <Gold.PLP.Fitness>
53.7585

> <Gold.PLP.PLP>
-45.0704

> <Gold.PLP.part.hbond>
-5.0000

> <Gold.PLP.part.metal>
0.0000

> <Gold.PLP.part.buried>
-1.0439

> <Gold.PLP.part.nonpolar>
-38.9011

> <Gold.PLP.part.repulsive>
0.0936

> <Gold.PLP.ligand.clash>
0.0000

> <Gold.PLP.ligand.torsion>
1.2694

> <Gold.PLP.Chemscore.Hbond>
3.7020

> <Gold.PLP.Chemscore.CHOScore>
0.0000

> <Gold.PLP.Chemscore.Metal>
0.0000

> <Gold.Chemscore.Hbonds>
donor molecule, donor type, donor heavy atom, donor atom, acceptor molecule, acceptor atom, score
      L1  H    14    39       P1  7948  0.39
      L1  H    15    46       P1  7948  2.00
      P1  H  7954  7966       L1    14  0.35

> <Gold.PLP.Chemscore.Internal.Correction>
0.1208

> <Gold.Rescore>
     Score         DG    S(hbond)    S(metal)    S(lipo)     H(rot)  DE(clash)    DE(int)     intcor
     11.77     -15.18       2.08        0.00      83.88       2.75       1.54       1.87       ----

> <Gold.Chemscore.Fitness>
11.7738

> <Gold.Chemscore.DG>
-15.1833

> <Gold.Chemscore.ZeroCoef>
-5.4800

> <Gold.Chemscore.Hbond>
2.0784

> <Gold.Chemscore.Metal>
0.0000

> <Gold.Chemscore.Lipo>
83.8817

> <Gold.Chemscore.Internal_Hbond>
0.0000

> <Gold.Chemscore.DEClash>
1.5376

> <Gold.Chemscore.DEInternal>
1.8718

> <Gold.Chemscore.Rot>
2.7550

> <Gold.Chemscore.Internal.Correction>
   9.000000E+99

> <Gold.Chemscore.Hbonds>
donor molecule, donor type, donor heavy atom, donor atom, acceptor molecule, acceptor atom, score
      L1  H    14    39       P1  7948  0.38
      L1  H    15    46       P1  7948  0.99
      P1  H  7954  7966       L1    14  0.01

> <Gold.Chemscore.Hbond.Weighted>
-6.9418

> <Gold.Chemscore.Metal.Weighted>
-0.0000

> <Gold.Chemscore.Lipo.Weighted>
-9.8142

> <Gold.Chemscore.Internal_Hbond.Weighted>
0.0000

> <Gold.Chemscore.DEClash.Weighted>
1.5376

> <Gold.Chemscore.DEInternal.Weighted>
1.8718

> <Gold.Chemscore.Rot.Weighted>
7.0527

> <Gold.Chemscore.Internal.Correction.Weighted>
   9.000000E+99

> <Gold.Protein.RotatedTorsions>
[ 6907 6896 6895 6894 ] final -178.39 input  -60.11 | X-H torsion
[ 7974 7965 7964 7962 ] final -119.86 input  175.53 | X-H torsion
[ 8008 7997 7996 7995 ] final   16.11 input   59.86 | X-H torsion
[ 10167 10162 10161 10158 ] final  -70.51 input  -65.29 | X-H torsion
[ 10718 10713 10712 10709 ] final   72.21 input   66.30 | X-H torsion
[ 10763 10752 10751 10750 ] final  112.55 input  -60.55 | X-H torsion
[ 11005 11000 10999 10996 ] final -101.09 input  -57.11 | X-H torsion

> <Gold.Protein.ActiveResidues>
 VAL166  LYS551  ARG553  GLY616  TRP617  ASP618  TYR619  PRO620  LYS621  CYS622 
 ASP623  PHE694  ASN695  SER759  ASP760  ASP761  ALA762  ILE779  LEU786  VAL792 
 PHE793  MET794  SER795  GLU796  ALA797  LYS798  CYS799  TRP800  GLU811  SER814 

> <Gold.Protein.RotatedAtoms>
  151.6364  133.3328  159.3120 H   0  0  0  0  0  0  0  0  0  0  0  0  # atno 6907 bound_to 6896
  150.8030  134.7140  159.6630 H   0  0  0  0  0  0  0  0  0  0  0  0  # atno 6908 bound_to 6896
  152.4124  134.6106  160.0076 H   0  0  0  0  0  0  0  0  0  0  0  0  # atno 6909 bound_to 6896
  145.0578  140.8267  143.4171 H   0  0  0  0  0  0  0  0  0  0  0  0  # atno 7974 bound_to 7965
  154.8723  140.2960  155.5474 H   0  0  0  0  0  0  0  0  0  0  0  0  # atno 8008 bound_to 7997
  156.3021  140.2458  156.3647 H   0  0  0  0  0  0  0  0  0  0  0  0  # atno 8009 bound_to 7997
  154.8804  140.0398  157.1768 H   0  0  0  0  0  0  0  0  0  0  0  0  # atno 8010 bound_to 7997
  140.5346  143.2319  151.7200 H   0  0  0  0  0  0  0  0  0  0  0  0  # atno 10167 bound_to 10162
  157.6490  130.9567  150.0897 H   0  0  0  0  0  0  0  0  0  0  0  0  # atno 10718 bound_to 10713
  153.4794  135.3683  155.2434 H   0  0  0  0  0  0  0  0  0  0  0  0  # atno 10763 bound_to 10752
  154.8755  135.3950  154.3718 H   0  0  0  0  0  0  0  0  0  0  0  0  # atno 10764 bound_to 10752
  153.4319  135.7082  153.6290 H   0  0  0  0  0  0  0  0  0  0  0  0  # atno 10765 bound_to 10752
  141.1245  133.8451  157.1187 H   0  0  0  0  0  0  0  0  0  0  0  0  # atno 11005 bound_to 11000
  145.1447  139.2551  143.5472 LP  0  0  0  0  0  0  0  0  0  0  0  0  # atno 17320 bound_to 7965
  146.3522  140.1133  142.8603 LP  0  0  0  0  0  0  0  0  0  0  0  0  # atno 17321 bound_to 7965
  139.4966  144.4062  152.0129 LP  0  0  0  0  0  0  0  0  0  0  0  0  # atno 17342 bound_to 10162
  140.3166  144.3476  150.6020 LP  0  0  0  0  0  0  0  0  0  0  0  0  # atno 17343 bound_to 10162
  156.1849  130.3652  149.8986 LP  0  0  0  0  0  0  0  0  0  0  0  0  # atno 17370 bound_to 10713
  156.6928  130.8902  151.3590 LP  0  0  0  0  0  0  0  0  0  0  0  0  # atno 17371 bound_to 10713
  140.0230  134.9937  157.0630 LP  0  0  0  0  0  0  0  0  0  0  0  0  # atno 17394 bound_to 11000
  140.4408  134.1683  155.7174 LP  0  0  0  0  0  0  0  0  0  0  0  0  # atno 17395 bound_to 11000

$$$$
