AV-unprocessed.smi:2323|AV-procd|sdf|9289|dock9
  -GOLD-   2272012513D 1   1.00000     0.00000
 Structure written by MMmdl.
 30 31  0  0  0  0  0  0  0  0  1 V2000
  147.1196  140.7231  153.0475 C   0  0  0  0  0  0  0  0  0  0  0  0
  148.3882  140.3846  153.6737 N   0  0  0  0  0  0  0  0  0  0  0  0
  148.6564  140.5538  154.9775 C   0  0  0  0  0  0  0  0  0  0  0  0
  147.8558  141.0403  155.7767 O   0  0  0  0  0  0  0  0  0  0  0  0
  150.0428  140.1715  155.4109 C   0  0  0  0  0  0  0  0  0  0  0  0
  150.8221  139.2975  154.6223 C   0  0  0  0  0  0  0  0  0  0  0  0
  152.1251  138.9807  155.0507 C   0  0  0  0  0  0  0  0  0  0  0  0
  152.6751  139.4759  156.1786 N   0  0  0  0  0  0  0  0  0  0  0  0
  151.9353  140.3241  156.9344 C   0  0  0  0  0  0  0  0  0  0  0  0
  152.4839  140.8481  158.0883 O   0  0  0  0  0  0  0  0  0  0  0  0
  151.7324  141.7824  158.8660 C   0  0  2  0  0  0  0  0  0  0  0  0
  151.5754  143.1070  158.1295 C   0  0  0  0  0  0  0  0  0  0  0  0
  152.8228  143.8688  158.5517 C   0  0  0  0  0  0  0  0  0  0  0  0
  152.9472  143.5318  159.9225 O   0  0  0  0  0  0  0  0  0  0  0  0
  152.5759  142.1670  160.0913 C   0  0  0  0  0  0  0  0  0  0  0  0
  150.6219  140.7006  156.5875 C   0  0  0  0  0  0  0  0  0  0  0  0
  147.1624  140.5070  151.9802 H   0  0  0  0  0  0  0  0  0  0  0  0
  146.8949  141.7832  153.1720 H   0  0  0  0  0  0  0  0  0  0  0  0
  146.3058  140.1408  153.4813 H   0  0  0  0  0  0  0  0  0  0  0  0
  149.1099  139.9987  153.0821 H   0  0  0  0  0  0  0  0  0  0  0  0
  150.4345  138.8728  153.7073 H   0  0  0  0  0  0  0  0  0  0  0  0
  152.7437  138.3122  154.4702 H   0  0  0  0  0  0  0  0  0  0  0  0
  150.7745  141.3656  159.1820 H   0  0  0  0  0  0  0  0  0  0  0  0
  151.4860  143.0061  157.0477 H   0  0  0  0  0  0  0  0  0  0  0  0
  150.6887  143.6281  158.4930 H   0  0  0  0  0  0  0  0  0  0  0  0
  153.6994  143.5167  158.0055 H   0  0  0  0  0  0  0  0  0  0  0  0
  152.7318  144.9455  158.4070 H   0  0  0  0  0  0  0  0  0  0  0  0
  152.0117  142.0588  161.0182 H   0  0  0  0  0  0  0  0  0  0  0  0
  153.4701  141.5472  160.1726 H   0  0  0  0  0  0  0  0  0  0  0  0
  150.0801  141.3888  157.2200 H   0  0  0  0  0  0  0  0  0  0  0  0
  1  2  1  0  0  0  0
  1 17  1  0  0  0  0
  1 18  1  0  0  0  0
  1 19  1  0  0  0  0
  2  3  1  0  0  0  0
  2 20  1  0  0  0  0
  3  4  2  0  0  0  0
  3  5  1  0  0  0  0
  5 16  1  0  0  0  0
  5  6  2  0  0  0  0
  6  7  1  0  0  0  0
  6 21  1  0  0  0  0
  7  8  2  0  0  0  0
  7 22  1  0  0  0  0
  8  9  1  0  0  0  0
  9 10  1  0  0  0  0
  9 16  2  0  0  0  0
 10 11  1  0  0  0  0
 11 15  1  0  0  0  0
 11 12  1  0  0  0  0
 11 23  1  0  0  0  0
 12 13  1  0  0  0  0
 12 24  1  0  0  0  0
 12 25  1  0  0  0  0
 13 14  1  0  0  0  0
 13 26  1  0  0  0  0
 13 27  1  0  0  0  0
 14 15  1  0  0  0  0
 15 28  1  0  0  0  0
 15 29  1  0  0  0  0
 16 30  1  0  0  0  0
M  END
> <s_m_source_file>
AV-unprocessed.smi

> <i_m_source_file_index>
2323

> <i_lp_mmshare_version>
43012

> <i_f3d_flags>
0

> <s_epik_input>
W0NIM11bTkhdQyg9TyljMVtjSF1bY0hdbmMoW2NIXTEpT1tDQEBIXTJbQ0gyXVtDSDJdT1tDSDJdMg==

> <s_epik_cmdline>
J2VwaWtfcHl0aG9uJywgJy1waCcsICc3LjAnLCAnLXRuJywgJzgnLCAnLW1hJywgJzIwMCcsICctbWV0YWxfYmluZGluZycsICctaW1hZScsICc8aW5maWxlLm1hZT4nLCAnLW9tYWUnLCAnPG91dGZpbGUubWFlPic=

> <r_lp_tautomer_probability>
1

> <r_epik_Ionization_Penalty>
2.2633e-06

> <r_epik_Ionization_Penalty_Charging>
0

> <r_epik_Ionization_Penalty_Neutral>
2.2633e-06

> <r_epik_State_Penalty>
-0

> <r_epik_Charging_Adjusted_Penalty>
0

> <i_epik_Tot_Q>
0

> <i_epik_Tot_abs_Q>
0

> <r_epik_Metal_State_Penalty>
-0

> <b_epik_Metal_Only>
0

> <s_lp_Force_Field>
OPLS_2005

> <r_lp_Energy>
16.8838

> <b_lp_Chiralities_Consistent>
1

> <s_lp_Variant>
AV-unprocessed.smi:2323-1

> <Gold.Version>
5.8.1

> <Gold.Id.Protein>
6NUR|6NUR_protein|mol2

> <Gold.PLP.Fitness>
36.9395

> <Gold.PLP.PLP>
-31.9197

> <Gold.PLP.part.hbond>
-2.2664

> <Gold.PLP.part.metal>
0.0000

> <Gold.PLP.part.buried>
-3.2679

> <Gold.PLP.part.nonpolar>
-26.8313

> <Gold.PLP.part.repulsive>
0.1870

> <Gold.PLP.ligand.clash>
0.0000

> <Gold.PLP.ligand.torsion>
0.1994

> <Gold.PLP.Chemscore.Hbond>
1.8000

> <Gold.PLP.Chemscore.CHOScore>
0.0000

> <Gold.PLP.Chemscore.Metal>
0.0000

> <Gold.Chemscore.Hbonds>
donor molecule, donor type, donor heavy atom, donor atom, acceptor molecule, acceptor atom, score
      L1  H     2    20       P1  7957  0.75
      P1  H  7997  8009       L1     8  1.00

> <Gold.PLP.Chemscore.Internal.Correction>
0.0185

> <Gold.Rescore>
     Score         DG    S(hbond)    S(metal)    S(lipo)     H(rot)  DE(clash)    DE(int)     intcor
     16.34     -17.18       1.66        0.00      79.85       1.24       0.60       0.24       ----

> <Gold.Chemscore.Fitness>
16.3352

> <Gold.Chemscore.DG>
-17.1789

> <Gold.Chemscore.ZeroCoef>
-5.4800

> <Gold.Chemscore.Hbond>
1.6595

> <Gold.Chemscore.Metal>
0.0000

> <Gold.Chemscore.Lipo>
79.8534

> <Gold.Chemscore.Internal_Hbond>
0.0000

> <Gold.Chemscore.DEClash>
0.6036

> <Gold.Chemscore.DEInternal>
0.2402

> <Gold.Chemscore.Rot>
1.2448

> <Gold.Chemscore.Internal.Correction>
   9.000000E+99

> <Gold.Chemscore.Hbonds>
donor molecule, donor type, donor heavy atom, donor atom, acceptor molecule, acceptor atom, score
      L1  H     2    20       P1  7957  0.74
      P1  H  7997  8009       L1     8  0.35

> <Gold.Chemscore.Hbond.Weighted>
-5.5426

> <Gold.Chemscore.Metal.Weighted>
-0.0000

> <Gold.Chemscore.Lipo.Weighted>
-9.3429

> <Gold.Chemscore.Internal_Hbond.Weighted>
0.0000

> <Gold.Chemscore.DEClash.Weighted>
0.6036

> <Gold.Chemscore.DEInternal.Weighted>
0.2402

> <Gold.Chemscore.Rot.Weighted>
3.1866

> <Gold.Chemscore.Internal.Correction.Weighted>
   9.000000E+99

> <Gold.Protein.RotatedTorsions>
[ 6907 6896 6895 6894 ] final   39.79 input  -60.11 | X-H torsion
[ 7974 7965 7964 7962 ] final   24.41 input  175.53 | X-H torsion
[ 8008 7997 7996 7995 ] final -167.69 input   59.86 | X-H torsion
[ 10167 10162 10161 10158 ] final  -31.03 input  -65.29 | X-H torsion
[ 10718 10713 10712 10709 ] final -111.10 input   66.30 | X-H torsion
[ 10763 10752 10751 10750 ] final   12.44 input  -60.55 | X-H torsion
[ 11005 11000 10999 10996 ] final  155.25 input  -57.11 | X-H torsion

> <Gold.Protein.ActiveResidues>
 VAL166  LYS551  ARG553  GLY616  TRP617  ASP618  TYR619  PRO620  LYS621  CYS622 
 ASP623  PHE694  ASN695  SER759  ASP760  ASP761  ALA762  ILE779  LEU786  VAL792 
 PHE793  MET794  SER795  GLU796  ALA797  LYS798  CYS799  TRP800  GLU811  SER814 

> <Gold.Protein.RotatedAtoms>
  152.1742  134.8809  160.0531 H   0  0  0  0  0  0  0  0  0  0  0  0  # atno 6907 bound_to 6896
  151.9757  133.3736  159.4096 H   0  0  0  0  0  0  0  0  0  0  0  0  # atno 6908 bound_to 6896
  150.6906  134.4015  159.5165 H   0  0  0  0  0  0  0  0  0  0  0  0  # atno 6909 bound_to 6896
  146.1938  139.7608  142.8812 H   0  0  0  0  0  0  0  0  0  0  0  0  # atno 7974 bound_to 7965
  155.8812  140.1009  157.1484 H   0  0  0  0  0  0  0  0  0  0  0  0  # atno 8008 bound_to 7997
  154.4005  140.1328  156.4262 H   0  0  0  0  0  0  0  0  0  0  0  0  # atno 8009 bound_to 7997
  155.7641  140.3462  155.5215 H   0  0  0  0  0  0  0  0  0  0  0  0  # atno 8010 bound_to 7997
  140.7241  143.3802  151.1615 H   0  0  0  0  0  0  0  0  0  0  0  0  # atno 10167 bound_to 10162
  156.0628  130.5850  150.8328 H   0  0  0  0  0  0  0  0  0  0  0  0  # atno 10718 bound_to 10713
  153.1822  135.6829  153.8463 H   0  0  0  0  0  0  0  0  0  0  0  0  # atno 10763 bound_to 10752
  153.7791  135.3185  155.3364 H   0  0  0  0  0  0  0  0  0  0  0  0  # atno 10764 bound_to 10752
  154.8066  135.4744  154.0504 H   0  0  0  0  0  0  0  0  0  0  0  0  # atno 10765 bound_to 10752
  140.1564  134.8640  157.2519 H   0  0  0  0  0  0  0  0  0  0  0  0  # atno 11005 bound_to 11000
  145.3707  141.0342  143.3232 LP  0  0  0  0  0  0  0  0  0  0  0  0  # atno 17320 bound_to 7965
  144.8540  139.5278  143.6843 LP  0  0  0  0  0  0  0  0  0  0  0  0  # atno 17321 bound_to 7965
  139.7389  143.8955  152.3044 LP  0  0  0  0  0  0  0  0  0  0  0  0  # atno 17342 bound_to 10162
  139.8769  144.7038  150.8922 LP  0  0  0  0  0  0  0  0  0  0  0  0  # atno 17343 bound_to 10162
  157.5649  131.0946  150.9505 LP  0  0  0  0  0  0  0  0  0  0  0  0  # atno 17370 bound_to 10713
  156.9734  130.5499  149.5292 LP  0  0  0  0  0  0  0  0  0  0  0  0  # atno 17371 bound_to 10713
  140.2543  134.3646  155.7430 LP  0  0  0  0  0  0  0  0  0  0  0  0  # atno 17394 bound_to 11000
  141.2205  133.7334  156.8983 LP  0  0  0  0  0  0  0  0  0  0  0  0  # atno 17395 bound_to 11000

$$$$
