AV-unprocessed.smi:1963|AV-procd|sdf|7926|dock5
  -GOLD-   2272010 93D 1   1.00000     0.00000
 Structure written by MMmdl.
 47 48  0  0  0  0  0  0  0  0  1 V2000
  158.4835  135.8621  162.9287 C   0  0  0  0  0  0  0  0  0  0  0  0
  157.1837  135.3056  162.3586 C   0  0  0  0  0  0  0  0  0  0  0  0
  157.2060  134.3351  161.6019 O   0  0  0  0  0  0  0  0  0  0  0  0
  156.0555  135.9294  162.7327 N   0  0  0  0  0  0  0  0  0  0  0  0
  154.7037  135.5719  162.2958 C   0  0  2  0  0  0  0  0  0  0  0  0
  154.0881  136.7733  161.5516 C   0  0  0  0  0  0  0  0  0  0  0  0
  153.2705  136.5848  160.6498 O   0  0  0  0  0  0  0  0  0  0  0  0
  154.5043  137.9851  161.9632 N   0  0  0  0  0  0  0  0  0  0  0  0
  154.1517  139.2647  161.4568 C   0  0  0  0  0  0  0  0  0  0  0  0
  153.4574  139.3219  160.2321 C   0  0  0  0  0  0  0  0  0  0  0  0
  153.0658  140.5739  159.7215 C   0  0  0  0  0  0  0  0  0  0  0  0
  153.3751  141.7358  160.4647 C   0  0  0  0  0  0  0  0  0  0  0  0
  153.0112  143.0132  160.0177 N   0  0  0  0  0  0  0  0  0  0  0  0
  152.0073  143.6726  160.8435 C   0  0  0  0  0  0  0  0  0  0  0  0
  151.7828  145.1104  160.3451 C   0  0  0  0  0  0  0  0  0  0  0  0
  151.4166  145.0837  158.9681 O   0  0  0  0  0  0  0  0  0  0  0  0
  152.4336  144.5038  158.1553 C   0  0  0  0  0  0  0  0  0  0  0  0
  152.6872  143.0518  158.5981 C   0  0  0  0  0  0  0  0  0  0  0  0
  154.0351  141.6899  161.6419 N   0  0  0  0  0  0  0  0  0  0  0  0
  154.4091  140.4860  162.1258 C   0  0  0  0  0  0  0  0  0  0  0  0
  153.8455  135.2196  163.5470 C   0  0  0  0  0  0  0  0  0  0  0  0
  153.4377  136.4795  164.3361 C   0  0  0  0  0  0  0  0  0  0  0  0
  154.5469  134.2332  164.5044 C   0  0  0  0  0  0  0  0  0  0  0  0
  158.5185  136.9466  162.8195 H   0  0  0  0  0  0  0  0  0  0  0  0
  159.3451  135.4402  162.4104 H   0  0  0  0  0  0  0  0  0  0  0  0
  158.5667  135.6172  163.9877 H   0  0  0  0  0  0  0  0  0  0  0  0
  156.1360  136.7223  163.3527 H   0  0  0  0  0  0  0  0  0  0  0  0
  154.7501  134.7045  161.6337 H   0  0  0  0  0  0  0  0  0  0  0  0
  155.1081  137.9913  162.7726 H   0  0  0  0  0  0  0  0  0  0  0  0
  153.2275  138.4185  159.6861 H   0  0  0  0  0  0  0  0  0  0  0  0
  152.5404  140.6343  158.7800 H   0  0  0  0  0  0  0  0  0  0  0  0
  151.0676  143.1205  160.8032 H   0  0  0  0  0  0  0  0  0  0  0  0
  152.3334  143.6818  161.8844 H   0  0  0  0  0  0  0  0  0  0  0  0
  150.9863  145.5874  160.9162 H   0  0  0  0  0  0  0  0  0  0  0  0
  152.6809  145.7149  160.4824 H   0  0  0  0  0  0  0  0  0  0  0  0
  152.1134  144.5290  157.1136 H   0  0  0  0  0  0  0  0  0  0  0  0
  153.3477  145.0963  158.2220 H   0  0  0  0  0  0  0  0  0  0  0  0
  153.5053  142.6211  158.0194 H   0  0  0  0  0  0  0  0  0  0  0  0
  151.8011  142.4448  158.4068 H   0  0  0  0  0  0  0  0  0  0  0  0
  154.9026  140.5202  163.0843 H   0  0  0  0  0  0  0  0  0  0  0  0
  152.9236  134.7415  163.2108 H   0  0  0  0  0  0  0  0  0  0  0  0
  154.3139  137.0271  164.6843 H   0  0  0  0  0  0  0  0  0  0  0  0
  152.8419  136.2189  165.2112 H   0  0  0  0  0  0  0  0  0  0  0  0
  152.8359  137.1621  163.7361 H   0  0  0  0  0  0  0  0  0  0  0  0
  155.5058  134.6267  164.8427 H   0  0  0  0  0  0  0  0  0  0  0  0
  154.7293  133.2648  164.0386 H   0  0  0  0  0  0  0  0  0  0  0  0
  153.9374  134.0449  165.3885 H   0  0  0  0  0  0  0  0  0  0  0  0
  1  2  1  0  0  0  0
  1 24  1  0  0  0  0
  1 25  1  0  0  0  0
  1 26  1  0  0  0  0
  2  3  2  0  0  0  0
  2  4  1  0  0  0  0
  4  5  1  0  0  0  0
  4 27  1  0  0  0  0
  5  6  1  0  0  0  0
  5 21  1  0  0  0  0
  5 28  1  0  0  0  0
  6  7  2  0  0  0  0
  6  8  1  0  0  0  0
  8  9  1  0  0  0  0
  8 29  1  0  0  0  0
  9 20  1  0  0  0  0
  9 10  2  0  0  0  0
 10 11  1  0  0  0  0
 10 30  1  0  0  0  0
 11 12  2  0  0  0  0
 11 31  1  0  0  0  0
 12 13  1  0  0  0  0
 12 19  1  0  0  0  0
 13 18  1  0  0  0  0
 13 14  1  0  0  0  0
 14 15  1  0  0  0  0
 14 32  1  0  0  0  0
 14 33  1  0  0  0  0
 15 16  1  0  0  0  0
 15 34  1  0  0  0  0
 15 35  1  0  0  0  0
 16 17  1  0  0  0  0
 17 18  1  0  0  0  0
 17 36  1  0  0  0  0
 17 37  1  0  0  0  0
 18 38  1  0  0  0  0
 18 39  1  0  0  0  0
 19 20  2  0  0  0  0
 20 40  1  0  0  0  0
 21 22  1  0  0  0  0
 21 23  1  0  0  0  0
 21 41  1  0  0  0  0
 22 42  1  0  0  0  0
 22 43  1  0  0  0  0
 22 44  1  0  0  0  0
 23 45  1  0  0  0  0
 23 46  1  0  0  0  0
 23 47  1  0  0  0  0
M  END
> <s_m_source_file>
AV-unprocessed.smi

> <i_m_source_file_index>
1963

> <i_lp_mmshare_version>
43012

> <i_f3d_flags>
0

> <s_epik_input>
W0NIM11DKD1PKVtOSF1bQ0BASF0oW0NIXShbQ0gzXSlbQ0gzXSlDKD1PKVtOSF1jMVtjSF1bY0hdYyhuW2NIXTEpTjJbQ0gyXVtDSDJdT1tDSDJdW0NIMl0y

> <s_epik_cmdline>
J2VwaWtfcHl0aG9uJywgJy1waCcsICc3LjAnLCAnLXRuJywgJzgnLCAnLW1hJywgJzIwMCcsICctbWV0YWxfYmluZGluZycsICctaW1hZScsICc8aW5maWxlLm1hZT4nLCAnLW9tYWUnLCAnPG91dGZpbGUubWFlPic=

> <r_lp_tautomer_probability>
1

> <r_epik_Ionization_Penalty>
0.00051446

> <r_epik_Ionization_Penalty_Charging>
0

> <r_epik_Ionization_Penalty_Neutral>
0.00051446

> <r_epik_State_Penalty>
0.00031949

> <r_epik_Charging_Adjusted_Penalty>
0.00031949

> <i_epik_Tot_Q>
0

> <i_epik_Tot_abs_Q>
0

> <r_epik_Metal_State_Penalty>
-0

> <b_epik_Metal_Only>
0

> <s_lp_Force_Field>
OPLS_2005

> <r_lp_Energy>
27.6856

> <b_lp_Chiralities_Consistent>
1

> <s_lp_Variant>
AV-unprocessed.smi:1963-1

> <Gold.Version>
5.8.1

> <Gold.Id.Protein>
6NUR|6NUR_protein|mol2

> <Gold.PLP.Fitness>
44.2619

> <Gold.PLP.PLP>
-44.1681

> <Gold.PLP.part.hbond>
-1.8141

> <Gold.PLP.part.metal>
0.0000

> <Gold.PLP.part.buried>
-5.3504

> <Gold.PLP.part.nonpolar>
-36.4223

> <Gold.PLP.part.repulsive>
0.1198

> <Gold.PLP.ligand.clash>
0.1118

> <Gold.PLP.ligand.torsion>
1.2600

> <Gold.PLP.Chemscore.Hbond>
0.8613

> <Gold.PLP.Chemscore.CHOScore>
0.0000

> <Gold.PLP.Chemscore.Metal>
0.0000

> <Gold.Chemscore.Hbonds>
donor molecule, donor type, donor heavy atom, donor atom, acceptor molecule, acceptor atom, score
      P1  H  6896  6909       L1     7  0.99

> <Gold.PLP.Chemscore.Internal.Correction>
0.1419

> <Gold.Rescore>
     Score         DG    S(hbond)    S(metal)    S(lipo)     H(rot)  DE(clash)    DE(int)     intcor
     14.73     -17.38       0.98        0.00     111.64       1.74       0.33       2.32       ----

> <Gold.Chemscore.Fitness>
14.7277

> <Gold.Chemscore.DG>
-17.3763

> <Gold.Chemscore.ZeroCoef>
-5.4800

> <Gold.Chemscore.Hbond>
0.9842

> <Gold.Chemscore.Metal>
0.0000

> <Gold.Chemscore.Lipo>
111.6401

> <Gold.Chemscore.Internal_Hbond>
0.0000

> <Gold.Chemscore.DEClash>
0.3319

> <Gold.Chemscore.DEInternal>
2.3167

> <Gold.Chemscore.Rot>
1.7394

> <Gold.Chemscore.Internal.Correction>
   9.000000E+99

> <Gold.Chemscore.Hbonds>
donor molecule, donor type, donor heavy atom, donor atom, acceptor molecule, acceptor atom, score
      P1  H  6896  6909       L1     7  0.92

> <Gold.Chemscore.Hbond.Weighted>
-3.2872

> <Gold.Chemscore.Metal.Weighted>
-0.0000

> <Gold.Chemscore.Lipo.Weighted>
-13.0619

> <Gold.Chemscore.Internal_Hbond.Weighted>
0.0000

> <Gold.Chemscore.DEClash.Weighted>
0.3319

> <Gold.Chemscore.DEInternal.Weighted>
2.3167

> <Gold.Chemscore.Rot.Weighted>
4.4528

> <Gold.Chemscore.Internal.Correction.Weighted>
   9.000000E+99

> <Gold.Protein.RotatedTorsions>
[ 6907 6896 6895 6894 ] final  155.20 input  -60.11 | X-H torsion
[ 7974 7965 7964 7962 ] final   -8.16 input  175.53 | X-H torsion
[ 8008 7997 7996 7995 ] final   -9.31 input   59.86 | X-H torsion
[ 10167 10162 10161 10158 ] final -178.32 input  -65.29 | X-H torsion
[ 10718 10713 10712 10709 ] final  139.21 input   66.30 | X-H torsion
[ 10763 10752 10751 10750 ] final  -20.49 input  -60.55 | X-H torsion
[ 11005 11000 10999 10996 ] final  177.49 input  -57.11 | X-H torsion

> <Gold.Protein.ActiveResidues>
 VAL166  LYS551  ARG553  GLY616  TRP617  ASP618  TYR619  PRO620  LYS621  CYS622 
 ASP623  PHE694  ASN695  SER759  ASP760  ASP761  ALA762  ILE779  LEU786  VAL792 
 PHE793  MET794  SER795  GLU796  ALA797  LYS798  CYS799  TRP800  GLU811  SER814 

> <Gold.Protein.RotatedAtoms>
  152.0476  133.4004  159.4362 H   0  0  0  0  0  0  0  0  0  0  0  0  # atno 6907 bound_to 6896
  150.6872  134.3345  159.4850 H   0  0  0  0  0  0  0  0  0  0  0  0  # atno 6908 bound_to 6896
  152.1151  134.9246  160.0616 H   0  0  0  0  0  0  0  0  0  0  0  0  # atno 6909 bound_to 6896
  146.2288  140.2426  142.8344 H   0  0  0  0  0  0  0  0  0  0  0  0  # atno 7974 bound_to 7965
  154.5659  140.2358  155.8264 H   0  0  0  0  0  0  0  0  0  0  0  0  # atno 8008 bound_to 7997
  156.2068  140.3037  155.9602 H   0  0  0  0  0  0  0  0  0  0  0  0  # atno 8009 bound_to 7997
  155.2802  140.0422  157.3005 H   0  0  0  0  0  0  0  0  0  0  0  0  # atno 8010 bound_to 7997
  139.5438  144.2292  152.0947 H   0  0  0  0  0  0  0  0  0  0  0  0  # atno 10167 bound_to 10162
  157.4168  131.1034  151.0395 H   0  0  0  0  0  0  0  0  0  0  0  0  # atno 10718 bound_to 10713
  153.6213  135.6992  153.5309 H   0  0  0  0  0  0  0  0  0  0  0  0  # atno 10763 bound_to 10752
  153.2935  135.4150  155.1188 H   0  0  0  0  0  0  0  0  0  0  0  0  # atno 10764 bound_to 10752
  154.8542  135.3631  154.5754 H   0  0  0  0  0  0  0  0  0  0  0  0  # atno 10765 bound_to 10752
  140.3847  134.6915  157.4472 H   0  0  0  0  0  0  0  0  0  0  0  0  # atno 11005 bound_to 11000
  144.9473  140.8141  143.5594 LP  0  0  0  0  0  0  0  0  0  0  0  0  # atno 17320 bound_to 7965
  145.2383  139.2084  143.5006 LP  0  0  0  0  0  0  0  0  0  0  0  0  # atno 17321 bound_to 7965
  140.1774  144.4877  150.6546 LP  0  0  0  0  0  0  0  0  0  0  0  0  # atno 17342 bound_to 10162
  140.6678  143.2274  151.5700 LP  0  0  0  0  0  0  0  0  0  0  0  0  # atno 17343 bound_to 10162
  157.1340  130.6114  149.5537 LP  0  0  0  0  0  0  0  0  0  0  0  0  # atno 17370 bound_to 10713
  155.9868  130.4904  150.7095 LP  0  0  0  0  0  0  0  0  0  0  0  0  # atno 17371 bound_to 10713
  140.0452  134.6210  155.8930 LP  0  0  0  0  0  0  0  0  0  0  0  0  # atno 17394 bound_to 11000
  141.1911  133.6571  156.5443 LP  0  0  0  0  0  0  0  0  0  0  0  0  # atno 17395 bound_to 11000

$$$$
