AV-unprocessed.smi:2892|AV-procd|sdf|11120|dock2
  -GOLD-   2272015593D 1   1.00000     0.00000
 Structure written by MMmdl.
 42 42  0  0  0  0  0  0  0  0  2 V2000
  152.2914  138.6791  154.8013 C   0  0  0  0  0  0  0  0  0  0  0  0
  151.1406  137.9475  154.0945 C   0  0  0  0  0  0  0  0  0  0  0  0
  149.7846  138.0061  154.8472 C   0  0  2  0  0  0  0  0  0  0  0  0
  149.7860  139.1717  155.8639 C   0  0  0  0  0  0  0  0  0  0  0  0
  149.4300  136.6552  155.5443 C   0  0  1  0  0  0  0  0  0  0  0  0
  149.3015  135.6120  154.5280 N   0  0  0  0  0  0  0  0  0  0  0  0
  149.1560  134.2959  154.7540 C   0  0  0  0  0  0  0  0  0  0  0  0
  149.1467  133.7974  155.8793 O   0  0  0  0  0  0  0  0  0  0  0  0
  148.9968  133.3979  153.5216 C   0  0  0  0  0  0  0  0  0  0  0  0
  147.5509  133.2871  153.1071 C   0  0  0  0  0  0  0  0  0  0  0  0
  146.4209  133.0244  153.9329 C   0  0  0  0  0  0  0  0  0  0  0  0
  145.3732  132.9901  153.0584 C   0  0  0  0  0  0  0  0  0  0  0  0
  145.8792  133.2313  151.7987 N   0  0  0  0  0  0  0  0  0  0  0  0
  145.1630  133.2660  150.5324 C   0  0  0  0  0  0  0  0  0  0  0  0
  144.2597  134.5067  150.4464 C   0  0  0  0  0  0  0  0  0  0  0  0
  144.3772  131.9658  150.2953 C   0  0  0  0  0  0  0  0  0  0  0  0
  147.2168  133.4212  151.8311 N   0  0  0  0  0  0  0  0  0  0  0  0
  150.5462  136.2218  156.5125 C   0  0  0  0  0  0  0  0  0  0  0  0
  150.2457  136.0697  157.7183 O   0  0  0  0  0  0  0  0  0  0  0  0
  151.6844  136.0479  156.0249 O   0  5  0  0  0  0  0  0  0  0  0  0
  153.1804  138.6923  154.1708 H   0  0  0  0  0  0  0  0  0  0  0  0
  152.5692  138.1966  155.7378 H   0  0  0  0  0  0  0  0  0  0  0  0
  152.0255  139.7141  155.0179 H   0  0  0  0  0  0  0  0  0  0  0  0
  151.0465  138.3974  153.1067 H   0  0  0  0  0  0  0  0  0  0  0  0
  151.4208  136.9081  153.9198 H   0  0  0  0  0  0  0  0  0  0  0  0
  149.0075  138.2230  154.1122 H   0  0  0  0  0  0  0  0  0  0  0  0
  150.5413  139.0208  156.6356 H   0  0  0  0  0  0  0  0  0  0  0  0
  148.8234  139.2826  156.3631 H   0  0  0  0  0  0  0  0  0  0  0  0
  149.9861  140.1288  155.3845 H   0  0  0  0  0  0  0  0  0  0  0  0
  148.4935  136.7689  156.0939 H   0  0  0  0  0  0  0  0  0  0  0  0
  149.3179  135.9237  153.5682 H   0  0  0  0  0  0  0  0  0  0  0  0
  149.5951  133.8138  152.7105 H   0  0  0  0  0  0  0  0  0  0  0  0
  149.4068  132.4101  153.7364 H   0  0  0  0  0  0  0  0  0  0  0  0
  146.3886  132.8689  155.0011 H   0  0  0  0  0  0  0  0  0  0  0  0
  144.3217  132.8099  153.2262 H   0  0  0  0  0  0  0  0  0  0  0  0
  145.9121  133.3461  149.7435 H   0  0  0  0  0  0  0  0  0  0  0  0
  143.7725  134.5688  149.4732 H   0  0  0  0  0  0  0  0  0  0  0  0
  144.8357  135.4222  150.5851 H   0  0  0  0  0  0  0  0  0  0  0  0
  143.4784  134.4875  151.2072 H   0  0  0  0  0  0  0  0  0  0  0  0
  143.9107  131.9673  149.3100 H   0  0  0  0  0  0  0  0  0  0  0  0
  143.5859  131.8332  151.0340 H   0  0  0  0  0  0  0  0  0  0  0  0
  145.0330  131.0963  150.3481 H   0  0  0  0  0  0  0  0  0  0  0  0
  1  2  1  0  0  0  0
  1 21  1  0  0  0  0
  1 22  1  0  0  0  0
  1 23  1  0  0  0  0
  2  3  1  0  0  0  0
  2 24  1  0  0  0  0
  2 25  1  0  0  0  0
  3  4  1  0  0  0  0
  3  5  1  0  0  0  0
  3 26  1  0  0  0  0
  4 27  1  0  0  0  0
  4 28  1  0  0  0  0
  4 29  1  0  0  0  0
  5  6  1  0  0  0  0
  5 18  1  0  0  0  0
  5 30  1  0  0  0  0
  6  7  1  0  0  0  0
  6 31  1  0  0  0  0
  7  8  2  0  0  0  0
  7  9  1  0  0  0  0
  9 10  1  0  0  0  0
  9 32  1  0  0  0  0
  9 33  1  0  0  0  0
 10 17  2  0  0  0  0
 10 11  1  0  0  0  0
 11 12  2  0  0  0  0
 11 34  1  0  0  0  0
 12 13  1  0  0  0  0
 12 35  1  0  0  0  0
 13 14  1  0  0  0  0
 13 17  1  0  0  0  0
 14 15  1  0  0  0  0
 14 16  1  0  0  0  0
 14 36  1  0  0  0  0
 15 37  1  0  0  0  0
 15 38  1  0  0  0  0
 15 39  1  0  0  0  0
 16 40  1  0  0  0  0
 16 41  1  0  0  0  0
 16 42  1  0  0  0  0
 18 19  2  0  0  0  0
 18 20  1  0  0  0  0
M  CHG  1  20  -1
M  END
> <s_m_source_file>
AV-unprocessed.smi

> <i_m_source_file_index>
2892

> <i_lp_mmshare_version>
43012

> <i_f3d_flags>
0

> <s_epik_input>
W0NIM11bQ0gyXVtDQEhdKFtDSDNdKVtDQEBIXShDKD1PKVtPSF0pW05IXUMoPU8pW0NIMl1jMVtjSF1bY0hdbihuMSlbQ0hdKFtDSDNdKVtDSDNd

> <s_epik_cmdline>
J2VwaWtfcHl0aG9uJywgJy1waCcsICc3LjAnLCAnLXRuJywgJzgnLCAnLW1hJywgJzIwMCcsICctbWV0YWxfYmluZGluZycsICctaW1hZScsICc8aW5maWxlLm1hZT4nLCAnLW9tYWUnLCAnPG91dGZpbGUubWFlPic=

> <r_lp_tautomer_probability>
1

> <r_epik_Ionization_Penalty>
0.000286846

> <r_epik_Ionization_Penalty_Charging>
0.000224481

> <r_epik_Ionization_Penalty_Neutral>
6.23655e-05

> <r_epik_State_Penalty>
-0

> <r_epik_Charging_Adjusted_Penalty>
0.000224481

> <i_epik_Tot_Q>
-1

> <i_epik_Tot_abs_Q>
1

> <r_epik_Metal_State_Penalty>
-0

> <b_epik_Metal_Only>
0

> <s_lp_Force_Field>
OPLS_2005

> <r_lp_Energy>
13.0415

> <b_lp_Chiralities_Consistent>
1

> <s_lp_Variant>
AV-unprocessed.smi:2892-3

> <Gold.Version>
5.8.1

> <Gold.Id.Protein>
6NUR|6NUR_protein|mol2

> <Gold.PLP.Fitness>
46.2257

> <Gold.PLP.PLP>
-33.0117

> <Gold.PLP.part.hbond>
-3.0000

> <Gold.PLP.part.metal>
0.0000

> <Gold.PLP.part.buried>
-6.4718

> <Gold.PLP.part.nonpolar>
-25.3406

> <Gold.PLP.part.repulsive>
0.2733

> <Gold.PLP.ligand.clash>
0.0000

> <Gold.PLP.ligand.torsion>
1.3323

> <Gold.PLP.Chemscore.Hbond>
4.3440

> <Gold.PLP.Chemscore.CHOScore>
0.8926

> <Gold.PLP.Chemscore.Metal>
0.0000

> <Gold.Chemscore.Hbonds>
donor molecule, donor type, donor heavy atom, donor atom, acceptor molecule, acceptor atom, score
      L1  H     6    31       P1  7948  1.00
      P1  H  6896  6907       L1    19  0.16
      P1  H 10752 10765       L1    20  2.00
      L1  C    12    35       P1 10957  1.00

> <Gold.PLP.Chemscore.Internal.Correction>
0.1687

> <Gold.Rescore>
     Score         DG    S(hbond)    S(metal)    S(lipo)     H(rot)  DE(clash)    DE(int)     intcor
     12.18     -15.66       2.41        0.00      70.50       2.39       0.02       3.45       ----

> <Gold.Chemscore.Fitness>
12.1807

> <Gold.Chemscore.DG>
-15.6550

> <Gold.Chemscore.ZeroCoef>
-5.4800

> <Gold.Chemscore.Hbond>
2.4058

> <Gold.Chemscore.Metal>
0.0000

> <Gold.Chemscore.Lipo>
70.5042

> <Gold.Chemscore.Internal_Hbond>
0.0000

> <Gold.Chemscore.DEClash>
0.0243

> <Gold.Chemscore.DEInternal>
3.4500

> <Gold.Chemscore.Rot>
2.3865

> <Gold.Chemscore.Internal.Correction>
   9.000000E+99

> <Gold.Chemscore.Hbonds>
donor molecule, donor type, donor heavy atom, donor atom, acceptor molecule, acceptor atom, score
      L1  H     6    31       P1  7948  0.65
      P1  H  6896  6907       L1    19  0.10
      P1  H 10752 10765       L1    20  1.00

> <Gold.Chemscore.Hbond.Weighted>
-8.0354

> <Gold.Chemscore.Metal.Weighted>
-0.0000

> <Gold.Chemscore.Lipo.Weighted>
-8.2490

> <Gold.Chemscore.Internal_Hbond.Weighted>
0.0000

> <Gold.Chemscore.DEClash.Weighted>
0.0243

> <Gold.Chemscore.DEInternal.Weighted>
3.4500

> <Gold.Chemscore.Rot.Weighted>
6.1093

> <Gold.Chemscore.Internal.Correction.Weighted>
   9.000000E+99

> <Gold.Protein.RotatedTorsions>
[ 6907 6896 6895 6894 ] final  -71.93 input  -60.11 | X-H torsion
[ 7974 7965 7964 7962 ] final -102.23 input  175.53 | X-H torsion
[ 8008 7997 7996 7995 ] final  -60.59 input   59.86 | X-H torsion
[ 10167 10162 10161 10158 ] final  127.80 input  -65.29 | X-H torsion
[ 10718 10713 10712 10709 ] final  164.41 input   66.30 | X-H torsion
[ 10763 10752 10751 10750 ] final -154.38 input  -60.55 | X-H torsion
[ 11005 11000 10999 10996 ] final  -57.73 input  -57.11 | X-H torsion

> <Gold.Protein.ActiveResidues>
 VAL166  LYS551  ARG553  GLY616  TRP617  ASP618  TYR619  PRO620  LYS621  CYS622 
 ASP623  PHE694  ASN695  SER759  ASP760  ASP761  ALA762  ILE779  LEU786  VAL792 
 PHE793  MET794  SER795  GLU796  ALA797  LYS798  CYS799  TRP800  GLU811  SER814 

> <Gold.Protein.RotatedAtoms>
  150.7191  134.5236  159.5665 H   0  0  0  0  0  0  0  0  0  0  0  0  # atno 6907 bound_to 6896
  152.2786  134.7851  160.0410 H   0  0  0  0  0  0  0  0  0  0  0  0  # atno 6908 bound_to 6896
  151.8506  133.3404  159.3708 H   0  0  0  0  0  0  0  0  0  0  0  0  # atno 6909 bound_to 6896
  145.2714  140.9300  143.2984 H   0  0  0  0  0  0  0  0  0  0  0  0  # atno 7974 bound_to 7965
  154.4406  140.1036  156.6298 H   0  0  0  0  0  0  0  0  0  0  0  0  # atno 8008 bound_to 7997
  155.5617  140.3487  155.4474 H   0  0  0  0  0  0  0  0  0  0  0  0  # atno 8009 bound_to 7997
  156.0455  140.1292  157.0098 H   0  0  0  0  0  0  0  0  0  0  0  0  # atno 8010 bound_to 7997
  139.5559  144.6848  151.4183 H   0  0  0  0  0  0  0  0  0  0  0  0  # atno 10167 bound_to 10162
  157.0948  131.0427  151.2522 H   0  0  0  0  0  0  0  0  0  0  0  0  # atno 10718 bound_to 10713
  154.7862  135.3191  154.7880 H   0  0  0  0  0  0  0  0  0  0  0  0  # atno 10763 bound_to 10752
  153.8579  135.6856  153.4790 H   0  0  0  0  0  0  0  0  0  0  0  0  # atno 10764 bound_to 10752
  153.1515  135.4697  154.9582 H   0  0  0  0  0  0  0  0  0  0  0  0  # atno 10765 bound_to 10752
  141.1177  133.6611  156.4813 H   0  0  0  0  0  0  0  0  0  0  0  0  # atno 11005 bound_to 11000
  144.9331  139.4275  143.6485 LP  0  0  0  0  0  0  0  0  0  0  0  0  # atno 17320 bound_to 7965
  146.3245  139.8253  142.8919 LP  0  0  0  0  0  0  0  0  0  0  0  0  # atno 17321 bound_to 7965
  140.6832  143.8034  150.7149 LP  0  0  0  0  0  0  0  0  0  0  0  0  # atno 17342 bound_to 10162
  140.1494  143.4371  152.2141 LP  0  0  0  0  0  0  0  0  0  0  0  0  # atno 17343 bound_to 10162
  157.4691  130.7698  149.7306 LP  0  0  0  0  0  0  0  0  0  0  0  0  # atno 17370 bound_to 10713
  155.9888  130.3956  150.3099 LP  0  0  0  0  0  0  0  0  0  0  0  0  # atno 17371 bound_to 10713
  140.4598  134.6852  157.5080 LP  0  0  0  0  0  0  0  0  0  0  0  0  # atno 17394 bound_to 11000
  140.0111  134.6689  155.9379 LP  0  0  0  0  0  0  0  0  0  0  0  0  # atno 17395 bound_to 11000

$$$$
