AV-unprocessed.smi:2060|AV-procd|sdf|8359|dock4
  -GOLD-   2272011 33D 1   1.00000     0.00000
 Structure written by MMmdl.
 45 46  0  0  0  0  0  0  0  0  3 V2000
  148.9813  140.8775  154.9152 C   0  0  0  0  0  0  0  0  0  0  0  0
  147.6073  140.9448  155.6187 C   0  0  0  0  0  0  0  0  0  0  0  0
  146.3390  141.2381  154.7381 C   0  0  2  0  0  0  0  0  0  0  0  0
  146.6175  142.5426  153.9229 C   0  0  0  0  0  0  0  0  0  0  0  0
  145.0576  141.4800  155.6218 C   0  0  0  0  0  0  0  0  0  0  0  0
  145.0322  140.5766  156.7787 N   0  5  0  0  0  0  0  0  0  0  0  0
  145.6265  140.8339  157.9756 C   0  0  0  0  0  0  0  0  0  0  0  0
  146.1239  140.0173  158.7595 O   0  0  0  0  0  0  0  0  0  0  0  0
  145.6299  142.1471  158.2690 N   0  0  0  0  0  0  0  0  0  0  0  0
  146.1442  142.7998  159.4207 C   0  0  0  0  0  0  0  0  0  0  0  0
  146.6906  144.1078  159.3284 C   0  0  0  0  0  0  0  0  0  0  0  0
  147.0654  144.3780  160.6143 C   0  0  0  0  0  0  0  0  0  0  0  0
  147.7053  145.5599  161.2580 C   0  0  0  0  0  0  0  0  0  0  0  0
  146.7724  143.3250  161.4244 O   0  0  0  0  0  0  0  0  0  0  0  0
  146.1810  142.3170  160.6537 N   0  0  0  0  0  0  0  0  0  0  0  0
  146.0692  140.0594  153.8183 N   0  3  0  0  0  0  0  0  0  0  0  0
  147.0844  139.7805  152.7611 C   0  0  0  0  0  0  0  0  0  0  0  0
  146.5712  138.7097  151.7819 C   0  0  0  0  0  0  0  0  0  0  0  0
  146.2249  137.5241  152.4827 O   0  0  0  0  0  0  0  0  0  0  0  0
  145.1897  137.7608  153.4256 C   0  0  0  0  0  0  0  0  0  0  0  0
  145.6857  138.7686  154.4722 C   0  0  0  0  0  0  0  0  0  0  0  0
  149.7697  140.6989  155.6465 H   0  0  0  0  0  0  0  0  0  0  0  0
  149.2295  141.8048  154.3991 H   0  0  0  0  0  0  0  0  0  0  0  0
  149.0306  140.0634  154.1928 H   0  0  0  0  0  0  0  0  0  0  0  0
  147.4665  139.9837  156.1151 H   0  0  0  0  0  0  0  0  0  0  0  0
  147.6972  141.6706  156.4295 H   0  0  0  0  0  0  0  0  0  0  0  0
  146.6878  143.4345  154.5494 H   0  0  0  0  0  0  0  0  0  0  0  0
  145.8440  142.7508  153.1807 H   0  0  0  0  0  0  0  0  0  0  0  0
  147.5675  142.4836  153.3906 H   0  0  0  0  0  0  0  0  0  0  0  0
  145.0451  142.5257  155.9312 H   0  0  0  0  0  0  0  0  0  0  0  0
  144.1658  141.3565  155.0073 H   0  0  0  0  0  0  0  0  0  0  0  0
  145.2137  142.7515  157.5766 H   0  0  0  0  0  0  0  0  0  0  0  0
  146.7926  144.7444  158.4621 H   0  0  0  0  0  0  0  0  0  0  0  0
  147.7868  146.3895  160.5555 H   0  0  0  0  0  0  0  0  0  0  0  0
  148.7077  145.3127  161.6075 H   0  0  0  0  0  0  0  0  0  0  0  0
  147.1209  145.8980  162.1138 H   0  0  0  0  0  0  0  0  0  0  0  0
  147.3049  140.6619  152.1626 H   0  0  0  0  0  0  0  0  0  0  0  0
  148.0185  139.4571  153.2220 H   0  0  0  0  0  0  0  0  0  0  0  0
  145.7093  139.0783  151.2232 H   0  0  0  0  0  0  0  0  0  0  0  0
  147.3436  138.4722  151.0501 H   0  0  0  0  0  0  0  0  0  0  0  0
  144.2898  138.1232  152.9254 H   0  0  0  0  0  0  0  0  0  0  0  0
  144.9305  136.8173  153.9061 H   0  0  0  0  0  0  0  0  0  0  0  0
  146.5423  138.3410  154.9942 H   0  0  0  0  0  0  0  0  0  0  0  0
  144.9000  138.9084  155.2138 H   0  0  0  0  0  0  0  0  0  0  0  0
  145.2469  140.3582  153.3108 H   0  0  0  0  0  0  0  0  0  0  0  0
  1  2  1  0  0  0  0
  1 22  1  0  0  0  0
  1 23  1  0  0  0  0
  1 24  1  0  0  0  0
  2  3  1  0  0  0  0
  2 25  1  0  0  0  0
  2 26  1  0  0  0  0
  3  4  1  0  0  0  0
  3  5  1  0  0  0  0
  3 16  1  0  0  0  0
  4 27  1  0  0  0  0
  4 28  1  0  0  0  0
  4 29  1  0  0  0  0
  5  6  1  0  0  0  0
  5 30  1  0  0  0  0
  5 31  1  0  0  0  0
  6  7  1  0  0  0  0
  7  8  2  0  0  0  0
  7  9  1  0  0  0  0
  9 10  1  0  0  0  0
  9 32  1  0  0  0  0
 10 15  2  0  0  0  0
 10 11  1  0  0  0  0
 11 12  2  0  0  0  0
 11 33  1  0  0  0  0
 12 13  1  0  0  0  0
 12 14  1  0  0  0  0
 13 34  1  0  0  0  0
 13 35  1  0  0  0  0
 13 36  1  0  0  0  0
 14 15  1  0  0  0  0
 16 21  1  0  0  0  0
 16 17  1  0  0  0  0
 16 45  1  0  0  0  0
 17 18  1  0  0  0  0
 17 37  1  0  0  0  0
 17 38  1  0  0  0  0
 18 19  1  0  0  0  0
 18 39  1  0  0  0  0
 18 40  1  0  0  0  0
 19 20  1  0  0  0  0
 20 21  1  0  0  0  0
 20 41  1  0  0  0  0
 20 42  1  0  0  0  0
 21 43  1  0  0  0  0
 21 44  1  0  0  0  0
M  CHG  1   6  -1
M  CHG  1  16   1
M  END
> <s_m_source_file>
AV-unprocessed.smi

> <i_m_source_file_index>
2060

> <i_lp_mmshare_version>
43012

> <i_f3d_flags>
0

> <s_epik_input>
W0NIMl0xW0NIMl1PW0NIMl1bQ0gyXU4xW0NAQF0oW0NIM10pKFtDSDJdW0NIM10pW0NIMl1bTkhdQyg9TylbTkhdYzJbY0hdYyhbQ0gzXSlvbjI=

> <s_epik_cmdline>
J2VwaWtfcHl0aG9uJywgJy1waCcsICc3LjAnLCAnLXRuJywgJzgnLCAnLW1hJywgJzIwMCcsICctbWV0YWxfYmluZGluZycsICctaW1hZScsICc8aW5maWxlLm1hZT4nLCAnLW9tYWUnLCAnPG91dGZpbGUubWFlPic=

> <r_epik_Ionization_Penalty>
6.79469

> <r_epik_Ionization_Penalty_Charging>
6.79469

> <r_epik_Ionization_Penalty_Neutral>
5.68576e-06

> <r_epik_State_Penalty>
7.33145

> <r_epik_Charging_Adjusted_Penalty>
14.1261

> <i_epik_Tot_Q>
0

> <i_epik_Tot_abs_Q>
2

> <r_epik_Metal_State_Penalty>
3.24803

> <b_epik_Metal_Only>
1

> <s_lp_Force_Field>
OPLS_2005

> <r_lp_Energy>
28.6548

> <b_lp_Chiralities_Consistent>
1

> <s_lp_Variant>
AV-unprocessed.smi:2060-6

> <Gold.Version>
5.8.1

> <Gold.Id.Protein>
6NUR|6NUR_protein|mol2

> <Gold.PLP.Fitness>
38.0715

> <Gold.PLP.PLP>
-28.9339

> <Gold.PLP.part.hbond>
-4.8180

> <Gold.PLP.part.metal>
0.0000

> <Gold.PLP.part.buried>
-2.2809

> <Gold.PLP.part.nonpolar>
-22.9822

> <Gold.PLP.part.repulsive>
0.6608

> <Gold.PLP.ligand.clash>
0.0000

> <Gold.PLP.ligand.torsion>
1.0540

> <Gold.PLP.Chemscore.Hbond>
3.6500

> <Gold.PLP.Chemscore.CHOScore>
0.0000

> <Gold.PLP.Chemscore.Metal>
0.0000

> <Gold.Chemscore.Hbonds>
donor molecule, donor type, donor heavy atom, donor atom, acceptor molecule, acceptor atom, score
      L1  H    16    45       P1 10175  2.00
      P1  H  6933  6944       L1    14  0.55
      P1  H  6934  6946       L1    15  1.00

> <Gold.PLP.Chemscore.Internal.Correction>
0.2956

> <Gold.Rescore>
     Score         DG    S(hbond)    S(metal)    S(lipo)     H(rot)  DE(clash)    DE(int)     intcor
     11.12     -14.69       1.88        0.00      62.78       1.73       0.29       3.28       ----

> <Gold.Chemscore.Fitness>
11.1232

> <Gold.Chemscore.DG>
-14.6876

> <Gold.Chemscore.ZeroCoef>
-5.4800

> <Gold.Chemscore.Hbond>
1.8832

> <Gold.Chemscore.Metal>
0.0000

> <Gold.Chemscore.Lipo>
62.7789

> <Gold.Chemscore.Internal_Hbond>
0.0000

> <Gold.Chemscore.DEClash>
0.2874

> <Gold.Chemscore.DEInternal>
3.2771

> <Gold.Chemscore.Rot>
1.7294

> <Gold.Chemscore.Internal.Correction>
   9.000000E+99

> <Gold.Chemscore.Hbonds>
donor molecule, donor type, donor heavy atom, donor atom, acceptor molecule, acceptor atom, score
      L1  H    16    45       P1 10175  0.99
      P1  H  6933  6944       L1    14  0.01
      P1  H  6934  6946       L1    15  0.77

> <Gold.Chemscore.Hbond.Weighted>
-6.2897

> <Gold.Chemscore.Metal.Weighted>
-0.0000

> <Gold.Chemscore.Lipo.Weighted>
-7.3451

> <Gold.Chemscore.Internal_Hbond.Weighted>
0.0000

> <Gold.Chemscore.DEClash.Weighted>
0.2874

> <Gold.Chemscore.DEInternal.Weighted>
3.2771

> <Gold.Chemscore.Rot.Weighted>
4.4272

> <Gold.Chemscore.Internal.Correction.Weighted>
   9.000000E+99

> <Gold.Protein.RotatedTorsions>
[ 6907 6896 6895 6894 ] final  173.66 input  -60.11 | X-H torsion
[ 7974 7965 7964 7962 ] final   76.76 input  175.53 | X-H torsion
[ 8008 7997 7996 7995 ] final  -19.55 input   59.86 | X-H torsion
[ 10167 10162 10161 10158 ] final    7.29 input  -65.29 | X-H torsion
[ 10718 10713 10712 10709 ] final  140.21 input   66.30 | X-H torsion
[ 10763 10752 10751 10750 ] final  -48.23 input  -60.55 | X-H torsion
[ 11005 11000 10999 10996 ] final  139.39 input  -57.11 | X-H torsion

> <Gold.Protein.ActiveResidues>
 VAL166  LYS551  ARG553  GLY616  TRP617  ASP618  TYR619  PRO620  LYS621  CYS622 
 ASP623  PHE694  ASN695  SER759  ASP760  ASP761  ALA762  ILE779  LEU786  VAL792 
 PHE793  MET794  SER795  GLU796  ALA797  LYS798  CYS799  TRP800  GLU811  SER814 

> <Gold.Protein.RotatedAtoms>
  151.7647  133.3336  159.3427 H   0  0  0  0  0  0  0  0  0  0  0  0  # atno 6907 bound_to 6896
  150.7484  134.6073  159.6077 H   0  0  0  0  0  0  0  0  0  0  0  0  # atno 6908 bound_to 6896
  152.3381  134.7172  160.0322 H   0  0  0  0  0  0  0  0  0  0  0  0  # atno 6909 bound_to 6896
  145.6988  139.2576  143.1717 H   0  0  0  0  0  0  0  0  0  0  0  0  # atno 7974 bound_to 7965
  154.4829  140.2086  155.9721 H   0  0  0  0  0  0  0  0  0  0  0  0  # atno 8008 bound_to 7997
  156.1193  140.3216  155.8154 H   0  0  0  0  0  0  0  0  0  0  0  0  # atno 8009 bound_to 7997
  155.4497  140.0516  157.2993 H   0  0  0  0  0  0  0  0  0  0  0  0  # atno 8010 bound_to 7997
  140.6380  143.7841  150.7387 H   0  0  0  0  0  0  0  0  0  0  0  0  # atno 10167 bound_to 10162
  157.4058  131.1022  151.0505 H   0  0  0  0  0  0  0  0  0  0  0  0  # atno 10718 bound_to 10713
  154.0744  135.6600  153.4829 H   0  0  0  0  0  0  0  0  0  0  0  0  # atno 10763 bound_to 10752
  153.0379  135.5165  154.7535 H   0  0  0  0  0  0  0  0  0  0  0  0  # atno 10764 bound_to 10752
  154.6611  135.3015  154.9833 H   0  0  0  0  0  0  0  0  0  0  0  0  # atno 10765 bound_to 10752
  140.0252  134.9378  157.0553 H   0  0  0  0  0  0  0  0  0  0  0  0  # atno 11005 bound_to 11000
  146.0817  140.7757  142.9638 LP  0  0  0  0  0  0  0  0  0  0  0  0  # atno 17320 bound_to 7965
  144.6975  140.3498  143.7184 LP  0  0  0  0  0  0  0  0  0  0  0  0  # atno 17321 bound_to 7965
  140.1467  143.4394  152.2158 LP  0  0  0  0  0  0  0  0  0  0  0  0  # atno 17342 bound_to 10162
  139.5589  144.7392  151.4211 LP  0  0  0  0  0  0  0  0  0  0  0  0  # atno 17343 bound_to 10162
  157.1488  130.6175  149.5576 LP  0  0  0  0  0  0  0  0  0  0  0  0  # atno 17370 bound_to 10713
  155.9836  130.4856  150.6941 LP  0  0  0  0  0  0  0  0  0  0  0  0  # atno 17371 bound_to 10713
  140.4319  134.1771  155.7168 LP  0  0  0  0  0  0  0  0  0  0  0  0  # atno 17394 bound_to 11000
  141.1798  133.8438  157.1297 LP  0  0  0  0  0  0  0  0  0  0  0  0  # atno 17395 bound_to 11000

$$$$
