AV-unprocessed.smi:910|AV-procd|sdf|4121|dock6
  -GOLD-   22720 2 23D 1   1.00000     0.00000
 Structure written by MMmdl.
 46 47  0  0  0  0  0  0  0  0  1 V2000
  146.5980  139.0907  152.1918 C   0  0  0  0  0  0  0  0  0  0  0  0
  147.7878  139.3503  153.0891 C   0  0  0  0  0  0  0  0  0  0  0  0
  148.8112  138.4508  153.2169 N   0  0  0  0  0  0  0  0  0  0  0  0
  149.7369  138.9728  154.1067 C   0  0  0  0  0  0  0  0  0  0  0  0
  150.8508  138.4387  154.5014 N   0  0  0  0  0  0  0  0  0  0  0  0
  151.6222  139.1460  155.4079 C   0  0  0  0  0  0  0  0  0  0  0  0
  152.7098  139.6940  155.2012 O   0  0  0  0  0  0  0  0  0  0  0  0
  151.0664  139.1096  156.6291 N   0  0  0  0  0  0  0  0  0  0  0  0
  151.6859  139.6105  157.8527 C   0  0  0  0  0  0  0  0  0  0  0  0
  152.0815  141.0854  157.6966 C   0  0  0  0  0  0  0  0  0  0  0  0
  152.0647  141.6959  158.9782 O   0  0  0  0  0  0  0  0  0  0  0  0
  153.1361  142.5899  159.2528 C   0  0  1  0  0  0  0  0  0  0  0  0
  152.6827  144.0610  159.1147 C   0  0  0  0  0  0  0  0  0  0  0  0
  151.5911  144.4163  160.1374 C   0  0  0  0  0  0  0  0  0  0  0  0
  152.0637  144.1287  161.5695 C   0  0  0  0  0  0  0  0  0  0  0  0
  152.5277  142.6713  161.7232 C   0  0  0  0  0  0  0  0  0  0  0  0
  153.6201  142.3122  160.6941 C   0  0  1  0  0  0  0  0  0  0  0  0
  154.1157  140.8683  160.8694 C   0  0  0  0  0  0  0  0  0  0  0  0
  149.2510  140.1998  154.4982 O   0  0  0  0  0  0  0  0  0  0  0  0
  148.0619  140.3957  153.8652 C   0  0  0  0  0  0  0  0  0  0  0  0
  147.2977  141.6734  154.1286 C   0  0  0  0  0  0  0  0  0  0  0  0
  145.6783  139.0856  152.7775 H   0  0  0  0  0  0  0  0  0  0  0  0
  146.6905  138.1284  151.6872 H   0  0  0  0  0  0  0  0  0  0  0  0
  146.5201  139.8707  151.4341 H   0  0  0  0  0  0  0  0  0  0  0  0
  148.8423  137.5675  152.7287 H   0  0  0  0  0  0  0  0  0  0  0  0
  150.1787  138.6390  156.7283 H   0  0  0  0  0  0  0  0  0  0  0  0
  151.0279  139.4789  158.7131 H   0  0  0  0  0  0  0  0  0  0  0  0
  152.5753  139.0121  158.0507 H   0  0  0  0  0  0  0  0  0  0  0  0
  153.0805  141.1641  157.2661 H   0  0  0  0  0  0  0  0  0  0  0  0
  151.3908  141.5737  157.0100 H   0  0  0  0  0  0  0  0  0  0  0  0
  153.9571  142.3928  158.5614 H   0  0  0  0  0  0  0  0  0  0  0  0
  153.5424  144.7139  159.2708 H   0  0  0  0  0  0  0  0  0  0  0  0
  152.3320  144.2765  158.1066 H   0  0  0  0  0  0  0  0  0  0  0  0
  151.3184  145.4674  160.0412 H   0  0  0  0  0  0  0  0  0  0  0  0
  150.6878  143.8430  159.9262 H   0  0  0  0  0  0  0  0  0  0  0  0
  152.8838  144.8008  161.8242 H   0  0  0  0  0  0  0  0  0  0  0  0
  151.2606  144.3426  162.2741 H   0  0  0  0  0  0  0  0  0  0  0  0
  152.9018  142.5143  162.7354 H   0  0  0  0  0  0  0  0  0  0  0  0
  151.6735  142.0028  161.6063 H   0  0  0  0  0  0  0  0  0  0  0  0
  154.4742  142.9641  160.8830 H   0  0  0  0  0  0  0  0  0  0  0  0
  153.3093  140.1485  160.7243 H   0  0  0  0  0  0  0  0  0  0  0  0
  154.5210  140.7128  161.8694 H   0  0  0  0  0  0  0  0  0  0  0  0
  154.9045  140.6340  160.1541 H   0  0  0  0  0  0  0  0  0  0  0  0
  147.0482  142.1659  153.1887 H   0  0  0  0  0  0  0  0  0  0  0  0
  147.8940  142.3594  154.7309 H   0  0  0  0  0  0  0  0  0  0  0  0
  146.3735  141.4569  154.6643 H   0  0  0  0  0  0  0  0  0  0  0  0
  1 22  1  0  0  0  0
  1 23  1  0  0  0  0
  1 24  1  0  0  0  0
  1  2  1  0  0  0  0
  2  3  1  0  0  0  0
  2 20  2  0  0  0  0
  3 25  1  0  0  0  0
  3  4  1  0  0  0  0
  4 19  1  0  0  0  0
  4  5  2  0  0  0  0
  5  6  1  0  0  0  0
  6  8  1  0  0  0  0
  6  7  2  0  0  0  0
  8  9  1  0  0  0  0
  8 26  1  0  0  0  0
  9 10  1  0  0  0  0
  9 27  1  0  0  0  0
  9 28  1  0  0  0  0
 10 11  1  0  0  0  0
 10 29  1  0  0  0  0
 10 30  1  0  0  0  0
 11 12  1  0  0  0  0
 12 17  1  0  0  0  0
 12 13  1  0  0  0  0
 12 31  1  0  0  0  0
 13 14  1  0  0  0  0
 13 32  1  0  0  0  0
 13 33  1  0  0  0  0
 14 15  1  0  0  0  0
 14 34  1  0  0  0  0
 14 35  1  0  0  0  0
 15 16  1  0  0  0  0
 15 36  1  0  0  0  0
 15 37  1  0  0  0  0
 16 17  1  0  0  0  0
 16 38  1  0  0  0  0
 16 39  1  0  0  0  0
 17 18  1  0  0  0  0
 17 40  1  0  0  0  0
 18 41  1  0  0  0  0
 18 42  1  0  0  0  0
 18 43  1  0  0  0  0
 19 20  1  0  0  0  0
 20 21  1  0  0  0  0
 21 44  1  0  0  0  0
 21 45  1  0  0  0  0
 21 46  1  0  0  0  0
M  END
> <s_m_source_file>
AV-unprocessed.smi

> <i_m_source_file_index>
910

> <i_lp_mmshare_version>
43012

> <i_f3d_flags>
0

> <s_epik_input>
W0NIM11jMW5jKG9jMVtDSDNdKVtOSF1DKD1PKVtOSF1bQ0gyXVtDSDJdT1tDQEBIXTJbQ0gyXVtDSDJdW0NIMl1bQ0gyXVtDQEhdMltDSDNd

> <s_epik_cmdline>
J2VwaWtfcHl0aG9uJywgJy1waCcsICc3LjAnLCAnLXRuJywgJzgnLCAnLW1hJywgJzIwMCcsICctbWV0YWxfYmluZGluZycsICctaW1hZScsICc8aW5maWxlLm1hZT4nLCAnLW9tYWUnLCAnPG91dGZpbGUubWFlPic=

> <r_lp_tautomer_probability>
0.107061

> <r_epik_Ionization_Penalty>
0.727192

> <r_epik_Ionization_Penalty_Charging>
0.726719

> <r_epik_Ionization_Penalty_Neutral>
0.000473387

> <r_epik_State_Penalty>
2.53712

> <r_epik_Charging_Adjusted_Penalty>
3.26383

> <i_epik_Tot_Q>
0

> <i_epik_Tot_abs_Q>
0

> <r_epik_Metal_State_Penalty>
3.71015

> <b_epik_Metal_Only>
0

> <s_lp_Force_Field>
OPLS_2005

> <r_lp_Energy>
28.3743

> <b_lp_Chiralities_Consistent>
1

> <s_lp_Variant>
AV-unprocessed.smi:910-6

> <Gold.Version>
5.8.1

> <Gold.Id.Protein>
6NUR|6NUR_protein|mol2

> <Gold.PLP.Fitness>
51.1985

> <Gold.PLP.PLP>
-48.5204

> <Gold.PLP.part.hbond>
-3.8685

> <Gold.PLP.part.metal>
0.0000

> <Gold.PLP.part.buried>
-1.2809

> <Gold.PLP.part.nonpolar>
-42.3507

> <Gold.PLP.part.repulsive>
0.4094

> <Gold.PLP.ligand.clash>
0.0000

> <Gold.PLP.ligand.torsion>
1.7462

> <Gold.PLP.Chemscore.Hbond>
2.0459

> <Gold.PLP.Chemscore.CHOScore>
0.0000

> <Gold.PLP.Chemscore.Metal>
0.0000

> <Gold.Chemscore.Hbonds>
donor molecule, donor type, donor heavy atom, donor atom, acceptor molecule, acceptor atom, score
      L1  H     3    25       P1  7948  1.00
      P1  H  7989  7998       L1     7  0.07
      P1  H  7997  8009       L1     7  1.00

> <Gold.PLP.Chemscore.Internal.Correction>
0.0330

> <Gold.Rescore>
     Score         DG    S(hbond)    S(metal)    S(lipo)     H(rot)  DE(clash)    DE(int)     intcor
     17.78     -21.97       1.98        0.00     120.82       1.66       0.15       4.03       ----

> <Gold.Chemscore.Fitness>
17.7828

> <Gold.Chemscore.DG>
-21.9695

> <Gold.Chemscore.ZeroCoef>
-5.4800

> <Gold.Chemscore.Hbond>
1.9752

> <Gold.Chemscore.Metal>
0.0000

> <Gold.Chemscore.Lipo>
120.8184

> <Gold.Chemscore.Internal_Hbond>
0.0000

> <Gold.Chemscore.DEClash>
0.1522

> <Gold.Chemscore.DEInternal>
4.0346

> <Gold.Chemscore.Rot>
1.6576

> <Gold.Chemscore.Internal.Correction>
   9.000000E+99

> <Gold.Chemscore.Hbonds>
donor molecule, donor type, donor heavy atom, donor atom, acceptor molecule, acceptor atom, score
      L1  H     3    25       P1  7948  0.97
      P1  H  7997  8009       L1     7  0.98

> <Gold.Chemscore.Hbond.Weighted>
-6.5973

> <Gold.Chemscore.Metal.Weighted>
-0.0000

> <Gold.Chemscore.Lipo.Weighted>
-14.1358

> <Gold.Chemscore.Internal_Hbond.Weighted>
0.0000

> <Gold.Chemscore.DEClash.Weighted>
0.1522

> <Gold.Chemscore.DEInternal.Weighted>
4.0346

> <Gold.Chemscore.Rot.Weighted>
4.2436

> <Gold.Chemscore.Internal.Correction.Weighted>
   9.000000E+99

> <Gold.Protein.RotatedTorsions>
[ 6907 6896 6895 6894 ] final   59.39 input  -60.11 | X-H torsion
[ 7974 7965 7964 7962 ] final   12.18 input  175.53 | X-H torsion
[ 8008 7997 7996 7995 ] final -154.99 input   59.86 | X-H torsion
[ 10167 10162 10161 10158 ] final   -1.73 input  -65.29 | X-H torsion
[ 10718 10713 10712 10709 ] final -147.30 input   66.30 | X-H torsion
[ 10763 10752 10751 10750 ] final  153.98 input  -60.55 | X-H torsion
[ 11005 11000 10999 10996 ] final   72.46 input  -57.11 | X-H torsion

> <Gold.Protein.ActiveResidues>
 VAL166  LYS551  ARG553  GLY616  TRP617  ASP618  TYR619  PRO620  LYS621  CYS622 
 ASP623  PHE694  ASN695  SER759  ASP760  ASP761  ALA762  ILE779  LEU786  VAL792 
 PHE793  MET794  SER795  GLU796  ALA797  LYS798  CYS799  TRP800  GLU811  SER814 

> <Gold.Protein.RotatedAtoms>
  152.3910  134.6441  160.0107 H   0  0  0  0  0  0  0  0  0  0  0  0  # atno 6907 bound_to 6896
  151.6675  133.3309  159.3196 H   0  0  0  0  0  0  0  0  0  0  0  0  # atno 6908 bound_to 6896
  150.7826  134.6828  159.6498 H   0  0  0  0  0  0  0  0  0  0  0  0  # atno 6909 bound_to 6896
  146.2356  139.9375  142.8488 H   0  0  0  0  0  0  0  0  0  0  0  0  # atno 7974 bound_to 7965
  155.6950  140.0760  157.2433 H   0  0  0  0  0  0  0  0  0  0  0  0  # atno 8008 bound_to 7997
  154.4082  140.1658  156.2181 H   0  0  0  0  0  0  0  0  0  0  0  0  # atno 8009 bound_to 7997
  155.9418  140.3384  155.6337 H   0  0  0  0  0  0  0  0  0  0  0  0  # atno 8010 bound_to 7997
  140.6822  143.6741  150.8160 H   0  0  0  0  0  0  0  0  0  0  0  0  # atno 10167 bound_to 10162
  156.4057  130.7956  151.2170 H   0  0  0  0  0  0  0  0  0  0  0  0  # atno 10718 bound_to 10713
  154.1449  135.2818  155.3151 H   0  0  0  0  0  0  0  0  0  0  0  0  # atno 10763 bound_to 10752
  154.6260  135.5451  153.7630 H   0  0  0  0  0  0  0  0  0  0  0  0  # atno 10764 bound_to 10752
  153.0239  135.6450  154.1595 H   0  0  0  0  0  0  0  0  0  0  0  0  # atno 10765 bound_to 10752
  139.9490  134.7261  156.0909 H   0  0  0  0  0  0  0  0  0  0  0  0  # atno 11005 bound_to 11000
  145.1985  140.9843  143.4170 LP  0  0  0  0  0  0  0  0  0  0  0  0  # atno 17320 bound_to 7965
  144.9795  139.3798  143.6269 LP  0  0  0  0  0  0  0  0  0  0  0  0  # atno 17321 bound_to 7965
  140.0443  143.5314  152.2703 LP  0  0  0  0  0  0  0  0  0  0  0  0  # atno 17342 bound_to 10162
  139.6153  144.7618  151.2860 LP  0  0  0  0  0  0  0  0  0  0  0  0  # atno 17343 bound_to 10162
  157.7505  131.0273  150.3999 LP  0  0  0  0  0  0  0  0  0  0  0  0  # atno 17370 bound_to 10713
  156.4287  130.3967  149.6775 LP  0  0  0  0  0  0  0  0  0  0  0  0  # atno 17371 bound_to 10713
  141.1148  133.6631  156.3066 LP  0  0  0  0  0  0  0  0  0  0  0  0  # atno 17394 bound_to 11000
  140.5765  134.5788  157.5470 LP  0  0  0  0  0  0  0  0  0  0  0  0  # atno 17395 bound_to 11000

$$$$
