AV-unprocessed.smi:2212|AV-procd|sdf|8953|dock7
  -GOLD-   2272012173D 1   1.00000     0.00000
 Structure written by MMmdl.
 31 32  0  0  0  0  0  0  0  0  1 V2000
  148.6105  126.8064  150.8701 C   0  0  0  0  0  0  0  0  0  0  0  0
  147.7005  126.8797  151.9597 O   0  0  0  0  0  0  0  0  0  0  0  0
  147.3231  128.1937  152.3732 C   0  0  0  0  0  0  0  0  0  0  0  0
  148.4701  128.9238  153.0862 C   0  0  0  0  0  0  0  0  0  0  0  0
  148.4097  130.3568  152.8285 N   0  0  0  0  0  0  0  0  0  0  0  0
  148.2753  131.3000  153.7705 C   0  0  0  0  0  0  0  0  0  0  0  0
  148.1669  131.0099  154.9661 O   0  0  0  0  0  0  0  0  0  0  0  0
  148.2527  132.5589  153.1906 N   0  0  0  0  0  0  0  0  0  0  0  0
  147.2968  132.8527  152.3650 C   0  0  0  0  0  0  0  0  0  0  0  0
  147.0840  134.0537  151.7077 N   0  0  0  0  0  0  0  0  0  0  0  0
  145.9692  133.9196  150.9270 C   0  0  0  0  0  0  0  0  0  0  0  0
  145.4998  132.6852  151.0842 C   0  0  0  0  0  0  0  0  0  0  0  0
  146.2915  132.0049  151.9592 O   0  0  0  0  0  0  0  0  0  0  0  0
  146.6629  128.8987  151.1733 C   0  0  0  0  0  0  0  0  0  0  0  0
  145.5443  129.3612  152.1089 C   0  0  0  0  0  0  0  0  0  0  0  0
  145.9252  128.1961  153.0236 C   0  0  0  0  0  0  0  0  0  0  0  0
  148.9025  125.7676  150.7182 H   0  0  0  0  0  0  0  0  0  0  0  0
  149.5178  127.3809  151.0571 H   0  0  0  0  0  0  0  0  0  0  0  0
  148.1589  127.1545  149.9413 H   0  0  0  0  0  0  0  0  0  0  0  0
  148.4098  128.7569  154.1628 H   0  0  0  0  0  0  0  0  0  0  0  0
  149.4408  128.5362  152.7758 H   0  0  0  0  0  0  0  0  0  0  0  0
  148.4873  130.6505  151.8654 H   0  0  0  0  0  0  0  0  0  0  0  0
  147.6287  134.9023  151.7641 H   0  0  0  0  0  0  0  0  0  0  0  0
  145.6211  134.7460  150.3249 H   0  0  0  0  0  0  0  0  0  0  0  0
  144.6532  132.1625  150.6638 H   0  0  0  0  0  0  0  0  0  0  0  0
  147.2478  129.7086  150.7362 H   0  0  0  0  0  0  0  0  0  0  0  0
  146.3071  128.2066  150.4077 H   0  0  0  0  0  0  0  0  0  0  0  0
  145.7412  130.3362  152.5579 H   0  0  0  0  0  0  0  0  0  0  0  0
  144.5410  129.3025  151.6863 H   0  0  0  0  0  0  0  0  0  0  0  0
  145.3461  127.2959  152.8101 H   0  0  0  0  0  0  0  0  0  0  0  0
  145.9158  128.4354  154.0873 H   0  0  0  0  0  0  0  0  0  0  0  0
  1  2  1  0  0  0  0
  1 17  1  0  0  0  0
  1 18  1  0  0  0  0
  1 19  1  0  0  0  0
  2  3  1  0  0  0  0
  3 16  1  0  0  0  0
  3  4  1  0  0  0  0
  3 14  1  0  0  0  0
  4  5  1  0  0  0  0
  4 20  1  0  0  0  0
  4 21  1  0  0  0  0
  5 22  1  0  0  0  0
  5  6  1  0  0  0  0
  6  8  1  0  0  0  0
  6  7  2  0  0  0  0
  8  9  2  0  0  0  0
  9 13  1  0  0  0  0
  9 10  1  0  0  0  0
 10 23  1  0  0  0  0
 10 11  1  0  0  0  0
 11 24  1  0  0  0  0
 11 12  2  0  0  0  0
 12 25  1  0  0  0  0
 12 13  1  0  0  0  0
 14 15  1  0  0  0  0
 14 26  1  0  0  0  0
 14 27  1  0  0  0  0
 15 16  1  0  0  0  0
 15 28  1  0  0  0  0
 15 29  1  0  0  0  0
 16 30  1  0  0  0  0
 16 31  1  0  0  0  0
M  END
> <s_m_source_file>
AV-unprocessed.smi

> <i_m_source_file_index>
2212

> <i_lp_mmshare_version>
43012

> <i_f3d_flags>
0

> <s_epik_input>
W0NIMl0xW0NIMl1bQ0gyXUMxKE9bQ0gzXSlbQ0gyXVtOSF1DKD1PKVtOSF1jMm5bY0hdW2NIXW8y

> <s_epik_cmdline>
J2VwaWtfcHl0aG9uJywgJy1waCcsICc3LjAnLCAnLXRuJywgJzgnLCAnLW1hJywgJzIwMCcsICctbWV0YWxfYmluZGluZycsICctaW1hZScsICc8aW5maWxlLm1hZT4nLCAnLW9tYWUnLCAnPG91dGZpbGUubWFlPic=

> <r_lp_tautomer_probability>
0.107061

> <r_epik_Ionization_Penalty>
1.29244

> <r_epik_Ionization_Penalty_Charging>
1.29208

> <r_epik_Ionization_Penalty_Neutral>
0.000357989

> <r_epik_State_Penalty>
2.59896

> <r_epik_Charging_Adjusted_Penalty>
3.89105

> <i_epik_Tot_Q>
0

> <i_epik_Tot_abs_Q>
0

> <r_epik_Metal_State_Penalty>
3.62496

> <b_epik_Metal_Only>
0

> <s_lp_Force_Field>
OPLS_2005

> <r_lp_Energy>
40.2308

> <b_lp_Chiralities_Consistent>
1

> <s_lp_Variant>
AV-unprocessed.smi:2212-3

> <Gold.Version>
5.8.1

> <Gold.Id.Protein>
6NUR|6NUR_protein|mol2

> <Gold.PLP.Fitness>
34.4252

> <Gold.PLP.PLP>
-28.2193

> <Gold.PLP.part.hbond>
-2.0000

> <Gold.PLP.part.metal>
0.0000

> <Gold.PLP.part.buried>
-2.8952

> <Gold.PLP.part.nonpolar>
-22.7893

> <Gold.PLP.part.repulsive>
0.4081

> <Gold.PLP.ligand.clash>
0.0000

> <Gold.PLP.ligand.torsion>
1.3644

> <Gold.PLP.Chemscore.Hbond>
2.0000

> <Gold.PLP.Chemscore.CHOScore>
0.8885

> <Gold.PLP.Chemscore.Metal>
0.0000

> <Gold.Chemscore.Hbonds>
donor molecule, donor type, donor heavy atom, donor atom, acceptor molecule, acceptor atom, score
      L1  H     5    22       P1 10747  1.00
      L1  H    10    23       P1  7948  1.00
      L1  C    11    24       P1  7921  0.39

> <Gold.PLP.Chemscore.Internal.Correction>
0.2692

> <Gold.Rescore>
     Score         DG    S(hbond)    S(metal)    S(lipo)     H(rot)  DE(clash)    DE(int)     intcor
     11.34     -15.23       1.94        0.00      63.94       1.64       0.18       3.70       ----

> <Gold.Chemscore.Fitness>
11.3420

> <Gold.Chemscore.DG>
-15.2265

> <Gold.Chemscore.ZeroCoef>
-5.4800

> <Gold.Chemscore.Hbond>
1.9360

> <Gold.Chemscore.Metal>
0.0000

> <Gold.Chemscore.Lipo>
63.9440

> <Gold.Chemscore.Internal_Hbond>
0.0000

> <Gold.Chemscore.DEClash>
0.1802

> <Gold.Chemscore.DEInternal>
3.7044

> <Gold.Chemscore.Rot>
1.6411

> <Gold.Chemscore.Internal.Correction>
   9.000000E+99

> <Gold.Chemscore.Hbonds>
donor molecule, donor type, donor heavy atom, donor atom, acceptor molecule, acceptor atom, score
      L1  H     5    22       P1 10747  0.92
      L1  H    10    23       P1  7948  0.60

> <Gold.Chemscore.Hbond.Weighted>
-6.4662

> <Gold.Chemscore.Metal.Weighted>
-0.0000

> <Gold.Chemscore.Lipo.Weighted>
-7.4815

> <Gold.Chemscore.Internal_Hbond.Weighted>
0.0000

> <Gold.Chemscore.DEClash.Weighted>
0.1802

> <Gold.Chemscore.DEInternal.Weighted>
3.7044

> <Gold.Chemscore.Rot.Weighted>
4.2011

> <Gold.Chemscore.Internal.Correction.Weighted>
   9.000000E+99

> <Gold.Protein.RotatedTorsions>
[ 6907 6896 6895 6894 ] final -151.41 input  -60.11 | X-H torsion
[ 7974 7965 7964 7962 ] final   91.87 input  175.53 | X-H torsion
[ 8008 7997 7996 7995 ] final -144.08 input   59.86 | X-H torsion
[ 10167 10162 10161 10158 ] final -136.76 input  -65.29 | X-H torsion
[ 10718 10713 10712 10709 ] final   79.09 input   66.30 | X-H torsion
[ 10763 10752 10751 10750 ] final  127.27 input  -60.55 | X-H torsion
[ 11005 11000 10999 10996 ] final -125.78 input  -57.11 | X-H torsion

> <Gold.Protein.ActiveResidues>
 VAL166  LYS551  ARG553  GLY616  TRP617  ASP618  TYR619  PRO620  LYS621  CYS622 
 ASP623  PHE694  ASN695  SER759  ASP760  ASP761  ALA762  ILE779  LEU786  VAL792 
 PHE793  MET794  SER795  GLU796  ALA797  LYS798  CYS799  TRP800  GLU811  SER814 

> <Gold.Protein.RotatedAtoms>
  151.2127  133.4547  159.2598 H   0  0  0  0  0  0  0  0  0  0  0  0  # atno 6907 bound_to 6896
  151.0961  134.9945  159.8436 H   0  0  0  0  0  0  0  0  0  0  0  0  # atno 6908 bound_to 6896
  152.5439  134.2057  159.8783 H   0  0  0  0  0  0  0  0  0  0  0  0  # atno 6909 bound_to 6896
  145.4999  139.2276  143.2783 H   0  0  0  0  0  0  0  0  0  0  0  0  # atno 7974 bound_to 7965
  155.5210  140.0591  157.2906 H   0  0  0  0  0  0  0  0  0  0  0  0  # atno 8008 bound_to 7997
  154.4517  140.1952  156.0444 H   0  0  0  0  0  0  0  0  0  0  0  0  # atno 8009 bound_to 7997
  156.0718  140.3259  155.7590 H   0  0  0  0  0  0  0  0  0  0  0  0  # atno 8010 bound_to 7997
  139.8645  143.7035  152.2646 H   0  0  0  0  0  0  0  0  0  0  0  0  # atno 10167 bound_to 10162
  157.6766  130.9898  150.1881 H   0  0  0  0  0  0  0  0  0  0  0  0  # atno 10718 bound_to 10713
  153.7068  135.3274  155.3237 H   0  0  0  0  0  0  0  0  0  0  0  0  # atno 10763 bound_to 10752
  154.8397  135.4467  154.1355 H   0  0  0  0  0  0  0  0  0  0  0  0  # atno 10764 bound_to 10752
  153.2437  135.6974  153.7833 H   0  0  0  0  0  0  0  0  0  0  0  0  # atno 10765 bound_to 10752
  140.9734  134.0774  157.3845 H   0  0  0  0  0  0  0  0  0  0  0  0  # atno 11005 bound_to 11000
  146.2232  140.5799  142.9008 LP  0  0  0  0  0  0  0  0  0  0  0  0  # atno 17320 bound_to 7965
  144.7786  140.5792  143.6621 LP  0  0  0  0  0  0  0  0  0  0  0  0  # atno 17321 bound_to 7965
  139.7342  144.7575  151.0754 LP  0  0  0  0  0  0  0  0  0  0  0  0  # atno 17342 bound_to 10162
  140.7770  143.5051  150.9722 LP  0  0  0  0  0  0  0  0  0  0  0  0  # atno 17343 bound_to 10162
  156.2599  130.3709  149.8142 LP  0  0  0  0  0  0  0  0  0  0  0  0  # atno 17370 bound_to 10713
  156.5890  130.8498  151.3403 LP  0  0  0  0  0  0  0  0  0  0  0  0  # atno 17371 bound_to 10713
  139.8921  135.0122  156.6827 LP  0  0  0  0  0  0  0  0  0  0  0  0  # atno 17394 bound_to 11000
  140.7295  133.9071  155.8201 LP  0  0  0  0  0  0  0  0  0  0  0  0  # atno 17395 bound_to 11000

$$$$
