AV-unprocessed.smi:54|AV-procd|sdf|533|dock5
  -GOLD-   2262016413D 1   1.00000     0.00000
 Structure written by MMmdl.
 44 46  0  0  0  0  0  0  0  0  1 V2000
  145.1215  135.5377  162.0200 C   0  0  0  0  0  0  0  0  0  0  0  0
  146.4459  134.9756  161.4787 C   0  0  0  0  0  0  0  0  0  0  0  0
  147.0975  134.0138  162.4856 C   0  0  0  0  0  0  0  0  0  0  0  0
  147.4080  136.1131  161.1189 C   0  0  0  0  0  0  0  0  0  0  0  0
  147.6477  137.0355  161.8974 O   0  0  0  0  0  0  0  0  0  0  0  0
  148.0245  136.0178  159.8097 N   0  0  0  0  0  0  0  0  0  0  0  0
  148.8995  136.8860  159.2531 C   0  0  0  0  0  0  0  0  0  0  0  0
  148.5428  137.8189  158.3809 N   0  0  0  0  0  0  0  0  0  0  0  0
  149.5754  138.5828  157.9084 C   0  0  0  0  0  0  0  0  0  0  0  0
  150.9056  138.4662  158.2595 C   0  0  0  0  0  0  0  0  0  0  0  0
  151.6678  139.4131  157.5859 N   0  0  0  0  0  0  0  0  0  0  0  0
  150.7995  140.0553  156.8570 C   0  0  0  0  0  0  0  0  0  0  0  0
  149.5065  139.6093  156.9858 N   0  0  0  0  0  0  0  0  0  0  0  0
  148.2952  140.1274  156.2823 C   0  0  2  0  0  0  0  0  0  0  0  0
  147.9030  139.1904  155.3327 O   0  0  0  0  0  0  0  0  0  0  0  0
  147.2707  139.8845  154.2677 C   0  0  2  0  0  0  0  0  0  0  0  0
  147.1334  138.9967  153.0187 C   0  0  0  0  0  0  0  0  0  0  0  0
  148.3906  138.4603  152.6655 O   0  0  0  0  0  0  0  0  0  0  0  0
  148.1456  141.1388  154.1121 C   0  0  2  0  0  0  0  0  0  0  0  0
  149.2686  140.8930  153.2871 O   0  0  0  0  0  0  0  0  0  0  0  0
  148.5884  141.4457  155.5431 C   0  0  1  0  0  0  0  0  0  0  0  0
  147.8003  142.5011  156.0574 O   0  0  0  0  0  0  0  0  0  0  0  0
  151.3058  137.4607  159.2007 C   0  0  0  0  0  0  0  0  0  0  0  0
  152.4344  137.2174  159.6223 O   0  0  0  0  0  0  0  0  0  0  0  0
  150.2223  136.6974  159.6503 N   0  0  0  0  0  0  0  0  0  0  0  0
  147.5323  140.2202  157.0570 H   0  0  0  0  0  0  0  0  0  0  0  0
  146.2825  140.2046  154.6054 H   0  0  0  0  0  0  0  0  0  0  0  0
  147.5838  141.9577  153.6603 H   0  0  0  0  0  0  0  0  0  0  0  0
  149.6445  141.7139  155.6063 H   0  0  0  0  0  0  0  0  0  0  0  0
  144.6630  136.2271  161.3099 H   0  0  0  0  0  0  0  0  0  0  0  0
  145.2662  136.0740  162.9589 H   0  0  0  0  0  0  0  0  0  0  0  0
  144.4058  134.7363  162.2053 H   0  0  0  0  0  0  0  0  0  0  0  0
  146.2268  134.4145  160.5690 H   0  0  0  0  0  0  0  0  0  0  0  0
  148.0388  133.6174  162.1030 H   0  0  0  0  0  0  0  0  0  0  0  0
  146.4453  133.1645  162.6903 H   0  0  0  0  0  0  0  0  0  0  0  0
  147.3050  134.5063  163.4366 H   0  0  0  0  0  0  0  0  0  0  0  0
  147.8060  135.1890  159.2770 H   0  0  0  0  0  0  0  0  0  0  0  0
  151.0803  140.8661  156.2007 H   0  0  0  0  0  0  0  0  0  0  0  0
  146.4671  138.1579  153.2218 H   0  0  0  0  0  0  0  0  0  0  0  0
  146.7164  139.5521  152.1797 H   0  0  0  0  0  0  0  0  0  0  0  0
  148.8921  139.1321  152.2290 H   0  0  0  0  0  0  0  0  0  0  0  0
  148.9986  140.3524  152.5609 H   0  0  0  0  0  0  0  0  0  0  0  0
  148.3540  143.2568  156.1802 H   0  0  0  0  0  0  0  0  0  0  0  0
  150.4308  135.9650  160.3126 H   0  0  0  0  0  0  0  0  0  0  0  0
  1  2  1  0  0  0  0
  1 30  1  0  0  0  0
  1 31  1  0  0  0  0
  1 32  1  0  0  0  0
  2  3  1  0  0  0  0
  2  4  1  0  0  0  0
  2 33  1  0  0  0  0
  3 34  1  0  0  0  0
  3 35  1  0  0  0  0
  3 36  1  0  0  0  0
  4  5  2  0  0  0  0
  4  6  1  0  0  0  0
  6 37  1  0  0  0  0
  6  7  1  0  0  0  0
  7 25  1  0  0  0  0
  7  8  2  0  0  0  0
  8  9  1  0  0  0  0
  9 13  1  0  0  0  0
  9 10  2  0  0  0  0
 10 11  1  0  0  0  0
 10 23  1  0  0  0  0
 11 12  2  0  0  0  0
 12 13  1  0  0  0  0
 12 38  1  0  0  0  0
 13 14  1  0  0  0  0
 14 26  1  0  0  0  0
 14 21  1  0  0  0  0
 14 15  1  0  0  0  0
 15 16  1  0  0  0  0
 16 27  1  0  0  0  0
 16 17  1  0  0  0  0
 16 19  1  0  0  0  0
 17 18  1  0  0  0  0
 17 39  1  0  0  0  0
 17 40  1  0  0  0  0
 18 41  1  0  0  0  0
 19 28  1  0  0  0  0
 19 20  1  0  0  0  0
 19 21  1  0  0  0  0
 20 42  1  0  0  0  0
 21 29  1  0  0  0  0
 21 22  1  0  0  0  0
 22 43  1  0  0  0  0
 23 24  2  0  0  0  0
 23 25  1  0  0  0  0
 25 44  1  0  0  0  0
M  END
> <s_m_source_file>
AV-unprocessed.smi

> <i_m_source_file_index>
54

> <i_lp_mmshare_version>
43012

> <i_f3d_flags>
0

> <s_epik_input>
W0NIM11bQ0hdKFtDSDNdKUMoPU8pW05IXWMobjEpW25IXWMoPU8pYyhjMTIpbltjSF1uMltDQEBIXTNPW0NASF0oW0NIMl1bT0hdKVtDQEBIXShbT0hdKVtDQEhdM1tPSF0=

> <s_epik_cmdline>
J2VwaWtfcHl0aG9uJywgJy1waCcsICc3LjAnLCAnLXRuJywgJzgnLCAnLW1hJywgJzIwMCcsICctbWV0YWxfYmluZGluZycsICctaW1hZScsICc8aW5maWxlLm1hZT4nLCAnLW9tYWUnLCAnPG91dGZpbGUubWFlPic=

> <r_lp_tautomer_probability>
0.85571

> <r_epik_Ionization_Penalty>
0.0316551

> <r_epik_Ionization_Penalty_Charging>
0.0316043

> <r_epik_Ionization_Penalty_Neutral>
5.07097e-05

> <r_epik_State_Penalty>
3.15494e-07

> <r_epik_Charging_Adjusted_Penalty>
0.0316047

> <i_epik_Tot_Q>
0

> <i_epik_Tot_abs_Q>
0

> <r_epik_Metal_State_Penalty>
0.421206

> <b_epik_Metal_Only>
0

> <s_epik_Chemistry_Notes>
This compound contains an acetal/aminal-like group ( X-CH(R)-Y where X, Y are N, S, or O) that may be acid/base labile, releasing an aldehyde.

> <s_lp_Force_Field>
OPLS_2005

> <r_lp_Energy>
38.1022

> <b_lp_Chiralities_Consistent>
1

> <s_lp_Variant>
AV-unprocessed.smi:54-5

> <Gold.Version>
5.8.1

> <Gold.Id.Protein>
6NUR|6NUR_protein|mol2

> <Gold.PLP.Fitness>
48.5385

> <Gold.PLP.PLP>
-33.6884

> <Gold.PLP.part.hbond>
-6.7376

> <Gold.PLP.part.metal>
0.0000

> <Gold.PLP.part.buried>
-4.9467

> <Gold.PLP.part.nonpolar>
-21.9154

> <Gold.PLP.part.repulsive>
1.1384

> <Gold.PLP.ligand.clash>
0.0000

> <Gold.PLP.ligand.torsion>
1.2850

> <Gold.PLP.Chemscore.Hbond>
5.7944

> <Gold.PLP.Chemscore.CHOScore>
0.0000

> <Gold.PLP.Chemscore.Metal>
0.0000

> <Gold.Chemscore.Hbonds>
donor molecule, donor type, donor heavy atom, donor atom, acceptor molecule, acceptor atom, score
      L1  H    18    41       P1  7957  1.00
      L1  H    20    42       P1  7957  0.67
      L1  H    22    43       P1  8028  0.98
      P1  H  6896  6907       L1    24  0.33
      P1  H  6931  6943       L1     5  1.00
      P1  H  6934  6947       L1     5  0.32
      P1  H  7989  7998       L1    20  0.05
      P1  H  8011  8017       L1    20  0.90

> <Gold.PLP.Chemscore.Internal.Correction>
0.0368

> <Gold.Rescore>
     Score         DG    S(hbond)    S(metal)    S(lipo)     H(rot)  DE(clash)    DE(int)     intcor
     13.42     -14.51       4.10        0.00      48.60       4.05       0.03       1.06       ----

> <Gold.Chemscore.Fitness>
13.4163

> <Gold.Chemscore.DG>
-14.5081

> <Gold.Chemscore.ZeroCoef>
-5.4800

> <Gold.Chemscore.Hbond>
4.1042

> <Gold.Chemscore.Metal>
0.0000

> <Gold.Chemscore.Lipo>
48.5999

> <Gold.Chemscore.Internal_Hbond>
0.0000

> <Gold.Chemscore.DEClash>
0.0328

> <Gold.Chemscore.DEInternal>
1.0589

> <Gold.Chemscore.Rot>
4.0493

> <Gold.Chemscore.Internal.Correction>
   9.000000E+99

> <Gold.Chemscore.Hbonds>
donor molecule, donor type, donor heavy atom, donor atom, acceptor molecule, acceptor atom, score
      L1  H    18    41       P1  7957  0.95
      L1  H    20    42       P1  7957  0.65
      L1  H    22    43       P1  8028  0.69
      P1  H  6896  6907       L1    24  0.02
      P1  H  6931  6943       L1     5  0.97
      P1  H  6934  6947       L1     5  0.25
      P1  H  7989  7998       L1    20  0.05
      P1  H  8011  8017       L1    20  0.15

> <Gold.Chemscore.Hbond.Weighted>
-13.7081

> <Gold.Chemscore.Metal.Weighted>
-0.0000

> <Gold.Chemscore.Lipo.Weighted>
-5.6862

> <Gold.Chemscore.Internal_Hbond.Weighted>
0.0000

> <Gold.Chemscore.DEClash.Weighted>
0.0328

> <Gold.Chemscore.DEInternal.Weighted>
1.0589

> <Gold.Chemscore.Rot.Weighted>
10.3662

> <Gold.Chemscore.Internal.Correction.Weighted>
   9.000000E+99

> <Gold.Protein.RotatedTorsions>
[ 6907 6896 6895 6894 ] final   19.51 input  -60.11 | X-H torsion
[ 7974 7965 7964 7962 ] final -126.17 input  175.53 | X-H torsion
[ 8008 7997 7996 7995 ] final  -10.62 input   59.86 | X-H torsion
[ 10167 10162 10161 10158 ] final -174.59 input  -65.29 | X-H torsion
[ 10718 10713 10712 10709 ] final   24.88 input   66.30 | X-H torsion
[ 10763 10752 10751 10750 ] final   41.40 input  -60.55 | X-H torsion
[ 11005 11000 10999 10996 ] final   92.94 input  -57.11 | X-H torsion

> <Gold.Protein.ActiveResidues>
 VAL166  LYS551  ARG553  GLY616  TRP617  ASP618  TYR619  PRO620  LYS621  CYS622 
 ASP623  PHE694  ASN695  SER759  ASP760  ASP761  ALA762  ILE779  LEU786  VAL792 
 PHE793  MET794  SER795  GLU796  ALA797  LYS798  CYS799  TRP800  GLU811  SER814 

> <Gold.Protein.RotatedAtoms>
  151.8819  135.0450  160.0489 H   0  0  0  0  0  0  0  0  0  0  0  0  # atno 6907 bound_to 6896
  152.2505  133.5207  159.5331 H   0  0  0  0  0  0  0  0  0  0  0  0  # atno 6908 bound_to 6896
  150.7082  134.0882  159.3965 H   0  0  0  0  0  0  0  0  0  0  0  0  # atno 6909 bound_to 6896
  144.9900  140.7723  143.4560 H   0  0  0  0  0  0  0  0  0  0  0  0  # atno 7974 bound_to 7965
  154.5538  140.2324  155.8443 H   0  0  0  0  0  0  0  0  0  0  0  0  # atno 8008 bound_to 7997
  156.1970  140.3062  155.9408 H   0  0  0  0  0  0  0  0  0  0  0  0  # atno 8009 bound_to 7997
  155.3019  140.0431  157.3020 H   0  0  0  0  0  0  0  0  0  0  0  0  # atno 8010 bound_to 7997
  139.5625  144.1834  152.1262 H   0  0  0  0  0  0  0  0  0  0  0  0  # atno 10167 bound_to 10162
  157.1858  130.6823  149.6131 H   0  0  0  0  0  0  0  0  0  0  0  0  # atno 10718 bound_to 10713
  152.9909  135.6163  154.2781 H   0  0  0  0  0  0  0  0  0  0  0  0  # atno 10763 bound_to 10752
  154.2511  135.2785  155.2818 H   0  0  0  0  0  0  0  0  0  0  0  0  # atno 10764 bound_to 10752
  154.5287  135.5794  153.6798 H   0  0  0  0  0  0  0  0  0  0  0  0  # atno 10765 bound_to 10752
  139.8816  134.8761  156.3645 H   0  0  0  0  0  0  0  0  0  0  0  0  # atno 11005 bound_to 11000
  145.2299  139.2120  143.5048 LP  0  0  0  0  0  0  0  0  0  0  0  0  # atno 17320 bound_to 7965
  146.3429  140.2173  142.8591 LP  0  0  0  0  0  0  0  0  0  0  0  0  # atno 17321 bound_to 7965
  140.1350  144.5254  150.6779 LP  0  0  0  0  0  0  0  0  0  0  0  0  # atno 17342 bound_to 10162
  140.6907  143.2374  151.5140 LP  0  0  0  0  0  0  0  0  0  0  0  0  # atno 17343 bound_to 10162
  155.9718  130.4631  150.6170 LP  0  0  0  0  0  0  0  0  0  0  0  0  # atno 17370 bound_to 10713
  157.3908  131.0795  151.1395 LP  0  0  0  0  0  0  0  0  0  0  0  0  # atno 17371 bound_to 10713
  140.9507  133.7453  156.0268 LP  0  0  0  0  0  0  0  0  0  0  0  0  # atno 17394 bound_to 11000
  140.8109  134.3400  157.5412 LP  0  0  0  0  0  0  0  0  0  0  0  0  # atno 17395 bound_to 11000

$$$$
