AV-unprocessed.smi:3328|AV-procd|sdf|12792|dock9
  -GOLD-   2272019143D 1   1.00000     0.00000
 Structure written by MMmdl.
 41 42  0  0  0  0  0  0  0  0  2 V2000
  144.1914  134.6634  150.2666 C   0  0  0  0  0  0  0  0  0  0  0  0
  144.9931  135.7753  150.8796 C   0  0  0  0  0  0  0  0  0  0  0  0
  145.8421  136.7084  150.2193 C   0  0  0  0  0  0  0  0  0  0  0  0
  146.4048  137.5695  151.0515 N   0  0  0  0  0  0  0  0  0  0  0  0
  145.9415  137.2142  152.2688 N   0  0  0  0  0  0  0  0  0  0  0  0
  146.3535  137.9602  153.4450 C   0  0  0  0  0  0  0  0  0  0  0  0
  147.3258  139.1058  153.1010 C   0  0  1  0  0  0  0  0  0  0  0  0
  147.0440  140.3402  153.9735 C   0  0  0  0  0  0  0  0  0  0  0  0
  148.7269  138.6521  153.2592 N   0  3  0  0  0  0  0  0  0  0  0  0
  149.2164  138.5753  154.6504 C   0  0  0  0  0  0  0  0  0  0  0  0
  150.7199  138.8829  154.7158 C   0  0  0  0  0  0  0  0  0  0  0  0
  151.0534  139.6782  155.8938 N   0  0  0  0  0  0  0  0  0  0  0  0
  150.3466  140.9145  156.1831 C   0  0  0  0  0  0  0  0  0  0  0  0
  150.8270  141.3272  157.5818 C   0  0  0  0  0  0  0  0  0  0  0  0
  152.0797  140.4875  157.8545 C   0  0  0  0  0  0  0  0  0  0  0  0
  152.0218  139.4158  156.7791 C   0  0  0  0  0  0  0  0  0  0  0  0
  152.7805  138.4478  156.7563 O   0  0  0  0  0  0  0  0  0  0  0  0
  145.0867  136.1349  152.1943 C   0  0  0  0  0  0  0  0  0  0  0  0
  144.3554  134.5904  149.1911 H   0  0  0  0  0  0  0  0  0  0  0  0
  143.1217  134.8074  150.4189 H   0  0  0  0  0  0  0  0  0  0  0  0
  144.4508  133.6957  150.6965 H   0  0  0  0  0  0  0  0  0  0  0  0
  146.0627  136.7862  149.1648 H   0  0  0  0  0  0  0  0  0  0  0  0
  145.4551  138.3599  153.9175 H   0  0  0  0  0  0  0  0  0  0  0  0
  146.8021  137.2733  154.1646 H   0  0  0  0  0  0  0  0  0  0  0  0
  147.1657  139.3766  152.0561 H   0  0  0  0  0  0  0  0  0  0  0  0
  146.0054  140.6579  153.8754 H   0  0  0  0  0  0  0  0  0  0  0  0
  147.6656  141.1887  153.6883 H   0  0  0  0  0  0  0  0  0  0  0  0
  147.2269  140.1308  155.0278 H   0  0  0  0  0  0  0  0  0  0  0  0
  148.8349  137.7513  152.8149 H   0  0  0  0  0  0  0  0  0  0  0  0
  148.6699  139.2903  155.2670 H   0  0  0  0  0  0  0  0  0  0  0  0
  149.0170  137.5815  155.0513 H   0  0  0  0  0  0  0  0  0  0  0  0
  151.2955  137.9558  154.7323 H   0  0  0  0  0  0  0  0  0  0  0  0
  151.0294  139.4213  153.8186 H   0  0  0  0  0  0  0  0  0  0  0  0
  150.6163  141.6659  155.4397 H   0  0  0  0  0  0  0  0  0  0  0  0
  149.2657  140.7729  156.1517 H   0  0  0  0  0  0  0  0  0  0  0  0
  151.0292  142.3970  157.6409 H   0  0  0  0  0  0  0  0  0  0  0  0
  150.0607  141.0977  158.3238 H   0  0  0  0  0  0  0  0  0  0  0  0
  152.9886  141.0772  157.7297 H   0  0  0  0  0  0  0  0  0  0  0  0
  152.0772  140.0531  158.8548 H   0  0  0  0  0  0  0  0  0  0  0  0
  144.6187  135.7163  153.0734 H   0  0  0  0  0  0  0  0  0  0  0  0
  149.3116  139.3173  152.7723 H   0  0  0  0  0  0  0  0  0  0  0  0
  1  2  1  0  0  0  0
  1 19  1  0  0  0  0
  1 20  1  0  0  0  0
  1 21  1  0  0  0  0
  2 18  2  0  0  0  0
  2  3  1  0  0  0  0
  3  4  2  0  0  0  0
  3 22  1  0  0  0  0
  4  5  1  0  0  0  0
  5  6  1  0  0  0  0
  5 18  1  0  0  0  0
  6  7  1  0  0  0  0
  6 23  1  0  0  0  0
  6 24  1  0  0  0  0
  7  8  1  0  0  0  0
  7  9  1  0  0  0  0
  7 25  1  0  0  0  0
  8 26  1  0  0  0  0
  8 27  1  0  0  0  0
  8 28  1  0  0  0  0
  9 10  1  0  0  0  0
  9 29  1  0  0  0  0
  9 41  1  0  0  0  0
 10 11  1  0  0  0  0
 10 30  1  0  0  0  0
 10 31  1  0  0  0  0
 11 12  1  0  0  0  0
 11 32  1  0  0  0  0
 11 33  1  0  0  0  0
 12 16  1  0  0  0  0
 12 13  1  0  0  0  0
 13 14  1  0  0  0  0
 13 34  1  0  0  0  0
 13 35  1  0  0  0  0
 14 15  1  0  0  0  0
 14 36  1  0  0  0  0
 14 37  1  0  0  0  0
 15 16  1  0  0  0  0
 15 38  1  0  0  0  0
 15 39  1  0  0  0  0
 16 17  2  0  0  0  0
 18 40  1  0  0  0  0
M  CHG  1   9   1
M  END
> <s_m_source_file>
AV-unprocessed.smi

> <i_m_source_file_index>
3328

> <i_lp_mmshare_version>
43012

> <i_f3d_flags>
0

> <s_epik_input>
W0NIM11jMVtjSF1ubihbY0hdMSlbQ0gyXVtDQEhdKFtDSDNdKVtOSF1bQ0gyXVtDSDJdTjJbQ0gyXVtDSDJdW0NIMl1DMj1P

> <s_epik_cmdline>
J2VwaWtfcHl0aG9uJywgJy1waCcsICc3LjAnLCAnLXRuJywgJzgnLCAnLW1hJywgJzIwMCcsICctbWV0YWxfYmluZGluZycsICctaW1hZScsICc8aW5maWxlLm1hZT4nLCAnLW9tYWUnLCAnPG91dGZpbGUubWFlPic=

> <r_lp_tautomer_probability>
1

> <r_epik_Ionization_Penalty>
0.00826719

> <r_epik_Ionization_Penalty_Charging>
0.00825899

> <r_epik_Ionization_Penalty_Neutral>
8.19932e-06

> <r_epik_State_Penalty>
0.00621436

> <r_epik_Charging_Adjusted_Penalty>
0.0144734

> <i_epik_Tot_Q>
1

> <i_epik_Tot_abs_Q>
1

> <r_epik_Metal_State_Penalty>
0.00621509

> <b_epik_Metal_Only>
0

> <s_lp_Force_Field>
OPLS_2005

> <r_lp_Energy>
19.1629

> <b_lp_Chiralities_Consistent>
1

> <s_lp_Variant>
AV-unprocessed.smi:3328-2

> <Gold.Version>
5.8.1

> <Gold.Id.Protein>
6NUR|6NUR_protein|mol2

> <Gold.PLP.Fitness>
47.1875

> <Gold.PLP.PLP>
-31.8748

> <Gold.PLP.part.hbond>
-3.6609

> <Gold.PLP.part.metal>
0.0000

> <Gold.PLP.part.buried>
0.3748

> <Gold.PLP.part.nonpolar>
-31.6951

> <Gold.PLP.part.repulsive>
2.5155

> <Gold.PLP.ligand.clash>
0.0000

> <Gold.PLP.ligand.torsion>
1.1577

> <Gold.PLP.Chemscore.Hbond>
4.8461

> <Gold.PLP.Chemscore.CHOScore>
1.0000

> <Gold.PLP.Chemscore.Metal>
0.0000

> <Gold.Chemscore.Hbonds>
donor molecule, donor type, donor heavy atom, donor atom, acceptor molecule, acceptor atom, score
      L1  H     9    29       P1  7948  2.00
      L1  H     9    41       P1  7957  0.85
      P1  H  7954  7966       L1     4  0.57
      P1  H  7997  8008       L1    17  0.06
      L1  C     3    22       P1  7921  0.89

> <Gold.PLP.Chemscore.Internal.Correction>
0.0897

> <Gold.Rescore>
     Score         DG    S(hbond)    S(metal)    S(lipo)     H(rot)  DE(clash)    DE(int)     intcor
     16.07     -19.04       3.05        0.00      71.85       1.97       1.74       1.23       ----

> <Gold.Chemscore.Fitness>
16.0745

> <Gold.Chemscore.DG>
-19.0419

> <Gold.Chemscore.ZeroCoef>
-5.4800

> <Gold.Chemscore.Hbond>
3.0545

> <Gold.Chemscore.Metal>
0.0000

> <Gold.Chemscore.Lipo>
71.8520

> <Gold.Chemscore.Internal_Hbond>
0.0000

> <Gold.Chemscore.DEClash>
1.7362

> <Gold.Chemscore.DEInternal>
1.2312

> <Gold.Chemscore.Rot>
1.9714

> <Gold.Chemscore.Internal.Correction>
   9.000000E+99

> <Gold.Chemscore.Hbonds>
donor molecule, donor type, donor heavy atom, donor atom, acceptor molecule, acceptor atom, score
      L1  H     9    29       P1  7948  1.00
      L1  H     9    41       P1  7957  0.83
      P1  H  7954  7966       L1     4  0.07

> <Gold.Chemscore.Hbond.Weighted>
-10.2020

> <Gold.Chemscore.Metal.Weighted>
-0.0000

> <Gold.Chemscore.Lipo.Weighted>
-8.4067

> <Gold.Chemscore.Internal_Hbond.Weighted>
0.0000

> <Gold.Chemscore.DEClash.Weighted>
1.7362

> <Gold.Chemscore.DEInternal.Weighted>
1.2312

> <Gold.Chemscore.Rot.Weighted>
5.0468

> <Gold.Chemscore.Internal.Correction.Weighted>
   9.000000E+99

> <Gold.Protein.RotatedTorsions>
[ 6907 6896 6895 6894 ] final  166.46 input  -60.11 | X-H torsion
[ 7974 7965 7964 7962 ] final  169.76 input  175.53 | X-H torsion
[ 8008 7997 7996 7995 ] final  -60.70 input   59.86 | X-H torsion
[ 10167 10162 10161 10158 ] final -158.74 input  -65.29 | X-H torsion
[ 10718 10713 10712 10709 ] final  -94.25 input   66.30 | X-H torsion
[ 10763 10752 10751 10750 ] final   70.60 input  -60.55 | X-H torsion
[ 11005 11000 10999 10996 ] final   74.33 input  -57.11 | X-H torsion

> <Gold.Protein.ActiveResidues>
 VAL166  LYS551  ARG553  GLY616  TRP617  ASP618  TYR619  PRO620  LYS621  CYS622 
 ASP623  PHE694  ASN695  SER759  ASP760  ASP761  ALA762  ILE779  LEU786  VAL792 
 PHE793  MET794  SER795  GLU796  ALA797  LYS798  CYS799  TRP800  GLU811  SER814 

> <Gold.Protein.RotatedAtoms>
  151.8786  133.3490  159.3758 H   0  0  0  0  0  0  0  0  0  0  0  0  # atno 6907 bound_to 6896
  150.7133  134.5041  159.5585 H   0  0  0  0  0  0  0  0  0  0  0  0  # atno 6908 bound_to 6896
  152.2588  134.8056  160.0485 H   0  0  0  0  0  0  0  0  0  0  0  0  # atno 6909 bound_to 6896
  144.7345  139.9101  143.6414 H   0  0  0  0  0  0  0  0  0  0  0  0  # atno 7974 bound_to 7965
  154.4411  140.1034  156.6314 H   0  0  0  0  0  0  0  0  0  0  0  0  # atno 8008 bound_to 7997
  155.5600  140.3487  155.4470 H   0  0  0  0  0  0  0  0  0  0  0  0  # atno 8009 bound_to 7997
  156.0466  140.1294  157.0086 H   0  0  0  0  0  0  0  0  0  0  0  0  # atno 8010 bound_to 7997
  139.6668  143.9814  152.2260 H   0  0  0  0  0  0  0  0  0  0  0  0  # atno 10167 bound_to 10162
  156.0024  130.5060  150.5898 H   0  0  0  0  0  0  0  0  0  0  0  0  # atno 10718 bound_to 10713
  153.0351  135.5168  154.7466 H   0  0  0  0  0  0  0  0  0  0  0  0  # atno 10763 bound_to 10752
  154.6449  135.2917  155.0060 H   0  0  0  0  0  0  0  0  0  0  0  0  # atno 10764 bound_to 10752
  154.0964  135.6642  153.4913 H   0  0  0  0  0  0  0  0  0  0  0  0  # atno 10765 bound_to 10752
  139.9396  134.7423  156.1134 H   0  0  0  0  0  0  0  0  0  0  0  0  # atno 11005 bound_to 11000
  146.1007  139.4002  143.0348 LP  0  0  0  0  0  0  0  0  0  0  0  0  # atno 17320 bound_to 7965
  145.7582  140.9946  143.1214 LP  0  0  0  0  0  0  0  0  0  0  0  0  # atno 17321 bound_to 7965
  139.9568  144.6584  150.8118 LP  0  0  0  0  0  0  0  0  0  0  0  0  # atno 17342 bound_to 10162
  140.7602  143.3147  151.2761 LP  0  0  0  0  0  0  0  0  0  0  0  0  # atno 17343 bound_to 10162
  157.3765  131.0774  151.1514 LP  0  0  0  0  0  0  0  0  0  0  0  0  # atno 17370 bound_to 10713
  157.2250  130.6499  149.5826 LP  0  0  0  0  0  0  0  0  0  0  0  0  # atno 17371 bound_to 10713
  141.1025  133.6672  156.2788 LP  0  0  0  0  0  0  0  0  0  0  0  0  # atno 17394 bound_to 11000
  140.5985  134.5578  157.5513 LP  0  0  0  0  0  0  0  0  0  0  0  0  # atno 17395 bound_to 11000

$$$$
