AV-unprocessed.smi:3166|AV-procd|sdf|12095|dock10
  -GOLD-   2272017533D 1   1.00000     0.00000
 Structure written by MMmdl.
 40 41  0  0  0  0  0  0  0  0  1 V2000
  144.5870  135.3832  153.5090 C   0  0  0  0  0  0  0  0  0  0  0  0
  145.8339  135.6115  152.6292 C   0  0  2  0  0  0  0  0  0  0  0  0
  146.4925  134.2887  152.1852 C   0  0  0  0  0  0  0  0  0  0  0  0
  145.6573  133.5135  151.2839 N   0  0  0  0  0  0  0  0  0  0  0  0
  145.9613  132.3333  150.6380 C   0  0  0  0  0  0  0  0  0  0  0  0
  144.8669  131.9781  149.9029 C   0  0  0  0  0  0  0  0  0  0  0  0
  143.9281  133.0127  150.1735 C   0  0  0  0  0  0  0  0  0  0  0  0
  144.4032  133.9289  151.0017 N   0  0  0  0  0  0  0  0  0  0  0  0
  146.8356  136.4404  153.3068 N   0  0  0  0  0  0  0  0  0  0  0  0
  146.3723  137.7575  153.7544 C   0  0  0  0  0  0  0  0  0  0  0  0
  147.4645  138.8438  153.6272 C   0  0  0  0  0  0  0  0  0  0  0  0
  147.9834  138.7537  152.3125 O   0  0  0  0  0  0  0  0  0  0  0  0
  146.9197  140.2727  153.8833 C   0  0  0  0  0  0  0  0  0  0  0  0
  148.0254  141.3438  153.9020 C   0  0  0  0  0  0  0  0  0  0  0  0
  149.1305  140.9950  154.9083 C   0  0  0  0  0  0  0  0  0  0  0  0
  149.7176  139.6079  154.6146 C   0  0  0  0  0  0  0  0  0  0  0  0
  148.6201  138.5288  154.6072 C   0  0  0  0  0  0  0  0  0  0  0  0
  143.8561  134.7469  153.0100 H   0  0  0  0  0  0  0  0  0  0  0  0
  144.0729  136.3156  153.7386 H   0  0  0  0  0  0  0  0  0  0  0  0
  144.8517  134.9039  154.4519 H   0  0  0  0  0  0  0  0  0  0  0  0
  145.5110  136.1309  151.7260 H   0  0  0  0  0  0  0  0  0  0  0  0
  147.4349  134.4902  151.6739 H   0  0  0  0  0  0  0  0  0  0  0  0
  146.7371  133.6784  153.0568 H   0  0  0  0  0  0  0  0  0  0  0  0
  146.9218  131.8526  150.7511 H   0  0  0  0  0  0  0  0  0  0  0  0
  144.7534  131.1104  149.2700 H   0  0  0  0  0  0  0  0  0  0  0  0
  142.9223  133.1240  149.7959 H   0  0  0  0  0  0  0  0  0  0  0  0
  147.6446  136.5545  152.7045 H   0  0  0  0  0  0  0  0  0  0  0  0
  145.5089  138.0536  153.1573 H   0  0  0  0  0  0  0  0  0  0  0  0
  146.0303  137.7141  154.7883 H   0  0  0  0  0  0  0  0  0  0  0  0
  148.0680  137.8392  152.0890 H   0  0  0  0  0  0  0  0  0  0  0  0
  146.1782  140.5441  153.1311 H   0  0  0  0  0  0  0  0  0  0  0  0
  146.3990  140.2902  154.8416 H   0  0  0  0  0  0  0  0  0  0  0  0
  148.4575  141.4445  152.9057 H   0  0  0  0  0  0  0  0  0  0  0  0
  147.5947  142.3146  154.1483 H   0  0  0  0  0  0  0  0  0  0  0  0
  149.9186  141.7477  154.8720 H   0  0  0  0  0  0  0  0  0  0  0  0
  148.7266  141.0165  155.9213 H   0  0  0  0  0  0  0  0  0  0  0  0
  150.2295  139.6228  153.6516 H   0  0  0  0  0  0  0  0  0  0  0  0
  150.4746  139.3613  155.3596 H   0  0  0  0  0  0  0  0  0  0  0  0
  148.2190  138.4383  155.6177 H   0  0  0  0  0  0  0  0  0  0  0  0
  149.0617  137.5594  154.3725 H   0  0  0  0  0  0  0  0  0  0  0  0
  1  2  1  0  0  0  0
  1 18  1  0  0  0  0
  1 19  1  0  0  0  0
  1 20  1  0  0  0  0
  2  3  1  0  0  0  0
  2  9  1  0  0  0  0
  2 21  1  0  0  0  0
  3  4  1  0  0  0  0
  3 22  1  0  0  0  0
  3 23  1  0  0  0  0
  4  8  1  0  0  0  0
  4  5  1  0  0  0  0
  5  6  2  0  0  0  0
  5 24  1  0  0  0  0
  6  7  1  0  0  0  0
  6 25  1  0  0  0  0
  7  8  2  0  0  0  0
  7 26  1  0  0  0  0
  9 10  1  0  0  0  0
  9 27  1  0  0  0  0
 10 11  1  0  0  0  0
 10 28  1  0  0  0  0
 10 29  1  0  0  0  0
 11 17  1  0  0  0  0
 11 12  1  0  0  0  0
 11 13  1  0  0  0  0
 12 30  1  0  0  0  0
 13 14  1  0  0  0  0
 13 31  1  0  0  0  0
 13 32  1  0  0  0  0
 14 15  1  0  0  0  0
 14 33  1  0  0  0  0
 14 34  1  0  0  0  0
 15 16  1  0  0  0  0
 15 35  1  0  0  0  0
 15 36  1  0  0  0  0
 16 17  1  0  0  0  0
 16 37  1  0  0  0  0
 16 38  1  0  0  0  0
 17 39  1  0  0  0  0
 17 40  1  0  0  0  0
M  END
> <s_m_source_file>
AV-unprocessed.smi

> <i_m_source_file_index>
3166

> <i_lp_mmshare_version>
43012

> <i_f3d_flags>
0

> <s_epik_input>
bjFbY0hdW2NIXVtjSF1uMVtDSDJdW0NAQEhdKFtDSDNdKVtOSF1bQ0gyXUMyKFtPSF0pW0NIMl1bQ0gyXVtDSDJdW0NIMl1bQ0gyXTI=

> <s_epik_cmdline>
J2VwaWtfcHl0aG9uJywgJy1waCcsICc3LjAnLCAnLXRuJywgJzgnLCAnLW1hJywgJzIwMCcsICctbWV0YWxfYmluZGluZycsICctaW1hZScsICc8aW5maWxlLm1hZT4nLCAnLW9tYWUnLCAnPG91dGZpbGUubWFlPic=

> <r_lp_tautomer_probability>
1

> <r_epik_Ionization_Penalty>
2.35964

> <r_epik_Ionization_Penalty_Charging>
0

> <r_epik_Ionization_Penalty_Neutral>
2.35964

> <r_epik_State_Penalty>
2.51455

> <r_epik_Charging_Adjusted_Penalty>
2.51455

> <i_epik_Tot_Q>
0

> <i_epik_Tot_abs_Q>
0

> <r_epik_Metal_State_Penalty>
2.51451

> <b_epik_Metal_Only>
0

> <s_lp_Force_Field>
OPLS_2005

> <r_lp_Energy>
22.8123

> <b_lp_Chiralities_Consistent>
1

> <s_lp_Variant>
AV-unprocessed.smi:3166-3

> <Gold.Version>
5.8.1

> <Gold.Id.Protein>
6NUR|6NUR_protein|mol2

> <Gold.PLP.Fitness>
42.9158

> <Gold.PLP.PLP>
-31.6092

> <Gold.PLP.part.hbond>
-2.6454

> <Gold.PLP.part.metal>
0.0000

> <Gold.PLP.part.buried>
-4.6773

> <Gold.PLP.part.nonpolar>
-24.3580

> <Gold.PLP.part.repulsive>
0.1327

> <Gold.PLP.ligand.clash>
0.0000

> <Gold.PLP.ligand.torsion>
0.3657

> <Gold.PLP.Chemscore.Hbond>
2.0000

> <Gold.PLP.Chemscore.CHOScore>
2.0000

> <Gold.PLP.Chemscore.Metal>
0.0000

> <Gold.Chemscore.Hbonds>
donor molecule, donor type, donor heavy atom, donor atom, acceptor molecule, acceptor atom, score
      L1  H     9    27       P1  7948  1.00
      L1  H    12    30       P1  7948  1.00
      L1  C     5    24       P1 10747  1.00
      L1  C     7    26       P1 10186  1.00

> <Gold.PLP.Chemscore.Internal.Correction>
0.0379

> <Gold.Rescore>
     Score         DG    S(hbond)    S(metal)    S(lipo)     H(rot)  DE(clash)    DE(int)     intcor
     15.71     -16.28       1.97        0.00      82.53       2.12       0.09       0.48       ----

> <Gold.Chemscore.Fitness>
15.7101

> <Gold.Chemscore.DG>
-16.2801

> <Gold.Chemscore.ZeroCoef>
-5.4800

> <Gold.Chemscore.Hbond>
1.9683

> <Gold.Chemscore.Metal>
0.0000

> <Gold.Chemscore.Lipo>
82.5277

> <Gold.Chemscore.Internal_Hbond>
0.0000

> <Gold.Chemscore.DEClash>
0.0943

> <Gold.Chemscore.DEInternal>
0.4757

> <Gold.Chemscore.Rot>
2.1209

> <Gold.Chemscore.Internal.Correction>
   9.000000E+99

> <Gold.Chemscore.Hbonds>
donor molecule, donor type, donor heavy atom, donor atom, acceptor molecule, acceptor atom, score
      L1  H     9    27       P1  7948  0.98
      L1  H    12    30       P1  7948  0.98

> <Gold.Chemscore.Hbond.Weighted>
-6.5740

> <Gold.Chemscore.Metal.Weighted>
-0.0000

> <Gold.Chemscore.Lipo.Weighted>
-9.6557

> <Gold.Chemscore.Internal_Hbond.Weighted>
0.0000

> <Gold.Chemscore.DEClash.Weighted>
0.0943

> <Gold.Chemscore.DEInternal.Weighted>
0.4757

> <Gold.Chemscore.Rot.Weighted>
5.4296

> <Gold.Chemscore.Internal.Correction.Weighted>
   9.000000E+99

> <Gold.Protein.RotatedTorsions>
[ 6907 6896 6895 6894 ] final -153.62 input  -60.11 | X-H torsion
[ 7974 7965 7964 7962 ] final -132.92 input  175.53 | X-H torsion
[ 8008 7997 7996 7995 ] final   99.98 input   59.86 | X-H torsion
[ 10167 10162 10161 10158 ] final   99.33 input  -65.29 | X-H torsion
[ 10718 10713 10712 10709 ] final   -5.30 input   66.30 | X-H torsion
[ 10763 10752 10751 10750 ] final   43.00 input  -60.55 | X-H torsion
[ 11005 11000 10999 10996 ] final   17.43 input  -57.11 | X-H torsion

> <Gold.Protein.ActiveResidues>
 VAL166  LYS551  ARG553  GLY616  TRP617  ASP618  TYR619  PRO620  LYS621  CYS622 
 ASP623  PHE694  ASN695  SER759  ASP760  ASP761  ALA762  ILE779  LEU786  VAL792 
 PHE793  MET794  SER795  GLU796  ALA797  LYS798  CYS799  TRP800  GLU811  SER814 

> <Gold.Protein.RotatedAtoms>
  151.2452  133.4378  159.2608 H   0  0  0  0  0  0  0  0  0  0  0  0  # atno 6907 bound_to 6896
  151.0668  134.9773  159.8298 H   0  0  0  0  0  0  0  0  0  0  0  0  # atno 6908 bound_to 6896
  152.5406  134.2400  159.8911 H   0  0  0  0  0  0  0  0  0  0  0  0  # atno 6909 bound_to 6896
  144.9241  140.7050  143.4947 H   0  0  0  0  0  0  0  0  0  0  0  0  # atno 7974 bound_to 7965
  156.1159  140.3220  155.8138 H   0  0  0  0  0  0  0  0  0  0  0  0  # atno 8008 bound_to 7997
  155.4592  140.0538  157.3010 H   0  0  0  0  0  0  0  0  0  0  0  0  # atno 8009 bound_to 7997
  154.4792  140.2045  155.9818 H   0  0  0  0  0  0  0  0  0  0  0  0  # atno 8010 bound_to 7997
  139.7627  144.6949  151.0269 H   0  0  0  0  0  0  0  0  0  0  0  0  # atno 10167 bound_to 10162
  156.7485  130.5232  149.5809 H   0  0  0  0  0  0  0  0  0  0  0  0  # atno 10718 bound_to 10713
  152.9870  135.6115  154.3040 H   0  0  0  0  0  0  0  0  0  0  0  0  # atno 10763 bound_to 10752
  154.2759  135.2778  155.2720 H   0  0  0  0  0  0  0  0  0  0  0  0  # atno 10764 bound_to 10752
  154.5081  135.5848  153.6640 H   0  0  0  0  0  0  0  0  0  0  0  0  # atno 10765 bound_to 10752
  140.4360  134.1371  155.7685 H   0  0  0  0  0  0  0  0  0  0  0  0  # atno 11005 bound_to 11000
  145.3248  139.1777  143.4568 LP  0  0  0  0  0  0  0  0  0  0  0  0  # atno 17320 bound_to 7965
  146.3218  140.3270  142.8637 LP  0  0  0  0  0  0  0  0  0  0  0  0  # atno 17321 bound_to 7965
  140.7808  143.4678  151.0187 LP  0  0  0  0  0  0  0  0  0  0  0  0  # atno 17342 bound_to 10162
  139.8364  143.7622  152.3180 LP  0  0  0  0  0  0  0  0  0  0  0  0  # atno 17343 bound_to 10162
  156.1417  130.6249  151.0476 LP  0  0  0  0  0  0  0  0  0  0  0  0  # atno 17370 bound_to 10713
  157.6787  131.0843  150.7426 LP  0  0  0  0  0  0  0  0  0  0  0  0  # atno 17371 bound_to 10713
  141.1726  133.8579  157.1524 LP  0  0  0  0  0  0  0  0  0  0  0  0  # atno 17394 bound_to 11000
  140.0102  134.9991  157.0378 LP  0  0  0  0  0  0  0  0  0  0  0  0  # atno 17395 bound_to 11000

$$$$
