AV-unprocessed.smi:1184|AV-procd|sdf|4970|dock3
  -GOLD-   22720 3563D 1   1.00000     0.00000
 Structure written by MMmdl.
 43 44  0  0  0  0  0  0  0  0  2 V2000
  155.2456  141.3043  161.3146 C   0  0  0  0  0  0  0  0  0  0  0  0
  154.4594  142.6222  161.3112 C   0  0  0  0  0  0  0  0  0  0  0  0
  154.0947  143.0496  159.9402 N   0  3  2  0  0  0  0  0  0  0  0  0
  153.4097  144.3581  159.8799 C   0  0  0  0  0  0  0  0  0  0  0  0
  152.5564  144.3067  158.6166 C   0  0  0  0  0  0  0  0  0  0  0  0
  152.0814  142.8547  158.6001 C   0  0  1  0  0  0  0  0  0  0  0  0
  151.6025  142.3464  157.2268 C   0  0  0  0  0  0  0  0  0  0  0  0
  150.7870  141.1430  157.3455 N   0  0  0  0  0  0  0  0  0  0  0  0
  150.5408  140.2771  156.3497 C   0  0  0  0  0  0  0  0  0  0  0  0
  150.9890  140.4104  155.2114 O   0  0  0  0  0  0  0  0  0  0  0  0
  149.6665  139.0697  156.6912 C   0  0  0  0  0  0  0  0  0  0  0  0
  150.4585  137.7950  156.5425 C   0  0  0  0  0  0  0  0  0  0  0  0
  151.1253  137.3103  155.3803 C   0  0  0  0  0  0  0  0  0  0  0  0
  151.2123  137.9400  154.0196 C   0  0  0  0  0  0  0  0  0  0  0  0
  151.7265  136.1536  155.6017 N   0  0  0  0  0  0  0  0  0  0  0  0
  151.4667  135.8362  156.9382 O   0  0  0  0  0  0  0  0  0  0  0  0
  150.7130  136.8280  157.4768 C   0  0  0  0  0  0  0  0  0  0  0  0
  150.3259  136.6653  158.9081 C   0  0  0  0  0  0  0  0  0  0  0  0
  153.2776  142.0783  159.1705 C   0  0  0  0  0  0  0  0  0  0  0  0
  155.5470  141.0394  162.3283 H   0  0  0  0  0  0  0  0  0  0  0  0
  156.1504  141.3836  160.7114 H   0  0  0  0  0  0  0  0  0  0  0  0
  154.6522  140.4780  160.9232 H   0  0  0  0  0  0  0  0  0  0  0  0
  153.5627  142.5366  161.9267 H   0  0  0  0  0  0  0  0  0  0  0  0
  155.0791  143.3971  161.7650 H   0  0  0  0  0  0  0  0  0  0  0  0
  152.7615  144.4771  160.7501 H   0  0  0  0  0  0  0  0  0  0  0  0
  154.1211  145.1845  159.8746 H   0  0  0  0  0  0  0  0  0  0  0  0
  151.7343  145.0230  158.6339 H   0  0  0  0  0  0  0  0  0  0  0  0
  153.1720  144.5173  157.7406 H   0  0  0  0  0  0  0  0  0  0  0  0
  151.2625  142.7665  159.3165 H   0  0  0  0  0  0  0  0  0  0  0  0
  151.0040  143.1113  156.7311 H   0  0  0  0  0  0  0  0  0  0  0  0
  152.4560  142.1538  156.5748 H   0  0  0  0  0  0  0  0  0  0  0  0
  150.3717  140.9574  158.2471 H   0  0  0  0  0  0  0  0  0  0  0  0
  149.2872  139.1796  157.7078 H   0  0  0  0  0  0  0  0  0  0  0  0
  148.7900  139.0767  156.0426 H   0  0  0  0  0  0  0  0  0  0  0  0
  150.3105  138.5074  153.7896 H   0  0  0  0  0  0  0  0  0  0  0  0
  151.3354  137.1897  153.2382 H   0  0  0  0  0  0  0  0  0  0  0  0
  152.0585  138.6243  153.9613 H   0  0  0  0  0  0  0  0  0  0  0  0
  150.0101  137.6144  159.3407 H   0  0  0  0  0  0  0  0  0  0  0  0
  151.1637  136.2910  159.4962 H   0  0  0  0  0  0  0  0  0  0  0  0
  149.5014  135.9591  159.0049 H   0  0  0  0  0  0  0  0  0  0  0  0
  153.9007  141.6700  158.3738 H   0  0  0  0  0  0  0  0  0  0  0  0
  152.9355  141.2406  159.7799 H   0  0  0  0  0  0  0  0  0  0  0  0
  154.9566  143.1632  159.4258 H   0  0  0  0  0  0  0  0  0  0  0  0
  1  2  1  0  0  0  0
  1 20  1  0  0  0  0
  1 21  1  0  0  0  0
  1 22  1  0  0  0  0
  2  3  1  0  0  0  0
  2 23  1  0  0  0  0
  2 24  1  0  0  0  0
  3 19  1  0  0  0  0
  3  4  1  0  0  0  0
  3 43  1  0  0  0  0
  4  5  1  0  0  0  0
  4 25  1  0  0  0  0
  4 26  1  0  0  0  0
  5  6  1  0  0  0  0
  5 27  1  0  0  0  0
  5 28  1  0  0  0  0
  6  7  1  0  0  0  0
  6 19  1  0  0  0  0
  6 29  1  0  0  0  0
  7  8  1  0  0  0  0
  7 30  1  0  0  0  0
  7 31  1  0  0  0  0
  8  9  1  0  0  0  0
  8 32  1  0  0  0  0
  9 10  2  0  0  0  0
  9 11  1  0  0  0  0
 11 12  1  0  0  0  0
 11 33  1  0  0  0  0
 11 34  1  0  0  0  0
 12 17  2  0  0  0  0
 12 13  1  0  0  0  0
 13 14  1  0  0  0  0
 13 15  2  0  0  0  0
 14 35  1  0  0  0  0
 14 36  1  0  0  0  0
 14 37  1  0  0  0  0
 15 16  1  0  0  0  0
 16 17  1  0  0  0  0
 17 18  1  0  0  0  0
 18 38  1  0  0  0  0
 18 39  1  0  0  0  0
 18 40  1  0  0  0  0
 19 41  1  0  0  0  0
 19 42  1  0  0  0  0
M  CHG  1   3   1
M  END
> <s_m_source_file>
AV-unprocessed.smi

> <i_m_source_file_index>
1184

> <i_lp_mmshare_version>
43012

> <i_f3d_flags>
0

> <s_epik_input>
W0NIM11bQ0gyXU4xW0NIMl1bQ0gyXVtDQEhdKFtDSDJdMSlbQ0gyXVtOSF1DKD1PKVtDSDJdYzJjKFtDSDNdKW5vYzJbQ0gzXQ==

> <s_epik_cmdline>
J2VwaWtfcHl0aG9uJywgJy1waCcsICc3LjAnLCAnLXRuJywgJzgnLCAnLW1hJywgJzIwMCcsICctbWV0YWxfYmluZGluZycsICctaW1hZScsICc8aW5maWxlLm1hZT4nLCAnLW9tYWUnLCAnPG91dGZpbGUubWFlPic=

> <r_epik_Ionization_Penalty>
0.000590726

> <r_epik_Ionization_Penalty_Charging>
0.000590692

> <r_epik_Ionization_Penalty_Neutral>
3.44741e-08

> <r_epik_State_Penalty>
0.000371644

> <r_epik_Charging_Adjusted_Penalty>
0.000962336

> <i_epik_Tot_Q>
1

> <i_epik_Tot_abs_Q>
1

> <r_epik_Metal_State_Penalty>
-0

> <b_epik_Metal_Only>
0

> <s_lp_Force_Field>
OPLS_2005

> <r_lp_Energy>
22.2982

> <b_lp_Chiralities_Consistent>
1

> <s_lp_Variant>
AV-unprocessed.smi:1184-2

> <Gold.Version>
5.8.1

> <Gold.Id.Protein>
6NUR|6NUR_protein|mol2

> <Gold.PLP.Fitness>
44.2681

> <Gold.PLP.PLP>
-39.0040

> <Gold.PLP.part.hbond>
-2.6654

> <Gold.PLP.part.metal>
0.0000

> <Gold.PLP.part.buried>
-6.5040

> <Gold.PLP.part.nonpolar>
-30.2960

> <Gold.PLP.part.repulsive>
0.1017

> <Gold.PLP.ligand.clash>
0.0000

> <Gold.PLP.ligand.torsion>
0.3197

> <Gold.PLP.Chemscore.Hbond>
1.9440

> <Gold.PLP.Chemscore.CHOScore>
0.0000

> <Gold.PLP.Chemscore.Metal>
0.0000

> <Gold.Chemscore.Hbonds>
donor molecule, donor type, donor heavy atom, donor atom, acceptor molecule, acceptor atom, score
      P1  H  7989  7998       L1    10  1.00
      P1  H 10752 10764       L1    15  1.00

> <Gold.PLP.Chemscore.Internal.Correction>
0.0716

> <Gold.Rescore>
     Score         DG    S(hbond)    S(metal)    S(lipo)     H(rot)  DE(clash)    DE(int)     intcor
     17.56     -19.13       1.95        0.00      97.46       1.67       0.01       1.56       ----

> <Gold.Chemscore.Fitness>
17.5594

> <Gold.Chemscore.DG>
-19.1316

> <Gold.Chemscore.ZeroCoef>
-5.4800

> <Gold.Chemscore.Hbond>
1.9521

> <Gold.Chemscore.Metal>
0.0000

> <Gold.Chemscore.Lipo>
97.4590

> <Gold.Chemscore.Internal_Hbond>
0.0000

> <Gold.Chemscore.DEClash>
0.0149

> <Gold.Chemscore.DEInternal>
1.5574

> <Gold.Chemscore.Rot>
1.6684

> <Gold.Chemscore.Internal.Correction>
   9.000000E+99

> <Gold.Chemscore.Hbonds>
donor molecule, donor type, donor heavy atom, donor atom, acceptor molecule, acceptor atom, score
      P1  H  7989  7998       L1    10  0.96
      P1  H 10752 10764       L1    15  0.97

> <Gold.Chemscore.Hbond.Weighted>
-6.5201

> <Gold.Chemscore.Metal.Weighted>
-0.0000

> <Gold.Chemscore.Lipo.Weighted>
-11.4027

> <Gold.Chemscore.Internal_Hbond.Weighted>
0.0000

> <Gold.Chemscore.DEClash.Weighted>
0.0149

> <Gold.Chemscore.DEInternal.Weighted>
1.5574

> <Gold.Chemscore.Rot.Weighted>
4.2712

> <Gold.Chemscore.Internal.Correction.Weighted>
   9.000000E+99

> <Gold.Protein.RotatedTorsions>
[ 6907 6896 6895 6894 ] final  108.30 input  -60.11 | X-H torsion
[ 7974 7965 7964 7962 ] final   45.05 input  175.53 | X-H torsion
[ 8008 7997 7996 7995 ] final -123.49 input   59.86 | X-H torsion
[ 10167 10162 10161 10158 ] final  132.75 input  -65.29 | X-H torsion
[ 10718 10713 10712 10709 ] final   32.85 input   66.30 | X-H torsion
[ 10763 10752 10751 10750 ] final  -43.47 input  -60.55 | X-H torsion
[ 11005 11000 10999 10996 ] final   19.47 input  -57.11 | X-H torsion

> <Gold.Protein.ActiveResidues>
 VAL166  LYS551  ARG553  GLY616  TRP617  ASP618  TYR619  PRO620  LYS621  CYS622 
 ASP623  PHE694  ASN695  SER759  ASP760  ASP761  ALA762  ILE779  LEU786  VAL792 
 PHE793  MET794  SER795  GLU796  ALA797  LYS798  CYS799  TRP800  GLU811  SER814 

> <Gold.Protein.RotatedAtoms>
  152.5118  133.9109  159.7487 H   0  0  0  0  0  0  0  0  0  0  0  0  # atno 6907 bound_to 6896
  150.9503  133.6549  159.2780 H   0  0  0  0  0  0  0  0  0  0  0  0  # atno 6908 bound_to 6896
  151.3830  135.0948  159.9554 H   0  0  0  0  0  0  0  0  0  0  0  0  # atno 6909 bound_to 6896
  146.0514  139.5006  142.9716 H   0  0  0  0  0  0  0  0  0  0  0  0  # atno 7974 bound_to 7965
  155.1814  140.0410  157.2883 H   0  0  0  0  0  0  0  0  0  0  0  0  # atno 8008 bound_to 7997
  154.6201  140.2498  155.7532 H   0  0  0  0  0  0  0  0  0  0  0  0  # atno 8009 bound_to 7997
  156.2429  140.2896  156.0505 H   0  0  0  0  0  0  0  0  0  0  0  0  # atno 8010 bound_to 7997
  139.5326  144.6647  151.4897 H   0  0  0  0  0  0  0  0  0  0  0  0  # atno 10167 bound_to 10162
  157.2904  130.7300  149.6607 H   0  0  0  0  0  0  0  0  0  0  0  0  # atno 10718 bound_to 10713
  153.9961  135.6699  153.4756 H   0  0  0  0  0  0  0  0  0  0  0  0  # atno 10763 bound_to 10752
  153.0683  135.4988  154.8246 H   0  0  0  0  0  0  0  0  0  0  0  0  # atno 10764 bound_to 10752
  154.7081  135.3092  154.9203 H   0  0  0  0  0  0  0  0  0  0  0  0  # atno 10765 bound_to 10752
  140.4134  134.1594  155.7668 H   0  0  0  0  0  0  0  0  0  0  0  0  # atno 11005 bound_to 11000
  145.6718  141.0214  143.1654 LP  0  0  0  0  0  0  0  0  0  0  0  0  # atno 17320 bound_to 7965
  144.7125  139.8319  143.7410 LP  0  0  0  0  0  0  0  0  0  0  0  0  # atno 17321 bound_to 7965
  140.6513  143.8690  150.6789 LP  0  0  0  0  0  0  0  0  0  0  0  0  # atno 17342 bound_to 10162
  140.2055  143.3925  152.1758 LP  0  0  0  0  0  0  0  0  0  0  0  0  # atno 17343 bound_to 10162
  155.9667  130.4310  150.4903 LP  0  0  0  0  0  0  0  0  0  0  0  0  # atno 17370 bound_to 10713
  157.2865  131.0617  151.2163 LP  0  0  0  0  0  0  0  0  0  0  0  0  # atno 17371 bound_to 10713
  141.1812  133.8409  157.1250 LP  0  0  0  0  0  0  0  0  0  0  0  0  # atno 17394 bound_to 11000
  140.0251  134.9927  157.0670 LP  0  0  0  0  0  0  0  0  0  0  0  0  # atno 17395 bound_to 11000

$$$$
