AV-unprocessed.smi:42|AV-procd|sdf|390|dock3
  -GOLD-   2262016243D 1   1.00000     0.00000
 Structure written by MMmdl.
 27 28  0  0  0  0  0  0  0  0  2 V2000
  153.0778  142.3636  160.6871 C   0  0  0  0  0  0  0  0  0  0  0  0
  152.3762  143.4838  159.9120 C   0  0  0  0  0  0  0  0  0  0  0  0
  151.0493  143.0627  159.3750 C   0  0  0  0  0  0  0  0  0  0  0  0
  149.8514  143.5549  159.6982 N   0  0  0  0  0  0  0  0  0  0  0  0
  148.9474  142.8983  158.8953 N   0  0  0  0  0  0  0  0  0  0  0  0
  149.6661  142.0512  158.1494 C   0  0  0  0  0  0  0  0  0  0  0  0
  149.1909  141.1406  157.0581 C   0  0  2  0  0  0  0  0  0  0  0  0
  150.2982  140.3707  156.3365 C   0  0  0  0  0  0  0  0  0  0  0  0
  149.7250  140.2245  154.9303 C   0  0  2  0  0  0  0  0  0  0  0  0
  150.7317  140.0006  153.9662 O   0  0  0  0  0  0  0  0  0  0  0  0
  148.9958  141.5547  154.7076 C   0  0  0  0  0  0  0  0  0  0  0  0
  148.5689  142.0180  156.0435 N   0  3  0  0  0  0  0  0  0  0  0  0
  151.0012  142.1318  158.3869 O   0  0  0  0  0  0  0  0  0  0  0  0
  148.4338  140.4558  157.4425 H   0  0  0  0  0  0  0  0  0  0  0  0
  149.0091  139.4014  154.9079 H   0  0  0  0  0  0  0  0  0  0  0  0
  154.0442  142.6982  161.0645 H   0  0  0  0  0  0  0  0  0  0  0  0
  153.2511  141.4952  160.0508 H   0  0  0  0  0  0  0  0  0  0  0  0
  152.4801  142.0410  161.5400 H   0  0  0  0  0  0  0  0  0  0  0  0
  152.2339  144.3512  160.5574 H   0  0  0  0  0  0  0  0  0  0  0  0
  153.0032  143.8105  159.0816 H   0  0  0  0  0  0  0  0  0  0  0  0
  151.2076  140.9738  156.2989 H   0  0  0  0  0  0  0  0  0  0  0  0
  150.5434  139.4217  156.8143 H   0  0  0  0  0  0  0  0  0  0  0  0
  150.3273  139.9319  153.1144 H   0  0  0  0  0  0  0  0  0  0  0  0
  149.6750  142.3040  154.2980 H   0  0  0  0  0  0  0  0  0  0  0  0
  148.1508  141.4584  154.0253 H   0  0  0  0  0  0  0  0  0  0  0  0
  147.5635  141.9835  156.1305 H   0  0  0  0  0  0  0  0  0  0  0  0
  148.8906  142.9662  156.1797 H   0  0  0  0  0  0  0  0  0  0  0  0
  1  2  1  0  0  0  0
  1 16  1  0  0  0  0
  1 17  1  0  0  0  0
  1 18  1  0  0  0  0
  2  3  1  0  0  0  0
  2 19  1  0  0  0  0
  2 20  1  0  0  0  0
  3 13  1  0  0  0  0
  3  4  2  0  0  0  0
  4  5  1  0  0  0  0
  5  6  2  0  0  0  0
  6  7  1  0  0  0  0
  6 13  1  0  0  0  0
  7 14  1  0  0  0  0
  7 12  1  0  0  0  0
  7  8  1  0  0  0  0
  8  9  1  0  0  0  0
  8 21  1  0  0  0  0
  8 22  1  0  0  0  0
  9 15  1  0  0  0  0
  9 10  1  0  0  0  0
  9 11  1  0  0  0  0
 10 23  1  0  0  0  0
 11 12  1  0  0  0  0
 11 24  1  0  0  0  0
 11 25  1  0  0  0  0
 12 26  1  0  0  0  0
 12 27  1  0  0  0  0
M  CHG  1  12   1
M  END
> <s_m_source_file>
AV-unprocessed.smi

> <i_m_source_file_index>
42

> <i_lp_mmshare_version>
43012

> <i_f3d_flags>
0

> <s_epik_input>
W0NIM11bQ0gyXWMxbm5jKG8xKVtDQEhdMltDSDJdW0NAQEhdKFtPSF0pW0NIMl1bTkhdMg==

> <s_epik_cmdline>
J2VwaWtfcHl0aG9uJywgJy1waCcsICc3LjAnLCAnLXRuJywgJzgnLCAnLW1hJywgJzIwMCcsICctbWV0YWxfYmluZGluZycsICctaW1hZScsICc8aW5maWxlLm1hZT4nLCAnLW9tYWUnLCAnPG91dGZpbGUubWFlPic=

> <r_lp_tautomer_probability>
1

> <r_epik_Ionization_Penalty>
0.00247063

> <r_epik_Ionization_Penalty_Charging>
0.0024706

> <r_epik_Ionization_Penalty_Neutral>
3.27814e-08

> <r_epik_State_Penalty>
0.00171198

> <r_epik_Charging_Adjusted_Penalty>
0.00418258

> <i_epik_Tot_Q>
1

> <i_epik_Tot_abs_Q>
1

> <r_epik_Metal_State_Penalty>
-0

> <b_epik_Metal_Only>
0

> <s_lp_Force_Field>
OPLS_2005

> <r_lp_Energy>
17.8578

> <b_lp_Chiralities_Consistent>
1

> <s_lp_Variant>
AV-unprocessed.smi:42-4

> <Gold.Version>
5.8.1

> <Gold.Id.Protein>
6NUR|6NUR_protein|mol2

> <Gold.PLP.Fitness>
35.6804

> <Gold.PLP.PLP>
-23.7447

> <Gold.PLP.part.hbond>
-3.7642

> <Gold.PLP.part.metal>
0.0000

> <Gold.PLP.part.buried>
-3.5183

> <Gold.PLP.part.nonpolar>
-16.6614

> <Gold.PLP.part.repulsive>
0.3552

> <Gold.PLP.ligand.clash>
0.0000

> <Gold.PLP.ligand.torsion>
0.0553

> <Gold.PLP.Chemscore.Hbond>
4.0000

> <Gold.PLP.Chemscore.CHOScore>
0.0000

> <Gold.PLP.Chemscore.Metal>
0.0000

> <Gold.Chemscore.Hbonds>
donor molecule, donor type, donor heavy atom, donor atom, acceptor molecule, acceptor atom, score
      L1  H    10    23       P1  7957  0.89
      L1  H    12    27       P1  8028  1.95
      P1  H  7989  7998       L1    10  0.24

> <Gold.PLP.Chemscore.Internal.Correction>
0.0463

> <Gold.Rescore>
     Score         DG    S(hbond)    S(metal)    S(lipo)     H(rot)  DE(clash)    DE(int)     intcor
     14.84     -15.18       2.62        0.00      48.70       1.86       0.01       0.33       ----

> <Gold.Chemscore.Fitness>
14.8370

> <Gold.Chemscore.DG>
-15.1846

> <Gold.Chemscore.ZeroCoef>
-5.4800

> <Gold.Chemscore.Hbond>
2.6228

> <Gold.Chemscore.Metal>
0.0000

> <Gold.Chemscore.Lipo>
48.6973

> <Gold.Chemscore.Internal_Hbond>
0.0000

> <Gold.Chemscore.DEClash>
0.0149

> <Gold.Chemscore.DEInternal>
0.3328

> <Gold.Chemscore.Rot>
1.8567

> <Gold.Chemscore.Internal.Correction>
   9.000000E+99

> <Gold.Chemscore.Hbonds>
donor molecule, donor type, donor heavy atom, donor atom, acceptor molecule, acceptor atom, score
      L1  H    10    23       P1  7957  0.85
      L1  H    12    27       P1  8028  0.93
      P1  H  7989  7998       L1    10  0.01

> <Gold.Chemscore.Hbond.Weighted>
-8.7601

> <Gold.Chemscore.Metal.Weighted>
-0.0000

> <Gold.Chemscore.Lipo.Weighted>
-5.6976

> <Gold.Chemscore.Internal_Hbond.Weighted>
0.0000

> <Gold.Chemscore.DEClash.Weighted>
0.0149

> <Gold.Chemscore.DEInternal.Weighted>
0.3328

> <Gold.Chemscore.Rot.Weighted>
4.7531

> <Gold.Chemscore.Internal.Correction.Weighted>
   9.000000E+99

> <Gold.Protein.RotatedTorsions>
[ 6907 6896 6895 6894 ] final   19.20 input  -60.11 | X-H torsion
[ 7974 7965 7964 7962 ] final   54.24 input  175.53 | X-H torsion
[ 8008 7997 7996 7995 ] final   67.26 input   59.86 | X-H torsion
[ 10167 10162 10161 10158 ] final   79.12 input  -65.29 | X-H torsion
[ 10718 10713 10712 10709 ] final  143.20 input   66.30 | X-H torsion
[ 10763 10752 10751 10750 ] final   97.30 input  -60.55 | X-H torsion
[ 11005 11000 10999 10996 ] final  -42.99 input  -57.11 | X-H torsion

> <Gold.Protein.ActiveResidues>
 VAL166  LYS551  ARG553  GLY616  TRP617  ASP618  TYR619  PRO620  LYS621  CYS622 
 ASP623  PHE694  ASN695  SER759  ASP760  ASP761  ALA762  ILE779  LEU786  VAL792 
 PHE793  MET794  SER795  GLU796  ALA797  LYS798  CYS799  TRP800  GLU811  SER814 

> <Gold.Protein.RotatedAtoms>
  151.8772  135.0467  160.0484 H   0  0  0  0  0  0  0  0  0  0  0  0  # atno 6907 bound_to 6896
  152.2541  133.5236  159.5351 H   0  0  0  0  0  0  0  0  0  0  0  0  # atno 6908 bound_to 6896
  150.7094  134.0835  159.3949 H   0  0  0  0  0  0  0  0  0  0  0  0  # atno 6909 bound_to 6896
  145.9629  139.4076  143.0237 H   0  0  0  0  0  0  0  0  0  0  0  0  # atno 7974 bound_to 7965
  155.6902  140.3496  155.4890 H   0  0  0  0  0  0  0  0  0  0  0  0  # atno 8008 bound_to 7997
  155.9531  140.1123  157.0982 H   0  0  0  0  0  0  0  0  0  0  0  0  # atno 8009 bound_to 7997
  154.4126  140.1190  156.5065 H   0  0  0  0  0  0  0  0  0  0  0  0  # atno 8010 bound_to 7997
  139.9637  144.5943  150.8049 H   0  0  0  0  0  0  0  0  0  0  0  0  # atno 10167 bound_to 10162
  157.3718  131.0980  151.0821 H   0  0  0  0  0  0  0  0  0  0  0  0  # atno 10718 bound_to 10713
  153.2752  135.4188  155.1026 H   0  0  0  0  0  0  0  0  0  0  0  0  # atno 10763 bound_to 10752
  154.8470  135.3482  154.6188 H   0  0  0  0  0  0  0  0  0  0  0  0  # atno 10764 bound_to 10752
  153.6609  135.7048  153.5235 H   0  0  0  0  0  0  0  0  0  0  0  0  # atno 10765 bound_to 10752
  141.0353  133.6802  156.2671 H   0  0  0  0  0  0  0  0  0  0  0  0  # atno 11005 bound_to 11000
  145.8014  140.9769  143.0997 LP  0  0  0  0  0  0  0  0  0  0  0  0  # atno 17320 bound_to 7965
  144.6819  139.9806  143.7483 LP  0  0  0  0  0  0  0  0  0  0  0  0  # atno 17321 bound_to 7965
  140.7545  143.3028  151.3038 LP  0  0  0  0  0  0  0  0  0  0  0  0  # atno 17342 bound_to 10162
  139.6534  144.0320  152.2643 LP  0  0  0  0  0  0  0  0  0  0  0  0  # atno 17343 bound_to 10162
  157.1923  130.6357  149.5709 LP  0  0  0  0  0  0  0  0  0  0  0  0  # atno 17370 bound_to 10713
  155.9757  130.4718  150.6477 LP  0  0  0  0  0  0  0  0  0  0  0  0  # atno 17371 bound_to 10713
  140.6332  134.5242  157.5562 LP  0  0  0  0  0  0  0  0  0  0  0  0  # atno 17394 bound_to 11000
  139.9237  134.8099  156.1134 LP  0  0  0  0  0  0  0  0  0  0  0  0  # atno 17395 bound_to 11000

$$$$
