AV-unprocessed.smi:2098|AV-procd|sdf|8567|dock6
  -GOLD-   2272011293D 1   1.00000     0.00000
 Structure written by MMmdl.
 37 39  0  0  0  0  0  0  0  0  2 V2000
  149.5694  142.4439  155.6494 O   0  0  0  0  0  0  0  0  0  0  0  0
  150.2554  141.6859  156.6264 C   0  0  2  0  0  0  0  0  0  0  0  0
  150.9177  142.6559  157.6176 C   0  0  0  0  0  0  0  0  0  0  0  0
  151.9086  141.9539  158.3567 O   0  0  0  0  0  0  0  0  0  0  0  0
  152.1656  142.3560  159.6500 C   0  0  0  0  0  0  0  0  0  0  0  0
  152.9543  141.4961  160.4426 C   0  0  0  0  0  0  0  0  0  0  0  0
  153.2686  141.8287  161.7744 C   0  0  0  0  0  0  0  0  0  0  0  0
  152.7932  143.0309  162.3297 C   0  0  0  0  0  0  0  0  0  0  0  0
  153.0942  143.3526  163.6100 F   0  0  0  0  0  0  0  0  0  0  0  0
  152.0047  143.8980  161.5513 C   0  0  0  0  0  0  0  0  0  0  0  0
  151.6911  143.5656  160.2188 C   0  0  0  0  0  0  0  0  0  0  0  0
  151.2933  140.7813  155.9325 C   0  0  0  0  0  0  0  0  0  0  0  0
  150.7179  139.5211  155.4402 N   0  0  0  0  0  0  0  0  0  0  0  0
  150.5569  139.0830  154.1622 C   0  0  0  0  0  0  0  0  0  0  0  0
  149.9700  137.8557  154.2178 N   0  3  0  0  0  0  0  0  0  0  0  0
  149.7536  137.5023  155.5513 C   0  0  0  0  0  0  0  0  0  0  0  0
  149.1887  136.3599  156.1101 C   0  0  0  0  0  0  0  0  0  0  0  0
  149.1198  136.3117  157.5180 C   0  0  0  0  0  0  0  0  0  0  0  0
  149.6020  137.3712  158.3136 C   0  0  0  0  0  0  0  0  0  0  0  0
  150.1710  138.5254  157.7362 C   0  0  0  0  0  0  0  0  0  0  0  0
  150.2340  138.5669  156.3435 C   0  0  0  0  0  0  0  0  0  0  0  0
  149.5897  143.3528  155.9088 H   0  0  0  0  0  0  0  0  0  0  0  0
  149.5369  141.0575  157.1544 H   0  0  0  0  0  0  0  0  0  0  0  0
  151.4074  143.4572  157.0618 H   0  0  0  0  0  0  0  0  0  0  0  0
  150.1720  143.1109  158.2723 H   0  0  0  0  0  0  0  0  0  0  0  0
  153.3235  140.5711  160.0245 H   0  0  0  0  0  0  0  0  0  0  0  0
  153.8747  141.1615  162.3693 H   0  0  0  0  0  0  0  0  0  0  0  0
  151.6393  144.8212  161.9762 H   0  0  0  0  0  0  0  0  0  0  0  0
  151.0851  144.2573  159.6541 H   0  0  0  0  0  0  0  0  0  0  0  0
  151.7869  141.2998  155.1102 H   0  0  0  0  0  0  0  0  0  0  0  0
  152.0806  140.5137  156.6385 H   0  0  0  0  0  0  0  0  0  0  0  0
  150.8418  139.6140  153.2654 H   0  0  0  0  0  0  0  0  0  0  0  0
  148.8203  135.5461  155.5028 H   0  0  0  0  0  0  0  0  0  0  0  0
  148.6906  135.4438  157.9973 H   0  0  0  0  0  0  0  0  0  0  0  0
  149.5355  137.2972  159.3894 H   0  0  0  0  0  0  0  0  0  0  0  0
  150.5425  139.3280  158.3559 H   0  0  0  0  0  0  0  0  0  0  0  0
  149.7356  137.3022  153.4038 H   0  0  0  0  0  0  0  0  0  0  0  0
  1  2  1  0  0  0  0
  1 22  1  0  0  0  0
  2  3  1  0  0  0  0
  2 12  1  0  0  0  0
  2 23  1  0  0  0  0
  3  4  1  0  0  0  0
  3 24  1  0  0  0  0
  3 25  1  0  0  0  0
  4  5  1  0  0  0  0
  5 11  1  0  0  0  0
  5  6  2  0  0  0  0
  6  7  1  0  0  0  0
  6 26  1  0  0  0  0
  7  8  2  0  0  0  0
  7 27  1  0  0  0  0
  8  9  1  0  0  0  0
  8 10  1  0  0  0  0
 10 11  2  0  0  0  0
 10 28  1  0  0  0  0
 11 29  1  0  0  0  0
 12 13  1  0  0  0  0
 12 30  1  0  0  0  0
 12 31  1  0  0  0  0
 13 21  1  0  0  0  0
 13 14  1  0  0  0  0
 14 15  2  0  0  0  0
 14 32  1  0  0  0  0
 15 16  1  0  0  0  0
 15 37  1  0  0  0  0
 16 21  2  0  0  0  0
 16 17  1  0  0  0  0
 17 18  2  0  0  0  0
 17 33  1  0  0  0  0
 18 19  1  0  0  0  0
 18 34  1  0  0  0  0
 19 20  2  0  0  0  0
 19 35  1  0  0  0  0
 20 21  1  0  0  0  0
 20 36  1  0  0  0  0
M  CHG  1  15   1
M  END
> <s_m_source_file>
AV-unprocessed.smi

> <i_m_source_file_index>
2098

> <i_lp_mmshare_version>
43012

> <i_f3d_flags>
0

> <s_epik_input>
W2NIXTFbY0hdW2NIXVtjSF1jKGMxMiluKFtjSF1uMilbQ0gyXVtDQEhdKFtPSF0pW0NIMl1PYzNbY0hdW2NIXWMoRilbY0hdW2NIXTM=

> <s_epik_cmdline>
J2VwaWtfcHl0aG9uJywgJy1waCcsICc3LjAnLCAnLXRuJywgJzgnLCAnLW1hJywgJzIwMCcsICctbWV0YWxfYmluZGluZycsICctaW1hZScsICc8aW5maWxlLm1hZT4nLCAnLW9tYWUnLCAnPG91dGZpbGUubWFlPic=

> <r_lp_tautomer_probability>
1

> <r_epik_Ionization_Penalty>
1.3832

> <r_epik_Ionization_Penalty_Charging>
1.38319

> <r_epik_Ionization_Penalty_Neutral>
2.3993e-06

> <r_epik_State_Penalty>
1.46389

> <r_epik_Charging_Adjusted_Penalty>
2.84709

> <i_epik_Tot_Q>
1

> <i_epik_Tot_abs_Q>
1

> <r_epik_Metal_State_Penalty>
5.50438

> <b_epik_Metal_Only>
0

> <s_lp_Force_Field>
OPLS_2005

> <r_lp_Energy>
20.4389

> <b_lp_Chiralities_Consistent>
1

> <s_lp_Variant>
AV-unprocessed.smi:2098-3

> <Gold.Version>
5.8.1

> <Gold.Id.Protein>
6NUR|6NUR_protein|mol2

> <Gold.PLP.Fitness>
56.6592

> <Gold.PLP.PLP>
-46.4290

> <Gold.PLP.part.hbond>
-2.0000

> <Gold.PLP.part.metal>
0.0000

> <Gold.PLP.part.buried>
-5.8610

> <Gold.PLP.part.nonpolar>
-37.3060

> <Gold.PLP.part.repulsive>
0.0517

> <Gold.PLP.ligand.clash>
0.0000

> <Gold.PLP.ligand.torsion>
0.7623

> <Gold.PLP.Chemscore.Hbond>
2.9120

> <Gold.PLP.Chemscore.CHOScore>
1.0000

> <Gold.PLP.Chemscore.Metal>
0.0000

> <Gold.Chemscore.Hbonds>
donor molecule, donor type, donor heavy atom, donor atom, acceptor molecule, acceptor atom, score
      L1  H     1    22       P1  8028  0.85
      L1  H    15    37       P1  7948  2.00
      L1  C    14    32       P1  7957  1.00

> <Gold.PLP.Chemscore.Internal.Correction>
0.0188

> <Gold.Rescore>
     Score         DG    S(hbond)    S(metal)    S(lipo)     H(rot)  DE(clash)    DE(int)     intcor
     17.33     -18.14       1.88        0.00     108.21       2.46       0.02       0.78       ----

> <Gold.Chemscore.Fitness>
17.3350

> <Gold.Chemscore.DG>
-18.1404

> <Gold.Chemscore.ZeroCoef>
-5.4800

> <Gold.Chemscore.Hbond>
1.8843

> <Gold.Chemscore.Metal>
0.0000

> <Gold.Chemscore.Lipo>
108.2099

> <Gold.Chemscore.Internal_Hbond>
0.0000

> <Gold.Chemscore.DEClash>
0.0247

> <Gold.Chemscore.DEInternal>
0.7807

> <Gold.Chemscore.Rot>
2.4584

> <Gold.Chemscore.Internal.Correction>
   9.000000E+99

> <Gold.Chemscore.Hbonds>
donor molecule, donor type, donor heavy atom, donor atom, acceptor molecule, acceptor atom, score
      L1  H     1    22       P1  8028  0.80
      L1  H    15    37       P1  7948  0.63

> <Gold.Chemscore.Hbond.Weighted>
-6.2935

> <Gold.Chemscore.Metal.Weighted>
-0.0000

> <Gold.Chemscore.Lipo.Weighted>
-12.6606

> <Gold.Chemscore.Internal_Hbond.Weighted>
0.0000

> <Gold.Chemscore.DEClash.Weighted>
0.0247

> <Gold.Chemscore.DEInternal.Weighted>
0.7807

> <Gold.Chemscore.Rot.Weighted>
6.2936

> <Gold.Chemscore.Internal.Correction.Weighted>
   9.000000E+99

> <Gold.Protein.RotatedTorsions>
[ 6907 6896 6895 6894 ] final -161.87 input  -60.11 | X-H torsion
[ 7974 7965 7964 7962 ] final  -28.73 input  175.53 | X-H torsion
[ 8008 7997 7996 7995 ] final  135.37 input   59.86 | X-H torsion
[ 10167 10162 10161 10158 ] final   13.84 input  -65.29 | X-H torsion
[ 10718 10713 10712 10709 ] final  -36.76 input   66.30 | X-H torsion
[ 10763 10752 10751 10750 ] final -103.18 input  -60.55 | X-H torsion
[ 11005 11000 10999 10996 ] final   59.42 input  -57.11 | X-H torsion

> <Gold.Protein.ActiveResidues>
 VAL166  LYS551  ARG553  GLY616  TRP617  ASP618  TYR619  PRO620  LYS621  CYS622 
 ASP623  PHE694  ASN695  SER759  ASP760  ASP761  ALA762  ILE779  LEU786  VAL792 
 PHE793  MET794  SER795  GLU796  ALA797  LYS798  CYS799  TRP800  GLU811  SER814 

> <Gold.Protein.RotatedAtoms>
  151.3715  133.3853  159.2699 H   0  0  0  0  0  0  0  0  0  0  0  0  # atno 6907 bound_to 6896
  150.9647  134.9031  159.7762 H   0  0  0  0  0  0  0  0  0  0  0  0  # atno 6908 bound_to 6896
  152.5163  134.3675  159.9359 H   0  0  0  0  0  0  0  0  0  0  0  0  # atno 6909 bound_to 6896
  146.1267  140.5321  142.8711 H   0  0  0  0  0  0  0  0  0  0  0  0  # atno 7974 bound_to 7965
  156.3002  140.2472  156.3570 H   0  0  0  0  0  0  0  0  0  0  0  0  # atno 8008 bound_to 7997
  154.8913  140.0409  157.1859 H   0  0  0  0  0  0  0  0  0  0  0  0  # atno 8009 bound_to 7997
  154.8595  140.2918  155.5552 H   0  0  0  0  0  0  0  0  0  0  0  0  # atno 8010 bound_to 7997
  140.5976  143.8670  150.6933 H   0  0  0  0  0  0  0  0  0  0  0  0  # atno 10167 bound_to 10162
  156.3231  130.4268  149.7941 H   0  0  0  0  0  0  0  0  0  0  0  0  # atno 10718 bound_to 10713
  154.7788  135.4833  153.9801 H   0  0  0  0  0  0  0  0  0  0  0  0  # atno 10763 bound_to 10752
  153.1465  135.6783  153.8953 H   0  0  0  0  0  0  0  0  0  0  0  0  # atno 10764 bound_to 10752
  153.8611  135.3155  155.3416 H   0  0  0  0  0  0  0  0  0  0  0  0  # atno 10765 bound_to 10752
  140.0305  134.6019  155.9514 H   0  0  0  0  0  0  0  0  0  0  0  0  # atno 11005 bound_to 11000
  144.7649  140.5508  143.6710 LP  0  0  0  0  0  0  0  0  0  0  0  0  # atno 17320 bound_to 7965
  145.5349  139.1475  143.3479 LP  0  0  0  0  0  0  0  0  0  0  0  0  # atno 17321 bound_to 7965
  140.2208  143.3810  152.1644 LP  0  0  0  0  0  0  0  0  0  0  0  0  # atno 17342 bound_to 10162
  139.5269  144.7113  151.5198 LP  0  0  0  0  0  0  0  0  0  0  0  0  # atno 17343 bound_to 10162
  156.5242  130.8228  151.3214 LP  0  0  0  0  0  0  0  0  0  0  0  0  # atno 17370 bound_to 10713
  157.7416  130.9873  150.2455 LP  0  0  0  0  0  0  0  0  0  0  0  0  # atno 17371 bound_to 10713
  141.1828  133.6549  156.5091 LP  0  0  0  0  0  0  0  0  0  0  0  0  # atno 17394 bound_to 11000
  140.4234  134.7167  157.4902 LP  0  0  0  0  0  0  0  0  0  0  0  0  # atno 17395 bound_to 11000

$$$$
