AV-unprocessed.smi:45|AV-procd|sdf|416|dock4
  -GOLD-   2262016293D 1   1.00000     0.00000
 Structure written by MMmdl.
 60 63  0  0  0  0  0  0  0  0  3 V2000
  153.5946  126.9853  155.5500 C   0  0  0  0  0  0  0  0  0  0  0  0
  153.4965  128.2970  156.0851 O   0  0  0  0  0  0  0  0  0  0  0  0
  152.3862  129.0511  155.7659 C   0  0  0  0  0  0  0  0  0  0  0  0
  151.3139  128.5773  154.9678 C   0  0  0  0  0  0  0  0  0  0  0  0
  150.2116  129.4064  154.6846 C   0  0  0  0  0  0  0  0  0  0  0  0
  150.1610  130.7200  155.1915 C   0  0  0  0  0  0  0  0  0  0  0  0
  148.9732  131.6109  154.8867 C   0  0  0  0  0  0  0  0  0  0  0  0
  149.1628  132.9854  155.3264 N   0  0  0  0  0  0  0  0  0  0  0  0
  148.1859  133.9716  155.1059 C   0  0  0  0  0  0  0  0  0  0  0  0
  147.5887  134.0096  153.8925 N   0  0  0  0  0  0  0  0  0  0  0  0
  146.6415  134.9199  153.6289 C   0  0  0  0  0  0  0  0  0  0  0  0
  146.0492  134.9176  152.3671 N   0  0  0  0  0  0  0  0  0  0  0  0
  145.7727  133.6748  151.6541 C   0  0  0  0  0  0  0  0  0  0  0  0
  144.5043  133.9285  150.8378 C   0  0  0  0  0  0  0  0  0  0  0  0
  144.5707  135.4238  150.5511 C   0  0  0  0  0  0  0  0  0  0  0  0
  145.2136  135.9900  151.8260 C   0  0  2  0  0  0  0  0  0  0  0  0
  145.9504  137.3345  151.6276 C   0  0  0  0  0  0  0  0  0  0  0  0
  146.5861  137.4024  150.3674 O   0  0  0  0  0  0  0  0  0  0  0  0
  146.2429  135.8150  154.5456 N   0  3  0  0  0  0  0  0  0  0  0  0
  146.8080  135.8200  155.7767 C   0  0  0  0  0  0  0  0  0  0  0  0
  147.8129  134.8888  156.1196 C   0  0  0  0  0  0  0  0  0  0  0  0
  148.4567  134.9209  157.4830 C   0  0  0  0  0  0  0  0  0  0  0  0
  149.2418  134.0158  157.7874 O   0  0  0  0  0  0  0  0  0  0  0  0
  148.0310  135.9869  158.2141 N   0  5  0  0  0  0  0  0  0  0  0  0
  148.6495  136.4151  159.4678 C   0  0  0  0  0  0  0  0  0  0  0  0
  147.7332  136.1670  160.6577 C   0  0  0  0  0  0  0  0  0  0  0  0
  147.4545  134.8906  160.9511 N   0  0  0  0  0  0  0  0  0  0  0  0
  146.6599  134.6666  162.0201 C   0  0  0  0  0  0  0  0  0  0  0  0
  146.1431  135.7240  162.7953 C   0  0  0  0  0  0  0  0  0  0  0  0
  146.5019  137.0256  162.3915 C   0  0  0  0  0  0  0  0  0  0  0  0
  147.2969  137.2446  161.3218 N   0  0  0  0  0  0  0  0  0  0  0  0
  151.2217  131.1978  155.9853 C   0  0  0  0  0  0  0  0  0  0  0  0
  152.3258  130.3702  156.2694 C   0  0  0  0  0  0  0  0  0  0  0  0
  153.6107  130.9881  157.2447 Cl  0  0  0  0  0  0  0  0  0  0  0  0
  144.4164  136.1483  152.5536 H   0  0  0  0  0  0  0  0  0  0  0  0
  154.5184  126.5232  155.8979 H   0  0  0  0  0  0  0  0  0  0  0  0
  153.6245  127.0004  154.4597 H   0  0  0  0  0  0  0  0  0  0  0  0
  152.7670  126.3567  155.8809 H   0  0  0  0  0  0  0  0  0  0  0  0
  151.3125  127.5785  154.5590 H   0  0  0  0  0  0  0  0  0  0  0  0
  149.4032  129.0302  154.0749 H   0  0  0  0  0  0  0  0  0  0  0  0
  148.8008  131.5971  153.8098 H   0  0  0  0  0  0  0  0  0  0  0  0
  148.0793  131.2033  155.3607 H   0  0  0  0  0  0  0  0  0  0  0  0
  150.0162  133.2317  155.8082 H   0  0  0  0  0  0  0  0  0  0  0  0
  146.6155  133.4549  150.9982 H   0  0  0  0  0  0  0  0  0  0  0  0
  145.6388  132.8284  152.3288 H   0  0  0  0  0  0  0  0  0  0  0  0
  144.4513  133.3201  149.9344 H   0  0  0  0  0  0  0  0  0  0  0  0
  143.6242  133.7101  151.4443 H   0  0  0  0  0  0  0  0  0  0  0  0
  145.2040  135.5901  149.6789 H   0  0  0  0  0  0  0  0  0  0  0  0
  143.5938  135.8604  150.3416 H   0  0  0  0  0  0  0  0  0  0  0  0
  145.2336  138.1539  151.6874 H   0  0  0  0  0  0  0  0  0  0  0  0
  146.6896  137.5162  152.4062 H   0  0  0  0  0  0  0  0  0  0  0  0
  145.9807  137.7755  149.7445 H   0  0  0  0  0  0  0  0  0  0  0  0
  146.4367  136.5781  156.4513 H   0  0  0  0  0  0  0  0  0  0  0  0
  149.5950  135.9001  159.6471 H   0  0  0  0  0  0  0  0  0  0  0  0
  148.9025  137.4764  159.4466 H   0  0  0  0  0  0  0  0  0  0  0  0
  146.4352  133.6377  162.2583 H   0  0  0  0  0  0  0  0  0  0  0  0
  145.5079  135.5469  163.6502 H   0  0  0  0  0  0  0  0  0  0  0  0
  146.1498  137.8939  162.9282 H   0  0  0  0  0  0  0  0  0  0  0  0
  151.1934  132.2039  156.3779 H   0  0  0  0  0  0  0  0  0  0  0  0
  145.5169  136.4972  154.3283 H   0  0  0  0  0  0  0  0  0  0  0  0
  1  2  1  0  0  0  0
  1 36  1  0  0  0  0
  1 37  1  0  0  0  0
  1 38  1  0  0  0  0
  2  3  1  0  0  0  0
  3 33  1  0  0  0  0
  3  4  2  0  0  0  0
  4  5  1  0  0  0  0
  4 39  1  0  0  0  0
  5  6  2  0  0  0  0
  5 40  1  0  0  0  0
  6  7  1  0  0  0  0
  6 32  1  0  0  0  0
  7  8  1  0  0  0  0
  7 41  1  0  0  0  0
  7 42  1  0  0  0  0
  8  9  1  0  0  0  0
  8 43  1  0  0  0  0
  9 21  1  0  0  0  0
  9 10  2  0  0  0  0
 10 11  1  0  0  0  0
 11 12  1  0  0  0  0
 11 19  2  0  0  0  0
 12 16  1  0  0  0  0
 12 13  1  0  0  0  0
 13 14  1  0  0  0  0
 13 44  1  0  0  0  0
 13 45  1  0  0  0  0
 14 15  1  0  0  0  0
 14 46  1  0  0  0  0
 14 47  1  0  0  0  0
 15 16  1  0  0  0  0
 15 48  1  0  0  0  0
 15 49  1  0  0  0  0
 16 35  1  0  0  0  0
 16 17  1  0  0  0  0
 17 18  1  0  0  0  0
 17 50  1  0  0  0  0
 17 51  1  0  0  0  0
 18 52  1  0  0  0  0
 19 20  1  0  0  0  0
 19 60  1  0  0  0  0
 20 21  2  0  0  0  0
 20 53  1  0  0  0  0
 21 22  1  0  0  0  0
 22 23  2  0  0  0  0
 22 24  1  0  0  0  0
 24 25  1  0  0  0  0
 25 26  1  0  0  0  0
 25 54  1  0  0  0  0
 25 55  1  0  0  0  0
 26 31  1  0  0  0  0
 26 27  2  0  0  0  0
 27 28  1  0  0  0  0
 28 29  2  0  0  0  0
 28 56  1  0  0  0  0
 29 30  1  0  0  0  0
 29 57  1  0  0  0  0
 30 31  2  0  0  0  0
 30 58  1  0  0  0  0
 32 33  2  0  0  0  0
 32 59  1  0  0  0  0
 33 34  1  0  0  0  0
M  CHG  1  19   1
M  CHG  1  24  -1
M  END
> <s_m_source_file>
AV-unprocessed.smi

> <i_m_source_file_index>
45

> <i_lp_mmshare_version>
43012

> <i_f3d_flags>
0

> <s_epik_input>
W0NIM11PYzFbY0hdW2NIXWMoW2NIXWMxQ2wpW0NIMl1bTkhdYzJuYyhOM1tDSDJdW0NIMl1bQ0gyXVtDQEhdM1tDSDJdW09IXSluW2NIXWMyQyg9TylbTkhdW0NIMl1jNG5bY0hdW2NIXVtjSF1uNA==

> <s_epik_cmdline>
J2VwaWtfcHl0aG9uJywgJy1waCcsICc3LjAnLCAnLXRuJywgJzgnLCAnLW1hJywgJzIwMCcsICctbWV0YWxfYmluZGluZycsICctaW1hZScsICc8aW5maWxlLm1hZT4nLCAnLW9tYWUnLCAnPG91dGZpbGUubWFlPic=

> <r_lp_tautomer_probability>
0.575011

> <r_epik_Ionization_Penalty>
6.73124

> <r_epik_Ionization_Penalty_Charging>
6.73106

> <r_epik_Ionization_Penalty_Neutral>
0.000179426

> <r_epik_State_Penalty>
8.26145

> <r_epik_Charging_Adjusted_Penalty>
14.9925

> <i_epik_Tot_Q>
0

> <i_epik_Tot_abs_Q>
2

> <r_epik_Metal_State_Penalty>
4.22532

> <b_epik_Metal_Only>
1

> <s_epik_Chemistry_Notes>
This compound contains an electron-poor aromatic ring that is susceptible to covalent hydrolysis at low pH, typically resulting in measured values for nitrogen ring protonation that are around two units higher than predicted values.

> <s_lp_Force_Field>
OPLS_2005

> <r_lp_Energy>
47.4245

> <b_lp_Chiralities_Consistent>
1

> <s_lp_Variant>
AV-unprocessed.smi:45-10

> <Gold.Version>
5.8.1

> <Gold.Id.Protein>
6NUR|6NUR_protein|mol2

> <Gold.PLP.Fitness>
64.5759

> <Gold.PLP.PLP>
-52.1013

> <Gold.PLP.part.hbond>
-5.8381

> <Gold.PLP.part.metal>
0.0000

> <Gold.PLP.part.buried>
-2.5572

> <Gold.PLP.part.nonpolar>
-42.7600

> <Gold.PLP.part.repulsive>
0.2114

> <Gold.PLP.ligand.clash>
0.6492

> <Gold.PLP.ligand.torsion>
1.1507

> <Gold.PLP.Chemscore.Hbond>
4.7040

> <Gold.PLP.Chemscore.CHOScore>
0.0000

> <Gold.PLP.Chemscore.Metal>
0.0000

> <Gold.Chemscore.Hbonds>
donor molecule, donor type, donor heavy atom, donor atom, acceptor molecule, acceptor atom, score
      L1  H    18    52       P1 10171  0.37
      P1  H  6896  6909       L1    23  0.81
      P1  H  6931  6943       L1    31  0.73
      P1  H  6934  6947       L1    31  1.00
      P1  H  7954  7966       L1    18  0.86

> <Gold.PLP.Chemscore.Internal.Correction>
1.3133

> <Gold.Rescore>
     Score         DG    S(hbond)    S(metal)    S(lipo)     H(rot)  DE(clash)    DE(int)     intcor
     20.86     -24.01       4.06        0.00     105.93       2.90       0.37       2.78       ----

> <Gold.Chemscore.Fitness>
20.8623

> <Gold.Chemscore.DG>
-24.0080

> <Gold.Chemscore.ZeroCoef>
-5.4800

> <Gold.Chemscore.Hbond>
4.0583

> <Gold.Chemscore.Metal>
0.0000

> <Gold.Chemscore.Lipo>
105.9327

> <Gold.Chemscore.Internal_Hbond>
0.0000

> <Gold.Chemscore.DEClash>
0.3684

> <Gold.Chemscore.DEInternal>
2.7774

> <Gold.Chemscore.Rot>
2.8988

> <Gold.Chemscore.Internal.Correction>
   9.000000E+99

> <Gold.Chemscore.Hbonds>
donor molecule, donor type, donor heavy atom, donor atom, acceptor molecule, acceptor atom, score
      L1  H    18    52       P1 10171  0.37
      P1  H  6896  6909       L1    23  0.80
      P1  H  6931  6943       L1    31  0.26
      P1  H  6934  6947       L1    31  0.57
      P1  H  7954  7966       L1    18  0.51

> <Gold.Chemscore.Hbond.Weighted>
-13.5547

> <Gold.Chemscore.Metal.Weighted>
-0.0000

> <Gold.Chemscore.Lipo.Weighted>
-12.3941

> <Gold.Chemscore.Internal_Hbond.Weighted>
0.0000

> <Gold.Chemscore.DEClash.Weighted>
0.3684

> <Gold.Chemscore.DEInternal.Weighted>
2.7774

> <Gold.Chemscore.Rot.Weighted>
7.4209

> <Gold.Chemscore.Internal.Correction.Weighted>
   9.000000E+99

> <Gold.Protein.RotatedTorsions>
[ 6907 6896 6895 6894 ] final   18.36 input  -60.11 | X-H torsion
[ 7974 7965 7964 7962 ] final -104.34 input  175.53 | X-H torsion
[ 8008 7997 7996 7995 ] final  116.28 input   59.86 | X-H torsion
[ 10167 10162 10161 10158 ] final  -41.56 input  -65.29 | X-H torsion
[ 10718 10713 10712 10709 ] final  -40.19 input   66.30 | X-H torsion
[ 10763 10752 10751 10750 ] final -126.21 input  -60.55 | X-H torsion
[ 11005 11000 10999 10996 ] final -109.43 input  -57.11 | X-H torsion

> <Gold.Protein.ActiveResidues>
 VAL166  LYS551  ARG553  GLY616  TRP617  ASP618  TYR619  PRO620  LYS621  CYS622 
 ASP623  PHE694  ASN695  SER759  ASP760  ASP761  ALA762  ILE779  LEU786  VAL792 
 PHE793  MET794  SER795  GLU796  ALA797  LYS798  CYS799  TRP800  GLU811  SER814 

> <Gold.Protein.RotatedAtoms>
  151.8640  135.0513  160.0472 H   0  0  0  0  0  0  0  0  0  0  0  0  # atno 6907 bound_to 6896
  152.2640  133.5318  159.5407 H   0  0  0  0  0  0  0  0  0  0  0  0  # atno 6908 bound_to 6896
  150.7127  134.0706  159.3905 H   0  0  0  0  0  0  0  0  0  0  0  0  # atno 6909 bound_to 6896
  145.2444  140.9216  143.3131 H   0  0  0  0  0  0  0  0  0  0  0  0  # atno 7974 bound_to 7965
  156.2430  140.2921  156.0498 H   0  0  0  0  0  0  0  0  0  0  0  0  # atno 8008 bound_to 7997
  155.1894  140.0406  157.2914 H   0  0  0  0  0  0  0  0  0  0  0  0  # atno 8009 bound_to 7997
  154.6205  140.2474  155.7562 H   0  0  0  0  0  0  0  0  0  0  0  0  # atno 8010 bound_to 7997
  140.6999  143.3088  151.3083 H   0  0  0  0  0  0  0  0  0  0  0  0  # atno 10167 bound_to 10162
  156.2841  130.4220  149.8306 H   0  0  0  0  0  0  0  0  0  0  0  0  # atno 10718 bound_to 10713
  154.8743  135.4003  154.3393 H   0  0  0  0  0  0  0  0  0  0  0  0  # atno 10763 bound_to 10752
  153.4195  135.7023  153.6309 H   0  0  0  0  0  0  0  0  0  0  0  0  # atno 10764 bound_to 10752
  153.4977  135.3734  155.2494 H   0  0  0  0  0  0  0  0  0  0  0  0  # atno 10765 bound_to 10752
  141.0848  133.9158  157.2210 H   0  0  0  0  0  0  0  0  0  0  0  0  # atno 11005 bound_to 11000
  144.9559  139.4032  143.6379 LP  0  0  0  0  0  0  0  0  0  0  0  0  # atno 17320 bound_to 7965
  146.3319  139.8589  142.8860 LP  0  0  0  0  0  0  0  0  0  0  0  0  # atno 17321 bound_to 7965
  139.6503  144.0375  152.2621 LP  0  0  0  0  0  0  0  0  0  0  0  0  # atno 17342 bound_to 10162
  139.9909  144.6362  150.7815 LP  0  0  0  0  0  0  0  0  0  0  0  0  # atno 17343 bound_to 10162
  156.5743  130.8438  151.3365 LP  0  0  0  0  0  0  0  0  0  0  0  0  # atno 17370 bound_to 10713
  157.7323  130.9713  150.1922 LP  0  0  0  0  0  0  0  0  0  0  0  0  # atno 17371 bound_to 10713
  139.9665  135.0140  156.9400 LP  0  0  0  0  0  0  0  0  0  0  0  0  # atno 17394 bound_to 11000
  140.5388  134.0740  155.7336 LP  0  0  0  0  0  0  0  0  0  0  0  0  # atno 17395 bound_to 11000

$$$$
