AV-unprocessed.smi:1830|AV-procd|sdf|7443|dock3
  -GOLD-   22720 9133D 1   1.00000     0.00000
 Structure written by MMmdl.
 52 55  0  0  0  0  0  0  0  0  1 V2000
  148.6977  140.2584  155.0916 O   0  0  0  0  0  0  0  0  0  0  0  0
  148.6606  141.4417  155.4283 C   0  0  0  0  0  0  0  0  0  0  0  0
  147.8195  142.3378  154.8935 N   0  0  0  0  0  0  0  0  0  0  0  0
  146.8385  142.0652  153.8462 C   0  0  0  0  0  0  0  0  0  0  0  0
  145.4950  142.7730  154.0991 C   0  0  1  0  0  0  0  0  0  0  0  0
  145.1130  142.8915  155.5949 C   0  0  0  0  0  0  0  0  0  0  0  0
  143.8733  143.6323  155.7240 N   0  0  0  0  0  0  0  0  0  0  0  0
  143.4072  143.9005  157.0645 C   0  0  0  0  0  0  0  0  0  0  0  0
  142.3553  145.0090  156.8836 C   0  0  0  0  0  0  0  0  0  0  0  0
  142.6936  145.6416  155.5151 C   0  0  0  0  0  0  0  0  0  0  0  0
  143.9938  144.9350  155.1266 C   0  0  2  0  0  0  0  0  0  0  0  0
  144.3204  144.8194  153.6301 C   0  0  0  0  0  0  0  0  0  0  0  0
  145.5318  144.0714  153.4923 O   0  0  0  0  0  0  0  0  0  0  0  0
  149.4471  142.0129  156.3557 N   0  0  0  0  0  0  0  0  0  0  0  0
  150.4874  141.4242  157.1322 C   0  0  0  0  0  0  0  0  0  0  0  0
  150.9455  140.1001  156.9224 C   0  0  0  0  0  0  0  0  0  0  0  0
  151.9711  139.5898  157.7382 C   0  0  0  0  0  0  0  0  0  0  0  0
  152.4980  140.4177  158.7442 C   0  0  0  0  0  0  0  0  0  0  0  0
  152.0614  141.6730  158.9691 N   0  0  0  0  0  0  0  0  0  0  0  0
  151.0766  142.1761  158.1849 C   0  0  0  0  0  0  0  0  0  0  0  0
  150.6154  143.4783  158.4702 N   0  0  0  0  0  0  0  0  0  0  0  0
  149.6251  143.5194  159.5431 C   0  0  0  0  0  0  0  0  0  0  0  0
  149.9161  144.7827  160.3560 C   0  0  0  0  0  0  0  0  0  0  0  0
  151.4069  145.0027  160.1300 C   0  0  0  0  0  0  0  0  0  0  0  0
  151.5897  144.5474  158.6837 C   0  0  0  0  0  0  0  0  0  0  0  0
  147.8585  143.2867  155.2360 H   0  0  0  0  0  0  0  0  0  0  0  0
  147.2571  142.4111  152.9009 H   0  0  0  0  0  0  0  0  0  0  0  0
  146.6790  140.9922  153.7287 H   0  0  0  0  0  0  0  0  0  0  0  0
  144.7192  142.1962  153.5925 H   0  0  0  0  0  0  0  0  0  0  0  0
  145.0035  141.9006  156.0363 H   0  0  0  0  0  0  0  0  0  0  0  0
  145.9022  143.4008  156.1487 H   0  0  0  0  0  0  0  0  0  0  0  0
  142.9994  143.0060  157.5362 H   0  0  0  0  0  0  0  0  0  0  0  0
  144.2285  144.2657  157.6834 H   0  0  0  0  0  0  0  0  0  0  0  0
  141.3479  144.5916  156.8678 H   0  0  0  0  0  0  0  0  0  0  0  0
  142.4047  145.7352  157.6956 H   0  0  0  0  0  0  0  0  0  0  0  0
  141.9040  145.4230  154.7948 H   0  0  0  0  0  0  0  0  0  0  0  0
  142.8135  146.7239  155.5696 H   0  0  0  0  0  0  0  0  0  0  0  0
  144.8158  145.4689  155.6089 H   0  0  0  0  0  0  0  0  0  0  0  0
  143.5136  144.3227  153.0887 H   0  0  0  0  0  0  0  0  0  0  0  0
  144.4524  145.8062  153.1865 H   0  0  0  0  0  0  0  0  0  0  0  0
  149.3496  143.0122  156.4600 H   0  0  0  0  0  0  0  0  0  0  0  0
  150.5230  139.4606  156.1632 H   0  0  0  0  0  0  0  0  0  0  0  0
  152.3415  138.5851  157.5984 H   0  0  0  0  0  0  0  0  0  0  0  0
  153.2849  140.0603  159.3916 H   0  0  0  0  0  0  0  0  0  0  0  0
  148.6120  143.5310  159.1410 H   0  0  0  0  0  0  0  0  0  0  0  0
  149.7207  142.6379  160.1800 H   0  0  0  0  0  0  0  0  0  0  0  0
  149.3535  145.6240  159.9485 H   0  0  0  0  0  0  0  0  0  0  0  0
  149.6543  144.6784  161.4093 H   0  0  0  0  0  0  0  0  0  0  0  0
  151.7180  146.0349  160.2937 H   0  0  0  0  0  0  0  0  0  0  0  0
  151.9840  144.3617  160.7982 H   0  0  0  0  0  0  0  0  0  0  0  0
  152.6217  144.2662  158.4729 H   0  0  0  0  0  0  0  0  0  0  0  0
  151.3396  145.3626  158.0040 H   0  0  0  0  0  0  0  0  0  0  0  0
  1  2  2  0  0  0  0
  2  3  1  0  0  0  0
  2 14  1  0  0  0  0
  3  4  1  0  0  0  0
  3 26  1  0  0  0  0
  4  5  1  0  0  0  0
  4 27  1  0  0  0  0
  4 28  1  0  0  0  0
  5 13  1  0  0  0  0
  5  6  1  0  0  0  0
  5 29  1  0  0  0  0
  6  7  1  0  0  0  0
  6 30  1  0  0  0  0
  6 31  1  0  0  0  0
  7 11  1  0  0  0  0
  7  8  1  0  0  0  0
  8  9  1  0  0  0  0
  8 32  1  0  0  0  0
  8 33  1  0  0  0  0
  9 10  1  0  0  0  0
  9 34  1  0  0  0  0
  9 35  1  0  0  0  0
 10 11  1  0  0  0  0
 10 36  1  0  0  0  0
 10 37  1  0  0  0  0
 11 12  1  0  0  0  0
 11 38  1  0  0  0  0
 12 13  1  0  0  0  0
 12 39  1  0  0  0  0
 12 40  1  0  0  0  0
 14 15  1  0  0  0  0
 14 41  1  0  0  0  0
 15 20  1  0  0  0  0
 15 16  2  0  0  0  0
 16 17  1  0  0  0  0
 16 42  1  0  0  0  0
 17 18  2  0  0  0  0
 17 43  1  0  0  0  0
 18 19  1  0  0  0  0
 18 44  1  0  0  0  0
 19 20  2  0  0  0  0
 20 21  1  0  0  0  0
 21 25  1  0  0  0  0
 21 22  1  0  0  0  0
 22 23  1  0  0  0  0
 22 45  1  0  0  0  0
 22 46  1  0  0  0  0
 23 24  1  0  0  0  0
 23 47  1  0  0  0  0
 23 48  1  0  0  0  0
 24 25  1  0  0  0  0
 24 49  1  0  0  0  0
 24 50  1  0  0  0  0
 25 51  1  0  0  0  0
 25 52  1  0  0  0  0
M  END
> <s_m_source_file>
AV-unprocessed.smi

> <i_m_source_file_index>
1830

> <i_lp_mmshare_version>
43012

> <i_f3d_flags>
0

> <s_epik_input>
W0NIMl0xW0NIMl1bQ0gyXVtDQEhdKE4xMilbQ0gyXU9bQ0BASF0oW0NIMl0yKVtDSDJdW05IXUMoPU8pW05IXWMzW2NIXVtjSF1bY0hdbmMzTjRbQ0gyXVtDSDJdW0NIMl1bQ0gyXTQ=

> <s_epik_cmdline>
J2VwaWtfcHl0aG9uJywgJy1waCcsICc3LjAnLCAnLXRuJywgJzgnLCAnLW1hJywgJzIwMCcsICctbWV0YWxfYmluZGluZycsICctaW1hZScsICc8aW5maWxlLm1hZT4nLCAnLW9tYWUnLCAnPG91dGZpbGUubWFlPic=

> <r_lp_tautomer_probability>
1

> <r_epik_Ionization_Penalty>
1.16487

> <r_epik_Ionization_Penalty_Charging>
0

> <r_epik_Ionization_Penalty_Neutral>
1.16487

> <r_epik_State_Penalty>
1.21807

> <r_epik_Charging_Adjusted_Penalty>
1.21807

> <i_epik_Tot_Q>
0

> <i_epik_Tot_abs_Q>
0

> <r_epik_Metal_State_Penalty>
1.19922

> <b_epik_Metal_Only>
0

> <s_lp_Force_Field>
OPLS_2005

> <r_lp_Energy>
78.4181

> <b_lp_Chiralities_Consistent>
1

> <s_lp_Variant>
AV-unprocessed.smi:1830-12

> <Gold.Version>
5.8.1

> <Gold.Id.Protein>
6NUR|6NUR_protein|mol2

> <Gold.PLP.Fitness>
51.8677

> <Gold.PLP.PLP>
-47.6727

> <Gold.PLP.part.hbond>
-3.0000

> <Gold.PLP.part.metal>
0.0000

> <Gold.PLP.part.buried>
-8.5654

> <Gold.PLP.part.nonpolar>
-37.1230

> <Gold.PLP.part.repulsive>
0.7662

> <Gold.PLP.ligand.clash>
0.0000

> <Gold.PLP.ligand.torsion>
0.9609

> <Gold.PLP.Chemscore.Hbond>
2.0000

> <Gold.PLP.Chemscore.CHOScore>
0.0000

> <Gold.PLP.Chemscore.Metal>
0.0000

> <Gold.Chemscore.Hbonds>
donor molecule, donor type, donor heavy atom, donor atom, acceptor molecule, acceptor atom, score
      L1  H     3    26       P1  8028  0.98
      L1  H    14    41       P1  8028  0.98

> <Gold.PLP.Chemscore.Internal.Correction>
0.1168

> <Gold.Rescore>
     Score         DG    S(hbond)    S(metal)    S(lipo)     H(rot)  DE(clash)    DE(int)     intcor
     18.11     -20.27       1.85        0.00     103.81       1.37       0.11       2.05       ----

> <Gold.Chemscore.Fitness>
18.1149

> <Gold.Chemscore.DG>
-20.2719

> <Gold.Chemscore.ZeroCoef>
-5.4800

> <Gold.Chemscore.Hbond>
1.8458

> <Gold.Chemscore.Metal>
0.0000

> <Gold.Chemscore.Lipo>
103.8091

> <Gold.Chemscore.Internal_Hbond>
0.0000

> <Gold.Chemscore.DEClash>
0.1057

> <Gold.Chemscore.DEInternal>
2.0514

> <Gold.Chemscore.Rot>
1.3746

> <Gold.Chemscore.Internal.Correction>
   9.000000E+99

> <Gold.Chemscore.Hbonds>
donor molecule, donor type, donor heavy atom, donor atom, acceptor molecule, acceptor atom, score
      L1  H     3    26       P1  8028  0.56
      L1  H    14    41       P1  8028  0.93

> <Gold.Chemscore.Hbond.Weighted>
-6.1651

> <Gold.Chemscore.Metal.Weighted>
-0.0000

> <Gold.Chemscore.Lipo.Weighted>
-12.1457

> <Gold.Chemscore.Internal_Hbond.Weighted>
0.0000

> <Gold.Chemscore.DEClash.Weighted>
0.1057

> <Gold.Chemscore.DEInternal.Weighted>
2.0514

> <Gold.Chemscore.Rot.Weighted>
3.5189

> <Gold.Chemscore.Internal.Correction.Weighted>
   9.000000E+99

> <Gold.Protein.RotatedTorsions>
[ 6907 6896 6895 6894 ] final  -15.54 input  -60.11 | X-H torsion
[ 7974 7965 7964 7962 ] final  173.89 input  175.53 | X-H torsion
[ 8008 7997 7996 7995 ] final -110.39 input   59.86 | X-H torsion
[ 10167 10162 10161 10158 ] final  137.49 input  -65.29 | X-H torsion
[ 10718 10713 10712 10709 ] final   95.63 input   66.30 | X-H torsion
[ 10763 10752 10751 10750 ] final  -88.60 input  -60.55 | X-H torsion
[ 11005 11000 10999 10996 ] final  176.03 input  -57.11 | X-H torsion

> <Gold.Protein.ActiveResidues>
 VAL166  LYS551  ARG553  GLY616  TRP617  ASP618  TYR619  PRO620  LYS621  CYS622 
 ASP623  PHE694  ASN695  SER759  ASP760  ASP761  ALA762  ILE779  LEU786  VAL792 
 PHE793  MET794  SER795  GLU796  ALA797  LYS798  CYS799  TRP800  GLU811  SER814 

> <Gold.Protein.RotatedAtoms>
  151.3224  135.0822  159.9310 H   0  0  0  0  0  0  0  0  0  0  0  0  # atno 6907 bound_to 6896
  152.5253  133.9625  159.7734 H   0  0  0  0  0  0  0  0  0  0  0  0  # atno 6908 bound_to 6896
  150.9949  133.6061  159.2733 H   0  0  0  0  0  0  0  0  0  0  0  0  # atno 6909 bound_to 6896
  144.7233  139.9716  143.6437 H   0  0  0  0  0  0  0  0  0  0  0  0  # atno 7974 bound_to 7965
  154.9739  140.0397  157.2247 H   0  0  0  0  0  0  0  0  0  0  0  0  # atno 8008 bound_to 7997
  154.7776  140.2813  155.6066 H   0  0  0  0  0  0  0  0  0  0  0  0  # atno 8009 bound_to 7997
  156.2931  140.2598  156.2594 H   0  0  0  0  0  0  0  0  0  0  0  0  # atno 8010 bound_to 7997
  139.5143  144.6407  151.5577 H   0  0  0  0  0  0  0  0  0  0  0  0  # atno 10167 bound_to 10162
  157.6936  131.0552  150.4368 H   0  0  0  0  0  0  0  0  0  0  0  0  # atno 10718 bound_to 10713
  154.6463  135.5371  153.7848 H   0  0  0  0  0  0  0  0  0  0  0  0  # atno 10763 bound_to 10752
  153.0361  135.6471  154.1084 H   0  0  0  0  0  0  0  0  0  0  0  0  # atno 10764 bound_to 10752
  154.1005  135.2933  155.3232 H   0  0  0  0  0  0  0  0  0  0  0  0  # atno 10765 bound_to 10752
  140.3687  134.7049  157.4378 H   0  0  0  0  0  0  0  0  0  0  0  0  # atno 11005 bound_to 11000
  146.0559  139.3556  143.0611 LP  0  0  0  0  0  0  0  0  0  0  0  0  # atno 17320 bound_to 7965
  145.8156  140.9704  143.0926 LP  0  0  0  0  0  0  0  0  0  0  0  0  # atno 17321 bound_to 7965
  140.6173  143.9325  150.6498 LP  0  0  0  0  0  0  0  0  0  0  0  0  # atno 17342 bound_to 10162
  140.2587  143.3539  152.1342 LP  0  0  0  0  0  0  0  0  0  0  0  0  # atno 17343 bound_to 10162
  156.4730  130.4057  149.6507 LP  0  0  0  0  0  0  0  0  0  0  0  0  # atno 17370 bound_to 10713
  156.3580  130.7467  151.2435 LP  0  0  0  0  0  0  0  0  0  0  0  0  # atno 17371 bound_to 10713
  140.0569  134.6051  155.8794 LP  0  0  0  0  0  0  0  0  0  0  0  0  # atno 17394 bound_to 11000
  141.1961  133.6590  156.5677 LP  0  0  0  0  0  0  0  0  0  0  0  0  # atno 17395 bound_to 11000

$$$$
