AV-unprocessed.smi:477|AV-procd|sdf|2670|dock6
  -GOLD-   2262023 83D 1   1.00000     0.00000
 Structure written by MMmdl.
 45 46  0  0  0  0  0  0  0  0  1 V2000
  154.5026  137.1850  164.7728 C   0  0  0  0  0  0  0  0  0  0  0  0
  154.6119  136.2262  163.6177 C   0  0  0  0  0  0  0  0  0  0  0  0
  154.3498  136.6997  162.4441 N   0  0  0  0  0  0  0  0  0  0  0  0
  154.4208  135.9061  161.3153 N   0  0  0  0  0  0  0  0  0  0  0  0
  154.1172  136.6201  160.0666 C   0  0  0  0  0  0  0  0  0  0  0  0
  153.5922  138.0452  160.2948 C   0  0  0  0  0  0  0  0  0  0  0  0
  152.4261  138.3446  160.0340 O   0  0  0  0  0  0  0  0  0  0  0  0
  154.4823  138.9220  160.7824 N   0  0  0  0  0  0  0  0  0  0  0  0
  154.2183  140.3346  161.0311 C   0  0  0  0  0  0  0  0  0  0  0  0
  153.8081  141.1084  159.7610 C   0  0  0  0  0  0  0  0  0  0  0  0
  153.1950  142.4730  160.0397 C   0  0  0  0  0  0  0  0  0  0  0  0
  153.1396  142.9804  161.2863 C   0  0  0  0  0  0  0  0  0  0  0  0
  152.5074  144.3157  161.6380 C   0  0  0  0  0  0  0  0  0  0  0  0
  151.6227  144.8615  160.5047 C   0  0  0  0  0  0  0  0  0  0  0  0
  152.3020  144.6911  159.1404 C   0  0  0  0  0  0  0  0  0  0  0  0
  152.6006  143.2109  158.8435 C   0  0  0  0  0  0  0  0  0  0  0  0
  154.7554  134.5835  161.3158 C   0  0  0  0  0  0  0  0  0  0  0  0
  154.8057  133.9115  160.2845 O   0  0  0  0  0  0  0  0  0  0  0  0
  155.0500  134.0535  162.6490 C   0  0  0  0  0  0  0  0  0  0  0  0
  155.4045  132.6716  162.6945 C   0  0  0  0  0  0  0  0  0  0  0  0
  155.6807  131.5486  162.7481 N   0  0  0  0  0  0  0  0  0  0  0  0
  154.9911  134.8244  163.7637 C   0  0  0  0  0  0  0  0  0  0  0  0
  155.2900  134.3217  165.1696 C   0  0  0  0  0  0  0  0  0  0  0  0
  153.8304  136.7967  165.5382 H   0  0  0  0  0  0  0  0  0  0  0  0
  154.1161  138.1563  164.4601 H   0  0  0  0  0  0  0  0  0  0  0  0
  155.4781  137.3498  165.2307 H   0  0  0  0  0  0  0  0  0  0  0  0
  154.9940  136.6688  159.4189 H   0  0  0  0  0  0  0  0  0  0  0  0
  153.3710  136.0583  159.5011 H   0  0  0  0  0  0  0  0  0  0  0  0
  155.4182  138.5933  160.9716 H   0  0  0  0  0  0  0  0  0  0  0  0
  153.4475  140.4380  161.7966 H   0  0  0  0  0  0  0  0  0  0  0  0
  155.1231  140.7747  161.4510 H   0  0  0  0  0  0  0  0  0  0  0  0
  154.6599  141.2278  159.0904 H   0  0  0  0  0  0  0  0  0  0  0  0
  153.0805  140.5101  159.2114 H   0  0  0  0  0  0  0  0  0  0  0  0
  153.5747  142.4296  162.1077 H   0  0  0  0  0  0  0  0  0  0  0  0
  151.9174  144.2061  162.5481 H   0  0  0  0  0  0  0  0  0  0  0  0
  153.3092  145.0196  161.8623 H   0  0  0  0  0  0  0  0  0  0  0  0
  150.6700  144.3301  160.4982 H   0  0  0  0  0  0  0  0  0  0  0  0
  151.3894  145.9110  160.6860 H   0  0  0  0  0  0  0  0  0  0  0  0
  151.6779  145.1099  158.3506 H   0  0  0  0  0  0  0  0  0  0  0  0
  153.2336  145.2585  159.1307 H   0  0  0  0  0  0  0  0  0  0  0  0
  153.2668  143.1468  157.9848 H   0  0  0  0  0  0  0  0  0  0  0  0
  151.6813  142.6976  158.5600 H   0  0  0  0  0  0  0  0  0  0  0  0
  155.6545  133.2948  165.1710 H   0  0  0  0  0  0  0  0  0  0  0  0
  154.3896  134.3535  165.7838 H   0  0  0  0  0  0  0  0  0  0  0  0
  156.0539  134.9373  165.6456 H   0  0  0  0  0  0  0  0  0  0  0  0
  1  2  1  0  0  0  0
  1 24  1  0  0  0  0
  1 25  1  0  0  0  0
  1 26  1  0  0  0  0
  2 22  1  0  0  0  0
  2  3  2  0  0  0  0
  3  4  1  0  0  0  0
  4  5  1  0  0  0  0
  4 17  1  0  0  0  0
  5  6  1  0  0  0  0
  5 27  1  0  0  0  0
  5 28  1  0  0  0  0
  6  7  2  0  0  0  0
  6  8  1  0  0  0  0
  8  9  1  0  0  0  0
  8 29  1  0  0  0  0
  9 10  1  0  0  0  0
  9 30  1  0  0  0  0
  9 31  1  0  0  0  0
 10 11  1  0  0  0  0
 10 32  1  0  0  0  0
 10 33  1  0  0  0  0
 11 16  1  0  0  0  0
 11 12  2  0  0  0  0
 12 13  1  0  0  0  0
 12 34  1  0  0  0  0
 13 14  1  0  0  0  0
 13 35  1  0  0  0  0
 13 36  1  0  0  0  0
 14 15  1  0  0  0  0
 14 37  1  0  0  0  0
 14 38  1  0  0  0  0
 15 16  1  0  0  0  0
 15 39  1  0  0  0  0
 15 40  1  0  0  0  0
 16 41  1  0  0  0  0
 16 42  1  0  0  0  0
 17 18  2  0  0  0  0
 17 19  1  0  0  0  0
 19 20  1  0  0  0  0
 19 22  2  0  0  0  0
 20 21  3  0  0  0  0
 22 23  1  0  0  0  0
 23 43  1  0  0  0  0
 23 44  1  0  0  0  0
 23 45  1  0  0  0  0
M  END
> <s_m_source_file>
AV-unprocessed.smi

> <i_m_source_file_index>
477

> <i_lp_mmshare_version>
43012

> <i_f3d_flags>
0

> <s_epik_input>
TiNDYyhjMVtDSDNdKWMoPU8pbihuYzFbQ0gzXSlbQ0gyXUMoPU8pW05IXVtDSDJdW0NIMl1DMj1bQ0hdW0NIMl1bQ0gyXVtDSDJdW0NIMl0y

> <s_epik_cmdline>
J2VwaWtfcHl0aG9uJywgJy1waCcsICc3LjAnLCAnLXRuJywgJzgnLCAnLW1hJywgJzIwMCcsICctbWV0YWxfYmluZGluZycsICctaW1hZScsICc8aW5maWxlLm1hZT4nLCAnLW9tYWUnLCAnPG91dGZpbGUubWFlPic=

> <r_lp_tautomer_probability>
1

> <r_epik_Ionization_Penalty>
1.81256e-08

> <r_epik_Ionization_Penalty_Charging>
2.1856e-11

> <r_epik_Ionization_Penalty_Neutral>
1.81037e-08

> <r_epik_State_Penalty>
-0

> <r_epik_Charging_Adjusted_Penalty>
2.1856e-11

> <i_epik_Tot_Q>
0

> <i_epik_Tot_abs_Q>
0

> <r_epik_Metal_State_Penalty>
-0

> <b_epik_Metal_Only>
0

> <s_lp_Force_Field>
OPLS_2005

> <r_lp_Energy>
23.5318

> <b_lp_Chiralities_Consistent>
1

> <s_lp_Variant>
AV-unprocessed.smi:477-1

> <Gold.Version>
5.8.1

> <Gold.Id.Protein>
6NUR|6NUR_protein|mol2

> <Gold.PLP.Fitness>
49.0135

> <Gold.PLP.PLP>
-49.4227

> <Gold.PLP.part.hbond>
0.0000

> <Gold.PLP.part.metal>
0.0000

> <Gold.PLP.part.buried>
-5.4745

> <Gold.PLP.part.nonpolar>
-43.7014

> <Gold.PLP.part.repulsive>
0.0183

> <Gold.PLP.ligand.clash>
0.0000

> <Gold.PLP.ligand.torsion>
0.2272

> <Gold.PLP.Chemscore.Hbond>
0.0000

> <Gold.PLP.Chemscore.CHOScore>
0.0000

> <Gold.PLP.Chemscore.Metal>
0.0000

> <Gold.PLP.Chemscore.Internal.Correction>
0.0451

> <Gold.Rescore>
     Score         DG    S(hbond)    S(metal)    S(lipo)     H(rot)  DE(clash)    DE(int)     intcor
     16.10     -16.39       0.00        0.00     133.33       1.83       0.02       0.27       ----

> <Gold.Chemscore.Fitness>
16.0963

> <Gold.Chemscore.DG>
-16.3936

> <Gold.Chemscore.ZeroCoef>
-5.4800

> <Gold.Chemscore.Hbond>
0.0000

> <Gold.Chemscore.Metal>
0.0000

> <Gold.Chemscore.Lipo>
133.3300

> <Gold.Chemscore.Internal_Hbond>
0.0000

> <Gold.Chemscore.DEClash>
0.0234

> <Gold.Chemscore.DEInternal>
0.2738

> <Gold.Chemscore.Rot>
1.8305

> <Gold.Chemscore.Internal.Correction>
   9.000000E+99

> <Gold.Chemscore.Hbond.Weighted>
-0.0000

> <Gold.Chemscore.Metal.Weighted>
-0.0000

> <Gold.Chemscore.Lipo.Weighted>
-15.5996

> <Gold.Chemscore.Internal_Hbond.Weighted>
0.0000

> <Gold.Chemscore.DEClash.Weighted>
0.0234

> <Gold.Chemscore.DEInternal.Weighted>
0.2738

> <Gold.Chemscore.Rot.Weighted>
4.6860

> <Gold.Chemscore.Internal.Correction.Weighted>
   9.000000E+99

> <Gold.Protein.RotatedTorsions>
[ 6907 6896 6895 6894 ] final   19.79 input  -60.11 | X-H torsion
[ 7974 7965 7964 7962 ] final  123.98 input  175.53 | X-H torsion
[ 8008 7997 7996 7995 ] final  136.00 input   59.86 | X-H torsion
[ 10167 10162 10161 10158 ] final  -18.35 input  -65.29 | X-H torsion
[ 10718 10713 10712 10709 ] final  -90.51 input   66.30 | X-H torsion
[ 10763 10752 10751 10750 ] final  -32.37 input  -60.55 | X-H torsion
[ 11005 11000 10999 10996 ] final  169.20 input  -57.11 | X-H torsion

> <Gold.Protein.ActiveResidues>
 VAL166  LYS551  ARG553  GLY616  TRP617  ASP618  TYR619  PRO620  LYS621  CYS622 
 ASP623  PHE694  ASN695  SER759  ASP760  ASP761  ALA762  ILE779  LEU786  VAL792 
 PHE793  MET794  SER795  GLU796  ALA797  LYS798  CYS799  TRP800  GLU811  SER814 

> <Gold.Protein.RotatedAtoms>
  151.8864  135.0434  160.0493 H   0  0  0  0  0  0  0  0  0  0  0  0  # atno 6907 bound_to 6896
  152.2472  133.5180  159.5312 H   0  0  0  0  0  0  0  0  0  0  0  0  # atno 6908 bound_to 6896
  150.7072  134.0926  159.3979 H   0  0  0  0  0  0  0  0  0  0  0  0  # atno 6909 bound_to 6896
  145.0897  139.3596  143.4867 H   0  0  0  0  0  0  0  0  0  0  0  0  # atno 7974 bound_to 7965
  156.3004  140.2456  156.3673 H   0  0  0  0  0  0  0  0  0  0  0  0  # atno 8008 bound_to 7997
  154.8821  140.0412  157.1808 H   0  0  0  0  0  0  0  0  0  0  0  0  # atno 8009 bound_to 7997
  154.8685  140.2931  155.5499 H   0  0  0  0  0  0  0  0  0  0  0  0  # atno 8010 bound_to 7997
  140.7257  143.4925  150.9973 H   0  0  0  0  0  0  0  0  0  0  0  0  # atno 10167 bound_to 10162
  155.9988  130.4912  150.5334 H   0  0  0  0  0  0  0  0  0  0  0  0  # atno 10718 bound_to 10713
  153.8127  135.6881  153.4838 H   0  0  0  0  0  0  0  0  0  0  0  0  # atno 10763 bound_to 10752
  153.1618  135.4577  154.9781 H   0  0  0  0  0  0  0  0  0  0  0  0  # atno 10764 bound_to 10752
  154.7961  135.3319  154.7606 H   0  0  0  0  0  0  0  0  0  0  0  0  # atno 10765 bound_to 10752
  140.2952  134.7640  157.3871 H   0  0  0  0  0  0  0  0  0  0  0  0  # atno 11005 bound_to 11000
  146.3531  140.0726  142.8622 LP  0  0  0  0  0  0  0  0  0  0  0  0  # atno 17320 bound_to 7965
  145.1080  140.9387  143.4673 LP  0  0  0  0  0  0  0  0  0  0  0  0  # atno 17321 bound_to 7965
  139.8630  143.7289  152.3172 LP  0  0  0  0  0  0  0  0  0  0  0  0  # atno 17342 bound_to 10162
  139.7512  144.7533  151.0504 LP  0  0  0  0  0  0  0  0  0  0  0  0  # atno 17343 bound_to 10162
  157.3280  131.0694  151.1882 LP  0  0  0  0  0  0  0  0  0  0  0  0  # atno 17370 bound_to 10713
  157.2773  130.6733  149.6048 LP  0  0  0  0  0  0  0  0  0  0  0  0  # atno 17371 bound_to 10713
  140.1159  134.5284  155.8225 LP  0  0  0  0  0  0  0  0  0  0  0  0  # atno 17394 bound_to 11000
  141.2139  133.6740  156.6775 LP  0  0  0  0  0  0  0  0  0  0  0  0  # atno 17395 bound_to 11000

$$$$
