AV-unprocessed.smi:213|AV-procd|sdf|1635|dock2
  -GOLD-   2262019593D 1   1.00000     0.00000
 Structure written by MMmdl.
 59 62  0  0  0  0  0  0  0  0  2 V2000
  147.9673  135.5072  156.4642 C   0  0  0  0  0  0  0  0  0  0  0  0
  149.1476  135.3487  155.4924 C   0  0  2  0  0  0  0  0  0  0  0  0
  149.0203  134.0516  154.6574 C   0  0  0  0  0  0  0  0  0  0  0  0
  148.0715  134.1835  153.5228 N   0  3  0  0  0  0  0  0  0  0  0  0
  148.0700  133.0064  152.6246 C   0  0  0  0  0  0  0  0  0  0  0  0
  147.1394  133.2575  151.4258 C   0  0  0  0  0  0  0  0  0  0  0  0
  145.8290  133.5580  151.8908 O   0  0  0  0  0  0  0  0  0  0  0  0
  145.8031  134.7319  152.6937 C   0  0  0  0  0  0  0  0  0  0  0  0
  146.6879  134.5258  153.9339 C   0  0  0  0  0  0  0  0  0  0  0  0
  150.4376  135.4457  156.1921 N   0  0  0  0  0  0  0  0  0  0  0  0
  151.3630  134.3133  156.1617 C   0  0  0  0  0  0  0  0  0  0  0  0
  150.9883  136.6853  156.2816 C   0  0  0  0  0  0  0  0  0  0  0  0
  152.3071  136.8514  155.9907 N   0  0  0  0  0  0  0  0  0  0  0  0
  152.8614  138.0663  156.0317 C   0  0  0  0  0  0  0  0  0  0  0  0
  152.2884  139.2335  156.3285 N   0  0  0  0  0  0  0  0  0  0  0  0
  150.9687  139.0746  156.6311 C   0  0  0  0  0  0  0  0  0  0  0  0
  150.2456  137.8483  156.6337 C   0  0  0  0  0  0  0  0  0  0  0  0
  148.9247  138.0813  156.9988 N   0  0  0  0  0  0  0  0  0  0  0  0
  148.8690  139.3701  157.1970 C   0  0  0  0  0  0  0  0  0  0  0  0
  150.0526  140.0435  156.9999 N   0  0  0  0  0  0  0  0  0  0  0  0
  150.2729  141.4703  157.1576 C   0  0  0  0  0  0  0  0  0  0  0  0
  150.7852  141.8289  158.5687 C   0  0  1  0  0  0  0  0  0  0  0  0
  152.0790  141.2978  158.7767 O   0  0  0  0  0  0  0  0  0  0  0  0
  150.8165  143.3416  158.8720 C   0  0  2  0  0  0  0  0  0  0  0  0
  151.8345  144.1308  158.0466 C   0  0  0  0  0  0  0  0  0  0  0  0
  152.1259  145.3521  158.9057 C   0  0  0  0  0  0  0  0  0  0  0  0
  151.5444  144.9954  160.2765 C   0  0  0  0  0  0  0  0  0  0  0  0
  151.2390  143.6103  160.2006 O   0  0  0  0  0  0  0  0  0  0  0  0
  147.0228  135.5530  155.9214 H   0  0  0  0  0  0  0  0  0  0  0  0
  148.0566  136.4283  157.0411 H   0  0  0  0  0  0  0  0  0  0  0  0
  147.8978  134.6760  157.1656 H   0  0  0  0  0  0  0  0  0  0  0  0
  149.0594  136.1834  154.8002 H   0  0  0  0  0  0  0  0  0  0  0  0
  150.0062  133.7883  154.2713 H   0  0  0  0  0  0  0  0  0  0  0  0
  148.7130  133.2173  155.2900 H   0  0  0  0  0  0  0  0  0  0  0  0
  149.0816  132.8111  152.2669 H   0  0  0  0  0  0  0  0  0  0  0  0
  147.7461  132.1227  153.1766 H   0  0  0  0  0  0  0  0  0  0  0  0
  147.5140  134.0747  150.8069 H   0  0  0  0  0  0  0  0  0  0  0  0
  147.0954  132.3714  150.7921 H   0  0  0  0  0  0  0  0  0  0  0  0
  146.1394  135.5929  152.1138 H   0  0  0  0  0  0  0  0  0  0  0  0
  144.7750  134.9334  152.9945 H   0  0  0  0  0  0  0  0  0  0  0  0
  146.2808  133.7270  154.5558 H   0  0  0  0  0  0  0  0  0  0  0  0
  146.6790  135.4345  154.5348 H   0  0  0  0  0  0  0  0  0  0  0  0
  152.1543  134.4401  156.9017 H   0  0  0  0  0  0  0  0  0  0  0  0
  151.8257  134.2136  155.1795 H   0  0  0  0  0  0  0  0  0  0  0  0
  150.8528  133.3793  156.3927 H   0  0  0  0  0  0  0  0  0  0  0  0
  153.9127  138.1106  155.7873 H   0  0  0  0  0  0  0  0  0  0  0  0
  147.9589  139.8681  157.4988 H   0  0  0  0  0  0  0  0  0  0  0  0
  150.9792  141.8001  156.3947 H   0  0  0  0  0  0  0  0  0  0  0  0
  149.3325  141.9805  156.9496 H   0  0  0  0  0  0  0  0  0  0  0  0
  150.1435  141.3496  159.3092 H   0  0  0  0  0  0  0  0  0  0  0  0
  152.1898  140.5465  158.2144 H   0  0  0  0  0  0  0  0  0  0  0  0
  149.8284  143.7803  158.7161 H   0  0  0  0  0  0  0  0  0  0  0  0
  152.7520  143.5578  157.9119 H   0  0  0  0  0  0  0  0  0  0  0  0
  151.4573  144.3907  157.0569 H   0  0  0  0  0  0  0  0  0  0  0  0
  153.1986  145.5397  158.9610 H   0  0  0  0  0  0  0  0  0  0  0  0
  151.6490  146.2479  158.5066 H   0  0  0  0  0  0  0  0  0  0  0  0
  152.2373  145.2012  161.0927 H   0  0  0  0  0  0  0  0  0  0  0  0
  150.6265  145.5554  160.4605 H   0  0  0  0  0  0  0  0  0  0  0  0
  148.4092  134.9555  152.9648 H   0  0  0  0  0  0  0  0  0  0  0  0
  1  2  1  0  0  0  0
  1 29  1  0  0  0  0
  1 30  1  0  0  0  0
  1 31  1  0  0  0  0
  2  3  1  0  0  0  0
  2 10  1  0  0  0  0
  2 32  1  0  0  0  0
  3  4  1  0  0  0  0
  3 33  1  0  0  0  0
  3 34  1  0  0  0  0
  4  9  1  0  0  0  0
  4  5  1  0  0  0  0
  4 59  1  0  0  0  0
  5  6  1  0  0  0  0
  5 35  1  0  0  0  0
  5 36  1  0  0  0  0
  6  7  1  0  0  0  0
  6 37  1  0  0  0  0
  6 38  1  0  0  0  0
  7  8  1  0  0  0  0
  8  9  1  0  0  0  0
  8 39  1  0  0  0  0
  8 40  1  0  0  0  0
  9 41  1  0  0  0  0
  9 42  1  0  0  0  0
 10 11  1  0  0  0  0
 10 12  1  0  0  0  0
 11 43  1  0  0  0  0
 11 44  1  0  0  0  0
 11 45  1  0  0  0  0
 12 17  1  0  0  0  0
 12 13  2  0  0  0  0
 13 14  1  0  0  0  0
 14 15  2  0  0  0  0
 14 46  1  0  0  0  0
 15 16  1  0  0  0  0
 16 20  1  0  0  0  0
 16 17  2  0  0  0  0
 17 18  1  0  0  0  0
 18 19  2  0  0  0  0
 19 20  1  0  0  0  0
 19 47  1  0  0  0  0
 20 21  1  0  0  0  0
 21 22  1  0  0  0  0
 21 48  1  0  0  0  0
 21 49  1  0  0  0  0
 22 23  1  0  0  0  0
 22 24  1  0  0  0  0
 22 50  1  0  0  0  0
 23 51  1  0  0  0  0
 24 28  1  0  0  0  0
 24 25  1  0  0  0  0
 24 52  1  0  0  0  0
 25 26  1  0  0  0  0
 25 53  1  0  0  0  0
 25 54  1  0  0  0  0
 26 27  1  0  0  0  0
 26 55  1  0  0  0  0
 26 56  1  0  0  0  0
 27 28  1  0  0  0  0
 27 57  1  0  0  0  0
 27 58  1  0  0  0  0
M  CHG  1   4   1
M  END
> <s_m_source_file>
AV-unprocessed.smi

> <i_m_source_file_index>
213

> <i_lp_mmshare_version>
43012

> <i_f3d_flags>
0

> <s_epik_input>
W0NIMl0xW0NIMl1PW0NIMl1bQ0gyXU4xW0NIMl1bQ0BASF0oW0NIM10pTihbQ0gzXSljKG5bY0hdbjIpYyhjMjMpbltjSF1uM1tDSDJdW0NASF0oW09IXSlbQ0BASF00W0NIMl1bQ0gyXVtDSDJdTzQ=

> <s_epik_cmdline>
J2VwaWtfcHl0aG9uJywgJy1waCcsICc3LjAnLCAnLXRuJywgJzgnLCAnLW1hJywgJzIwMCcsICctbWV0YWxfYmluZGluZycsICctaW1hZScsICc8aW5maWxlLm1hZT4nLCAnLW9tYWUnLCAnPG91dGZpbGUubWFlPic=

> <r_lp_tautomer_probability>
1

> <r_epik_Ionization_Penalty>
0.399679

> <r_epik_Ionization_Penalty_Charging>
0.399433

> <r_epik_Ionization_Penalty_Neutral>
0.000246213

> <r_epik_State_Penalty>
0.286032

> <r_epik_Charging_Adjusted_Penalty>
0.685465

> <i_epik_Tot_Q>
1

> <i_epik_Tot_abs_Q>
1

> <r_epik_Metal_State_Penalty>
0.286072

> <b_epik_Metal_Only>
0

> <s_lp_Force_Field>
OPLS_2005

> <r_lp_Energy>
46.8913

> <b_lp_Chiralities_Consistent>
1

> <s_lp_Variant>
AV-unprocessed.smi:213-3

> <Gold.Version>
5.8.1

> <Gold.Id.Protein>
6NUR|6NUR_protein|mol2

> <Gold.PLP.Fitness>
48.6224

> <Gold.PLP.PLP>
-40.5992

> <Gold.PLP.part.hbond>
-2.3162

> <Gold.PLP.part.metal>
0.0000

> <Gold.PLP.part.buried>
-7.3208

> <Gold.PLP.part.nonpolar>
-31.1131

> <Gold.PLP.part.repulsive>
0.1976

> <Gold.PLP.ligand.clash>
0.0000

> <Gold.PLP.ligand.torsion>
1.4689

> <Gold.PLP.Chemscore.Hbond>
3.2267

> <Gold.PLP.Chemscore.CHOScore>
0.0000

> <Gold.PLP.Chemscore.Metal>
0.0000

> <Gold.Chemscore.Hbonds>
donor molecule, donor type, donor heavy atom, donor atom, acceptor molecule, acceptor atom, score
      L1  H     4    59       P1  7948  2.00
      P1  H  7997  8009       L1    15  0.18
      P1  H 10752 10764       L1    13  0.99

> <Gold.PLP.Chemscore.Internal.Correction>
1.2809

> <Gold.Rescore>
     Score         DG    S(hbond)    S(metal)    S(lipo)     H(rot)  DE(clash)    DE(int)     intcor
     12.90     -15.84       1.86        0.00      97.37       2.83       0.12       2.81       ----

> <Gold.Chemscore.Fitness>
12.9014

> <Gold.Chemscore.DG>
-15.8395

> <Gold.Chemscore.ZeroCoef>
-5.4800

> <Gold.Chemscore.Hbond>
1.8565

> <Gold.Chemscore.Metal>
0.0000

> <Gold.Chemscore.Lipo>
97.3657

> <Gold.Chemscore.Internal_Hbond>
0.0000

> <Gold.Chemscore.DEClash>
0.1233

> <Gold.Chemscore.DEInternal>
2.8149

> <Gold.Chemscore.Rot>
2.8254

> <Gold.Chemscore.Internal.Correction>
   9.000000E+99

> <Gold.Chemscore.Hbonds>
donor molecule, donor type, donor heavy atom, donor atom, acceptor molecule, acceptor atom, score
      L1  H     4    59       P1  7948  0.70
      P1  H 10752 10764       L1    13  0.85

> <Gold.Chemscore.Hbond.Weighted>
-6.2007

> <Gold.Chemscore.Metal.Weighted>
-0.0000

> <Gold.Chemscore.Lipo.Weighted>
-11.3918

> <Gold.Chemscore.Internal_Hbond.Weighted>
0.0000

> <Gold.Chemscore.DEClash.Weighted>
0.1233

> <Gold.Chemscore.DEInternal.Weighted>
2.8149

> <Gold.Chemscore.Rot.Weighted>
7.2330

> <Gold.Chemscore.Internal.Correction.Weighted>
   9.000000E+99

> <Gold.Protein.RotatedTorsions>
[ 6907 6896 6895 6894 ] final  142.19 input  -60.11 | X-H torsion
[ 7974 7965 7964 7962 ] final -108.04 input  175.53 | X-H torsion
[ 8008 7997 7996 7995 ] final -163.52 input   59.86 | X-H torsion
[ 10167 10162 10161 10158 ] final   34.94 input  -65.29 | X-H torsion
[ 10718 10713 10712 10709 ] final   46.06 input   66.30 | X-H torsion
[ 10763 10752 10751 10750 ] final  -31.11 input  -60.55 | X-H torsion
[ 11005 11000 10999 10996 ] final  168.46 input  -57.11 | X-H torsion

> <Gold.Protein.ActiveResidues>
 VAL166  LYS551  ARG553  GLY616  TRP617  ASP618  TYR619  PRO620  LYS621  CYS622 
 ASP623  PHE694  ASN695  SER759  ASP760  ASP761  ALA762  ILE779  LEU786  VAL792 
 PHE793  MET794  SER795  GLU796  ALA797  LYS798  CYS799  TRP800  GLU811  SER814 

> <Gold.Protein.RotatedAtoms>
  152.2218  133.4989  159.5166 H   0  0  0  0  0  0  0  0  0  0  0  0  # atno 6907 bound_to 6896
  150.7015  134.1332  159.4086 H   0  0  0  0  0  0  0  0  0  0  0  0  # atno 6908 bound_to 6896
  151.9253  135.0280  160.0576 H   0  0  0  0  0  0  0  0  0  0  0  0  # atno 6909 bound_to 6896
  145.1978  140.9043  143.3387 H   0  0  0  0  0  0  0  0  0  0  0  0  # atno 7974 bound_to 7965
  155.8224  140.0921  157.1841 H   0  0  0  0  0  0  0  0  0  0  0  0  # atno 8008 bound_to 7997
  154.3979  140.1434  156.3576 H   0  0  0  0  0  0  0  0  0  0  0  0  # atno 8009 bound_to 7997
  155.8252  140.3445  155.5541 H   0  0  0  0  0  0  0  0  0  0  0  0  # atno 8010 bound_to 7997
  140.4269  144.1381  150.6154 H   0  0  0  0  0  0  0  0  0  0  0  0  # atno 10167 bound_to 10162
  157.4441  130.8099  149.7723 H   0  0  0  0  0  0  0  0  0  0  0  0  # atno 10718 bound_to 10713
  153.7919  135.6897  153.4870 H   0  0  0  0  0  0  0  0  0  0  0  0  # atno 10763 bound_to 10752
  153.1744  135.4530  154.9943 H   0  0  0  0  0  0  0  0  0  0  0  0  # atno 10764 bound_to 10752
  154.8041  135.3349  154.7415 H   0  0  0  0  0  0  0  0  0  0  0  0  # atno 10765 bound_to 10752
  140.2874  134.7701  157.3810 H   0  0  0  0  0  0  0  0  0  0  0  0  # atno 11005 bound_to 11000
  144.9978  139.3628  143.6183 LP  0  0  0  0  0  0  0  0  0  0  0  0  # atno 17320 bound_to 7965
  146.3423  139.9187  142.8769 LP  0  0  0  0  0  0  0  0  0  0  0  0  # atno 17321 bound_to 7965
  140.4471  143.2502  151.9396 LP  0  0  0  0  0  0  0  0  0  0  0  0  # atno 17342 bound_to 10162
  139.4784  144.5598  151.8257 LP  0  0  0  0  0  0  0  0  0  0  0  0  # atno 17343 bound_to 10162
  155.9960  130.3908  150.2795 LP  0  0  0  0  0  0  0  0  0  0  0  0  # atno 17370 bound_to 10713
  157.0962  131.0183  151.3103 LP  0  0  0  0  0  0  0  0  0  0  0  0  # atno 17371 bound_to 10713
  140.1227  134.5199  155.8170 LP  0  0  0  0  0  0  0  0  0  0  0  0  # atno 17394 bound_to 11000
  141.2152  133.6762  156.6894 LP  0  0  0  0  0  0  0  0  0  0  0  0  # atno 17395 bound_to 11000

$$$$
