AV-unprocessed.smi:2107|AV-procd|sdf|8602|dock9
  -GOLD-   2272011343D 1   1.00000     0.00000
 Structure written by MMmdl.
 45 46  0  0  0  0  0  0  0  0  2 V2000
  145.6937  135.2964  162.2927 C   0  0  0  0  0  0  0  0  0  0  0  0
  147.1855  134.9382  162.2218 C   0  0  0  0  0  0  0  0  0  0  0  0
  147.6216  134.5925  160.8542 N   0  0  0  0  0  0  0  0  0  0  0  0
  147.7786  133.1584  160.5357 C   0  0  0  0  0  0  0  0  0  0  0  0
  147.6628  132.2520  161.7703 C   0  0  0  0  0  0  0  0  0  0  0  0
  147.7129  135.8130  159.6070 S   0  0  0  0  0  0  0  0  0  0  0  0
  146.6064  135.5096  158.6863 O   0  0  0  0  0  0  0  0  0  0  0  0
  147.6840  137.1158  160.2950 O   0  0  0  0  0  0  0  0  0  0  0  0
  149.1552  135.4050  158.9666 N   0  5  0  0  0  0  0  0  0  0  0  0
  149.5960  135.9030  157.6712 C   0  0  0  0  0  0  0  0  0  0  0  0
  149.7188  134.7677  156.6455 C   0  0  0  0  0  0  0  0  0  0  0  0
  149.6135  133.4359  157.1166 C   0  0  0  0  0  0  0  0  0  0  0  0
  149.7195  132.3637  156.2131 C   0  0  0  0  0  0  0  0  0  0  0  0
  149.9313  132.6567  154.8569 C   0  0  0  0  0  0  0  0  0  0  0  0
  150.0365  133.9132  154.3829 N   0  0  0  0  0  0  0  0  0  0  0  0
  149.9391  134.9598  155.2427 C   0  0  0  0  0  0  0  0  0  0  0  0
  150.0628  136.2360  154.6506 N   0  0  0  0  0  0  0  0  0  0  0  0
  148.8674  137.0633  154.7730 C   0  0  0  0  0  0  0  0  0  0  0  0
  149.0564  138.3915  154.0193 C   0  0  0  0  0  0  0  0  0  0  0  0
  150.2300  139.0480  154.4893 O   0  0  0  0  0  0  0  0  0  0  0  0
  151.4006  138.2642  154.2766 C   0  0  0  0  0  0  0  0  0  0  0  0
  151.2790  136.9370  155.0442 C   0  0  0  0  0  0  0  0  0  0  0  0
  145.3869  135.4613  163.3252 H   0  0  0  0  0  0  0  0  0  0  0  0
  145.0690  134.5037  161.8843 H   0  0  0  0  0  0  0  0  0  0  0  0
  145.4764  136.2102  161.7398 H   0  0  0  0  0  0  0  0  0  0  0  0
  147.7806  135.7781  162.5801 H   0  0  0  0  0  0  0  0  0  0  0  0
  147.4032  134.1107  162.8976 H   0  0  0  0  0  0  0  0  0  0  0  0
  147.0292  132.8620  159.8024 H   0  0  0  0  0  0  0  0  0  0  0  0
  148.7472  133.0092  160.0583 H   0  0  0  0  0  0  0  0  0  0  0  0
  147.6955  131.2022  161.4792 H   0  0  0  0  0  0  0  0  0  0  0  0
  146.7237  132.4173  162.2941 H   0  0  0  0  0  0  0  0  0  0  0  0
  148.4751  132.4183  162.4773 H   0  0  0  0  0  0  0  0  0  0  0  0
  148.9018  136.6404  157.2669 H   0  0  0  0  0  0  0  0  0  0  0  0
  150.5516  136.4224  157.7367 H   0  0  0  0  0  0  0  0  0  0  0  0
  149.4532  133.2137  158.1634 H   0  0  0  0  0  0  0  0  0  0  0  0
  149.6419  131.3422  156.5544 H   0  0  0  0  0  0  0  0  0  0  0  0
  150.0181  131.8614  154.1318 H   0  0  0  0  0  0  0  0  0  0  0  0
  148.0071  136.5245  154.3742 H   0  0  0  0  0  0  0  0  0  0  0  0
  148.6624  137.2677  155.8245 H   0  0  0  0  0  0  0  0  0  0  0  0
  149.1271  138.2283  152.9440 H   0  0  0  0  0  0  0  0  0  0  0  0
  148.1964  139.0402  154.1839 H   0  0  0  0  0  0  0  0  0  0  0  0
  151.5462  138.0875  153.2103 H   0  0  0  0  0  0  0  0  0  0  0  0
  152.2692  138.8216  154.6270 H   0  0  0  0  0  0  0  0  0  0  0  0
  151.2624  137.1325  156.1172 H   0  0  0  0  0  0  0  0  0  0  0  0
  152.1467  136.3076  154.8430 H   0  0  0  0  0  0  0  0  0  0  0  0
  1  2  1  0  0  0  0
  1 23  1  0  0  0  0
  1 24  1  0  0  0  0
  1 25  1  0  0  0  0
  2  3  1  0  0  0  0
  2 26  1  0  0  0  0
  2 27  1  0  0  0  0
  3  4  1  0  0  0  0
  3  6  1  0  0  0  0
  4  5  1  0  0  0  0
  4 28  1  0  0  0  0
  4 29  1  0  0  0  0
  5 30  1  0  0  0  0
  5 31  1  0  0  0  0
  5 32  1  0  0  0  0
  6  7  2  0  0  0  0
  6  8  2  0  0  0  0
  6  9  1  0  0  0  0
  9 10  1  0  0  0  0
 10 11  1  0  0  0  0
 10 33  1  0  0  0  0
 10 34  1  0  0  0  0
 11 16  1  0  0  0  0
 11 12  2  0  0  0  0
 12 13  1  0  0  0  0
 12 35  1  0  0  0  0
 13 14  2  0  0  0  0
 13 36  1  0  0  0  0
 14 15  1  0  0  0  0
 14 37  1  0  0  0  0
 15 16  2  0  0  0  0
 16 17  1  0  0  0  0
 17 22  1  0  0  0  0
 17 18  1  0  0  0  0
 18 19  1  0  0  0  0
 18 38  1  0  0  0  0
 18 39  1  0  0  0  0
 19 20  1  0  0  0  0
 19 40  1  0  0  0  0
 19 41  1  0  0  0  0
 20 21  1  0  0  0  0
 21 22  1  0  0  0  0
 21 42  1  0  0  0  0
 21 43  1  0  0  0  0
 22 44  1  0  0  0  0
 22 45  1  0  0  0  0
M  CHG  1   9  -1
M  END
> <s_m_source_file>
AV-unprocessed.smi

> <i_m_source_file_index>
2107

> <i_lp_mmshare_version>
43012

> <i_f3d_flags>
0

> <s_epik_input>
W0NIM11bQ0gyXU4oW0NIMl1bQ0gzXSlTKD1PKSg9TylbTkhdW0NIMl1jMVtjSF1bY0hdW2NIXW5jMU4yW0NIMl1bQ0gyXU9bQ0gyXVtDSDJdMg==

> <s_epik_cmdline>
J2VwaWtfcHl0aG9uJywgJy1waCcsICc3LjAnLCAnLXRuJywgJzgnLCAnLW1hJywgJzIwMCcsICctbWV0YWxfYmluZGluZycsICctaW1hZScsICc8aW5maWxlLm1hZT4nLCAnLW9tYWUnLCAnPG91dGZpbGUubWFlPic=

> <r_lp_tautomer_probability>
1

> <r_epik_Ionization_Penalty>
2.49252

> <r_epik_Ionization_Penalty_Charging>
2.41478

> <r_epik_Ionization_Penalty_Neutral>
0.0777344

> <r_epik_State_Penalty>
2.68884

> <r_epik_Charging_Adjusted_Penalty>
5.10362

> <i_epik_Tot_Q>
-1

> <i_epik_Tot_abs_Q>
1

> <r_epik_Metal_State_Penalty>
0.584574

> <b_epik_Metal_Only>
0

> <s_lp_Force_Field>
OPLS_2005

> <r_lp_Energy>
22.2252

> <b_lp_Chiralities_Consistent>
1

> <s_lp_Variant>
AV-unprocessed.smi:2107-3

> <Gold.Version>
5.8.1

> <Gold.Id.Protein>
6NUR|6NUR_protein|mol2

> <Gold.PLP.Fitness>
41.9382

> <Gold.PLP.PLP>
-32.5360

> <Gold.PLP.part.hbond>
-3.1635

> <Gold.PLP.part.metal>
0.0000

> <Gold.PLP.part.buried>
-5.5944

> <Gold.PLP.part.nonpolar>
-25.8863

> <Gold.PLP.part.repulsive>
1.0698

> <Gold.PLP.ligand.clash>
0.3458

> <Gold.PLP.ligand.torsion>
2.1132

> <Gold.PLP.Chemscore.Hbond>
3.5520

> <Gold.PLP.Chemscore.CHOScore>
0.0000

> <Gold.PLP.Chemscore.Metal>
0.0000

> <Gold.Chemscore.Hbonds>
donor molecule, donor type, donor heavy atom, donor atom, acceptor molecule, acceptor atom, score
      P1  H  6896  6908       L1     9  2.00
      P1  H  6931  6943       L1     8  0.09
      P1  H  6934  6947       L1     8  0.84

> <Gold.PLP.Chemscore.Internal.Correction>
3.3183

> <Gold.Rescore>
     Score         DG    S(hbond)    S(metal)    S(lipo)     H(rot)  DE(clash)    DE(int)     intcor
     15.12     -17.26       2.21        0.00      74.02       1.66       0.13       2.00       ----

> <Gold.Chemscore.Fitness>
15.1194

> <Gold.Chemscore.DG>
-17.2573

> <Gold.Chemscore.ZeroCoef>
-5.4800

> <Gold.Chemscore.Hbond>
2.2086

> <Gold.Chemscore.Metal>
0.0000

> <Gold.Chemscore.Lipo>
74.0238

> <Gold.Chemscore.Internal_Hbond>
0.0000

> <Gold.Chemscore.DEClash>
0.1346

> <Gold.Chemscore.DEInternal>
2.0033

> <Gold.Chemscore.Rot>
1.6642

> <Gold.Chemscore.Internal.Correction>
   9.000000E+99

> <Gold.Chemscore.Hbonds>
donor molecule, donor type, donor heavy atom, donor atom, acceptor molecule, acceptor atom, score
      P1  H  6896  6908       L1     9  0.30
      P1  H  6931  6943       L1     8  0.10
      P1  H  6934  6947       L1     8  0.78

> <Gold.Chemscore.Hbond.Weighted>
-7.3769

> <Gold.Chemscore.Metal.Weighted>
-0.0000

> <Gold.Chemscore.Lipo.Weighted>
-8.6608

> <Gold.Chemscore.Internal_Hbond.Weighted>
0.0000

> <Gold.Chemscore.DEClash.Weighted>
0.1346

> <Gold.Chemscore.DEInternal.Weighted>
2.0033

> <Gold.Chemscore.Rot.Weighted>
4.2604

> <Gold.Chemscore.Internal.Correction.Weighted>
   9.000000E+99

> <Gold.Protein.RotatedTorsions>
[ 6907 6896 6895 6894 ] final  170.17 input  -60.11 | X-H torsion
[ 7974 7965 7964 7962 ] final   94.70 input  175.53 | X-H torsion
[ 8008 7997 7996 7995 ] final  168.80 input   59.86 | X-H torsion
[ 10167 10162 10161 10158 ] final  -35.33 input  -65.29 | X-H torsion
[ 10718 10713 10712 10709 ] final   47.47 input   66.30 | X-H torsion
[ 10763 10752 10751 10750 ] final  -66.05 input  -60.55 | X-H torsion
[ 11005 11000 10999 10996 ] final  124.81 input  -57.11 | X-H torsion

> <Gold.Protein.ActiveResidues>
 VAL166  LYS551  ARG553  GLY616  TRP617  ASP618  TYR619  PRO620  LYS621  CYS622 
 ASP623  PHE694  ASN695  SER759  ASP760  ASP761  ALA762  ILE779  LEU786  VAL792 
 PHE793  MET794  SER795  GLU796  ALA797  LYS798  CYS799  TRP800  GLU811  SER814 

> <Gold.Protein.RotatedAtoms>
  151.8203  133.3393  159.3581 H   0  0  0  0  0  0  0  0  0  0  0  0  # atno 6907 bound_to 6896
  150.7297  134.5580  159.5837 H   0  0  0  0  0  0  0  0  0  0  0  0  # atno 6908 bound_to 6896
  152.3011  134.7611  160.0409 H   0  0  0  0  0  0  0  0  0  0  0  0  # atno 6909 bound_to 6896
  145.4620  139.2286  143.2982 H   0  0  0  0  0  0  0  0  0  0  0  0  # atno 7974 bound_to 7965
  156.1514  140.1581  156.8763 H   0  0  0  0  0  0  0  0  0  0  0  0  # atno 8008 bound_to 7997
  154.5075  140.0809  156.7960 H   0  0  0  0  0  0  0  0  0  0  0  0  # atno 8009 bound_to 7997
  155.3888  140.3409  155.4252 H   0  0  0  0  0  0  0  0  0  0  0  0  # atno 8010 bound_to 7997
  140.7167  143.3485  151.2205 H   0  0  0  0  0  0  0  0  0  0  0  0  # atno 10167 bound_to 10162
  157.4588  130.8184  149.7865 H   0  0  0  0  0  0  0  0  0  0  0  0  # atno 10718 bound_to 10713
  154.3542  135.6130  153.5658 H   0  0  0  0  0  0  0  0  0  0  0  0  # atno 10763 bound_to 10752
  152.9796  135.5799  154.4708 H   0  0  0  0  0  0  0  0  0  0  0  0  # atno 10764 bound_to 10752
  154.4435  135.2851  155.1808 H   0  0  0  0  0  0  0  0  0  0  0  0  # atno 10765 bound_to 10752
  139.9376  134.9638  156.8465 H   0  0  0  0  0  0  0  0  0  0  0  0  # atno 11005 bound_to 11000
  146.2446  140.5390  142.8919 LP  0  0  0  0  0  0  0  0  0  0  0  0  # atno 17320 bound_to 7965
  144.7997  140.6190  143.6486 LP  0  0  0  0  0  0  0  0  0  0  0  0  # atno 17321 bound_to 7965
  139.7010  143.9533  152.2905 LP  0  0  0  0  0  0  0  0  0  0  0  0  # atno 17342 bound_to 10162
  139.9226  144.6790  150.8446 LP  0  0  0  0  0  0  0  0  0  0  0  0  # atno 17343 bound_to 10162
  156.0019  130.3875  150.2572 LP  0  0  0  0  0  0  0  0  0  0  0  0  # atno 17370 bound_to 10713
  157.0749  131.0127  151.3177 LP  0  0  0  0  0  0  0  0  0  0  0  0  # atno 17371 bound_to 10713
  140.6034  134.0150  155.7547 LP  0  0  0  0  0  0  0  0  0  0  0  0  # atno 17394 bound_to 11000
  141.0997  133.9787  157.3100 LP  0  0  0  0  0  0  0  0  0  0  0  0  # atno 17395 bound_to 11000

$$$$
