AV-unprocessed.smi:1457|AV-procd|sdf|5919|dock5
  -GOLD-   22720 6 03D 1   1.00000     0.00000
 Structure written by MMmdl.
 36 37  0  0  0  0  0  0  0  0  2 V2000
  146.7932  138.7177  151.5959 C   0  0  0  0  0  0  0  0  0  0  0  0
  147.4862  139.6327  152.5281 N   0  3  2  0  0  0  0  0  0  0  0  0
  148.0102  138.9290  153.7253 C   0  0  0  0  0  0  0  0  0  0  0  0
  148.8339  139.8806  154.6090 C   0  0  0  0  0  0  0  0  0  0  0  0
  148.0090  141.1128  155.0155 C   0  0  1  0  0  0  0  0  0  0  0  0
  148.8456  142.0466  155.7650 N   0  0  0  0  0  0  0  0  0  0  0  0
  149.6532  141.7280  156.7870 C   0  0  0  0  0  0  0  0  0  0  0  0
  149.7763  140.5860  157.2291 O   0  0  0  0  0  0  0  0  0  0  0  0
  150.2806  142.8162  157.2645 N   0  0  0  0  0  0  0  0  0  0  0  0
  151.2475  142.8916  158.3028 C   0  0  0  0  0  0  0  0  0  0  0  0
  151.8240  144.0992  158.7657 C   0  0  0  0  0  0  0  0  0  0  0  0
  152.7567  144.0469  159.8194 C   0  0  0  0  0  0  0  0  0  0  0  0
  153.0736  142.7924  160.3755 C   0  0  0  0  0  0  0  0  0  0  0  0
  152.5216  141.6352  159.9538 N   0  0  0  0  0  0  0  0  0  0  0  0
  151.6271  141.6934  158.9442 C   0  0  0  0  0  0  0  0  0  0  0  0
  147.4450  141.7991  153.7600 C   0  0  0  0  0  0  0  0  0  0  0  0
  146.6531  140.8059  152.8925 C   0  0  0  0  0  0  0  0  0  0  0  0
  145.9066  138.2833  152.0595 H   0  0  0  0  0  0  0  0  0  0  0  0
  147.4538  137.9049  151.2919 H   0  0  0  0  0  0  0  0  0  0  0  0
  146.4837  139.2481  150.6948 H   0  0  0  0  0  0  0  0  0  0  0  0
  147.1799  138.5103  154.2966 H   0  0  0  0  0  0  0  0  0  0  0  0
  148.6351  138.0911  153.4134 H   0  0  0  0  0  0  0  0  0  0  0  0
  149.1792  139.3520  155.4986 H   0  0  0  0  0  0  0  0  0  0  0  0
  149.7285  140.1933  154.0680 H   0  0  0  0  0  0  0  0  0  0  0  0
  147.1714  140.7733  155.6275 H   0  0  0  0  0  0  0  0  0  0  0  0
  148.8097  143.0144  155.4802 H   0  0  0  0  0  0  0  0  0  0  0  0
  150.0042  143.7017  156.8660 H   0  0  0  0  0  0  0  0  0  0  0  0
  151.5602  145.0584  158.3479 H   0  0  0  0  0  0  0  0  0  0  0  0
  153.2150  144.9494  160.1958 H   0  0  0  0  0  0  0  0  0  0  0  0
  153.7855  142.7175  161.1840 H   0  0  0  0  0  0  0  0  0  0  0  0
  151.2029  140.7489  158.6356 H   0  0  0  0  0  0  0  0  0  0  0  0
  146.8026  142.6330  154.0460 H   0  0  0  0  0  0  0  0  0  0  0  0
  148.2592  142.2243  153.1709 H   0  0  0  0  0  0  0  0  0  0  0  0
  146.3117  141.3075  151.9862 H   0  0  0  0  0  0  0  0  0  0  0  0
  145.7613  140.4706  153.4246 H   0  0  0  0  0  0  0  0  0  0  0  0
  148.2889  139.9924  152.0312 H   0  0  0  0  0  0  0  0  0  0  0  0
  1  2  1  0  0  0  0
  1 18  1  0  0  0  0
  1 19  1  0  0  0  0
  1 20  1  0  0  0  0
  2 17  1  0  0  0  0
  2  3  1  0  0  0  0
  2 36  1  0  0  0  0
  3  4  1  0  0  0  0
  3 21  1  0  0  0  0
  3 22  1  0  0  0  0
  4  5  1  0  0  0  0
  4 23  1  0  0  0  0
  4 24  1  0  0  0  0
  5  6  1  0  0  0  0
  5 16  1  0  0  0  0
  5 25  1  0  0  0  0
  6  7  1  0  0  0  0
  6 26  1  0  0  0  0
  7  8  2  0  0  0  0
  7  9  1  0  0  0  0
  9 10  1  0  0  0  0
  9 27  1  0  0  0  0
 10 15  1  0  0  0  0
 10 11  2  0  0  0  0
 11 12  1  0  0  0  0
 11 28  1  0  0  0  0
 12 13  2  0  0  0  0
 12 29  1  0  0  0  0
 13 14  1  0  0  0  0
 13 30  1  0  0  0  0
 14 15  2  0  0  0  0
 15 31  1  0  0  0  0
 16 17  1  0  0  0  0
 16 32  1  0  0  0  0
 16 33  1  0  0  0  0
 17 34  1  0  0  0  0
 17 35  1  0  0  0  0
M  CHG  1   2   1
M  END
> <s_m_source_file>
AV-unprocessed.smi

> <i_m_source_file_index>
1457

> <i_lp_mmshare_version>
43012

> <i_f3d_flags>
0

> <s_epik_input>
W0NIM11OMVtDSDJdW0NIMl1bQ0hdKFtDSDJdW0NIMl0xKVtOSF1DKD1PKVtOSF1jMltjSF1bY0hdW2NIXW5bY0hdMg==

> <s_epik_cmdline>
J2VwaWtfcHl0aG9uJywgJy1waCcsICc3LjAnLCAnLXRuJywgJzgnLCAnLW1hJywgJzIwMCcsICctbWV0YWxfYmluZGluZycsICctaW1hZScsICc8aW5maWxlLm1hZT4nLCAnLW9tYWUnLCAnPG91dGZpbGUubWFlPic=

> <r_lp_tautomer_probability>
1

> <r_epik_Ionization_Penalty>
0.00766642

> <r_epik_Ionization_Penalty_Charging>
0.00366825

> <r_epik_Ionization_Penalty_Neutral>
0.00399817

> <r_epik_State_Penalty>
-0

> <r_epik_Charging_Adjusted_Penalty>
0.00366825

> <i_epik_Tot_Q>
1

> <i_epik_Tot_abs_Q>
1

> <r_epik_Metal_State_Penalty>
-0

> <b_epik_Metal_Only>
0

> <s_lp_Force_Field>
OPLS_2005

> <r_lp_Energy>
19.7358

> <b_lp_Chiralities_Consistent>
1

> <s_lp_Variant>
AV-unprocessed.smi:1457-1

> <Gold.Version>
5.8.1

> <Gold.Id.Protein>
6NUR|6NUR_protein|mol2

> <Gold.PLP.Fitness>
42.7820

> <Gold.PLP.PLP>
-34.0192

> <Gold.PLP.part.hbond>
-3.0000

> <Gold.PLP.part.metal>
0.0000

> <Gold.PLP.part.buried>
-2.2947

> <Gold.PLP.part.nonpolar>
-29.0984

> <Gold.PLP.part.repulsive>
0.2109

> <Gold.PLP.ligand.clash>
0.0000

> <Gold.PLP.ligand.torsion>
0.1192

> <Gold.PLP.Chemscore.Hbond>
3.0000

> <Gold.PLP.Chemscore.CHOScore>
0.0000

> <Gold.PLP.Chemscore.Metal>
0.0000

> <Gold.Chemscore.Hbonds>
donor molecule, donor type, donor heavy atom, donor atom, acceptor molecule, acceptor atom, score
      L1  H     2    36       P1  7957  1.00
      L1  H     6    26       P1  8028  1.00
      L1  H     9    27       P1  8028  1.00

> <Gold.PLP.Chemscore.Internal.Correction>
0.0012

> <Gold.Rescore>
     Score         DG    S(hbond)    S(metal)    S(lipo)     H(rot)  DE(clash)    DE(int)     intcor
     20.43     -24.32       2.96        0.00      98.45       1.00       0.95       2.94       ----

> <Gold.Chemscore.Fitness>
20.4273

> <Gold.Chemscore.DG>
-24.3185

> <Gold.Chemscore.ZeroCoef>
-5.4800

> <Gold.Chemscore.Hbond>
2.9581

> <Gold.Chemscore.Metal>
0.0000

> <Gold.Chemscore.Lipo>
98.4491

> <Gold.Chemscore.Internal_Hbond>
0.0000

> <Gold.Chemscore.DEClash>
0.9491

> <Gold.Chemscore.DEInternal>
2.9421

> <Gold.Chemscore.Rot>
1.0000

> <Gold.Chemscore.Internal.Correction>
   9.000000E+99

> <Gold.Chemscore.Hbonds>
donor molecule, donor type, donor heavy atom, donor atom, acceptor molecule, acceptor atom, score
      L1  H     2    36       P1  7957  0.96
      L1  H     6    26       P1  8028  0.99
      L1  H     9    27       P1  8028  0.94

> <Gold.Chemscore.Hbond.Weighted>
-9.8800

> <Gold.Chemscore.Metal.Weighted>
-0.0000

> <Gold.Chemscore.Lipo.Weighted>
-11.5185

> <Gold.Chemscore.Internal_Hbond.Weighted>
0.0000

> <Gold.Chemscore.DEClash.Weighted>
0.9491

> <Gold.Chemscore.DEInternal.Weighted>
2.9421

> <Gold.Chemscore.Rot.Weighted>
2.5600

> <Gold.Chemscore.Internal.Correction.Weighted>
   9.000000E+99

> <Gold.Protein.RotatedTorsions>
[ 6907 6896 6895 6894 ] final  -58.55 input  -60.11 | X-H torsion
[ 7974 7965 7964 7962 ] final  -67.40 input  175.53 | X-H torsion
[ 8008 7997 7996 7995 ] final   67.45 input   59.86 | X-H torsion
[ 10167 10162 10161 10158 ] final   45.71 input  -65.29 | X-H torsion
[ 10718 10713 10712 10709 ] final  153.91 input   66.30 | X-H torsion
[ 10763 10752 10751 10750 ] final  179.87 input  -60.55 | X-H torsion
[ 11005 11000 10999 10996 ] final  136.04 input  -57.11 | X-H torsion

> <Gold.Protein.ActiveResidues>
 VAL166  LYS551  ARG553  GLY616  TRP617  ASP618  TYR619  PRO620  LYS621  CYS622 
 ASP623  PHE694  ASN695  SER759  ASP760  ASP761  ALA762  ILE779  LEU786  VAL792 
 PHE793  MET794  SER795  GLU796  ALA797  LYS798  CYS799  TRP800  GLU811  SER814 

> <Gold.Protein.RotatedAtoms>
  150.7998  134.7084  159.6589 H   0  0  0  0  0  0  0  0  0  0  0  0  # atno 6907 bound_to 6896
  152.4114  134.6115  160.0036 H   0  0  0  0  0  0  0  0  0  0  0  0  # atno 6908 bound_to 6896
  151.6356  133.3292  159.3155 H   0  0  0  0  0  0  0  0  0  0  0  0  # atno 6909 bound_to 6896
  145.7297  140.9002  143.0587 H   0  0  0  0  0  0  0  0  0  0  0  0  # atno 7974 bound_to 7965
  155.6931  140.3496  155.4902 H   0  0  0  0  0  0  0  0  0  0  0  0  # atno 8008 bound_to 7997
  155.9507  140.1118  157.1001 H   0  0  0  0  0  0  0  0  0  0  0  0  # atno 8009 bound_to 7997
  154.4121  140.1195  156.5035 H   0  0  0  0  0  0  0  0  0  0  0  0  # atno 8010 bound_to 7997
  140.3213  144.2701  150.6182 H   0  0  0  0  0  0  0  0  0  0  0  0  # atno 10167 bound_to 10162
  157.2385  131.0754  151.1808 H   0  0  0  0  0  0  0  0  0  0  0  0  # atno 10718 bound_to 10713
  154.5263  135.2797  155.1219 H   0  0  0  0  0  0  0  0  0  0  0  0  # atno 10763 bound_to 10752
  154.2757  135.6295  153.5331 H   0  0  0  0  0  0  0  0  0  0  0  0  # atno 10764 bound_to 10752
  152.9947  135.5639  154.5765 H   0  0  0  0  0  0  0  0  0  0  0  0  # atno 10765 bound_to 10752
  140.0020  134.9475  157.0092 H   0  0  0  0  0  0  0  0  0  0  0  0  # atno 11005 bound_to 11000
  144.6896  139.9314  143.7472 LP  0  0  0  0  0  0  0  0  0  0  0  0  # atno 17320 bound_to 7965
  146.0549  139.3547  143.0617 LP  0  0  0  0  0  0  0  0  0  0  0  0  # atno 17321 bound_to 7965
  140.5481  143.2211  151.7974 LP  0  0  0  0  0  0  0  0  0  0  0  0  # atno 17342 bound_to 10162
  139.4873  144.4513  151.9650 LP  0  0  0  0  0  0  0  0  0  0  0  0  # atno 17343 bound_to 10162
  157.3404  130.7030  149.6378 LP  0  0  0  0  0  0  0  0  0  0  0  0  # atno 17370 bound_to 10713
  155.9671  130.4281  150.4776 LP  0  0  0  0  0  0  0  0  0  0  0  0  # atno 17371 bound_to 10713
  140.4711  134.1386  155.7203 LP  0  0  0  0  0  0  0  0  0  0  0  0  # atno 17394 bound_to 11000
  141.1649  133.8723  157.1744 LP  0  0  0  0  0  0  0  0  0  0  0  0  # atno 17395 bound_to 11000

$$$$
