AV-unprocessed.smi:2097|AV-procd|sdf|8564|dock2
  -GOLD-   2272011293D 1   1.00000     0.00000
 Structure written by MMmdl.
 41 42  0  0  0  0  0  0  0  0  1 V2000
  156.9761  135.9901  160.5397 C   0  0  0  0  0  0  0  0  0  0  0  0
  155.6461  135.8707  161.2979 C   0  0  1  0  0  0  0  0  0  0  0  0
  155.9167  136.1148  162.6761 O   0  0  0  0  0  0  0  0  0  0  0  0
  154.9384  135.6263  163.5887 C   0  0  0  0  0  0  0  0  0  0  0  0
  155.3835  134.2618  164.1281 C   0  0  0  0  0  0  0  0  0  0  0  0
  156.6819  134.3098  164.4245 F   0  0  0  0  0  0  0  0  0  0  0  0
  154.7035  133.9580  165.2332 F   0  0  0  0  0  0  0  0  0  0  0  0
  155.1894  133.3173  163.2083 F   0  0  0  0  0  0  0  0  0  0  0  0
  154.6124  136.8787  160.7694 C   0  0  0  0  0  0  0  0  0  0  0  0
  153.6141  136.4695  160.1780 O   0  0  0  0  0  0  0  0  0  0  0  0
  154.9078  138.1767  160.9702 N   0  0  0  0  0  0  0  0  0  0  0  0
  154.1714  139.3321  160.5902 C   0  0  0  0  0  0  0  0  0  0  0  0
  153.0174  139.3168  159.7702 C   0  0  0  0  0  0  0  0  0  0  0  0
  152.3758  140.5351  159.4749 C   0  0  0  0  0  0  0  0  0  0  0  0
  152.8993  141.7287  160.0119 C   0  0  0  0  0  0  0  0  0  0  0  0
  152.2700  142.9442  159.7082 N   0  0  0  0  0  0  0  0  0  0  0  0
  152.3026  143.2732  158.2885 C   0  0  0  0  0  0  0  0  0  0  0  0
  151.4836  144.5483  158.0246 C   0  0  0  0  0  0  0  0  0  0  0  0
  151.9762  145.6092  158.8384 O   0  0  0  0  0  0  0  0  0  0  0  0
  151.8738  145.3100  160.2278 C   0  0  0  0  0  0  0  0  0  0  0  0
  152.7033  144.0541  160.5480 C   0  0  0  0  0  0  0  0  0  0  0  0
  153.9930  141.7497  160.8097 N   0  0  0  0  0  0  0  0  0  0  0  0
  154.6031  140.5787  161.0889 C   0  0  0  0  0  0  0  0  0  0  0  0
  156.8396  135.8215  159.4708 H   0  0  0  0  0  0  0  0  0  0  0  0
  157.6923  135.2514  160.9000 H   0  0  0  0  0  0  0  0  0  0  0  0
  157.4265  136.9750  160.6698 H   0  0  0  0  0  0  0  0  0  0  0  0
  155.2723  134.8521  161.1768 H   0  0  0  0  0  0  0  0  0  0  0  0
  154.7995  136.3158  164.4221 H   0  0  0  0  0  0  0  0  0  0  0  0
  153.9768  135.5282  163.0828 H   0  0  0  0  0  0  0  0  0  0  0  0
  155.7995  138.3601  161.4070 H   0  0  0  0  0  0  0  0  0  0  0  0
  152.6043  138.4041  159.3704 H   0  0  0  0  0  0  0  0  0  0  0  0
  151.4966  140.5506  158.8473 H   0  0  0  0  0  0  0  0  0  0  0  0
  153.3344  143.4243  157.9680 H   0  0  0  0  0  0  0  0  0  0  0  0
  151.9011  142.4421  157.7072 H   0  0  0  0  0  0  0  0  0  0  0  0
  151.5645  144.8367  156.9765 H   0  0  0  0  0  0  0  0  0  0  0  0
  150.4250  144.3801  158.2293 H   0  0  0  0  0  0  0  0  0  0  0  0
  152.2407  146.1603  160.8025 H   0  0  0  0  0  0  0  0  0  0  0  0
  150.8276  145.1659  160.5026 H   0  0  0  0  0  0  0  0  0  0  0  0
  152.5907  143.7884  161.5998 H   0  0  0  0  0  0  0  0  0  0  0  0
  153.7614  144.2567  160.3763 H   0  0  0  0  0  0  0  0  0  0  0  0
  155.4714  140.6418  161.7288 H   0  0  0  0  0  0  0  0  0  0  0  0
  1  2  1  0  0  0  0
  1 24  1  0  0  0  0
  1 25  1  0  0  0  0
  1 26  1  0  0  0  0
  2  3  1  0  0  0  0
  2  9  1  0  0  0  0
  2 27  1  0  0  0  0
  3  4  1  0  0  0  0
  4  5  1  0  0  0  0
  4 28  1  0  0  0  0
  4 29  1  0  0  0  0
  5  6  1  0  0  0  0
  5  7  1  0  0  0  0
  5  8  1  0  0  0  0
  9 10  2  0  0  0  0
  9 11  1  0  0  0  0
 11 12  1  0  0  0  0
 11 30  1  0  0  0  0
 12 23  1  0  0  0  0
 12 13  2  0  0  0  0
 13 14  1  0  0  0  0
 13 31  1  0  0  0  0
 14 15  2  0  0  0  0
 14 32  1  0  0  0  0
 15 16  1  0  0  0  0
 15 22  1  0  0  0  0
 16 21  1  0  0  0  0
 16 17  1  0  0  0  0
 17 18  1  0  0  0  0
 17 33  1  0  0  0  0
 17 34  1  0  0  0  0
 18 19  1  0  0  0  0
 18 35  1  0  0  0  0
 18 36  1  0  0  0  0
 19 20  1  0  0  0  0
 20 21  1  0  0  0  0
 20 37  1  0  0  0  0
 20 38  1  0  0  0  0
 21 39  1  0  0  0  0
 21 40  1  0  0  0  0
 22 23  2  0  0  0  0
 23 41  1  0  0  0  0
M  END
> <s_m_source_file>
AV-unprocessed.smi

> <i_m_source_file_index>
2097

> <i_lp_mmshare_version>
43012

> <i_f3d_flags>
0

> <s_epik_input>
RkMoRikoRilbQ0gyXU9bQ0BASF0oW0NIM10pQyg9TylbTkhdYzFbY0hdW2NIXWMobltjSF0xKU4yW0NIMl1bQ0gyXU9bQ0gyXVtDSDJdMg==

> <s_epik_cmdline>
J2VwaWtfcHl0aG9uJywgJy1waCcsICc3LjAnLCAnLXRuJywgJzgnLCAnLW1hJywgJzIwMCcsICctbWV0YWxfYmluZGluZycsICctaW1hZScsICc8aW5maWxlLm1hZT4nLCAnLW9tYWUnLCAnPG91dGZpbGUubWFlPic=

> <r_lp_tautomer_probability>
1

> <r_epik_Ionization_Penalty>
0.000443452

> <r_epik_Ionization_Penalty_Charging>
0

> <r_epik_Ionization_Penalty_Neutral>
0.000443452

> <r_epik_State_Penalty>
0.00027288

> <r_epik_Charging_Adjusted_Penalty>
0.00027288

> <i_epik_Tot_Q>
0

> <i_epik_Tot_abs_Q>
0

> <r_epik_Metal_State_Penalty>
-0

> <b_epik_Metal_Only>
0

> <s_lp_Force_Field>
OPLS_2005

> <r_lp_Energy>
27.3588

> <b_lp_Chiralities_Consistent>
1

> <s_lp_Variant>
AV-unprocessed.smi:2097-2

> <Gold.Version>
5.8.1

> <Gold.Id.Protein>
6NUR|6NUR_protein|mol2

> <Gold.PLP.Fitness>
44.9396

> <Gold.PLP.PLP>
-43.5342

> <Gold.PLP.part.hbond>
-1.4343

> <Gold.PLP.part.metal>
0.0000

> <Gold.PLP.part.buried>
-6.9643

> <Gold.PLP.part.nonpolar>
-35.2352

> <Gold.PLP.part.repulsive>
0.0983

> <Gold.PLP.ligand.clash>
0.0000

> <Gold.PLP.ligand.torsion>
0.9025

> <Gold.PLP.Chemscore.Hbond>
1.0000

> <Gold.PLP.Chemscore.CHOScore>
0.0000

> <Gold.PLP.Chemscore.Metal>
0.0000

> <Gold.Chemscore.Hbonds>
donor molecule, donor type, donor heavy atom, donor atom, acceptor molecule, acceptor atom, score
      P1  H  6896  6907       L1    10  0.88

> <Gold.PLP.Chemscore.Internal.Correction>
0.2103

> <Gold.Rescore>
     Score         DG    S(hbond)    S(metal)    S(lipo)     H(rot)  DE(clash)    DE(int)     intcor
     13.08     -15.18       1.00        0.00      96.99       1.95       0.03       2.07       ----

> <Gold.Chemscore.Fitness>
13.0795

> <Gold.Chemscore.DG>
-15.1775

> <Gold.Chemscore.ZeroCoef>
-5.4800

> <Gold.Chemscore.Hbond>
0.9997

> <Gold.Chemscore.Metal>
0.0000

> <Gold.Chemscore.Lipo>
96.9932

> <Gold.Chemscore.Internal_Hbond>
0.0000

> <Gold.Chemscore.DEClash>
0.0328

> <Gold.Chemscore.DEInternal>
2.0652

> <Gold.Chemscore.Rot>
1.9491

> <Gold.Chemscore.Internal.Correction>
   9.000000E+99

> <Gold.Chemscore.Hbonds>
donor molecule, donor type, donor heavy atom, donor atom, acceptor molecule, acceptor atom, score
      P1  H  6896  6907       L1    10  0.84

> <Gold.Chemscore.Hbond.Weighted>
-3.3390

> <Gold.Chemscore.Metal.Weighted>
-0.0000

> <Gold.Chemscore.Lipo.Weighted>
-11.3482

> <Gold.Chemscore.Internal_Hbond.Weighted>
0.0000

> <Gold.Chemscore.DEClash.Weighted>
0.0328

> <Gold.Chemscore.DEInternal.Weighted>
2.0652

> <Gold.Chemscore.Rot.Weighted>
4.9897

> <Gold.Chemscore.Internal.Correction.Weighted>
   9.000000E+99

> <Gold.Protein.RotatedTorsions>
[ 6907 6896 6895 6894 ] final   47.62 input  -60.11 | X-H torsion
[ 7974 7965 7964 7962 ] final  -73.89 input  175.53 | X-H torsion
[ 8008 7997 7996 7995 ] final  -58.29 input   59.86 | X-H torsion
[ 10167 10162 10161 10158 ] final  166.86 input  -65.29 | X-H torsion
[ 10718 10713 10712 10709 ] final  122.74 input   66.30 | X-H torsion
[ 10763 10752 10751 10750 ] final -169.03 input  -60.55 | X-H torsion
[ 11005 11000 10999 10996 ] final   23.51 input  -57.11 | X-H torsion

> <Gold.Protein.ActiveResidues>
 VAL166  LYS551  ARG553  GLY616  TRP617  ASP618  TYR619  PRO620  LYS621  CYS622 
 ASP623  PHE694  ASN695  SER759  ASP760  ASP761  ALA762  ILE779  LEU786  VAL792 
 PHE793  MET794  SER795  GLU796  ALA797  LYS798  CYS799  TRP800  GLU811  SER814 

> <Gold.Protein.RotatedAtoms>
  152.2701  134.7941  160.0415 H   0  0  0  0  0  0  0  0  0  0  0  0  # atno 6907 bound_to 6896
  151.8557  133.3443  159.3696 H   0  0  0  0  0  0  0  0  0  0  0  0  # atno 6908 bound_to 6896
  150.7149  134.5183  159.5685 H   0  0  0  0  0  0  0  0  0  0  0  0  # atno 6909 bound_to 6896
  145.6462  140.9296  143.1009 H   0  0  0  0  0  0  0  0  0  0  0  0  # atno 7974 bound_to 7965
  154.4303  140.1087  156.5934 H   0  0  0  0  0  0  0  0  0  0  0  0  # atno 8008 bound_to 7997
  155.5988  140.3493  155.4569 H   0  0  0  0  0  0  0  0  0  0  0  0  # atno 8009 bound_to 7997
  156.0190  140.1235  157.0367 H   0  0  0  0  0  0  0  0  0  0  0  0  # atno 8010 bound_to 7997
  139.4933  144.3983  151.9439 H   0  0  0  0  0  0  0  0  0  0  0  0  # atno 10167 bound_to 10162
  157.5719  131.1082  150.8351 H   0  0  0  0  0  0  0  0  0  0  0  0  # atno 10718 bound_to 10713
  154.6566  135.2919  154.9920 H   0  0  0  0  0  0  0  0  0  0  0  0  # atno 10763 bound_to 10752
  154.0994  135.6579  153.4869 H   0  0  0  0  0  0  0  0  0  0  0  0  # atno 10764 bound_to 10752
  153.0406  135.5239  154.7498 H   0  0  0  0  0  0  0  0  0  0  0  0  # atno 10765 bound_to 10752
  140.3688  134.2045  155.7668 H   0  0  0  0  0  0  0  0  0  0  0  0  # atno 11005 bound_to 11000
  144.7139  139.8268  143.7405 LP  0  0  0  0  0  0  0  0  0  0  0  0  # atno 17320 bound_to 7965
  146.1240  139.4263  143.0210 LP  0  0  0  0  0  0  0  0  0  0  0  0  # atno 17321 bound_to 7965
  140.3422  144.3190  150.5965 LP  0  0  0  0  0  0  0  0  0  0  0  0  # atno 17342 bound_to 10162
  140.5556  143.2199  151.7852 LP  0  0  0  0  0  0  0  0  0  0  0  0  # atno 17343 bound_to 10162
  156.8821  130.5183  149.5290 LP  0  0  0  0  0  0  0  0  0  0  0  0  # atno 17370 bound_to 10713
  156.0764  130.5785  150.9481 LP  0  0  0  0  0  0  0  0  0  0  0  0  # atno 17371 bound_to 10713
  141.1961  133.8090  157.0686 LP  0  0  0  0  0  0  0  0  0  0  0  0  # atno 17394 bound_to 11000
  140.0568  134.9776  157.1235 LP  0  0  0  0  0  0  0  0  0  0  0  0  # atno 17395 bound_to 11000

$$$$
