AV-unprocessed.smi:2926|AV-procd|sdf|11228|dock5
  -GOLD-   2272016123D 1   1.00000     0.00000
 Structure written by MMmdl.
 31 31  0  0  0  0  0  0  0  0  2 V2000
  150.7333  137.5007  154.5639 C   0  0  0  0  0  0  0  0  0  0  0  0
  151.3642  138.9142  154.5471 C   0  0  0  0  0  0  0  0  0  0  0  0
  152.8153  138.8121  155.0701 C   0  0  0  0  0  0  0  0  0  0  0  0
  150.5012  139.9741  155.3039 C   0  0  1  0  0  0  0  0  0  0  0  0
  149.2310  140.4333  154.5509 C   0  0  0  0  0  0  0  0  0  0  0  0
  149.5300  141.0055  153.2916 O   0  0  0  0  0  0  0  0  0  0  0  0
  150.1165  139.4567  156.6126 N   0  5  0  0  0  0  0  0  0  0  0  0
  150.1416  140.4373  157.9041 S   0  0  0  0  0  0  0  0  0  0  0  0
  148.7951  140.8763  158.3068 O   0  0  0  0  0  0  0  0  0  0  0  0
  151.0288  139.9332  158.9652 O   0  0  0  0  0  0  0  0  0  0  0  0
  150.9933  141.9177  157.2006 C   0  0  0  0  0  0  0  0  0  0  0  0
  151.2029  142.9655  158.2601 C   0  0  0  0  0  0  0  0  0  0  0  0
  151.8390  144.2323  158.1382 C   0  0  0  0  0  0  0  0  0  0  0  0
  151.7485  144.7583  159.3940 C   0  0  0  0  0  0  0  0  0  0  0  0
  151.1228  143.8905  160.2286 O   0  0  0  0  0  0  0  0  0  0  0  0
  150.7821  142.7470  159.4970 N   0  0  0  0  0  0  0  0  0  0  0  0
  151.1291  140.8599  155.4113 H   0  0  0  0  0  0  0  0  0  0  0  0
  150.6270  137.1099  155.5778 H   0  0  0  0  0  0  0  0  0  0  0  0
  151.3566  136.7954  154.0138 H   0  0  0  0  0  0  0  0  0  0  0  0
  149.7497  137.4715  154.0921 H   0  0  0  0  0  0  0  0  0  0  0  0
  151.4295  139.2209  153.5019 H   0  0  0  0  0  0  0  0  0  0  0  0
  152.8563  138.5370  156.1259 H   0  0  0  0  0  0  0  0  0  0  0  0
  153.3736  139.7401  154.9398 H   0  0  0  0  0  0  0  0  0  0  0  0
  153.3669  138.0486  154.5207 H   0  0  0  0  0  0  0  0  0  0  0  0
  148.5579  139.5895  154.3950 H   0  0  0  0  0  0  0  0  0  0  0  0
  148.6710  141.1574  155.1419 H   0  0  0  0  0  0  0  0  0  0  0  0
  149.4287  140.3394  152.6295 H   0  0  0  0  0  0  0  0  0  0  0  0
  151.9488  141.5831  156.7959 H   0  0  0  0  0  0  0  0  0  0  0  0
  150.4028  142.2987  156.3677 H   0  0  0  0  0  0  0  0  0  0  0  0
  152.2815  144.6846  157.2626 H   0  0  0  0  0  0  0  0  0  0  0  0
  152.0682  145.6922  159.8321 H   0  0  0  0  0  0  0  0  0  0  0  0
  1  2  1  0  0  0  0
  1 18  1  0  0  0  0
  1 19  1  0  0  0  0
  1 20  1  0  0  0  0
  2  3  1  0  0  0  0
  2  4  1  0  0  0  0
  2 21  1  0  0  0  0
  3 22  1  0  0  0  0
  3 23  1  0  0  0  0
  3 24  1  0  0  0  0
  4 17  1  0  0  0  0
  4  5  1  0  0  0  0
  4  7  1  0  0  0  0
  5  6  1  0  0  0  0
  5 25  1  0  0  0  0
  5 26  1  0  0  0  0
  6 27  1  0  0  0  0
  7  8  1  0  0  0  0
  8  9  2  0  0  0  0
  8 10  2  0  0  0  0
  8 11  1  0  0  0  0
 11 12  1  0  0  0  0
 11 28  1  0  0  0  0
 11 29  1  0  0  0  0
 12 16  2  0  0  0  0
 12 13  1  0  0  0  0
 13 14  2  0  0  0  0
 13 30  1  0  0  0  0
 14 15  1  0  0  0  0
 14 31  1  0  0  0  0
 15 16  1  0  0  0  0
M  CHG  1   7  -1
M  END
> <s_m_source_file>
AV-unprocessed.smi

> <i_m_source_file_index>
2926

> <i_lp_mmshare_version>
43012

> <i_f3d_flags>
0

> <s_epik_input>
W0NIM11bQ0hdKFtDSDNdKVtDQEBIXShbQ0gyXVtPSF0pW05IXVMoPU8pKD1PKVtDSDJdYzFbY0hdW2NIXW9uMQ==

> <s_epik_cmdline>
J2VwaWtfcHl0aG9uJywgJy1waCcsICc3LjAnLCAnLXRuJywgJzgnLCAnLW1hJywgJzIwMCcsICctbWV0YWxfYmluZGluZycsICctaW1hZScsICc8aW5maWxlLm1hZT4nLCAnLW9tYWUnLCAnPG91dGZpbGUubWFlPic=

> <r_lp_tautomer_probability>
1

> <r_epik_Ionization_Penalty>
4.75719

> <r_epik_Ionization_Penalty_Charging>
4.75718

> <r_epik_Ionization_Penalty_Neutral>
1.48962e-06

> <r_epik_State_Penalty>
4.75699

> <r_epik_Charging_Adjusted_Penalty>
9.51417

> <i_epik_Tot_Q>
-1

> <i_epik_Tot_abs_Q>
1

> <r_epik_Metal_State_Penalty>
0.961449

> <b_epik_Metal_Only>
1

> <s_lp_Force_Field>
OPLS_2005

> <r_lp_Energy>
4.17098

> <b_lp_Chiralities_Consistent>
1

> <s_lp_Variant>
AV-unprocessed.smi:2926-3

> <Gold.Version>
5.8.1

> <Gold.Id.Protein>
6NUR|6NUR_protein|mol2

> <Gold.PLP.Fitness>
38.7898

> <Gold.PLP.PLP>
-33.8959

> <Gold.PLP.part.hbond>
-4.2780

> <Gold.PLP.part.metal>
0.0000

> <Gold.PLP.part.buried>
-3.7530

> <Gold.PLP.part.nonpolar>
-27.1276

> <Gold.PLP.part.repulsive>
0.1010

> <Gold.PLP.ligand.clash>
0.0000

> <Gold.PLP.ligand.torsion>
1.1952

> <Gold.PLP.Chemscore.Hbond>
2.0375

> <Gold.PLP.Chemscore.CHOScore>
0.0000

> <Gold.PLP.Chemscore.Metal>
0.0000

> <Gold.Chemscore.Hbonds>
donor molecule, donor type, donor heavy atom, donor atom, acceptor molecule, acceptor atom, score
      L1  H     6    27       P1  7957  0.81
      P1  H  7989  7998       L1     6  0.12
      P1  H  8011  8017       L1     6  1.00

> <Gold.PLP.Chemscore.Internal.Correction>
1.1717

> <Gold.Rescore>
     Score         DG    S(hbond)    S(metal)    S(lipo)     H(rot)  DE(clash)    DE(int)     intcor
      9.97     -12.77       1.27        0.00      82.63       2.58       0.04       2.77       ----

> <Gold.Chemscore.Fitness>
9.9674

> <Gold.Chemscore.DG>
-12.7749

> <Gold.Chemscore.ZeroCoef>
-5.4800

> <Gold.Chemscore.Hbond>
1.2651

> <Gold.Chemscore.Metal>
0.0000

> <Gold.Chemscore.Lipo>
82.6323

> <Gold.Chemscore.Internal_Hbond>
0.0000

> <Gold.Chemscore.DEClash>
0.0358

> <Gold.Chemscore.DEInternal>
2.7717

> <Gold.Chemscore.Rot>
2.5776

> <Gold.Chemscore.Internal.Correction>
   9.000000E+99

> <Gold.Chemscore.Hbonds>
donor molecule, donor type, donor heavy atom, donor atom, acceptor molecule, acceptor atom, score
      L1  H     6    27       P1  7957  0.76
      P1  H  8011  8017       L1     6  0.30

> <Gold.Chemscore.Hbond.Weighted>
-4.2256

> <Gold.Chemscore.Metal.Weighted>
-0.0000

> <Gold.Chemscore.Lipo.Weighted>
-9.6680

> <Gold.Chemscore.Internal_Hbond.Weighted>
0.0000

> <Gold.Chemscore.DEClash.Weighted>
0.0358

> <Gold.Chemscore.DEInternal.Weighted>
2.7717

> <Gold.Chemscore.Rot.Weighted>
6.5987

> <Gold.Chemscore.Internal.Correction.Weighted>
   9.000000E+99

> <Gold.Protein.RotatedTorsions>
[ 6907 6896 6895 6894 ] final   46.80 input  -60.11 | X-H torsion
[ 7974 7965 7964 7962 ] final -118.74 input  175.53 | X-H torsion
[ 8008 7997 7996 7995 ] final  -72.71 input   59.86 | X-H torsion
[ 10167 10162 10161 10158 ] final   55.71 input  -65.29 | X-H torsion
[ 10718 10713 10712 10709 ] final  106.81 input   66.30 | X-H torsion
[ 10763 10752 10751 10750 ] final  -54.40 input  -60.55 | X-H torsion
[ 11005 11000 10999 10996 ] final  173.91 input  -57.11 | X-H torsion

> <Gold.Protein.ActiveResidues>
 VAL166  LYS551  ARG553  GLY616  TRP617  ASP618  TYR619  PRO620  LYS621  CYS622 
 ASP623  PHE694  ASN695  SER759  ASP760  ASP761  ALA762  ILE779  LEU786  VAL792 
 PHE793  MET794  SER795  GLU796  ALA797  LYS798  CYS799  TRP800  GLU811  SER814 

> <Gold.Protein.RotatedAtoms>
  152.2607  134.8037  160.0430 H   0  0  0  0  0  0  0  0  0  0  0  0  # atno 6907 bound_to 6896
  151.8685  133.3466  159.3735 H   0  0  0  0  0  0  0  0  0  0  0  0  # atno 6908 bound_to 6896
  150.7115  134.5063  159.5630 H   0  0  0  0  0  0  0  0  0  0  0  0  # atno 6909 bound_to 6896
  145.0704  140.8355  143.4099 H   0  0  0  0  0  0  0  0  0  0  0  0  # atno 7974 bound_to 7965
  154.5188  140.0792  156.8132 H   0  0  0  0  0  0  0  0  0  0  0  0  # atno 8008 bound_to 7997
  155.3622  140.3418  155.4223 H   0  0  0  0  0  0  0  0  0  0  0  0  # atno 8009 bound_to 7997
  156.1658  140.1603  156.8521 H   0  0  0  0  0  0  0  0  0  0  0  0  # atno 8010 bound_to 7997
  140.2165  144.3834  150.6467 H   0  0  0  0  0  0  0  0  0  0  0  0  # atno 10167 bound_to 10162
  157.6653  131.0859  150.6063 H   0  0  0  0  0  0  0  0  0  0  0  0  # atno 10718 bound_to 10713
  154.1742  135.6454  153.5017 H   0  0  0  0  0  0  0  0  0  0  0  0  # atno 10763 bound_to 10752
  153.0076  135.5390  154.6581 H   0  0  0  0  0  0  0  0  0  0  0  0  # atno 10764 bound_to 10752
  154.5928  135.2936  155.0590 H   0  0  0  0  0  0  0  0  0  0  0  0  # atno 10765 bound_to 10752
  140.3456  134.7239  157.4232 H   0  0  0  0  0  0  0  0  0  0  0  0  # atno 11005 bound_to 11000
  145.1299  139.2639  143.5545 LP  0  0  0  0  0  0  0  0  0  0  0  0  # atno 17320 bound_to 7965
  146.3528  140.0947  142.8611 LP  0  0  0  0  0  0  0  0  0  0  0  0  # atno 17321 bound_to 7965
  140.6286  143.2184  151.6544 LP  0  0  0  0  0  0  0  0  0  0  0  0  # atno 17342 bound_to 10162
  139.5160  144.3360  152.0783 LP  0  0  0  0  0  0  0  0  0  0  0  0  # atno 17343 bound_to 10162
  156.6364  130.4446  149.5768 LP  0  0  0  0  0  0  0  0  0  0  0  0  # atno 17370 bound_to 10713
  156.2243  130.6756  151.1400 LP  0  0  0  0  0  0  0  0  0  0  0  0  # atno 17371 bound_to 10713
  140.0745  134.5816  155.8606 LP  0  0  0  0  0  0  0  0  0  0  0  0  # atno 17394 bound_to 11000
  141.2026  133.6626  156.6018 LP  0  0  0  0  0  0  0  0  0  0  0  0  # atno 17395 bound_to 11000

$$$$
