AV-unprocessed.smi:293|AV-procd|sdf|2251|dock3
  -GOLD-   2262022133D 1   1.00000     0.00000
 Structure written by MMmdl.
 32 33  0  0  0  0  0  0  0  0  1 V2000
  151.0865  134.6131  157.1360 N   0  0  0  0  0  0  0  0  0  0  0  0
  151.1687  135.6230  156.5765 C   0  0  0  0  0  0  0  0  0  0  0  0
  151.2721  136.8908  155.8741 C   0  0  0  0  0  0  0  0  0  0  0  0
  151.7752  136.9656  154.6076 N   0  0  0  0  0  0  0  0  0  0  0  0
  151.6597  138.2742  154.4169 C   0  0  0  0  0  0  0  0  0  0  0  0
  151.1399  138.9312  155.4593 N   0  0  0  0  0  0  0  0  0  0  0  0
  150.8452  140.3423  155.6323 C   0  0  0  0  0  0  0  0  0  0  0  0
  151.6649  140.9388  156.7773 C   0  0  0  0  0  0  0  0  0  0  0  0
  152.5671  140.2816  157.2956 O   0  0  0  0  0  0  0  0  0  0  0  0
  151.3424  142.1855  157.1567 N   0  0  0  0  0  0  0  0  0  0  0  0
  152.0118  142.9532  158.2014 C   0  0  0  0  0  0  0  0  0  0  0  0
  152.0450  142.1285  159.5024 C   0  0  0  0  0  0  0  0  0  0  0  0
  152.6812  142.9193  160.6569 C   0  0  0  0  0  0  0  0  0  0  0  0
  151.9625  144.2596  160.8764 C   0  0  0  0  0  0  0  0  0  0  0  0
  151.9330  145.0901  159.5839 C   0  0  0  0  0  0  0  0  0  0  0  0
  151.2963  144.3021  158.4276 C   0  0  0  0  0  0  0  0  0  0  0  0
  150.8764  138.0303  156.4375 N   0  0  0  0  0  0  0  0  0  0  0  0
  151.9537  138.7631  153.4994 H   0  0  0  0  0  0  0  0  0  0  0  0
  151.0549  140.8770  154.7047 H   0  0  0  0  0  0  0  0  0  0  0  0
  149.7793  140.4542  155.8359 H   0  0  0  0  0  0  0  0  0  0  0  0
  150.5849  142.6443  156.6711 H   0  0  0  0  0  0  0  0  0  0  0  0
  153.0418  143.1457  157.8946 H   0  0  0  0  0  0  0  0  0  0  0  0
  151.0310  141.8385  159.7817 H   0  0  0  0  0  0  0  0  0  0  0  0
  152.5985  141.2021  159.3442 H   0  0  0  0  0  0  0  0  0  0  0  0
  152.6521  142.3280  161.5725 H   0  0  0  0  0  0  0  0  0  0  0  0
  153.7345  143.1003  160.4388 H   0  0  0  0  0  0  0  0  0  0  0  0
  150.9425  144.0763  161.2167 H   0  0  0  0  0  0  0  0  0  0  0  0
  152.4569  144.8219  161.6691 H   0  0  0  0  0  0  0  0  0  0  0  0
  151.3825  146.0165  159.7497 H   0  0  0  0  0  0  0  0  0  0  0  0
  152.9491  145.3791  159.3120 H   0  0  0  0  0  0  0  0  0  0  0  0
  151.3271  144.9039  157.5186 H   0  0  0  0  0  0  0  0  0  0  0  0
  150.2416  144.1285  158.6461 H   0  0  0  0  0  0  0  0  0  0  0  0
  1  2  3  0  0  0  0
  2  3  1  0  0  0  0
  3 17  2  0  0  0  0
  3  4  1  0  0  0  0
  4  5  2  0  0  0  0
  5  6  1  0  0  0  0
  5 18  1  0  0  0  0
  6  7  1  0  0  0  0
  6 17  1  0  0  0  0
  7  8  1  0  0  0  0
  7 19  1  0  0  0  0
  7 20  1  0  0  0  0
  8  9  2  0  0  0  0
  8 10  1  0  0  0  0
 10 11  1  0  0  0  0
 10 21  1  0  0  0  0
 11 16  1  0  0  0  0
 11 12  1  0  0  0  0
 11 22  1  0  0  0  0
 12 13  1  0  0  0  0
 12 23  1  0  0  0  0
 12 24  1  0  0  0  0
 13 14  1  0  0  0  0
 13 25  1  0  0  0  0
 13 26  1  0  0  0  0
 14 15  1  0  0  0  0
 14 27  1  0  0  0  0
 14 28  1  0  0  0  0
 15 16  1  0  0  0  0
 15 29  1  0  0  0  0
 15 30  1  0  0  0  0
 16 31  1  0  0  0  0
 16 32  1  0  0  0  0
M  END
> <s_m_source_file>
AV-unprocessed.smi

> <i_m_source_file_index>
293

> <i_lp_mmshare_version>
43012

> <i_f3d_flags>
0

> <s_epik_input>
TiNDYzFuW2NIXW4objEpW0NIMl1DKD1PKVtOSF1bQ0hdMltDSDJdW0NIMl1bQ0gyXVtDSDJdW0NIMl0y

> <s_epik_cmdline>
J2VwaWtfcHl0aG9uJywgJy1waCcsICc3LjAnLCAnLXRuJywgJzgnLCAnLW1hJywgJzIwMCcsICctbWV0YWxfYmluZGluZycsICctaW1hZScsICc8aW5maWxlLm1hZT4nLCAnLW9tYWUnLCAnPG91dGZpbGUubWFlPic=

> <r_lp_tautomer_probability>
1

> <r_epik_Ionization_Penalty>
5.31112e-08

> <r_epik_Ionization_Penalty_Charging>
0

> <r_epik_Ionization_Penalty_Neutral>
5.31112e-08

> <r_epik_State_Penalty>
-0

> <r_epik_Charging_Adjusted_Penalty>
0

> <i_epik_Tot_Q>
0

> <i_epik_Tot_abs_Q>
0

> <r_epik_Metal_State_Penalty>
-0

> <b_epik_Metal_Only>
0

> <s_lp_Force_Field>
OPLS_2005

> <r_lp_Energy>
12.166

> <b_lp_Chiralities_Consistent>
1

> <s_lp_Variant>
AV-unprocessed.smi:293-1

> <Gold.Version>
5.8.1

> <Gold.Id.Protein>
6NUR|6NUR_protein|mol2

> <Gold.PLP.Fitness>
42.8247

> <Gold.PLP.PLP>
-35.9791

> <Gold.PLP.part.hbond>
-3.0000

> <Gold.PLP.part.metal>
0.0000

> <Gold.PLP.part.buried>
-4.1111

> <Gold.PLP.part.nonpolar>
-28.8238

> <Gold.PLP.part.repulsive>
0.1989

> <Gold.PLP.ligand.clash>
0.0000

> <Gold.PLP.ligand.torsion>
0.1183

> <Gold.PLP.Chemscore.Hbond>
2.3566

> <Gold.PLP.Chemscore.CHOScore>
0.0000

> <Gold.PLP.Chemscore.Metal>
0.0000

> <Gold.Chemscore.Hbonds>
donor molecule, donor type, donor heavy atom, donor atom, acceptor molecule, acceptor atom, score
      P1  H  6896  6909       L1     1  0.12
      P1  H  7997  8010       L1     9  0.98
      P1  H 10752 10765       L1     4  1.00

> <Gold.PLP.Chemscore.Internal.Correction>
0.0123

> <Gold.Rescore>
     Score         DG    S(hbond)    S(metal)    S(lipo)     H(rot)  DE(clash)    DE(int)     intcor
     16.04     -18.06       2.62        0.00      75.62       1.96       0.24       1.78       ----

> <Gold.Chemscore.Fitness>
16.0356

> <Gold.Chemscore.DG>
-18.0590

> <Gold.Chemscore.ZeroCoef>
-5.4800

> <Gold.Chemscore.Hbond>
2.6205

> <Gold.Chemscore.Metal>
0.0000

> <Gold.Chemscore.Lipo>
75.6237

> <Gold.Chemscore.Internal_Hbond>
0.0000

> <Gold.Chemscore.DEClash>
0.2424

> <Gold.Chemscore.DEInternal>
1.7810

> <Gold.Chemscore.Rot>
1.9615

> <Gold.Chemscore.Internal.Correction>
   9.000000E+99

> <Gold.Chemscore.Hbonds>
donor molecule, donor type, donor heavy atom, donor atom, acceptor molecule, acceptor atom, score
      P1  H  6896  6909       L1     1  0.12
      P1  H  7997  8010       L1     9  0.92
      P1  H 10752 10765       L1     4  0.77

> <Gold.Chemscore.Hbond.Weighted>
-8.7524

> <Gold.Chemscore.Metal.Weighted>
-0.0000

> <Gold.Chemscore.Lipo.Weighted>
-8.8480

> <Gold.Chemscore.Internal_Hbond.Weighted>
0.0000

> <Gold.Chemscore.DEClash.Weighted>
0.2424

> <Gold.Chemscore.DEInternal.Weighted>
1.7810

> <Gold.Chemscore.Rot.Weighted>
5.0214

> <Gold.Chemscore.Internal.Correction.Weighted>
   9.000000E+99

> <Gold.Protein.RotatedTorsions>
[ 6907 6896 6895 6894 ] final   10.73 input  -60.11 | X-H torsion
[ 7974 7965 7964 7962 ] final   44.92 input  175.53 | X-H torsion
[ 8008 7997 7996 7995 ] final   52.77 input   59.86 | X-H torsion
[ 10167 10162 10161 10158 ] final  152.77 input  -65.29 | X-H torsion
[ 10718 10713 10712 10709 ] final  -28.08 input   66.30 | X-H torsion
[ 10763 10752 10751 10750 ] final  163.14 input  -60.55 | X-H torsion
[ 11005 11000 10999 10996 ] final -174.19 input  -57.11 | X-H torsion

> <Gold.Protein.ActiveResidues>
 VAL166  LYS551  ARG553  GLY616  TRP617  ASP618  TYR619  PRO620  LYS621  CYS622 
 ASP623  PHE694  ASN695  SER759  ASP760  ASP761  ALA762  ILE779  LEU786  VAL792 
 PHE793  MET794  SER795  GLU796  ALA797  LYS798  CYS799  TRP800  GLU811  SER814 

> <Gold.Protein.RotatedAtoms>
  151.7430  135.0850  160.0318 H   0  0  0  0  0  0  0  0  0  0  0  0  # atno 6907 bound_to 6896
  152.3467  133.6126  159.5923 H   0  0  0  0  0  0  0  0  0  0  0  0  # atno 6908 bound_to 6896
  150.7513  133.9554  159.3540 H   0  0  0  0  0  0  0  0  0  0  0  0  # atno 6909 bound_to 6896
  146.0526  139.5021  142.9709 H   0  0  0  0  0  0  0  0  0  0  0  0  # atno 7974 bound_to 7965
  155.4572  140.3460  155.4308 H   0  0  0  0  0  0  0  0  0  0  0  0  # atno 8008 bound_to 7997
  156.1183  140.1480  156.9270 H   0  0  0  0  0  0  0  0  0  0  0  0  # atno 8009 bound_to 7997
  154.4805  140.0871  156.7345 H   0  0  0  0  0  0  0  0  0  0  0  0  # atno 8010 bound_to 7997
  139.4831  144.5330  151.7692 H   0  0  0  0  0  0  0  0  0  0  0  0  # atno 10167 bound_to 10162
  156.4299  130.4443  149.7125 H   0  0  0  0  0  0  0  0  0  0  0  0  # atno 10718 bound_to 10713
  154.2891  135.2761  155.2663 H   0  0  0  0  0  0  0  0  0  0  0  0  # atno 10763 bound_to 10752
  154.5150  135.5772  153.6638 H   0  0  0  0  0  0  0  0  0  0  0  0  # atno 10764 bound_to 10752
  152.9917  135.6190  154.3054 H   0  0  0  0  0  0  0  0  0  0  0  0  # atno 10765 bound_to 10752
  140.4773  134.6108  157.4906 H   0  0  0  0  0  0  0  0  0  0  0  0  # atno 11005 bound_to 11000
  145.6699  141.0219  143.1663 LP  0  0  0  0  0  0  0  0  0  0  0  0  # atno 17320 bound_to 7965
  144.7130  139.8298  143.7408 LP  0  0  0  0  0  0  0  0  0  0  0  0  # atno 17321 bound_to 7965
  140.4859  144.1382  150.5941 LP  0  0  0  0  0  0  0  0  0  0  0  0  # atno 17342 bound_to 10162
  140.4226  143.2604  151.9696 LP  0  0  0  0  0  0  0  0  0  0  0  0  # atno 17343 bound_to 10162
  156.4032  130.7685  151.2694 LP  0  0  0  0  0  0  0  0  0  0  0  0  # atno 17370 bound_to 10713
  157.7508  131.0233  150.3830 LP  0  0  0  0  0  0  0  0  0  0  0  0  # atno 17371 bound_to 10713
  139.9848  134.7079  155.9794 LP  0  0  0  0  0  0  0  0  0  0  0  0  # atno 17394 bound_to 11000
  141.1548  133.6544  156.4126 LP  0  0  0  0  0  0  0  0  0  0  0  0  # atno 17395 bound_to 11000

$$$$
