AV-unprocessed.smi:784|AV-procd|sdf|3718|dock5
  -GOLD-   22720 1143D 1   1.00000     0.00000
 Structure written by MMmdl.
 38 39  0  0  0  0  0  0  0  0  1 V2000
  145.2367  144.1633  153.4871 C   0  0  0  0  0  0  0  0  0  0  0  0
  145.8790  143.2874  154.5217 C   0  0  0  0  0  0  0  0  0  0  0  0
  146.9193  142.3333  154.3507 C   0  0  0  0  0  0  0  0  0  0  0  0
  147.1137  141.8396  155.6093 C   0  0  0  0  0  0  0  0  0  0  0  0
  148.0448  140.8185  156.1682 C   0  0  0  0  0  0  0  0  0  0  0  0
  149.7558  141.1646  155.5772 S   0  0  0  0  0  0  0  0  0  0  0  0
  150.6552  140.1459  156.1398 O   0  0  0  0  0  0  0  0  0  0  0  0
  149.7204  141.3980  154.1253 O   0  0  0  0  0  0  0  0  0  0  0  0
  150.1344  142.6631  156.3439 N   0  0  0  0  0  0  0  0  0  0  0  0
  151.2687  142.7826  157.2633 C   0  0  0  0  0  0  0  0  0  0  0  0
  151.0410  141.8409  158.4628 C   0  0  0  0  0  0  0  0  0  0  0  0
  152.3067  141.6274  159.3097 C   0  0  0  0  0  0  0  0  0  0  0  0
  152.5475  142.6688  160.4169 C   0  0  0  0  0  0  0  0  0  0  0  0
  152.2325  144.1338  160.0655 C   0  0  0  0  0  0  0  0  0  0  0  0
  152.5820  144.5583  158.6298 C   0  0  0  0  0  0  0  0  0  0  0  0
  151.4496  144.2669  157.6304 C   0  0  0  0  0  0  0  0  0  0  0  0
  146.2631  142.4360  156.4834 O   0  0  0  0  0  0  0  0  0  0  0  0
  145.4802  143.3584  155.7808 N   0  0  0  0  0  0  0  0  0  0  0  0
  145.4544  143.8070  152.4802 H   0  0  0  0  0  0  0  0  0  0  0  0
  145.6013  145.1878  153.5624 H   0  0  0  0  0  0  0  0  0  0  0  0
  144.1525  144.1847  153.6027 H   0  0  0  0  0  0  0  0  0  0  0  0
  147.4441  142.0586  153.4480 H   0  0  0  0  0  0  0  0  0  0  0  0
  148.0356  140.8422  157.2577 H   0  0  0  0  0  0  0  0  0  0  0  0
  147.7600  139.8171  155.8464 H   0  0  0  0  0  0  0  0  0  0  0  0
  149.9192  143.4939  155.7929 H   0  0  0  0  0  0  0  0  0  0  0  0
  152.1641  142.4488  156.7374 H   0  0  0  0  0  0  0  0  0  0  0  0
  150.2108  142.1826  159.0822 H   0  0  0  0  0  0  0  0  0  0  0  0
  150.7410  140.8663  158.0740 H   0  0  0  0  0  0  0  0  0  0  0  0
  152.2537  140.6458  159.7819 H   0  0  0  0  0  0  0  0  0  0  0  0
  153.1778  141.5805  158.6553 H   0  0  0  0  0  0  0  0  0  0  0  0
  151.9613  142.3979  161.2957 H   0  0  0  0  0  0  0  0  0  0  0  0
  153.5898  142.5938  160.7288 H   0  0  0  0  0  0  0  0  0  0  0  0
  151.1776  144.3358  160.2558 H   0  0  0  0  0  0  0  0  0  0  0  0
  152.7748  144.7703  160.7656 H   0  0  0  0  0  0  0  0  0  0  0  0
  152.7493  145.6359  158.6315 H   0  0  0  0  0  0  0  0  0  0  0  0
  153.5220  144.1120  158.3035 H   0  0  0  0  0  0  0  0  0  0  0  0
  151.6525  144.8246  156.7152 H   0  0  0  0  0  0  0  0  0  0  0  0
  150.5132  144.6707  158.0175 H   0  0  0  0  0  0  0  0  0  0  0  0
  1  2  1  0  0  0  0
  1 19  1  0  0  0  0
  1 20  1  0  0  0  0
  1 21  1  0  0  0  0
  2 18  2  0  0  0  0
  2  3  1  0  0  0  0
  3  4  2  0  0  0  0
  3 22  1  0  0  0  0
  4  5  1  0  0  0  0
  4 17  1  0  0  0  0
  5  6  1  0  0  0  0
  5 23  1  0  0  0  0
  5 24  1  0  0  0  0
  6  7  2  0  0  0  0
  6  8  2  0  0  0  0
  6  9  1  0  0  0  0
  9 10  1  0  0  0  0
  9 25  1  0  0  0  0
 10 16  1  0  0  0  0
 10 11  1  0  0  0  0
 10 26  1  0  0  0  0
 11 12  1  0  0  0  0
 11 27  1  0  0  0  0
 11 28  1  0  0  0  0
 12 13  1  0  0  0  0
 12 29  1  0  0  0  0
 12 30  1  0  0  0  0
 13 14  1  0  0  0  0
 13 31  1  0  0  0  0
 13 32  1  0  0  0  0
 14 15  1  0  0  0  0
 14 33  1  0  0  0  0
 14 34  1  0  0  0  0
 15 16  1  0  0  0  0
 15 35  1  0  0  0  0
 15 36  1  0  0  0  0
 16 37  1  0  0  0  0
 16 38  1  0  0  0  0
 17 18  1  0  0  0  0
M  END
> <s_m_source_file>
AV-unprocessed.smi

> <i_m_source_file_index>
784

> <i_lp_mmshare_version>
43012

> <i_f3d_flags>
0

> <s_epik_input>
W0NIM11jMVtjSF1jKG9uMSlbQ0gyXVMoPU8pKD1PKVtOSF1bQ0hdMltDSDJdW0NIMl1bQ0gyXVtDSDJdW0NIMl1bQ0gyXTI=

> <s_epik_cmdline>
J2VwaWtfcHl0aG9uJywgJy1waCcsICc3LjAnLCAnLXRuJywgJzgnLCAnLW1hJywgJzIwMCcsICctbWV0YWxfYmluZGluZycsICctaW1hZScsICc8aW5maWxlLm1hZT4nLCAnLW9tYWUnLCAnPG91dGZpbGUubWFlPic=

> <r_lp_tautomer_probability>
1

> <r_epik_Ionization_Penalty>
4.92328e-05

> <r_epik_Ionization_Penalty_Charging>
0

> <r_epik_Ionization_Penalty_Neutral>
4.92328e-05

> <r_epik_State_Penalty>
-0

> <r_epik_Charging_Adjusted_Penalty>
0

> <i_epik_Tot_Q>
0

> <i_epik_Tot_abs_Q>
0

> <r_epik_Metal_State_Penalty>
0.0438012

> <b_epik_Metal_Only>
0

> <s_lp_Force_Field>
OPLS_2005

> <r_lp_Energy>
5.5121

> <b_lp_Chiralities_Consistent>
1

> <s_lp_Variant>
AV-unprocessed.smi:784-1

> <Gold.Version>
5.8.1

> <Gold.Id.Protein>
6NUR|6NUR_protein|mol2

> <Gold.PLP.Fitness>
45.1109

> <Gold.PLP.PLP>
-39.9301

> <Gold.PLP.part.hbond>
-2.9798

> <Gold.PLP.part.metal>
0.0000

> <Gold.PLP.part.buried>
-3.9182

> <Gold.PLP.part.nonpolar>
-34.4135

> <Gold.PLP.part.repulsive>
0.5847

> <Gold.PLP.ligand.clash>
0.0000

> <Gold.PLP.ligand.torsion>
0.7723

> <Gold.PLP.Chemscore.Hbond>
1.8716

> <Gold.PLP.Chemscore.CHOScore>
0.0000

> <Gold.PLP.Chemscore.Metal>
0.0000

> <Gold.Chemscore.Hbonds>
donor molecule, donor type, donor heavy atom, donor atom, acceptor molecule, acceptor atom, score
      L1  H     9    25       P1  8028  0.88
      P1  H  7989  7998       L1     8  0.29
      P1  H  8011  8017       L1     8  0.61

> <Gold.PLP.Chemscore.Internal.Correction>
1.1107

> <Gold.Rescore>
     Score         DG    S(hbond)    S(metal)    S(lipo)     H(rot)  DE(clash)    DE(int)     intcor
     17.44     -19.57       1.59        0.00     105.10       1.37       0.38       1.75       ----

> <Gold.Chemscore.Fitness>
17.4420

> <Gold.Chemscore.DG>
-19.5735

> <Gold.Chemscore.ZeroCoef>
-5.4800

> <Gold.Chemscore.Hbond>
1.5909

> <Gold.Chemscore.Metal>
0.0000

> <Gold.Chemscore.Lipo>
105.0993

> <Gold.Chemscore.Internal_Hbond>
0.0000

> <Gold.Chemscore.DEClash>
0.3781

> <Gold.Chemscore.DEInternal>
1.7534

> <Gold.Chemscore.Rot>
1.3738

> <Gold.Chemscore.Internal.Correction>
   9.000000E+99

> <Gold.Chemscore.Hbonds>
donor molecule, donor type, donor heavy atom, donor atom, acceptor molecule, acceptor atom, score
      L1  H     9    25       P1  8028  0.85
      P1  H  7989  7998       L1     8  0.14
      P1  H  8011  8017       L1     8  0.58

> <Gold.Chemscore.Hbond.Weighted>
-5.3137

> <Gold.Chemscore.Metal.Weighted>
-0.0000

> <Gold.Chemscore.Lipo.Weighted>
-12.2966

> <Gold.Chemscore.Internal_Hbond.Weighted>
0.0000

> <Gold.Chemscore.DEClash.Weighted>
0.3781

> <Gold.Chemscore.DEInternal.Weighted>
1.7534

> <Gold.Chemscore.Rot.Weighted>
3.5168

> <Gold.Chemscore.Internal.Correction.Weighted>
   9.000000E+99

> <Gold.Protein.RotatedTorsions>
[ 6907 6896 6895 6894 ] final   86.51 input  -60.11 | X-H torsion
[ 7974 7965 7964 7962 ] final -179.15 input  175.53 | X-H torsion
[ 8008 7997 7996 7995 ] final   61.11 input   59.86 | X-H torsion
[ 10167 10162 10161 10158 ] final  157.83 input  -65.29 | X-H torsion
[ 10718 10713 10712 10709 ] final   12.29 input   66.30 | X-H torsion
[ 10763 10752 10751 10750 ] final   84.97 input  -60.55 | X-H torsion
[ 11005 11000 10999 10996 ] final   83.21 input  -57.11 | X-H torsion

> <Gold.Protein.ActiveResidues>
 VAL166  LYS551  ARG553  GLY616  TRP617  ASP618  TYR619  PRO620  LYS621  CYS622 
 ASP623  PHE694  ASN695  SER759  ASP760  ASP761  ALA762  ILE779  LEU786  VAL792 
 PHE793  MET794  SER795  GLU796  ALA797  LYS798  CYS799  TRP800  GLU811  SER814 

> <Gold.Protein.RotatedAtoms>
  152.5395  134.2420  159.8865 H   0  0  0  0  0  0  0  0  0  0  0  0  # atno 6907 bound_to 6896
  151.2387  133.4404  159.2614 H   0  0  0  0  0  0  0  0  0  0  0  0  # atno 6908 bound_to 6896
  151.0647  134.9773  159.8334 H   0  0  0  0  0  0  0  0  0  0  0  0  # atno 6909 bound_to 6896
  144.7135  140.0761  143.6427 H   0  0  0  0  0  0  0  0  0  0  0  0  # atno 7974 bound_to 7965
  155.5932  140.3493  155.4572 H   0  0  0  0  0  0  0  0  0  0  0  0  # atno 8008 bound_to 7997
  156.0285  140.1269  157.0307 H   0  0  0  0  0  0  0  0  0  0  0  0  # atno 8009 bound_to 7997
  154.4343  140.1048  156.6052 H   0  0  0  0  0  0  0  0  0  0  0  0  # atno 8010 bound_to 7997
  139.4824  144.4881  151.8348 H   0  0  0  0  0  0  0  0  0  0  0  0  # atno 10167 bound_to 10162
  157.0079  130.6105  149.5704 H   0  0  0  0  0  0  0  0  0  0  0  0  # atno 10718 bound_to 10713
  153.1431  135.4634  154.9526 H   0  0  0  0  0  0  0  0  0  0  0  0  # atno 10763 bound_to 10752
  154.7764  135.3174  154.8086 H   0  0  0  0  0  0  0  0  0  0  0  0  # atno 10764 bound_to 10752
  153.8605  135.6913  153.4837 H   0  0  0  0  0  0  0  0  0  0  0  0  # atno 10765 bound_to 10752
  139.9038  134.8128  156.2279 H   0  0  0  0  0  0  0  0  0  0  0  0  # atno 11005 bound_to 11000
  145.9742  139.2892  143.1081 LP  0  0  0  0  0  0  0  0  0  0  0  0  # atno 17320 bound_to 7965
  145.9083  140.9197  143.0467 LP  0  0  0  0  0  0  0  0  0  0  0  0  # atno 17321 bound_to 7965
  140.4363  144.2047  150.5889 LP  0  0  0  0  0  0  0  0  0  0  0  0  # atno 17342 bound_to 10162
  140.4728  143.2406  151.9064 LP  0  0  0  0  0  0  0  0  0  0  0  0  # atno 17343 bound_to 10162
  156.0147  130.5240  150.8097 LP  0  0  0  0  0  0  0  0  0  0  0  0  # atno 17370 bound_to 10713
  157.5342  131.0938  150.9914 LP  0  0  0  0  0  0  0  0  0  0  0  0  # atno 17371 bound_to 10713
  141.0364  133.6961  156.1520 LP  0  0  0  0  0  0  0  0  0  0  0  0  # atno 17394 bound_to 11000
  140.7020  134.4553  157.5586 LP  0  0  0  0  0  0  0  0  0  0  0  0  # atno 17395 bound_to 11000

$$$$
