AV-unprocessed.smi:2453|AV-procd|sdf|9691|dock8
  -GOLD-   2272013333D 1   1.00000     0.00000
 Structure written by MMmdl.
 41 42  0  0  0  0  0  0  0  0  2 V2000
  146.7850  133.6002  150.9436 C   0  0  0  0  0  0  0  0  0  0  0  0
  145.3873  133.9224  151.4434 C   0  0  0  0  0  0  0  0  0  0  0  0
  144.3254  133.0363  151.1584 C   0  0  0  0  0  0  0  0  0  0  0  0
  143.0790  133.3071  151.5994 N   0  3  0  0  0  0  0  0  0  0  0  0
  142.7837  134.4076  152.3217 C   0  0  0  0  0  0  0  0  0  0  0  0
  143.7981  135.3322  152.6400 C   0  0  0  0  0  0  0  0  0  0  0  0
  145.1228  135.1012  152.1875 C   0  0  0  0  0  0  0  0  0  0  0  0
  146.2057  135.9750  152.4897 N   0  0  0  0  0  0  0  0  0  0  0  0
  146.2006  137.0872  153.2447 C   0  0  0  0  0  0  0  0  0  0  0  0
  145.2050  137.5782  153.7761 O   0  0  0  0  0  0  0  0  0  0  0  0
  147.4310  137.6130  153.3371 N   0  0  0  0  0  0  0  0  0  0  0  0
  147.7976  138.8154  154.0853 C   0  0  2  0  0  0  0  0  0  0  0  0
  147.0782  140.0248  153.4548 C   0  0  0  0  0  0  0  0  0  0  0  0
  147.4681  141.3412  154.1400 C   0  0  0  0  0  0  0  0  0  0  0  0
  148.9885  141.5385  154.1129 C   0  0  0  0  0  0  0  0  0  0  0  0
  149.7083  140.3487  154.7638 C   0  0  0  0  0  0  0  0  0  0  0  0
  149.3381  139.0042  154.0965 C   0  0  1  0  0  0  0  0  0  0  0  0
  150.0636  137.8277  154.7878 C   0  0  0  0  0  0  0  0  0  0  0  0
  149.5215  136.5897  154.3779 O   0  0  0  0  0  0  0  0  0  0  0  0
  146.8000  132.6651  150.3827 H   0  0  0  0  0  0  0  0  0  0  0  0
  147.4760  133.5015  151.7811 H   0  0  0  0  0  0  0  0  0  0  0  0
  147.1469  134.3922  150.2873 H   0  0  0  0  0  0  0  0  0  0  0  0
  144.4340  132.1204  150.5953 H   0  0  0  0  0  0  0  0  0  0  0  0
  141.7532  134.5121  152.6287 H   0  0  0  0  0  0  0  0  0  0  0  0
  143.5426  136.1937  153.2376 H   0  0  0  0  0  0  0  0  0  0  0  0
  147.0800  135.7518  152.0373 H   0  0  0  0  0  0  0  0  0  0  0  0
  148.1834  137.1403  152.8577 H   0  0  0  0  0  0  0  0  0  0  0  0
  147.4647  138.7322  155.1215 H   0  0  0  0  0  0  0  0  0  0  0  0
  147.3212  140.0876  152.3929 H   0  0  0  0  0  0  0  0  0  0  0  0
  145.9975  139.8894  153.5156 H   0  0  0  0  0  0  0  0  0  0  0  0
  146.9744  142.1789  153.6466 H   0  0  0  0  0  0  0  0  0  0  0  0
  147.1154  141.3369  155.1721 H   0  0  0  0  0  0  0  0  0  0  0  0
  149.3270  141.6534  153.0824 H   0  0  0  0  0  0  0  0  0  0  0  0
  149.2531  142.4610  154.6305 H   0  0  0  0  0  0  0  0  0  0  0  0
  150.7848  140.5134  154.7098 H   0  0  0  0  0  0  0  0  0  0  0  0
  149.4576  140.3125  155.8247 H   0  0  0  0  0  0  0  0  0  0  0  0
  149.6743  139.0418  153.0584 H   0  0  0  0  0  0  0  0  0  0  0  0
  151.1307  137.8467  154.5640 H   0  0  0  0  0  0  0  0  0  0  0  0
  149.9646  137.8818  155.8715 H   0  0  0  0  0  0  0  0  0  0  0  0
  149.4080  136.6069  153.4398 H   0  0  0  0  0  0  0  0  0  0  0  0
  142.3295  132.6494  151.3827 H   0  0  0  0  0  0  0  0  0  0  0  0
  1  2  1  0  0  0  0
  1 20  1  0  0  0  0
  1 21  1  0  0  0  0
  1 22  1  0  0  0  0
  2  7  1  0  0  0  0
  2  3  2  0  0  0  0
  3  4  1  0  0  0  0
  3 23  1  0  0  0  0
  4  5  2  0  0  0  0
  4 41  1  0  0  0  0
  5  6  1  0  0  0  0
  5 24  1  0  0  0  0
  6  7  2  0  0  0  0
  6 25  1  0  0  0  0
  7  8  1  0  0  0  0
  8  9  1  0  0  0  0
  8 26  1  0  0  0  0
  9 10  2  0  0  0  0
  9 11  1  0  0  0  0
 11 12  1  0  0  0  0
 11 27  1  0  0  0  0
 12 17  1  0  0  0  0
 12 13  1  0  0  0  0
 12 28  1  0  0  0  0
 13 14  1  0  0  0  0
 13 29  1  0  0  0  0
 13 30  1  0  0  0  0
 14 15  1  0  0  0  0
 14 31  1  0  0  0  0
 14 32  1  0  0  0  0
 15 16  1  0  0  0  0
 15 33  1  0  0  0  0
 15 34  1  0  0  0  0
 16 17  1  0  0  0  0
 16 35  1  0  0  0  0
 16 36  1  0  0  0  0
 17 18  1  0  0  0  0
 17 37  1  0  0  0  0
 18 19  1  0  0  0  0
 18 38  1  0  0  0  0
 18 39  1  0  0  0  0
 19 40  1  0  0  0  0
M  CHG  1   4   1
M  END
> <s_m_source_file>
AV-unprocessed.smi

> <i_m_source_file_index>
2453

> <i_lp_mmshare_version>
43012

> <i_f3d_flags>
0

> <s_epik_input>
W0NIM11jMVtjSF1uW2NIXVtjSF1jMVtOSF1DKD1PKVtOSF1bQ0BASF0yW0NIMl1bQ0gyXVtDSDJdW0NIMl1bQ0BIXTJbQ0gyXVtPSF0=

> <s_epik_cmdline>
J2VwaWtfcHl0aG9uJywgJy1waCcsICc3LjAnLCAnLXRuJywgJzgnLCAnLW1hJywgJzIwMCcsICctbWV0YWxfYmluZGluZycsICctaW1hZScsICc8aW5maWxlLm1hZT4nLCAnLW9tYWUnLCAnPG91dGZpbGUubWFlPic=

> <r_epik_Ionization_Penalty>
0.71493

> <r_epik_Ionization_Penalty_Charging>
0.714909

> <r_epik_Ionization_Penalty_Neutral>
2.10174e-05

> <r_epik_State_Penalty>
0.738815

> <r_epik_Charging_Adjusted_Penalty>
1.45372

> <i_epik_Tot_Q>
1

> <i_epik_Tot_abs_Q>
1

> <r_epik_Metal_State_Penalty>
0.896004

> <b_epik_Metal_Only>
0

> <s_lp_Force_Field>
OPLS_2005

> <r_lp_Energy>
24.2673

> <b_lp_Chiralities_Consistent>
1

> <s_lp_Variant>
AV-unprocessed.smi:2453-5

> <Gold.Version>
5.8.1

> <Gold.Id.Protein>
6NUR|6NUR_protein|mol2

> <Gold.PLP.Fitness>
39.5571

> <Gold.PLP.PLP>
-30.9896

> <Gold.PLP.part.hbond>
-3.7826

> <Gold.PLP.part.metal>
0.0000

> <Gold.PLP.part.buried>
-1.5373

> <Gold.PLP.part.nonpolar>
-24.1714

> <Gold.PLP.part.repulsive>
0.1844

> <Gold.PLP.ligand.clash>
0.0000

> <Gold.PLP.ligand.torsion>
0.1370

> <Gold.PLP.Chemscore.Hbond>
2.9440

> <Gold.PLP.Chemscore.CHOScore>
0.0000

> <Gold.PLP.Chemscore.Metal>
0.0000

> <Gold.Chemscore.Hbonds>
donor molecule, donor type, donor heavy atom, donor atom, acceptor molecule, acceptor atom, score
      L1  H     8    26       P1  7948  0.93
      L1  H    11    27       P1  7948  1.00
      L1  H    19    40       P1  7948  1.00

> <Gold.PLP.Chemscore.Internal.Correction>
0.0095

> <Gold.Rescore>
     Score         DG    S(hbond)    S(metal)    S(lipo)     H(rot)  DE(clash)    DE(int)     intcor
     15.85     -19.47       2.86        0.00      76.64       1.77       0.38       3.25       ----

> <Gold.Chemscore.Fitness>
15.8452

> <Gold.Chemscore.DG>
-19.4730

> <Gold.Chemscore.ZeroCoef>
-5.4800

> <Gold.Chemscore.Hbond>
2.8647

> <Gold.Chemscore.Metal>
0.0000

> <Gold.Chemscore.Lipo>
76.6412

> <Gold.Chemscore.Internal_Hbond>
0.0000

> <Gold.Chemscore.DEClash>
0.3767

> <Gold.Chemscore.DEInternal>
3.2511

> <Gold.Chemscore.Rot>
1.7742

> <Gold.Chemscore.Internal.Correction>
   9.000000E+99

> <Gold.Chemscore.Hbonds>
donor molecule, donor type, donor heavy atom, donor atom, acceptor molecule, acceptor atom, score
      L1  H     8    26       P1  7948  0.91
      L1  H    11    27       P1  7948  0.95
      L1  H    19    40       P1  7948  0.85

> <Gold.Chemscore.Hbond.Weighted>
-9.5679

> <Gold.Chemscore.Metal.Weighted>
-0.0000

> <Gold.Chemscore.Lipo.Weighted>
-8.9670

> <Gold.Chemscore.Internal_Hbond.Weighted>
0.0000

> <Gold.Chemscore.DEClash.Weighted>
0.3767

> <Gold.Chemscore.DEInternal.Weighted>
3.2511

> <Gold.Chemscore.Rot.Weighted>
4.5419

> <Gold.Chemscore.Internal.Correction.Weighted>
   9.000000E+99

> <Gold.Protein.RotatedTorsions>
[ 6907 6896 6895 6894 ] final   36.75 input  -60.11 | X-H torsion
[ 7974 7965 7964 7962 ] final  106.17 input  175.53 | X-H torsion
[ 8008 7997 7996 7995 ] final -137.03 input   59.86 | X-H torsion
[ 10167 10162 10161 10158 ] final   97.78 input  -65.29 | X-H torsion
[ 10718 10713 10712 10709 ] final  161.02 input   66.30 | X-H torsion
[ 10763 10752 10751 10750 ] final  -75.78 input  -60.55 | X-H torsion
[ 11005 11000 10999 10996 ] final  -52.81 input  -57.11 | X-H torsion

> <Gold.Protein.ActiveResidues>
 VAL166  LYS551  ARG553  GLY616  TRP617  ASP618  TYR619  PRO620  LYS621  CYS622 
 ASP623  PHE694  ASN695  SER759  ASP760  ASP761  ALA762  ILE779  LEU786  VAL792 
 PHE793  MET794  SER795  GLU796  ALA797  LYS798  CYS799  TRP800  GLU811  SER814 

> <Gold.Protein.RotatedAtoms>
  152.1339  134.9114  160.0557 H   0  0  0  0  0  0  0  0  0  0  0  0  # atno 6907 bound_to 6896
  152.0207  133.3893  159.4265 H   0  0  0  0  0  0  0  0  0  0  0  0  # atno 6908 bound_to 6896
  150.6859  134.3550  159.4969 H   0  0  0  0  0  0  0  0  0  0  0  0  # atno 6909 bound_to 6896
  145.3101  139.2543  143.3768 H   0  0  0  0  0  0  0  0  0  0  0  0  # atno 7974 bound_to 7965
  155.4050  140.0508  157.3035 H   0  0  0  0  0  0  0  0  0  0  0  0  # atno 8008 bound_to 7997
  154.4973  140.2143  155.9380 H   0  0  0  0  0  0  0  0  0  0  0  0  # atno 8009 bound_to 7997
  156.1422  140.3152  155.8518 H   0  0  0  0  0  0  0  0  0  0  0  0  # atno 8010 bound_to 7997
  139.7769  144.6902  151.0077 H   0  0  0  0  0  0  0  0  0  0  0  0  # atno 10167 bound_to 10162
  157.1423  131.0543  151.2321 H   0  0  0  0  0  0  0  0  0  0  0  0  # atno 10718 bound_to 10713
  154.4911  135.5819  153.6460 H   0  0  0  0  0  0  0  0  0  0  0  0  # atno 10763 bound_to 10752
  152.9862  135.6113  154.3123 H   0  0  0  0  0  0  0  0  0  0  0  0  # atno 10764 bound_to 10752
  154.3023  135.2846  155.2584 H   0  0  0  0  0  0  0  0  0  0  0  0  # atno 10765 bound_to 10752
  141.0944  133.6627  156.4080 H   0  0  0  0  0  0  0  0  0  0  0  0  # atno 11005 bound_to 11000
  146.3121  140.3635  142.8667 LP  0  0  0  0  0  0  0  0  0  0  0  0  # atno 17320 bound_to 7965
  144.9023  140.7657  143.5859 LP  0  0  0  0  0  0  0  0  0  0  0  0  # atno 17321 bound_to 7965
  140.7817  143.4526  151.0391 LP  0  0  0  0  0  0  0  0  0  0  0  0  # atno 17342 bound_to 10162
  139.8208  143.7823  152.3176 LP  0  0  0  0  0  0  0  0  0  0  0  0  # atno 17343 bound_to 10162
  157.4296  130.7483  149.6979 LP  0  0  0  0  0  0  0  0  0  0  0  0  # atno 17370 bound_to 10713
  155.9786  130.4049  150.3637 LP  0  0  0  0  0  0  0  0  0  0  0  0  # atno 17371 bound_to 10713
  140.5176  134.6335  157.5306 LP  0  0  0  0  0  0  0  0  0  0  0  0  # atno 17394 bound_to 11000
  139.9777  134.7188  155.9919 LP  0  0  0  0  0  0  0  0  0  0  0  0  # atno 17395 bound_to 11000

$$$$
