AV-unprocessed.smi:34|AV-procd|sdf|231|dock3
  -GOLD-   2262015563D 1   1.00000     0.00000
 Structure written by MMmdl.
 54 58  0  0  0  0  0  0  0  0  2 V2000
  152.6321  139.7907  158.4524 O   0  0  0  0  0  0  0  0  0  0  0  0
  152.1318  140.7586  157.8754 C   0  0  0  0  0  0  0  0  0  0  0  0
  151.6278  140.8098  156.6166 N   0  5  0  0  0  0  0  0  0  0  0  0
  151.0457  139.7253  156.0829 C   0  0  0  0  0  0  0  0  0  0  0  0
  151.3537  139.3295  154.8213 N   0  0  0  0  0  0  0  0  0  0  0  0
  150.7635  138.2536  154.2870 C   0  0  0  0  0  0  0  0  0  0  0  0
  149.8452  137.4441  154.8247 N   0  0  0  0  0  0  0  0  0  0  0  0
  149.5204  137.8387  156.0902 C   0  0  0  0  0  0  0  0  0  0  0  0
  150.0722  138.9577  156.7787 C   0  0  0  0  0  0  0  0  0  0  0  0
  149.5213  139.0749  158.0456 N   0  0  0  0  0  0  0  0  0  0  0  0
  148.6769  138.0461  158.0675 C   0  0  0  0  0  0  0  0  0  0  0  0
  148.6121  137.2692  156.9652 N   0  0  0  0  0  0  0  0  0  0  0  0
  147.7635  136.0654  156.6994 C   0  0  2  0  0  0  0  0  0  0  0  0
  148.6130  134.9992  156.3872 O   0  0  0  0  0  0  0  0  0  0  0  0
  148.5601  134.7370  154.9877 C   0  0  1  0  0  0  0  0  0  0  0  0
  149.0103  133.3036  154.6833 C   0  0  0  0  0  0  0  0  0  0  0  0
  148.4918  132.9256  153.4188 O   0  0  0  0  0  0  0  0  0  0  0  0
  147.5926  131.9282  153.3255 C   0  0  0  0  0  0  0  0  0  0  0  0
  147.5487  130.9745  154.1048 O   0  0  0  0  0  0  0  0  0  0  0  0
  146.6536  132.1006  152.1793 C   0  0  0  0  0  0  0  0  0  0  0  0
  145.7585  131.0553  151.8526 C   0  0  0  0  0  0  0  0  0  0  0  0
  144.8633  131.1884  150.7733 C   0  0  0  0  0  0  0  0  0  0  0  0
  144.8526  132.3681  150.0069 C   0  0  0  0  0  0  0  0  0  0  0  0
  145.7382  133.4152  150.3215 C   0  0  0  0  0  0  0  0  0  0  0  0
  146.6339  133.2842  151.4005 C   0  0  0  0  0  0  0  0  0  0  0  0
  147.0982  135.0336  154.6641 C   0  0  1  0  0  0  0  0  0  0  0  0
  146.3426  134.0296  155.1203 F   0  0  0  0  0  0  0  0  0  0  0  0
  146.8644  136.3008  155.4742 C   0  0  1  0  0  0  0  0  0  0  0  0
  145.4962  136.4508  155.7940 O   0  0  0  0  0  0  0  0  0  0  0  0
  152.1053  142.0887  158.5787 C   0  0  0  0  0  0  0  0  0  0  0  0
  152.0009  143.2790  157.8234 C   0  0  0  0  0  0  0  0  0  0  0  0
  151.9991  144.5345  158.4618 C   0  0  0  0  0  0  0  0  0  0  0  0
  152.1124  144.6138  159.8624 C   0  0  0  0  0  0  0  0  0  0  0  0
  152.2315  143.4363  160.6239 C   0  0  0  0  0  0  0  0  0  0  0  0
  152.2321  142.1803  159.9864 C   0  0  0  0  0  0  0  0  0  0  0  0
  151.0698  138.0072  153.2814 H   0  0  0  0  0  0  0  0  0  0  0  0
  148.0726  137.8554  158.9403 H   0  0  0  0  0  0  0  0  0  0  0  0
  147.2269  135.8641  157.6274 H   0  0  0  0  0  0  0  0  0  0  0  0
  149.1928  135.4432  154.4496 H   0  0  0  0  0  0  0  0  0  0  0  0
  150.0987  133.2293  154.6883 H   0  0  0  0  0  0  0  0  0  0  0  0
  148.6267  132.6238  155.4453 H   0  0  0  0  0  0  0  0  0  0  0  0
  145.7486  130.1396  152.4260 H   0  0  0  0  0  0  0  0  0  0  0  0
  144.1849  130.3832  150.5328 H   0  0  0  0  0  0  0  0  0  0  0  0
  144.1667  132.4694  149.1788 H   0  0  0  0  0  0  0  0  0  0  0  0
  145.7324  134.3208  149.7332 H   0  0  0  0  0  0  0  0  0  0  0  0
  147.3018  134.1063  151.6122 H   0  0  0  0  0  0  0  0  0  0  0  0
  146.8995  135.1525  153.5987 H   0  0  0  0  0  0  0  0  0  0  0  0
  147.2138  137.1705  154.9149 H   0  0  0  0  0  0  0  0  0  0  0  0
  145.1250  135.5919  155.9273 H   0  0  0  0  0  0  0  0  0  0  0  0
  151.9153  143.2353  156.7472 H   0  0  0  0  0  0  0  0  0  0  0  0
  151.9124  145.4371  157.8755 H   0  0  0  0  0  0  0  0  0  0  0  0
  152.1120  145.5765  160.3515 H   0  0  0  0  0  0  0  0  0  0  0  0
  152.3254  143.4951  161.6982 H   0  0  0  0  0  0  0  0  0  0  0  0
  152.3349  141.2890  160.5885 H   0  0  0  0  0  0  0  0  0  0  0  0
  1  2  2  0  0  0  0
  2  3  1  0  0  0  0
  2 30  1  0  0  0  0
  3  4  1  0  0  0  0
  4  9  1  0  0  0  0
  4  5  2  0  0  0  0
  5  6  1  0  0  0  0
  6  7  2  0  0  0  0
  6 36  1  0  0  0  0
  7  8  1  0  0  0  0
  8 12  1  0  0  0  0
  8  9  2  0  0  0  0
  9 10  1  0  0  0  0
 10 11  2  0  0  0  0
 11 12  1  0  0  0  0
 11 37  1  0  0  0  0
 12 13  1  0  0  0  0
 13 28  1  0  0  0  0
 13 14  1  0  0  0  0
 13 38  1  0  0  0  0
 14 15  1  0  0  0  0
 15 16  1  0  0  0  0
 15 26  1  0  0  0  0
 15 39  1  0  0  0  0
 16 17  1  0  0  0  0
 16 40  1  0  0  0  0
 16 41  1  0  0  0  0
 17 18  1  0  0  0  0
 18 19  2  0  0  0  0
 18 20  1  0  0  0  0
 20 25  1  0  0  0  0
 20 21  2  0  0  0  0
 21 22  1  0  0  0  0
 21 42  1  0  0  0  0
 22 23  2  0  0  0  0
 22 43  1  0  0  0  0
 23 24  1  0  0  0  0
 23 44  1  0  0  0  0
 24 25  2  0  0  0  0
 24 45  1  0  0  0  0
 25 46  1  0  0  0  0
 26 27  1  0  0  0  0
 26 28  1  0  0  0  0
 26 47  1  0  0  0  0
 28 29  1  0  0  0  0
 28 48  1  0  0  0  0
 29 49  1  0  0  0  0
 30 35  1  0  0  0  0
 30 31  2  0  0  0  0
 31 32  1  0  0  0  0
 31 50  1  0  0  0  0
 32 33  2  0  0  0  0
 32 51  1  0  0  0  0
 33 34  1  0  0  0  0
 33 52  1  0  0  0  0
 34 35  2  0  0  0  0
 34 53  1  0  0  0  0
 35 54  1  0  0  0  0
M  CHG  1   3  -1
M  END
> <s_m_source_file>
AV-unprocessed.smi

> <i_m_source_file_index>
34

> <i_lp_mmshare_version>
43012

> <i_f3d_flags>
0

> <s_epik_input>
W2NIXTFbY0hdW2NIXVtjSF1bY0hdYzFDKD1PKVtOSF1jKG5bY0hdbjIpYyhjMjMpbltjSF1uM1tDQEBIXTRPW0NASF0oW0NAQEhdKEYpW0NASF00W09IXSlbQ0gyXU9DKD1PKWM1W2NIXVtjSF1bY0hdW2NIXVtjSF01

> <s_epik_cmdline>
J2VwaWtfcHl0aG9uJywgJy1waCcsICc3LjAnLCAnLXRuJywgJzgnLCAnLW1hJywgJzIwMCcsICctbWV0YWxfYmluZGluZycsICctaW1hZScsICc8aW5maWxlLm1hZT4nLCAnLW9tYWUnLCAnPG91dGZpbGUubWFlPic=

> <r_lp_tautomer_probability>
1

> <r_epik_Ionization_Penalty>
4.33227

> <r_epik_Ionization_Penalty_Charging>
3.41027

> <r_epik_Ionization_Penalty_Neutral>
0.922001

> <r_epik_State_Penalty>
3.41358

> <r_epik_Charging_Adjusted_Penalty>
6.82385

> <i_epik_Tot_Q>
-1

> <i_epik_Tot_abs_Q>
1

> <r_epik_Metal_State_Penalty>
0.496292

> <b_epik_Metal_Only>
1

> <s_epik_Chemistry_Notes>
This compound has an ester and may undergo hydrolysis at high or low pH. This compound contains an acetal/aminal-like group ( X-CH(R)-Y where X, Y are N, S, or O) that may be acid/base labile, releasing an aldehyde.

> <s_lp_Force_Field>
OPLS_2005

> <r_lp_Energy>
43.1366

> <b_lp_Chiralities_Consistent>
1

> <s_lp_Variant>
AV-unprocessed.smi:34-17

> <Gold.Version>
5.8.1

> <Gold.Id.Protein>
6NUR|6NUR_protein|mol2

> <Gold.PLP.Fitness>
60.0375

> <Gold.PLP.PLP>
-54.2207

> <Gold.PLP.part.hbond>
-2.0000

> <Gold.PLP.part.metal>
0.0000

> <Gold.PLP.part.buried>
-7.8558

> <Gold.PLP.part.nonpolar>
-44.1855

> <Gold.PLP.part.repulsive>
0.7217

> <Gold.PLP.ligand.clash>
0.0000

> <Gold.PLP.ligand.torsion>
1.7265

> <Gold.PLP.Chemscore.Hbond>
2.0000

> <Gold.PLP.Chemscore.CHOScore>
1.0000

> <Gold.PLP.Chemscore.Metal>
0.0000

> <Gold.Chemscore.Hbonds>
donor molecule, donor type, donor heavy atom, donor atom, acceptor molecule, acceptor atom, score
      P1  H  7989  7998       L1     5  0.98
      L1  C     6    36       P1  7949  0.59

> <Gold.PLP.Chemscore.Internal.Correction>
0.2697

> <Gold.Rescore>
     Score         DG    S(hbond)    S(metal)    S(lipo)     H(rot)  DE(clash)    DE(int)     intcor
     14.52     -19.84       1.70        0.00     133.05       2.69       0.44       4.87       ----

> <Gold.Chemscore.Fitness>
14.5228

> <Gold.Chemscore.DG>
-19.8394

> <Gold.Chemscore.ZeroCoef>
-5.4800

> <Gold.Chemscore.Hbond>
1.7038

> <Gold.Chemscore.Metal>
0.0000

> <Gold.Chemscore.Lipo>
133.0458

> <Gold.Chemscore.Internal_Hbond>
0.0000

> <Gold.Chemscore.DEClash>
0.4448

> <Gold.Chemscore.DEInternal>
4.8717

> <Gold.Chemscore.Rot>
2.6944

> <Gold.Chemscore.Internal.Correction>
   9.000000E+99

> <Gold.Chemscore.Hbonds>
donor molecule, donor type, donor heavy atom, donor atom, acceptor molecule, acceptor atom, score
      P1  H  7989  7998       L1     5  0.73

> <Gold.Chemscore.Hbond.Weighted>
-5.6906

> <Gold.Chemscore.Metal.Weighted>
-0.0000

> <Gold.Chemscore.Lipo.Weighted>
-15.5664

> <Gold.Chemscore.Internal_Hbond.Weighted>
0.0000

> <Gold.Chemscore.DEClash.Weighted>
0.4448

> <Gold.Chemscore.DEInternal.Weighted>
4.8717

> <Gold.Chemscore.Rot.Weighted>
6.8975

> <Gold.Chemscore.Internal.Correction.Weighted>
   9.000000E+99

> <Gold.Protein.RotatedTorsions>
[ 6907 6896 6895 6894 ] final   64.52 input  -60.11 | X-H torsion
[ 7974 7965 7964 7962 ] final -128.38 input  175.53 | X-H torsion
[ 8008 7997 7996 7995 ] final  162.52 input   59.86 | X-H torsion
[ 10167 10162 10161 10158 ] final -121.97 input  -65.29 | X-H torsion
[ 10718 10713 10712 10709 ] final   14.68 input   66.30 | X-H torsion
[ 10763 10752 10751 10750 ] final  -42.71 input  -60.55 | X-H torsion
[ 11005 11000 10999 10996 ] final  -86.09 input  -57.11 | X-H torsion

> <Gold.Protein.ActiveResidues>
 VAL166  LYS551  ARG553  GLY616  TRP617  ASP618  TYR619  PRO620  LYS621  CYS622 
 ASP623  PHE694  ASN695  SER759  ASP760  ASP761  ALA762  ILE779  LEU786  VAL792 
 PHE793  MET794  SER795  GLU796  ALA797  LYS798  CYS799  TRP800  GLU811  SER814 

> <Gold.Protein.RotatedAtoms>
  152.4338  134.5726  159.9925 H   0  0  0  0  0  0  0  0  0  0  0  0  # atno 6907 bound_to 6896
  151.5842  133.3368  159.3022 H   0  0  0  0  0  0  0  0  0  0  0  0  # atno 6908 bound_to 6896
  150.8234  134.7488  159.6856 H   0  0  0  0  0  0  0  0  0  0  0  0  # atno 6909 bound_to 6896
  144.9677  140.7513  143.4690 H   0  0  0  0  0  0  0  0  0  0  0  0  # atno 7974 bound_to 7965
  156.2025  140.1748  156.7869 H   0  0  0  0  0  0  0  0  0  0  0  0  # atno 8008 bound_to 7997
  154.5611  140.0699  156.8850 H   0  0  0  0  0  0  0  0  0  0  0  0  # atno 8009 bound_to 7997
  155.2847  140.3351  155.4258 H   0  0  0  0  0  0  0  0  0  0  0  0  # atno 8010 bound_to 7997
  140.0193  143.5360  152.2228 H   0  0  0  0  0  0  0  0  0  0  0  0  # atno 10167 bound_to 10162
  157.0427  130.6237  149.5754 H   0  0  0  0  0  0  0  0  0  0  0  0  # atno 10718 bound_to 10713
  153.9835  135.6714  153.4751 H   0  0  0  0  0  0  0  0  0  0  0  0  # atno 10763 bound_to 10752
  153.0737  135.4960  154.8356 H   0  0  0  0  0  0  0  0  0  0  0  0  # atno 10764 bound_to 10752
  154.7151  135.3105  154.9099 H   0  0  0  0  0  0  0  0  0  0  0  0  # atno 10765 bound_to 10752
  141.1634  133.7435  156.9110 H   0  0  0  0  0  0  0  0  0  0  0  0  # atno 11005 bound_to 11000
  145.2606  139.1994  143.4894 LP  0  0  0  0  0  0  0  0  0  0  0  0  # atno 17320 bound_to 7965
  146.3372  140.2535  142.8599 LP  0  0  0  0  0  0  0  0  0  0  0  0  # atno 17321 bound_to 7965
  139.6151  144.7617  151.2865 LP  0  0  0  0  0  0  0  0  0  0  0  0  # atno 17342 bound_to 10162
  140.7349  143.6752  150.8047 LP  0  0  0  0  0  0  0  0  0  0  0  0  # atno 17343 bound_to 10162
  156.0033  130.5116  150.7741 LP  0  0  0  0  0  0  0  0  0  0  0  0  # atno 17370 bound_to 10713
  157.5092  131.0924  151.0219 LP  0  0  0  0  0  0  0  0  0  0  0  0  # atno 17371 bound_to 10713
  140.1517  134.9226  157.2601 LP  0  0  0  0  0  0  0  0  0  0  0  0  # atno 17394 bound_to 11000
  140.2715  134.3454  155.7372 LP  0  0  0  0  0  0  0  0  0  0  0  0  # atno 17395 bound_to 11000

$$$$
