AV-unprocessed.smi:249|AV-procd|sdf|1906|dock4
  -GOLD-   2262020593D 1   1.00000     0.00000
 Structure written by MMmdl.
 64 67  0  0  0  0  0  0  0  0  2 V2000
  150.1537  144.6876  159.9250 C   0  0  0  0  0  0  0  0  0  0  0  0
  151.2221  144.7644  158.8219 C   0  0  0  0  0  0  0  0  0  0  0  0
  151.3772  143.4939  158.0554 N   0  3  2  0  0  0  0  0  0  0  0  0
  150.1000  143.0787  157.4073 C   0  0  0  0  0  0  0  0  0  0  0  0
  150.2839  141.8554  156.4993 C   0  0  0  0  0  0  0  0  0  0  0  0
  150.8540  140.6674  157.2924 C   0  0  1  0  0  0  0  0  0  0  0  0
  150.9912  139.4426  156.4885 N   0  0  0  0  0  0  0  0  0  0  0  0
  151.9203  139.4815  155.3648 C   0  0  0  0  0  0  0  0  0  0  0  0
  150.9953  138.2671  157.1623 C   0  0  0  0  0  0  0  0  0  0  0  0
  150.9121  138.2628  158.5190 N   0  0  0  0  0  0  0  0  0  0  0  0
  150.8423  137.1036  159.1807 C   0  0  0  0  0  0  0  0  0  0  0  0
  150.8258  135.8624  158.6901 N   0  0  0  0  0  0  0  0  0  0  0  0
  150.9302  135.8659  157.3303 C   0  0  0  0  0  0  0  0  0  0  0  0
  151.0422  137.0129  156.4975 C   0  0  0  0  0  0  0  0  0  0  0  0
  151.1487  136.6289  155.1665 N   0  0  0  0  0  0  0  0  0  0  0  0
  151.0739  135.3266  155.2065 C   0  0  0  0  0  0  0  0  0  0  0  0
  150.8989  134.7893  156.4624 N   0  0  0  0  0  0  0  0  0  0  0  0
  150.7328  133.3863  156.7907 C   0  0  0  0  0  0  0  0  0  0  0  0
  150.2891  132.4927  155.5975 C   0  0  2  0  0  0  0  0  0  0  0  0
  148.7596  132.6359  155.4033 C   0  0  0  0  0  0  0  0  0  0  0  0
  148.4003  133.9694  155.1044 O   0  0  0  0  0  0  0  0  0  0  0  0
  150.7157  130.9985  155.7485 C   0  0  1  0  0  0  0  0  0  0  0  0
  150.2833  130.0816  154.6128 C   0  0  0  0  0  0  0  0  0  0  0  0
  151.2072  128.8862  154.7880 C   0  0  0  0  0  0  0  0  0  0  0  0
  152.4541  129.4647  155.1354 O   0  0  0  0  0  0  0  0  0  0  0  0
  152.2339  130.7281  155.7558 C   0  0  0  0  0  0  0  0  0  0  0  0
  152.1627  141.1197  157.9686 C   0  0  0  0  0  0  0  0  0  0  0  0
  151.9747  142.3717  158.8504 C   0  0  1  0  0  0  0  0  0  0  0  0
  153.3375  142.7272  159.4818 C   0  0  0  0  0  0  0  0  0  0  0  0
  149.9675  145.6778  160.3421 H   0  0  0  0  0  0  0  0  0  0  0  0
  150.4557  144.0505  160.7553 H   0  0  0  0  0  0  0  0  0  0  0  0
  149.2070  144.3141  159.5337 H   0  0  0  0  0  0  0  0  0  0  0  0
  150.9043  145.5687  158.1629 H   0  0  0  0  0  0  0  0  0  0  0  0
  152.1830  145.0666  159.2410 H   0  0  0  0  0  0  0  0  0  0  0  0
  149.3537  142.8666  158.1747 H   0  0  0  0  0  0  0  0  0  0  0  0
  149.6985  143.8829  156.7936 H   0  0  0  0  0  0  0  0  0  0  0  0
  149.3239  141.5924  156.0551 H   0  0  0  0  0  0  0  0  0  0  0  0
  150.9465  142.1205  155.6749 H   0  0  0  0  0  0  0  0  0  0  0  0
  150.1460  140.4273  158.0869 H   0  0  0  0  0  0  0  0  0  0  0  0
  151.7913  138.6044  154.7292 H   0  0  0  0  0  0  0  0  0  0  0  0
  152.9567  139.5092  155.7029 H   0  0  0  0  0  0  0  0  0  0  0  0
  151.7385  140.3651  154.7526 H   0  0  0  0  0  0  0  0  0  0  0  0
  150.7737  137.1820  160.2559 H   0  0  0  0  0  0  0  0  0  0  0  0
  151.1112  134.7212  154.3125 H   0  0  0  0  0  0  0  0  0  0  0  0
  151.6740  133.0165  157.1993 H   0  0  0  0  0  0  0  0  0  0  0  0
  150.0064  133.3324  157.6021 H   0  0  0  0  0  0  0  0  0  0  0  0
  150.7594  132.8744  154.6901 H   0  0  0  0  0  0  0  0  0  0  0  0
  148.4028  132.0300  154.5716 H   0  0  0  0  0  0  0  0  0  0  0  0
  148.2221  132.3080  156.2936 H   0  0  0  0  0  0  0  0  0  0  0  0
  148.5680  134.1283  154.1880 H   0  0  0  0  0  0  0  0  0  0  0  0
  150.2884  130.6003  156.6704 H   0  0  0  0  0  0  0  0  0  0  0  0
  149.2317  129.7976  154.6651 H   0  0  0  0  0  0  0  0  0  0  0  0
  150.4664  130.5536  153.6460 H   0  0  0  0  0  0  0  0  0  0  0  0
  150.8644  128.2537  155.6081 H   0  0  0  0  0  0  0  0  0  0  0  0
  151.2830  128.2744  153.8890 H   0  0  0  0  0  0  0  0  0  0  0  0
  152.7781  131.4799  155.1836 H   0  0  0  0  0  0  0  0  0  0  0  0
  152.6429  130.7106  156.7649 H   0  0  0  0  0  0  0  0  0  0  0  0
  152.5518  140.3028  158.5771 H   0  0  0  0  0  0  0  0  0  0  0  0
  152.9221  141.3405  157.2171 H   0  0  0  0  0  0  0  0  0  0  0  0
  151.2821  142.1228  159.6563 H   0  0  0  0  0  0  0  0  0  0  0  0
  153.8088  141.8428  159.9117 H   0  0  0  0  0  0  0  0  0  0  0  0
  153.2462  143.4426  160.2982 H   0  0  0  0  0  0  0  0  0  0  0  0
  154.0265  143.1356  158.7414 H   0  0  0  0  0  0  0  0  0  0  0  0
  152.0306  143.6899  157.3106 H   0  0  0  0  0  0  0  0  0  0  0  0
  1  2  1  0  0  0  0
  1 30  1  0  0  0  0
  1 31  1  0  0  0  0
  1 32  1  0  0  0  0
  2  3  1  0  0  0  0
  2 33  1  0  0  0  0
  2 34  1  0  0  0  0
  3 28  1  0  0  0  0
  3  4  1  0  0  0  0
  3 64  1  0  0  0  0
  4  5  1  0  0  0  0
  4 35  1  0  0  0  0
  4 36  1  0  0  0  0
  5  6  1  0  0  0  0
  5 37  1  0  0  0  0
  5 38  1  0  0  0  0
  6  7  1  0  0  0  0
  6 27  1  0  0  0  0
  6 39  1  0  0  0  0
  7  8  1  0  0  0  0
  7  9  1  0  0  0  0
  8 40  1  0  0  0  0
  8 41  1  0  0  0  0
  8 42  1  0  0  0  0
  9 14  1  0  0  0  0
  9 10  2  0  0  0  0
 10 11  1  0  0  0  0
 11 12  2  0  0  0  0
 11 43  1  0  0  0  0
 12 13  1  0  0  0  0
 13 17  1  0  0  0  0
 13 14  2  0  0  0  0
 14 15  1  0  0  0  0
 15 16  2  0  0  0  0
 16 17  1  0  0  0  0
 16 44  1  0  0  0  0
 17 18  1  0  0  0  0
 18 19  1  0  0  0  0
 18 45  1  0  0  0  0
 18 46  1  0  0  0  0
 19 20  1  0  0  0  0
 19 22  1  0  0  0  0
 19 47  1  0  0  0  0
 20 21  1  0  0  0  0
 20 48  1  0  0  0  0
 20 49  1  0  0  0  0
 21 50  1  0  0  0  0
 22 26  1  0  0  0  0
 22 23  1  0  0  0  0
 22 51  1  0  0  0  0
 23 24  1  0  0  0  0
 23 52  1  0  0  0  0
 23 53  1  0  0  0  0
 24 25  1  0  0  0  0
 24 54  1  0  0  0  0
 24 55  1  0  0  0  0
 25 26  1  0  0  0  0
 26 56  1  0  0  0  0
 26 57  1  0  0  0  0
 27 28  1  0  0  0  0
 27 58  1  0  0  0  0
 27 59  1  0  0  0  0
 28 29  1  0  0  0  0
 28 60  1  0  0  0  0
 29 61  1  0  0  0  0
 29 62  1  0  0  0  0
 29 63  1  0  0  0  0
M  CHG  1   3   1
M  END
> <s_m_source_file>
AV-unprocessed.smi

> <i_m_source_file_index>
249

> <i_lp_mmshare_version>
43012

> <i_f3d_flags>
0

> <s_epik_input>
W0NIM11bQ0gyXU4xW0NIMl1bQ0gyXVtDQEhdKFtDSDJdW0NASF0xW0NIM10pTihbQ0gzXSljKG5bY0hdbjIpYyhjMjMpbltjSF1uM1tDSDJdW0NASF0oW0NIMl1bT0hdKVtDQEBIXTRbQ0gyXVtDSDJdT1tDSDJdNA==

> <s_epik_cmdline>
J2VwaWtfcHl0aG9uJywgJy1waCcsICc3LjAnLCAnLXRuJywgJzgnLCAnLW1hJywgJzIwMCcsICctbWV0YWxfYmluZGluZycsICctaW1hZScsICc8aW5maWxlLm1hZT4nLCAnLW9tYWUnLCAnPG91dGZpbGUubWFlPic=

> <r_lp_tautomer_probability>
1

> <r_epik_Ionization_Penalty>
0.00294688

> <r_epik_Ionization_Penalty_Charging>
0.00169971

> <r_epik_Ionization_Penalty_Neutral>
0.00124717

> <r_epik_State_Penalty>
-0

> <r_epik_Charging_Adjusted_Penalty>
0.00169971

> <i_epik_Tot_Q>
1

> <i_epik_Tot_abs_Q>
1

> <r_epik_Metal_State_Penalty>
-0

> <b_epik_Metal_Only>
0

> <s_lp_Force_Field>
OPLS_2005

> <r_lp_Energy>
53.7377

> <b_lp_Chiralities_Consistent>
1

> <s_lp_Variant>
AV-unprocessed.smi:249-9

> <Gold.Version>
5.8.1

> <Gold.Id.Protein>
6NUR|6NUR_protein|mol2

> <Gold.PLP.Fitness>
53.7756

> <Gold.PLP.PLP>
-47.9115

> <Gold.PLP.part.hbond>
-2.4071

> <Gold.PLP.part.metal>
0.0000

> <Gold.PLP.part.buried>
-5.9070

> <Gold.PLP.part.nonpolar>
-39.7358

> <Gold.PLP.part.repulsive>
0.2779

> <Gold.PLP.ligand.clash>
0.0000

> <Gold.PLP.ligand.torsion>
1.0656

> <Gold.PLP.Chemscore.Hbond>
1.9051

> <Gold.PLP.Chemscore.CHOScore>
0.3895

> <Gold.PLP.Chemscore.Metal>
0.0000

> <Gold.Chemscore.Hbonds>
donor molecule, donor type, donor heavy atom, donor atom, acceptor molecule, acceptor atom, score
      P1  H  6896  6909       L1    12  0.37

> <Gold.PLP.Chemscore.Internal.Correction>
1.1117

> <Gold.Rescore>
     Score         DG    S(hbond)    S(metal)    S(lipo)     H(rot)  DE(clash)    DE(int)     intcor
     12.39     -16.54       1.42        0.00     117.55       2.90       1.59       2.57       ----

> <Gold.Chemscore.Fitness>
12.3869

> <Gold.Chemscore.DG>
-16.5443

> <Gold.Chemscore.ZeroCoef>
-5.4800

> <Gold.Chemscore.Hbond>
1.4182

> <Gold.Chemscore.Metal>
0.0000

> <Gold.Chemscore.Lipo>
117.5482

> <Gold.Chemscore.Internal_Hbond>
0.0000

> <Gold.Chemscore.DEClash>
1.5902

> <Gold.Chemscore.DEInternal>
2.5672

> <Gold.Chemscore.Rot>
2.9006

> <Gold.Chemscore.Internal.Correction>
   9.000000E+99

> <Gold.Chemscore.Hbonds>
donor molecule, donor type, donor heavy atom, donor atom, acceptor molecule, acceptor atom, score
      P1  H  6896  6909       L1    12  0.36

> <Gold.Chemscore.Hbond.Weighted>
-4.7368

> <Gold.Chemscore.Metal.Weighted>
-0.0000

> <Gold.Chemscore.Lipo.Weighted>
-13.7531

> <Gold.Chemscore.Internal_Hbond.Weighted>
0.0000

> <Gold.Chemscore.DEClash.Weighted>
1.5902

> <Gold.Chemscore.DEInternal.Weighted>
2.5672

> <Gold.Chemscore.Rot.Weighted>
7.4256

> <Gold.Chemscore.Internal.Correction.Weighted>
   9.000000E+99

> <Gold.Protein.RotatedTorsions>
[ 6907 6896 6895 6894 ] final   45.50 input  -60.11 | X-H torsion
[ 7974 7965 7964 7962 ] final  138.50 input  175.53 | X-H torsion
[ 8008 7997 7996 7995 ] final   39.35 input   59.86 | X-H torsion
[ 10167 10162 10161 10158 ] final  161.35 input  -65.29 | X-H torsion
[ 10718 10713 10712 10709 ] final   -4.96 input   66.30 | X-H torsion
[ 10763 10752 10751 10750 ] final -174.32 input  -60.55 | X-H torsion
[ 11005 11000 10999 10996 ] final  143.23 input  -57.11 | X-H torsion

> <Gold.Protein.ActiveResidues>
 VAL166  LYS551  ARG553  GLY616  TRP617  ASP618  TYR619  PRO620  LYS621  CYS622 
 ASP623  PHE694  ASN695  SER759  ASP760  ASP761  ALA762  ILE779  LEU786  VAL792 
 PHE793  MET794  SER795  GLU796  ALA797  LYS798  CYS799  TRP800  GLU811  SER814 

> <Gold.Protein.RotatedAtoms>
  152.2452  134.8188  160.0454 H   0  0  0  0  0  0  0  0  0  0  0  0  # atno 6907 bound_to 6896
  151.8888  133.3506  159.3799 H   0  0  0  0  0  0  0  0  0  0  0  0  # atno 6908 bound_to 6896
  150.7066  134.4871  159.5542 H   0  0  0  0  0  0  0  0  0  0  0  0  # atno 6909 bound_to 6896
  144.9366  139.4981  143.5592 H   0  0  0  0  0  0  0  0  0  0  0  0  # atno 7974 bound_to 7965
  155.2352  140.3341  155.4298 H   0  0  0  0  0  0  0  0  0  0  0  0  # atno 8008 bound_to 7997
  156.2278  140.1837  156.7364 H   0  0  0  0  0  0  0  0  0  0  0  0  # atno 8009 bound_to 7997
  154.5928  140.0635  156.9247 H   0  0  0  0  0  0  0  0  0  0  0  0  # atno 8010 bound_to 7997
  139.4848  144.4545  151.8787 H   0  0  0  0  0  0  0  0  0  0  0  0  # atno 10167 bound_to 10162
  156.7536  130.5247  149.5799 H   0  0  0  0  0  0  0  0  0  0  0  0  # atno 10718 bound_to 10713
  154.5976  135.2851  155.0570 H   0  0  0  0  0  0  0  0  0  0  0  0  # atno 10763 bound_to 10752
  154.1847  135.6451  153.5047 H   0  0  0  0  0  0  0  0  0  0  0  0  # atno 10764 bound_to 10752
  153.0144  135.5432  154.6683 H   0  0  0  0  0  0  0  0  0  0  0  0  # atno 10765 bound_to 10752
  140.0538  134.9242  157.1064 H   0  0  0  0  0  0  0  0  0  0  0  0  # atno 11005 bound_to 11000
  146.3269  139.8355  142.8900 LP  0  0  0  0  0  0  0  0  0  0  0  0  # atno 17320 bound_to 7965
  145.3057  141.0206  143.3583 LP  0  0  0  0  0  0  0  0  0  0  0  0  # atno 17321 bound_to 7965
  140.4003  144.2501  150.5893 LP  0  0  0  0  0  0  0  0  0  0  0  0  # atno 17342 bound_to 10162
  140.5063  143.2303  151.8603 LP  0  0  0  0  0  0  0  0  0  0  0  0  # atno 17343 bound_to 10162
  156.1385  130.6228  151.0434 LP  0  0  0  0  0  0  0  0  0  0  0  0  # atno 17370 bound_to 10713
  157.6766  131.0849  150.7479 LP  0  0  0  0  0  0  0  0  0  0  0  0  # atno 17371 bound_to 10713
  140.3876  134.2219  155.7167 LP  0  0  0  0  0  0  0  0  0  0  0  0  # atno 17394 bound_to 11000
  141.1942  133.8133  157.0765 LP  0  0  0  0  0  0  0  0  0  0  0  0  # atno 17395 bound_to 11000

$$$$
