AV-unprocessed.smi:2079|AV-procd|sdf|8479|dock10
  -GOLD-   2272011183D 1   1.00000     0.00000
 Structure written by MMmdl.
 41 42  0  0  0  0  0  0  0  0  3 V2000
  148.6411  133.5063  157.2839 C   0  0  0  0  0  0  0  0  0  0  0  0
  149.4784  134.6527  156.8300 C   0  0  0  0  0  0  0  0  0  0  0  0
  150.0676  134.9557  155.6355 C   0  0  0  0  0  0  0  0  0  0  0  0
  150.7101  136.1969  155.8957 C   0  0  0  0  0  0  0  0  0  0  0  0
  151.4423  136.9037  155.0209 N   0  5  0  0  0  0  0  0  0  0  0  0
  151.5638  138.2435  155.1615 C   0  0  0  0  0  0  0  0  0  0  0  0
  151.4038  139.0914  154.2804 O   0  0  0  0  0  0  0  0  0  0  0  0
  151.8929  138.6271  156.4018 N   0  0  0  0  0  0  0  0  0  0  0  0
  152.0791  140.0073  156.8271 C   0  0  0  0  0  0  0  0  0  0  0  0
  151.3781  140.2543  158.1738 C   0  0  0  0  0  0  0  0  0  0  0  0
  151.6055  141.6354  158.6870 N   0  3  2  0  0  0  0  0  0  0  0  0
  151.2436  142.6572  157.6621 C   0  0  0  0  0  0  0  0  0  0  0  0
  151.3258  144.0854  158.2171 C   0  0  0  0  0  0  0  0  0  0  0  0
  152.7307  144.3699  158.7471 C   0  0  0  0  0  0  0  0  0  0  0  0
  153.0978  143.3173  159.7959 C   0  0  0  0  0  0  0  0  0  0  0  0
  152.9759  141.8761  159.2491 C   0  0  1  0  0  0  0  0  0  0  0  0
  153.3520  140.8973  160.3823 C   0  0  0  0  0  0  0  0  0  0  0  0
  150.5408  136.6023  157.1432 N   0  0  0  0  0  0  0  0  0  0  0  0
  149.7461  135.6207  157.7474 O   0  0  0  0  0  0  0  0  0  0  0  0
  149.2659  132.6501  157.5377 H   0  0  0  0  0  0  0  0  0  0  0  0
  147.9486  133.1999  156.4999 H   0  0  0  0  0  0  0  0  0  0  0  0
  148.0564  133.7722  158.1647 H   0  0  0  0  0  0  0  0  0  0  0  0
  150.0406  134.3833  154.7203 H   0  0  0  0  0  0  0  0  0  0  0  0
  152.0158  137.9047  157.0965 H   0  0  0  0  0  0  0  0  0  0  0  0
  153.1492  140.2030  156.8902 H   0  0  0  0  0  0  0  0  0  0  0  0
  151.6714  140.6748  156.0661 H   0  0  0  0  0  0  0  0  0  0  0  0
  150.3217  140.0624  158.0060 H   0  0  0  0  0  0  0  0  0  0  0  0
  151.7015  139.5253  158.9186 H   0  0  0  0  0  0  0  0  0  0  0  0
  151.9054  142.5562  156.8005 H   0  0  0  0  0  0  0  0  0  0  0  0
  150.2315  142.4958  157.2953 H   0  0  0  0  0  0  0  0  0  0  0  0
  151.0697  144.8036  157.4375 H   0  0  0  0  0  0  0  0  0  0  0  0
  150.5924  144.2158  159.0141 H   0  0  0  0  0  0  0  0  0  0  0  0
  153.4510  144.3492  157.9283 H   0  0  0  0  0  0  0  0  0  0  0  0
  152.7762  145.3690  159.1817 H   0  0  0  0  0  0  0  0  0  0  0  0
  154.1148  143.5013  160.1448 H   0  0  0  0  0  0  0  0  0  0  0  0
  152.4502  143.4359  160.6662 H   0  0  0  0  0  0  0  0  0  0  0  0
  153.6983  141.7548  158.4401 H   0  0  0  0  0  0  0  0  0  0  0  0
  154.2616  141.2209  160.8893 H   0  0  0  0  0  0  0  0  0  0  0  0
  153.5591  139.8920  160.0181 H   0  0  0  0  0  0  0  0  0  0  0  0
  152.5644  140.8352  161.1340 H   0  0  0  0  0  0  0  0  0  0  0  0
  150.9658  141.7558  159.4594 H   0  0  0  0  0  0  0  0  0  0  0  0
  1  2  1  0  0  0  0
  1 20  1  0  0  0  0
  1 21  1  0  0  0  0
  1 22  1  0  0  0  0
  2 19  1  0  0  0  0
  2  3  2  0  0  0  0
  3  4  1  0  0  0  0
  3 23  1  0  0  0  0
  4  5  1  0  0  0  0
  4 18  2  0  0  0  0
  5  6  1  0  0  0  0
  6  7  2  0  0  0  0
  6  8  1  0  0  0  0
  8  9  1  0  0  0  0
  8 24  1  0  0  0  0
  9 10  1  0  0  0  0
  9 25  1  0  0  0  0
  9 26  1  0  0  0  0
 10 11  1  0  0  0  0
 10 27  1  0  0  0  0
 10 28  1  0  0  0  0
 11 16  1  0  0  0  0
 11 12  1  0  0  0  0
 11 41  1  0  0  0  0
 12 13  1  0  0  0  0
 12 29  1  0  0  0  0
 12 30  1  0  0  0  0
 13 14  1  0  0  0  0
 13 31  1  0  0  0  0
 13 32  1  0  0  0  0
 14 15  1  0  0  0  0
 14 33  1  0  0  0  0
 14 34  1  0  0  0  0
 15 16  1  0  0  0  0
 15 35  1  0  0  0  0
 15 36  1  0  0  0  0
 16 17  1  0  0  0  0
 16 37  1  0  0  0  0
 17 38  1  0  0  0  0
 17 39  1  0  0  0  0
 17 40  1  0  0  0  0
 18 19  1  0  0  0  0
M  CHG  1   5  -1
M  CHG  1  11   1
M  END
> <s_m_source_file>
AV-unprocessed.smi

> <i_m_source_file_index>
2079

> <i_lp_mmshare_version>
43012

> <i_f3d_flags>
0

> <s_epik_input>
W0NIM11jMVtjSF1jKG5vMSlbTkhdQyg9TylbTkhdW0NIMl1bQ0gyXU4yW0NIMl1bQ0gyXVtDSDJdW0NIMl1bQ0BIXTJbQ0gzXQ==

> <s_epik_cmdline>
J2VwaWtfcHl0aG9uJywgJy1waCcsICc3LjAnLCAnLXRuJywgJzgnLCAnLW1hJywgJzIwMCcsICctbWV0YWxfYmluZGluZycsICctaW1hZScsICc8aW5maWxlLm1hZT4nLCAnLW9tYWUnLCAnPG91dGZpbGUubWFlPic=

> <r_epik_Ionization_Penalty>
6.22371

> <r_epik_Ionization_Penalty_Charging>
6.22362

> <r_epik_Ionization_Penalty_Neutral>
9.40454e-05

> <r_epik_State_Penalty>
6.22363

> <r_epik_Charging_Adjusted_Penalty>
12.4472

> <i_epik_Tot_Q>
0

> <i_epik_Tot_abs_Q>
2

> <r_epik_Metal_State_Penalty>
2.16675

> <b_epik_Metal_Only>
1

> <s_lp_Force_Field>
OPLS_2005

> <r_lp_Energy>
9.22117

> <b_lp_Chiralities_Consistent>
1

> <s_lp_Variant>
AV-unprocessed.smi:2079-5

> <Gold.Version>
5.8.1

> <Gold.Id.Protein>
6NUR|6NUR_protein|mol2

> <Gold.PLP.Fitness>
43.2020

> <Gold.PLP.PLP>
-33.1549

> <Gold.PLP.part.hbond>
-3.0000

> <Gold.PLP.part.metal>
0.0000

> <Gold.PLP.part.buried>
-4.3769

> <Gold.PLP.part.nonpolar>
-28.2918

> <Gold.PLP.part.repulsive>
0.4947

> <Gold.PLP.ligand.clash>
0.0063

> <Gold.PLP.ligand.torsion>
0.7412

> <Gold.PLP.Chemscore.Hbond>
3.8320

> <Gold.PLP.Chemscore.CHOScore>
0.0000

> <Gold.PLP.Chemscore.Metal>
0.0000

> <Gold.Chemscore.Hbonds>
donor molecule, donor type, donor heavy atom, donor atom, acceptor molecule, acceptor atom, score
      P1  H  6896  6909       L1    19  0.37
      P1  H  7989  7998       L1     7  1.00
      P1  H 10752 10763       L1     5  1.98

> <Gold.PLP.Chemscore.Internal.Correction>
0.0398

> <Gold.Rescore>
     Score         DG    S(hbond)    S(metal)    S(lipo)     H(rot)  DE(clash)    DE(int)     intcor
     15.88     -18.46       2.07        0.00      85.56       1.54       0.01       2.57       ----

> <Gold.Chemscore.Fitness>
15.8804

> <Gold.Chemscore.DG>
-18.4639

> <Gold.Chemscore.ZeroCoef>
-5.4800

> <Gold.Chemscore.Hbond>
2.0711

> <Gold.Chemscore.Metal>
0.0000

> <Gold.Chemscore.Lipo>
85.5646

> <Gold.Chemscore.Internal_Hbond>
0.0000

> <Gold.Chemscore.DEClash>
0.0106

> <Gold.Chemscore.DEInternal>
2.5728

> <Gold.Chemscore.Rot>
1.5409

> <Gold.Chemscore.Internal.Correction>
   9.000000E+99

> <Gold.Chemscore.Hbonds>
donor molecule, donor type, donor heavy atom, donor atom, acceptor molecule, acceptor atom, score
      P1  H  6896  6909       L1    19  0.15
      P1  H  7989  7998       L1     7  0.97
      P1  H 10752 10763       L1     5  0.41

> <Gold.Chemscore.Hbond.Weighted>
-6.9175

> <Gold.Chemscore.Metal.Weighted>
-0.0000

> <Gold.Chemscore.Lipo.Weighted>
-10.0111

> <Gold.Chemscore.Internal_Hbond.Weighted>
0.0000

> <Gold.Chemscore.DEClash.Weighted>
0.0106

> <Gold.Chemscore.DEInternal.Weighted>
2.5728

> <Gold.Chemscore.Rot.Weighted>
3.9446

> <Gold.Chemscore.Internal.Correction.Weighted>
   9.000000E+99

> <Gold.Protein.RotatedTorsions>
[ 6907 6896 6895 6894 ] final   42.27 input  -60.11 | X-H torsion
[ 7974 7965 7964 7962 ] final  145.25 input  175.53 | X-H torsion
[ 8008 7997 7996 7995 ] final  -35.57 input   59.86 | X-H torsion
[ 10167 10162 10161 10158 ] final   50.36 input  -65.29 | X-H torsion
[ 10718 10713 10712 10709 ] final  145.86 input   66.30 | X-H torsion
[ 10763 10752 10751 10750 ] final   53.32 input  -60.55 | X-H torsion
[ 11005 11000 10999 10996 ] final -161.37 input  -57.11 | X-H torsion

> <Gold.Protein.ActiveResidues>
 VAL166  LYS551  ARG553  GLY616  TRP617  ASP618  TYR619  PRO620  LYS621  CYS622 
 ASP623  PHE694  ASN695  SER759  ASP760  ASP761  ALA762  ILE779  LEU786  VAL792 
 PHE793  MET794  SER795  GLU796  ALA797  LYS798  CYS799  TRP800  GLU811  SER814 

> <Gold.Protein.RotatedAtoms>
  152.2057  134.8547  160.0502 H   0  0  0  0  0  0  0  0  0  0  0  0  # atno 6907 bound_to 6896
  151.9384  133.3626  159.3964 H   0  0  0  0  0  0  0  0  0  0  0  0  # atno 6908 bound_to 6896
  150.6964  134.4389  159.5327 H   0  0  0  0  0  0  0  0  0  0  0  0  # atno 6909 bound_to 6896
  144.8768  139.5761  143.5861 H   0  0  0  0  0  0  0  0  0  0  0  0  # atno 7974 bound_to 7965
  154.4092  140.1654  156.2233 H   0  0  0  0  0  0  0  0  0  0  0  0  # atno 8008 bound_to 7997
  155.9345  140.3412  155.6253 H   0  0  0  0  0  0  0  0  0  0  0  0  # atno 8009 bound_to 7997
  155.7065  140.0751  157.2379 H   0  0  0  0  0  0  0  0  0  0  0  0  # atno 8010 bound_to 7997
  140.2732  144.3241  150.6284 H   0  0  0  0  0  0  0  0  0  0  0  0  # atno 10167 bound_to 10162
  157.3402  131.0934  151.1089 H   0  0  0  0  0  0  0  0  0  0  0  0  # atno 10718 bound_to 10713
  152.9794  135.5783  154.4722 H   0  0  0  0  0  0  0  0  0  0  0  0  # atno 10763 bound_to 10752
  154.4283  135.2773  155.1932 H   0  0  0  0  0  0  0  0  0  0  0  0  # atno 10764 bound_to 10752
  154.3651  135.6180  153.5764 H   0  0  0  0  0  0  0  0  0  0  0  0  # atno 10765 bound_to 10752
  140.6211  134.4749  157.5223 H   0  0  0  0  0  0  0  0  0  0  0  0  # atno 11005 bound_to 11000
  146.2968  139.7302  142.9121 LP  0  0  0  0  0  0  0  0  0  0  0  0  # atno 17320 bound_to 7965
  145.4028  141.0387  143.3061 LP  0  0  0  0  0  0  0  0  0  0  0  0  # atno 17321 bound_to 7965
  140.5872  143.2169  151.7320 LP  0  0  0  0  0  0  0  0  0  0  0  0  # atno 17342 bound_to 10162
  139.4983  144.3993  152.0198 LP  0  0  0  0  0  0  0  0  0  0  0  0  # atno 17343 bound_to 10162
  157.2304  130.6522  149.5847 LP  0  0  0  0  0  0  0  0  0  0  0  0  # atno 17370 bound_to 10713
  155.9706  130.4600  150.6059 LP  0  0  0  0  0  0  0  0  0  0  0  0  # atno 17371 bound_to 10713
  139.9153  134.8259  156.1388 LP  0  0  0  0  0  0  0  0  0  0  0  0  # atno 17394 bound_to 11000
  141.0742  133.6783  156.2201 LP  0  0  0  0  0  0  0  0  0  0  0  0  # atno 17395 bound_to 11000

$$$$
