AV-unprocessed.smi:243|AV-procd|sdf|1858|dock4
  -GOLD-   2262020483D 1   1.00000     0.00000
 Structure written by MMmdl.
 58 61  0  0  0  0  0  0  0  0  2 V2000
  150.4202  142.7511  158.6147 C   0  0  0  0  0  0  0  0  0  0  0  0
  148.9445  142.5176  158.2591 C   0  0  0  0  0  0  0  0  0  0  0  0
  148.7569  142.0993  156.8465 N   0  3  2  0  0  0  0  0  0  0  0  0
  147.3271  141.8635  156.5203 C   0  0  0  0  0  0  0  0  0  0  0  0
  147.1220  141.5390  155.0279 C   0  0  0  0  0  0  0  0  0  0  0  0
  148.0558  140.4406  154.4770 C   0  0  2  0  0  0  0  0  0  0  0  0
  147.5413  139.0727  154.6719 N   0  0  0  0  0  0  0  0  0  0  0  0
  148.0081  138.1687  155.7215 C   0  0  0  0  0  0  0  0  0  0  0  0
  146.8847  138.5016  153.6288 C   0  0  0  0  0  0  0  0  0  0  0  0
  146.9203  139.1099  152.4134 N   0  0  0  0  0  0  0  0  0  0  0  0
  146.2661  138.5822  151.3750 C   0  0  0  0  0  0  0  0  0  0  0  0
  145.5309  137.4700  151.3303 N   0  0  0  0  0  0  0  0  0  0  0  0
  145.5044  136.8444  152.5418 C   0  0  0  0  0  0  0  0  0  0  0  0
  146.1474  137.2872  153.7324 C   0  0  0  0  0  0  0  0  0  0  0  0
  145.9023  136.3878  154.7636 N   0  0  0  0  0  0  0  0  0  0  0  0
  145.1472  135.4743  154.2175 C   0  0  0  0  0  0  0  0  0  0  0  0
  144.8638  135.6660  152.8839 N   0  0  0  0  0  0  0  0  0  0  0  0
  144.0474  134.8109  152.0349 C   0  0  0  0  0  0  0  0  0  0  0  0
  144.8505  134.0751  150.9361 C   0  0  1  0  0  0  0  0  0  0  0  0
  145.5421  135.0311  150.1503 O   0  0  0  0  0  0  0  0  0  0  0  0
  145.8721  133.0980  151.5062 C   0  0  0  0  0  0  0  0  0  0  0  0
  145.9611  132.0314  150.4230 C   0  0  0  0  0  0  0  0  0  0  0  0
  144.6143  131.8989  150.0023 O   0  0  0  0  0  0  0  0  0  0  0  0
  144.0064  133.1872  149.9970 C   0  0  0  0  0  0  0  0  0  0  0  0
  149.5143  140.6712  154.9445 C   0  0  2  0  0  0  0  0  0  0  0  0
  150.4958  139.5845  154.4728 C   0  0  0  0  0  0  0  0  0  0  0  0
  149.6120  140.9468  156.4576 C   0  0  0  0  0  0  0  0  0  0  0  0
  150.5106  143.1503  159.6252 H   0  0  0  0  0  0  0  0  0  0  0  0
  150.8807  143.4689  157.9350 H   0  0  0  0  0  0  0  0  0  0  0  0
  151.0029  141.8312  158.5799 H   0  0  0  0  0  0  0  0  0  0  0  0
  148.4964  141.7833  158.9303 H   0  0  0  0  0  0  0  0  0  0  0  0
  148.4129  143.4548  158.4294 H   0  0  0  0  0  0  0  0  0  0  0  0
  146.9254  141.0805  157.1597 H   0  0  0  0  0  0  0  0  0  0  0  0
  146.7540  142.7607  156.7576 H   0  0  0  0  0  0  0  0  0  0  0  0
  146.0790  141.2869  154.8319 H   0  0  0  0  0  0  0  0  0  0  0  0
  147.3135  142.4527  154.4637 H   0  0  0  0  0  0  0  0  0  0  0  0
  148.0914  140.6094  153.4012 H   0  0  0  0  0  0  0  0  0  0  0  0
  147.2794  137.3760  155.8974 H   0  0  0  0  0  0  0  0  0  0  0  0
  148.1503  138.6774  156.6692 H   0  0  0  0  0  0  0  0  0  0  0  0
  148.9510  137.7001  155.4397 H   0  0  0  0  0  0  0  0  0  0  0  0
  146.3415  139.1303  150.4472 H   0  0  0  0  0  0  0  0  0  0  0  0
  144.7766  134.6265  154.7754 H   0  0  0  0  0  0  0  0  0  0  0  0
  143.5326  134.0907  152.6722 H   0  0  0  0  0  0  0  0  0  0  0  0
  143.2688  135.4251  151.5807 H   0  0  0  0  0  0  0  0  0  0  0  0
  145.3761  134.8450  149.2385 H   0  0  0  0  0  0  0  0  0  0  0  0
  146.8351  133.5537  151.7411 H   0  0  0  0  0  0  0  0  0  0  0  0
  145.4906  132.6414  152.4206 H   0  0  0  0  0  0  0  0  0  0  0  0
  146.5761  132.3694  149.5874 H   0  0  0  0  0  0  0  0  0  0  0  0
  146.3635  131.0871  150.7903 H   0  0  0  0  0  0  0  0  0  0  0  0
  142.9778  133.0776  150.3382 H   0  0  0  0  0  0  0  0  0  0  0  0
  143.9723  133.5786  148.9789 H   0  0  0  0  0  0  0  0  0  0  0  0
  149.8405  141.5908  154.4555 H   0  0  0  0  0  0  0  0  0  0  0  0
  150.3131  138.6294  154.9644 H   0  0  0  0  0  0  0  0  0  0  0  0
  151.5260  139.8700  154.6876 H   0  0  0  0  0  0  0  0  0  0  0  0
  150.4173  139.4255  153.3969 H   0  0  0  0  0  0  0  0  0  0  0  0
  150.6514  141.1636  156.7007 H   0  0  0  0  0  0  0  0  0  0  0  0
  149.3398  140.0677  157.0407 H   0  0  0  0  0  0  0  0  0  0  0  0
  149.0468  142.8820  156.2776 H   0  0  0  0  0  0  0  0  0  0  0  0
  1  2  1  0  0  0  0
  1 28  1  0  0  0  0
  1 29  1  0  0  0  0
  1 30  1  0  0  0  0
  2  3  1  0  0  0  0
  2 31  1  0  0  0  0
  2 32  1  0  0  0  0
  3 27  1  0  0  0  0
  3  4  1  0  0  0  0
  3 58  1  0  0  0  0
  4  5  1  0  0  0  0
  4 33  1  0  0  0  0
  4 34  1  0  0  0  0
  5  6  1  0  0  0  0
  5 35  1  0  0  0  0
  5 36  1  0  0  0  0
  6  7  1  0  0  0  0
  6 25  1  0  0  0  0
  6 37  1  0  0  0  0
  7  8  1  0  0  0  0
  7  9  1  0  0  0  0
  8 38  1  0  0  0  0
  8 39  1  0  0  0  0
  8 40  1  0  0  0  0
  9 14  1  0  0  0  0
  9 10  2  0  0  0  0
 10 11  1  0  0  0  0
 11 12  2  0  0  0  0
 11 41  1  0  0  0  0
 12 13  1  0  0  0  0
 13 17  1  0  0  0  0
 13 14  2  0  0  0  0
 14 15  1  0  0  0  0
 15 16  2  0  0  0  0
 16 17  1  0  0  0  0
 16 42  1  0  0  0  0
 17 18  1  0  0  0  0
 18 19  1  0  0  0  0
 18 43  1  0  0  0  0
 18 44  1  0  0  0  0
 19 24  1  0  0  0  0
 19 20  1  0  0  0  0
 19 21  1  0  0  0  0
 20 45  1  0  0  0  0
 21 22  1  0  0  0  0
 21 46  1  0  0  0  0
 21 47  1  0  0  0  0
 22 23  1  0  0  0  0
 22 48  1  0  0  0  0
 22 49  1  0  0  0  0
 23 24  1  0  0  0  0
 24 50  1  0  0  0  0
 24 51  1  0  0  0  0
 25 26  1  0  0  0  0
 25 27  1  0  0  0  0
 25 52  1  0  0  0  0
 26 53  1  0  0  0  0
 26 54  1  0  0  0  0
 26 55  1  0  0  0  0
 27 56  1  0  0  0  0
 27 57  1  0  0  0  0
M  CHG  1   3   1
M  END
> <s_m_source_file>
AV-unprocessed.smi

> <i_m_source_file_index>
243

> <i_lp_mmshare_version>
43012

> <i_f3d_flags>
0

> <s_epik_input>
W0NIM11bQ0gyXU4xW0NIMl1bQ0gyXVtDQEhdKFtDQEBIXShbQ0gzXSlbQ0gyXTEpTihbQ0gzXSljKG5bY0hdbjIpYyhjMjMpbltjSF1uM1tDSDJdW0NAQF00KFtPSF0pW0NIMl1bQ0gyXU9bQ0gyXTQ=

> <s_epik_cmdline>
J2VwaWtfcHl0aG9uJywgJy1waCcsICc3LjAnLCAnLXRuJywgJzgnLCAnLW1hJywgJzIwMCcsICctbWV0YWxfYmluZGluZycsICctaW1hZScsICc8aW5maWxlLm1hZT4nLCAnLW9tYWUnLCAnPG91dGZpbGUubWFlPic=

> <r_lp_tautomer_probability>
1

> <r_epik_Ionization_Penalty>
0.00253099

> <r_epik_Ionization_Penalty_Charging>
0.00137877

> <r_epik_Ionization_Penalty_Neutral>
0.00115221

> <r_epik_State_Penalty>
-0

> <r_epik_Charging_Adjusted_Penalty>
0.00137877

> <i_epik_Tot_Q>
1

> <i_epik_Tot_abs_Q>
1

> <r_epik_Metal_State_Penalty>
-0

> <b_epik_Metal_Only>
0

> <s_lp_Force_Field>
OPLS_2005

> <r_lp_Energy>
51.0856

> <b_lp_Chiralities_Consistent>
1

> <s_lp_Variant>
AV-unprocessed.smi:243-11

> <Gold.Version>
5.8.1

> <Gold.Id.Protein>
6NUR|6NUR_protein|mol2

> <Gold.PLP.Fitness>
40.0724

> <Gold.PLP.PLP>
-32.6828

> <Gold.PLP.part.hbond>
-2.2505

> <Gold.PLP.part.metal>
0.0000

> <Gold.PLP.part.buried>
-5.8352

> <Gold.PLP.part.nonpolar>
-30.1436

> <Gold.PLP.part.repulsive>
4.8949

> <Gold.PLP.ligand.clash>
0.0000

> <Gold.PLP.ligand.torsion>
0.8371

> <Gold.PLP.Chemscore.Hbond>
2.7360

> <Gold.PLP.Chemscore.CHOScore>
0.1109

> <Gold.PLP.Chemscore.Metal>
0.0000

> <Gold.Chemscore.Hbonds>
donor molecule, donor type, donor heavy atom, donor atom, acceptor molecule, acceptor atom, score
      L1  H     3    58       P1  8028  2.00
      L1  H    20    45       P1  7921  0.86
      L1  C    11    41       P1 10171  0.24

> <Gold.PLP.Chemscore.Internal.Correction>
0.5229

> <Gold.Rescore>
     Score         DG    S(hbond)    S(metal)    S(lipo)     H(rot)  DE(clash)    DE(int)     intcor
      9.85     -14.90       1.91        0.00      74.96       2.24       1.82       3.23       ----

> <Gold.Chemscore.Fitness>
9.8475

> <Gold.Chemscore.DG>
-14.9035

> <Gold.Chemscore.ZeroCoef>
-5.4800

> <Gold.Chemscore.Hbond>
1.9109

> <Gold.Chemscore.Metal>
0.0000

> <Gold.Chemscore.Lipo>
74.9595

> <Gold.Chemscore.Internal_Hbond>
0.0000

> <Gold.Chemscore.DEClash>
1.8243

> <Gold.Chemscore.DEInternal>
3.2318

> <Gold.Chemscore.Rot>
2.2379

> <Gold.Chemscore.Internal.Correction>
   9.000000E+99

> <Gold.Chemscore.Hbonds>
donor molecule, donor type, donor heavy atom, donor atom, acceptor molecule, acceptor atom, score
      L1  H     3    58       P1  8028  0.95
      L1  H    20    45       P1  7921  0.85

> <Gold.Chemscore.Hbond.Weighted>
-6.3824

> <Gold.Chemscore.Metal.Weighted>
-0.0000

> <Gold.Chemscore.Lipo.Weighted>
-8.7703

> <Gold.Chemscore.Internal_Hbond.Weighted>
0.0000

> <Gold.Chemscore.DEClash.Weighted>
1.8243

> <Gold.Chemscore.DEInternal.Weighted>
3.2318

> <Gold.Chemscore.Rot.Weighted>
5.7291

> <Gold.Chemscore.Internal.Correction.Weighted>
   9.000000E+99

> <Gold.Protein.RotatedTorsions>
[ 6907 6896 6895 6894 ] final  -82.00 input  -60.11 | X-H torsion
[ 7974 7965 7964 7962 ] final -147.31 input  175.53 | X-H torsion
[ 8008 7997 7996 7995 ] final  -12.48 input   59.86 | X-H torsion
[ 10167 10162 10161 10158 ] final  -48.28 input  -65.29 | X-H torsion
[ 10718 10713 10712 10709 ] final  116.92 input   66.30 | X-H torsion
[ 10763 10752 10751 10750 ] final -143.90 input  -60.55 | X-H torsion
[ 11005 11000 10999 10996 ] final   26.74 input  -57.11 | X-H torsion

> <Gold.Protein.ActiveResidues>
 VAL166  LYS551  ARG553  GLY616  TRP617  ASP618  TYR619  PRO620  LYS621  CYS622 
 ASP623  PHE694  ASN695  SER759  ASP760  ASP761  ALA762  ILE779  LEU786  VAL792 
 PHE793  MET794  SER795  GLU796  ALA797  LYS798  CYS799  TRP800  GLU811  SER814 

> <Gold.Protein.RotatedAtoms>
  150.6903  134.3732  159.5001 H   0  0  0  0  0  0  0  0  0  0  0  0  # atno 6907 bound_to 6896
  152.1545  134.8959  160.0555 H   0  0  0  0  0  0  0  0  0  0  0  0  # atno 6908 bound_to 6896
  152.0044  133.3803  159.4231 H   0  0  0  0  0  0  0  0  0  0  0  0  # atno 6909 bound_to 6896
  144.8102  140.5344  143.5648 H   0  0  0  0  0  0  0  0  0  0  0  0  # atno 7974 bound_to 7965
  154.5374  140.2275  155.8699 H   0  0  0  0  0  0  0  0  0  0  0  0  # atno 8008 bound_to 7997
  156.1825  140.3097  155.9138 H   0  0  0  0  0  0  0  0  0  0  0  0  # atno 8009 bound_to 7997
  155.3327  140.0446  157.3033 H   0  0  0  0  0  0  0  0  0  0  0  0  # atno 8010 bound_to 7997
  140.6738  143.2747  151.4047 H   0  0  0  0  0  0  0  0  0  0  0  0  # atno 10167 bound_to 10162
  157.6129  131.1031  150.7542 H   0  0  0  0  0  0  0  0  0  0  0  0  # atno 10718 bound_to 10713
  154.8451  135.3455  154.6260 H   0  0  0  0  0  0  0  0  0  0  0  0  # atno 10763 bound_to 10752
  153.6870  135.6977  153.5106 H   0  0  0  0  0  0  0  0  0  0  0  0  # atno 10764 bound_to 10752
  153.2624  135.4318  155.0863 H   0  0  0  0  0  0  0  0  0  0  0  0  # atno 10765 bound_to 10752
  140.3338  134.2409  155.7699 H   0  0  0  0  0  0  0  0  0  0  0  0  # atno 11005 bound_to 11000
  145.5342  139.1475  143.3483 LP  0  0  0  0  0  0  0  0  0  0  0  0  # atno 17320 bound_to 7965
  146.2399  140.5482  142.8938 LP  0  0  0  0  0  0  0  0  0  0  0  0  # atno 17321 bound_to 7965
  139.6020  144.1276  152.2208 LP  0  0  0  0  0  0  0  0  0  0  0  0  # atno 17342 bound_to 10162
  140.0663  144.5815  150.7225 LP  0  0  0  0  0  0  0  0  0  0  0  0  # atno 17343 bound_to 10162
  156.7915  130.4891  149.5384 LP  0  0  0  0  0  0  0  0  0  0  0  0  # atno 17370 bound_to 10713
  156.1239  130.6130  151.0235 LP  0  0  0  0  0  0  0  0  0  0  0  0  # atno 17371 bound_to 10713
  141.2056  133.7854  157.0221 LP  0  0  0  0  0  0  0  0  0  0  0  0  # atno 17394 bound_to 11000
  140.0838  134.9632  157.1668 LP  0  0  0  0  0  0  0  0  0  0  0  0  # atno 17395 bound_to 11000

$$$$
