AV-unprocessed.smi:1768|AV-procd|sdf|7143|dock3
  -GOLD-   22720 8383D 1   1.00000     0.00000
 Structure written by MMmdl.
 33 34  0  0  0  0  0  0  0  0  1 V2000
  151.4159  138.1073  159.0415 C   0  0  0  0  0  0  0  0  0  0  0  0
  151.0340  137.5848  157.6988 C   0  0  0  0  0  0  0  0  0  0  0  0
  151.7995  137.7462  156.6127 N   0  0  0  0  0  0  0  0  0  0  0  0
  151.2349  137.1742  155.4810 N   0  0  0  0  0  0  0  0  0  0  0  0
  150.0552  136.5973  155.7482 C   0  0  0  0  0  0  0  0  0  0  0  0
  149.2589  135.9388  154.7743 N   0  0  0  0  0  0  0  0  0  0  0  0
  148.5478  134.8053  154.9058 C   0  0  0  0  0  0  0  0  0  0  0  0
  148.4600  134.1362  155.9355 O   0  0  0  0  0  0  0  0  0  0  0  0
  147.9271  134.4906  153.7590 N   0  0  0  0  0  0  0  0  0  0  0  0
  147.0660  133.3295  153.5388 C   0  0  2  0  0  0  0  0  0  0  0  0
  147.7770  132.0785  154.0752 C   0  0  0  0  0  0  0  0  0  0  0  0
  146.7185  133.1946  152.0419 C   0  0  2  0  0  0  0  0  0  0  0  0
  145.8461  134.3179  151.4766 C   0  0  0  0  0  0  0  0  0  0  0  0
  145.2077  133.6396  150.2868 C   0  0  0  0  0  0  0  0  0  0  0  0
  144.9549  132.2371  150.8300 C   0  0  0  0  0  0  0  0  0  0  0  0
  145.9681  132.0047  151.8054 O   0  0  0  0  0  0  0  0  0  0  0  0
  149.5337  136.7092  157.4208 S   0  0  0  0  0  0  0  0  0  0  0  0
  152.4631  138.4118  159.0521 H   0  0  0  0  0  0  0  0  0  0  0  0
  151.2703  137.3359  159.7980 H   0  0  0  0  0  0  0  0  0  0  0  0
  150.7979  138.9688  159.2949 H   0  0  0  0  0  0  0  0  0  0  0  0
  149.2270  136.3845  153.8693 H   0  0  0  0  0  0  0  0  0  0  0  0
  148.0592  135.1049  152.9691 H   0  0  0  0  0  0  0  0  0  0  0  0
  146.1354  133.4438  154.0977 H   0  0  0  0  0  0  0  0  0  0  0  0
  147.1508  131.1925  153.9672 H   0  0  0  0  0  0  0  0  0  0  0  0
  148.0124  132.1838  155.1349 H   0  0  0  0  0  0  0  0  0  0  0  0
  148.7104  131.8927  153.5428 H   0  0  0  0  0  0  0  0  0  0  0  0
  147.6332  133.1291  151.4497 H   0  0  0  0  0  0  0  0  0  0  0  0
  145.0780  134.6085  152.1951 H   0  0  0  0  0  0  0  0  0  0  0  0
  146.4159  135.2072  151.2057 H   0  0  0  0  0  0  0  0  0  0  0  0
  144.2994  134.1350  149.9434 H   0  0  0  0  0  0  0  0  0  0  0  0
  145.9133  133.6006  149.4558 H   0  0  0  0  0  0  0  0  0  0  0  0
  143.9836  132.1889  151.3237 H   0  0  0  0  0  0  0  0  0  0  0  0
  144.9746  131.4791  150.0466 H   0  0  0  0  0  0  0  0  0  0  0  0
  1  2  1  0  0  0  0
  1 18  1  0  0  0  0
  1 19  1  0  0  0  0
  1 20  1  0  0  0  0
  2 17  1  0  0  0  0
  2  3  2  0  0  0  0
  3  4  1  0  0  0  0
  4  5  2  0  0  0  0
  5  6  1  0  0  0  0
  5 17  1  0  0  0  0
  6  7  1  0  0  0  0
  6 21  1  0  0  0  0
  7  8  2  0  0  0  0
  7  9  1  0  0  0  0
  9 10  1  0  0  0  0
  9 22  1  0  0  0  0
 10 11  1  0  0  0  0
 10 12  1  0  0  0  0
 10 23  1  0  0  0  0
 11 24  1  0  0  0  0
 11 25  1  0  0  0  0
 11 26  1  0  0  0  0
 12 16  1  0  0  0  0
 12 13  1  0  0  0  0
 12 27  1  0  0  0  0
 13 14  1  0  0  0  0
 13 28  1  0  0  0  0
 13 29  1  0  0  0  0
 14 15  1  0  0  0  0
 14 30  1  0  0  0  0
 14 31  1  0  0  0  0
 15 16  1  0  0  0  0
 15 32  1  0  0  0  0
 15 33  1  0  0  0  0
M  END
> <s_m_source_file>
AV-unprocessed.smi

> <i_m_source_file_index>
1768

> <i_lp_mmshare_version>
43012

> <i_f3d_flags>
0

> <s_epik_input>
W0NIM11jMW5uYyhzMSlbTkhdQyg9TylbTkhdW0NASF0oW0NIM10pW0NAQEhdMltDSDJdW0NIMl1bQ0gyXU8y

> <s_epik_cmdline>
J2VwaWtfcHl0aG9uJywgJy1waCcsICc3LjAnLCAnLXRuJywgJzgnLCAnLW1hJywgJzIwMCcsICctbWV0YWxfYmluZGluZycsICctaW1hZScsICc8aW5maWxlLm1hZT4nLCAnLW9tYWUnLCAnPG91dGZpbGUubWFlPic=

> <r_lp_tautomer_probability>
1

> <r_epik_Ionization_Penalty>
0.000523083

> <r_epik_Ionization_Penalty_Charging>
0

> <r_epik_Ionization_Penalty_Neutral>
0.000523083

> <r_epik_State_Penalty>
-0

> <r_epik_Charging_Adjusted_Penalty>
0

> <i_epik_Tot_Q>
0

> <i_epik_Tot_abs_Q>
0

> <r_epik_Metal_State_Penalty>
0.223408

> <b_epik_Metal_Only>
0

> <s_lp_Force_Field>
OPLS_2005

> <r_lp_Energy>
16.8922

> <b_lp_Chiralities_Consistent>
1

> <s_lp_Variant>
AV-unprocessed.smi:1768-1

> <Gold.Version>
5.8.1

> <Gold.Id.Protein>
6NUR|6NUR_protein|mol2

> <Gold.PLP.Fitness>
33.0281

> <Gold.PLP.PLP>
-24.9327

> <Gold.PLP.part.hbond>
-4.1749

> <Gold.PLP.part.metal>
0.0000

> <Gold.PLP.part.buried>
-3.9367

> <Gold.PLP.part.nonpolar>
-17.4064

> <Gold.PLP.part.repulsive>
0.2994

> <Gold.PLP.ligand.clash>
0.0000

> <Gold.PLP.ligand.torsion>
0.4441

> <Gold.PLP.Chemscore.Hbond>
2.9920

> <Gold.PLP.Chemscore.CHOScore>
0.0000

> <Gold.PLP.Chemscore.Metal>
0.0000

> <Gold.Chemscore.Hbonds>
donor molecule, donor type, donor heavy atom, donor atom, acceptor molecule, acceptor atom, score
      L1  H     6    21       P1  7948  0.98
      L1  H     9    22       P1  7948  1.00

> <Gold.PLP.Chemscore.Internal.Correction>
0.0077

> <Gold.Rescore>
     Score         DG    S(hbond)    S(metal)    S(lipo)     H(rot)  DE(clash)    DE(int)     intcor
     11.81     -13.53       1.73        0.00      47.79       1.29       0.00       1.72       ----

> <Gold.Chemscore.Fitness>
11.8086

> <Gold.Chemscore.DG>
-13.5279

> <Gold.Chemscore.ZeroCoef>
-5.4800

> <Gold.Chemscore.Hbond>
1.7258

> <Gold.Chemscore.Metal>
0.0000

> <Gold.Chemscore.Lipo>
47.7862

> <Gold.Chemscore.Internal_Hbond>
0.0000

> <Gold.Chemscore.DEClash>
0.0009

> <Gold.Chemscore.DEInternal>
1.7184

> <Gold.Chemscore.Rot>
1.2919

> <Gold.Chemscore.Internal.Correction>
   9.000000E+99

> <Gold.Chemscore.Hbonds>
donor molecule, donor type, donor heavy atom, donor atom, acceptor molecule, acceptor atom, score
      L1  H     6    21       P1  7948  0.84
      L1  H     9    22       P1  7948  0.97

> <Gold.Chemscore.Hbond.Weighted>
-5.7641

> <Gold.Chemscore.Metal.Weighted>
-0.0000

> <Gold.Chemscore.Lipo.Weighted>
-5.5910

> <Gold.Chemscore.Internal_Hbond.Weighted>
0.0000

> <Gold.Chemscore.DEClash.Weighted>
0.0009

> <Gold.Chemscore.DEInternal.Weighted>
1.7184

> <Gold.Chemscore.Rot.Weighted>
3.3072

> <Gold.Chemscore.Internal.Correction.Weighted>
   9.000000E+99

> <Gold.Protein.RotatedTorsions>
[ 6907 6896 6895 6894 ] final  -85.15 input  -60.11 | X-H torsion
[ 7974 7965 7964 7962 ] final -152.78 input  175.53 | X-H torsion
[ 8008 7997 7996 7995 ] final -133.91 input   59.86 | X-H torsion
[ 10167 10162 10161 10158 ] final -152.21 input  -65.29 | X-H torsion
[ 10718 10713 10712 10709 ] final  -37.33 input   66.30 | X-H torsion
[ 10763 10752 10751 10750 ] final  -75.83 input  -60.55 | X-H torsion
[ 11005 11000 10999 10996 ] final  -77.29 input  -57.11 | X-H torsion

> <Gold.Protein.ActiveResidues>
 VAL166  LYS551  ARG553  GLY616  TRP617  ASP618  TYR619  PRO620  LYS621  CYS622 
 ASP623  PHE694  ASN695  SER759  ASP760  ASP761  ALA762  ILE779  LEU786  VAL792 
 PHE793  MET794  SER795  GLU796  ALA797  LYS798  CYS799  TRP800  GLU811  SER814 

> <Gold.Protein.RotatedAtoms>
  150.6872  134.3249  159.4801 H   0  0  0  0  0  0  0  0  0  0  0  0  # atno 6907 bound_to 6896
  152.1120  134.9265  160.0575 H   0  0  0  0  0  0  0  0  0  0  0  0  # atno 6908 bound_to 6896
  152.0504  133.3982  159.4411 H   0  0  0  0  0  0  0  0  0  0  0  0  # atno 6909 bound_to 6896
  144.7776  140.4616  143.5862 H   0  0  0  0  0  0  0  0  0  0  0  0  # atno 7974 bound_to 7965
  155.3533  140.0478  157.3046 H   0  0  0  0  0  0  0  0  0  0  0  0  # atno 8008 bound_to 7997
  154.5216  140.2227  155.8930 H   0  0  0  0  0  0  0  0  0  0  0  0  # atno 8009 bound_to 7997
  156.1695  140.3099  155.8954 H   0  0  0  0  0  0  0  0  0  0  0  0  # atno 8010 bound_to 7997
  139.7201  143.8970  152.2500 H   0  0  0  0  0  0  0  0  0  0  0  0  # atno 10167 bound_to 10162
  156.3164  130.4259  149.8001 H   0  0  0  0  0  0  0  0  0  0  0  0  # atno 10718 bound_to 10713
  154.4918  135.5818  153.6465 H   0  0  0  0  0  0  0  0  0  0  0  0  # atno 10763 bound_to 10752
  152.9863  135.6114  154.3115 H   0  0  0  0  0  0  0  0  0  0  0  0  # atno 10764 bound_to 10752
  154.3016  135.2846  155.2588 H   0  0  0  0  0  0  0  0  0  0  0  0  # atno 10765 bound_to 10752
  141.1659  133.7016  156.7798 H   0  0  0  0  0  0  0  0  0  0  0  0  # atno 11005 bound_to 11000
  145.6142  139.1516  143.3059 LP  0  0  0  0  0  0  0  0  0  0  0  0  # atno 17320 bound_to 7965
  146.1965  140.6256  142.9122 LP  0  0  0  0  0  0  0  0  0  0  0  0  # atno 17321 bound_to 7965
  139.8864  144.6990  150.8820 LP  0  0  0  0  0  0  0  0  0  0  0  0  # atno 17342 bound_to 10162
  140.7752  143.3621  151.1809 LP  0  0  0  0  0  0  0  0  0  0  0  0  # atno 17343 bound_to 10162
  156.5325  130.8264  151.3242 LP  0  0  0  0  0  0  0  0  0  0  0  0  # atno 17370 bound_to 10713
  157.7402  130.9846  150.2365 LP  0  0  0  0  0  0  0  0  0  0  0  0  # atno 17371 bound_to 10713
  140.2403  134.8619  157.3566 LP  0  0  0  0  0  0  0  0  0  0  0  0  # atno 17394 bound_to 11000
  140.1803  134.4498  155.7776 LP  0  0  0  0  0  0  0  0  0  0  0  0  # atno 17395 bound_to 11000

$$$$
