AV-unprocessed.smi:748|AV-procd|sdf|3582|dock3
  -GOLD-   22720 0573D 1   1.00000     0.00000
 Structure written by MMmdl.
 50 51  0  0  0  0  0  0  0  0  1 V2000
  147.1863  134.2920  154.1942 C   0  0  0  0  0  0  0  0  0  0  0  0
  146.1935  134.9369  153.2133 C   0  0  0  0  0  0  0  0  0  0  0  0
  145.8122  133.9732  152.0815 C   0  0  0  0  0  0  0  0  0  0  0  0
  146.7534  136.1580  152.6409 N   0  0  0  0  0  0  0  0  0  0  0  0
  146.2193  137.3851  152.7464 C   0  0  0  0  0  0  0  0  0  0  0  0
  145.1747  137.6189  153.3542 O   0  0  0  0  0  0  0  0  0  0  0  0
  146.9787  138.5206  152.0566 C   0  0  0  0  0  0  0  0  0  0  0  0
  147.1172  139.7620  152.9568 C   0  0  0  0  0  0  0  0  0  0  0  0
  148.3516  139.7172  153.7312 N   0  0  0  0  0  0  0  0  0  0  0  0
  148.6929  140.5915  154.6918 C   0  0  0  0  0  0  0  0  0  0  0  0
  147.9920  141.5506  155.0163 O   0  0  0  0  0  0  0  0  0  0  0  0
  150.0411  140.3733  155.3192 C   0  0  0  0  0  0  0  0  0  0  0  0
  150.9728  139.4641  154.7702 C   0  0  0  0  0  0  0  0  0  0  0  0
  152.2061  139.2912  155.4239 C   0  0  0  0  0  0  0  0  0  0  0  0
  152.5444  139.9465  156.5530 N   0  0  0  0  0  0  0  0  0  0  0  0
  151.6597  140.8177  157.0972 C   0  0  0  0  0  0  0  0  0  0  0  0
  152.0264  141.4870  158.2855 N   0  0  0  0  0  0  0  0  0  0  0  0
  153.1644  140.9707  159.0438 C   0  0  0  0  0  0  0  0  0  0  0  0
  153.2138  141.6150  160.4388 C   0  0  0  0  0  0  0  0  0  0  0  0
  153.2312  143.0330  160.3115 O   0  0  0  0  0  0  0  0  0  0  0  0
  152.0592  143.5279  159.6697 C   0  0  1  0  0  0  0  0  0  0  0  0
  152.1240  145.0587  159.6634 C   0  0  0  0  0  0  0  0  0  0  0  0
  151.9745  142.9464  158.2450 C   0  0  0  0  0  0  0  0  0  0  0  0
  150.3935  141.0502  156.5081 C   0  0  0  0  0  0  0  0  0  0  0  0
  146.7743  133.3776  154.6221 H   0  0  0  0  0  0  0  0  0  0  0  0
  147.4201  134.9620  155.0222 H   0  0  0  0  0  0  0  0  0  0  0  0
  148.1234  134.0346  153.6995 H   0  0  0  0  0  0  0  0  0  0  0  0
  145.2815  135.1896  153.7572 H   0  0  0  0  0  0  0  0  0  0  0  0
  145.3614  133.0629  152.4776 H   0  0  0  0  0  0  0  0  0  0  0  0
  146.6849  133.6834  151.4947 H   0  0  0  0  0  0  0  0  0  0  0  0
  145.0901  134.4284  151.4027 H   0  0  0  0  0  0  0  0  0  0  0  0
  147.6127  136.0605  152.1198 H   0  0  0  0  0  0  0  0  0  0  0  0
  147.9680  138.1716  151.7560 H   0  0  0  0  0  0  0  0  0  0  0  0
  146.4473  138.7786  151.1397 H   0  0  0  0  0  0  0  0  0  0  0  0
  147.0779  140.6799  152.3667 H   0  0  0  0  0  0  0  0  0  0  0  0
  146.2840  139.8098  153.6589 H   0  0  0  0  0  0  0  0  0  0  0  0
  149.0001  138.9733  153.5176 H   0  0  0  0  0  0  0  0  0  0  0  0
  150.7575  138.9005  153.8742 H   0  0  0  0  0  0  0  0  0  0  0  0
  152.9407  138.6038  155.0314 H   0  0  0  0  0  0  0  0  0  0  0  0
  153.0909  139.8875  159.1506 H   0  0  0  0  0  0  0  0  0  0  0  0
  154.0860  141.1845  158.5007 H   0  0  0  0  0  0  0  0  0  0  0  0
  152.3597  141.3032  161.0421 H   0  0  0  0  0  0  0  0  0  0  0  0
  154.1110  141.2945  160.9685 H   0  0  0  0  0  0  0  0  0  0  0  0
  151.1820  143.2214  160.2426 H   0  0  0  0  0  0  0  0  0  0  0  0
  151.2415  145.4867  159.1875 H   0  0  0  0  0  0  0  0  0  0  0  0
  153.0018  145.4145  159.1233 H   0  0  0  0  0  0  0  0  0  0  0  0
  152.1763  145.4499  160.6797 H   0  0  0  0  0  0  0  0  0  0  0  0
  152.8076  143.3084  157.6410 H   0  0  0  0  0  0  0  0  0  0  0  0
  151.0626  143.3058  157.7710 H   0  0  0  0  0  0  0  0  0  0  0  0
  149.6882  141.7277  156.9667 H   0  0  0  0  0  0  0  0  0  0  0  0
  1  2  1  0  0  0  0
  1 25  1  0  0  0  0
  1 26  1  0  0  0  0
  1 27  1  0  0  0  0
  2  3  1  0  0  0  0
  2  4  1  0  0  0  0
  2 28  1  0  0  0  0
  3 29  1  0  0  0  0
  3 30  1  0  0  0  0
  3 31  1  0  0  0  0
  4  5  1  0  0  0  0
  4 32  1  0  0  0  0
  5  6  2  0  0  0  0
  5  7  1  0  0  0  0
  7  8  1  0  0  0  0
  7 33  1  0  0  0  0
  7 34  1  0  0  0  0
  8  9  1  0  0  0  0
  8 35  1  0  0  0  0
  8 36  1  0  0  0  0
  9 10  1  0  0  0  0
  9 37  1  0  0  0  0
 10 11  2  0  0  0  0
 10 12  1  0  0  0  0
 12 24  1  0  0  0  0
 12 13  2  0  0  0  0
 13 14  1  0  0  0  0
 13 38  1  0  0  0  0
 14 15  2  0  0  0  0
 14 39  1  0  0  0  0
 15 16  1  0  0  0  0
 16 17  1  0  0  0  0
 16 24  2  0  0  0  0
 17 23  1  0  0  0  0
 17 18  1  0  0  0  0
 18 19  1  0  0  0  0
 18 40  1  0  0  0  0
 18 41  1  0  0  0  0
 19 20  1  0  0  0  0
 19 42  1  0  0  0  0
 19 43  1  0  0  0  0
 20 21  1  0  0  0  0
 21 22  1  0  0  0  0
 21 23  1  0  0  0  0
 21 44  1  0  0  0  0
 22 45  1  0  0  0  0
 22 46  1  0  0  0  0
 22 47  1  0  0  0  0
 23 48  1  0  0  0  0
 23 49  1  0  0  0  0
 24 50  1  0  0  0  0
M  END
> <s_m_source_file>
AV-unprocessed.smi

> <i_m_source_file_index>
748

> <i_lp_mmshare_version>
43012

> <i_f3d_flags>
0

> <s_epik_input>
W0NIM11bQ0hdKFtDSDNdKVtOSF1DKD1PKVtDSDJdW0NIMl1bTkhdQyg9TyljMVtjSF1bY0hdbmMoW2NIXTEpTjJbQ0gyXVtDSDJdT1tDQEBIXShbQ0gzXSlbQ0gyXTI=

> <s_epik_cmdline>
J2VwaWtfcHl0aG9uJywgJy1waCcsICc3LjAnLCAnLXRuJywgJzgnLCAnLW1hJywgJzIwMCcsICctbWV0YWxfYmluZGluZycsICctaW1hZScsICc8aW5maWxlLm1hZT4nLCAnLW9tYWUnLCAnPG91dGZpbGUubWFlPic=

> <r_lp_tautomer_probability>
1

> <r_epik_Ionization_Penalty>
1.38678e-05

> <r_epik_Ionization_Penalty_Charging>
0

> <r_epik_Ionization_Penalty_Neutral>
1.38678e-05

> <r_epik_State_Penalty>
-0

> <r_epik_Charging_Adjusted_Penalty>
0

> <i_epik_Tot_Q>
0

> <i_epik_Tot_abs_Q>
0

> <r_epik_Metal_State_Penalty>
-0

> <b_epik_Metal_Only>
0

> <s_lp_Force_Field>
OPLS_2005

> <r_lp_Energy>
16.8499

> <b_lp_Chiralities_Consistent>
1

> <s_lp_Variant>
AV-unprocessed.smi:748-1

> <Gold.Version>
5.8.1

> <Gold.Id.Protein>
6NUR|6NUR_protein|mol2

> <Gold.PLP.Fitness>
50.2503

> <Gold.PLP.PLP>
-45.1766

> <Gold.PLP.part.hbond>
-2.7911

> <Gold.PLP.part.metal>
0.0000

> <Gold.PLP.part.buried>
-2.5887

> <Gold.PLP.part.nonpolar>
-40.1378

> <Gold.PLP.part.repulsive>
0.9461

> <Gold.PLP.ligand.clash>
0.0000

> <Gold.PLP.ligand.torsion>
0.6960

> <Gold.PLP.Chemscore.Hbond>
2.0000

> <Gold.PLP.Chemscore.CHOScore>
0.0000

> <Gold.PLP.Chemscore.Metal>
0.0000

> <Gold.Chemscore.Hbonds>
donor molecule, donor type, donor heavy atom, donor atom, acceptor molecule, acceptor atom, score
      L1  H     4    32       P1  7948  0.57
      P1  H  7997  8009       L1    15  0.95

> <Gold.PLP.Chemscore.Internal.Correction>
0.4658

> <Gold.Rescore>
     Score         DG    S(hbond)    S(metal)    S(lipo)     H(rot)  DE(clash)    DE(int)     intcor
     18.50     -19.13       1.85        0.00     104.84       1.87       0.10       0.53       ----

> <Gold.Chemscore.Fitness>
18.4978

> <Gold.Chemscore.DG>
-19.1298

> <Gold.Chemscore.ZeroCoef>
-5.4800

> <Gold.Chemscore.Hbond>
1.8469

> <Gold.Chemscore.Metal>
0.0000

> <Gold.Chemscore.Lipo>
104.8388

> <Gold.Chemscore.Internal_Hbond>
0.0000

> <Gold.Chemscore.DEClash>
0.1033

> <Gold.Chemscore.DEInternal>
0.5287

> <Gold.Chemscore.Rot>
1.8692

> <Gold.Chemscore.Internal.Correction>
   9.000000E+99

> <Gold.Chemscore.Hbonds>
donor molecule, donor type, donor heavy atom, donor atom, acceptor molecule, acceptor atom, score
      L1  H     4    32       P1  7948  0.56
      P1  H  7997  8009       L1    15  0.21

> <Gold.Chemscore.Hbond.Weighted>
-6.1688

> <Gold.Chemscore.Metal.Weighted>
-0.0000

> <Gold.Chemscore.Lipo.Weighted>
-12.2661

> <Gold.Chemscore.Internal_Hbond.Weighted>
0.0000

> <Gold.Chemscore.DEClash.Weighted>
0.1033

> <Gold.Chemscore.DEInternal.Weighted>
0.5287

> <Gold.Chemscore.Rot.Weighted>
4.7852

> <Gold.Chemscore.Internal.Correction.Weighted>
   9.000000E+99

> <Gold.Protein.RotatedTorsions>
[ 6907 6896 6895 6894 ] final  103.80 input  -60.11 | X-H torsion
[ 7974 7965 7964 7962 ] final   78.48 input  175.53 | X-H torsion
[ 8008 7997 7996 7995 ] final -154.21 input   59.86 | X-H torsion
[ 10167 10162 10161 10158 ] final -179.96 input  -65.29 | X-H torsion
[ 10718 10713 10712 10709 ] final   43.21 input   66.30 | X-H torsion
[ 10763 10752 10751 10750 ] final   69.59 input  -60.55 | X-H torsion
[ 11005 11000 10999 10996 ] final  133.56 input  -57.11 | X-H torsion

> <Gold.Protein.ActiveResidues>
 VAL166  LYS551  ARG553  GLY616  TRP617  ASP618  TYR619  PRO620  LYS621  CYS622 
 ASP623  PHE694  ASN695  SER759  ASP760  ASP761  ALA762  ILE779  LEU786  VAL792 
 PHE793  MET794  SER795  GLU796  ALA797  LYS798  CYS799  TRP800  GLU811  SER814 

> <Gold.Protein.RotatedAtoms>
  152.5284  133.9772  159.7789 H   0  0  0  0  0  0  0  0  0  0  0  0  # atno 6907 bound_to 6896
  151.0032  133.6028  159.2699 H   0  0  0  0  0  0  0  0  0  0  0  0  # atno 6908 bound_to 6896
  151.3129  135.0805  159.9332 H   0  0  0  0  0  0  0  0  0  0  0  0  # atno 6909 bound_to 6896
  145.6766  139.2512  143.1838 H   0  0  0  0  0  0  0  0  0  0  0  0  # atno 7974 bound_to 7965
  155.6828  140.0746  157.2478 H   0  0  0  0  0  0  0  0  0  0  0  0  # atno 8008 bound_to 7997
  154.4102  140.1679  156.2053 H   0  0  0  0  0  0  0  0  0  0  0  0  # atno 8009 bound_to 7997
  155.9520  140.3376  155.6419 H   0  0  0  0  0  0  0  0  0  0  0  0  # atno 8010 bound_to 7997
  139.5363  144.2489  152.0800 H   0  0  0  0  0  0  0  0  0  0  0  0  # atno 10167 bound_to 10162
  157.4134  130.7927  149.7451 H   0  0  0  0  0  0  0  0  0  0  0  0  # atno 10718 bound_to 10713
  153.0295  135.5205  154.7311 H   0  0  0  0  0  0  0  0  0  0  0  0  # atno 10763 bound_to 10752
  154.6339  135.2903  155.0187 H   0  0  0  0  0  0  0  0  0  0  0  0  # atno 10764 bound_to 10752
  154.1129  135.6619  153.4941 H   0  0  0  0  0  0  0  0  0  0  0  0  # atno 10765 bound_to 10752
  139.9859  134.9532  156.9742 H   0  0  0  0  0  0  0  0  0  0  0  0  # atno 11005 bound_to 11000
  146.1000  140.7555  142.9554 LP  0  0  0  0  0  0  0  0  0  0  0  0  # atno 17320 bound_to 7965
  144.7039  140.3772  143.7133 LP  0  0  0  0  0  0  0  0  0  0  0  0  # atno 17321 bound_to 7965
  140.1960  144.4705  150.6455 LP  0  0  0  0  0  0  0  0  0  0  0  0  # atno 17342 bound_to 10162
  140.6570  143.2240  151.5944 LP  0  0  0  0  0  0  0  0  0  0  0  0  # atno 17343 bound_to 10162
  155.9858  130.3980  150.3245 LP  0  0  0  0  0  0  0  0  0  0  0  0  # atno 17370 bound_to 10713
  157.1386  131.0290  151.2938 LP  0  0  0  0  0  0  0  0  0  0  0  0  # atno 17371 bound_to 10713
  140.5002  134.1104  155.7249 LP  0  0  0  0  0  0  0  0  0  0  0  0  # atno 17394 bound_to 11000
  141.1524  133.8944  157.2063 LP  0  0  0  0  0  0  0  0  0  0  0  0  # atno 17395 bound_to 11000

$$$$
