AV-unprocessed.smi:2089|AV-procd|sdf|8529|dock2
  -GOLD-   2272011243D 1   1.00000     0.00000
 Structure written by MMmdl.
 39 40  0  0  0  0  0  0  0  0  1 V2000
  149.2761  137.3390  154.8054 C   0  0  0  0  0  0  0  0  0  0  0  0
  150.8673  138.0853  155.3475 S   0  0  0  0  0  0  0  0  0  0  0  0
  151.9339  137.0775  155.2475 O   0  0  0  0  0  0  0  0  0  0  0  0
  151.0189  139.3818  154.6692 O   0  0  0  0  0  0  0  0  0  0  0  0
  150.5937  138.3976  157.0295 N   0  0  0  0  0  0  0  0  0  0  0  0
  149.3073  137.9902  157.6117 C   0  0  0  0  0  0  0  0  0  0  0  0
  149.6561  137.0622  158.7706 C   0  0  0  0  0  0  0  0  0  0  0  0
  150.9840  137.6158  159.2630 C   0  0  0  0  0  0  0  0  0  0  0  0
  151.6807  138.0810  157.9732 C   0  0  2  0  0  0  0  0  0  0  0  0
  152.6511  139.2466  158.2023 C   0  0  0  0  0  0  0  0  0  0  0  0
  153.1966  139.8006  157.2472 O   0  0  0  0  0  0  0  0  0  0  0  0
  152.8756  139.5950  159.4772 N   0  0  0  0  0  0  0  0  0  0  0  0
  153.7844  140.6544  159.8911 C   0  0  0  0  0  0  0  0  0  0  0  0
  153.0997  141.6011  160.8863 C   0  0  0  0  0  0  0  0  0  0  0  0
  152.7017  142.9158  160.2426 C   0  0  0  0  0  0  0  0  0  0  0  0
  152.1456  143.9576  161.0151 C   0  0  0  0  0  0  0  0  0  0  0  0
  151.8060  145.1629  160.3704 C   0  0  0  0  0  0  0  0  0  0  0  0
  152.0355  145.2797  158.9859 C   0  0  0  0  0  0  0  0  0  0  0  0
  152.5956  144.1809  158.3045 C   0  0  0  0  0  0  0  0  0  0  0  0
  152.9243  143.0208  158.9130 N   0  0  0  0  0  0  0  0  0  0  0  0
  149.3195  137.1340  153.7359 H   0  0  0  0  0  0  0  0  0  0  0  0
  148.4612  138.0339  155.0075 H   0  0  0  0  0  0  0  0  0  0  0  0
  149.1012  136.4076  155.3430 H   0  0  0  0  0  0  0  0  0  0  0  0
  148.7918  138.8803  157.9738 H   0  0  0  0  0  0  0  0  0  0  0  0
  148.6649  137.5015  156.8789 H   0  0  0  0  0  0  0  0  0  0  0  0
  148.8892  137.0446  159.5453 H   0  0  0  0  0  0  0  0  0  0  0  0
  149.7909  136.0442  158.4031 H   0  0  0  0  0  0  0  0  0  0  0  0
  150.8003  138.4455  159.9476 H   0  0  0  0  0  0  0  0  0  0  0  0
  151.5642  136.8648  159.8002 H   0  0  0  0  0  0  0  0  0  0  0  0
  152.2315  137.2290  157.5693 H   0  0  0  0  0  0  0  0  0  0  0  0
  152.4014  139.0814  160.2059 H   0  0  0  0  0  0  0  0  0  0  0  0
  154.6700  140.2091  160.3473 H   0  0  0  0  0  0  0  0  0  0  0  0
  154.1174  141.2109  159.0133 H   0  0  0  0  0  0  0  0  0  0  0  0
  152.2091  141.1275  161.3021 H   0  0  0  0  0  0  0  0  0  0  0  0
  153.7632  141.8004  161.7290 H   0  0  0  0  0  0  0  0  0  0  0  0
  151.9857  143.8393  162.0768 H   0  0  0  0  0  0  0  0  0  0  0  0
  151.3790  145.9833  160.9277 H   0  0  0  0  0  0  0  0  0  0  0  0
  151.7893  146.1895  158.4588 H   0  0  0  0  0  0  0  0  0  0  0  0
  152.7858  144.2354  157.2428 H   0  0  0  0  0  0  0  0  0  0  0  0
  1  2  1  0  0  0  0
  1 21  1  0  0  0  0
  1 22  1  0  0  0  0
  1 23  1  0  0  0  0
  2  3  2  0  0  0  0
  2  4  2  0  0  0  0
  2  5  1  0  0  0  0
  5  9  1  0  0  0  0
  5  6  1  0  0  0  0
  6  7  1  0  0  0  0
  6 24  1  0  0  0  0
  6 25  1  0  0  0  0
  7  8  1  0  0  0  0
  7 26  1  0  0  0  0
  7 27  1  0  0  0  0
  8  9  1  0  0  0  0
  8 28  1  0  0  0  0
  8 29  1  0  0  0  0
  9 10  1  0  0  0  0
  9 30  1  0  0  0  0
 10 11  2  0  0  0  0
 10 12  1  0  0  0  0
 12 13  1  0  0  0  0
 12 31  1  0  0  0  0
 13 14  1  0  0  0  0
 13 32  1  0  0  0  0
 13 33  1  0  0  0  0
 14 15  1  0  0  0  0
 14 34  1  0  0  0  0
 14 35  1  0  0  0  0
 15 20  1  0  0  0  0
 15 16  2  0  0  0  0
 16 17  1  0  0  0  0
 16 36  1  0  0  0  0
 17 18  2  0  0  0  0
 17 37  1  0  0  0  0
 18 19  1  0  0  0  0
 18 38  1  0  0  0  0
 19 20  2  0  0  0  0
 19 39  1  0  0  0  0
M  END
> <s_m_source_file>
AV-unprocessed.smi

> <i_m_source_file_index>
2089

> <i_lp_mmshare_version>
43012

> <i_f3d_flags>
0

> <s_epik_input>
W0NIM11TKD1PKSg9TylOMVtDSDJdW0NIMl1bQ0gyXVtDQEhdMUMoPU8pW05IXVtDSDJdW0NIMl1jMltjSF1bY0hdW2NIXVtjSF1uMg==

> <s_epik_cmdline>
J2VwaWtfcHl0aG9uJywgJy1waCcsICc3LjAnLCAnLXRuJywgJzgnLCAnLW1hJywgJzIwMCcsICctbWV0YWxfYmluZGluZycsICctaW1hZScsICc8aW5maWxlLm1hZT4nLCAnLW9tYWUnLCAnPG91dGZpbGUubWFlPic=

> <r_epik_Ionization_Penalty>
0.0244371

> <r_epik_Ionization_Penalty_Charging>
0

> <r_epik_Ionization_Penalty_Neutral>
0.0244371

> <r_epik_State_Penalty>
0.0198365

> <r_epik_Charging_Adjusted_Penalty>
0.0198365

> <i_epik_Tot_Q>
0

> <i_epik_Tot_abs_Q>
0

> <r_epik_Metal_State_Penalty>
0.0190441

> <b_epik_Metal_Only>
0

> <s_lp_Force_Field>
OPLS_2005

> <r_lp_Energy>
5.6995

> <b_lp_Chiralities_Consistent>
1

> <s_lp_Variant>
AV-unprocessed.smi:2089-2

> <Gold.Version>
5.8.1

> <Gold.Id.Protein>
6NUR|6NUR_protein|mol2

> <Gold.PLP.Fitness>
46.8300

> <Gold.PLP.PLP>
-39.5311

> <Gold.PLP.part.hbond>
-2.5953

> <Gold.PLP.part.metal>
0.0000

> <Gold.PLP.part.buried>
-4.9626

> <Gold.PLP.part.nonpolar>
-32.7031

> <Gold.PLP.part.repulsive>
0.2812

> <Gold.PLP.ligand.clash>
0.1395

> <Gold.PLP.ligand.torsion>
0.8480

> <Gold.PLP.Chemscore.Hbond>
2.8892

> <Gold.PLP.Chemscore.CHOScore>
0.0000

> <Gold.PLP.Chemscore.Metal>
0.0000

> <Gold.Chemscore.Hbonds>
donor molecule, donor type, donor heavy atom, donor atom, acceptor molecule, acceptor atom, score
      P1  H  7989  7998       L1     4  1.00
      P1  H  7997  8009       L1    11  0.68
      P1  H 10752 10765       L1     3  1.00

> <Gold.PLP.Chemscore.Internal.Correction>
0.4669

> <Gold.Rescore>
     Score         DG    S(hbond)    S(metal)    S(lipo)     H(rot)  DE(clash)    DE(int)     intcor
     20.61     -21.79       2.81        0.00     100.78       1.90       0.20       0.98       ----

> <Gold.Chemscore.Fitness>
20.6080

> <Gold.Chemscore.DG>
-21.7924

> <Gold.Chemscore.ZeroCoef>
-5.4800

> <Gold.Chemscore.Hbond>
2.8091

> <Gold.Chemscore.Metal>
0.0000

> <Gold.Chemscore.Lipo>
100.7818

> <Gold.Chemscore.Internal_Hbond>
0.0000

> <Gold.Chemscore.DEClash>
0.2025

> <Gold.Chemscore.DEInternal>
0.9819

> <Gold.Chemscore.Rot>
1.8990

> <Gold.Chemscore.Internal.Correction>
   9.000000E+99

> <Gold.Chemscore.Hbonds>
donor molecule, donor type, donor heavy atom, donor atom, acceptor molecule, acceptor atom, score
      P1  H  7989  7998       L1     4  0.97
      P1  H  7997  8009       L1    11  0.67
      P1  H 10752 10765       L1     3  0.94

> <Gold.Chemscore.Hbond.Weighted>
-9.3823

> <Gold.Chemscore.Metal.Weighted>
-0.0000

> <Gold.Chemscore.Lipo.Weighted>
-11.7915

> <Gold.Chemscore.Internal_Hbond.Weighted>
0.0000

> <Gold.Chemscore.DEClash.Weighted>
0.2025

> <Gold.Chemscore.DEInternal.Weighted>
0.9819

> <Gold.Chemscore.Rot.Weighted>
4.8613

> <Gold.Chemscore.Internal.Correction.Weighted>
   9.000000E+99

> <Gold.Protein.RotatedTorsions>
[ 6907 6896 6895 6894 ] final   44.42 input  -60.11 | X-H torsion
[ 7974 7965 7964 7962 ] final  125.77 input  175.53 | X-H torsion
[ 8008 7997 7996 7995 ] final -164.89 input   59.86 | X-H torsion
[ 10167 10162 10161 10158 ] final   31.12 input  -65.29 | X-H torsion
[ 10718 10713 10712 10709 ] final  116.24 input   66.30 | X-H torsion
[ 10763 10752 10751 10750 ] final -177.75 input  -60.55 | X-H torsion
[ 11005 11000 10999 10996 ] final  152.86 input  -57.11 | X-H torsion

> <Gold.Protein.ActiveResidues>
 VAL166  LYS551  ARG553  GLY616  TRP617  ASP618  TYR619  PRO620  LYS621  CYS622 
 ASP623  PHE694  ASN695  SER759  ASP760  ASP761  ALA762  ILE779  LEU786  VAL792 
 PHE793  MET794  SER795  GLU796  ALA797  LYS798  CYS799  TRP800  GLU811  SER814 

> <Gold.Protein.RotatedAtoms>
  152.2323  134.8310  160.0471 H   0  0  0  0  0  0  0  0  0  0  0  0  # atno 6907 bound_to 6896
  151.9055  133.3543  159.3853 H   0  0  0  0  0  0  0  0  0  0  0  0  # atno 6908 bound_to 6896
  150.7029  134.4711  159.5470 H   0  0  0  0  0  0  0  0  0  0  0  0  # atno 6909 bound_to 6896
  145.0693  139.3743  143.4966 H   0  0  0  0  0  0  0  0  0  0  0  0  # atno 7974 bound_to 7965
  155.8420  140.0950  157.1728 H   0  0  0  0  0  0  0  0  0  0  0  0  # atno 8008 bound_to 7997
  154.3982  140.1399  156.3802 H   0  0  0  0  0  0  0  0  0  0  0  0  # atno 8009 bound_to 7997
  155.8054  140.3451  155.5429 H   0  0  0  0  0  0  0  0  0  0  0  0  # atno 8010 bound_to 7997
  140.4617  144.0896  150.6214 H   0  0  0  0  0  0  0  0  0  0  0  0  # atno 10167 bound_to 10162
  157.6172  131.1023  150.7445 H   0  0  0  0  0  0  0  0  0  0  0  0  # atno 10718 bound_to 10713
  154.5563  135.2816  155.0962 H   0  0  0  0  0  0  0  0  0  0  0  0  # atno 10763 bound_to 10752
  154.2388  135.6361  153.5204 H   0  0  0  0  0  0  0  0  0  0  0  0  # atno 10764 bound_to 10752
  153.0016  135.5555  154.6143 H   0  0  0  0  0  0  0  0  0  0  0  0  # atno 10765 bound_to 10752
  140.1346  134.8780  157.2249 H   0  0  0  0  0  0  0  0  0  0  0  0  # atno 11005 bound_to 11000
  146.3528  140.0430  142.8641 LP  0  0  0  0  0  0  0  0  0  0  0  0  # atno 17320 bound_to 7965
  145.1312  140.9519  143.4543 LP  0  0  0  0  0  0  0  0  0  0  0  0  # atno 17321 bound_to 7965
  140.4085  143.2668  151.9861 LP  0  0  0  0  0  0  0  0  0  0  0  0  # atno 17342 bound_to 10162
  139.4807  144.5936  151.7729 LP  0  0  0  0  0  0  0  0  0  0  0  0  # atno 17343 bound_to 10162
  156.7809  130.4859  149.5401 LP  0  0  0  0  0  0  0  0  0  0  0  0  # atno 17370 bound_to 10713
  156.1300  130.6171  151.0320 LP  0  0  0  0  0  0  0  0  0  0  0  0  # atno 17371 bound_to 10713
  140.2799  134.3362  155.7346 LP  0  0  0  0  0  0  0  0  0  0  0  0  # atno 17394 bound_to 11000
  141.2176  133.7472  156.9349 LP  0  0  0  0  0  0  0  0  0  0  0  0  # atno 17395 bound_to 11000

$$$$
