AV-unprocessed.smi:1301|AV-procd|sdf|5423|dock2
  -GOLD-   22720 4583D 1   1.00000     0.00000
 Structure written by MMmdl.
 44 45  0  0  0  0  0  0  0  0  3 V2000
  146.6600  136.2188  162.7190 C   0  0  0  0  0  0  0  0  0  0  0  0
  147.4042  136.1942  161.4276 C   0  0  0  0  0  0  0  0  0  0  0  0
  147.7939  135.1781  160.6020 C   0  0  0  0  0  0  0  0  0  0  0  0
  148.4566  135.8560  159.5427 C   0  0  0  0  0  0  0  0  0  0  0  0
  149.0347  135.2781  158.4785 N   0  5  0  0  0  0  0  0  0  0  0  0
  148.2977  134.5308  157.6257 C   0  0  0  0  0  0  0  0  0  0  0  0
  147.6365  133.5300  157.9120 O   0  0  0  0  0  0  0  0  0  0  0  0
  148.3288  134.9726  156.3602 N   0  0  0  0  0  0  0  0  0  0  0  0
  147.6343  134.3727  155.2252 C   0  0  2  0  0  0  0  0  0  0  0  0
  148.6488  133.6720  154.3085 C   0  0  0  0  0  0  0  0  0  0  0  0
  147.9662  133.1104  153.0511 C   0  0  0  0  0  0  0  0  0  0  0  0
  147.2465  134.1768  152.3081 N   0  3  1  0  0  0  0  0  0  0  0  0
  146.7023  133.6895  151.0142 C   0  0  0  0  0  0  0  0  0  0  0  0
  145.3437  132.9688  151.1571 C   0  0  0  0  0  0  0  0  0  0  0  0
  145.1700  131.9225  150.0463 C   0  0  0  0  0  0  0  0  0  0  0  0
  144.1650  133.9570  151.1510 C   0  0  0  0  0  0  0  0  0  0  0  0
  146.2284  134.8414  153.1644 C   0  0  0  0  0  0  0  0  0  0  0  0
  146.8709  135.4429  154.4244 C   0  0  0  0  0  0  0  0  0  0  0  0
  148.4810  137.1669  159.7179 N   0  0  0  0  0  0  0  0  0  0  0  0
  147.8017  137.3927  160.9211 O   0  0  0  0  0  0  0  0  0  0  0  0
  147.1442  135.5770  163.4548 H   0  0  0  0  0  0  0  0  0  0  0  0
  145.6386  135.8640  162.5810 H   0  0  0  0  0  0  0  0  0  0  0  0
  146.6146  137.2279  163.1291 H   0  0  0  0  0  0  0  0  0  0  0  0
  147.6297  134.1188  160.7322 H   0  0  0  0  0  0  0  0  0  0  0  0
  148.8840  135.7949  156.1745 H   0  0  0  0  0  0  0  0  0  0  0  0
  146.9276  133.6243  155.5890 H   0  0  0  0  0  0  0  0  0  0  0  0
  149.4299  134.3744  154.0126 H   0  0  0  0  0  0  0  0  0  0  0  0
  149.1466  132.8660  154.8491 H   0  0  0  0  0  0  0  0  0  0  0  0
  148.7236  132.6593  152.4091 H   0  0  0  0  0  0  0  0  0  0  0  0
  147.2667  132.3182  153.3231 H   0  0  0  0  0  0  0  0  0  0  0  0
  146.5672  134.5328  150.3353 H   0  0  0  0  0  0  0  0  0  0  0  0
  147.4374  133.0363  150.5413 H   0  0  0  0  0  0  0  0  0  0  0  0
  145.3213  132.4268  152.1017 H   0  0  0  0  0  0  0  0  0  0  0  0
  145.1657  132.3868  149.0595 H   0  0  0  0  0  0  0  0  0  0  0  0
  144.2320  131.3783  150.1614 H   0  0  0  0  0  0  0  0  0  0  0  0
  145.9773  131.1897  150.0658 H   0  0  0  0  0  0  0  0  0  0  0  0
  144.1354  134.5350  150.2267 H   0  0  0  0  0  0  0  0  0  0  0  0
  144.2278  134.6598  151.9820 H   0  0  0  0  0  0  0  0  0  0  0  0
  143.2137  133.4317  151.2430 H   0  0  0  0  0  0  0  0  0  0  0  0
  145.7267  135.6366  152.6149 H   0  0  0  0  0  0  0  0  0  0  0  0
  145.4594  134.1202  153.4460 H   0  0  0  0  0  0  0  0  0  0  0  0
  146.0995  135.9000  155.0453 H   0  0  0  0  0  0  0  0  0  0  0  0
  147.5511  136.2463  154.1369 H   0  0  0  0  0  0  0  0  0  0  0  0
  147.9404  134.8745  152.0803 H   0  0  0  0  0  0  0  0  0  0  0  0
  1  2  1  0  0  0  0
  1 21  1  0  0  0  0
  1 22  1  0  0  0  0
  1 23  1  0  0  0  0
  2 20  1  0  0  0  0
  2  3  2  0  0  0  0
  3  4  1  0  0  0  0
  3 24  1  0  0  0  0
  4  5  1  0  0  0  0
  4 19  2  0  0  0  0
  5  6  1  0  0  0  0
  6  7  2  0  0  0  0
  6  8  1  0  0  0  0
  8  9  1  0  0  0  0
  8 25  1  0  0  0  0
  9 18  1  0  0  0  0
  9 10  1  0  0  0  0
  9 26  1  0  0  0  0
 10 11  1  0  0  0  0
 10 27  1  0  0  0  0
 10 28  1  0  0  0  0
 11 12  1  0  0  0  0
 11 29  1  0  0  0  0
 11 30  1  0  0  0  0
 12 13  1  0  0  0  0
 12 17  1  0  0  0  0
 12 44  1  0  0  0  0
 13 14  1  0  0  0  0
 13 31  1  0  0  0  0
 13 32  1  0  0  0  0
 14 15  1  0  0  0  0
 14 16  1  0  0  0  0
 14 33  1  0  0  0  0
 15 34  1  0  0  0  0
 15 35  1  0  0  0  0
 15 36  1  0  0  0  0
 16 37  1  0  0  0  0
 16 38  1  0  0  0  0
 16 39  1  0  0  0  0
 17 18  1  0  0  0  0
 17 40  1  0  0  0  0
 17 41  1  0  0  0  0
 18 42  1  0  0  0  0
 18 43  1  0  0  0  0
 19 20  1  0  0  0  0
M  CHG  1   5  -1
M  CHG  1  12   1
M  END
> <s_m_source_file>
AV-unprocessed.smi

> <i_m_source_file_index>
1301

> <i_lp_mmshare_version>
43012

> <i_f3d_flags>
0

> <s_epik_input>
W0NIM11jMVtjSF1jKG5vMSlbTkhdQyg9TylbTkhdW0NIXTJbQ0gyXVtDSDJdTihbQ0gyXVtDSDJdMilbQ0gyXVtDSF0oW0NIM10pW0NIM10=

> <s_epik_cmdline>
J2VwaWtfcHl0aG9uJywgJy1waCcsICc3LjAnLCAnLXRuJywgJzgnLCAnLW1hJywgJzIwMCcsICctbWV0YWxfYmluZGluZycsICctaW1hZScsICc8aW5maWxlLm1hZT4nLCAnLW9tYWUnLCAnPG91dGZpbGUubWFlPic=

> <r_epik_Ionization_Penalty>
6.28597

> <r_epik_Ionization_Penalty_Charging>
6.28587

> <r_epik_Ionization_Penalty_Neutral>
9.69304e-05

> <r_epik_State_Penalty>
6.28524

> <r_epik_Charging_Adjusted_Penalty>
12.5711

> <i_epik_Tot_Q>
0

> <i_epik_Tot_abs_Q>
2

> <r_epik_Metal_State_Penalty>
2.21973

> <b_epik_Metal_Only>
1

> <s_lp_Force_Field>
OPLS_2005

> <r_lp_Energy>
7.73982

> <b_lp_Chiralities_Consistent>
1

> <s_lp_Variant>
AV-unprocessed.smi:1301-3

> <Gold.Version>
5.8.1

> <Gold.Id.Protein>
6NUR|6NUR_protein|mol2

> <Gold.PLP.Fitness>
45.7679

> <Gold.PLP.PLP>
-31.9798

> <Gold.PLP.part.hbond>
-4.3354

> <Gold.PLP.part.metal>
0.0000

> <Gold.PLP.part.buried>
-4.4710

> <Gold.PLP.part.nonpolar>
-23.2858

> <Gold.PLP.part.repulsive>
0.0318

> <Gold.PLP.ligand.clash>
0.0000

> <Gold.PLP.ligand.torsion>
1.7237

> <Gold.PLP.Chemscore.Hbond>
5.7280

> <Gold.PLP.Chemscore.CHOScore>
0.0000

> <Gold.PLP.Chemscore.Metal>
0.0000

> <Gold.Chemscore.Hbonds>
donor molecule, donor type, donor heavy atom, donor atom, acceptor molecule, acceptor atom, score
      L1  H    12    44       P1  7948  2.00
      P1  H  6896  6907       L1     5  1.22
      P1  H  6931  6943       L1    20  0.78
      P1  H  6934  6947       L1    20  0.80

> <Gold.PLP.Chemscore.Internal.Correction>
0.0515

> <Gold.Rescore>
     Score         DG    S(hbond)    S(metal)    S(lipo)     H(rot)  DE(clash)    DE(int)     intcor
     15.85     -17.77       2.37        0.00      68.02       1.41       0.04       1.88       ----

> <Gold.Chemscore.Fitness>
15.8531

> <Gold.Chemscore.DG>
-17.7701

> <Gold.Chemscore.ZeroCoef>
-5.4800

> <Gold.Chemscore.Hbond>
2.3748

> <Gold.Chemscore.Metal>
0.0000

> <Gold.Chemscore.Lipo>
68.0219

> <Gold.Chemscore.Internal_Hbond>
0.0000

> <Gold.Chemscore.DEClash>
0.0402

> <Gold.Chemscore.DEInternal>
1.8768

> <Gold.Chemscore.Rot>
1.4063

> <Gold.Chemscore.Internal.Correction>
   9.000000E+99

> <Gold.Chemscore.Hbonds>
donor molecule, donor type, donor heavy atom, donor atom, acceptor molecule, acceptor atom, score
      L1  H    12    44       P1  7948  0.55
      P1  H  6896  6907       L1     5  0.19
      P1  H  6931  6943       L1    20  0.24
      P1  H  6934  6947       L1    20  0.56

> <Gold.Chemscore.Hbond.Weighted>
-7.9317

> <Gold.Chemscore.Metal.Weighted>
-0.0000

> <Gold.Chemscore.Lipo.Weighted>
-7.9586

> <Gold.Chemscore.Internal_Hbond.Weighted>
0.0000

> <Gold.Chemscore.DEClash.Weighted>
0.0402

> <Gold.Chemscore.DEInternal.Weighted>
1.8768

> <Gold.Chemscore.Rot.Weighted>
3.6002

> <Gold.Chemscore.Internal.Correction.Weighted>
   9.000000E+99

> <Gold.Protein.RotatedTorsions>
[ 6907 6896 6895 6894 ] final  -99.87 input  -60.11 | X-H torsion
[ 7974 7965 7964 7962 ] final  -34.79 input  175.53 | X-H torsion
[ 8008 7997 7996 7995 ] final  174.39 input   59.86 | X-H torsion
[ 10167 10162 10161 10158 ] final -168.44 input  -65.29 | X-H torsion
[ 10718 10713 10712 10709 ] final  -47.55 input   66.30 | X-H torsion
[ 10763 10752 10751 10750 ] final    9.42 input  -60.55 | X-H torsion
[ 11005 11000 10999 10996 ] final  -41.23 input  -57.11 | X-H torsion

> <Gold.Protein.ActiveResidues>
 VAL166  LYS551  ARG553  GLY616  TRP617  ASP618  TYR619  PRO620  LYS621  CYS622 
 ASP623  PHE694  ASN695  SER759  ASP760  ASP761  ALA762  ILE779  LEU786  VAL792 
 PHE793  MET794  SER795  GLU796  ALA797  LYS798  CYS799  TRP800  GLU811  SER814 

> <Gold.Protein.RotatedAtoms>
  150.7095  134.0974  159.3953 H   0  0  0  0  0  0  0  0  0  0  0  0  # atno 6907 bound_to 6896
  151.8960  135.0395  160.0511 H   0  0  0  0  0  0  0  0  0  0  0  0  # atno 6908 bound_to 6896
  152.2452  133.5133  159.5330 H   0  0  0  0  0  0  0  0  0  0  0  0  # atno 6909 bound_to 6896
  146.0800  140.6081  142.8912 H   0  0  0  0  0  0  0  0  0  0  0  0  # atno 7974 bound_to 7965
  156.0979  140.1436  156.9506 H   0  0  0  0  0  0  0  0  0  0  0  0  # atno 8008 bound_to 7997
  154.4683  140.0918  156.7125 H   0  0  0  0  0  0  0  0  0  0  0  0  # atno 8009 bound_to 7997
  155.4809  140.3445  155.4342 H   0  0  0  0  0  0  0  0  0  0  0  0  # atno 8010 bound_to 7997
  139.5985  144.1061  152.1716 H   0  0  0  0  0  0  0  0  0  0  0  0  # atno 10167 bound_to 10162
  156.2073  130.4159  149.9161 H   0  0  0  0  0  0  0  0  0  0  0  0  # atno 10718 bound_to 10713
  153.2142  135.6873  153.8077 H   0  0  0  0  0  0  0  0  0  0  0  0  # atno 10763 bound_to 10752
  153.7299  135.3254  155.3285 H   0  0  0  0  0  0  0  0  0  0  0  0  # atno 10764 bound_to 10752
  154.8237  135.4633  154.0962 H   0  0  0  0  0  0  0  0  0  0  0  0  # atno 10765 bound_to 10752
  141.0231  133.6853  156.2430 H   0  0  0  0  0  0  0  0  0  0  0  0  # atno 11005 bound_to 11000
  144.7287  140.4605  143.6954 LP  0  0  0  0  0  0  0  0  0  0  0  0  # atno 17320 bound_to 7965
  145.6235  139.1527  143.3009 LP  0  0  0  0  0  0  0  0  0  0  0  0  # atno 17321 bound_to 7965
  140.0652  144.5824  150.7233 LP  0  0  0  0  0  0  0  0  0  0  0  0  # atno 17342 bound_to 10162
  140.7231  143.2608  151.4212 LP  0  0  0  0  0  0  0  0  0  0  0  0  # atno 17343 bound_to 10162
  156.6851  130.8873  151.3581 LP  0  0  0  0  0  0  0  0  0  0  0  0  # atno 17370 bound_to 10713
  157.7019  130.9342  150.0812 LP  0  0  0  0  0  0  0  0  0  0  0  0  # atno 17371 bound_to 10713
  140.6538  134.5040  157.5579 LP  0  0  0  0  0  0  0  0  0  0  0  0  # atno 17394 bound_to 11000
  139.9159  134.8248  156.1369 LP  0  0  0  0  0  0  0  0  0  0  0  0  # atno 17395 bound_to 11000

$$$$
