AV-unprocessed.smi:103|AV-procd|sdf|988|dock6
  -GOLD-   2262017563D 1   1.00000     0.00000
 Structure written by MMmdl.
 53 55  0  0  0  0  0  0  0  0  1 V2000
  147.7522  136.9033  163.3333 C   0  0  0  0  0  0  0  0  0  0  0  0
  147.1543  136.8707  161.9332 C   0  0  0  0  0  0  0  0  0  0  0  0
  146.2266  137.6129  161.6108 O   0  0  0  0  0  0  0  0  0  0  0  0
  147.7544  135.9688  161.1441 O   0  0  0  0  0  0  0  0  0  0  0  0
  147.2207  135.6897  159.8605 C   0  0  0  0  0  0  0  0  0  0  0  0
  147.9676  136.5132  158.8050 C   0  0  1  0  0  0  0  0  0  0  0  0
  149.3432  136.5844  159.1449 O   0  0  0  0  0  0  0  0  0  0  0  0
  150.0992  136.8219  158.0011 C   0  0  2  0  0  0  0  0  0  0  0  0
  150.4263  138.2912  157.9385 N   0  0  0  0  0  0  0  0  0  0  0  0
  151.6177  138.9125  158.2647 C   0  0  0  0  0  0  0  0  0  0  0  0
  153.1312  138.1126  158.7900 S   0  0  0  0  0  0  0  0  0  0  0  0
  153.7027  139.2234  160.1398 C   0  0  0  0  0  0  0  0  0  0  0  0
  152.7529  136.8106  159.3616 O   0  0  0  0  0  0  0  0  0  0  0  0
  154.0760  138.1859  157.6650 O   0  0  0  0  0  0  0  0  0  0  0  0
  151.6797  140.2031  158.0860 N   0  0  0  0  0  0  0  0  0  0  0  0
  150.3938  140.5260  157.6848 C   0  0  0  0  0  0  0  0  0  0  0  0
  149.7484  141.7445  157.3552 C   0  0  0  0  0  0  0  0  0  0  0  0
  150.3710  142.9310  157.3802 N   0  0  0  0  0  0  0  0  0  0  0  0
  148.4430  141.7120  157.0024 N   0  0  0  0  0  0  0  0  0  0  0  0
  147.8003  140.5415  156.9730 C   0  0  0  0  0  0  0  0  0  0  0  0
  148.2730  139.3243  157.2498 N   0  0  0  0  0  0  0  0  0  0  0  0
  149.5925  139.3493  157.6052 C   0  0  0  0  0  0  0  0  0  0  0  0
  149.2855  136.3367  156.7875 C   0  0  1  0  0  0  0  0  0  0  0  0
  149.9260  135.2347  156.1576 O   0  0  0  0  0  0  0  0  0  0  0  0
  150.1199  134.0906  156.8373 C   0  0  0  0  0  0  0  0  0  0  0  0
  150.8862  133.0551  156.0260 C   0  0  0  0  0  0  0  0  0  0  0  0
  149.7321  133.8539  157.9817 O   0  0  0  0  0  0  0  0  0  0  0  0
  147.9650  135.8890  157.4034 C   0  0  2  0  0  0  0  0  0  0  0  0
  146.8955  136.3913  156.6115 O   0  0  0  0  0  0  0  0  0  0  0  0
  146.7415  135.9980  155.3361 C   0  0  0  0  0  0  0  0  0  0  0  0
  145.5178  136.6247  154.6819 C   0  0  0  0  0  0  0  0  0  0  0  0
  147.4699  135.2188  154.7216 O   0  0  0  0  0  0  0  0  0  0  0  0
  147.6863  135.9186  163.7964 H   0  0  0  0  0  0  0  0  0  0  0  0
  147.2189  137.6172  163.9615 H   0  0  0  0  0  0  0  0  0  0  0  0
  148.8012  137.1967  163.2890 H   0  0  0  0  0  0  0  0  0  0  0  0
  147.3404  134.6252  159.6558 H   0  0  0  0  0  0  0  0  0  0  0  0
  146.1529  135.9117  159.8244 H   0  0  0  0  0  0  0  0  0  0  0  0
  147.5753  137.5296  158.7845 H   0  0  0  0  0  0  0  0  0  0  0  0
  151.0633  136.3245  158.0765 H   0  0  0  0  0  0  0  0  0  0  0  0
  154.6254  138.8307  160.5659 H   0  0  0  0  0  0  0  0  0  0  0  0
  152.9384  139.2749  160.9151 H   0  0  0  0  0  0  0  0  0  0  0  0
  153.8834  140.2216  159.7441 H   0  0  0  0  0  0  0  0  0  0  0  0
  151.3447  142.9825  157.6431 H   0  0  0  0  0  0  0  0  0  0  0  0
  149.8656  143.7710  157.1381 H   0  0  0  0  0  0  0  0  0  0  0  0
  146.7602  140.5851  156.6850 H   0  0  0  0  0  0  0  0  0  0  0  0
  149.1417  137.1442  156.0708 H   0  0  0  0  0  0  0  0  0  0  0  0
  151.8911  133.4157  155.8052 H   0  0  0  0  0  0  0  0  0  0  0  0
  150.3740  132.8559  155.0846 H   0  0  0  0  0  0  0  0  0  0  0  0
  150.9682  132.1193  156.5790 H   0  0  0  0  0  0  0  0  0  0  0  0
  147.9583  134.8005  157.4833 H   0  0  0  0  0  0  0  0  0  0  0  0
  145.6449  137.7041  154.5980 H   0  0  0  0  0  0  0  0  0  0  0  0
  144.6266  136.4253  155.2771 H   0  0  0  0  0  0  0  0  0  0  0  0
  145.3650  136.2149  153.6832 H   0  0  0  0  0  0  0  0  0  0  0  0
  1  2  1  0  0  0  0
  1 33  1  0  0  0  0
  1 34  1  0  0  0  0
  1 35  1  0  0  0  0
  2  3  2  0  0  0  0
  2  4  1  0  0  0  0
  4  5  1  0  0  0  0
  5  6  1  0  0  0  0
  5 36  1  0  0  0  0
  5 37  1  0  0  0  0
  6 28  1  0  0  0  0
  6  7  1  0  0  0  0
  6 38  1  0  0  0  0
  7  8  1  0  0  0  0
  8  9  1  0  0  0  0
  8 23  1  0  0  0  0
  8 39  1  0  0  0  0
  9 22  1  0  0  0  0
  9 10  1  0  0  0  0
 10 11  1  0  0  0  0
 10 15  2  0  0  0  0
 11 12  1  0  0  0  0
 11 13  2  0  0  0  0
 11 14  2  0  0  0  0
 12 40  1  0  0  0  0
 12 41  1  0  0  0  0
 12 42  1  0  0  0  0
 15 16  1  0  0  0  0
 16 22  2  0  0  0  0
 16 17  1  0  0  0  0
 17 18  1  0  0  0  0
 17 19  2  0  0  0  0
 18 43  1  0  0  0  0
 18 44  1  0  0  0  0
 19 20  1  0  0  0  0
 20 21  2  0  0  0  0
 20 45  1  0  0  0  0
 21 22  1  0  0  0  0
 23 24  1  0  0  0  0
 23 28  1  0  0  0  0
 23 46  1  0  0  0  0
 24 25  1  0  0  0  0
 25 26  1  0  0  0  0
 25 27  2  0  0  0  0
 26 47  1  0  0  0  0
 26 48  1  0  0  0  0
 26 49  1  0  0  0  0
 28 29  1  0  0  0  0
 28 50  1  0  0  0  0
 29 30  1  0  0  0  0
 30 31  1  0  0  0  0
 30 32  2  0  0  0  0
 31 51  1  0  0  0  0
 31 52  1  0  0  0  0
 31 53  1  0  0  0  0
M  END
> <s_m_source_file>
AV-unprocessed.smi

> <i_m_source_file_index>
103

> <i_lp_mmshare_version>
43012

> <i_f3d_flags>
0

> <s_epik_input>
W0NIM11DKD1PKU9bQ0gyXVtDQEBIXTFPW0NASF0oW0NAQEhdKE9DKD1PKVtDSDNdKVtDQEhdMU9DKD1PKVtDSDNdKW4oYyhuMilTKD1PKSg9TylbQ0gzXSljKGMyMyluW2NIXW5jM1tOSDJd

> <s_epik_cmdline>
J2VwaWtfcHl0aG9uJywgJy1waCcsICc3LjAnLCAnLXRuJywgJzgnLCAnLW1hJywgJzIwMCcsICctbWV0YWxfYmluZGluZycsICctaW1hZScsICc8aW5maWxlLm1hZT4nLCAnLW9tYWUnLCAnPG91dGZpbGUubWFlPic=

> <r_lp_tautomer_probability>
1

> <r_epik_Ionization_Penalty>
1.51338e-05

> <r_epik_Ionization_Penalty_Charging>
0

> <r_epik_Ionization_Penalty_Neutral>
1.51338e-05

> <r_epik_State_Penalty>
-0

> <r_epik_Charging_Adjusted_Penalty>
0

> <i_epik_Tot_Q>
0

> <i_epik_Tot_abs_Q>
0

> <r_epik_Metal_State_Penalty>
-0

> <b_epik_Metal_Only>
0

> <s_epik_Chemistry_Notes>
This compound has an ester and may undergo hydrolysis at high or low pH. This compound contains an acetal/aminal-like group ( X-CH(R)-Y where X, Y are N, S, or O) that may be acid/base labile, releasing an aldehyde.

> <s_lp_Force_Field>
OPLS_2005

> <r_lp_Energy>
13.207

> <b_lp_Chiralities_Consistent>
1

> <s_lp_Variant>
AV-unprocessed.smi:103-12

> <Gold.Version>
5.8.1

> <Gold.Id.Protein>
6NUR|6NUR_protein|mol2

> <Gold.PLP.Fitness>
42.4592

> <Gold.PLP.PLP>
-30.1139

> <Gold.PLP.part.hbond>
-5.0000

> <Gold.PLP.part.metal>
0.0000

> <Gold.PLP.part.buried>
-6.2937

> <Gold.PLP.part.nonpolar>
-18.4604

> <Gold.PLP.part.repulsive>
0.2714

> <Gold.PLP.ligand.clash>
0.0000

> <Gold.PLP.ligand.torsion>
2.1746

> <Gold.PLP.Chemscore.Hbond>
4.7920

> <Gold.PLP.Chemscore.CHOScore>
0.0000

> <Gold.PLP.Chemscore.Metal>
0.0000

> <Gold.Chemscore.Hbonds>
donor molecule, donor type, donor heavy atom, donor atom, acceptor molecule, acceptor atom, score
      L1  H    18    44       P1  8028  0.91
      P1  H  6896  6907       L1    27  1.00
      P1  H  6896  6908       L1    13  1.00
      P1  H  6934  6947       L1     3  0.96
      P1  H  7997  8009       L1    14  0.86

> <Gold.PLP.Chemscore.Internal.Correction>
2.3186

> <Gold.Rescore>
     Score         DG    S(hbond)    S(metal)    S(lipo)     H(rot)  DE(clash)    DE(int)     intcor
      8.95     -14.71       4.75        0.00      36.09       4.25       0.01       5.75       ----

> <Gold.Chemscore.Fitness>
8.9486

> <Gold.Chemscore.DG>
-14.7052

> <Gold.Chemscore.ZeroCoef>
-5.4800

> <Gold.Chemscore.Hbond>
4.7518

> <Gold.Chemscore.Metal>
0.0000

> <Gold.Chemscore.Lipo>
36.0937

> <Gold.Chemscore.Internal_Hbond>
0.0000

> <Gold.Chemscore.DEClash>
0.0073

> <Gold.Chemscore.DEInternal>
5.7493

> <Gold.Chemscore.Rot>
4.2456

> <Gold.Chemscore.Internal.Correction>
   9.000000E+99

> <Gold.Chemscore.Hbonds>
donor molecule, donor type, donor heavy atom, donor atom, acceptor molecule, acceptor atom, score
      L1  H    18    44       P1  8028  0.80
      P1  H  6896  6907       L1    27  0.99
      P1  H  6896  6908       L1    13  0.92
      P1  H  6934  6947       L1     3  0.28
      P1  H  7997  8009       L1    14  0.79

> <Gold.Chemscore.Hbond.Weighted>
-15.8709

> <Gold.Chemscore.Metal.Weighted>
-0.0000

> <Gold.Chemscore.Lipo.Weighted>
-4.2230

> <Gold.Chemscore.Internal_Hbond.Weighted>
0.0000

> <Gold.Chemscore.DEClash.Weighted>
0.0073

> <Gold.Chemscore.DEInternal.Weighted>
5.7493

> <Gold.Chemscore.Rot.Weighted>
10.8687

> <Gold.Chemscore.Internal.Correction.Weighted>
   9.000000E+99

> <Gold.Protein.RotatedTorsions>
[ 6907 6896 6895 6894 ] final -104.15 input  -60.11 | X-H torsion
[ 7974 7965 7964 7962 ] final   88.02 input  175.53 | X-H torsion
[ 8008 7997 7996 7995 ] final  150.35 input   59.86 | X-H torsion
[ 10167 10162 10161 10158 ] final  158.00 input  -65.29 | X-H torsion
[ 10718 10713 10712 10709 ] final  -75.90 input   66.30 | X-H torsion
[ 10763 10752 10751 10750 ] final  163.01 input  -60.55 | X-H torsion
[ 11005 11000 10999 10996 ] final -171.53 input  -57.11 | X-H torsion

> <Gold.Protein.ActiveResidues>
 VAL166  LYS551  ARG553  GLY616  TRP617  ASP618  TYR619  PRO620  LYS621  CYS622 
 ASP623  PHE694  ASN695  SER759  ASP760  ASP761  ALA762  ILE779  LEU786  VAL792 
 PHE793  MET794  SER795  GLU796  ALA797  LYS798  CYS799  TRP800  GLU811  SER814 

> <Gold.Protein.RotatedAtoms>
  150.7274  134.0321  159.3736 H   0  0  0  0  0  0  0  0  0  0  0  0  # atno 6907 bound_to 6896
  151.8290  135.0625  160.0444 H   0  0  0  0  0  0  0  0  0  0  0  0  # atno 6908 bound_to 6896
  152.2947  133.5560  159.5616 H   0  0  0  0  0  0  0  0  0  0  0  0  # atno 6909 bound_to 6896
  145.5513  139.2296  143.2511 H   0  0  0  0  0  0  0  0  0  0  0  0  # atno 7974 bound_to 7965
  156.2719  140.2077  156.6003 H   0  0  0  0  0  0  0  0  0  0  0  0  # atno 8008 bound_to 7997
  154.6912  140.0530  157.0388 H   0  0  0  0  0  0  0  0  0  0  0  0  # atno 8009 bound_to 7997
  155.0864  140.3192  155.4589 H   0  0  0  0  0  0  0  0  0  0  0  0  # atno 8010 bound_to 7997
  139.4825  144.4865  151.8370 H   0  0  0  0  0  0  0  0  0  0  0  0  # atno 10167 bound_to 10162
  156.0192  130.4452  150.3113 H   0  0  0  0  0  0  0  0  0  0  0  0  # atno 10718 bound_to 10713
  154.2872  135.2762  155.2671 H   0  0  0  0  0  0  0  0  0  0  0  0  # atno 10763 bound_to 10752
  154.5166  135.5768  153.6650 H   0  0  0  0  0  0  0  0  0  0  0  0  # atno 10764 bound_to 10752
  152.9920  135.6194  154.3035 H   0  0  0  0  0  0  0  0  0  0  0  0  # atno 10765 bound_to 10752
  140.5072  134.5837  157.5007 H   0  0  0  0  0  0  0  0  0  0  0  0  # atno 11005 bound_to 11000
  146.1915  140.6336  142.9143 LP  0  0  0  0  0  0  0  0  0  0  0  0  # atno 17320 bound_to 7965
  144.7528  140.5233  143.6790 LP  0  0  0  0  0  0  0  0  0  0  0  0  # atno 17321 bound_to 7965
  140.4345  144.2070  150.5889 LP  0  0  0  0  0  0  0  0  0  0  0  0  # atno 17342 bound_to 10162
  140.4746  143.2401  151.9042 LP  0  0  0  0  0  0  0  0  0  0  0  0  # atno 17343 bound_to 10162
  157.1215  131.0248  151.3007 LP  0  0  0  0  0  0  0  0  0  0  0  0  # atno 17370 bound_to 10713
  157.4624  130.7661  149.7248 LP  0  0  0  0  0  0  0  0  0  0  0  0  # atno 17371 bound_to 10713
  139.9679  134.7341  156.0100 LP  0  0  0  0  0  0  0  0  0  0  0  0  # atno 17394 bound_to 11000
  141.1405  133.6566  156.3715 LP  0  0  0  0  0  0  0  0  0  0  0  0  # atno 17395 bound_to 11000

$$$$
