AV-unprocessed.smi:69|AV-procd|sdf|650|dock1
  -GOLD-   2262016543D 1   1.00000     0.00000
 Structure written by MMmdl.
 32 34  0  0  0  0  0  0  0  0  1 V2000
  153.1749  142.6692  160.7850 N   0  0  0  0  0  0  0  0  0  0  0  0
  152.9040  141.5911  160.0368 C   0  0  0  0  0  0  0  0  0  0  0  0
  153.6914  140.4979  160.1731 N   0  0  0  0  0  0  0  0  0  0  0  0
  153.4434  139.4103  159.4350 C   0  0  0  0  0  0  0  0  0  0  0  0
  152.4823  139.2166  158.5270 N   0  0  0  0  0  0  0  0  0  0  0  0
  151.6901  140.3206  158.3956 C   0  0  0  0  0  0  0  0  0  0  0  0
  151.8337  141.5423  159.1081 C   0  0  0  0  0  0  0  0  0  0  0  0
  150.8520  142.4403  158.7085 N   0  0  0  0  0  0  0  0  0  0  0  0
  150.1698  141.7814  157.8095 C   0  0  0  0  0  0  0  0  0  0  0  0
  150.6076  140.4972  157.5639 N   0  0  0  0  0  0  0  0  0  0  0  0
  150.0662  139.4881  156.6047 C   0  0  1  0  0  0  0  0  0  0  0  0
  148.9726  140.0376  155.9481 O   0  0  0  0  0  0  0  0  0  0  0  0
  148.8104  139.3705  154.7020 C   0  0  1  0  0  0  0  0  0  0  0  0
  148.2618  140.3593  153.6578 C   0  0  0  0  0  0  0  0  0  0  0  0
  149.2076  141.3563  153.3299 O   0  0  0  0  0  0  0  0  0  0  0  0
  150.1620  138.7036  154.3631 C   0  0  2  0  0  0  0  0  0  0  0  0
  150.0032  137.2975  154.3520 O   0  0  0  0  0  0  0  0  0  0  0  0
  151.0767  139.1087  155.5145 C   0  0  1  0  0  0  0  0  0  0  0  0
  151.9187  140.1843  155.1396 O   0  0  0  0  0  0  0  0  0  0  0  0
  149.7462  138.6388  157.2114 H   0  0  0  0  0  0  0  0  0  0  0  0
  148.0508  138.6045  154.8696 H   0  0  0  0  0  0  0  0  0  0  0  0
  150.5617  139.0060  153.3942 H   0  0  0  0  0  0  0  0  0  0  0  0
  151.7089  138.2927  155.8680 H   0  0  0  0  0  0  0  0  0  0  0  0
  152.6022  143.4967  160.6992 H   0  0  0  0  0  0  0  0  0  0  0  0
  153.9509  142.6532  161.4308 H   0  0  0  0  0  0  0  0  0  0  0  0
  154.1107  138.5762  159.5936 H   0  0  0  0  0  0  0  0  0  0  0  0
  149.3270  142.2185  157.2933 H   0  0  0  0  0  0  0  0  0  0  0  0
  148.0096  139.8241  152.7422 H   0  0  0  0  0  0  0  0  0  0  0  0
  147.3452  140.8285  154.0165 H   0  0  0  0  0  0  0  0  0  0  0  0
  149.7537  141.5137  154.0850 H   0  0  0  0  0  0  0  0  0  0  0  0
  149.4246  137.0668  153.6411 H   0  0  0  0  0  0  0  0  0  0  0  0
  152.4892  140.3815  155.8669 H   0  0  0  0  0  0  0  0  0  0  0  0
  1  2  1  0  0  0  0
  1 24  1  0  0  0  0
  1 25  1  0  0  0  0
  2  7  1  0  0  0  0
  2  3  2  0  0  0  0
  3  4  1  0  0  0  0
  4  5  2  0  0  0  0
  4 26  1  0  0  0  0
  5  6  1  0  0  0  0
  6 10  1  0  0  0  0
  6  7  2  0  0  0  0
  7  8  1  0  0  0  0
  8  9  2  0  0  0  0
  9 10  1  0  0  0  0
  9 27  1  0  0  0  0
 10 11  1  0  0  0  0
 11 20  1  0  0  0  0
 11 18  1  0  0  0  0
 11 12  1  0  0  0  0
 12 13  1  0  0  0  0
 13 21  1  0  0  0  0
 13 14  1  0  0  0  0
 13 16  1  0  0  0  0
 14 15  1  0  0  0  0
 14 28  1  0  0  0  0
 14 29  1  0  0  0  0
 15 30  1  0  0  0  0
 16 22  1  0  0  0  0
 16 17  1  0  0  0  0
 16 18  1  0  0  0  0
 17 31  1  0  0  0  0
 18 23  1  0  0  0  0
 18 19  1  0  0  0  0
 19 32  1  0  0  0  0
M  END
> <s_m_source_file>
AV-unprocessed.smi

> <i_m_source_file_index>
69

> <i_lp_mmshare_version>
43012

> <i_f3d_flags>
0

> <s_epik_input>
bjFbY0hdbmMoW05IMl0pYyhjMTIpbltjSF1uMltDQEBIXTNPW0NASF0oW0NIMl1bT0hdKVtDQEBIXShbT0hdKVtDQEhdM1tPSF0=

> <s_epik_cmdline>
J2VwaWtfcHl0aG9uJywgJy1waCcsICc3LjAnLCAnLXRuJywgJzgnLCAnLW1hJywgJzIwMCcsICctbWV0YWxfYmluZGluZycsICctaW1hZScsICc8aW5maWxlLm1hZT4nLCAnLW9tYWUnLCAnPG91dGZpbGUubWFlPic=

> <r_lp_tautomer_probability>
1

> <r_epik_Ionization_Penalty>
0.000428445

> <r_epik_Ionization_Penalty_Charging>
0

> <r_epik_Ionization_Penalty_Neutral>
0.000428445

> <r_epik_State_Penalty>
-0

> <r_epik_Charging_Adjusted_Penalty>
0

> <i_epik_Tot_Q>
0

> <i_epik_Tot_abs_Q>
0

> <r_epik_Metal_State_Penalty>
-0

> <b_epik_Metal_Only>
0

> <s_epik_Chemistry_Notes>
This compound contains an acetal/aminal-like group ( X-CH(R)-Y where X, Y are N, S, or O) that may be acid/base labile, releasing an aldehyde.

> <s_lp_Force_Field>
OPLS_2005

> <r_lp_Energy>
41.0304

> <b_lp_Chiralities_Consistent>
1

> <s_lp_Variant>
AV-unprocessed.smi:69-8

> <Gold.Version>
5.8.1

> <Gold.Id.Protein>
6NUR|6NUR_protein|mol2

> <Gold.PLP.Fitness>
36.5247

> <Gold.PLP.PLP>
-28.1374

> <Gold.PLP.part.hbond>
-4.8794

> <Gold.PLP.part.metal>
0.0000

> <Gold.PLP.part.buried>
-3.6018

> <Gold.PLP.part.nonpolar>
-19.3734

> <Gold.PLP.part.repulsive>
0.0995

> <Gold.PLP.ligand.clash>
0.0000

> <Gold.PLP.ligand.torsion>
0.0345

> <Gold.PLP.Chemscore.Hbond>
2.8160

> <Gold.PLP.Chemscore.CHOScore>
0.0000

> <Gold.PLP.Chemscore.Metal>
0.0000

> <Gold.Chemscore.Hbonds>
donor molecule, donor type, donor heavy atom, donor atom, acceptor molecule, acceptor atom, score
      L1  H    17    31       P1  7948  1.00
      P1  H  7989  7998       L1    19  0.82
      P1  H  8011  8017       L1    15  1.00

> <Gold.PLP.Chemscore.Internal.Correction>
0.0082

> <Gold.Rescore>
     Score         DG    S(hbond)    S(metal)    S(lipo)     H(rot)  DE(clash)    DE(int)     intcor
      5.68      -6.27       2.16        0.00      33.15       4.03       0.57       0.01       ----

> <Gold.Chemscore.Fitness>
5.6818

> <Gold.Chemscore.DG>
-6.2713

> <Gold.Chemscore.ZeroCoef>
-5.4800

> <Gold.Chemscore.Hbond>
2.1628

> <Gold.Chemscore.Metal>
0.0000

> <Gold.Chemscore.Lipo>
33.1501

> <Gold.Chemscore.Internal_Hbond>
0.0000

> <Gold.Chemscore.DEClash>
0.5748

> <Gold.Chemscore.DEInternal>
0.0147

> <Gold.Chemscore.Rot>
4.0277

> <Gold.Chemscore.Internal.Correction>
   9.000000E+99

> <Gold.Chemscore.Hbonds>
donor molecule, donor type, donor heavy atom, donor atom, acceptor molecule, acceptor atom, score
      L1  H    17    31       P1  7948  0.88
      P1  H  7989  7998       L1    19  0.77
      P1  H  8011  8017       L1    15  0.27

> <Gold.Chemscore.Hbond.Weighted>
-7.2237

> <Gold.Chemscore.Metal.Weighted>
-0.0000

> <Gold.Chemscore.Lipo.Weighted>
-3.8786

> <Gold.Chemscore.Internal_Hbond.Weighted>
0.0000

> <Gold.Chemscore.DEClash.Weighted>
0.5748

> <Gold.Chemscore.DEInternal.Weighted>
0.0147

> <Gold.Chemscore.Rot.Weighted>
10.3110

> <Gold.Chemscore.Internal.Correction.Weighted>
   9.000000E+99

> <Gold.Protein.RotatedTorsions>
[ 6907 6896 6895 6894 ] final  148.83 input  -60.11 | X-H torsion
[ 7974 7965 7964 7962 ] final   21.10 input  175.53 | X-H torsion
[ 8008 7997 7996 7995 ] final  149.96 input   59.86 | X-H torsion
[ 10167 10162 10161 10158 ] final  114.53 input  -65.29 | X-H torsion
[ 10718 10713 10712 10709 ] final  100.47 input   66.30 | X-H torsion
[ 10763 10752 10751 10750 ] final   53.70 input  -60.55 | X-H torsion
[ 11005 11000 10999 10996 ] final  101.82 input  -57.11 | X-H torsion

> <Gold.Protein.ActiveResidues>
 VAL166  LYS551  ARG553  GLY616  TRP617  ASP618  TYR619  PRO620  LYS621  CYS622 
 ASP623  PHE694  ASN695  SER759  ASP760  ASP761  ALA762  ILE779  LEU786  VAL792 
 PHE793  MET794  SER795  GLU796  ALA797  LYS798  CYS799  TRP800  GLU811  SER814 

> <Gold.Protein.RotatedAtoms>
  152.1362  133.4437  159.4744 H   0  0  0  0  0  0  0  0  0  0  0  0  # atno 6907 bound_to 6896
  150.6882  134.2360  159.4462 H   0  0  0  0  0  0  0  0  0  0  0  0  # atno 6908 bound_to 6896
  152.0248  134.9801  160.0622 H   0  0  0  0  0  0  0  0  0  0  0  0  # atno 6909 bound_to 6896
  146.2085  139.8075  142.8707 H   0  0  0  0  0  0  0  0  0  0  0  0  # atno 7974 bound_to 7965
  156.2735  140.2087  156.5941 H   0  0  0  0  0  0  0  0  0  0  0  0  # atno 8008 bound_to 7997
  154.6959  140.0525  157.0433 H   0  0  0  0  0  0  0  0  0  0  0  0  # atno 8009 bound_to 7997
  155.0802  140.3186  155.4607 H   0  0  0  0  0  0  0  0  0  0  0  0  # atno 8010 bound_to 7997
  139.6382  144.7121  151.2292 H   0  0  0  0  0  0  0  0  0  0  0  0  # atno 10167 bound_to 10162
  157.6853  131.0699  150.5106 H   0  0  0  0  0  0  0  0  0  0  0  0  # atno 10718 bound_to 10713
  152.9797  135.5770  154.4785 H   0  0  0  0  0  0  0  0  0  0  0  0  # atno 10763 bound_to 10752
  154.4337  135.2774  155.1897 H   0  0  0  0  0  0  0  0  0  0  0  0  # atno 10764 bound_to 10752
  154.3594  135.6192  153.5737 H   0  0  0  0  0  0  0  0  0  0  0  0  # atno 10765 bound_to 10752
  139.8775  134.9199  156.4964 H   0  0  0  0  0  0  0  0  0  0  0  0  # atno 11005 bound_to 11000
  145.3231  141.0249  143.3489 LP  0  0  0  0  0  0  0  0  0  0  0  0  # atno 17320 bound_to 7965
  144.8852  139.4849  143.6704 LP  0  0  0  0  0  0  0  0  0  0  0  0  # atno 17321 bound_to 7965
  140.7476  143.6359  150.8379 LP  0  0  0  0  0  0  0  0  0  0  0  0  # atno 17342 bound_to 10162
  139.9993  143.5761  152.2881 LP  0  0  0  0  0  0  0  0  0  0  0  0  # atno 17343 bound_to 10162
  156.5423  130.4211  149.6148 LP  0  0  0  0  0  0  0  0  0  0  0  0  # atno 17370 bound_to 10713
  156.2974  130.7158  151.2021 LP  0  0  0  0  0  0  0  0  0  0  0  0  # atno 17371 bound_to 10713
  140.8621  133.8052  155.9276 LP  0  0  0  0  0  0  0  0  0  0  0  0  # atno 17394 bound_to 11000
  140.9039  134.2344  157.5026 LP  0  0  0  0  0  0  0  0  0  0  0  0  # atno 17395 bound_to 11000

$$$$
