AV-unprocessed.smi:1274|AV-procd|sdf|5341|dock6
  -GOLD-   22720 4473D 1   1.00000     0.00000
 Structure written by MMmdl.
 36 37  0  0  0  0  0  0  0  0  2 V2000
  151.1917  139.4870  159.1301 O   0  0  0  0  0  0  0  0  0  0  0  0
  152.4128  139.9991  158.4870 S   0  0  0  0  0  0  0  0  0  0  0  0
  153.7093  139.6090  159.0657 O   0  0  0  0  0  0  0  0  0  0  0  0
  152.3542  139.8966  156.8716 N   0  5  0  0  0  0  0  0  0  0  0  0
  151.0927  139.5873  156.2218 C   0  0  0  0  0  0  0  0  0  0  0  0
  150.7199  140.7095  155.2283 C   0  0  0  0  0  0  0  0  0  0  0  0
  149.3224  140.5878  154.6278 C   0  0  0  0  0  0  0  0  0  0  0  0
  148.8347  139.3442  154.1691 C   0  0  0  0  0  0  0  0  0  0  0  0
  147.5406  139.2804  153.6182 C   0  0  0  0  0  0  0  0  0  0  0  0
  146.7860  140.4677  153.5430 C   0  0  0  0  0  0  0  0  0  0  0  0
  147.2412  141.6653  153.9696 N   0  0  0  0  0  0  0  0  0  0  0  0
  148.4824  141.7166  154.4998 C   0  0  0  0  0  0  0  0  0  0  0  0
  152.3484  141.7339  158.5988 N   0  0  0  0  0  0  0  0  0  0  0  0
  151.3279  142.4227  157.7813 C   0  0  0  0  0  0  0  0  0  0  0  0
  151.6111  143.9309  157.6724 C   0  0  0  0  0  0  0  0  0  0  0  0
  151.7493  144.5735  159.0546 C   0  0  0  0  0  0  0  0  0  0  0  0
  152.8412  143.8438  159.8408 C   0  0  0  0  0  0  0  0  0  0  0  0
  152.5430  142.3394  159.9374 C   0  0  0  0  0  0  0  0  0  0  0  0
  151.1320  138.6397  155.6833 H   0  0  0  0  0  0  0  0  0  0  0  0
  150.2896  139.4812  156.9515 H   0  0  0  0  0  0  0  0  0  0  0  0
  150.7888  141.6719  155.7365 H   0  0  0  0  0  0  0  0  0  0  0  0
  151.4521  140.7490  154.4203 H   0  0  0  0  0  0  0  0  0  0  0  0
  149.4407  138.4530  154.2453 H   0  0  0  0  0  0  0  0  0  0  0  0
  147.1365  138.3439  153.2638 H   0  0  0  0  0  0  0  0  0  0  0  0
  145.7899  140.4554  153.1260 H   0  0  0  0  0  0  0  0  0  0  0  0
  148.8155  142.6886  154.8326 H   0  0  0  0  0  0  0  0  0  0  0  0
  151.3050  141.9954  156.7793 H   0  0  0  0  0  0  0  0  0  0  0  0
  150.3459  142.2493  158.2226 H   0  0  0  0  0  0  0  0  0  0  0  0
  152.5276  144.0886  157.1023 H   0  0  0  0  0  0  0  0  0  0  0  0
  150.8120  144.4185  157.1136 H   0  0  0  0  0  0  0  0  0  0  0  0
  151.9952  145.6313  158.9574 H   0  0  0  0  0  0  0  0  0  0  0  0
  150.8010  144.5157  159.5902 H   0  0  0  0  0  0  0  0  0  0  0  0
  153.8072  143.9935  159.3568 H   0  0  0  0  0  0  0  0  0  0  0  0
  152.9273  144.2691  160.8409 H   0  0  0  0  0  0  0  0  0  0  0  0
  151.6452  142.1704  160.5331 H   0  0  0  0  0  0  0  0  0  0  0  0
  153.3602  141.8475  160.4637 H   0  0  0  0  0  0  0  0  0  0  0  0
  1  2  2  0  0  0  0
  2  3  2  0  0  0  0
  2  4  1  0  0  0  0
  2 13  1  0  0  0  0
  4  5  1  0  0  0  0
  5  6  1  0  0  0  0
  5 19  1  0  0  0  0
  5 20  1  0  0  0  0
  6  7  1  0  0  0  0
  6 21  1  0  0  0  0
  6 22  1  0  0  0  0
  7 12  1  0  0  0  0
  7  8  2  0  0  0  0
  8  9  1  0  0  0  0
  8 23  1  0  0  0  0
  9 10  2  0  0  0  0
  9 24  1  0  0  0  0
 10 11  1  0  0  0  0
 10 25  1  0  0  0  0
 11 12  2  0  0  0  0
 12 26  1  0  0  0  0
 13 18  1  0  0  0  0
 13 14  1  0  0  0  0
 14 15  1  0  0  0  0
 14 27  1  0  0  0  0
 14 28  1  0  0  0  0
 15 16  1  0  0  0  0
 15 29  1  0  0  0  0
 15 30  1  0  0  0  0
 16 17  1  0  0  0  0
 16 31  1  0  0  0  0
 16 32  1  0  0  0  0
 17 18  1  0  0  0  0
 17 33  1  0  0  0  0
 17 34  1  0  0  0  0
 18 35  1  0  0  0  0
 18 36  1  0  0  0  0
M  CHG  1   4  -1
M  END
> <s_m_source_file>
AV-unprocessed.smi

> <i_m_source_file_index>
1274

> <i_lp_mmshare_version>
43012

> <i_f3d_flags>
0

> <s_epik_input>
W0NIMl0xW0NIMl1bQ0gyXVtDSDJdW0NIMl1OMVMoPU8pKD1PKVtOSF1bQ0gyXVtDSDJdYzJbY0hdW2NIXVtjSF1uW2NIXTI=

> <s_epik_cmdline>
J2VwaWtfcHl0aG9uJywgJy1waCcsICc3LjAnLCAnLXRuJywgJzgnLCAnLW1hJywgJzIwMCcsICctbWV0YWxfYmluZGluZycsICctaW1hZScsICc8aW5maWxlLm1hZT4nLCAnLW9tYWUnLCAnPG91dGZpbGUubWFlPic=

> <r_epik_Ionization_Penalty>
1.98317

> <r_epik_Ionization_Penalty_Charging>
1.95606

> <r_epik_Ionization_Penalty_Neutral>
0.027117

> <r_epik_State_Penalty>
2.28376

> <r_epik_Charging_Adjusted_Penalty>
4.23982

> <i_epik_Tot_Q>
-1

> <i_epik_Tot_abs_Q>
1

> <r_epik_Metal_State_Penalty>
0.598332

> <b_epik_Metal_Only>
0

> <s_lp_Force_Field>
OPLS_2005

> <r_lp_Energy>
4.69546

> <b_lp_Chiralities_Consistent>
1

> <s_lp_Variant>
AV-unprocessed.smi:1274-2

> <Gold.Version>
5.8.1

> <Gold.Id.Protein>
6NUR|6NUR_protein|mol2

> <Gold.PLP.Fitness>
47.8435

> <Gold.PLP.PLP>
-36.3130

> <Gold.PLP.part.hbond>
-1.5376

> <Gold.PLP.part.metal>
0.0000

> <Gold.PLP.part.buried>
-0.3475

> <Gold.PLP.part.nonpolar>
-34.1184

> <Gold.PLP.part.repulsive>
0.1655

> <Gold.PLP.ligand.clash>
0.0000

> <Gold.PLP.ligand.torsion>
1.0222

> <Gold.PLP.Chemscore.Hbond>
2.0000

> <Gold.PLP.Chemscore.CHOScore>
2.0000

> <Gold.PLP.Chemscore.Metal>
0.0000

> <Gold.Chemscore.Hbonds>
donor molecule, donor type, donor heavy atom, donor atom, acceptor molecule, acceptor atom, score
      P1  H  7997  8008       L1     4  1.85
      L1  C    10    25       P1 10175  1.00
      L1  C    12    26       P1  8028  1.00

> <Gold.PLP.Chemscore.Internal.Correction>
1.5749

> <Gold.Rescore>
     Score         DG    S(hbond)    S(metal)    S(lipo)     H(rot)  DE(clash)    DE(int)     intcor
     14.27     -16.12       0.78        0.00     100.45       1.45       0.84       1.01       ----

> <Gold.Chemscore.Fitness>
14.2682

> <Gold.Chemscore.DG>
-16.1213

> <Gold.Chemscore.ZeroCoef>
-5.4800

> <Gold.Chemscore.Hbond>
0.7821

> <Gold.Chemscore.Metal>
0.0000

> <Gold.Chemscore.Lipo>
100.4458

> <Gold.Chemscore.Internal_Hbond>
0.0000

> <Gold.Chemscore.DEClash>
0.8444

> <Gold.Chemscore.DEInternal>
1.0087

> <Gold.Chemscore.Rot>
1.4544

> <Gold.Chemscore.Internal.Correction>
   9.000000E+99

> <Gold.Chemscore.Hbonds>
donor molecule, donor type, donor heavy atom, donor atom, acceptor molecule, acceptor atom, score
      P1  H  7997  8008       L1     4  0.30

> <Gold.Chemscore.Hbond.Weighted>
-2.6123

> <Gold.Chemscore.Metal.Weighted>
-0.0000

> <Gold.Chemscore.Lipo.Weighted>
-11.7522

> <Gold.Chemscore.Internal_Hbond.Weighted>
0.0000

> <Gold.Chemscore.DEClash.Weighted>
0.8444

> <Gold.Chemscore.DEInternal.Weighted>
1.0087

> <Gold.Chemscore.Rot.Weighted>
3.7232

> <Gold.Chemscore.Internal.Correction.Weighted>
   9.000000E+99

> <Gold.Protein.RotatedTorsions>
[ 6907 6896 6895 6894 ] final -121.75 input  -60.11 | X-H torsion
[ 7974 7965 7964 7962 ] final  -28.41 input  175.53 | X-H torsion
[ 8008 7997 7996 7995 ] final  -42.41 input   59.86 | X-H torsion
[ 10167 10162 10161 10158 ] final -147.02 input  -65.29 | X-H torsion
[ 10718 10713 10712 10709 ] final  143.64 input   66.30 | X-H torsion
[ 10763 10752 10751 10750 ] final    4.94 input  -60.55 | X-H torsion
[ 11005 11000 10999 10996 ] final  103.71 input  -57.11 | X-H torsion

> <Gold.Protein.ActiveResidues>
 VAL166  LYS551  ARG553  GLY616  TRP617  ASP618  TYR619  PRO620  LYS621  CYS622 
 ASP623  PHE694  ASN695  SER759  ASP760  ASP761  ALA762  ILE779  LEU786  VAL792 
 PHE793  MET794  SER795  GLU796  ALA797  LYS798  CYS799  TRP800  GLU811  SER814 

> <Gold.Protein.RotatedAtoms>
  150.8512  133.7784  159.3024 H   0  0  0  0  0  0  0  0  0  0  0  0  # atno 6907 bound_to 6896
  151.5455  135.1066  159.9946 H   0  0  0  0  0  0  0  0  0  0  0  0  # atno 6908 bound_to 6896
  152.4554  133.7669  159.6833 H   0  0  0  0  0  0  0  0  0  0  0  0  # atno 6909 bound_to 6896
  146.1290  140.5279  142.8702 H   0  0  0  0  0  0  0  0  0  0  0  0  # atno 7974 bound_to 7965
  154.3999  140.1474  156.3351 H   0  0  0  0  0  0  0  0  0  0  0  0  # atno 8008 bound_to 7997
  155.8408  140.3462  155.5609 H   0  0  0  0  0  0  0  0  0  0  0  0  # atno 8009 bound_to 7997
  155.8089  140.0881  157.1905 H   0  0  0  0  0  0  0  0  0  0  0  0  # atno 8010 bound_to 7997
  139.7660  143.8308  152.2616 H   0  0  0  0  0  0  0  0  0  0  0  0  # atno 10167 bound_to 10162
  157.3666  131.0973  151.0867 H   0  0  0  0  0  0  0  0  0  0  0  0  # atno 10718 bound_to 10713
  153.2652  135.6927  153.7537 H   0  0  0  0  0  0  0  0  0  0  0  0  # atno 10763 bound_to 10752
  153.6581  135.3365  155.3120 H   0  0  0  0  0  0  0  0  0  0  0  0  # atno 10764 bound_to 10752
  154.8445  135.4470  154.1656 H   0  0  0  0  0  0  0  0  0  0  0  0  # atno 10765 bound_to 10752
  139.8786  134.9273  156.5251 H   0  0  0  0  0  0  0  0  0  0  0  0  # atno 11005 bound_to 11000
  144.7671  140.5555  143.6695 LP  0  0  0  0  0  0  0  0  0  0  0  0  # atno 17320 bound_to 7965
  145.5302  139.1475  143.3504 LP  0  0  0  0  0  0  0  0  0  0  0  0  # atno 17321 bound_to 7965
  139.8328  144.7246  150.9429 LP  0  0  0  0  0  0  0  0  0  0  0  0  # atno 17342 bound_to 10162
  140.7811  143.4054  151.1079 LP  0  0  0  0  0  0  0  0  0  0  0  0  # atno 17343 bound_to 10162
  157.1987  130.6384  149.5730 LP  0  0  0  0  0  0  0  0  0  0  0  0  # atno 17370 bound_to 10713
  155.9747  130.4698  150.6408 LP  0  0  0  0  0  0  0  0  0  0  0  0  # atno 17371 bound_to 10713
  140.8422  133.8196  155.9086 LP  0  0  0  0  0  0  0  0  0  0  0  0  # atno 17394 bound_to 11000
  140.9226  134.2122  157.4916 LP  0  0  0  0  0  0  0  0  0  0  0  0  # atno 17395 bound_to 11000

$$$$
