AV-unprocessed.smi:1701|AV-procd|sdf|6843|dock4
  -GOLD-   22720 8 23D 1   1.00000     0.00000
 Structure written by MMmdl.
 54 56  0  0  0  0  0  0  0  0  4 V2000
  143.7122  132.7614  148.7482 C   0  0  0  0  0  0  0  0  0  0  0  0
  143.5796  132.4658  150.2497 C   0  0  0  0  0  0  0  0  0  0  0  0
  144.7702  132.8290  151.0182 N   0  0  0  0  0  0  0  0  0  0  0  0
  145.8680  131.8668  151.1423 C   0  0  0  0  0  0  0  0  0  0  0  0
  145.4119  130.4889  151.6464 C   0  0  0  0  0  0  0  0  0  0  0  0
  144.9436  134.1583  151.4756 C   0  0  0  0  0  0  0  0  0  0  0  0
  144.3794  135.2890  150.8337 C   0  0  0  0  0  0  0  0  0  0  0  0
  144.6006  136.5790  151.3569 C   0  0  0  0  0  0  0  0  0  0  0  0
  145.3817  136.7468  152.5185 C   0  0  0  0  0  0  0  0  0  0  0  0
  145.5594  138.0791  152.9884 N   0  0  0  0  0  0  0  0  0  0  0  0
  146.4872  138.6118  153.8224 C   0  0  0  0  0  0  0  0  0  0  0  0
  147.3652  137.8926  154.2917 O   0  0  0  0  0  0  0  0  0  0  0  0
  146.4373  139.9437  154.1263 N   0  5  0  0  0  0  0  0  0  0  0  0
  147.4043  141.0131  153.8223 C   0  0  2  0  0  0  0  0  0  0  0  0
  148.7574  140.6838  154.4633 C   0  0  0  0  0  0  0  0  0  0  0  0
  148.6704  141.2073  155.9101 C   0  0  0  0  0  0  0  0  0  0  0  0
  147.5387  142.1687  155.9648 N   0  3  2  0  0  0  0  0  0  0  0  0
  146.5158  141.7925  156.9834 C   0  0  0  0  0  0  0  0  0  0  0  0
  145.2433  142.6403  156.8745 C   0  0  0  0  0  0  0  0  0  0  0  0
  144.6230  142.4717  155.4862 C   0  0  0  0  0  0  0  0  0  0  0  0
  145.6244  142.9313  154.4182 C   0  0  0  0  0  0  0  0  0  0  0  0
  147.0445  142.3162  154.5669 C   0  0  2  0  0  0  0  0  0  0  0  0
  145.9216  135.5881  153.1265 C   0  0  0  0  0  0  0  0  0  0  0  0
  145.6846  134.3714  152.5906 N   0  3  0  0  0  0  0  0  0  0  0  0
  142.7838  132.5223  148.2295 H   0  0  0  0  0  0  0  0  0  0  0  0
  144.5002  132.1651  148.2901 H   0  0  0  0  0  0  0  0  0  0  0  0
  143.9331  133.8121  148.5602 H   0  0  0  0  0  0  0  0  0  0  0  0
  142.7017  132.9631  150.6615 H   0  0  0  0  0  0  0  0  0  0  0  0
  143.3887  131.4006  150.3830 H   0  0  0  0  0  0  0  0  0  0  0  0
  146.3861  131.7651  150.1882 H   0  0  0  0  0  0  0  0  0  0  0  0
  146.6118  132.2664  151.8323 H   0  0  0  0  0  0  0  0  0  0  0  0
  146.2559  129.8008  151.6922 H   0  0  0  0  0  0  0  0  0  0  0  0
  144.6638  130.0470  150.9878 H   0  0  0  0  0  0  0  0  0  0  0  0
  144.9856  130.5455  152.6468 H   0  0  0  0  0  0  0  0  0  0  0  0
  143.7805  135.1971  149.9408 H   0  0  0  0  0  0  0  0  0  0  0  0
  144.1694  137.4375  150.8626 H   0  0  0  0  0  0  0  0  0  0  0  0
  144.8817  138.7420  152.6417 H   0  0  0  0  0  0  0  0  0  0  0  0
  147.5133  141.1985  152.7529 H   0  0  0  0  0  0  0  0  0  0  0  0
  149.0135  139.6243  154.4139 H   0  0  0  0  0  0  0  0  0  0  0  0
  149.5424  141.2257  153.9341 H   0  0  0  0  0  0  0  0  0  0  0  0
  148.5219  140.3776  156.6045 H   0  0  0  0  0  0  0  0  0  0  0  0
  149.5964  141.7030  156.2033 H   0  0  0  0  0  0  0  0  0  0  0  0
  146.2483  140.7401  156.8745 H   0  0  0  0  0  0  0  0  0  0  0  0
  146.9522  141.9002  157.9768 H   0  0  0  0  0  0  0  0  0  0  0  0
  144.5281  142.3334  157.6381 H   0  0  0  0  0  0  0  0  0  0  0  0
  145.4715  143.6902  157.0624 H   0  0  0  0  0  0  0  0  0  0  0  0
  144.3437  141.4300  155.3248 H   0  0  0  0  0  0  0  0  0  0  0  0
  143.7040  143.0535  155.4106 H   0  0  0  0  0  0  0  0  0  0  0  0
  145.2157  142.7665  153.4195 H   0  0  0  0  0  0  0  0  0  0  0  0
  145.7197  144.0140  154.5109 H   0  0  0  0  0  0  0  0  0  0  0  0
  147.7116  143.0626  154.1310 H   0  0  0  0  0  0  0  0  0  0  0  0
  146.5310  135.5665  154.0160 H   0  0  0  0  0  0  0  0  0  0  0  0
  147.8994  143.0700  156.2414 H   0  0  0  0  0  0  0  0  0  0  0  0
  146.0911  133.5609  153.0578 H   0  0  0  0  0  0  0  0  0  0  0  0
  1  2  1  0  0  0  0
  1 25  1  0  0  0  0
  1 26  1  0  0  0  0
  1 27  1  0  0  0  0
  2  3  1  0  0  0  0
  2 28  1  0  0  0  0
  2 29  1  0  0  0  0
  3  4  1  0  0  0  0
  3  6  1  0  0  0  0
  4  5  1  0  0  0  0
  4 30  1  0  0  0  0
  4 31  1  0  0  0  0
  5 32  1  0  0  0  0
  5 33  1  0  0  0  0
  5 34  1  0  0  0  0
  6 24  1  0  0  0  0
  6  7  2  0  0  0  0
  7  8  1  0  0  0  0
  7 35  1  0  0  0  0
  8  9  2  0  0  0  0
  8 36  1  0  0  0  0
  9 10  1  0  0  0  0
  9 23  1  0  0  0  0
 10 11  1  0  0  0  0
 10 37  1  0  0  0  0
 11 12  2  0  0  0  0
 11 13  1  0  0  0  0
 13 14  1  0  0  0  0
 14 22  1  0  0  0  0
 14 15  1  0  0  0  0
 14 38  1  0  0  0  0
 15 16  1  0  0  0  0
 15 39  1  0  0  0  0
 15 40  1  0  0  0  0
 16 17  1  0  0  0  0
 16 41  1  0  0  0  0
 16 42  1  0  0  0  0
 17 22  1  0  0  0  0
 17 18  1  0  0  0  0
 17 53  1  0  0  0  0
 18 19  1  0  0  0  0
 18 43  1  0  0  0  0
 18 44  1  0  0  0  0
 19 20  1  0  0  0  0
 19 45  1  0  0  0  0
 19 46  1  0  0  0  0
 20 21  1  0  0  0  0
 20 47  1  0  0  0  0
 20 48  1  0  0  0  0
 21 22  1  0  0  0  0
 21 49  1  0  0  0  0
 21 50  1  0  0  0  0
 22 51  1  0  0  0  0
 23 24  2  0  0  0  0
 23 52  1  0  0  0  0
 24 54  1  0  0  0  0
M  CHG  1  13  -1
M  CHG  1  17   1
M  CHG  1  24   1
M  END
> <s_m_source_file>
AV-unprocessed.smi

> <i_m_source_file_index>
1701

> <i_lp_mmshare_version>
43012

> <i_f3d_flags>
0

> <s_epik_input>
W0NIM11bQ0gyXU4oW0NIMl1bQ0gzXSljMVtjSF1bY0hdYyhbY0hdbjEpW05IXUMoPU8pW05IXVtDQEhdKFtDSDJdW0NIMl0yKVtDQEBIXShOMjMpW0NIMl1bQ0gyXVtDSDJdW0NIMl0z

> <s_epik_cmdline>
J2VwaWtfcHl0aG9uJywgJy1waCcsICc3LjAnLCAnLXRuJywgJzgnLCAnLW1hJywgJzIwMCcsICctbWV0YWxfYmluZGluZycsICctaW1hZScsICc8aW5maWxlLm1hZT4nLCAnLW9tYWUnLCAnPG91dGZpbGUubWFlPic=

> <r_lp_tautomer_probability>
0.999994

> <r_epik_Ionization_Penalty>
7.37095

> <r_epik_Ionization_Penalty_Charging>
7.37095

> <r_epik_Ionization_Penalty_Neutral>
3.78969e-06

> <r_epik_State_Penalty>
6.83842

> <r_epik_Charging_Adjusted_Penalty>
14.2094

> <i_epik_Tot_Q>
1

> <i_epik_Tot_abs_Q>
3

> <r_epik_Metal_State_Penalty>
2.78552

> <b_epik_Metal_Only>
1

> <s_lp_Force_Field>
OPLS_2005

> <r_lp_Energy>
56.3102

> <b_lp_Chiralities_Consistent>
1

> <s_lp_Variant>
AV-unprocessed.smi:1701-23

> <Gold.Version>
5.8.1

> <Gold.Id.Protein>
6NUR|6NUR_protein|mol2

> <Gold.PLP.Fitness>
49.2205

> <Gold.PLP.PLP>
-43.8556

> <Gold.PLP.part.hbond>
-1.9108

> <Gold.PLP.part.metal>
0.0000

> <Gold.PLP.part.buried>
-2.2205

> <Gold.PLP.part.nonpolar>
-41.0499

> <Gold.PLP.part.repulsive>
0.3776

> <Gold.PLP.ligand.clash>
0.0000

> <Gold.PLP.ligand.torsion>
1.6297

> <Gold.PLP.Chemscore.Hbond>
2.7800

> <Gold.PLP.Chemscore.CHOScore>
0.0000

> <Gold.PLP.Chemscore.Metal>
0.0000

> <Gold.Chemscore.Hbonds>
donor molecule, donor type, donor heavy atom, donor atom, acceptor molecule, acceptor atom, score
      L1  H    10    37       P1 10175  0.83
      L1  H    17    53       P1  8028  1.86

> <Gold.PLP.Chemscore.Internal.Correction>
0.2844

> <Gold.Rescore>
     Score         DG    S(hbond)    S(metal)    S(lipo)     H(rot)  DE(clash)    DE(int)     intcor
     15.28     -19.69       1.53        0.00     105.77       1.28       1.94       2.46       ----

> <Gold.Chemscore.Fitness>
15.2850

> <Gold.Chemscore.DG>
-19.6888

> <Gold.Chemscore.ZeroCoef>
-5.4800

> <Gold.Chemscore.Hbond>
1.5329

> <Gold.Chemscore.Metal>
0.0000

> <Gold.Chemscore.Lipo>
105.7730

> <Gold.Chemscore.Internal_Hbond>
0.0000

> <Gold.Chemscore.DEClash>
1.9445

> <Gold.Chemscore.DEInternal>
2.4593

> <Gold.Chemscore.Rot>
1.2838

> <Gold.Chemscore.Internal.Correction>
   9.000000E+99

> <Gold.Chemscore.Hbonds>
donor molecule, donor type, donor heavy atom, donor atom, acceptor molecule, acceptor atom, score
      L1  H    10    37       P1 10175  0.80
      L1  H    17    53       P1  8028  0.26

> <Gold.Chemscore.Hbond.Weighted>
-5.1199

> <Gold.Chemscore.Metal.Weighted>
-0.0000

> <Gold.Chemscore.Lipo.Weighted>
-12.3754

> <Gold.Chemscore.Internal_Hbond.Weighted>
0.0000

> <Gold.Chemscore.DEClash.Weighted>
1.9445

> <Gold.Chemscore.DEInternal.Weighted>
2.4593

> <Gold.Chemscore.Rot.Weighted>
3.2865

> <Gold.Chemscore.Internal.Correction.Weighted>
   9.000000E+99

> <Gold.Protein.RotatedTorsions>
[ 6907 6896 6895 6894 ] final   32.82 input  -60.11 | X-H torsion
[ 7974 7965 7964 7962 ] final   21.28 input  175.53 | X-H torsion
[ 8008 7997 7996 7995 ] final  169.13 input   59.86 | X-H torsion
[ 10167 10162 10161 10158 ] final -156.60 input  -65.29 | X-H torsion
[ 10718 10713 10712 10709 ] final  161.82 input   66.30 | X-H torsion
[ 10763 10752 10751 10750 ] final  -88.86 input  -60.55 | X-H torsion
[ 11005 11000 10999 10996 ] final   94.37 input  -57.11 | X-H torsion

> <Gold.Protein.ActiveResidues>
 VAL166  LYS551  ARG553  GLY616  TRP617  ASP618  TYR619  PRO620  LYS621  CYS622 
 ASP623  PHE694  ASN695  SER759  ASP760  ASP761  ALA762  ILE779  LEU786  VAL792 
 PHE793  MET794  SER795  GLU796  ALA797  LYS798  CYS799  TRP800  GLU811  SER814 

> <Gold.Protein.RotatedAtoms>
  152.0799  134.9478  160.0573 H   0  0  0  0  0  0  0  0  0  0  0  0  # atno 6907 bound_to 6896
  152.0771  133.4130  159.4493 H   0  0  0  0  0  0  0  0  0  0  0  0  # atno 6908 bound_to 6896
  150.6836  134.2945  159.4724 H   0  0  0  0  0  0  0  0  0  0  0  0  # atno 6909 bound_to 6896
  146.2077  139.8049  142.8713 H   0  0  0  0  0  0  0  0  0  0  0  0  # atno 7974 bound_to 7965
  156.1485  140.1572  156.8808 H   0  0  0  0  0  0  0  0  0  0  0  0  # atno 8008 bound_to 7997
  154.5050  140.0815  156.7912 H   0  0  0  0  0  0  0  0  0  0  0  0  # atno 8009 bound_to 7997
  155.3942  140.3411  155.4255 H   0  0  0  0  0  0  0  0  0  0  0  0  # atno 8010 bound_to 7997
  139.6837  143.9537  152.2350 H   0  0  0  0  0  0  0  0  0  0  0  0  # atno 10167 bound_to 10162
  157.1311  131.0517  151.2371 H   0  0  0  0  0  0  0  0  0  0  0  0  # atno 10718 bound_to 10713
  154.6491  135.5362  153.7880 H   0  0  0  0  0  0  0  0  0  0  0  0  # atno 10763 bound_to 10752
  153.0376  135.6478  154.1044 H   0  0  0  0  0  0  0  0  0  0  0  0  # atno 10764 bound_to 10752
  154.0963  135.2936  155.3241 H   0  0  0  0  0  0  0  0  0  0  0  0  # atno 10765 bound_to 10752
  139.8799  134.8841  156.3854 H   0  0  0  0  0  0  0  0  0  0  0  0  # atno 11005 bound_to 11000
  145.3257  141.0254  143.3475 LP  0  0  0  0  0  0  0  0  0  0  0  0  # atno 17320 bound_to 7965
  144.8834  139.4872  143.6712 LP  0  0  0  0  0  0  0  0  0  0  0  0  # atno 17321 bound_to 7965
  139.9334  144.6727  150.8339 LP  0  0  0  0  0  0  0  0  0  0  0  0  # atno 17342 bound_to 10162
  140.7661  143.3293  151.2445 LP  0  0  0  0  0  0  0  0  0  0  0  0  # atno 17343 bound_to 10162
  157.4391  130.7534  149.7054 LP  0  0  0  0  0  0  0  0  0  0  0  0  # atno 17370 bound_to 10713
  155.9808  130.4026  150.3510 LP  0  0  0  0  0  0  0  0  0  0  0  0  # atno 17371 bound_to 10713
  140.9370  133.7540  156.0097 LP  0  0  0  0  0  0  0  0  0  0  0  0  # atno 17394 bound_to 11000
  140.8264  134.3229  157.5364 LP  0  0  0  0  0  0  0  0  0  0  0  0  # atno 17395 bound_to 11000

$$$$
