AV-unprocessed.smi:2494|AV-procd|sdf|9821|dock9
  -GOLD-   2272013453D 1   1.00000     0.00000
 Structure written by MMmdl.
 30 31  0  0  0  0  0  0  0  0  1 V2000
  147.1885  142.7434  154.3295 O   0  0  0  0  0  0  0  0  0  0  0  0
  148.0870  141.6840  154.0795 C   0  0  0  0  0  0  0  0  0  0  0  0
  148.8789  141.3621  155.3576 C   0  0  0  0  0  0  0  0  0  0  0  0
  150.2228  140.6278  155.1032 C   0  0  2  0  0  0  0  0  0  0  0  0
  149.9685  139.2508  154.4402 C   0  0  0  0  0  0  0  0  0  0  0  0
  151.1831  138.5341  154.2639 O   0  0  0  0  0  0  0  0  0  0  0  0
  151.8135  138.2672  155.5066 C   0  0  0  0  0  0  0  0  0  0  0  0
  152.1815  139.6017  156.1651 C   0  0  0  0  0  0  0  0  0  0  0  0
  151.0025  140.4455  156.3384 N   0  0  0  0  0  0  0  0  0  0  0  0
  151.2403  141.5227  157.1828 C   0  0  0  0  0  0  0  0  0  0  0  0
  150.9149  142.7466  156.7445 N   0  0  0  0  0  0  0  0  0  0  0  0
  151.1804  143.7853  157.5659 C   0  0  0  0  0  0  0  0  0  0  0  0
  151.7825  143.5942  158.8252 C   0  0  0  0  0  0  0  0  0  0  0  0
  152.1259  144.9174  159.8773 Cl  0  0  0  0  0  0  0  0  0  0  0  0
  152.0921  142.2659  159.1789 C   0  0  0  0  0  0  0  0  0  0  0  0
  151.8233  141.2327  158.3513 N   0  0  0  0  0  0  0  0  0  0  0  0
  147.5732  143.3187  154.9732 H   0  0  0  0  0  0  0  0  0  0  0  0
  147.5123  140.8238  153.7380 H   0  0  0  0  0  0  0  0  0  0  0  0
  148.7605  141.9738  153.2724 H   0  0  0  0  0  0  0  0  0  0  0  0
  149.0538  142.3065  155.8716 H   0  0  0  0  0  0  0  0  0  0  0  0
  148.2599  140.7681  156.0315 H   0  0  0  0  0  0  0  0  0  0  0  0
  150.8269  141.2301  154.4231 H   0  0  0  0  0  0  0  0  0  0  0  0
  149.2720  138.6543  155.0322 H   0  0  0  0  0  0  0  0  0  0  0  0
  149.5200  139.3736  153.4553 H   0  0  0  0  0  0  0  0  0  0  0  0
  151.1597  137.6760  156.1499 H   0  0  0  0  0  0  0  0  0  0  0  0
  152.7114  137.6748  155.3303 H   0  0  0  0  0  0  0  0  0  0  0  0
  152.6550  139.4119  157.1293 H   0  0  0  0  0  0  0  0  0  0  0  0
  152.9114  140.1314  155.5512 H   0  0  0  0  0  0  0  0  0  0  0  0
  150.9137  144.7711  157.2144 H   0  0  0  0  0  0  0  0  0  0  0  0
  152.5577  142.0304  160.1244 H   0  0  0  0  0  0  0  0  0  0  0  0
  1  2  1  0  0  0  0
  1 17  1  0  0  0  0
  2  3  1  0  0  0  0
  2 18  1  0  0  0  0
  2 19  1  0  0  0  0
  3  4  1  0  0  0  0
  3 20  1  0  0  0  0
  3 21  1  0  0  0  0
  4  9  1  0  0  0  0
  4  5  1  0  0  0  0
  4 22  1  0  0  0  0
  5  6  1  0  0  0  0
  5 23  1  0  0  0  0
  5 24  1  0  0  0  0
  6  7  1  0  0  0  0
  7  8  1  0  0  0  0
  7 25  1  0  0  0  0
  7 26  1  0  0  0  0
  8  9  1  0  0  0  0
  8 27  1  0  0  0  0
  8 28  1  0  0  0  0
  9 10  1  0  0  0  0
 10 16  1  0  0  0  0
 10 11  2  0  0  0  0
 11 12  1  0  0  0  0
 12 13  2  0  0  0  0
 12 29  1  0  0  0  0
 13 14  1  0  0  0  0
 13 15  1  0  0  0  0
 15 16  2  0  0  0  0
 15 30  1  0  0  0  0
M  END
> <s_m_source_file>
AV-unprocessed.smi

> <i_m_source_file_index>
2494

> <i_lp_mmshare_version>
43012

> <i_f3d_flags>
0

> <s_epik_input>
W09IXVtDSDJdW0NIMl1bQ0BASF0xW0NIMl1PW0NIMl1bQ0gyXU4xYzJuW2NIXWMoQ2wpW2NIXW4y

> <s_epik_cmdline>
J2VwaWtfcHl0aG9uJywgJy1waCcsICc3LjAnLCAnLXRuJywgJzgnLCAnLW1hJywgJzIwMCcsICctbWV0YWxfYmluZGluZycsICctaW1hZScsICc8aW5maWxlLm1hZT4nLCAnLW9tYWUnLCAnPG91dGZpbGUubWFlPic=

> <r_lp_tautomer_probability>
1

> <r_epik_Ionization_Penalty>
3.66811e-07

> <r_epik_Ionization_Penalty_Charging>
0

> <r_epik_Ionization_Penalty_Neutral>
3.66811e-07

> <r_epik_State_Penalty>
-0

> <r_epik_Charging_Adjusted_Penalty>
0

> <i_epik_Tot_Q>
0

> <i_epik_Tot_abs_Q>
0

> <r_epik_Metal_State_Penalty>
-0

> <b_epik_Metal_Only>
0

> <s_lp_Force_Field>
OPLS_2005

> <r_lp_Energy>
15.3646

> <b_lp_Chiralities_Consistent>
1

> <s_lp_Variant>
AV-unprocessed.smi:2494-1

> <Gold.Version>
5.8.1

> <Gold.Id.Protein>
6NUR|6NUR_protein|mol2

> <Gold.PLP.Fitness>
36.3479

> <Gold.PLP.PLP>
-31.5821

> <Gold.PLP.part.hbond>
-1.0000

> <Gold.PLP.part.metal>
0.0000

> <Gold.PLP.part.buried>
-1.8629

> <Gold.PLP.part.nonpolar>
-28.7895

> <Gold.PLP.part.repulsive>
0.9205

> <Gold.PLP.ligand.clash>
0.0000

> <Gold.PLP.ligand.torsion>
0.2744

> <Gold.PLP.Chemscore.Hbond>
1.0000

> <Gold.PLP.Chemscore.CHOScore>
0.6665

> <Gold.PLP.Chemscore.Metal>
0.0000

> <Gold.Chemscore.Hbonds>
donor molecule, donor type, donor heavy atom, donor atom, acceptor molecule, acceptor atom, score
      L1  H     1    17       P1  8028  1.00
      L1  C    12    29       P1  8028  0.67

> <Gold.PLP.Chemscore.Internal.Correction>
0.3150

> <Gold.Rescore>
     Score         DG    S(hbond)    S(metal)    S(lipo)     H(rot)  DE(clash)    DE(int)     intcor
     11.63     -13.50       0.94        0.00      86.30       2.04       0.12       1.74       ----

> <Gold.Chemscore.Fitness>
11.6336

> <Gold.Chemscore.DG>
-13.4991

> <Gold.Chemscore.ZeroCoef>
-5.4800

> <Gold.Chemscore.Hbond>
0.9432

> <Gold.Chemscore.Metal>
0.0000

> <Gold.Chemscore.Lipo>
86.3012

> <Gold.Chemscore.Internal_Hbond>
0.0000

> <Gold.Chemscore.DEClash>
0.1233

> <Gold.Chemscore.DEInternal>
1.7422

> <Gold.Chemscore.Rot>
2.0424

> <Gold.Chemscore.Internal.Correction>
   9.000000E+99

> <Gold.Chemscore.Hbonds>
donor molecule, donor type, donor heavy atom, donor atom, acceptor molecule, acceptor atom, score
      L1  H     1    17       P1  8028  0.28

> <Gold.Chemscore.Hbond.Weighted>
-3.1503

> <Gold.Chemscore.Metal.Weighted>
-0.0000

> <Gold.Chemscore.Lipo.Weighted>
-10.0972

> <Gold.Chemscore.Internal_Hbond.Weighted>
0.0000

> <Gold.Chemscore.DEClash.Weighted>
0.1233

> <Gold.Chemscore.DEInternal.Weighted>
1.7422

> <Gold.Chemscore.Rot.Weighted>
5.2285

> <Gold.Chemscore.Internal.Correction.Weighted>
   9.000000E+99

> <Gold.Protein.RotatedTorsions>
[ 6907 6896 6895 6894 ] final -103.93 input  -60.11 | X-H torsion
[ 7974 7965 7964 7962 ] final   -1.10 input  175.53 | X-H torsion
[ 8008 7997 7996 7995 ] final  159.69 input   59.86 | X-H torsion
[ 10167 10162 10161 10158 ] final   17.24 input  -65.29 | X-H torsion
[ 10718 10713 10712 10709 ] final  -28.85 input   66.30 | X-H torsion
[ 10763 10752 10751 10750 ] final  169.73 input  -60.55 | X-H torsion
[ 11005 11000 10999 10996 ] final -126.20 input  -57.11 | X-H torsion

> <Gold.Protein.ActiveResidues>
 VAL166  LYS551  ARG553  GLY616  TRP617  ASP618  TYR619  PRO620  LYS621  CYS622 
 ASP623  PHE694  ASN695  SER759  ASP760  ASP761  ALA762  ILE779  LEU786  VAL792 
 PHE793  MET794  SER795  GLU796  ALA797  LYS798  CYS799  TRP800  GLU811  SER814 

> <Gold.Protein.RotatedAtoms>
  150.7263  134.0354  159.3747 H   0  0  0  0  0  0  0  0  0  0  0  0  # atno 6907 bound_to 6896
  151.8325  135.0614  160.0448 H   0  0  0  0  0  0  0  0  0  0  0  0  # atno 6908 bound_to 6896
  152.2923  133.5537  159.5601 H   0  0  0  0  0  0  0  0  0  0  0  0  # atno 6909 bound_to 6896
  146.2420  140.1370  142.8336 H   0  0  0  0  0  0  0  0  0  0  0  0  # atno 7974 bound_to 7965
  156.2222  140.1824  156.7449 H   0  0  0  0  0  0  0  0  0  0  0  0  # atno 8008 bound_to 7997
  154.5884  140.0655  156.9232 H   0  0  0  0  0  0  0  0  0  0  0  0  # atno 8009 bound_to 7997
  155.2379  140.3320  155.4298 H   0  0  0  0  0  0  0  0  0  0  0  0  # atno 8010 bound_to 7997
  140.5740  143.9108  150.6735 H   0  0  0  0  0  0  0  0  0  0  0  0  # atno 10167 bound_to 10162
  156.4200  130.4424  149.7191 H   0  0  0  0  0  0  0  0  0  0  0  0  # atno 10718 bound_to 10713
  154.3874  135.2754  155.2175 H   0  0  0  0  0  0  0  0  0  0  0  0  # atno 10763 bound_to 10752
  154.4256  135.5989  153.6040 H   0  0  0  0  0  0  0  0  0  0  0  0  # atno 10764 bound_to 10752
  152.9833  135.5983  154.4124 H   0  0  0  0  0  0  0  0  0  0  0  0  # atno 10765 bound_to 10752
  140.9701  134.0818  157.3879 H   0  0  0  0  0  0  0  0  0  0  0  0  # atno 11005 bound_to 11000
  145.0278  140.8846  143.5127 LP  0  0  0  0  0  0  0  0  0  0  0  0  # atno 17320 bound_to 7965
  145.1429  139.2561  143.5481 LP  0  0  0  0  0  0  0  0  0  0  0  0  # atno 17321 bound_to 7965
  140.2590  143.3537  152.1339 LP  0  0  0  0  0  0  0  0  0  0  0  0  # atno 17342 bound_to 10162
  139.5132  144.6929  151.5709 LP  0  0  0  0  0  0  0  0  0  0  0  0  # atno 17343 bound_to 10162
  156.4135  130.7734  151.2748 LP  0  0  0  0  0  0  0  0  0  0  0  0  # atno 17370 bound_to 10713
  157.7508  131.0204  150.3707 LP  0  0  0  0  0  0  0  0  0  0  0  0  # atno 17371 bound_to 10713
  139.8909  135.0115  156.6761 LP  0  0  0  0  0  0  0  0  0  0  0  0  # atno 17394 bound_to 11000
  140.7342  133.9033  155.8232 LP  0  0  0  0  0  0  0  0  0  0  0  0  # atno 17395 bound_to 11000

$$$$
