AV-unprocessed.smi:2402|AV-procd|sdf|9508|dock8
  -GOLD-   2272013133D 1   1.00000     0.00000
 Structure written by MMmdl.
 38 39  0  0  0  0  0  0  0  0  1 V2000
  146.4621  142.7010  154.0605 C   0  0  0  0  0  0  0  0  0  0  0  0
  147.3786  141.5056  154.2162 C   0  0  0  0  0  0  0  0  0  0  0  0
  148.5844  141.6074  154.9361 C   0  0  0  0  0  0  0  0  0  0  0  0
  149.3929  140.4588  155.0440 C   0  0  0  0  0  0  0  0  0  0  0  0
  150.7058  140.4974  155.7976 C   0  0  0  0  0  0  0  0  0  0  0  0
  149.0628  139.2709  154.4933 N   0  0  0  0  0  0  0  0  0  0  0  0
  147.9027  139.1606  153.7995 C   0  0  0  0  0  0  0  0  0  0  0  0
  147.4643  137.9584  153.1832 N   0  0  0  0  0  0  0  0  0  0  0  0
  146.2025  137.5344  152.9923 C   0  0  0  0  0  0  0  0  0  0  0  0
  145.1864  138.1434  153.3292 O   0  0  0  0  0  0  0  0  0  0  0  0
  146.1776  136.3456  152.3724 N   0  0  0  0  0  0  0  0  0  0  0  0
  144.9637  135.6267  152.0013 C   0  0  1  0  0  0  0  0  0  0  0  0
  144.8758  135.4678  150.5080 C   0  0  0  0  0  0  0  0  0  0  0  0
  144.7010  134.2016  150.1359 C   0  0  0  0  0  0  0  0  0  0  0  0
  144.6422  133.2519  151.3034 C   0  0  1  0  0  0  0  0  0  0  0  0
  145.6195  132.0754  151.1472 C   0  0  0  0  0  0  0  0  0  0  0  0
  146.9232  132.5551  150.8944 O   0  0  0  0  0  0  0  0  0  0  0  0
  144.9432  134.1651  152.5204 C   0  0  0  0  0  0  0  0  0  0  0  0
  147.0361  140.2654  153.6408 C   0  0  0  0  0  0  0  0  0  0  0  0
  144.0814  136.1730  152.3386 H   0  0  0  0  0  0  0  0  0  0  0  0
  143.6194  132.8771  151.3628 H   0  0  0  0  0  0  0  0  0  0  0  0
  146.9147  143.6043  154.4708 H   0  0  0  0  0  0  0  0  0  0  0  0
  145.5204  142.5242  154.5804 H   0  0  0  0  0  0  0  0  0  0  0  0
  146.2458  142.8772  153.0066 H   0  0  0  0  0  0  0  0  0  0  0  0
  148.8822  142.5405  155.3920 H   0  0  0  0  0  0  0  0  0  0  0  0
  150.8704  141.4722  156.2570 H   0  0  0  0  0  0  0  0  0  0  0  0
  151.5361  140.2955  155.1203 H   0  0  0  0  0  0  0  0  0  0  0  0
  150.7139  139.7440  156.5858 H   0  0  0  0  0  0  0  0  0  0  0  0
  148.1969  137.3550  152.8406 H   0  0  0  0  0  0  0  0  0  0  0  0
  147.0568  135.9111  152.1332 H   0  0  0  0  0  0  0  0  0  0  0  0
  144.9326  136.3106  149.8348 H   0  0  0  0  0  0  0  0  0  0  0  0
  144.5960  133.8644  149.1153 H   0  0  0  0  0  0  0  0  0  0  0  0
  145.6436  131.4772  152.0587 H   0  0  0  0  0  0  0  0  0  0  0  0
  145.3116  131.4157  150.3351 H   0  0  0  0  0  0  0  0  0  0  0  0
  147.4541  131.8368  150.5858 H   0  0  0  0  0  0  0  0  0  0  0  0
  145.9059  133.9017  152.9617 H   0  0  0  0  0  0  0  0  0  0  0  0
  144.1965  134.0364  153.3046 H   0  0  0  0  0  0  0  0  0  0  0  0
  146.1152  140.1649  153.0844 H   0  0  0  0  0  0  0  0  0  0  0  0
  1  2  1  0  0  0  0
  1 22  1  0  0  0  0
  1 23  1  0  0  0  0
  1 24  1  0  0  0  0
  2 19  1  0  0  0  0
  2  3  2  0  0  0  0
  3  4  1  0  0  0  0
  3 25  1  0  0  0  0
  4  5  1  0  0  0  0
  4  6  2  0  0  0  0
  5 26  1  0  0  0  0
  5 27  1  0  0  0  0
  5 28  1  0  0  0  0
  6  7  1  0  0  0  0
  7  8  1  0  0  0  0
  7 19  2  0  0  0  0
  8  9  1  0  0  0  0
  8 29  1  0  0  0  0
  9 10  2  0  0  0  0
  9 11  1  0  0  0  0
 11 12  1  0  0  0  0
 11 30  1  0  0  0  0
 12 20  1  0  0  0  0
 12 18  1  0  0  0  0
 12 13  1  0  0  0  0
 13 14  2  0  0  0  0
 13 31  1  0  0  0  0
 14 15  1  0  0  0  0
 14 32  1  0  0  0  0
 15 21  1  0  0  0  0
 15 16  1  0  0  0  0
 15 18  1  0  0  0  0
 16 17  1  0  0  0  0
 16 33  1  0  0  0  0
 16 34  1  0  0  0  0
 17 35  1  0  0  0  0
 18 36  1  0  0  0  0
 18 37  1  0  0  0  0
 19 38  1  0  0  0  0
M  END
> <s_m_source_file>
AV-unprocessed.smi

> <i_m_source_file_index>
2402

> <i_lp_mmshare_version>
43012

> <i_f3d_flags>
0

> <s_epik_input>
W0NIM11jMVtjSF1jKFtDSDNdKW5jKFtjSF0xKVtOSF1DKD1PKVtOSF1bQ0BASF0yW0NIXT1bQ0hdW0NAQEhdKFtDSDJdMilbQ0gyXVtPSF0=

> <s_epik_cmdline>
J2VwaWtfcHl0aG9uJywgJy1waCcsICc3LjAnLCAnLXRuJywgJzgnLCAnLW1hJywgJzIwMCcsICctbWV0YWxfYmluZGluZycsICctaW1hZScsICc8aW5maWxlLm1hZT4nLCAnLW9tYWUnLCAnPG91dGZpbGUubWFlPic=

> <r_lp_tautomer_probability>
1

> <r_epik_Ionization_Penalty>
0.000257495

> <r_epik_Ionization_Penalty_Charging>
0

> <r_epik_Ionization_Penalty_Neutral>
0.000257495

> <r_epik_State_Penalty>
-0

> <r_epik_Charging_Adjusted_Penalty>
0

> <i_epik_Tot_Q>
0

> <i_epik_Tot_abs_Q>
0

> <r_epik_Metal_State_Penalty>
-0

> <b_epik_Metal_Only>
0

> <s_lp_Force_Field>
OPLS_2005

> <r_lp_Energy>
18.3393

> <b_lp_Chiralities_Consistent>
1

> <s_lp_Variant>
AV-unprocessed.smi:2402-4

> <Gold.Version>
5.8.1

> <Gold.Id.Protein>
6NUR|6NUR_protein|mol2

> <Gold.PLP.Fitness>
42.5162

> <Gold.PLP.PLP>
-34.3142

> <Gold.PLP.part.hbond>
-3.0000

> <Gold.PLP.part.metal>
0.0000

> <Gold.PLP.part.buried>
-3.8311

> <Gold.PLP.part.nonpolar>
-28.8492

> <Gold.PLP.part.repulsive>
1.8883

> <Gold.PLP.ligand.clash>
0.0000

> <Gold.PLP.ligand.torsion>
0.2498

> <Gold.PLP.Chemscore.Hbond>
2.8960

> <Gold.PLP.Chemscore.CHOScore>
0.0000

> <Gold.PLP.Chemscore.Metal>
0.0000

> <Gold.Chemscore.Hbonds>
donor molecule, donor type, donor heavy atom, donor atom, acceptor molecule, acceptor atom, score
      L1  H     8    29       P1  7948  1.00
      L1  H    11    30       P1  7948  0.91
      L1  H    17    35       P1 10747  1.00

> <Gold.PLP.Chemscore.Internal.Correction>
0.0137

> <Gold.Rescore>
     Score         DG    S(hbond)    S(metal)    S(lipo)     H(rot)  DE(clash)    DE(int)     intcor
     16.63     -19.41       2.87        0.00      76.07       1.78       1.13       1.65       ----

> <Gold.Chemscore.Fitness>
16.6338

> <Gold.Chemscore.DG>
-19.4115

> <Gold.Chemscore.ZeroCoef>
-5.4800

> <Gold.Chemscore.Hbond>
2.8743

> <Gold.Chemscore.Metal>
0.0000

> <Gold.Chemscore.Lipo>
76.0655

> <Gold.Chemscore.Internal_Hbond>
0.0000

> <Gold.Chemscore.DEClash>
1.1280

> <Gold.Chemscore.DEInternal>
1.6497

> <Gold.Chemscore.Rot>
1.7844

> <Gold.Chemscore.Internal.Correction>
   9.000000E+99

> <Gold.Chemscore.Hbonds>
donor molecule, donor type, donor heavy atom, donor atom, acceptor molecule, acceptor atom, score
      L1  H     8    29       P1  7948  0.99
      L1  H    11    30       P1  7948  0.88
      L1  H    17    35       P1 10747  0.99

> <Gold.Chemscore.Hbond.Weighted>
-9.6000

> <Gold.Chemscore.Metal.Weighted>
-0.0000

> <Gold.Chemscore.Lipo.Weighted>
-8.8997

> <Gold.Chemscore.Internal_Hbond.Weighted>
0.0000

> <Gold.Chemscore.DEClash.Weighted>
1.1280

> <Gold.Chemscore.DEInternal.Weighted>
1.6497

> <Gold.Chemscore.Rot.Weighted>
4.5681

> <Gold.Chemscore.Internal.Correction.Weighted>
   9.000000E+99

> <Gold.Protein.RotatedTorsions>
[ 6907 6896 6895 6894 ] final   -8.54 input  -60.11 | X-H torsion
[ 7974 7965 7964 7962 ] final -119.76 input  175.53 | X-H torsion
[ 8008 7997 7996 7995 ] final   40.73 input   59.86 | X-H torsion
[ 10167 10162 10161 10158 ] final  -10.44 input  -65.29 | X-H torsion
[ 10718 10713 10712 10709 ] final   49.36 input   66.30 | X-H torsion
[ 10763 10752 10751 10750 ] final   -5.64 input  -60.55 | X-H torsion
[ 11005 11000 10999 10996 ] final  132.50 input  -57.11 | X-H torsion

> <Gold.Protein.ActiveResidues>
 VAL166  LYS551  ARG553  GLY616  TRP617  ASP618  TYR619  PRO620  LYS621  CYS622 
 ASP623  PHE694  ASN695  SER759  ASP760  ASP761  ALA762  ILE779  LEU786  VAL792 
 PHE793  MET794  SER795  GLU796  ALA797  LYS798  CYS799  TRP800  GLU811  SER814 

> <Gold.Protein.RotatedAtoms>
  151.4320  135.1010  159.9644 H   0  0  0  0  0  0  0  0  0  0  0  0  # atno 6907 bound_to 6896
  152.4953  133.8609  159.7260 H   0  0  0  0  0  0  0  0  0  0  0  0  # atno 6908 bound_to 6896
  150.9149  133.6894  159.2873 H   0  0  0  0  0  0  0  0  0  0  0  0  # atno 6909 bound_to 6896
  145.0589  140.8275  143.4164 H   0  0  0  0  0  0  0  0  0  0  0  0  # atno 7974 bound_to 7965
  155.2580  140.3357  155.4276 H   0  0  0  0  0  0  0  0  0  0  0  0  # atno 8008 bound_to 7997
  156.2187  140.1800  156.7571 H   0  0  0  0  0  0  0  0  0  0  0  0  # atno 8009 bound_to 7997
  154.5792  140.0656  156.9064 H   0  0  0  0  0  0  0  0  0  0  0  0  # atno 8010 bound_to 7997
  140.7114  143.5747  150.9055 H   0  0  0  0  0  0  0  0  0  0  0  0  # atno 10167 bound_to 10162
  157.4779  130.8296  149.8060 H   0  0  0  0  0  0  0  0  0  0  0  0  # atno 10718 bound_to 10713
  153.4013  135.7005  153.6424 H   0  0  0  0  0  0  0  0  0  0  0  0  # atno 10763 bound_to 10752
  153.4956  135.3663  155.2514 H   0  0  0  0  0  0  0  0  0  0  0  0  # atno 10764 bound_to 10752
  154.8710  135.4099  154.3349 H   0  0  0  0  0  0  0  0  0  0  0  0  # atno 10765 bound_to 10752
  139.9794  134.9553  156.9591 H   0  0  0  0  0  0  0  0  0  0  0  0  # atno 11005 bound_to 11000
  145.1434  139.2558  143.5478 LP  0  0  0  0  0  0  0  0  0  0  0  0  # atno 17320 bound_to 7965
  146.3523  140.1117  142.8603 LP  0  0  0  0  0  0  0  0  0  0  0  0  # atno 17321 bound_to 7965
  139.9473  143.6312  152.3038 LP  0  0  0  0  0  0  0  0  0  0  0  0  # atno 17342 bound_to 10162
  139.6818  144.7655  151.1594 LP  0  0  0  0  0  0  0  0  0  0  0  0  # atno 17343 bound_to 10162
  156.0106  130.3835  150.2278 LP  0  0  0  0  0  0  0  0  0  0  0  0  # atno 17370 bound_to 10713
  157.0463  131.0050  151.3268 LP  0  0  0  0  0  0  0  0  0  0  0  0  # atno 17371 bound_to 10713
  140.5127  134.0986  155.7274 LP  0  0  0  0  0  0  0  0  0  0  0  0  # atno 17394 bound_to 11000
  141.1468  133.9041  157.2196 LP  0  0  0  0  0  0  0  0  0  0  0  0  # atno 17395 bound_to 11000

$$$$
