AV-unprocessed.smi:213|AV-procd|sdf|1633|dock7
  -GOLD-   2262019593D 1   1.00000     0.00000
 Structure written by MMmdl.
 59 62  0  0  0  0  0  0  0  0  2 V2000
  147.5994  136.1421  155.4983 C   0  0  0  0  0  0  0  0  0  0  0  0
  148.7973  135.4686  154.8090 C   0  0  2  0  0  0  0  0  0  0  0  0
  148.3838  134.1323  154.1439 C   0  0  0  0  0  0  0  0  0  0  0  0
  147.6595  134.3198  152.8608 N   0  3  0  0  0  0  0  0  0  0  0  0
  147.4853  133.0615  152.1008 C   0  0  0  0  0  0  0  0  0  0  0  0
  146.8240  133.3533  150.7431 C   0  0  0  0  0  0  0  0  0  0  0  0
  145.5788  134.0096  150.9488 O   0  0  0  0  0  0  0  0  0  0  0  0
  145.7357  135.2578  151.6132 C   0  0  0  0  0  0  0  0  0  0  0  0
  146.3632  135.0283  152.9981 C   0  0  0  0  0  0  0  0  0  0  0  0
  149.9351  135.3188  155.7303 N   0  0  0  0  0  0  0  0  0  0  0  0
  150.9754  134.3345  155.4319 C   0  0  0  0  0  0  0  0  0  0  0  0
  150.3295  136.4432  156.3853 C   0  0  0  0  0  0  0  0  0  0  0  0
  150.7121  136.3556  157.6883 N   0  0  0  0  0  0  0  0  0  0  0  0
  151.1655  137.4327  158.3351 C   0  0  0  0  0  0  0  0  0  0  0  0
  151.3267  138.6736  157.8741 N   0  0  0  0  0  0  0  0  0  0  0  0
  150.9312  138.7739  156.5734 C   0  0  0  0  0  0  0  0  0  0  0  0
  150.4195  137.7212  155.7633 C   0  0  0  0  0  0  0  0  0  0  0  0
  150.1213  138.2060  154.4950 N   0  0  0  0  0  0  0  0  0  0  0  0
  150.4472  139.4685  154.5487 C   0  0  0  0  0  0  0  0  0  0  0  0
  150.9538  139.8900  155.7565 N   0  0  0  0  0  0  0  0  0  0  0  0
  151.4100  141.2297  156.0866 C   0  0  0  0  0  0  0  0  0  0  0  0
  150.8981  141.7059  157.4637 C   0  0  2  0  0  0  0  0  0  0  0  0
  149.5185  142.0007  157.3484 O   0  0  0  0  0  0  0  0  0  0  0  0
  151.6120  142.9761  157.9684 C   0  0  2  0  0  0  0  0  0  0  0  0
  153.0047  142.7426  158.5555 C   0  0  0  0  0  0  0  0  0  0  0  0
  153.2127  143.9546  159.4459 C   0  0  0  0  0  0  0  0  0  0  0  0
  151.7897  144.4284  159.7513 C   0  0  0  0  0  0  0  0  0  0  0  0
  150.9316  143.4997  159.1000 O   0  0  0  0  0  0  0  0  0  0  0  0
  146.8123  136.3627  154.7768 H   0  0  0  0  0  0  0  0  0  0  0  0
  147.8926  137.0854  155.9600 H   0  0  0  0  0  0  0  0  0  0  0  0
  147.1614  135.5104  156.2711 H   0  0  0  0  0  0  0  0  0  0  0  0
  149.0802  136.1503  154.0099 H   0  0  0  0  0  0  0  0  0  0  0  0
  149.2822  133.5396  153.9660 H   0  0  0  0  0  0  0  0  0  0  0  0
  147.7650  133.5430  154.8223 H   0  0  0  0  0  0  0  0  0  0  0  0
  148.4545  132.5878  151.9402 H   0  0  0  0  0  0  0  0  0  0  0  0
  146.8757  132.3642  152.6775 H   0  0  0  0  0  0  0  0  0  0  0  0
  147.4739  133.9692  150.1189 H   0  0  0  0  0  0  0  0  0  0  0  0
  146.6489  132.4236  150.2016 H   0  0  0  0  0  0  0  0  0  0  0  0
  146.3509  135.9295  151.0129 H   0  0  0  0  0  0  0  0  0  0  0  0
  144.7589  135.7304  151.7163 H   0  0  0  0  0  0  0  0  0  0  0  0
  145.6879  134.4416  153.6228 H   0  0  0  0  0  0  0  0  0  0  0  0
  146.5000  135.9894  153.4919 H   0  0  0  0  0  0  0  0  0  0  0  0
  151.6375  134.1976  156.2879 H   0  0  0  0  0  0  0  0  0  0  0  0
  151.5785  134.6491  154.5798 H   0  0  0  0  0  0  0  0  0  0  0  0
  150.5440  133.3611  155.2025 H   0  0  0  0  0  0  0  0  0  0  0  0
  151.4496  137.2761  159.3653 H   0  0  0  0  0  0  0  0  0  0  0  0
  150.3349  140.1295  153.7012 H   0  0  0  0  0  0  0  0  0  0  0  0
  152.5000  141.2255  156.0615 H   0  0  0  0  0  0  0  0  0  0  0  0
  151.0839  141.9156  155.3036 H   0  0  0  0  0  0  0  0  0  0  0  0
  151.0239  140.9014  158.1897 H   0  0  0  0  0  0  0  0  0  0  0  0
  149.4094  142.6537  156.6748 H   0  0  0  0  0  0  0  0  0  0  0  0
  151.6671  143.7346  157.1847 H   0  0  0  0  0  0  0  0  0  0  0  0
  153.0097  141.8370  159.1639 H   0  0  0  0  0  0  0  0  0  0  0  0
  153.7773  142.6436  157.7925 H   0  0  0  0  0  0  0  0  0  0  0  0
  153.7693  143.7013  160.3485 H   0  0  0  0  0  0  0  0  0  0  0  0
  153.7632  144.7334  158.9170 H   0  0  0  0  0  0  0  0  0  0  0  0
  151.5822  144.4541  160.8212 H   0  0  0  0  0  0  0  0  0  0  0  0
  151.6205  145.4271  159.3470 H   0  0  0  0  0  0  0  0  0  0  0  0
  148.2528  134.9057  152.2896 H   0  0  0  0  0  0  0  0  0  0  0  0
  1  2  1  0  0  0  0
  1 29  1  0  0  0  0
  1 30  1  0  0  0  0
  1 31  1  0  0  0  0
  2  3  1  0  0  0  0
  2 10  1  0  0  0  0
  2 32  1  0  0  0  0
  3  4  1  0  0  0  0
  3 33  1  0  0  0  0
  3 34  1  0  0  0  0
  4  9  1  0  0  0  0
  4  5  1  0  0  0  0
  4 59  1  0  0  0  0
  5  6  1  0  0  0  0
  5 35  1  0  0  0  0
  5 36  1  0  0  0  0
  6  7  1  0  0  0  0
  6 37  1  0  0  0  0
  6 38  1  0  0  0  0
  7  8  1  0  0  0  0
  8  9  1  0  0  0  0
  8 39  1  0  0  0  0
  8 40  1  0  0  0  0
  9 41  1  0  0  0  0
  9 42  1  0  0  0  0
 10 11  1  0  0  0  0
 10 12  1  0  0  0  0
 11 43  1  0  0  0  0
 11 44  1  0  0  0  0
 11 45  1  0  0  0  0
 12 17  1  0  0  0  0
 12 13  2  0  0  0  0
 13 14  1  0  0  0  0
 14 15  2  0  0  0  0
 14 46  1  0  0  0  0
 15 16  1  0  0  0  0
 16 20  1  0  0  0  0
 16 17  2  0  0  0  0
 17 18  1  0  0  0  0
 18 19  2  0  0  0  0
 19 20  1  0  0  0  0
 19 47  1  0  0  0  0
 20 21  1  0  0  0  0
 21 22  1  0  0  0  0
 21 48  1  0  0  0  0
 21 49  1  0  0  0  0
 22 23  1  0  0  0  0
 22 24  1  0  0  0  0
 22 50  1  0  0  0  0
 23 51  1  0  0  0  0
 24 28  1  0  0  0  0
 24 25  1  0  0  0  0
 24 52  1  0  0  0  0
 25 26  1  0  0  0  0
 25 53  1  0  0  0  0
 25 54  1  0  0  0  0
 26 27  1  0  0  0  0
 26 55  1  0  0  0  0
 26 56  1  0  0  0  0
 27 28  1  0  0  0  0
 27 57  1  0  0  0  0
 27 58  1  0  0  0  0
M  CHG  1   4   1
M  END
> <s_m_source_file>
AV-unprocessed.smi

> <i_m_source_file_index>
213

> <i_lp_mmshare_version>
43012

> <i_f3d_flags>
0

> <s_epik_input>
W0NIMl0xW0NIMl1PW0NIMl1bQ0gyXU4xW0NIMl1bQ0BASF0oW0NIM10pTihbQ0gzXSljKG5bY0hdbjIpYyhjMjMpbltjSF1uM1tDSDJdW0NASF0oW09IXSlbQ0BASF00W0NIMl1bQ0gyXVtDSDJdTzQ=

> <s_epik_cmdline>
J2VwaWtfcHl0aG9uJywgJy1waCcsICc3LjAnLCAnLXRuJywgJzgnLCAnLW1hJywgJzIwMCcsICctbWV0YWxfYmluZGluZycsICctaW1hZScsICc8aW5maWxlLm1hZT4nLCAnLW9tYWUnLCAnPG91dGZpbGUubWFlPic=

> <r_lp_tautomer_probability>
1

> <r_epik_Ionization_Penalty>
0.399679

> <r_epik_Ionization_Penalty_Charging>
0.399433

> <r_epik_Ionization_Penalty_Neutral>
0.000246213

> <r_epik_State_Penalty>
0.286032

> <r_epik_Charging_Adjusted_Penalty>
0.685465

> <i_epik_Tot_Q>
1

> <i_epik_Tot_abs_Q>
1

> <r_epik_Metal_State_Penalty>
0.286072

> <b_epik_Metal_Only>
0

> <s_lp_Force_Field>
OPLS_2005

> <r_lp_Energy>
46.7886

> <b_lp_Chiralities_Consistent>
1

> <s_lp_Variant>
AV-unprocessed.smi:213-1

> <Gold.Version>
5.8.1

> <Gold.Id.Protein>
6NUR|6NUR_protein|mol2

> <Gold.PLP.Fitness>
50.1624

> <Gold.PLP.PLP>
-41.1612

> <Gold.PLP.part.hbond>
-2.0000

> <Gold.PLP.part.metal>
0.0000

> <Gold.PLP.part.buried>
-5.2882

> <Gold.PLP.part.nonpolar>
-34.2203

> <Gold.PLP.part.repulsive>
0.4988

> <Gold.PLP.ligand.clash>
0.0000

> <Gold.PLP.ligand.torsion>
2.0565

> <Gold.PLP.Chemscore.Hbond>
3.0000

> <Gold.PLP.Chemscore.CHOScore>
1.0000

> <Gold.PLP.Chemscore.Metal>
0.0000

> <Gold.Chemscore.Hbonds>
donor molecule, donor type, donor heavy atom, donor atom, acceptor molecule, acceptor atom, score
      L1  H     4    59       P1  7948  1.92
      L1  H    23    51       P1  8028  0.18
      L1  C    19    47       P1  7957  0.74

> <Gold.PLP.Chemscore.Internal.Correction>
1.1141

> <Gold.Rescore>
     Score         DG    S(hbond)    S(metal)    S(lipo)     H(rot)  DE(clash)    DE(int)     intcor
     10.75     -15.92       1.95        0.00      95.37       2.83       0.02       5.15       ----

> <Gold.Chemscore.Fitness>
10.7521

> <Gold.Chemscore.DG>
-15.9153

> <Gold.Chemscore.ZeroCoef>
-5.4800

> <Gold.Chemscore.Hbond>
1.9491

> <Gold.Chemscore.Metal>
0.0000

> <Gold.Chemscore.Lipo>
95.3696

> <Gold.Chemscore.Internal_Hbond>
0.0000

> <Gold.Chemscore.DEClash>
0.0166

> <Gold.Chemscore.DEInternal>
5.1466

> <Gold.Chemscore.Rot>
2.8254

> <Gold.Chemscore.Internal.Correction>
   9.000000E+99

> <Gold.Chemscore.Hbonds>
donor molecule, donor type, donor heavy atom, donor atom, acceptor molecule, acceptor atom, score
      L1  H     4    59       P1  7948  0.35
      L1  H    23    51       P1  8028  0.19

> <Gold.Chemscore.Hbond.Weighted>
-6.5100

> <Gold.Chemscore.Metal.Weighted>
-0.0000

> <Gold.Chemscore.Lipo.Weighted>
-11.1582

> <Gold.Chemscore.Internal_Hbond.Weighted>
0.0000

> <Gold.Chemscore.DEClash.Weighted>
0.0166

> <Gold.Chemscore.DEInternal.Weighted>
5.1466

> <Gold.Chemscore.Rot.Weighted>
7.2330

> <Gold.Chemscore.Internal.Correction.Weighted>
   9.000000E+99

> <Gold.Protein.RotatedTorsions>
[ 6907 6896 6895 6894 ] final   99.55 input  -60.11 | X-H torsion
[ 7974 7965 7964 7962 ] final  119.61 input  175.53 | X-H torsion
[ 8008 7997 7996 7995 ] final   68.96 input   59.86 | X-H torsion
[ 10167 10162 10161 10158 ] final  -32.44 input  -65.29 | X-H torsion
[ 10718 10713 10712 10709 ] final   90.23 input   66.30 | X-H torsion
[ 10763 10752 10751 10750 ] final  -47.42 input  -60.55 | X-H torsion
[ 11005 11000 10999 10996 ] final -122.22 input  -57.11 | X-H torsion

> <Gold.Protein.ActiveResidues>
 VAL166  LYS551  ARG553  GLY616  TRP617  ASP618  TYR619  PRO620  LYS621  CYS622 
 ASP623  PHE694  ASN695  SER759  ASP760  ASP761  ALA762  ILE779  LEU786  VAL792 
 PHE793  MET794  SER795  GLU796  ALA797  LYS798  CYS799  TRP800  GLU811  SER814 

> <Gold.Protein.RotatedAtoms>
  152.5390  134.0411  159.8067 H   0  0  0  0  0  0  0  0  0  0  0  0  # atno 6907 bound_to 6896
  151.0567  133.5571  159.2645 H   0  0  0  0  0  0  0  0  0  0  0  0  # atno 6908 bound_to 6896
  151.2485  135.0621  159.9106 H   0  0  0  0  0  0  0  0  0  0  0  0  # atno 6909 bound_to 6896
  145.1410  139.3268  143.4616 H   0  0  0  0  0  0  0  0  0  0  0  0  # atno 7974 bound_to 7965
  155.7163  140.3494  155.4996 H   0  0  0  0  0  0  0  0  0  0  0  0  # atno 8008 bound_to 7997
  155.9310  140.1084  157.1154 H   0  0  0  0  0  0  0  0  0  0  0  0  # atno 8009 bound_to 7997
  154.4085  140.1231  156.4789 H   0  0  0  0  0  0  0  0  0  0  0  0  # atno 8010 bound_to 7997
  140.7221  143.3694  151.1807 H   0  0  0  0  0  0  0  0  0  0  0  0  # atno 10167 bound_to 10162
  157.6958  131.0363  150.3546 H   0  0  0  0  0  0  0  0  0  0  0  0  # atno 10718 bound_to 10713
  154.0612  135.6618  153.4812 H   0  0  0  0  0  0  0  0  0  0  0  0  # atno 10763 bound_to 10752
  153.0426  135.5135  154.7657 H   0  0  0  0  0  0  0  0  0  0  0  0  # atno 10764 bound_to 10752
  154.6694  135.3027  154.9729 H   0  0  0  0  0  0  0  0  0  0  0  0  # atno 10765 bound_to 10752
  141.0011  134.0401  157.3536 H   0  0  0  0  0  0  0  0  0  0  0  0  # atno 11005 bound_to 11000
  146.3505  140.1447  142.8593 LP  0  0  0  0  0  0  0  0  0  0  0  0  # atno 17320 bound_to 7965
  145.0532  140.9033  143.4983 LP  0  0  0  0  0  0  0  0  0  0  0  0  # atno 17321 bound_to 7965
  139.7263  143.9144  152.3003 LP  0  0  0  0  0  0  0  0  0  0  0  0  # atno 17342 bound_to 10162
  139.8918  144.6961  150.8762 LP  0  0  0  0  0  0  0  0  0  0  0  0  # atno 17343 bound_to 10162
  156.3990  130.3912  149.6973 LP  0  0  0  0  0  0  0  0  0  0  0  0  # atno 17370 bound_to 10713
  156.4297  130.7809  151.2828 LP  0  0  0  0  0  0  0  0  0  0  0  0  # atno 17371 bound_to 10713
  139.9039  135.0174  156.7398 LP  0  0  0  0  0  0  0  0  0  0  0  0  # atno 17394 bound_to 11000
  140.6887  133.9410  155.7953 LP  0  0  0  0  0  0  0  0  0  0  0  0  # atno 17395 bound_to 11000

$$$$
