AV-unprocessed.smi:1681|AV-procd|sdf|6741|dock10
  -GOLD-   22720 7493D 1   1.00000     0.00000
 Structure written by MMmdl.
 40 41  0  0  0  0  0  0  0  0  1 V2000
  150.6394  138.1397  154.5210 C   0  0  0  0  0  0  0  0  0  0  0  0
  150.2176  139.6018  154.6849 C   0  0  0  0  0  0  0  0  0  0  0  0
  150.9728  140.3558  155.2988 O   0  0  0  0  0  0  0  0  0  0  0  0
  149.0423  140.0165  154.1534 N   0  0  0  0  0  0  0  0  0  0  0  0
  148.4722  141.3621  154.2996 C   0  0  0  0  0  0  0  0  0  0  0  0
  147.2503  141.2814  155.2318 C   0  0  0  0  0  0  0  0  0  0  0  0
  146.2191  140.2669  154.7011 C   0  0  0  0  0  0  0  0  0  0  0  0
  146.8709  138.9002  154.3835 C   0  0  1  0  0  0  0  0  0  0  0  0
  145.8641  137.9429  153.7314 C   0  0  0  0  0  0  0  0  0  0  0  0
  144.6705  138.0185  154.0235 O   0  0  0  0  0  0  0  0  0  0  0  0
  146.3756  137.0601  152.8559 N   0  0  0  0  0  0  0  0  0  0  0  0
  145.6766  136.0691  152.1230 C   0  0  0  0  0  0  0  0  0  0  0  0
  144.3547  136.0992  151.5954 C   0  0  0  0  0  0  0  0  0  0  0  0
  144.0660  134.9664  150.9724 N   0  0  0  0  0  0  0  0  0  0  0  0
  145.1822  134.2039  151.0889 N   0  0  0  0  0  0  0  0  0  0  0  0
  145.2081  132.8719  150.5112 C   0  0  0  0  0  0  0  0  0  0  0  0
  144.0001  132.6378  149.6022 C   0  0  0  0  0  0  0  0  0  0  0  0
  143.8556  133.4560  148.5563 N   0  0  0  0  0  0  0  0  0  0  0  0
  143.2085  131.7284  149.8406 O   0  0  0  0  0  0  0  0  0  0  0  0
  146.1850  134.8515  151.7839 C   0  0  0  0  0  0  0  0  0  0  0  0
  148.1095  139.1027  153.4811 C   0  0  0  0  0  0  0  0  0  0  0  0
  150.7127  137.8730  153.4661 H   0  0  0  0  0  0  0  0  0  0  0  0
  149.9254  137.4747  155.0076 H   0  0  0  0  0  0  0  0  0  0  0  0
  151.6159  137.9683  154.9754 H   0  0  0  0  0  0  0  0  0  0  0  0
  149.1792  142.0991  154.6778 H   0  0  0  0  0  0  0  0  0  0  0  0
  148.1679  141.7293  153.3184 H   0  0  0  0  0  0  0  0  0  0  0  0
  147.5734  140.9868  156.2312 H   0  0  0  0  0  0  0  0  0  0  0  0
  146.7887  142.2640  155.3327 H   0  0  0  0  0  0  0  0  0  0  0  0
  145.4153  140.1438  155.4279 H   0  0  0  0  0  0  0  0  0  0  0  0
  145.7588  140.6770  153.8008 H   0  0  0  0  0  0  0  0  0  0  0  0
  147.2077  138.4585  155.3233 H   0  0  0  0  0  0  0  0  0  0  0  0
  147.3730  137.1003  152.7029 H   0  0  0  0  0  0  0  0  0  0  0  0
  143.6074  136.8773  151.6372 H   0  0  0  0  0  0  0  0  0  0  0  0
  146.1330  132.7311  149.9490 H   0  0  0  0  0  0  0  0  0  0  0  0
  145.2113  132.1414  151.3213 H   0  0  0  0  0  0  0  0  0  0  0  0
  143.0761  133.3336  147.9257 H   0  0  0  0  0  0  0  0  0  0  0  0
  144.5304  134.1899  148.3959 H   0  0  0  0  0  0  0  0  0  0  0  0
  147.1460  134.3964  151.9741 H   0  0  0  0  0  0  0  0  0  0  0  0
  147.8206  139.5342  152.5211 H   0  0  0  0  0  0  0  0  0  0  0  0
  148.5664  138.1403  153.2445 H   0  0  0  0  0  0  0  0  0  0  0  0
  1  2  1  0  0  0  0
  1 22  1  0  0  0  0
  1 23  1  0  0  0  0
  1 24  1  0  0  0  0
  2  3  2  0  0  0  0
  2  4  1  0  0  0  0
  4 21  1  0  0  0  0
  4  5  1  0  0  0  0
  5  6  1  0  0  0  0
  5 25  1  0  0  0  0
  5 26  1  0  0  0  0
  6  7  1  0  0  0  0
  6 27  1  0  0  0  0
  6 28  1  0  0  0  0
  7  8  1  0  0  0  0
  7 29  1  0  0  0  0
  7 30  1  0  0  0  0
  8  9  1  0  0  0  0
  8 21  1  0  0  0  0
  8 31  1  0  0  0  0
  9 10  2  0  0  0  0
  9 11  1  0  0  0  0
 11 12  1  0  0  0  0
 11 32  1  0  0  0  0
 12 20  2  0  0  0  0
 12 13  1  0  0  0  0
 13 14  2  0  0  0  0
 13 33  1  0  0  0  0
 14 15  1  0  0  0  0
 15 16  1  0  0  0  0
 15 20  1  0  0  0  0
 16 17  1  0  0  0  0
 16 34  1  0  0  0  0
 16 35  1  0  0  0  0
 17 18  1  0  0  0  0
 17 19  2  0  0  0  0
 18 36  1  0  0  0  0
 18 37  1  0  0  0  0
 20 38  1  0  0  0  0
 21 39  1  0  0  0  0
 21 40  1  0  0  0  0
M  END
> <s_m_source_file>
AV-unprocessed.smi

> <i_m_source_file_index>
1681

> <i_lp_mmshare_version>
43012

> <i_f3d_flags>
0

> <s_epik_input>
W0NIM11DKD1PKU4xW0NIMl1bQ0gyXVtDSDJdW0NASF0oW0NIMl0xKUMoPU8pW05IXWMyW2NIXW5uKFtjSF0yKVtDSDJdQyg9TylbTkgyXQ==

> <s_epik_cmdline>
J2VwaWtfcHl0aG9uJywgJy1waCcsICc3LjAnLCAnLXRuJywgJzgnLCAnLW1hJywgJzIwMCcsICctbWV0YWxfYmluZGluZycsICctaW1hZScsICc8aW5maWxlLm1hZT4nLCAnLW9tYWUnLCAnPG91dGZpbGUubWFlPic=

> <r_lp_tautomer_probability>
1

> <r_epik_Ionization_Penalty>
6.05275e-06

> <r_epik_Ionization_Penalty_Charging>
0

> <r_epik_Ionization_Penalty_Neutral>
6.05275e-06

> <r_epik_State_Penalty>
-0

> <r_epik_Charging_Adjusted_Penalty>
0

> <i_epik_Tot_Q>
0

> <i_epik_Tot_abs_Q>
0

> <r_epik_Metal_State_Penalty>
-0

> <b_epik_Metal_Only>
0

> <s_lp_Force_Field>
OPLS_2005

> <r_lp_Energy>
29.0931

> <b_lp_Chiralities_Consistent>
1

> <s_lp_Variant>
AV-unprocessed.smi:1681-1

> <Gold.Version>
5.8.1

> <Gold.Id.Protein>
6NUR|6NUR_protein|mol2

> <Gold.PLP.Fitness>
42.1245

> <Gold.PLP.PLP>
-30.8186

> <Gold.PLP.part.hbond>
-4.6121

> <Gold.PLP.part.metal>
0.0000

> <Gold.PLP.part.buried>
-1.7034

> <Gold.PLP.part.nonpolar>
-27.7141

> <Gold.PLP.part.repulsive>
3.3957

> <Gold.PLP.ligand.clash>
0.0000

> <Gold.PLP.ligand.torsion>
1.0726

> <Gold.PLP.Chemscore.Hbond>
3.2280

> <Gold.PLP.Chemscore.CHOScore>
1.2479

> <Gold.PLP.Chemscore.Metal>
0.0000

> <Gold.Chemscore.Hbonds>
donor molecule, donor type, donor heavy atom, donor atom, acceptor molecule, acceptor atom, score
      L1  H    11    32       P1  7948  0.93
      L1  H    18    37       P1  7921  1.00
      P1  H  7989  7998       L1     3  0.25
      P1  H 10785 10796       L1    19  1.00
      L1  C    13    33       P1 10171  0.67
      L1  C    20    38       P1  7948  0.58

> <Gold.PLP.Chemscore.Internal.Correction>
0.0233

> <Gold.Rescore>
     Score         DG    S(hbond)    S(metal)    S(lipo)     H(rot)  DE(clash)    DE(int)     intcor
     13.82     -15.82       2.82        0.00      50.65       1.96       1.25       0.75       ----

> <Gold.Chemscore.Fitness>
13.8167

> <Gold.Chemscore.DG>
-15.8195

> <Gold.Chemscore.ZeroCoef>
-5.4800

> <Gold.Chemscore.Hbond>
2.8248

> <Gold.Chemscore.Metal>
0.0000

> <Gold.Chemscore.Lipo>
50.6547

> <Gold.Chemscore.Internal_Hbond>
0.0000

> <Gold.Chemscore.DEClash>
1.2519

> <Gold.Chemscore.DEInternal>
0.7509

> <Gold.Chemscore.Rot>
1.9617

> <Gold.Chemscore.Internal.Correction>
   9.000000E+99

> <Gold.Chemscore.Hbonds>
donor molecule, donor type, donor heavy atom, donor atom, acceptor molecule, acceptor atom, score
      L1  H    11    32       P1  7948  0.87
      L1  H    18    37       P1  7921  0.94
      P1  H 10785 10796       L1    19  0.96

> <Gold.Chemscore.Hbond.Weighted>
-9.4349

> <Gold.Chemscore.Metal.Weighted>
-0.0000

> <Gold.Chemscore.Lipo.Weighted>
-5.9266

> <Gold.Chemscore.Internal_Hbond.Weighted>
0.0000

> <Gold.Chemscore.DEClash.Weighted>
1.2519

> <Gold.Chemscore.DEInternal.Weighted>
0.7509

> <Gold.Chemscore.Rot.Weighted>
5.0220

> <Gold.Chemscore.Internal.Correction.Weighted>
   9.000000E+99

> <Gold.Protein.RotatedTorsions>
[ 6907 6896 6895 6894 ] final    4.04 input  -60.11 | X-H torsion
[ 7974 7965 7964 7962 ] final  -65.66 input  175.53 | X-H torsion
[ 8008 7997 7996 7995 ] final -120.25 input   59.86 | X-H torsion
[ 10167 10162 10161 10158 ] final  171.65 input  -65.29 | X-H torsion
[ 10718 10713 10712 10709 ] final -102.66 input   66.30 | X-H torsion
[ 10763 10752 10751 10750 ] final  -64.43 input  -60.55 | X-H torsion
[ 11005 11000 10999 10996 ] final  145.55 input  -57.11 | X-H torsion

> <Gold.Protein.ActiveResidues>
 VAL166  LYS551  ARG553  GLY616  TRP617  ASP618  TYR619  PRO620  LYS621  CYS622 
 ASP623  PHE694  ASN695  SER759  ASP760  ASP761  ALA762  ILE779  LEU786  VAL792 
 PHE793  MET794  SER795  GLU796  ALA797  LYS798  CYS799  TRP800  GLU811  SER814 

> <Gold.Protein.RotatedAtoms>
  151.6349  135.1019  160.0129 H   0  0  0  0  0  0  0  0  0  0  0  0  # atno 6907 bound_to 6896
  152.4086  133.6923  159.6386 H   0  0  0  0  0  0  0  0  0  0  0  0  # atno 6908 bound_to 6896
  150.7978  133.8582  159.3265 H   0  0  0  0  0  0  0  0  0  0  0  0  # atno 6909 bound_to 6896
  145.7515  140.8906  143.0477 H   0  0  0  0  0  0  0  0  0  0  0  0  # atno 7974 bound_to 7965
  155.1289  140.0400  157.2769 H   0  0  0  0  0  0  0  0  0  0  0  0  # atno 8008 bound_to 7997
  154.6558  140.2579  155.7137 H   0  0  0  0  0  0  0  0  0  0  0  0  # atno 8009 bound_to 7997
  156.2597  140.2827  156.1010 H   0  0  0  0  0  0  0  0  0  0  0  0  # atno 8010 bound_to 7997
  139.5053  144.3462  151.9969 H   0  0  0  0  0  0  0  0  0  0  0  0  # atno 10167 bound_to 10162
  156.0237  130.5431  150.7141 H   0  0  0  0  0  0  0  0  0  0  0  0  # atno 10718 bound_to 10713
  154.3299  135.6179  153.5546 H   0  0  0  0  0  0  0  0  0  0  0  0  # atno 10763 bound_to 10752
  152.9812  135.5744  154.4973 H   0  0  0  0  0  0  0  0  0  0  0  0  # atno 10764 bound_to 10752
  154.4658  135.2857  155.1656 H   0  0  0  0  0  0  0  0  0  0  0  0  # atno 10765 bound_to 10752
  140.0721  134.9145  157.1363 H   0  0  0  0  0  0  0  0  0  0  0  0  # atno 11005 bound_to 11000
  144.6849  139.9598  143.7480 LP  0  0  0  0  0  0  0  0  0  0  0  0  # atno 17320 bound_to 7965
  146.0352  139.3371  143.0731 LP  0  0  0  0  0  0  0  0  0  0  0  0  # atno 17321 bound_to 7965
  140.2899  144.3765  150.6092 LP  0  0  0  0  0  0  0  0  0  0  0  0  # atno 17342 bound_to 10162
  140.5954  143.2167  151.7174 LP  0  0  0  0  0  0  0  0  0  0  0  0  # atno 17343 bound_to 10162
  157.4772  131.0899  151.0576 LP  0  0  0  0  0  0  0  0  0  0  0  0  # atno 17370 bound_to 10713
  157.1020  130.5986  149.5462 LP  0  0  0  0  0  0  0  0  0  0  0  0  # atno 17371 bound_to 10713
  140.3611  134.2493  155.7187 LP  0  0  0  0  0  0  0  0  0  0  0  0  # atno 17394 bound_to 11000
  141.2016  133.7959  157.0434 LP  0  0  0  0  0  0  0  0  0  0  0  0  # atno 17395 bound_to 11000

$$$$
