AV-unprocessed.smi:1671|AV-procd|sdf|6698|dock3
  -GOLD-   22720 7433D 1   1.00000     0.00000
 Structure written by MMmdl.
 44 45  0  0  0  0  0  0  0  0  1 V2000
  150.9881  133.8867  153.0282 C   0  0  0  0  0  0  0  0  0  0  0  0
  150.9834  135.6442  153.4755 S   0  0  0  0  0  0  0  0  0  0  0  0
  149.4049  135.7689  154.3682 C   0  0  1  0  0  0  0  0  0  0  0  0
  149.4375  134.8935  155.6309 C   0  0  0  0  0  0  0  0  0  0  0  0
  149.0554  137.2220  154.7123 C   0  0  0  0  0  0  0  0  0  0  0  0
  148.8691  137.5573  155.8825 O   0  0  0  0  0  0  0  0  0  0  0  0
  148.9723  138.0779  153.6817 N   0  0  0  0  0  0  0  0  0  0  0  0
  148.6495  139.4965  153.7975 C   0  0  0  0  0  0  0  0  0  0  0  0
  149.5178  140.2620  154.7867 C   0  0  0  0  0  0  0  0  0  0  0  0
  150.9268  140.2516  154.7158 C   0  0  0  0  0  0  0  0  0  0  0  0
  151.6648  140.9813  155.6669 C   0  0  0  0  0  0  0  0  0  0  0  0
  150.9762  141.7035  156.6705 C   0  0  0  0  0  0  0  0  0  0  0  0
  151.6964  142.4474  157.6306 N   0  0  0  0  0  0  0  0  0  0  0  0
  151.2760  143.8359  157.7996 C   0  0  0  0  0  0  0  0  0  0  0  0
  152.3147  144.6118  158.6266 C   0  0  0  0  0  0  0  0  0  0  0  0
  152.5403  143.9458  159.8646 O   0  0  0  0  0  0  0  0  0  0  0  0
  153.0580  142.6314  159.6805 C   0  0  1  0  0  0  0  0  0  0  0  0
  153.3530  142.0323  161.0597 C   0  0  0  0  0  0  0  0  0  0  0  0
  152.0358  141.7909  158.8919 C   0  0  0  0  0  0  0  0  0  0  0  0
  149.6222  141.6976  156.7443 N   0  0  0  0  0  0  0  0  0  0  0  0
  148.9194  140.9984  155.8286 C   0  0  0  0  0  0  0  0  0  0  0  0
  151.9146  133.6357  152.5123 H   0  0  0  0  0  0  0  0  0  0  0  0
  150.1545  133.6535  152.3662 H   0  0  0  0  0  0  0  0  0  0  0  0
  150.9109  133.2653  153.9204 H   0  0  0  0  0  0  0  0  0  0  0  0
  148.6303  135.3682  153.7124 H   0  0  0  0  0  0  0  0  0  0  0  0
  148.5027  134.9652  156.1883 H   0  0  0  0  0  0  0  0  0  0  0  0
  150.2490  135.1829  156.3000 H   0  0  0  0  0  0  0  0  0  0  0  0
  149.5832  133.8446  155.3719 H   0  0  0  0  0  0  0  0  0  0  0  0
  149.1443  137.7221  152.7524 H   0  0  0  0  0  0  0  0  0  0  0  0
  148.7094  139.9660  152.8141 H   0  0  0  0  0  0  0  0  0  0  0  0
  147.6109  139.5836  154.1165 H   0  0  0  0  0  0  0  0  0  0  0  0
  151.4431  139.6930  153.9490 H   0  0  0  0  0  0  0  0  0  0  0  0
  152.7437  140.9668  155.6236 H   0  0  0  0  0  0  0  0  0  0  0  0
  151.1389  144.3383  156.8431 H   0  0  0  0  0  0  0  0  0  0  0  0
  150.3102  143.8506  158.3067 H   0  0  0  0  0  0  0  0  0  0  0  0
  153.2526  144.7120  158.0779 H   0  0  0  0  0  0  0  0  0  0  0  0
  151.9550  145.6210  158.8278 H   0  0  0  0  0  0  0  0  0  0  0  0
  153.9936  142.6905  159.1212 H   0  0  0  0  0  0  0  0  0  0  0  0
  153.7602  141.0248  160.9709 H   0  0  0  0  0  0  0  0  0  0  0  0
  152.4494  141.9757  161.6670 H   0  0  0  0  0  0  0  0  0  0  0  0
  154.0804  142.6383  161.6003 H   0  0  0  0  0  0  0  0  0  0  0  0
  151.1277  141.6523  159.4806 H   0  0  0  0  0  0  0  0  0  0  0  0
  152.4540  140.8021  158.6993 H   0  0  0  0  0  0  0  0  0  0  0  0
  147.8447  141.0295  155.9324 H   0  0  0  0  0  0  0  0  0  0  0  0
  1  2  1  0  0  0  0
  1 22  1  0  0  0  0
  1 23  1  0  0  0  0
  1 24  1  0  0  0  0
  2  3  1  0  0  0  0
  3  4  1  0  0  0  0
  3  5  1  0  0  0  0
  3 25  1  0  0  0  0
  4 26  1  0  0  0  0
  4 27  1  0  0  0  0
  4 28  1  0  0  0  0
  5  6  2  0  0  0  0
  5  7  1  0  0  0  0
  7  8  1  0  0  0  0
  7 29  1  0  0  0  0
  8  9  1  0  0  0  0
  8 30  1  0  0  0  0
  8 31  1  0  0  0  0
  9 21  1  0  0  0  0
  9 10  2  0  0  0  0
 10 11  1  0  0  0  0
 10 32  1  0  0  0  0
 11 12  2  0  0  0  0
 11 33  1  0  0  0  0
 12 13  1  0  0  0  0
 12 20  1  0  0  0  0
 13 19  1  0  0  0  0
 13 14  1  0  0  0  0
 14 15  1  0  0  0  0
 14 34  1  0  0  0  0
 14 35  1  0  0  0  0
 15 16  1  0  0  0  0
 15 36  1  0  0  0  0
 15 37  1  0  0  0  0
 16 17  1  0  0  0  0
 17 18  1  0  0  0  0
 17 19  1  0  0  0  0
 17 38  1  0  0  0  0
 18 39  1  0  0  0  0
 18 40  1  0  0  0  0
 18 41  1  0  0  0  0
 19 42  1  0  0  0  0
 19 43  1  0  0  0  0
 20 21  2  0  0  0  0
 21 44  1  0  0  0  0
M  END
> <s_m_source_file>
AV-unprocessed.smi

> <i_m_source_file_index>
1671

> <i_lp_mmshare_version>
43012

> <i_f3d_flags>
0

> <s_epik_input>
W0NIM11TW0NASF0oW0NIM10pQyg9TylbTkhdW0NIMl1jMVtjSF1bY0hdYyhuW2NIXTEpTjJbQ0gyXVtDSDJdT1tDQEBIXShbQ0gzXSlbQ0gyXTI=

> <s_epik_cmdline>
J2VwaWtfcHl0aG9uJywgJy1waCcsICc3LjAnLCAnLXRuJywgJzgnLCAnLW1hJywgJzIwMCcsICctbWV0YWxfYmluZGluZycsICctaW1hZScsICc8aW5maWxlLm1hZT4nLCAnLW9tYWUnLCAnPG91dGZpbGUubWFlPic=

> <r_lp_tautomer_probability>
1

> <r_epik_Ionization_Penalty>
0.00480033

> <r_epik_Ionization_Penalty_Charging>
0

> <r_epik_Ionization_Penalty_Neutral>
0.00480033

> <r_epik_State_Penalty>
0.00347981

> <r_epik_Charging_Adjusted_Penalty>
0.00347981

> <i_epik_Tot_Q>
0

> <i_epik_Tot_abs_Q>
0

> <r_epik_Metal_State_Penalty>
-0

> <b_epik_Metal_Only>
0

> <s_lp_Force_Field>
OPLS_2005

> <r_lp_Energy>
15.4739

> <b_lp_Chiralities_Consistent>
1

> <s_lp_Variant>
AV-unprocessed.smi:1671-2

> <Gold.Version>
5.8.1

> <Gold.Id.Protein>
6NUR|6NUR_protein|mol2

> <Gold.PLP.Fitness>
41.2534

> <Gold.PLP.PLP>
-38.9242

> <Gold.PLP.part.hbond>
-1.0000

> <Gold.PLP.part.metal>
0.0000

> <Gold.PLP.part.buried>
-3.0690

> <Gold.PLP.part.nonpolar>
-35.1325

> <Gold.PLP.part.repulsive>
0.1763

> <Gold.PLP.ligand.clash>
0.0000

> <Gold.PLP.ligand.torsion>
0.5195

> <Gold.PLP.Chemscore.Hbond>
1.0000

> <Gold.PLP.Chemscore.CHOScore>
0.0000

> <Gold.PLP.Chemscore.Metal>
0.0000

> <Gold.Chemscore.Hbonds>
donor molecule, donor type, donor heavy atom, donor atom, acceptor molecule, acceptor atom, score
      L1  H     7    29       P1  7948  0.80

> <Gold.PLP.Chemscore.Internal.Correction>
0.3682

> <Gold.Rescore>
     Score         DG    S(hbond)    S(metal)    S(lipo)     H(rot)  DE(clash)    DE(int)     intcor
     15.85     -16.42       1.00        0.00     100.60       1.63       0.01       0.56       ----

> <Gold.Chemscore.Fitness>
15.8517

> <Gold.Chemscore.DG>
-16.4225

> <Gold.Chemscore.ZeroCoef>
-5.4800

> <Gold.Chemscore.Hbond>
0.9994

> <Gold.Chemscore.Metal>
0.0000

> <Gold.Chemscore.Lipo>
100.5992

> <Gold.Chemscore.Internal_Hbond>
0.0000

> <Gold.Chemscore.DEClash>
0.0073

> <Gold.Chemscore.DEInternal>
0.5635

> <Gold.Chemscore.Rot>
1.6272

> <Gold.Chemscore.Internal.Correction>
   9.000000E+99

> <Gold.Chemscore.Hbonds>
donor molecule, donor type, donor heavy atom, donor atom, acceptor molecule, acceptor atom, score
      L1  H     7    29       P1  7948  0.78

> <Gold.Chemscore.Hbond.Weighted>
-3.3381

> <Gold.Chemscore.Metal.Weighted>
-0.0000

> <Gold.Chemscore.Lipo.Weighted>
-11.7701

> <Gold.Chemscore.Internal_Hbond.Weighted>
0.0000

> <Gold.Chemscore.DEClash.Weighted>
0.0073

> <Gold.Chemscore.DEInternal.Weighted>
0.5635

> <Gold.Chemscore.Rot.Weighted>
4.1657

> <Gold.Chemscore.Internal.Correction.Weighted>
   9.000000E+99

> <Gold.Protein.RotatedTorsions>
[ 6907 6896 6895 6894 ] final  134.81 input  -60.11 | X-H torsion
[ 7974 7965 7964 7962 ] final  177.62 input  175.53 | X-H torsion
[ 8008 7997 7996 7995 ] final   -4.53 input   59.86 | X-H torsion
[ 10167 10162 10161 10158 ] final  -95.19 input  -65.29 | X-H torsion
[ 10718 10713 10712 10709 ] final -136.46 input   66.30 | X-H torsion
[ 10763 10752 10751 10750 ] final  -21.10 input  -60.55 | X-H torsion
[ 11005 11000 10999 10996 ] final   23.51 input  -57.11 | X-H torsion

> <Gold.Protein.ActiveResidues>
 VAL166  LYS551  ARG553  GLY616  TRP617  ASP618  TYR619  PRO620  LYS621  CYS622 
 ASP623  PHE694  ASN695  SER759  ASP760  ASP761  ALA762  ILE779  LEU786  VAL792 
 PHE793  MET794  SER795  GLU796  ALA797  LYS798  CYS799  TRP800  GLU811  SER814 

> <Gold.Protein.RotatedAtoms>
  152.3072  133.5716  159.5656 H   0  0  0  0  0  0  0  0  0  0  0  0  # atno 6907 bound_to 6896
  150.7305  134.0205  159.3708 H   0  0  0  0  0  0  0  0  0  0  0  0  # atno 6908 bound_to 6896
  151.8100  135.0684  160.0462 H   0  0  0  0  0  0  0  0  0  0  0  0  # atno 6909 bound_to 6896
  144.7166  140.0275  143.6439 H   0  0  0  0  0  0  0  0  0  0  0  0  # atno 7974 bound_to 7965
  154.6133  140.2481  155.7641 H   0  0  0  0  0  0  0  0  0  0  0  0  # atno 8008 bound_to 7997
  156.2384  140.2942  156.0325 H   0  0  0  0  0  0  0  0  0  0  0  0  # atno 8009 bound_to 7997
  155.2016  140.0394  157.2908 H   0  0  0  0  0  0  0  0  0  0  0  0  # atno 8010 bound_to 7997
  140.3067  143.3130  152.0192 H   0  0  0  0  0  0  0  0  0  0  0  0  # atno 10167 bound_to 10162
  156.2773  130.7300  151.1286 H   0  0  0  0  0  0  0  0  0  0  0  0  # atno 10718 bound_to 10713
  153.6308  135.6989  153.5276 H   0  0  0  0  0  0  0  0  0  0  0  0  # atno 10763 bound_to 10752
  153.2861  135.4171  155.1123 H   0  0  0  0  0  0  0  0  0  0  0  0  # atno 10764 bound_to 10752
  154.8522  135.3614  154.5850 H   0  0  0  0  0  0  0  0  0  0  0  0  # atno 10765 bound_to 10752
  140.3688  134.2045  155.7668 H   0  0  0  0  0  0  0  0  0  0  0  0  # atno 11005 bound_to 11000
  146.0130  139.3185  143.0859 LP  0  0  0  0  0  0  0  0  0  0  0  0  # atno 17320 bound_to 7965
  145.8659  140.9448  143.0675 LP  0  0  0  0  0  0  0  0  0  0  0  0  # atno 17321 bound_to 7965
  139.4903  144.6416  151.6866 LP  0  0  0  0  0  0  0  0  0  0  0  0  # atno 17342 bound_to 10162
  140.5604  144.0278  150.6167 LP  0  0  0  0  0  0  0  0  0  0  0  0  # atno 17343 bound_to 10162
  157.7303  131.0617  150.5732 LP  0  0  0  0  0  0  0  0  0  0  0  0  # atno 17370 bound_to 10713
  156.5834  130.4310  149.5967 LP  0  0  0  0  0  0  0  0  0  0  0  0  # atno 17371 bound_to 10713
  141.1961  133.8090  157.0686 LP  0  0  0  0  0  0  0  0  0  0  0  0  # atno 17394 bound_to 11000
  140.0568  134.9776  157.1235 LP  0  0  0  0  0  0  0  0  0  0  0  0  # atno 17395 bound_to 11000

$$$$
