AV-unprocessed.smi:3032|AV-procd|sdf|11559|dock4
  -GOLD-   2272016523D 1   1.00000     0.00000
 Structure written by MMmdl.
 37 38  0  0  0  0  0  0  0  0  1 V2000
  153.2517  141.8581  161.1654 C   0  0  0  0  0  0  0  0  0  0  0  0
  152.8592  142.6580  159.9151 C   0  0  2  0  0  0  0  0  0  0  0  0
  152.3777  144.0754  160.2814 C   0  0  0  0  0  0  0  0  0  0  0  0
  151.9794  144.8762  159.0319 C   0  0  0  0  0  0  0  0  0  0  0  0
  150.9139  144.1339  158.2107 C   0  0  0  0  0  0  0  0  0  0  0  0
  151.3916  142.7183  157.8262 C   0  0  2  0  0  0  0  0  0  0  0  0
  150.3125  141.9818  157.0217 C   0  0  0  0  0  0  0  0  0  0  0  0
  149.2498  141.6600  157.5541 O   0  0  0  0  0  0  0  0  0  0  0  0
  150.5918  141.7352  155.7328 N   0  0  0  0  0  0  0  0  0  0  0  0
  149.6833  141.1020  154.7812 C   0  0  0  0  0  0  0  0  0  0  0  0
  149.2927  139.6657  155.1858 C   0  0  0  0  0  0  0  0  0  0  0  0
  150.4626  138.7533  155.3805 C   0  0  0  0  0  0  0  0  0  0  0  0
  150.3169  137.4509  155.6338 N   0  0  0  0  0  0  0  0  0  0  0  0
  151.5342  136.8779  155.7369 N   0  0  0  0  0  0  0  0  0  0  0  0
  152.3471  137.9130  155.5333 C   0  0  0  0  0  0  0  0  0  0  0  0
  151.7386  139.1152  155.3024 N   0  0  0  0  0  0  0  0  0  0  0  0
  151.7856  141.9221  159.0890 C   0  0  0  0  0  0  0  0  0  0  0  0
  149.4532  136.9362  155.7330 H   0  0  0  0  0  0  0  0  0  0  0  0
  152.4010  141.7244  161.8342 H   0  0  0  0  0  0  0  0  0  0  0  0
  154.0383  142.3652  161.7248 H   0  0  0  0  0  0  0  0  0  0  0  0
  153.6238  140.8688  160.8977 H   0  0  0  0  0  0  0  0  0  0  0  0
  153.7519  142.7559  159.2956 H   0  0  0  0  0  0  0  0  0  0  0  0
  151.5246  144.0114  160.9586 H   0  0  0  0  0  0  0  0  0  0  0  0
  153.1610  144.6081  160.8216 H   0  0  0  0  0  0  0  0  0  0  0  0
  151.6054  145.8578  159.3239 H   0  0  0  0  0  0  0  0  0  0  0  0
  152.8607  145.0526  158.4141 H   0  0  0  0  0  0  0  0  0  0  0  0
  149.9904  144.0766  158.7892 H   0  0  0  0  0  0  0  0  0  0  0  0
  150.6802  144.7093  157.3135 H   0  0  0  0  0  0  0  0  0  0  0  0
  152.2789  142.8191  157.1982 H   0  0  0  0  0  0  0  0  0  0  0  0
  151.4888  142.0332  155.3766 H   0  0  0  0  0  0  0  0  0  0  0  0
  148.7856  141.7190  154.7340 H   0  0  0  0  0  0  0  0  0  0  0  0
  150.1172  141.1122  153.7804 H   0  0  0  0  0  0  0  0  0  0  0  0
  148.7119  139.6897  156.1084 H   0  0  0  0  0  0  0  0  0  0  0  0
  148.6369  139.2338  154.4285 H   0  0  0  0  0  0  0  0  0  0  0  0
  153.4209  137.7982  155.5498 H   0  0  0  0  0  0  0  0  0  0  0  0
  152.1573  140.9370  158.8024 H   0  0  0  0  0  0  0  0  0  0  0  0
  150.9066  141.7490  159.7127 H   0  0  0  0  0  0  0  0  0  0  0  0
  1  2  1  0  0  0  0
  1 19  1  0  0  0  0
  1 20  1  0  0  0  0
  1 21  1  0  0  0  0
  2 17  1  0  0  0  0
  2  3  1  0  0  0  0
  2 22  1  0  0  0  0
  3  4  1  0  0  0  0
  3 23  1  0  0  0  0
  3 24  1  0  0  0  0
  4  5  1  0  0  0  0
  4 25  1  0  0  0  0
  4 26  1  0  0  0  0
  5  6  1  0  0  0  0
  5 27  1  0  0  0  0
  5 28  1  0  0  0  0
  6  7  1  0  0  0  0
  6 17  1  0  0  0  0
  6 29  1  0  0  0  0
  7  8  2  0  0  0  0
  7  9  1  0  0  0  0
  9 10  1  0  0  0  0
  9 30  1  0  0  0  0
 10 11  1  0  0  0  0
 10 31  1  0  0  0  0
 10 32  1  0  0  0  0
 11 33  1  0  0  0  0
 11 34  1  0  0  0  0
 11 12  1  0  0  0  0
 12 16  2  0  0  0  0
 12 13  1  0  0  0  0
 13 18  1  0  0  0  0
 13 14  1  0  0  0  0
 14 15  2  0  0  0  0
 15 16  1  0  0  0  0
 15 35  1  0  0  0  0
 17 36  1  0  0  0  0
 17 37  1  0  0  0  0
M  END
> <s_m_source_file>
AV-unprocessed.smi

> <i_m_source_file_index>
3032

> <i_lp_mmshare_version>
43012

> <i_f3d_flags>
0

> <s_epik_input>
W0NIM11bQ0BASF0xW0NIMl1bQ0gyXVtDSDJdW0NASF0oW0NIMl0xKUMoPU8pW05IXVtDSDJdW0NIMl1jMm5uW2NIXVtuSF0y

> <s_epik_cmdline>
J2VwaWtfcHl0aG9uJywgJy1waCcsICc3LjAnLCAnLXRuJywgJzgnLCAnLW1hJywgJzIwMCcsICctbWV0YWxfYmluZGluZycsICctaW1hZScsICc8aW5maWxlLm1hZT4nLCAnLW9tYWUnLCAnPG91dGZpbGUubWFlPic=

> <r_lp_tautomer_probability>
0.948284

> <r_epik_Ionization_Penalty>
0.000474052

> <r_epik_Ionization_Penalty_Charging>
0

> <r_epik_Ionization_Penalty_Neutral>
0.000474052

> <r_epik_State_Penalty>
0.271807

> <r_epik_Charging_Adjusted_Penalty>
0.271807

> <i_epik_Tot_Q>
0

> <i_epik_Tot_abs_Q>
0

> <r_epik_Metal_State_Penalty>
0.397201

> <b_epik_Metal_Only>
0

> <s_lp_Force_Field>
OPLS_2005

> <r_lp_Energy>
10.6887

> <b_lp_Chiralities_Consistent>
1

> <s_lp_Variant>
AV-unprocessed.smi:3032-3

> <Gold.Version>
5.8.1

> <Gold.Id.Protein>
6NUR|6NUR_protein|mol2

> <Gold.PLP.Fitness>
45.6139

> <Gold.PLP.PLP>
-40.0055

> <Gold.PLP.part.hbond>
-2.6489

> <Gold.PLP.part.metal>
0.0000

> <Gold.PLP.part.buried>
-4.4773

> <Gold.PLP.part.nonpolar>
-33.2250

> <Gold.PLP.part.repulsive>
0.4683

> <Gold.PLP.ligand.clash>
0.0000

> <Gold.PLP.ligand.torsion>
0.0988

> <Gold.PLP.Chemscore.Hbond>
1.9280

> <Gold.PLP.Chemscore.CHOScore>
0.0000

> <Gold.PLP.Chemscore.Metal>
0.0000

> <Gold.Chemscore.Hbonds>
donor molecule, donor type, donor heavy atom, donor atom, acceptor molecule, acceptor atom, score
      P1  H 10752 10764       L1    14  0.13

> <Gold.PLP.Chemscore.Internal.Correction>
0.0221

> <Gold.Rescore>
     Score         DG    S(hbond)    S(metal)    S(lipo)     H(rot)  DE(clash)    DE(int)     intcor
     14.74     -16.05       1.90        0.00      85.33       2.25       0.00       1.30       ----

> <Gold.Chemscore.Fitness>
14.7415

> <Gold.Chemscore.DG>
-16.0474

> <Gold.Chemscore.ZeroCoef>
-5.4800

> <Gold.Chemscore.Hbond>
1.8994

> <Gold.Chemscore.Metal>
0.0000

> <Gold.Chemscore.Lipo>
85.3314

> <Gold.Chemscore.Internal_Hbond>
0.0000

> <Gold.Chemscore.DEClash>
0.0019

> <Gold.Chemscore.DEInternal>
1.3041

> <Gold.Chemscore.Rot>
2.2501

> <Gold.Chemscore.Internal.Correction>
   9.000000E+99

> <Gold.Chemscore.Hbond.Weighted>
-6.3440

> <Gold.Chemscore.Metal.Weighted>
-0.0000

> <Gold.Chemscore.Lipo.Weighted>
-9.9838

> <Gold.Chemscore.Internal_Hbond.Weighted>
0.0000

> <Gold.Chemscore.DEClash.Weighted>
0.0019

> <Gold.Chemscore.DEInternal.Weighted>
1.3041

> <Gold.Chemscore.Rot.Weighted>
5.7603

> <Gold.Chemscore.Internal.Correction.Weighted>
   9.000000E+99

> <Gold.Protein.RotatedTorsions>
[ 6907 6896 6895 6894 ] final  149.24 input  -60.11 | X-H torsion
[ 7974 7965 7964 7962 ] final  -89.45 input  175.53 | X-H torsion
[ 8008 7997 7996 7995 ] final -117.97 input   59.86 | X-H torsion
[ 10167 10162 10161 10158 ] final   57.31 input  -65.29 | X-H torsion
[ 10718 10713 10712 10709 ] final  146.03 input   66.30 | X-H torsion
[ 10763 10752 10751 10750 ] final  -70.41 input  -60.55 | X-H torsion
[ 11005 11000 10999 10996 ] final -104.17 input  -57.11 | X-H torsion

> <Gold.Protein.ActiveResidues>
 VAL166  LYS551  ARG553  GLY616  TRP617  ASP618  TYR619  PRO620  LYS621  CYS622 
 ASP623  PHE694  ASN695  SER759  ASP760  ASP761  ALA762  ILE779  LEU786  VAL792 
 PHE793  MET794  SER795  GLU796  ALA797  LYS798  CYS799  TRP800  GLU811  SER814 

> <Gold.Protein.RotatedAtoms>
  152.1307  133.4406  159.4719 H   0  0  0  0  0  0  0  0  0  0  0  0  # atno 6907 bound_to 6896
  150.6878  134.2423  159.4487 H   0  0  0  0  0  0  0  0  0  0  0  0  # atno 6908 bound_to 6896
  152.0307  134.9769  160.0623 H   0  0  0  0  0  0  0  0  0  0  0  0  # atno 6909 bound_to 6896
  145.4396  140.9558  143.2082 H   0  0  0  0  0  0  0  0  0  0  0  0  # atno 7974 bound_to 7965
  155.0921  140.0395  157.2672 H   0  0  0  0  0  0  0  0  0  0  0  0  # atno 8008 bound_to 7997
  154.6823  140.2635  155.6870 H   0  0  0  0  0  0  0  0  0  0  0  0  # atno 8009 bound_to 7997
  156.2699  140.2776  156.1372 H   0  0  0  0  0  0  0  0  0  0  0  0  # atno 8010 bound_to 7997
  140.1994  144.4004  150.6536 H   0  0  0  0  0  0  0  0  0  0  0  0  # atno 10167 bound_to 10162
  157.3381  131.0931  151.1106 H   0  0  0  0  0  0  0  0  0  0  0  0  # atno 10718 bound_to 10713
  154.4172  135.5995  153.5988 H   0  0  0  0  0  0  0  0  0  0  0  0  # atno 10763 bound_to 10752
  152.9792  135.5943  154.3998 H   0  0  0  0  0  0  0  0  0  0  0  0  # atno 10764 bound_to 10752
  154.3819  135.2841  155.2185 H   0  0  0  0  0  0  0  0  0  0  0  0  # atno 10765 bound_to 10752
  141.1112  133.8701  157.1578 H   0  0  0  0  0  0  0  0  0  0  0  0  # atno 11005 bound_to 11000
  144.8130  139.5927  143.7021 LP  0  0  0  0  0  0  0  0  0  0  0  0  # atno 17320 bound_to 7965
  146.2563  139.6310  142.9392 LP  0  0  0  0  0  0  0  0  0  0  0  0  # atno 17321 bound_to 7965
  140.6401  143.2202  151.6309 LP  0  0  0  0  0  0  0  0  0  0  0  0  # atno 17342 bound_to 10162
  139.5223  144.3166  152.0947 LP  0  0  0  0  0  0  0  0  0  0  0  0  # atno 17343 bound_to 10162
  157.2328  130.6533  149.5857 LP  0  0  0  0  0  0  0  0  0  0  0  0  # atno 17370 bound_to 10713
  155.9704  130.4593  150.6032 LP  0  0  0  0  0  0  0  0  0  0  0  0  # atno 17371 bound_to 10713
  140.0008  135.0028  157.0184 LP  0  0  0  0  0  0  0  0  0  0  0  0  # atno 17394 bound_to 11000
  140.4769  134.1329  155.7211 LP  0  0  0  0  0  0  0  0  0  0  0  0  # atno 17395 bound_to 11000

$$$$
