AV-unprocessed.smi:3311|AV-procd|sdf|12725|dock3
  -GOLD-   2272019 63D 1   1.00000     0.00000
 Structure written by MMmdl.
 43 44  0  0  0  0  0  0  0  0  1 V2000
  145.1165  136.3111  151.7106 C   0  0  0  0  0  0  0  0  0  0  0  0
  145.8553  135.5358  152.8248 C   0  0  2  0  0  0  0  0  0  0  0  0
  146.9051  136.3619  153.4335 N   0  0  0  0  0  0  0  0  0  0  0  0
  146.4696  137.6524  153.9729 C   0  0  0  0  0  0  0  0  0  0  0  0
  147.4299  138.8026  153.5947 C   0  0  0  0  0  0  0  0  0  0  0  0
  147.7650  138.6339  152.2285 O   0  0  0  0  0  0  0  0  0  0  0  0
  146.7977  140.2012  153.8131 C   0  0  0  0  0  0  0  0  0  0  0  0
  147.7913  141.3538  153.5808 C   0  0  0  0  0  0  0  0  0  0  0  0
  149.0530  141.1888  154.4388 C   0  0  0  0  0  0  0  0  0  0  0  0
  149.7196  139.8317  154.1760 C   0  0  0  0  0  0  0  0  0  0  0  0
  148.7361  138.6718  154.4145 C   0  0  0  0  0  0  0  0  0  0  0  0
  146.4708  134.2001  152.3273 C   0  0  1  0  0  0  0  0  0  0  0  0
  147.2149  133.4403  153.4417 C   0  0  0  0  0  0  0  0  0  0  0  0
  145.4721  133.3237  151.7266 N   0  0  0  0  0  0  0  0  0  0  0  0
  145.6602  132.1219  151.0725 C   0  0  0  0  0  0  0  0  0  0  0  0
  144.4315  131.6710  150.6836 C   0  0  0  0  0  0  0  0  0  0  0  0
  143.5406  132.6787  151.1470 C   0  0  0  0  0  0  0  0  0  0  0  0
  144.1653  133.6656  151.7685 N   0  0  0  0  0  0  0  0  0  0  0  0
  144.3229  135.7171  151.2584 H   0  0  0  0  0  0  0  0  0  0  0  0
  145.8017  136.6049  150.9148 H   0  0  0  0  0  0  0  0  0  0  0  0
  144.6361  137.2128  152.0882 H   0  0  0  0  0  0  0  0  0  0  0  0
  145.1197  135.2883  153.5914 H   0  0  0  0  0  0  0  0  0  0  0  0
  147.3655  135.8344  154.1688 H   0  0  0  0  0  0  0  0  0  0  0  0
  145.4752  137.8931  153.5983 H   0  0  0  0  0  0  0  0  0  0  0  0
  146.3847  137.5923  155.0589 H   0  0  0  0  0  0  0  0  0  0  0  0
  148.5003  139.1936  152.0309 H   0  0  0  0  0  0  0  0  0  0  0  0
  145.9342  140.3404  153.1616 H   0  0  0  0  0  0  0  0  0  0  0  0
  146.4186  140.2655  154.8340 H   0  0  0  0  0  0  0  0  0  0  0  0
  148.0679  141.3960  152.5267 H   0  0  0  0  0  0  0  0  0  0  0  0
  147.3114  142.3058  153.8093 H   0  0  0  0  0  0  0  0  0  0  0  0
  149.7551  141.9964  154.2286 H   0  0  0  0  0  0  0  0  0  0  0  0
  148.7926  141.2712  155.4948 H   0  0  0  0  0  0  0  0  0  0  0  0
  150.0928  139.7980  153.1518 H   0  0  0  0  0  0  0  0  0  0  0  0
  150.5902  139.7166  154.8220 H   0  0  0  0  0  0  0  0  0  0  0  0
  148.4902  138.6418  155.4770 H   0  0  0  0  0  0  0  0  0  0  0  0
  149.2281  137.7232  154.1946 H   0  0  0  0  0  0  0  0  0  0  0  0
  147.2009  134.4388  151.5510 H   0  0  0  0  0  0  0  0  0  0  0  0
  148.0502  134.0202  153.8348 H   0  0  0  0  0  0  0  0  0  0  0  0
  147.6233  132.5008  153.0679 H   0  0  0  0  0  0  0  0  0  0  0  0
  146.5530  133.2065  154.2761 H   0  0  0  0  0  0  0  0  0  0  0  0
  146.6424  131.6919  150.9422 H   0  0  0  0  0  0  0  0  0  0  0  0
  144.2036  130.7607  150.1493 H   0  0  0  0  0  0  0  0  0  0  0  0
  142.4657  132.7221  151.0509 H   0  0  0  0  0  0  0  0  0  0  0  0
  1  2  1  0  0  0  0
  1 19  1  0  0  0  0
  1 20  1  0  0  0  0
  1 21  1  0  0  0  0
  2  3  1  0  0  0  0
  2 12  1  0  0  0  0
  2 22  1  0  0  0  0
  3  4  1  0  0  0  0
  3 23  1  0  0  0  0
  4  5  1  0  0  0  0
  4 24  1  0  0  0  0
  4 25  1  0  0  0  0
  5 11  1  0  0  0  0
  5  6  1  0  0  0  0
  5  7  1  0  0  0  0
  6 26  1  0  0  0  0
  7  8  1  0  0  0  0
  7 27  1  0  0  0  0
  7 28  1  0  0  0  0
  8  9  1  0  0  0  0
  8 29  1  0  0  0  0
  8 30  1  0  0  0  0
  9 10  1  0  0  0  0
  9 31  1  0  0  0  0
  9 32  1  0  0  0  0
 10 11  1  0  0  0  0
 10 33  1  0  0  0  0
 10 34  1  0  0  0  0
 11 35  1  0  0  0  0
 11 36  1  0  0  0  0
 12 13  1  0  0  0  0
 12 14  1  0  0  0  0
 12 37  1  0  0  0  0
 13 38  1  0  0  0  0
 13 39  1  0  0  0  0
 13 40  1  0  0  0  0
 14 18  1  0  0  0  0
 14 15  1  0  0  0  0
 15 16  2  0  0  0  0
 15 41  1  0  0  0  0
 16 17  1  0  0  0  0
 16 42  1  0  0  0  0
 17 18  2  0  0  0  0
 17 43  1  0  0  0  0
M  END
> <s_m_source_file>
AV-unprocessed.smi

> <i_m_source_file_index>
3311

> <i_lp_mmshare_version>
43012

> <i_f3d_flags>
0

> <s_epik_input>
bjFbY0hdW2NIXVtjSF1uMVtDQEBIXShbQ0gzXSlbQ0BIXShbQ0gzXSlbTkhdW0NIMl1DMihbT0hdKVtDSDJdW0NIMl1bQ0gyXVtDSDJdW0NIMl0y

> <s_epik_cmdline>
J2VwaWtfcHl0aG9uJywgJy1waCcsICc3LjAnLCAnLXRuJywgJzgnLCAnLW1hJywgJzIwMCcsICctbWV0YWxfYmluZGluZycsICctaW1hZScsICc8aW5maWxlLm1hZT4nLCAnLW9tYWUnLCAnPG91dGZpbGUubWFlPic=

> <r_lp_tautomer_probability>
1

> <r_epik_Ionization_Penalty>
2.222

> <r_epik_Ionization_Penalty_Charging>
0

> <r_epik_Ionization_Penalty_Neutral>
2.222

> <r_epik_State_Penalty>
2.36562

> <r_epik_Charging_Adjusted_Penalty>
2.36562

> <i_epik_Tot_Q>
0

> <i_epik_Tot_abs_Q>
0

> <r_epik_Metal_State_Penalty>
2.36435

> <b_epik_Metal_Only>
0

> <s_lp_Force_Field>
OPLS_2005

> <r_lp_Energy>
27.677

> <b_lp_Chiralities_Consistent>
1

> <s_lp_Variant>
AV-unprocessed.smi:3311-7

> <Gold.Version>
5.8.1

> <Gold.Id.Protein>
6NUR|6NUR_protein|mol2

> <Gold.PLP.Fitness>
42.2467

> <Gold.PLP.PLP>
-34.2536

> <Gold.PLP.part.hbond>
-2.9636

> <Gold.PLP.part.metal>
0.0000

> <Gold.PLP.part.buried>
-4.4388

> <Gold.PLP.part.nonpolar>
-27.1344

> <Gold.PLP.part.repulsive>
0.1302

> <Gold.PLP.ligand.clash>
0.0000

> <Gold.PLP.ligand.torsion>
0.5378

> <Gold.PLP.Chemscore.Hbond>
0.9920

> <Gold.PLP.Chemscore.CHOScore>
2.0000

> <Gold.PLP.Chemscore.Metal>
0.0000

> <Gold.Chemscore.Hbonds>
donor molecule, donor type, donor heavy atom, donor atom, acceptor molecule, acceptor atom, score
      L1  H     6    26       P1  7957  1.00
      L1  C    15    41       P1 10747  0.91
      L1  C    17    43       P1 10186  0.59

> <Gold.PLP.Chemscore.Internal.Correction>
0.0926

> <Gold.Rescore>
     Score         DG    S(hbond)    S(metal)    S(lipo)     H(rot)  DE(clash)    DE(int)     intcor
     11.33     -13.51       0.99        0.00      85.53       2.07       0.32       1.86       ----

> <Gold.Chemscore.Fitness>
11.3329

> <Gold.Chemscore.DG>
-13.5054

> <Gold.Chemscore.ZeroCoef>
-5.4800

> <Gold.Chemscore.Hbond>
0.9922

> <Gold.Chemscore.Metal>
0.0000

> <Gold.Chemscore.Lipo>
85.5319

> <Gold.Chemscore.Internal_Hbond>
0.0000

> <Gold.Chemscore.DEClash>
0.3168

> <Gold.Chemscore.DEInternal>
1.8557

> <Gold.Chemscore.Rot>
2.0686

> <Gold.Chemscore.Internal.Correction>
   9.000000E+99

> <Gold.Chemscore.Hbonds>
donor molecule, donor type, donor heavy atom, donor atom, acceptor molecule, acceptor atom, score
      L1  H     6    26       P1  7957  0.98

> <Gold.Chemscore.Hbond.Weighted>
-3.3139

> <Gold.Chemscore.Metal.Weighted>
-0.0000

> <Gold.Chemscore.Lipo.Weighted>
-10.0072

> <Gold.Chemscore.Internal_Hbond.Weighted>
0.0000

> <Gold.Chemscore.DEClash.Weighted>
0.3168

> <Gold.Chemscore.DEInternal.Weighted>
1.8557

> <Gold.Chemscore.Rot.Weighted>
5.2957

> <Gold.Chemscore.Internal.Correction.Weighted>
   9.000000E+99

> <Gold.Protein.RotatedTorsions>
[ 6907 6896 6895 6894 ] final  -25.41 input  -60.11 | X-H torsion
[ 7974 7965 7964 7962 ] final  105.12 input  175.53 | X-H torsion
[ 8008 7997 7996 7995 ] final  136.68 input   59.86 | X-H torsion
[ 10167 10162 10161 10158 ] final   -8.85 input  -65.29 | X-H torsion
[ 10718 10713 10712 10709 ] final  142.61 input   66.30 | X-H torsion
[ 10763 10752 10751 10750 ] final  -92.50 input  -60.55 | X-H torsion
[ 11005 11000 10999 10996 ] final   55.83 input  -57.11 | X-H torsion

> <Gold.Protein.ActiveResidues>
 VAL166  LYS551  ARG553  GLY616  TRP617  ASP618  TYR619  PRO620  LYS621  CYS622 
 ASP623  PHE694  ASN695  SER759  ASP760  ASP761  ALA762  ILE779  LEU786  VAL792 
 PHE793  MET794  SER795  GLU796  ALA797  LYS798  CYS799  TRP800  GLU811  SER814 

> <Gold.Protein.RotatedAtoms>
  151.1755  135.0337  159.8769 H   0  0  0  0  0  0  0  0  0  0  0  0  # atno 6907 bound_to 6896
  152.5447  134.1122  159.8373 H   0  0  0  0  0  0  0  0  0  0  0  0  # atno 6908 bound_to 6896
  151.1233  133.5042  159.2634 H   0  0  0  0  0  0  0  0  0  0  0  0  # atno 6909 bound_to 6896
  145.3238  139.2505  143.3698 H   0  0  0  0  0  0  0  0  0  0  0  0  # atno 7974 bound_to 7965
  156.3004  140.2439  156.3785 H   0  0  0  0  0  0  0  0  0  0  0  0  # atno 8008 bound_to 7997
  154.8723  140.0415  157.1752 H   0  0  0  0  0  0  0  0  0  0  0  0  # atno 8009 bound_to 7997
  154.8782  140.2945  155.5444 H   0  0  0  0  0  0  0  0  0  0  0  0  # atno 8010 bound_to 7997
  140.7071  143.5923  150.8881 H   0  0  0  0  0  0  0  0  0  0  0  0  # atno 10167 bound_to 10162
  157.3786  131.0989  151.0761 H   0  0  0  0  0  0  0  0  0  0  0  0  # atno 10718 bound_to 10713
  154.6867  135.5229  153.8336 H   0  0  0  0  0  0  0  0  0  0  0  0  # atno 10763 bound_to 10752
  153.0602  135.6565  154.0490 H   0  0  0  0  0  0  0  0  0  0  0  0  # atno 10764 bound_to 10752
  154.0369  135.2980  155.3340 H   0  0  0  0  0  0  0  0  0  0  0  0  # atno 10765 bound_to 10752
  140.0576  134.5648  155.9189 H   0  0  0  0  0  0  0  0  0  0  0  0  # atno 11005 bound_to 11000
  146.3072  140.3801  142.8683 LP  0  0  0  0  0  0  0  0  0  0  0  0  # atno 17320 bound_to 7965
  144.8918  140.7533  143.5922 LP  0  0  0  0  0  0  0  0  0  0  0  0  # atno 17321 bound_to 7965
  139.9648  143.6122  152.2991 LP  0  0  0  0  0  0  0  0  0  0  0  0  # atno 17342 bound_to 10162
  139.6688  144.7661  151.1822 LP  0  0  0  0  0  0  0  0  0  0  0  0  # atno 17343 bound_to 10162
  157.1838  130.6321  149.5681 LP  0  0  0  0  0  0  0  0  0  0  0  0  # atno 17370 bound_to 10713
  155.9770  130.4745  150.6569 LP  0  0  0  0  0  0  0  0  0  0  0  0  # atno 17371 bound_to 10713
  141.1959  133.6589  156.5665 LP  0  0  0  0  0  0  0  0  0  0  0  0  # atno 17394 bound_to 11000
  140.3820  134.7515  157.4667 LP  0  0  0  0  0  0  0  0  0  0  0  0  # atno 17395 bound_to 11000

$$$$
