AV-unprocessed.smi:3009|AV-procd|sdf|11449|dock3
  -GOLD-   2272016383D 1   1.00000     0.00000
 Structure written by MMmdl.
 44 45  0  0  0  0  0  0  0  0  2 V2000
  151.6869  145.2517  160.1455 C   0  0  0  0  0  0  0  0  0  0  0  0
  152.0540  144.1334  159.1588 C   0  0  0  0  0  0  0  0  0  0  0  0
  152.8067  144.7128  157.9491 C   0  0  0  0  0  0  0  0  0  0  0  0
  150.7921  143.3504  158.7342 C   0  0  0  0  0  0  0  0  0  0  0  0
  151.0526  142.3464  157.6704 N   0  3  1  0  0  0  0  0  0  0  0  0
  151.8176  141.1638  158.1379 C   0  0  0  0  0  0  0  0  0  0  0  0
  152.0726  140.1951  156.9715 C   0  0  0  0  0  0  0  0  0  0  0  0
  150.8334  139.8204  156.3838 O   0  0  0  0  0  0  0  0  0  0  0  0
  150.1354  140.9367  155.8405 C   0  0  1  0  0  0  0  0  0  0  0  0
  148.8613  140.4241  155.1450 C   0  0  0  0  0  0  0  0  0  0  0  0
  148.2568  141.4427  154.2929 N   0  0  0  0  0  0  0  0  0  0  0  0
  147.0847  142.0464  154.5331 C   0  0  0  0  0  0  0  0  0  0  0  0
  146.3849  141.8008  155.5157 O   0  0  0  0  0  0  0  0  0  0  0  0
  146.7879  142.9390  153.5752 N   0  0  0  0  0  0  0  0  0  0  0  0
  145.6454  143.7752  153.5083 C   0  0  0  0  0  0  0  0  0  0  0  0
  145.2794  144.7241  152.5089 C   0  0  0  0  0  0  0  0  0  0  0  0
  144.1274  145.3101  152.8029 N   0  0  0  0  0  0  0  0  0  0  0  0
  143.7560  144.7475  153.9748 N   0  0  0  0  0  0  0  0  0  0  0  0
  144.6502  143.8084  154.4392 C   0  0  0  0  0  0  0  0  0  0  0  0
  149.8111  141.9173  156.9836 C   0  0  0  0  0  0  0  0  0  0  0  0
  142.8990  145.0122  154.4395 H   0  0  0  0  0  0  0  0  0  0  0  0
  151.0137  145.9782  159.6892 H   0  0  0  0  0  0  0  0  0  0  0  0
  152.5750  145.7873  160.4827 H   0  0  0  0  0  0  0  0  0  0  0  0
  151.1923  144.8498  161.0303 H   0  0  0  0  0  0  0  0  0  0  0  0
  152.7320  143.4631  159.6860 H   0  0  0  0  0  0  0  0  0  0  0  0
  152.1766  145.3965  157.3791 H   0  0  0  0  0  0  0  0  0  0  0  0
  153.1433  143.9268  157.2728 H   0  0  0  0  0  0  0  0  0  0  0  0
  153.6912  145.2652  158.2673 H   0  0  0  0  0  0  0  0  0  0  0  0
  150.3432  142.8511  159.5944 H   0  0  0  0  0  0  0  0  0  0  0  0
  150.0496  144.0667  158.3790 H   0  0  0  0  0  0  0  0  0  0  0  0
  152.7728  141.4673  158.5643 H   0  0  0  0  0  0  0  0  0  0  0  0
  151.2614  140.6555  158.9272 H   0  0  0  0  0  0  0  0  0  0  0  0
  152.7240  140.6483  156.2225 H   0  0  0  0  0  0  0  0  0  0  0  0
  152.5778  139.2985  157.3310 H   0  0  0  0  0  0  0  0  0  0  0  0
  150.7696  141.4406  155.1087 H   0  0  0  0  0  0  0  0  0  0  0  0
  149.0928  139.5542  154.5298 H   0  0  0  0  0  0  0  0  0  0  0  0
  148.1319  140.0928  155.8861 H   0  0  0  0  0  0  0  0  0  0  0  0
  148.7684  141.7058  153.4633 H   0  0  0  0  0  0  0  0  0  0  0  0
  147.4476  143.0325  152.8170 H   0  0  0  0  0  0  0  0  0  0  0  0
  145.7899  145.0066  151.6002 H   0  0  0  0  0  0  0  0  0  0  0  0
  144.5029  143.2658  155.3613 H   0  0  0  0  0  0  0  0  0  0  0  0
  149.1376  141.4508  157.7046 H   0  0  0  0  0  0  0  0  0  0  0  0
  149.2955  142.7897  156.5800 H   0  0  0  0  0  0  0  0  0  0  0  0
  151.6165  142.8076  156.9704 H   0  0  0  0  0  0  0  0  0  0  0  0
  1  2  1  0  0  0  0
  1 22  1  0  0  0  0
  1 23  1  0  0  0  0
  1 24  1  0  0  0  0
  2  3  1  0  0  0  0
  2  4  1  0  0  0  0
  2 25  1  0  0  0  0
  3 26  1  0  0  0  0
  3 27  1  0  0  0  0
  3 28  1  0  0  0  0
  4  5  1  0  0  0  0
  4 29  1  0  0  0  0
  4 30  1  0  0  0  0
  5 20  1  0  0  0  0
  5  6  1  0  0  0  0
  5 44  1  0  0  0  0
  6  7  1  0  0  0  0
  6 31  1  0  0  0  0
  6 32  1  0  0  0  0
  7  8  1  0  0  0  0
  7 33  1  0  0  0  0
  7 34  1  0  0  0  0
  8  9  1  0  0  0  0
  9 10  1  0  0  0  0
  9 20  1  0  0  0  0
  9 35  1  0  0  0  0
 10 11  1  0  0  0  0
 10 36  1  0  0  0  0
 10 37  1  0  0  0  0
 11 12  1  0  0  0  0
 11 38  1  0  0  0  0
 12 13  2  0  0  0  0
 12 14  1  0  0  0  0
 14 15  1  0  0  0  0
 14 39  1  0  0  0  0
 15 19  2  0  0  0  0
 15 16  1  0  0  0  0
 16 17  2  0  0  0  0
 16 40  1  0  0  0  0
 17 18  1  0  0  0  0
 18 21  1  0  0  0  0
 18 19  1  0  0  0  0
 19 41  1  0  0  0  0
 20 42  1  0  0  0  0
 20 43  1  0  0  0  0
M  CHG  1   5   1
M  END
> <s_m_source_file>
AV-unprocessed.smi

> <i_m_source_file_index>
3009

> <i_lp_mmshare_version>
43012

> <i_f3d_flags>
0

> <s_epik_input>
W0NIM11bQ0hdKFtDSDNdKVtDSDJdTjFbQ0gyXVtDSDJdT1tDQEhdKFtDSDJdMSlbQ0gyXVtOSF1DKD1PKVtOSF1jMltjSF1uW25IXVtjSF0y

> <s_epik_cmdline>
J2VwaWtfcHl0aG9uJywgJy1waCcsICc3LjAnLCAnLXRuJywgJzgnLCAnLW1hJywgJzIwMCcsICctbWV0YWxfYmluZGluZycsICctaW1hZScsICc8aW5maWxlLm1hZT4nLCAnLW9tYWUnLCAnPG91dGZpbGUubWFlPic=

> <r_lp_tautomer_probability>
0.5

> <r_epik_Ionization_Penalty>
0.0974064

> <r_epik_Ionization_Penalty_Charging>
0.0973651

> <r_epik_Ionization_Penalty_Neutral>
4.13573e-05

> <r_epik_State_Penalty>
0.0874853

> <r_epik_Charging_Adjusted_Penalty>
0.18485

> <i_epik_Tot_Q>
1

> <i_epik_Tot_abs_Q>
1

> <r_epik_Metal_State_Penalty>
0.0874855

> <b_epik_Metal_Only>
0

> <s_lp_Force_Field>
OPLS_2005

> <r_lp_Energy>
19.2351

> <b_lp_Chiralities_Consistent>
1

> <s_lp_Variant>
AV-unprocessed.smi:3009-1

> <Gold.Version>
5.8.1

> <Gold.Id.Protein>
6NUR|6NUR_protein|mol2

> <Gold.PLP.Fitness>
39.7656

> <Gold.PLP.PLP>
-40.2437

> <Gold.PLP.part.hbond>
-1.6162

> <Gold.PLP.part.metal>
0.0000

> <Gold.PLP.part.buried>
-5.4821

> <Gold.PLP.part.nonpolar>
-34.1476

> <Gold.PLP.part.repulsive>
0.7748

> <Gold.PLP.ligand.clash>
0.0000

> <Gold.PLP.ligand.torsion>
0.2725

> <Gold.PLP.Chemscore.Hbond>
0.0000

> <Gold.PLP.Chemscore.CHOScore>
0.0000

> <Gold.PLP.Chemscore.Metal>
0.0000

> <Gold.PLP.Chemscore.Internal.Correction>
0.0670

> <Gold.Rescore>
     Score         DG    S(hbond)    S(metal)    S(lipo)     H(rot)  DE(clash)    DE(int)     intcor
     11.01     -12.78       0.00        0.00     101.66       1.80       0.23       1.53       ----

> <Gold.Chemscore.Fitness>
11.0108

> <Gold.Chemscore.DG>
-12.7759

> <Gold.Chemscore.ZeroCoef>
-5.4800

> <Gold.Chemscore.Hbond>
0.0000

> <Gold.Chemscore.Metal>
0.0000

> <Gold.Chemscore.Lipo>
101.6613

> <Gold.Chemscore.Internal_Hbond>
0.0000

> <Gold.Chemscore.DEClash>
0.2314

> <Gold.Chemscore.DEInternal>
1.5338

> <Gold.Chemscore.Rot>
1.7963

> <Gold.Chemscore.Internal.Correction>
   9.000000E+99

> <Gold.Chemscore.Hbond.Weighted>
-0.0000

> <Gold.Chemscore.Metal.Weighted>
-0.0000

> <Gold.Chemscore.Lipo.Weighted>
-11.8944

> <Gold.Chemscore.Internal_Hbond.Weighted>
0.0000

> <Gold.Chemscore.DEClash.Weighted>
0.2314

> <Gold.Chemscore.DEInternal.Weighted>
1.5338

> <Gold.Chemscore.Rot.Weighted>
4.5985

> <Gold.Chemscore.Internal.Correction.Weighted>
   9.000000E+99

> <Gold.Protein.RotatedTorsions>
[ 6907 6896 6895 6894 ] final -108.88 input  -60.11 | X-H torsion
[ 7974 7965 7964 7962 ] final  108.32 input  175.53 | X-H torsion
[ 8008 7997 7996 7995 ] final  -63.28 input   59.86 | X-H torsion
[ 10167 10162 10161 10158 ] final  -93.59 input  -65.29 | X-H torsion
[ 10718 10713 10712 10709 ] final -159.60 input   66.30 | X-H torsion
[ 10763 10752 10751 10750 ] final    3.14 input  -60.55 | X-H torsion
[ 11005 11000 10999 10996 ] final   62.95 input  -57.11 | X-H torsion

> <Gold.Protein.ActiveResidues>
 VAL166  LYS551  ARG553  GLY616  TRP617  ASP618  TYR619  PRO620  LYS621  CYS622 
 ASP623  PHE694  ASN695  SER759  ASP760  ASP761  ALA762  ILE779  LEU786  VAL792 
 PHE793  MET794  SER795  GLU796  ALA797  LYS798  CYS799  TRP800  GLU811  SER814 

> <Gold.Protein.RotatedAtoms>
  150.7528  133.9612  159.3515 H   0  0  0  0  0  0  0  0  0  0  0  0  # atno 6907 bound_to 6896
  151.7537  135.0824  160.0344 H   0  0  0  0  0  0  0  0  0  0  0  0  # atno 6908 bound_to 6896
  152.3449  133.6073  159.5939 H   0  0  0  0  0  0  0  0  0  0  0  0  # atno 6909 bound_to 6896
  145.2822  139.2629  143.3909 H   0  0  0  0  0  0  0  0  0  0  0  0  # atno 7974 bound_to 7965
  154.4546  140.0978  156.6718 H   0  0  0  0  0  0  0  0  0  0  0  0  # atno 8008 bound_to 7997
  155.5179  140.3478  155.4382 H   0  0  0  0  0  0  0  0  0  0  0  0  # atno 8009 bound_to 7997
  156.0751  140.1359  156.9771 H   0  0  0  0  0  0  0  0  0  0  0  0  # atno 8010 bound_to 7997
  140.3231  143.3038  152.0025 H   0  0  0  0  0  0  0  0  0  0  0  0  # atno 10167 bound_to 10162
  156.5703  130.8685  151.2836 H   0  0  0  0  0  0  0  0  0  0  0  0  # atno 10718 bound_to 10713
  153.2870  135.6945  153.7330 H   0  0  0  0  0  0  0  0  0  0  0  0  # atno 10763 bound_to 10752
  153.6295  135.3412  155.3038 H   0  0  0  0  0  0  0  0  0  0  0  0  # atno 10764 bound_to 10752
  154.8512  135.4405  154.1941 H   0  0  0  0  0  0  0  0  0  0  0  0  # atno 10765 bound_to 10752
  140.0057  134.6373  155.9859 H   0  0  0  0  0  0  0  0  0  0  0  0  # atno 11005 bound_to 11000
  146.3212  140.3292  142.8639 LP  0  0  0  0  0  0  0  0  0  0  0  0  # atno 17320 bound_to 7965
  144.9244  140.7904  143.5728 LP  0  0  0  0  0  0  0  0  0  0  0  0  # atno 17321 bound_to 7965
  139.4870  144.6295  151.7098 LP  0  0  0  0  0  0  0  0  0  0  0  0  # atno 17342 bound_to 10162
  140.5465  144.0494  150.6109 LP  0  0  0  0  0  0  0  0  0  0  0  0  # atno 17343 bound_to 10162
  157.7349  130.9754  150.2056 LP  0  0  0  0  0  0  0  0  0  0  0  0  # atno 17370 bound_to 10713
  156.2720  130.3723  149.8021 LP  0  0  0  0  0  0  0  0  0  0  0  0  # atno 17371 bound_to 10713
  141.1675  133.6537  156.4531 LP  0  0  0  0  0  0  0  0  0  0  0  0  # atno 17394 bound_to 11000
  140.4646  134.6810  157.5101 LP  0  0  0  0  0  0  0  0  0  0  0  0  # atno 17395 bound_to 11000

$$$$
