AV-unprocessed.smi:3285|AV-procd|sdf|12580|dock5
  -GOLD-   2272018503D 1   1.00000     0.00000
 Structure written by MMmdl.
 45 46  0  0  0  0  0  0  0  0  2 V2000
  150.5093  134.9270  156.7198 C   0  0  0  0  0  0  0  0  0  0  0  0
  150.6788  133.4901  156.3165 C   0  0  0  0  0  0  0  0  0  0  0  0
  151.3768  132.6727  157.0866 N   0  0  0  0  0  0  0  0  0  0  0  0
  151.3504  131.4288  156.4490 O   0  0  0  0  0  0  0  0  0  0  0  0
  150.6300  131.5480  155.3051 C   0  0  0  0  0  0  0  0  0  0  0  0
  150.4841  130.3177  154.4749 C   0  0  0  0  0  0  0  0  0  0  0  0
  150.1753  132.8298  155.1592 C   0  0  0  0  0  0  0  0  0  0  0  0
  149.3444  133.4118  154.0479 C   0  0  0  0  0  0  0  0  0  0  0  0
  148.0880  134.1063  154.5890 C   0  0  0  0  0  0  0  0  0  0  0  0
  147.4092  134.8754  153.5253 N   0  3  0  0  0  0  0  0  0  0  0  0
  146.3423  134.1476  152.8029 C   0  0  2  0  0  0  0  0  0  0  0  0
  146.9698  133.0760  151.8934 C   0  0  0  0  0  0  0  0  0  0  0  0
  145.9053  132.3200  151.0827 C   0  0  0  0  0  0  0  0  0  0  0  0
  145.0364  133.2876  150.2561 C   0  0  1  0  0  0  0  0  0  0  0  0
  144.0265  132.5382  149.3718 C   0  0  0  0  0  0  0  0  0  0  0  0
  144.3846  134.3724  151.1506 C   0  0  1  0  0  0  0  0  0  0  0  0
  143.2471  133.8507  152.0519 C   0  0  0  0  0  0  0  0  0  0  0  0
  145.4663  135.1098  151.9688 C   0  0  0  0  0  0  0  0  0  0  0  0
  150.9888  135.5915  156.0012 H   0  0  0  0  0  0  0  0  0  0  0  0
  150.9463  135.1273  157.6989 H   0  0  0  0  0  0  0  0  0  0  0  0
  149.4543  135.1962  156.7692 H   0  0  0  0  0  0  0  0  0  0  0  0
  150.5622  130.5530  153.4138 H   0  0  0  0  0  0  0  0  0  0  0  0
  149.5149  129.8498  154.6476 H   0  0  0  0  0  0  0  0  0  0  0  0
  151.2588  129.5890  154.7142 H   0  0  0  0  0  0  0  0  0  0  0  0
  149.9308  134.1279  153.4709 H   0  0  0  0  0  0  0  0  0  0  0  0
  149.0507  132.6346  153.3414 H   0  0  0  0  0  0  0  0  0  0  0  0
  147.3973  133.3646  154.9926 H   0  0  0  0  0  0  0  0  0  0  0  0
  148.3626  134.7706  155.4081 H   0  0  0  0  0  0  0  0  0  0  0  0
  147.0172  135.7180  153.9210 H   0  0  0  0  0  0  0  0  0  0  0  0
  145.7234  133.6395  153.5437 H   0  0  0  0  0  0  0  0  0  0  0  0
  147.6783  133.5425  151.2072 H   0  0  0  0  0  0  0  0  0  0  0  0
  147.5429  132.3664  152.4916 H   0  0  0  0  0  0  0  0  0  0  0  0
  146.3969  131.6072  150.4198 H   0  0  0  0  0  0  0  0  0  0  0  0
  145.2801  131.7293  151.7529 H   0  0  0  0  0  0  0  0  0  0  0  0
  145.7079  133.8091  149.5718 H   0  0  0  0  0  0  0  0  0  0  0  0
  143.3597  131.9092  149.9619 H   0  0  0  0  0  0  0  0  0  0  0  0
  144.5390  131.8899  148.6602 H   0  0  0  0  0  0  0  0  0  0  0  0
  143.4128  133.2335  148.7981 H   0  0  0  0  0  0  0  0  0  0  0  0
  143.9319  135.1109  150.4872 H   0  0  0  0  0  0  0  0  0  0  0  0
  143.5808  133.0598  152.7228 H   0  0  0  0  0  0  0  0  0  0  0  0
  142.4191  133.4570  151.4627 H   0  0  0  0  0  0  0  0  0  0  0  0
  142.8413  134.6535  152.6682 H   0  0  0  0  0  0  0  0  0  0  0  0
  144.9887  135.8523  152.6076 H   0  0  0  0  0  0  0  0  0  0  0  0
  146.1047  135.6713  151.2846 H   0  0  0  0  0  0  0  0  0  0  0  0
  148.1131  135.1374  152.8499 H   0  0  0  0  0  0  0  0  0  0  0  0
  1  2  1  0  0  0  0
  1 19  1  0  0  0  0
  1 20  1  0  0  0  0
  1 21  1  0  0  0  0
  2  7  1  0  0  0  0
  2  3  2  0  0  0  0
  3  4  1  0  0  0  0
  4  5  1  0  0  0  0
  5  6  1  0  0  0  0
  5  7  2  0  0  0  0
  6 22  1  0  0  0  0
  6 23  1  0  0  0  0
  6 24  1  0  0  0  0
  7  8  1  0  0  0  0
  8  9  1  0  0  0  0
  8 25  1  0  0  0  0
  8 26  1  0  0  0  0
  9 10  1  0  0  0  0
  9 27  1  0  0  0  0
  9 28  1  0  0  0  0
 10 11  1  0  0  0  0
 10 29  1  0  0  0  0
 10 45  1  0  0  0  0
 11 18  1  0  0  0  0
 11 12  1  0  0  0  0
 11 30  1  0  0  0  0
 12 13  1  0  0  0  0
 12 31  1  0  0  0  0
 12 32  1  0  0  0  0
 13 14  1  0  0  0  0
 13 33  1  0  0  0  0
 13 34  1  0  0  0  0
 14 15  1  0  0  0  0
 14 16  1  0  0  0  0
 14 35  1  0  0  0  0
 15 36  1  0  0  0  0
 15 37  1  0  0  0  0
 15 38  1  0  0  0  0
 16 17  1  0  0  0  0
 16 18  1  0  0  0  0
 16 39  1  0  0  0  0
 17 40  1  0  0  0  0
 17 41  1  0  0  0  0
 17 42  1  0  0  0  0
 18 43  1  0  0  0  0
 18 44  1  0  0  0  0
M  CHG  1  10   1
M  END
> <s_m_source_file>
AV-unprocessed.smi

> <i_m_source_file_index>
3285

> <i_lp_mmshare_version>
43012

> <i_f3d_flags>
0

> <s_epik_input>
W0NIM11jMW5vYyhbQ0gzXSljMVtDSDJdW0NIMl1bTkhdW0NAQEhdMltDSDJdW0NIMl1bQ0BASF0oW0NIM10pW0NAQEhdKFtDSDNdKVtDSDJdMg==

> <s_epik_cmdline>
J2VwaWtfcHl0aG9uJywgJy1waCcsICc3LjAnLCAnLXRuJywgJzgnLCAnLW1hJywgJzIwMCcsICctbWV0YWxfYmluZGluZycsICctaW1hZScsICc8aW5maWxlLm1hZT4nLCAnLW9tYWUnLCAnPG91dGZpbGUubWFlPic=

> <r_lp_tautomer_probability>
1

> <r_epik_Ionization_Penalty>
0.000204615

> <r_epik_Ionization_Penalty_Charging>
0.000204615

> <r_epik_Ionization_Penalty_Neutral>
9.28663e-11

> <r_epik_State_Penalty>
-0

> <r_epik_Charging_Adjusted_Penalty>
0.000204615

> <i_epik_Tot_Q>
1

> <i_epik_Tot_abs_Q>
1

> <r_epik_Metal_State_Penalty>
-0

> <b_epik_Metal_Only>
0

> <s_lp_Force_Field>
OPLS_2005

> <r_lp_Energy>
12.1865

> <b_lp_Chiralities_Consistent>
1

> <s_lp_Variant>
AV-unprocessed.smi:3285-1

> <Gold.Version>
5.8.1

> <Gold.Id.Protein>
6NUR|6NUR_protein|mol2

> <Gold.PLP.Fitness>
42.7439

> <Gold.PLP.PLP>
-34.5532

> <Gold.PLP.part.hbond>
-2.0000

> <Gold.PLP.part.metal>
0.0000

> <Gold.PLP.part.buried>
-5.3776

> <Gold.PLP.part.nonpolar>
-28.2470

> <Gold.PLP.part.repulsive>
0.0000

> <Gold.PLP.ligand.clash>
0.0000

> <Gold.PLP.ligand.torsion>
0.3635

> <Gold.PLP.Chemscore.Hbond>
2.9675

> <Gold.PLP.Chemscore.CHOScore>
0.0000

> <Gold.PLP.Chemscore.Metal>
0.0000

> <Gold.Chemscore.Hbonds>
donor molecule, donor type, donor heavy atom, donor atom, acceptor molecule, acceptor atom, score
      L1  H    10    45       P1  7948  2.00
      P1  H  6896  6908       L1     3  0.48

> <Gold.PLP.Chemscore.Internal.Correction>
0.0152

> <Gold.Rescore>
     Score         DG    S(hbond)    S(metal)    S(lipo)     H(rot)  DE(clash)    DE(int)     intcor
     18.61     -19.09       1.92        0.00      91.12       1.35       0.20       0.28       ----

> <Gold.Chemscore.Fitness>
18.6130

> <Gold.Chemscore.DG>
-19.0947

> <Gold.Chemscore.ZeroCoef>
-5.4800

> <Gold.Chemscore.Hbond>
1.9163

> <Gold.Chemscore.Metal>
0.0000

> <Gold.Chemscore.Lipo>
91.1217

> <Gold.Chemscore.Internal_Hbond>
0.0000

> <Gold.Chemscore.DEClash>
0.1996

> <Gold.Chemscore.DEInternal>
0.2821

> <Gold.Chemscore.Rot>
1.3465

> <Gold.Chemscore.Internal.Correction>
   9.000000E+99

> <Gold.Chemscore.Hbonds>
donor molecule, donor type, donor heavy atom, donor atom, acceptor molecule, acceptor atom, score
      L1  H    10    45       P1  7948  0.95
      P1  H  6896  6908       L1     3  0.33

> <Gold.Chemscore.Hbond.Weighted>
-6.4005

> <Gold.Chemscore.Metal.Weighted>
-0.0000

> <Gold.Chemscore.Lipo.Weighted>
-10.6612

> <Gold.Chemscore.Internal_Hbond.Weighted>
0.0000

> <Gold.Chemscore.DEClash.Weighted>
0.1996

> <Gold.Chemscore.DEInternal.Weighted>
0.2821

> <Gold.Chemscore.Rot.Weighted>
3.4470

> <Gold.Chemscore.Internal.Correction.Weighted>
   9.000000E+99

> <Gold.Protein.RotatedTorsions>
[ 6907 6896 6895 6894 ] final   83.17 input  -60.11 | X-H torsion
[ 7974 7965 7964 7962 ] final  -70.12 input  175.53 | X-H torsion
[ 8008 7997 7996 7995 ] final -155.88 input   59.86 | X-H torsion
[ 10167 10162 10161 10158 ] final   34.01 input  -65.29 | X-H torsion
[ 10718 10713 10712 10709 ] final -130.38 input   66.30 | X-H torsion
[ 10763 10752 10751 10750 ] final -114.53 input  -60.55 | X-H torsion
[ 11005 11000 10999 10996 ] final  149.31 input  -57.11 | X-H torsion

> <Gold.Protein.ActiveResidues>
 VAL166  LYS551  ARG553  GLY616  TRP617  ASP618  TYR619  PRO620  LYS621  CYS622 
 ASP623  PHE694  ASN695  SER759  ASP760  ASP761  ALA762  ILE779  LEU786  VAL792 
 PHE793  MET794  SER795  GLU796  ALA797  LYS798  CYS799  TRP800  GLU811  SER814 

> <Gold.Protein.RotatedAtoms>
  152.5320  134.2936  159.9052 H   0  0  0  0  0  0  0  0  0  0  0  0  # atno 6907 bound_to 6896
  151.2888  133.4168  159.2639 H   0  0  0  0  0  0  0  0  0  0  0  0  # atno 6908 bound_to 6896
  151.0219  134.9491  159.8121 H   0  0  0  0  0  0  0  0  0  0  0  0  # atno 6909 bound_to 6896
  145.6951  140.9138  143.0761 H   0  0  0  0  0  0  0  0  0  0  0  0  # atno 7974 bound_to 7965
  155.7087  140.0775  157.2380 H   0  0  0  0  0  0  0  0  0  0  0  0  # atno 8008 bound_to 7997
  154.4062  140.1634  156.2325 H   0  0  0  0  0  0  0  0  0  0  0  0  # atno 8009 bound_to 7997
  155.9302  140.3392  155.6246 H   0  0  0  0  0  0  0  0  0  0  0  0  # atno 8010 bound_to 7997
  140.4354  144.1264  150.6165 H   0  0  0  0  0  0  0  0  0  0  0  0  # atno 10167 bound_to 10162
  156.2139  130.6936  151.0680 H   0  0  0  0  0  0  0  0  0  0  0  0  # atno 10718 bound_to 10713
  154.8444  135.4414  154.1520 H   0  0  0  0  0  0  0  0  0  0  0  0  # atno 10763 bound_to 10752
  153.2679  135.6942  153.7517 H   0  0  0  0  0  0  0  0  0  0  0  0  # atno 10764 bound_to 10752
  153.6769  135.3409  155.3143 H   0  0  0  0  0  0  0  0  0  0  0  0  # atno 10765 bound_to 10752
  140.1034  134.8969  157.1829 H   0  0  0  0  0  0  0  0  0  0  0  0  # atno 11005 bound_to 11000
  144.6985  139.8872  143.7451 LP  0  0  0  0  0  0  0  0  0  0  0  0  # atno 17320 bound_to 7965
  146.0848  139.3836  143.0442 LP  0  0  0  0  0  0  0  0  0  0  0  0  # atno 17321 bound_to 7965
  140.4379  143.2539  151.9511 LP  0  0  0  0  0  0  0  0  0  0  0  0  # atno 17342 bound_to 10162
  139.4787  144.5682  151.8131 LP  0  0  0  0  0  0  0  0  0  0  0  0  # atno 17343 bound_to 10162
  157.7053  131.0759  150.6688 LP  0  0  0  0  0  0  0  0  0  0  0  0  # atno 17370 bound_to 10713
  156.6748  130.4550  149.5646 LP  0  0  0  0  0  0  0  0  0  0  0  0  # atno 17371 bound_to 10713
  140.3189  134.2939  155.7250 LP  0  0  0  0  0  0  0  0  0  0  0  0  # atno 17394 bound_to 11000
  141.2112  133.7697  156.9883 LP  0  0  0  0  0  0  0  0  0  0  0  0  # atno 17395 bound_to 11000

$$$$
