AV-unprocessed.smi:652|AV-procd|sdf|3198|dock8
  -GOLD-   22720 0133D 1   1.00000     0.00000
 Structure written by MMmdl.
 49 50  0  0  0  0  0  0  0  0  3 V2000
  148.0654  144.6275  160.4932 C   0  0  0  0  0  0  0  0  0  0  0  0
  146.5862  144.8475  160.1374 C   0  0  0  0  0  0  0  0  0  0  0  0
  145.6562  144.3345  161.2448 C   0  0  0  0  0  0  0  0  0  0  0  0
  146.2563  144.1817  158.8801 N   0  0  0  0  0  0  0  0  0  0  0  0
  146.2070  142.8536  158.6919 C   0  0  0  0  0  0  0  0  0  0  0  0
  146.4366  142.0373  159.5847 O   0  0  0  0  0  0  0  0  0  0  0  0
  145.8420  142.3888  157.2775 C   0  0  0  0  0  0  0  0  0  0  0  0
  146.1000  140.8853  157.0407 C   0  0  0  0  0  0  0  0  0  0  0  0
  147.4136  140.6241  156.3995 N   0  3  1  0  0  0  0  0  0  0  0  0
  147.3419  140.7158  154.9219 C   0  0  0  0  0  0  0  0  0  0  0  0
  148.7070  140.3949  154.2941 C   0  0  0  0  0  0  0  0  0  0  0  0
  149.6895  141.2774  154.8214 O   0  0  0  0  0  0  0  0  0  0  0  0
  149.8489  141.1354  156.2280 C   0  0  1  0  0  0  0  0  0  0  0  0
  150.9966  142.0701  156.6543 C   0  0  0  0  0  0  0  0  0  0  0  0
  150.5275  143.3541  157.1591 N   0  0  0  0  0  0  0  0  0  0  0  0
  151.0256  143.9116  158.3459 C   0  0  0  0  0  0  0  0  0  0  0  0
  152.0130  143.3101  159.1617 C   0  0  0  0  0  0  0  0  0  0  0  0
  152.4202  143.9862  160.3246 C   0  0  0  0  0  0  0  0  0  0  0  0
  151.8165  145.2248  160.6035 C   0  0  0  0  0  0  0  0  0  0  0  0
  150.8735  145.7826  159.8121 N   0  0  0  0  0  0  0  0  0  0  0  0
  150.5061  145.1120  158.7062 N   0  3  0  0  0  0  0  0  0  0  0  0
  148.5106  141.4803  156.9173 C   0  0  0  0  0  0  0  0  0  0  0  0
  148.3199  145.1248  161.4296 H   0  0  0  0  0  0  0  0  0  0  0  0
  148.7241  145.0286  159.7222 H   0  0  0  0  0  0  0  0  0  0  0  0
  148.2933  143.5674  160.6078 H   0  0  0  0  0  0  0  0  0  0  0  0
  146.4109  145.9193  160.0277 H   0  0  0  0  0  0  0  0  0  0  0  0
  145.8589  144.8376  162.1906 H   0  0  0  0  0  0  0  0  0  0  0  0
  145.7811  143.2629  161.4048 H   0  0  0  0  0  0  0  0  0  0  0  0
  144.6101  144.5149  160.9954 H   0  0  0  0  0  0  0  0  0  0  0  0
  146.0534  144.7805  158.0927 H   0  0  0  0  0  0  0  0  0  0  0  0
  144.7928  142.6275  157.1026 H   0  0  0  0  0  0  0  0  0  0  0  0
  146.4232  142.9801  156.5687 H   0  0  0  0  0  0  0  0  0  0  0  0
  146.0860  140.3728  158.0044 H   0  0  0  0  0  0  0  0  0  0  0  0
  145.3010  140.4430  156.4430 H   0  0  0  0  0  0  0  0  0  0  0  0
  146.5931  140.0199  154.5412 H   0  0  0  0  0  0  0  0  0  0  0  0
  147.0244  141.7188  154.6321 H   0  0  0  0  0  0  0  0  0  0  0  0
  148.9900  139.3577  154.4813 H   0  0  0  0  0  0  0  0  0  0  0  0
  148.6621  140.5223  153.2123 H   0  0  0  0  0  0  0  0  0  0  0  0
  150.1225  140.1013  156.4448 H   0  0  0  0  0  0  0  0  0  0  0  0
  151.6191  141.5890  157.4088 H   0  0  0  0  0  0  0  0  0  0  0  0
  151.6541  142.2561  155.8045 H   0  0  0  0  0  0  0  0  0  0  0  0
  149.8105  143.8427  156.6414 H   0  0  0  0  0  0  0  0  0  0  0  0
  152.4579  142.3571  158.9183 H   0  0  0  0  0  0  0  0  0  0  0  0
  153.1712  143.5718  160.9809 H   0  0  0  0  0  0  0  0  0  0  0  0
  152.0955  145.7844  161.4844 H   0  0  0  0  0  0  0  0  0  0  0  0
  148.2616  142.5296  156.7496 H   0  0  0  0  0  0  0  0  0  0  0  0
  148.6143  141.3454  157.9932 H   0  0  0  0  0  0  0  0  0  0  0  0
  147.6540  139.6663  156.6125 H   0  0  0  0  0  0  0  0  0  0  0  0
  149.7978  145.5307  158.1030 H   0  0  0  0  0  0  0  0  0  0  0  0
  1  2  1  0  0  0  0
  1 23  1  0  0  0  0
  1 24  1  0  0  0  0
  1 25  1  0  0  0  0
  2  3  1  0  0  0  0
  2  4  1  0  0  0  0
  2 26  1  0  0  0  0
  3 27  1  0  0  0  0
  3 28  1  0  0  0  0
  3 29  1  0  0  0  0
  4  5  1  0  0  0  0
  4 30  1  0  0  0  0
  5  6  2  0  0  0  0
  5  7  1  0  0  0  0
  7  8  1  0  0  0  0
  7 31  1  0  0  0  0
  7 32  1  0  0  0  0
  8  9  1  0  0  0  0
  8 33  1  0  0  0  0
  8 34  1  0  0  0  0
  9 22  1  0  0  0  0
  9 10  1  0  0  0  0
  9 48  1  0  0  0  0
 10 11  1  0  0  0  0
 10 35  1  0  0  0  0
 10 36  1  0  0  0  0
 11 12  1  0  0  0  0
 11 37  1  0  0  0  0
 11 38  1  0  0  0  0
 12 13  1  0  0  0  0
 13 14  1  0  0  0  0
 13 22  1  0  0  0  0
 13 39  1  0  0  0  0
 14 15  1  0  0  0  0
 14 40  1  0  0  0  0
 14 41  1  0  0  0  0
 15 16  1  0  0  0  0
 15 42  1  0  0  0  0
 16 21  1  0  0  0  0
 16 17  2  0  0  0  0
 17 18  1  0  0  0  0
 17 43  1  0  0  0  0
 18 19  2  0  0  0  0
 18 44  1  0  0  0  0
 19 20  1  0  0  0  0
 19 45  1  0  0  0  0
 20 21  2  0  0  0  0
 21 49  1  0  0  0  0
 22 46  1  0  0  0  0
 22 47  1  0  0  0  0
M  CHG  1   9   1
M  CHG  1  21   1
M  END
> <s_m_source_file>
AV-unprocessed.smi

> <i_m_source_file_index>
652

> <i_lp_mmshare_version>
43012

> <i_f3d_flags>
0

> <s_epik_input>
W0NIM11bQ0hdKFtDSDNdKVtOSF1DKD1PKVtDSDJdW0NIMl1OMVtDSDJdW0NIMl1PW0NASF0oW0NIMl0xKVtDSDJdW05IXWMyW2NIXVtjSF1bY0hdbm4y

> <s_epik_cmdline>
J2VwaWtfcHl0aG9uJywgJy1waCcsICc3LjAnLCAnLXRuJywgJzgnLCAnLW1hJywgJzIwMCcsICctbWV0YWxfYmluZGluZycsICctaW1hZScsICc8aW5maWxlLm1hZT4nLCAnLW9tYWUnLCAnPG91dGZpbGUubWFlPic=

> <r_lp_tautomer_probability>
0.966961

> <r_epik_Ionization_Penalty>
2.79885

> <r_epik_Ionization_Penalty_Charging>
2.79884

> <r_epik_Ionization_Penalty_Neutral>
3.2567e-06

> <r_epik_State_Penalty>
2.43203

> <r_epik_Charging_Adjusted_Penalty>
5.23087

> <i_epik_Tot_Q>
2

> <i_epik_Tot_abs_Q>
2

> <r_epik_Metal_State_Penalty>
2.43963

> <b_epik_Metal_Only>
0

> <s_lp_Force_Field>
OPLS_2005

> <r_lp_Energy>
31.8116

> <b_lp_Chiralities_Consistent>
1

> <s_lp_Variant>
AV-unprocessed.smi:652-7

> <Gold.Version>
5.8.1

> <Gold.Id.Protein>
6NUR|6NUR_protein|mol2

> <Gold.PLP.Fitness>
51.0566

> <Gold.PLP.PLP>
-37.9511

> <Gold.PLP.part.hbond>
-6.8639

> <Gold.PLP.part.metal>
0.0000

> <Gold.PLP.part.buried>
-6.7067

> <Gold.PLP.part.nonpolar>
-26.4972

> <Gold.PLP.part.repulsive>
0.6333

> <Gold.PLP.ligand.clash>
0.0000

> <Gold.PLP.ligand.torsion>
1.2554

> <Gold.PLP.Chemscore.Hbond>
5.1806

> <Gold.PLP.Chemscore.CHOScore>
0.0000

> <Gold.PLP.Chemscore.Metal>
0.0000

> <Gold.Chemscore.Hbonds>
donor molecule, donor type, donor heavy atom, donor atom, acceptor molecule, acceptor atom, score
      L1  H     4    30       P1  8029  0.12
      L1  H    15    42       P1  8028  2.00
      L1  H    21    49       P1  8029  1.69
      P1  H  6934  6946       L1     6  1.00
      P1  H  7989  7998       L1    12  0.08

> <Gold.PLP.Chemscore.Internal.Correction>
0.0744

> <Gold.Rescore>
     Score         DG    S(hbond)    S(metal)    S(lipo)     H(rot)  DE(clash)    DE(int)     intcor
     15.81     -18.58       2.78        0.00      83.55       2.33       0.33       2.43       ----

> <Gold.Chemscore.Fitness>
15.8145

> <Gold.Chemscore.DG>
-18.5777

> <Gold.Chemscore.ZeroCoef>
-5.4800

> <Gold.Chemscore.Hbond>
2.7825

> <Gold.Chemscore.Metal>
0.0000

> <Gold.Chemscore.Lipo>
83.5525

> <Gold.Chemscore.Internal_Hbond>
0.0000

> <Gold.Chemscore.DEClash>
0.3297

> <Gold.Chemscore.DEInternal>
2.4336

> <Gold.Chemscore.Rot>
2.3326

> <Gold.Chemscore.Internal.Correction>
   9.000000E+99

> <Gold.Chemscore.Hbonds>
donor molecule, donor type, donor heavy atom, donor atom, acceptor molecule, acceptor atom, score
      L1  H     4    30       P1  8029  0.08
      L1  H    15    42       P1  8028  0.98
      L1  H    21    49       P1  8029  0.28
      P1  H  6934  6946       L1     6  0.98
      P1  H  7989  7998       L1    12  0.04

> <Gold.Chemscore.Hbond.Weighted>
-9.2934

> <Gold.Chemscore.Metal.Weighted>
-0.0000

> <Gold.Chemscore.Lipo.Weighted>
-9.7756

> <Gold.Chemscore.Internal_Hbond.Weighted>
0.0000

> <Gold.Chemscore.DEClash.Weighted>
0.3297

> <Gold.Chemscore.DEInternal.Weighted>
2.4336

> <Gold.Chemscore.Rot.Weighted>
5.9714

> <Gold.Chemscore.Internal.Correction.Weighted>
   9.000000E+99

> <Gold.Protein.RotatedTorsions>
[ 6907 6896 6895 6894 ] final -107.44 input  -60.11 | X-H torsion
[ 7974 7965 7964 7962 ] final  -25.56 input  175.53 | X-H torsion
[ 8008 7997 7996 7995 ] final   47.53 input   59.86 | X-H torsion
[ 10167 10162 10161 10158 ] final  -30.34 input  -65.29 | X-H torsion
[ 10718 10713 10712 10709 ] final   84.03 input   66.30 | X-H torsion
[ 10763 10752 10751 10750 ] final  144.72 input  -60.55 | X-H torsion
[ 11005 11000 10999 10996 ] final -118.70 input  -57.11 | X-H torsion

> <Gold.Protein.ActiveResidues>
 VAL166  LYS551  ARG553  GLY616  TRP617  ASP618  TYR619  PRO620  LYS621  CYS622 
 ASP623  PHE694  ASN695  SER759  ASP760  ASP761  ALA762  ILE779  LEU786  VAL792 
 PHE793  MET794  SER795  GLU796  ALA797  LYS798  CYS799  TRP800  GLU811  SER814 

> <Gold.Protein.RotatedAtoms>
  150.7444  133.9826  159.3580 H   0  0  0  0  0  0  0  0  0  0  0  0  # atno 6907 bound_to 6896
  151.7768  135.0770  160.0377 H   0  0  0  0  0  0  0  0  0  0  0  0  # atno 6908 bound_to 6896
  152.3301  133.5912  159.5840 H   0  0  0  0  0  0  0  0  0  0  0  0  # atno 6909 bound_to 6896
  146.1483  140.4902  142.8622 H   0  0  0  0  0  0  0  0  0  0  0  0  # atno 7974 bound_to 7965
  155.3707  140.3423  155.4243 H   0  0  0  0  0  0  0  0  0  0  0  0  # atno 8008 bound_to 7997
  156.1664  140.1617  156.8558 H   0  0  0  0  0  0  0  0  0  0  0  0  # atno 8009 bound_to 7997
  154.5189  140.0771  156.8117 H   0  0  0  0  0  0  0  0  0  0  0  0  # atno 8010 bound_to 7997
  140.7250  143.3856  151.1521 H   0  0  0  0  0  0  0  0  0  0  0  0  # atno 10167 bound_to 10162
  157.6890  131.0116  150.2612 H   0  0  0  0  0  0  0  0  0  0  0  0  # atno 10718 bound_to 10713
  153.9935  135.2930  155.3409 H   0  0  0  0  0  0  0  0  0  0  0  0  # atno 10763 bound_to 10752
  154.7201  135.5113  153.8802 H   0  0  0  0  0  0  0  0  0  0  0  0  # atno 10764 bound_to 10752
  153.0799  135.6675  154.0184 H   0  0  0  0  0  0  0  0  0  0  0  0  # atno 10765 bound_to 10752
  141.0267  134.0043  157.3204 H   0  0  0  0  0  0  0  0  0  0  0  0  # atno 11005 bound_to 11000
  144.7873  140.5962  143.6565 LP  0  0  0  0  0  0  0  0  0  0  0  0  # atno 17320 bound_to 7965
  145.4884  139.1490  143.3723 LP  0  0  0  0  0  0  0  0  0  0  0  0  # atno 17321 bound_to 7965
  139.7453  143.8862  152.3061 LP  0  0  0  0  0  0  0  0  0  0  0  0  # atno 17342 bound_to 10162
  139.8697  144.7075  150.9002 LP  0  0  0  0  0  0  0  0  0  0  0  0  # atno 17343 bound_to 10162
  156.3191  130.3783  149.7591 LP  0  0  0  0  0  0  0  0  0  0  0  0  # atno 17370 bound_to 10713
  156.5167  130.8196  151.3189 LP  0  0  0  0  0  0  0  0  0  0  0  0  # atno 17371 bound_to 10713
  139.9181  135.0198  156.7958 LP  0  0  0  0  0  0  0  0  0  0  0  0  # atno 17394 bound_to 11000
  140.6479  133.9759  155.7740 LP  0  0  0  0  0  0  0  0  0  0  0  0  # atno 17395 bound_to 11000

$$$$
