AV-unprocessed.smi:654|AV-procd|sdf|3212|dock4
  -GOLD-   22720 0153D 1   1.00000     0.00000
 Structure written by MMmdl.
 47 49  0  0  0  0  0  0  0  0  1 V2000
  149.6702  133.6805  157.7047 O   0  0  0  0  0  0  0  0  0  0  0  0
  148.5033  133.5144  157.3472 C   0  0  0  0  0  0  0  0  0  0  0  0
  148.1201  133.6770  156.0700 N   0  0  0  0  0  0  0  0  0  0  0  0
  149.0098  133.9771  154.9530 C   0  0  0  0  0  0  0  0  0  0  0  0
  149.1752  132.7793  153.9975 C   0  0  0  0  0  0  0  0  0  0  0  0
  147.8944  132.4149  153.2658 C   0  0  0  0  0  0  0  0  0  0  0  0
  147.3679  131.1090  153.3379 C   0  0  0  0  0  0  0  0  0  0  0  0
  146.1885  130.8131  152.6277 C   0  0  0  0  0  0  0  0  0  0  0  0
  145.5835  131.8396  151.8749 C   0  0  0  0  0  0  0  0  0  0  0  0
  146.0780  133.0939  151.7991 N   0  0  0  0  0  0  0  0  0  0  0  0
  147.2084  133.3695  152.4840 C   0  0  0  0  0  0  0  0  0  0  0  0
  147.5042  133.1714  158.2003 N   0  0  0  0  0  0  0  0  0  0  0  0
  146.0799  133.0355  157.8587 C   0  0  0  0  0  0  0  0  0  0  0  0
  145.3217  134.2554  158.3967 C   0  0  0  0  0  0  0  0  0  0  0  0
  145.4251  134.3322  160.2115 S   0  0  0  0  0  0  0  0  0  0  0  0
  147.2285  134.1448  160.4883 C   0  0  0  0  0  0  0  0  0  0  0  0
  147.9761  135.4580  160.1296 C   0  0  0  0  0  0  0  0  0  0  0  0
  147.6574  136.6235  161.0829 C   0  0  0  0  0  0  0  0  0  0  0  0
  147.9358  136.2439  162.5430 C   0  0  0  0  0  0  0  0  0  0  0  0
  147.1627  134.9781  162.9346 C   0  0  0  0  0  0  0  0  0  0  0  0
  147.4827  133.8129  161.9805 C   0  0  0  0  0  0  0  0  0  0  0  0
  147.7408  132.9526  159.6348 C   0  0  0  0  0  0  0  0  0  0  0  0
  147.1448  133.5381  155.8495 H   0  0  0  0  0  0  0  0  0  0  0  0
  148.5760  134.8174  154.4103 H   0  0  0  0  0  0  0  0  0  0  0  0
  149.9816  134.3147  155.3165 H   0  0  0  0  0  0  0  0  0  0  0  0
  149.9536  132.9966  153.2654 H   0  0  0  0  0  0  0  0  0  0  0  0
  149.5228  131.9093  154.5563 H   0  0  0  0  0  0  0  0  0  0  0  0
  147.8612  130.3459  153.9220 H   0  0  0  0  0  0  0  0  0  0  0  0
  145.7582  129.8231  152.6579 H   0  0  0  0  0  0  0  0  0  0  0  0
  144.6784  131.6475  151.3177 H   0  0  0  0  0  0  0  0  0  0  0  0
  147.5820  134.3792  152.3962 H   0  0  0  0  0  0  0  0  0  0  0  0
  145.8991  132.9271  156.7892 H   0  0  0  0  0  0  0  0  0  0  0  0
  145.6778  132.1231  158.3016 H   0  0  0  0  0  0  0  0  0  0  0  0
  145.7223  135.1755  157.9701 H   0  0  0  0  0  0  0  0  0  0  0  0
  144.2710  134.2047  158.1113 H   0  0  0  0  0  0  0  0  0  0  0  0
  149.0514  135.2754  160.1543 H   0  0  0  0  0  0  0  0  0  0  0  0
  147.7513  135.7676  159.1094 H   0  0  0  0  0  0  0  0  0  0  0  0
  148.2531  137.4945  160.8091 H   0  0  0  0  0  0  0  0  0  0  0  0
  146.6142  136.9214  160.9731 H   0  0  0  0  0  0  0  0  0  0  0  0
  149.0049  136.0778  162.6811 H   0  0  0  0  0  0  0  0  0  0  0  0
  147.6618  137.0682  163.2021 H   0  0  0  0  0  0  0  0  0  0  0  0
  147.4134  134.6955  163.9574 H   0  0  0  0  0  0  0  0  0  0  0  0
  146.0920  135.1849  162.9309 H   0  0  0  0  0  0  0  0  0  0  0  0
  146.9039  132.9359  162.2724 H   0  0  0  0  0  0  0  0  0  0  0  0
  148.5300  133.5381  162.1164 H   0  0  0  0  0  0  0  0  0  0  0  0
  147.2411  132.0330  159.9435 H   0  0  0  0  0  0  0  0  0  0  0  0
  148.7971  132.7747  159.8429 H   0  0  0  0  0  0  0  0  0  0  0  0
  1  2  2  0  0  0  0
  2  3  1  0  0  0  0
  2 12  1  0  0  0  0
  3  4  1  0  0  0  0
  3 23  1  0  0  0  0
  4  5  1  0  0  0  0
  4 24  1  0  0  0  0
  4 25  1  0  0  0  0
  5  6  1  0  0  0  0
  5 26  1  0  0  0  0
  5 27  1  0  0  0  0
  6 11  1  0  0  0  0
  6  7  2  0  0  0  0
  7  8  1  0  0  0  0
  7 28  1  0  0  0  0
  8  9  2  0  0  0  0
  8 29  1  0  0  0  0
  9 10  1  0  0  0  0
  9 30  1  0  0  0  0
 10 11  2  0  0  0  0
 11 31  1  0  0  0  0
 12 22  1  0  0  0  0
 12 13  1  0  0  0  0
 13 14  1  0  0  0  0
 13 32  1  0  0  0  0
 13 33  1  0  0  0  0
 14 15  1  0  0  0  0
 14 34  1  0  0  0  0
 14 35  1  0  0  0  0
 15 16  1  0  0  0  0
 16 21  1  0  0  0  0
 16 17  1  0  0  0  0
 16 22  1  0  0  0  0
 17 18  1  0  0  0  0
 17 36  1  0  0  0  0
 17 37  1  0  0  0  0
 18 19  1  0  0  0  0
 18 38  1  0  0  0  0
 18 39  1  0  0  0  0
 19 20  1  0  0  0  0
 19 40  1  0  0  0  0
 19 41  1  0  0  0  0
 20 21  1  0  0  0  0
 20 42  1  0  0  0  0
 20 43  1  0  0  0  0
 21 44  1  0  0  0  0
 21 45  1  0  0  0  0
 22 46  1  0  0  0  0
 22 47  1  0  0  0  0
M  END
> <s_m_source_file>
AV-unprocessed.smi

> <i_m_source_file_index>
654

> <i_lp_mmshare_version>
43012

> <i_f3d_flags>
0

> <s_epik_input>
W2NIXTFuW2NIXVtjSF1bY0hdYzFbQ0gyXVtDSDJdW05IXUMoPU8pTihbQ0gyXTIpW0NIMl1bQ0gyXVNDMjNbQ0gyXVtDSDJdW0NIMl1bQ0gyXVtDSDJdMw==

> <s_epik_cmdline>
J2VwaWtfcHl0aG9uJywgJy1waCcsICc3LjAnLCAnLXRuJywgJzgnLCAnLW1hJywgJzIwMCcsICctbWV0YWxfYmluZGluZycsICctaW1hZScsICc8aW5maWxlLm1hZT4nLCAnLW9tYWUnLCAnPG91dGZpbGUubWFlPic=

> <r_epik_Ionization_Penalty>
0.0144586

> <r_epik_Ionization_Penalty_Charging>
0

> <r_epik_Ionization_Penalty_Neutral>
0.0144586

> <r_epik_State_Penalty>
0.0112665

> <r_epik_Charging_Adjusted_Penalty>
0.0112665

> <i_epik_Tot_Q>
0

> <i_epik_Tot_abs_Q>
0

> <r_epik_Metal_State_Penalty>
0.0109983

> <b_epik_Metal_Only>
0

> <s_lp_Force_Field>
OPLS_2005

> <r_lp_Energy>
31.4252

> <b_lp_Chiralities_Consistent>
1

> <s_lp_Variant>
AV-unprocessed.smi:654-1

> <Gold.Version>
5.8.1

> <Gold.Id.Protein>
6NUR|6NUR_protein|mol2

> <Gold.PLP.Fitness>
42.9435

> <Gold.PLP.PLP>
-37.1223

> <Gold.PLP.part.hbond>
-1.0000

> <Gold.PLP.part.metal>
0.0000

> <Gold.PLP.part.buried>
-3.2807

> <Gold.PLP.part.nonpolar>
-32.5010

> <Gold.PLP.part.repulsive>
0.1509

> <Gold.PLP.ligand.clash>
0.0000

> <Gold.PLP.ligand.torsion>
0.0860

> <Gold.PLP.Chemscore.Hbond>
1.0000

> <Gold.PLP.Chemscore.CHOScore>
0.9964

> <Gold.PLP.Chemscore.Metal>
0.0000

> <Gold.Chemscore.Hbonds>
donor molecule, donor type, donor heavy atom, donor atom, acceptor molecule, acceptor atom, score
      P1  H  6896  6908       L1     1  1.00
      L1  C    11    31       P1  7948  1.00

> <Gold.PLP.Chemscore.Internal.Correction>
0.0042

> <Gold.Rescore>
     Score         DG    S(hbond)    S(metal)    S(lipo)     H(rot)  DE(clash)    DE(int)     intcor
     16.55     -16.59       1.00        0.00      93.31       1.23       0.00       0.04       ----

> <Gold.Chemscore.Fitness>
16.5539

> <Gold.Chemscore.DG>
-16.5922

> <Gold.Chemscore.ZeroCoef>
-5.4800

> <Gold.Chemscore.Hbond>
0.9995

> <Gold.Chemscore.Metal>
0.0000

> <Gold.Chemscore.Lipo>
93.3056

> <Gold.Chemscore.Internal_Hbond>
0.0000

> <Gold.Chemscore.DEClash>
0.0009

> <Gold.Chemscore.DEInternal>
0.0374

> <Gold.Chemscore.Rot>
1.2276

> <Gold.Chemscore.Internal.Correction>
   9.000000E+99

> <Gold.Chemscore.Hbonds>
donor molecule, donor type, donor heavy atom, donor atom, acceptor molecule, acceptor atom, score
      P1  H  6896  6908       L1     1  0.97

> <Gold.Chemscore.Hbond.Weighted>
-3.3382

> <Gold.Chemscore.Metal.Weighted>
-0.0000

> <Gold.Chemscore.Lipo.Weighted>
-10.9168

> <Gold.Chemscore.Internal_Hbond.Weighted>
0.0000

> <Gold.Chemscore.DEClash.Weighted>
0.0009

> <Gold.Chemscore.DEInternal.Weighted>
0.0374

> <Gold.Chemscore.Rot.Weighted>
3.1427

> <Gold.Chemscore.Internal.Correction.Weighted>
   9.000000E+99

> <Gold.Protein.RotatedTorsions>
[ 6907 6896 6895 6894 ] final  110.52 input  -60.11 | X-H torsion
[ 7974 7965 7964 7962 ] final -142.11 input  175.53 | X-H torsion
[ 8008 7997 7996 7995 ] final   54.27 input   59.86 | X-H torsion
[ 10167 10162 10161 10158 ] final   59.81 input  -65.29 | X-H torsion
[ 10718 10713 10712 10709 ] final   14.23 input   66.30 | X-H torsion
[ 10763 10752 10751 10750 ] final   39.79 input  -60.55 | X-H torsion
[ 11005 11000 10999 10996 ] final -116.92 input  -57.11 | X-H torsion

> <Gold.Protein.ActiveResidues>
 VAL166  LYS551  ARG553  GLY616  TRP617  ASP618  TYR619  PRO620  LYS621  CYS622 
 ASP623  PHE694  ASN695  SER759  ASP760  ASP761  ALA762  ILE779  LEU786  VAL792 
 PHE793  MET794  SER795  GLU796  ALA797  LYS798  CYS799  TRP800  GLU811  SER814 

> <Gold.Protein.RotatedAtoms>
  152.5015  133.8789  159.7335 H   0  0  0  0  0  0  0  0  0  0  0  0  # atno 6907 bound_to 6896
  150.9256  133.6819  159.2829 H   0  0  0  0  0  0  0  0  0  0  0  0  # atno 6908 bound_to 6896
  151.4181  135.0998  159.9658 H   0  0  0  0  0  0  0  0  0  0  0  0  # atno 6909 bound_to 6896
  144.8468  140.5998  143.5416 H   0  0  0  0  0  0  0  0  0  0  0  0  # atno 7974 bound_to 7965
  155.4819  140.3468  155.4341 H   0  0  0  0  0  0  0  0  0  0  0  0  # atno 8008 bound_to 7997
  156.1033  140.1441  156.9466 H   0  0  0  0  0  0  0  0  0  0  0  0  # atno 8009 bound_to 7997
  154.4708  140.0901  156.7117 H   0  0  0  0  0  0  0  0  0  0  0  0  # atno 8010 bound_to 7997
  140.1724  144.4264  150.6655 H   0  0  0  0  0  0  0  0  0  0  0  0  # atno 10167 bound_to 10162
  157.0360  130.6212  149.5743 H   0  0  0  0  0  0  0  0  0  0  0  0  # atno 10718 bound_to 10713
  152.9956  135.6210  154.2522 H   0  0  0  0  0  0  0  0  0  0  0  0  # atno 10763 bound_to 10752
  154.2260  135.2794  155.2909 H   0  0  0  0  0  0  0  0  0  0  0  0  # atno 10764 bound_to 10752
  154.5489  135.5739  153.6962 H   0  0  0  0  0  0  0  0  0  0  0  0  # atno 10765 bound_to 10752
  141.0390  133.9866  157.3025 H   0  0  0  0  0  0  0  0  0  0  0  0  # atno 11005 bound_to 11000
  145.4581  139.1516  143.3881 LP  0  0  0  0  0  0  0  0  0  0  0  0  # atno 17320 bound_to 7965
  146.2751  140.4709  142.8799 LP  0  0  0  0  0  0  0  0  0  0  0  0  # atno 17321 bound_to 7965
  140.6573  143.2241  151.5938 LP  0  0  0  0  0  0  0  0  0  0  0  0  # atno 17342 bound_to 10162
  139.5332  144.2856  152.1194 LP  0  0  0  0  0  0  0  0  0  0  0  0  # atno 17343 bound_to 10162
  156.0053  130.5139  150.7809 LP  0  0  0  0  0  0  0  0  0  0  0  0  # atno 17370 bound_to 10713
  157.5141  131.0927  151.0162 LP  0  0  0  0  0  0  0  0  0  0  0  0  # atno 17371 bound_to 10713
  139.9261  135.0201  156.8240 LP  0  0  0  0  0  0  0  0  0  0  0  0  # atno 17394 bound_to 11000
  140.6270  133.9941  155.7644 LP  0  0  0  0  0  0  0  0  0  0  0  0  # atno 17395 bound_to 11000

$$$$
