AV-unprocessed.smi:153|AV-procd|sdf|1257|dock1
  -GOLD-   2262018493D 1   1.00000     0.00000
 Structure written by MMmdl.
 60 63  0  0  0  0  0  0  0  0  2 V2000
  152.1500  140.4581  158.3647 C   0  0  0  0  0  0  0  0  0  0  0  0
  151.1305  141.5744  158.6435 C   0  0  1  0  0  0  0  0  0  0  0  0
  151.7369  142.3788  159.6576 O   0  0  0  0  0  0  0  0  0  0  0  0
  151.6695  143.7543  159.3163 C   0  0  0  0  0  0  0  0  0  0  0  0
  151.6732  143.7502  157.7948 C   0  0  0  0  0  0  0  0  0  0  0  0
  150.8145  142.5380  157.4655 C   0  0  2  0  0  0  0  0  0  0  0  0
  149.4597  142.9398  157.5817 O   0  0  0  0  0  0  0  0  0  0  0  0
  151.0387  142.0300  156.0140 C   0  0  0  0  0  0  0  0  0  0  0  0
  150.2165  140.8955  155.6023 N   0  0  0  0  0  0  0  0  0  0  0  0
  150.2768  139.5958  156.0563 C   0  0  0  0  0  0  0  0  0  0  0  0
  149.3995  138.7826  155.5370 N   0  0  0  0  0  0  0  0  0  0  0  0
  148.6566  139.5770  154.6717 C   0  0  0  0  0  0  0  0  0  0  0  0
  147.5428  139.3486  153.8073 C   0  0  0  0  0  0  0  0  0  0  0  0
  146.9314  138.1448  153.6293 N   0  0  0  0  0  0  0  0  0  0  0  0
  147.0403  137.1236  154.6633 C   0  0  0  0  0  0  0  0  0  0  0  0
  145.9239  137.9798  152.5758 C   0  0  0  0  0  0  0  0  0  0  0  0
  145.4769  136.5162  152.3533 C   0  0  1  0  0  0  0  0  0  0  0  0
  144.1829  136.3359  152.8930 O   0  0  0  0  0  0  0  0  0  0  0  0
  145.5137  136.0431  150.8838 C   0  0  0  0  0  0  0  0  0  0  0  0
  145.3664  134.5720  150.7529 N   0  3  0  0  0  0  0  0  0  0  0  0
  146.2657  133.8291  151.6680 C   0  0  0  0  0  0  0  0  0  0  0  0
  146.1177  132.3132  151.4551 C   0  0  0  0  0  0  0  0  0  0  0  0
  144.7602  131.9349  151.6455 O   0  0  0  0  0  0  0  0  0  0  0  0
  143.8948  132.5739  150.7153 C   0  0  0  0  0  0  0  0  0  0  0  0
  143.9680  134.0984  150.9044 C   0  0  0  0  0  0  0  0  0  0  0  0
  147.0533  140.4239  153.1356 N   0  0  0  0  0  0  0  0  0  0  0  0
  147.6088  141.6295  153.2791 C   0  0  0  0  0  0  0  0  0  0  0  0
  148.6459  141.9824  154.0378 N   0  0  0  0  0  0  0  0  0  0  0  0
  149.1448  140.9148  154.7237 C   0  0  0  0  0  0  0  0  0  0  0  0
  151.7380  139.6846  157.7208 H   0  0  0  0  0  0  0  0  0  0  0  0
  152.4418  139.9660  159.2928 H   0  0  0  0  0  0  0  0  0  0  0  0
  153.0562  140.8479  157.9005 H   0  0  0  0  0  0  0  0  0  0  0  0
  150.2177  141.1260  159.0394 H   0  0  0  0  0  0  0  0  0  0  0  0
  150.7417  144.1779  159.7033 H   0  0  0  0  0  0  0  0  0  0  0  0
  152.5042  144.3133  159.7393 H   0  0  0  0  0  0  0  0  0  0  0  0
  151.3045  144.6818  157.3634 H   0  0  0  0  0  0  0  0  0  0  0  0
  152.6936  143.5990  157.4393 H   0  0  0  0  0  0  0  0  0  0  0  0
  149.3393  143.7355  157.0864 H   0  0  0  0  0  0  0  0  0  0  0  0
  150.8625  142.8402  155.3056 H   0  0  0  0  0  0  0  0  0  0  0  0
  152.0860  141.7546  155.8871 H   0  0  0  0  0  0  0  0  0  0  0  0
  150.9881  139.2553  156.7932 H   0  0  0  0  0  0  0  0  0  0  0  0
  148.0588  137.0645  155.0489 H   0  0  0  0  0  0  0  0  0  0  0  0
  146.7828  136.1434  154.2615 H   0  0  0  0  0  0  0  0  0  0  0  0
  146.3624  137.3368  155.4902 H   0  0  0  0  0  0  0  0  0  0  0  0
  145.0443  138.5863  152.7898 H   0  0  0  0  0  0  0  0  0  0  0  0
  146.3201  138.3879  151.6451 H   0  0  0  0  0  0  0  0  0  0  0  0
  146.1420  135.8945  152.9516 H   0  0  0  0  0  0  0  0  0  0  0  0
  144.1597  136.7238  153.7549 H   0  0  0  0  0  0  0  0  0  0  0  0
  144.7047  136.5328  150.3396 H   0  0  0  0  0  0  0  0  0  0  0  0
  146.4411  136.3562  150.4016 H   0  0  0  0  0  0  0  0  0  0  0  0
  147.3012  134.1220  151.4901 H   0  0  0  0  0  0  0  0  0  0  0  0
  146.0319  134.0879  152.7019 H   0  0  0  0  0  0  0  0  0  0  0  0
  146.4522  132.0248  150.4573 H   0  0  0  0  0  0  0  0  0  0  0  0
  146.7392  131.7715  152.1682 H   0  0  0  0  0  0  0  0  0  0  0  0
  144.1646  132.2939  149.6957 H   0  0  0  0  0  0  0  0  0  0  0  0
  142.8762  132.2232  150.8826 H   0  0  0  0  0  0  0  0  0  0  0  0
  143.5947  134.3667  151.8940 H   0  0  0  0  0  0  0  0  0  0  0  0
  143.3182  134.5831  150.1767 H   0  0  0  0  0  0  0  0  0  0  0  0
  147.1591  142.4244  152.7026 H   0  0  0  0  0  0  0  0  0  0  0  0
  145.6611  134.3385  149.8150 H   0  0  0  0  0  0  0  0  0  0  0  0
  1  2  1  0  0  0  0
  1 30  1  0  0  0  0
  1 31  1  0  0  0  0
  1 32  1  0  0  0  0
  2  6  1  0  0  0  0
  2  3  1  0  0  0  0
  2 33  1  0  0  0  0
  3  4  1  0  0  0  0
  4  5  1  0  0  0  0
  4 34  1  0  0  0  0
  4 35  1  0  0  0  0
  5  6  1  0  0  0  0
  5 36  1  0  0  0  0
  5 37  1  0  0  0  0
  6  7  1  0  0  0  0
  6  8  1  0  0  0  0
  7 38  1  0  0  0  0
  8  9  1  0  0  0  0
  8 39  1  0  0  0  0
  8 40  1  0  0  0  0
  9 29  1  0  0  0  0
  9 10  1  0  0  0  0
 10 11  2  0  0  0  0
 10 41  1  0  0  0  0
 11 12  1  0  0  0  0
 12 29  2  0  0  0  0
 12 13  1  0  0  0  0
 13 14  1  0  0  0  0
 13 26  2  0  0  0  0
 14 15  1  0  0  0  0
 14 16  1  0  0  0  0
 15 42  1  0  0  0  0
 15 43  1  0  0  0  0
 15 44  1  0  0  0  0
 16 17  1  0  0  0  0
 16 45  1  0  0  0  0
 16 46  1  0  0  0  0
 17 18  1  0  0  0  0
 17 19  1  0  0  0  0
 17 47  1  0  0  0  0
 18 48  1  0  0  0  0
 19 20  1  0  0  0  0
 19 49  1  0  0  0  0
 19 50  1  0  0  0  0
 20 25  1  0  0  0  0
 20 21  1  0  0  0  0
 20 60  1  0  0  0  0
 21 22  1  0  0  0  0
 21 51  1  0  0  0  0
 21 52  1  0  0  0  0
 22 23  1  0  0  0  0
 22 53  1  0  0  0  0
 22 54  1  0  0  0  0
 23 24  1  0  0  0  0
 24 25  1  0  0  0  0
 24 55  1  0  0  0  0
 24 56  1  0  0  0  0
 25 57  1  0  0  0  0
 25 58  1  0  0  0  0
 26 27  1  0  0  0  0
 27 28  2  0  0  0  0
 27 59  1  0  0  0  0
 28 29  1  0  0  0  0
M  CHG  1  20   1
M  END
> <s_m_source_file>
AV-unprocessed.smi

> <i_m_source_file_index>
153

> <i_lp_mmshare_version>
43012

> <i_f3d_flags>
0

> <s_epik_input>
W0NIMl0xW0NIMl1PW0NAQEhdKFtDSDNdKVtDQEBdMShbT0hdKVtDSDJdbihbY0hdbjIpYyhjMjMpbltjSF1uYzNOKFtDSDNdKVtDSDJdW0NASF0oW09IXSlbQ0gyXU40W0NIMl1bQ0gyXU9bQ0gyXVtDSDJdNA==

> <s_epik_cmdline>
J2VwaWtfcHl0aG9uJywgJy1waCcsICc3LjAnLCAnLXRuJywgJzgnLCAnLW1hJywgJzIwMCcsICctbWV0YWxfYmluZGluZycsICctaW1hZScsICc8aW5maWxlLm1hZT4nLCAnLW9tYWUnLCAnPG91dGZpbGUubWFlPic=

> <r_lp_tautomer_probability>
1

> <r_epik_Ionization_Penalty>
0.403509

> <r_epik_Ionization_Penalty_Charging>
0.40072

> <r_epik_Ionization_Penalty_Neutral>
0.00278876

> <r_epik_State_Penalty>
0.400058

> <r_epik_Charging_Adjusted_Penalty>
0.800778

> <i_epik_Tot_Q>
1

> <i_epik_Tot_abs_Q>
1

> <r_epik_Metal_State_Penalty>
0.400321

> <b_epik_Metal_Only>
0

> <s_lp_Force_Field>
OPLS_2005

> <r_lp_Energy>
51.1355

> <b_lp_Chiralities_Consistent>
1

> <s_lp_Variant>
AV-unprocessed.smi:153-8

> <Gold.Version>
5.8.1

> <Gold.Id.Protein>
6NUR|6NUR_protein|mol2

> <Gold.PLP.Fitness>
51.6672

> <Gold.PLP.PLP>
-46.7119

> <Gold.PLP.part.hbond>
-3.0000

> <Gold.PLP.part.metal>
0.0000

> <Gold.PLP.part.buried>
-7.7276

> <Gold.PLP.part.nonpolar>
-37.3031

> <Gold.PLP.part.repulsive>
0.6259

> <Gold.PLP.ligand.clash>
0.0000

> <Gold.PLP.ligand.torsion>
1.2934

> <Gold.PLP.Chemscore.Hbond>
2.1896

> <Gold.PLP.Chemscore.CHOScore>
0.0000

> <Gold.PLP.Chemscore.Metal>
0.0000

> <Gold.Chemscore.Hbonds>
donor molecule, donor type, donor heavy atom, donor atom, acceptor molecule, acceptor atom, score
      L1  H     7    38       P1  8028  1.00
      L1  H    20    60       P1  7921  0.37
      P1  H  8011  8017       L1    28  0.19

> <Gold.PLP.Chemscore.Internal.Correction>
0.9733

> <Gold.Rescore>
     Score         DG    S(hbond)    S(metal)    S(lipo)     H(rot)  DE(clash)    DE(int)     intcor
      9.88     -12.84       1.44        0.00     100.97       3.62       0.38       2.58       ----

> <Gold.Chemscore.Fitness>
9.8801

> <Gold.Chemscore.DG>
-12.8399

> <Gold.Chemscore.ZeroCoef>
-5.4800

> <Gold.Chemscore.Hbond>
1.4399

> <Gold.Chemscore.Metal>
0.0000

> <Gold.Chemscore.Lipo>
100.9668

> <Gold.Chemscore.Internal_Hbond>
0.0000

> <Gold.Chemscore.DEClash>
0.3829

> <Gold.Chemscore.DEInternal>
2.5770

> <Gold.Chemscore.Rot>
3.6182

> <Gold.Chemscore.Internal.Correction>
   9.000000E+99

> <Gold.Chemscore.Hbonds>
donor molecule, donor type, donor heavy atom, donor atom, acceptor molecule, acceptor atom, score
      L1  H     7    38       P1  8028  0.69
      L1  H    20    60       P1  7921  0.28
      P1  H  8011  8017       L1    28  0.01

> <Gold.Chemscore.Hbond.Weighted>
-4.8093

> <Gold.Chemscore.Metal.Weighted>
-0.0000

> <Gold.Chemscore.Lipo.Weighted>
-11.8131

> <Gold.Chemscore.Internal_Hbond.Weighted>
0.0000

> <Gold.Chemscore.DEClash.Weighted>
0.3829

> <Gold.Chemscore.DEInternal.Weighted>
2.5770

> <Gold.Chemscore.Rot.Weighted>
9.2625

> <Gold.Chemscore.Internal.Correction.Weighted>
   9.000000E+99

> <Gold.Protein.RotatedTorsions>
[ 6907 6896 6895 6894 ] final   83.21 input  -60.11 | X-H torsion
[ 7974 7965 7964 7962 ] final  -18.97 input  175.53 | X-H torsion
[ 8008 7997 7996 7995 ] final -110.73 input   59.86 | X-H torsion
[ 10167 10162 10161 10158 ] final -177.00 input  -65.29 | X-H torsion
[ 10718 10713 10712 10709 ] final   79.72 input   66.30 | X-H torsion
[ 10763 10752 10751 10750 ] final  -75.24 input  -60.55 | X-H torsion
[ 11005 11000 10999 10996 ] final   -2.92 input  -57.11 | X-H torsion

> <Gold.Protein.ActiveResidues>
 VAL166  LYS551  ARG553  GLY616  TRP617  ASP618  TYR619  PRO620  LYS621  CYS622 
 ASP623  PHE694  ASN695  SER759  ASP760  ASP761  ALA762  ILE779  LEU786  VAL792 
 PHE793  MET794  SER795  GLU796  ALA797  LYS798  CYS799  TRP800  GLU811  SER814 

> <Gold.Protein.RotatedAtoms>
  152.5321  134.2931  159.9050 H   0  0  0  0  0  0  0  0  0  0  0  0  # atno 6907 bound_to 6896
  151.2883  133.4171  159.2639 H   0  0  0  0  0  0  0  0  0  0  0  0  # atno 6908 bound_to 6896
  151.0223  134.9494  159.8123 H   0  0  0  0  0  0  0  0  0  0  0  0  # atno 6909 bound_to 6896
  146.1865  140.3996  142.8474 H   0  0  0  0  0  0  0  0  0  0  0  0  # atno 7974 bound_to 7965
  154.9789  140.0396  157.2269 H   0  0  0  0  0  0  0  0  0  0  0  0  # atno 8008 bound_to 7997
  154.7732  140.2805  155.6099 H   0  0  0  0  0  0  0  0  0  0  0  0  # atno 8009 bound_to 7997
  156.2924  140.2606  156.2539 H   0  0  0  0  0  0  0  0  0  0  0  0  # atno 8010 bound_to 7997
  139.5502  144.2130  152.1062 H   0  0  0  0  0  0  0  0  0  0  0  0  # atno 10167 bound_to 10162
  157.6785  130.9927  150.1973 H   0  0  0  0  0  0  0  0  0  0  0  0  # atno 10718 bound_to 10713
  154.4839  135.5838  153.6409 H   0  0  0  0  0  0  0  0  0  0  0  0  # atno 10763 bound_to 10752
  152.9851  135.6096  154.3211 H   0  0  0  0  0  0  0  0  0  0  0  0  # atno 10764 bound_to 10752
  154.3105  135.2845  155.2547 H   0  0  0  0  0  0  0  0  0  0  0  0  # atno 10765 bound_to 10752
  140.6637  133.9297  155.8452 H   0  0  0  0  0  0  0  0  0  0  0  0  # atno 11005 bound_to 11000
  144.8407  140.6852  143.6231 LP  0  0  0  0  0  0  0  0  0  0  0  0  # atno 17320 bound_to 7965
  145.3922  139.1614  143.4222 LP  0  0  0  0  0  0  0  0  0  0  0  0  # atno 17321 bound_to 7965
  140.1624  144.5013  150.6625 LP  0  0  0  0  0  0  0  0  0  0  0  0  # atno 17342 bound_to 10162
  140.6762  143.2306  151.5502 LP  0  0  0  0  0  0  0  0  0  0  0  0  # atno 17343 bound_to 10162
  156.2672  130.3717  149.8069 LP  0  0  0  0  0  0  0  0  0  0  0  0  # atno 17370 bound_to 10713
  156.5797  130.8460  151.3379 LP  0  0  0  0  0  0  0  0  0  0  0  0  # atno 17371 bound_to 10713
  141.0445  134.0573  157.3860 LP  0  0  0  0  0  0  0  0  0  0  0  0  # atno 17394 bound_to 11000
  139.9004  135.0162  156.7242 LP  0  0  0  0  0  0  0  0  0  0  0  0  # atno 17395 bound_to 11000

$$$$
