AV-unprocessed.smi:2124|AV-procd|sdf|8673|dock6
  -GOLD-   2272011423D 1   1.00000     0.00000
 Structure written by MMmdl.
 46 48  0  0  0  0  0  0  0  0  2 V2000
  144.4205  138.7176  160.6140 C   0  0  0  0  0  0  0  0  0  0  0  0
  144.9507  137.3897  161.1108 C   0  0  0  0  0  0  0  0  0  0  0  0
  144.1567  136.5833  161.7056 N   0  0  0  0  0  0  0  0  0  0  0  0
  144.6435  135.3491  162.1682 C   0  0  0  0  0  0  0  0  0  0  0  0
  143.6292  134.4528  162.8571 C   0  0  0  0  0  0  0  0  0  0  0  0
  145.9501  134.9967  161.9975 C   0  0  0  0  0  0  0  0  0  0  0  0
  146.5255  133.6668  162.4832 C   0  0  0  0  0  0  0  0  0  0  0  0
  146.3485  132.4804  161.5331 C   0  0  0  0  0  0  0  0  0  0  0  0
  147.2624  132.1458  160.7792 O   0  0  0  0  0  0  0  0  0  0  0  0
  145.1620  131.8546  161.5841 N   0  0  0  0  0  0  0  0  0  0  0  0
  144.7643  130.6919  160.7918 C   0  0  1  0  0  0  0  0  0  0  0  0
  145.5593  129.4720  161.2816 C   0  0  0  0  0  0  0  0  0  0  0  0
  143.2336  130.4848  160.8981 C   0  0  1  0  0  0  0  0  0  0  0  0
  142.3758  131.6210  160.2938 C   0  0  0  0  0  0  0  0  0  0  0  0
  141.3668  130.8638  159.4113 C   0  0  1  0  0  0  0  0  0  0  0  0
  142.0874  130.3586  158.1481 C   0  0  0  0  0  0  0  0  0  0  0  0
  142.9541  129.2087  158.6921 C   0  0  0  0  0  0  0  0  0  0  0  0
  142.6451  129.2311  160.2034 C   0  0  2  0  0  0  0  0  0  0  0  0
  141.1583  129.5724  160.1935 C   0  0  0  0  0  0  0  0  0  0  0  0
  146.8336  135.9563  161.3110 C   0  0  0  0  0  0  0  0  0  0  0  0
  148.0238  135.6942  161.1411 O   0  0  0  0  0  0  0  0  0  0  0  0
  146.2831  137.1281  160.8828 N   0  5  0  0  0  0  0  0  0  0  0  0
  143.4348  138.9275  161.0311 H   0  0  0  0  0  0  0  0  0  0  0  0
  144.3385  138.7063  159.5267 H   0  0  0  0  0  0  0  0  0  0  0  0
  145.0899  139.5287  160.9025 H   0  0  0  0  0  0  0  0  0  0  0  0
  143.4993  133.5248  162.3004 H   0  0  0  0  0  0  0  0  0  0  0  0
  142.6559  134.9397  162.9264 H   0  0  0  0  0  0  0  0  0  0  0  0
  143.9537  134.2103  163.8690 H   0  0  0  0  0  0  0  0  0  0  0  0
  147.5896  133.8080  162.6759 H   0  0  0  0  0  0  0  0  0  0  0  0
  146.1059  133.3922  163.4512 H   0  0  0  0  0  0  0  0  0  0  0  0
  144.4770  132.2101  162.2351 H   0  0  0  0  0  0  0  0  0  0  0  0
  145.0312  130.8598  159.7484 H   0  0  0  0  0  0  0  0  0  0  0  0
  145.3467  128.5906  160.6769 H   0  0  0  0  0  0  0  0  0  0  0  0
  145.3214  129.2318  162.3182 H   0  0  0  0  0  0  0  0  0  0  0  0
  146.6327  129.6546  161.2196 H   0  0  0  0  0  0  0  0  0  0  0  0
  142.9870  130.4096  161.9590 H   0  0  0  0  0  0  0  0  0  0  0  0
  141.8688  132.1783  161.0827 H   0  0  0  0  0  0  0  0  0  0  0  0
  142.9584  132.3343  159.7098 H   0  0  0  0  0  0  0  0  0  0  0  0
  140.4589  131.4294  159.2000 H   0  0  0  0  0  0  0  0  0  0  0  0
  141.3729  129.9861  157.4132 H   0  0  0  0  0  0  0  0  0  0  0  0
  142.6828  131.1381  157.6708 H   0  0  0  0  0  0  0  0  0  0  0  0
  142.6360  128.2609  158.2560 H   0  0  0  0  0  0  0  0  0  0  0  0
  144.0116  129.3285  158.4608 H   0  0  0  0  0  0  0  0  0  0  0  0
  142.8867  128.2970  160.7110 H   0  0  0  0  0  0  0  0  0  0  0  0
  140.7409  129.7316  161.1894 H   0  0  0  0  0  0  0  0  0  0  0  0
  140.5474  128.8395  159.6633 H   0  0  0  0  0  0  0  0  0  0  0  0
  1  2  1  0  0  0  0
  1 23  1  0  0  0  0
  1 24  1  0  0  0  0
  1 25  1  0  0  0  0
  2 22  1  0  0  0  0
  2  3  2  0  0  0  0
  3  4  1  0  0  0  0
  4  5  1  0  0  0  0
  4  6  2  0  0  0  0
  5 26  1  0  0  0  0
  5 27  1  0  0  0  0
  5 28  1  0  0  0  0
  6  7  1  0  0  0  0
  6 20  1  0  0  0  0
  7  8  1  0  0  0  0
  7 29  1  0  0  0  0
  7 30  1  0  0  0  0
  8  9  2  0  0  0  0
  8 10  1  0  0  0  0
 10 11  1  0  0  0  0
 10 31  1  0  0  0  0
 11 12  1  0  0  0  0
 11 13  1  0  0  0  0
 11 32  1  0  0  0  0
 12 33  1  0  0  0  0
 12 34  1  0  0  0  0
 12 35  1  0  0  0  0
 13 18  1  0  0  0  0
 13 14  1  0  0  0  0
 13 36  1  0  0  0  0
 14 15  1  0  0  0  0
 14 37  1  0  0  0  0
 14 38  1  0  0  0  0
 15 19  1  0  0  0  0
 15 16  1  0  0  0  0
 15 39  1  0  0  0  0
 16 17  1  0  0  0  0
 16 40  1  0  0  0  0
 16 41  1  0  0  0  0
 17 18  1  0  0  0  0
 17 42  1  0  0  0  0
 17 43  1  0  0  0  0
 18 19  1  0  0  0  0
 18 44  1  0  0  0  0
 19 45  1  0  0  0  0
 19 46  1  0  0  0  0
 20 21  2  0  0  0  0
 20 22  1  0  0  0  0
M  CHG  1  22  -1
M  END
> <s_m_source_file>
AV-unprocessed.smi

> <i_m_source_file_index>
2124

> <i_lp_mmshare_version>
43012

> <i_f3d_flags>
0

> <s_epik_input>
W0NIM11jMW5jKFtDSDNdKWMoYyg9TylbbkhdMSlbQ0gyXUMoPU8pW05IXVtDQEhdKFtDSDNdKVtDQEhdKFtDSDJdW0NASF0yMylbQ0BIXShbQ0gyXTMpW0NIMl1bQ0gyXTI=

> <s_epik_cmdline>
J2VwaWtfcHl0aG9uJywgJy1waCcsICc3LjAnLCAnLXRuJywgJzgnLCAnLW1hJywgJzIwMCcsICctbWV0YWxfYmluZGluZycsICctaW1hZScsICc8aW5maWxlLm1hZT4nLCAnLW9tYWUnLCAnPG91dGZpbGUubWFlPic=

> <r_lp_tautomer_probability>
0.839158

> <r_epik_Ionization_Penalty>
6.63797

> <r_epik_Ionization_Penalty_Charging>
7.48558e-08

> <r_epik_Ionization_Penalty_Neutral>
6.63797

> <r_epik_State_Penalty>
4.49496

> <r_epik_Charging_Adjusted_Penalty>
4.49496

> <i_epik_Tot_Q>
-1

> <i_epik_Tot_abs_Q>
1

> <r_epik_Metal_State_Penalty>
0.841241

> <b_epik_Metal_Only>
1

> <s_lp_Force_Field>
OPLS_2005

> <r_lp_Energy>
55.5119

> <b_lp_Chiralities_Consistent>
1

> <s_lp_Variant>
AV-unprocessed.smi:2124-24

> <Gold.Version>
5.8.1

> <Gold.Id.Protein>
6NUR|6NUR_protein|mol2

> <Gold.PLP.Fitness>
40.5026

> <Gold.PLP.PLP>
-36.1121

> <Gold.PLP.part.hbond>
-1.0000

> <Gold.PLP.part.metal>
0.0000

> <Gold.PLP.part.buried>
-5.9381

> <Gold.PLP.part.nonpolar>
-29.3929

> <Gold.PLP.part.repulsive>
0.0247

> <Gold.PLP.ligand.clash>
0.0000

> <Gold.PLP.ligand.torsion>
0.8147

> <Gold.PLP.Chemscore.Hbond>
2.0000

> <Gold.PLP.Chemscore.CHOScore>
0.0000

> <Gold.PLP.Chemscore.Metal>
0.0000

> <Gold.Chemscore.Hbonds>
donor molecule, donor type, donor heavy atom, donor atom, acceptor molecule, acceptor atom, score
      P1  H  6934  6947       L1    22  1.69

> <Gold.PLP.Chemscore.Internal.Correction>
0.0199

> <Gold.Rescore>
     Score         DG    S(hbond)    S(metal)    S(lipo)     H(rot)  DE(clash)    DE(int)     intcor
     14.78     -15.78       1.76        0.00      73.03       1.61       0.04       0.95       ----

> <Gold.Chemscore.Fitness>
14.7846

> <Gold.Chemscore.DG>
-15.7786

> <Gold.Chemscore.ZeroCoef>
-5.4800

> <Gold.Chemscore.Hbond>
1.7554

> <Gold.Chemscore.Metal>
0.0000

> <Gold.Chemscore.Lipo>
73.0312

> <Gold.Chemscore.Internal_Hbond>
0.0000

> <Gold.Chemscore.DEClash>
0.0436

> <Gold.Chemscore.DEInternal>
0.9505

> <Gold.Chemscore.Rot>
1.6051

> <Gold.Chemscore.Internal.Correction>
   9.000000E+99

> <Gold.Chemscore.Hbonds>
donor molecule, donor type, donor heavy atom, donor atom, acceptor molecule, acceptor atom, score
      P1  H  6934  6947       L1    22  0.33

> <Gold.Chemscore.Hbond.Weighted>
-5.8630

> <Gold.Chemscore.Metal.Weighted>
-0.0000

> <Gold.Chemscore.Lipo.Weighted>
-8.5446

> <Gold.Chemscore.Internal_Hbond.Weighted>
0.0000

> <Gold.Chemscore.DEClash.Weighted>
0.0436

> <Gold.Chemscore.DEInternal.Weighted>
0.9505

> <Gold.Chemscore.Rot.Weighted>
4.1090

> <Gold.Chemscore.Internal.Correction.Weighted>
   9.000000E+99

> <Gold.Protein.RotatedTorsions>
[ 6907 6896 6895 6894 ] final  153.72 input  -60.11 | X-H torsion
[ 7974 7965 7964 7962 ] final  -93.29 input  175.53 | X-H torsion
[ 8008 7997 7996 7995 ] final   44.34 input   59.86 | X-H torsion
[ 10167 10162 10161 10158 ] final   -6.50 input  -65.29 | X-H torsion
[ 10718 10713 10712 10709 ] final   52.49 input   66.30 | X-H torsion
[ 10763 10752 10751 10750 ] final -110.87 input  -60.55 | X-H torsion
[ 11005 11000 10999 10996 ] final -152.63 input  -57.11 | X-H torsion

> <Gold.Protein.ActiveResidues>
 VAL166  LYS551  ARG553  GLY616  TRP617  ASP618  TYR619  PRO620  LYS621  CYS622 
 ASP623  PHE694  ASN695  SER759  ASP760  ASP761  ALA762  ILE779  LEU786  VAL792 
 PHE793  MET794  SER795  GLU796  ALA797  LYS798  CYS799  TRP800  GLU811  SER814 

> <Gold.Protein.RotatedAtoms>
  152.0687  133.4096  159.4449 H   0  0  0  0  0  0  0  0  0  0  0  0  # atno 6907 bound_to 6896
  150.6864  134.3117  159.4758 H   0  0  0  0  0  0  0  0  0  0  0  0  # atno 6908 bound_to 6896
  152.0946  134.9383  160.0621 H   0  0  0  0  0  0  0  0  0  0  0  0  # atno 6909 bound_to 6896
  145.3885  140.9525  143.2354 H   0  0  0  0  0  0  0  0  0  0  0  0  # atno 7974 bound_to 7965
  155.3176  140.3395  155.4242 H   0  0  0  0  0  0  0  0  0  0  0  0  # atno 8008 bound_to 7997
  156.1925  140.1703  156.8102 H   0  0  0  0  0  0  0  0  0  0  0  0  # atno 8009 bound_to 7997
  154.5459  140.0715  156.8571 H   0  0  0  0  0  0  0  0  0  0  0  0  # atno 8010 bound_to 7997
  140.6999  143.6187  150.8633 H   0  0  0  0  0  0  0  0  0  0  0  0  # atno 10167 bound_to 10162
  157.5080  130.8482  149.8399 H   0  0  0  0  0  0  0  0  0  0  0  0  # atno 10718 bound_to 10713
  154.8270  135.4548  154.0951 H   0  0  0  0  0  0  0  0  0  0  0  0  # atno 10763 bound_to 10752
  153.2256  135.6899  153.7955 H   0  0  0  0  0  0  0  0  0  0  0  0  # atno 10764 bound_to 10752
  153.7356  135.3320  155.3271 H   0  0  0  0  0  0  0  0  0  0  0  0  # atno 10765 bound_to 10752
  140.7168  134.3771  157.5189 H   0  0  0  0  0  0  0  0  0  0  0  0  # atno 11005 bound_to 11000
  144.8457  139.5401  143.6879 LP  0  0  0  0  0  0  0  0  0  0  0  0  # atno 17320 bound_to 7965
  146.2809  139.6874  142.9230 LP  0  0  0  0  0  0  0  0  0  0  0  0  # atno 17321 bound_to 7965
  139.9908  143.5849  152.2910 LP  0  0  0  0  0  0  0  0  0  0  0  0  # atno 17342 bound_to 10162
  139.6503  144.7660  151.2161 LP  0  0  0  0  0  0  0  0  0  0  0  0  # atno 17343 bound_to 10162
  156.0270  130.3776  150.1793 LP  0  0  0  0  0  0  0  0  0  0  0  0  # atno 17370 bound_to 10713
  156.9983  130.9914  151.3397 LP  0  0  0  0  0  0  0  0  0  0  0  0  # atno 17371 bound_to 10713
  139.8858  134.8928  156.2623 LP  0  0  0  0  0  0  0  0  0  0  0  0  # atno 17394 bound_to 11000
  141.0038  133.7136  156.1001 LP  0  0  0  0  0  0  0  0  0  0  0  0  # atno 17395 bound_to 11000

$$$$
