AV-unprocessed.smi:21|AV-procd|sdf|133|dock3
  -GOLD-   2262015323D 1   1.00000     0.00000
 Structure written by MMmdl.
 62 65  0  0  0  0  0  0  0  0  2 V2000
  145.6323  133.2292  150.3562 C   0  0  0  0  0  0  0  0  0  0  0  0
  146.1988  134.3371  151.0370 O   0  0  0  0  0  0  0  0  0  0  0  0
  145.3001  134.9623  151.9407 C   0  0  1  0  0  0  0  0  0  0  0  0
  146.0279  135.9929  152.7929 C   0  0  0  0  0  0  0  0  0  0  0  0
  144.8923  136.9070  153.2584 C   0  0  1  0  0  0  0  0  0  0  0  0
  145.3677  138.3148  153.6827 C   0  0  0  0  0  0  0  0  0  0  0  0
  146.6231  138.7258  153.0548 N   0  0  0  0  0  0  0  0  0  0  0  0
  146.6682  138.7119  151.6000 C   0  0  0  0  0  0  0  0  0  0  0  0
  147.2821  139.7857  153.5789 C   0  0  0  0  0  0  0  0  0  0  0  0
  146.7664  141.0147  153.3282 N   0  0  0  0  0  0  0  0  0  0  0  0
  147.3873  142.1082  153.7802 C   0  0  0  0  0  0  0  0  0  0  0  0
  148.5162  142.1944  154.4869 N   0  0  0  0  0  0  0  0  0  0  0  0
  149.0281  140.9598  154.7562 C   0  0  0  0  0  0  0  0  0  0  0  0
  148.4772  139.7112  154.3517 C   0  0  0  0  0  0  0  0  0  0  0  0
  149.2762  138.6715  154.8155 N   0  0  0  0  0  0  0  0  0  0  0  0
  150.2501  139.2706  155.4441 C   0  0  0  0  0  0  0  0  0  0  0  0
  150.1889  140.6450  155.4403 N   0  0  0  0  0  0  0  0  0  0  0  0
  151.1529  141.5541  156.0332 C   0  0  0  0  0  0  0  0  0  0  0  0
  151.1298  141.5627  157.5855 C   0  0  1  0  0  0  0  0  0  0  0  0
  151.5726  140.2067  158.1951 C   0  0  0  0  0  0  0  0  0  0  0  0
  152.8732  139.8381  157.7826 O   0  0  0  0  0  0  0  0  0  0  0  0
  151.9985  142.7259  158.1316 C   0  0  1  0  0  0  0  0  0  0  0  0
  151.5501  144.1153  157.7081 C   0  0  0  0  0  0  0  0  0  0  0  0
  152.2442  145.0028  158.7324 C   0  0  0  0  0  0  0  0  0  0  0  0
  152.2243  144.2566  159.9416 O   0  0  0  0  0  0  0  0  0  0  0  0
  151.9865  142.8800  159.6599 C   0  0  0  0  0  0  0  0  0  0  0  0
  143.9544  136.9678  152.1136 N   0  3  2  0  0  0  0  0  0  0  0  0
  142.5350  137.1147  152.5046 C   0  0  0  0  0  0  0  0  0  0  0  0
  144.2185  135.7978  151.2421 C   0  0  0  0  0  0  0  0  0  0  0  0
  144.8384  134.2265  152.6027 H   0  0  0  0  0  0  0  0  0  0  0  0
  144.3761  136.4052  154.0782 H   0  0  0  0  0  0  0  0  0  0  0  0
  146.3765  132.7918  149.6908 H   0  0  0  0  0  0  0  0  0  0  0  0
  144.7752  133.5255  149.7503 H   0  0  0  0  0  0  0  0  0  0  0  0
  145.3149  132.4561  151.0572 H   0  0  0  0  0  0  0  0  0  0  0  0
  146.5785  135.5442  153.6204 H   0  0  0  0  0  0  0  0  0  0  0  0
  146.7368  136.5516  152.1796 H   0  0  0  0  0  0  0  0  0  0  0  0
  144.5993  139.0439  153.4226 H   0  0  0  0  0  0  0  0  0  0  0  0
  145.4733  138.3733  154.7656 H   0  0  0  0  0  0  0  0  0  0  0  0
  147.6961  138.7570  151.2378 H   0  0  0  0  0  0  0  0  0  0  0  0
  146.1211  139.5621  151.1906 H   0  0  0  0  0  0  0  0  0  0  0  0
  146.2187  137.7979  151.2111 H   0  0  0  0  0  0  0  0  0  0  0  0
  146.9161  143.0486  153.5338 H   0  0  0  0  0  0  0  0  0  0  0  0
  151.0538  138.7251  155.9174 H   0  0  0  0  0  0  0  0  0  0  0  0
  152.1485  141.2896  155.6749 H   0  0  0  0  0  0  0  0  0  0  0  0
  150.9395  142.5475  155.6389 H   0  0  0  0  0  0  0  0  0  0  0  0
  150.1038  141.7523  157.9053 H   0  0  0  0  0  0  0  0  0  0  0  0
  151.5294  140.2390  159.2843 H   0  0  0  0  0  0  0  0  0  0  0  0
  150.9143  139.3979  157.8812 H   0  0  0  0  0  0  0  0  0  0  0  0
  153.1172  139.0510  158.2451 H   0  0  0  0  0  0  0  0  0  0  0  0
  153.0313  142.5886  157.8062 H   0  0  0  0  0  0  0  0  0  0  0  0
  151.8331  144.3678  156.6859 H   0  0  0  0  0  0  0  0  0  0  0  0
  150.4672  144.2138  157.8003 H   0  0  0  0  0  0  0  0  0  0  0  0
  153.2817  145.1771  158.4444 H   0  0  0  0  0  0  0  0  0  0  0  0
  151.7562  145.9708  158.8501 H   0  0  0  0  0  0  0  0  0  0  0  0
  151.0124  142.6135  160.0723 H   0  0  0  0  0  0  0  0  0  0  0  0
  152.7378  142.2554  160.1439 H   0  0  0  0  0  0  0  0  0  0  0  0
  142.1923  136.2517  153.0771 H   0  0  0  0  0  0  0  0  0  0  0  0
  141.9048  137.2112  151.6201 H   0  0  0  0  0  0  0  0  0  0  0  0
  142.3944  138.0071  153.1148 H   0  0  0  0  0  0  0  0  0  0  0  0
  144.5862  136.1745  150.2870 H   0  0  0  0  0  0  0  0  0  0  0  0
  143.3242  135.2068  151.0388 H   0  0  0  0  0  0  0  0  0  0  0  0
  144.2044  137.7838  151.5732 H   0  0  0  0  0  0  0  0  0  0  0  0
  1  2  1  0  0  0  0
  1 32  1  0  0  0  0
  1 33  1  0  0  0  0
  1 34  1  0  0  0  0
  2  3  1  0  0  0  0
  3 30  1  0  0  0  0
  3 29  1  0  0  0  0
  3  4  1  0  0  0  0
  4  5  1  0  0  0  0
  4 35  1  0  0  0  0
  4 36  1  0  0  0  0
  5 31  1  0  0  0  0
  5  6  1  0  0  0  0
  5 27  1  0  0  0  0
  6  7  1  0  0  0  0
  6 37  1  0  0  0  0
  6 38  1  0  0  0  0
  7  8  1  0  0  0  0
  7  9  1  0  0  0  0
  8 39  1  0  0  0  0
  8 40  1  0  0  0  0
  8 41  1  0  0  0  0
  9 14  1  0  0  0  0
  9 10  2  0  0  0  0
 10 11  1  0  0  0  0
 11 12  2  0  0  0  0
 11 42  1  0  0  0  0
 12 13  1  0  0  0  0
 13 17  1  0  0  0  0
 13 14  2  0  0  0  0
 14 15  1  0  0  0  0
 15 16  2  0  0  0  0
 16 17  1  0  0  0  0
 16 43  1  0  0  0  0
 17 18  1  0  0  0  0
 18 19  1  0  0  0  0
 18 44  1  0  0  0  0
 18 45  1  0  0  0  0
 19 20  1  0  0  0  0
 19 22  1  0  0  0  0
 19 46  1  0  0  0  0
 20 21  1  0  0  0  0
 20 47  1  0  0  0  0
 20 48  1  0  0  0  0
 21 49  1  0  0  0  0
 22 26  1  0  0  0  0
 22 23  1  0  0  0  0
 22 50  1  0  0  0  0
 23 24  1  0  0  0  0
 23 51  1  0  0  0  0
 23 52  1  0  0  0  0
 24 25  1  0  0  0  0
 24 53  1  0  0  0  0
 24 54  1  0  0  0  0
 25 26  1  0  0  0  0
 26 55  1  0  0  0  0
 26 56  1  0  0  0  0
 27 28  1  0  0  0  0
 27 29  1  0  0  0  0
 27 62  1  0  0  0  0
 28 57  1  0  0  0  0
 28 58  1  0  0  0  0
 28 59  1  0  0  0  0
 29 60  1  0  0  0  0
 29 61  1  0  0  0  0
M  CHG  1  27   1
M  END
> <s_m_source_file>
AV-unprocessed.smi

> <i_m_source_file_index>
21

> <i_lp_mmshare_version>
43012

> <i_f3d_flags>
0

> <s_epik_input>
W0NIM11PW0NASF0xW0NIMl1bQ0BIXShOKFtDSDNdKVtDSDJdMSlbQ0gyXU4oW0NIM10pYyhuW2NIXW4yKWMoYzIzKW5bY0hdbjNbQ0gyXVtDQEhdKFtDSDJdW09IXSlbQ0BASF00W0NIMl1bQ0gyXU9bQ0gyXTQ=

> <s_epik_cmdline>
J2VwaWtfcHl0aG9uJywgJy1waCcsICc3LjAnLCAnLXRuJywgJzgnLCAnLW1hJywgJzIwMCcsICctbWV0YWxfYmluZGluZycsICctaW1hZScsICc8aW5maWxlLm1hZT4nLCAnLW9tYWUnLCAnPG91dGZpbGUubWFlPic=

> <r_lp_tautomer_probability>
1

> <r_epik_Ionization_Penalty>
0.0157465

> <r_epik_Ionization_Penalty_Charging>
0.015354

> <r_epik_Ionization_Penalty_Neutral>
0.000392529

> <r_epik_State_Penalty>
0.0120612

> <r_epik_Charging_Adjusted_Penalty>
0.0274152

> <i_epik_Tot_Q>
1

> <i_epik_Tot_abs_Q>
1

> <r_epik_Metal_State_Penalty>
0.0121253

> <b_epik_Metal_Only>
0

> <s_lp_Force_Field>
OPLS_2005

> <r_lp_Energy>
58.1484

> <b_lp_Chiralities_Consistent>
1

> <s_lp_Variant>
AV-unprocessed.smi:21-13

> <Gold.Version>
5.8.1

> <Gold.Id.Protein>
6NUR|6NUR_protein|mol2

> <Gold.PLP.Fitness>
50.7221

> <Gold.PLP.PLP>
-46.6601

> <Gold.PLP.part.hbond>
-2.8815

> <Gold.PLP.part.metal>
0.0000

> <Gold.PLP.part.buried>
-6.5100

> <Gold.PLP.part.nonpolar>
-39.9644

> <Gold.PLP.part.repulsive>
2.8659

> <Gold.PLP.ligand.clash>
0.0000

> <Gold.PLP.ligand.torsion>
0.9731

> <Gold.PLP.Chemscore.Hbond>
1.7706

> <Gold.PLP.Chemscore.CHOScore>
0.0000

> <Gold.PLP.Chemscore.Metal>
0.0000

> <Gold.Chemscore.Hbonds>
donor molecule, donor type, donor heavy atom, donor atom, acceptor molecule, acceptor atom, score
      L1  H    27    62       P1 10171  0.80
      P1  H  7997  8008       L1    21  1.00

> <Gold.PLP.Chemscore.Internal.Correction>
0.6962

> <Gold.Rescore>
     Score         DG    S(hbond)    S(metal)    S(lipo)     H(rot)  DE(clash)    DE(int)     intcor
     11.36     -14.79       1.48        0.00     110.40       3.35       1.60       1.83       ----

> <Gold.Chemscore.Fitness>
11.3588

> <Gold.Chemscore.DG>
-14.7894

> <Gold.Chemscore.ZeroCoef>
-5.4800

> <Gold.Chemscore.Hbond>
1.4840

> <Gold.Chemscore.Metal>
0.0000

> <Gold.Chemscore.Lipo>
110.3970

> <Gold.Chemscore.Internal_Hbond>
0.0000

> <Gold.Chemscore.DEClash>
1.5979

> <Gold.Chemscore.DEInternal>
1.8327

> <Gold.Chemscore.Rot>
3.3452

> <Gold.Chemscore.Internal.Correction>
   9.000000E+99

> <Gold.Chemscore.Hbonds>
donor molecule, donor type, donor heavy atom, donor atom, acceptor molecule, acceptor atom, score
      L1  H    27    62       P1 10171  0.78
      P1  H  7997  8008       L1    21  0.29

> <Gold.Chemscore.Hbond.Weighted>
-4.9566

> <Gold.Chemscore.Metal.Weighted>
-0.0000

> <Gold.Chemscore.Lipo.Weighted>
-12.9165

> <Gold.Chemscore.Internal_Hbond.Weighted>
0.0000

> <Gold.Chemscore.DEClash.Weighted>
1.5979

> <Gold.Chemscore.DEInternal.Weighted>
1.8327

> <Gold.Chemscore.Rot.Weighted>
8.5636

> <Gold.Chemscore.Internal.Correction.Weighted>
   9.000000E+99

> <Gold.Protein.RotatedTorsions>
[ 6907 6896 6895 6894 ] final   86.26 input  -60.11 | X-H torsion
[ 7974 7965 7964 7962 ] final   81.16 input  175.53 | X-H torsion
[ 8008 7997 7996 7995 ] final  -59.54 input   59.86 | X-H torsion
[ 10167 10162 10161 10158 ] final  104.65 input  -65.29 | X-H torsion
[ 10718 10713 10712 10709 ] final   90.10 input   66.30 | X-H torsion
[ 10763 10752 10751 10750 ] final -140.61 input  -60.55 | X-H torsion
[ 11005 11000 10999 10996 ] final   26.78 input  -57.11 | X-H torsion

> <Gold.Protein.ActiveResidues>
 VAL166  LYS551  ARG553  GLY616  TRP617  ASP618  TYR619  PRO620  LYS621  CYS622 
 ASP623  PHE694  ASN695  SER759  ASP760  ASP761  ALA762  ILE779  LEU786  VAL792 
 PHE793  MET794  SER795  GLU796  ALA797  LYS798  CYS799  TRP800  GLU811  SER814 

> <Gold.Protein.RotatedAtoms>
  152.5391  134.2459  159.8879 H   0  0  0  0  0  0  0  0  0  0  0  0  # atno 6907 bound_to 6896
  151.2424  133.4386  159.2615 H   0  0  0  0  0  0  0  0  0  0  0  0  # atno 6908 bound_to 6896
  151.0614  134.9753  159.8318 H   0  0  0  0  0  0  0  0  0  0  0  0  # atno 6909 bound_to 6896
  145.6418  139.2427  143.2026 H   0  0  0  0  0  0  0  0  0  0  0  0  # atno 7974 bound_to 7965
  154.4357  140.1059  156.6131 H   0  0  0  0  0  0  0  0  0  0  0  0  # atno 8008 bound_to 7997
  155.5788  140.3490  155.4516 H   0  0  0  0  0  0  0  0  0  0  0  0  # atno 8009 bound_to 7997
  156.0334  140.1266  157.0223 H   0  0  0  0  0  0  0  0  0  0  0  0  # atno 8010 bound_to 7997
  139.7159  144.7068  151.0951 H   0  0  0  0  0  0  0  0  0  0  0  0  # atno 10167 bound_to 10162
  157.6958  131.0358  150.3527 H   0  0  0  0  0  0  0  0  0  0  0  0  # atno 10718 bound_to 10713
  154.8573  135.3548  154.5735 H   0  0  0  0  0  0  0  0  0  0  0  0  # atno 10763 bound_to 10752
  153.6347  135.7001  153.5267 H   0  0  0  0  0  0  0  0  0  0  0  0  # atno 10764 bound_to 10752
  153.3020  135.4203  155.1220 H   0  0  0  0  0  0  0  0  0  0  0  0  # atno 10765 bound_to 10752
  140.3334  134.2413  155.7699 H   0  0  0  0  0  0  0  0  0  0  0  0  # atno 11005 bound_to 11000
  146.1275  140.7229  142.9428 LP  0  0  0  0  0  0  0  0  0  0  0  0  # atno 17320 bound_to 7965
  144.7155  140.4193  143.7048 LP  0  0  0  0  0  0  0  0  0  0  0  0  # atno 17321 bound_to 7965
  140.7743  143.5231  150.9513 LP  0  0  0  0  0  0  0  0  0  0  0  0  # atno 17342 bound_to 10162
  139.8917  143.6945  152.3144 LP  0  0  0  0  0  0  0  0  0  0  0  0  # atno 17343 bound_to 10162
  156.3973  130.3909  149.6985 LP  0  0  0  0  0  0  0  0  0  0  0  0  # atno 17370 bound_to 10713
  156.4314  130.7817  151.2837 LP  0  0  0  0  0  0  0  0  0  0  0  0  # atno 17371 bound_to 10713
  141.2057  133.7851  157.0215 LP  0  0  0  0  0  0  0  0  0  0  0  0  # atno 17394 bound_to 11000
  140.0842  134.9630  157.1673 LP  0  0  0  0  0  0  0  0  0  0  0  0  # atno 17395 bound_to 11000

$$$$
