AV-unprocessed.smi:3188|AV-procd|sdf|12184|dock3
  -GOLD-   2272018 23D 1   1.00000     0.00000
 Structure written by MMmdl.
 40 41  0  0  0  0  0  0  0  0  2 V2000
  151.3128  145.2933  159.1075 C   0  0  0  0  0  0  0  0  0  0  0  0
  151.8346  144.1033  159.8961 C   0  0  0  0  0  0  0  0  0  0  0  0
  152.2126  144.2664  161.1784 C   0  0  0  0  0  0  0  0  0  0  0  0
  152.8125  143.1764  162.0363 C   0  0  0  0  0  0  0  0  0  0  0  0
  153.3890  142.0519  161.1732 C   0  0  0  0  0  0  0  0  0  0  0  0
  152.3800  141.5844  160.1113 C   0  0  2  0  0  0  0  0  0  0  0  0
  152.9714  140.3905  159.3366 C   0  0  0  0  0  0  0  0  0  0  0  0
  151.9303  142.7451  159.1705 C   0  0  1  0  0  0  0  0  0  0  0  0
  150.6162  142.3619  158.4392 C   0  0  0  0  0  0  0  0  0  0  0  0
  150.6434  142.6883  156.9982 N   0  3  0  0  0  0  0  0  0  0  0  0
  150.4041  141.5322  156.1135 C   0  0  0  0  0  0  0  0  0  0  0  0
  151.6601  140.6558  156.0012 C   0  0  0  0  0  0  0  0  0  0  0  0
  151.3380  139.3044  155.5859 N   0  0  0  0  0  0  0  0  0  0  0  0
  150.7103  138.8850  154.4310 C   0  0  0  0  0  0  0  0  0  0  0  0
  150.6725  137.5264  154.5667 C   0  0  0  0  0  0  0  0  0  0  0  0
  151.2706  137.1815  155.7776 N   0  0  0  0  0  0  0  0  0  0  0  0
  151.6698  138.2574  156.3789 N   0  0  0  0  0  0  0  0  0  0  0  0
  151.8479  145.3907  158.1627 H   0  0  0  0  0  0  0  0  0  0  0  0
  151.4481  146.2239  159.6598 H   0  0  0  0  0  0  0  0  0  0  0  0
  150.2469  145.1902  158.9046 H   0  0  0  0  0  0  0  0  0  0  0  0
  152.1067  145.2310  161.6535 H   0  0  0  0  0  0  0  0  0  0  0  0
  153.5992  143.6033  162.6592 H   0  0  0  0  0  0  0  0  0  0  0  0
  152.0424  142.7961  162.7078 H   0  0  0  0  0  0  0  0  0  0  0  0
  154.2998  142.3999  160.6834 H   0  0  0  0  0  0  0  0  0  0  0  0
  153.6832  141.2199  161.8144 H   0  0  0  0  0  0  0  0  0  0  0  0
  151.5006  141.2264  160.6496 H   0  0  0  0  0  0  0  0  0  0  0  0
  153.8497  140.6882  158.7630 H   0  0  0  0  0  0  0  0  0  0  0  0
  152.2585  139.9469  158.6434 H   0  0  0  0  0  0  0  0  0  0  0  0
  153.2801  139.5982  160.0192 H   0  0  0  0  0  0  0  0  0  0  0  0
  152.7134  142.8718  158.4211 H   0  0  0  0  0  0  0  0  0  0  0  0
  150.4189  141.2940  158.5170 H   0  0  0  0  0  0  0  0  0  0  0  0
  149.7716  142.8636  158.9142 H   0  0  0  0  0  0  0  0  0  0  0  0
  149.9319  143.3818  156.8169 H   0  0  0  0  0  0  0  0  0  0  0  0
  149.5694  140.9492  156.5055 H   0  0  0  0  0  0  0  0  0  0  0  0
  150.1120  141.8921  155.1260 H   0  0  0  0  0  0  0  0  0  0  0  0
  152.3566  141.0825  155.2783 H   0  0  0  0  0  0  0  0  0  0  0  0
  152.1836  140.6098  156.9573 H   0  0  0  0  0  0  0  0  0  0  0  0
  150.3639  139.5518  153.6551 H   0  0  0  0  0  0  0  0  0  0  0  0
  150.2698  136.7764  153.9015 H   0  0  0  0  0  0  0  0  0  0  0  0
  151.5453  143.0853  156.7760 H   0  0  0  0  0  0  0  0  0  0  0  0
  1  2  1  0  0  0  0
  1 18  1  0  0  0  0
  1 19  1  0  0  0  0
  1 20  1  0  0  0  0
  2  8  1  0  0  0  0
  2  3  2  0  0  0  0
  3  4  1  0  0  0  0
  3 21  1  0  0  0  0
  4  5  1  0  0  0  0
  4 22  1  0  0  0  0
  4 23  1  0  0  0  0
  5  6  1  0  0  0  0
  5 24  1  0  0  0  0
  5 25  1  0  0  0  0
  6  7  1  0  0  0  0
  6  8  1  0  0  0  0
  6 26  1  0  0  0  0
  7 27  1  0  0  0  0
  7 28  1  0  0  0  0
  7 29  1  0  0  0  0
  8  9  1  0  0  0  0
  8 30  1  0  0  0  0
  9 10  1  0  0  0  0
  9 31  1  0  0  0  0
  9 32  1  0  0  0  0
 10 11  1  0  0  0  0
 10 33  1  0  0  0  0
 10 40  1  0  0  0  0
 11 12  1  0  0  0  0
 11 34  1  0  0  0  0
 11 35  1  0  0  0  0
 12 13  1  0  0  0  0
 12 36  1  0  0  0  0
 12 37  1  0  0  0  0
 13 17  1  0  0  0  0
 13 14  1  0  0  0  0
 14 15  2  0  0  0  0
 14 38  1  0  0  0  0
 15 16  1  0  0  0  0
 15 39  1  0  0  0  0
 16 17  2  0  0  0  0
M  CHG  1  10   1
M  END
> <s_m_source_file>
AV-unprocessed.smi

> <i_m_source_file_index>
3188

> <i_lp_mmshare_version>
43012

> <i_f3d_flags>
0

> <s_epik_input>
W0NIM11DMT1bQ0hdW0NIMl1bQ0gyXVtDQEBIXShbQ0gzXSlbQ0BIXTFbQ0gyXVtOSF1bQ0gyXVtDSDJdbjJbY0hdW2NIXW5uMg==

> <s_epik_cmdline>
J2VwaWtfcHl0aG9uJywgJy1waCcsICc3LjAnLCAnLXRuJywgJzgnLCAnLW1hJywgJzIwMCcsICctbWV0YWxfYmluZGluZycsICctaW1hZScsICc8aW5maWxlLm1hZT4nLCAnLW9tYWUnLCAnPG91dGZpbGUubWFlPic=

> <r_lp_tautomer_probability>
1

> <r_epik_Ionization_Penalty>
0.007268

> <r_epik_Ionization_Penalty_Charging>
0.00726786

> <r_epik_Ionization_Penalty_Neutral>
1.34882e-07

> <r_epik_State_Penalty>
0.00542069

> <r_epik_Charging_Adjusted_Penalty>
0.0126886

> <i_epik_Tot_Q>
1

> <i_epik_Tot_abs_Q>
1

> <r_epik_Metal_State_Penalty>
-0

> <b_epik_Metal_Only>
0

> <s_lp_Force_Field>
OPLS_2005

> <r_lp_Energy>
15.008

> <b_lp_Chiralities_Consistent>
1

> <s_lp_Variant>
AV-unprocessed.smi:3188-2

> <Gold.Version>
5.8.1

> <Gold.Id.Protein>
6NUR|6NUR_protein|mol2

> <Gold.PLP.Fitness>
53.8460

> <Gold.PLP.PLP>
-43.9112

> <Gold.PLP.part.hbond>
-1.0000

> <Gold.PLP.part.metal>
0.0000

> <Gold.PLP.part.buried>
-4.7794

> <Gold.PLP.part.nonpolar>
-37.0208

> <Gold.PLP.part.repulsive>
0.0815

> <Gold.PLP.ligand.clash>
0.0000

> <Gold.PLP.ligand.torsion>
1.1359

> <Gold.PLP.Chemscore.Hbond>
2.0000

> <Gold.PLP.Chemscore.CHOScore>
2.0404

> <Gold.PLP.Chemscore.Metal>
0.0000

> <Gold.Chemscore.Hbonds>
donor molecule, donor type, donor heavy atom, donor atom, acceptor molecule, acceptor atom, score
      L1  H    10    33       P1  8028  1.92
      L1  C    14    38       P1  7957  0.72
      L1  C    15    39       P1  7948  0.85
      L1  C    15    39       P1  7949  0.17

> <Gold.PLP.Chemscore.Internal.Correction>
0.0854

> <Gold.Rescore>
     Score         DG    S(hbond)    S(metal)    S(lipo)     H(rot)  DE(clash)    DE(int)     intcor
     17.48     -18.63       1.00        0.00     122.96       1.78       0.04       1.12       ----

> <Gold.Chemscore.Fitness>
17.4776

> <Gold.Chemscore.DG>
-18.6340

> <Gold.Chemscore.ZeroCoef>
-5.4800

> <Gold.Chemscore.Hbond>
0.9960

> <Gold.Chemscore.Metal>
0.0000

> <Gold.Chemscore.Lipo>
122.9597

> <Gold.Chemscore.Internal_Hbond>
0.0000

> <Gold.Chemscore.DEClash>
0.0360

> <Gold.Chemscore.DEInternal>
1.1204

> <Gold.Chemscore.Rot>
1.7809

> <Gold.Chemscore.Internal.Correction>
   9.000000E+99

> <Gold.Chemscore.Hbonds>
donor molecule, donor type, donor heavy atom, donor atom, acceptor molecule, acceptor atom, score
      L1  H    10    33       P1  8028  0.88

> <Gold.Chemscore.Hbond.Weighted>
-3.3267

> <Gold.Chemscore.Metal.Weighted>
-0.0000

> <Gold.Chemscore.Lipo.Weighted>
-14.3863

> <Gold.Chemscore.Internal_Hbond.Weighted>
0.0000

> <Gold.Chemscore.DEClash.Weighted>
0.0360

> <Gold.Chemscore.DEInternal.Weighted>
1.1204

> <Gold.Chemscore.Rot.Weighted>
4.5590

> <Gold.Chemscore.Internal.Correction.Weighted>
   9.000000E+99

> <Gold.Protein.RotatedTorsions>
[ 6907 6896 6895 6894 ] final -114.63 input  -60.11 | X-H torsion
[ 7974 7965 7964 7962 ] final  -53.82 input  175.53 | X-H torsion
[ 8008 7997 7996 7995 ] final -111.03 input   59.86 | X-H torsion
[ 10167 10162 10161 10158 ] final  -37.20 input  -65.29 | X-H torsion
[ 10718 10713 10712 10709 ] final -161.61 input   66.30 | X-H torsion
[ 10763 10752 10751 10750 ] final   54.75 input  -60.55 | X-H torsion
[ 11005 11000 10999 10996 ] final  114.85 input  -57.11 | X-H torsion

> <Gold.Protein.ActiveResidues>
 VAL166  LYS551  ARG553  GLY616  TRP617  ASP618  TYR619  PRO620  LYS621  CYS622 
 ASP623  PHE694  ASN695  SER759  ASP760  ASP761  ALA762  ILE779  LEU786  VAL792 
 PHE793  MET794  SER795  GLU796  ALA797  LYS798  CYS799  TRP800  GLU811  SER814 

> <Gold.Protein.RotatedAtoms>
  150.7917  133.8773  159.3275 H   0  0  0  0  0  0  0  0  0  0  0  0  # atno 6907 bound_to 6896
  151.6610  135.0987  160.0189 H   0  0  0  0  0  0  0  0  0  0  0  0  # atno 6908 bound_to 6896
  152.3992  133.6753  159.6337 H   0  0  0  0  0  0  0  0  0  0  0  0  # atno 6909 bound_to 6896
  145.8925  140.8059  142.9784 H   0  0  0  0  0  0  0  0  0  0  0  0  # atno 7974 bound_to 7965
  154.9835  140.0396  157.2288 H   0  0  0  0  0  0  0  0  0  0  0  0  # atno 8008 bound_to 7997
  154.7693  140.2799  155.6128 H   0  0  0  0  0  0  0  0  0  0  0  0  # atno 8009 bound_to 7997
  156.2918  140.2613  156.2491 H   0  0  0  0  0  0  0  0  0  0  0  0  # atno 8010 bound_to 7997
  140.7124  143.3357  151.2468 H   0  0  0  0  0  0  0  0  0  0  0  0  # atno 10167 bound_to 10162
  156.5986  130.8801  151.2908 H   0  0  0  0  0  0  0  0  0  0  0  0  # atno 10718 bound_to 10713
  152.9808  135.5734  154.4954 H   0  0  0  0  0  0  0  0  0  0  0  0  # atno 10763 bound_to 10752
  154.4482  135.2778  155.1802 H   0  0  0  0  0  0  0  0  0  0  0  0  # atno 10764 bound_to 10752
  154.3441  135.6223  153.5664 H   0  0  0  0  0  0  0  0  0  0  0  0  # atno 10765 bound_to 10752
  139.8992  134.9574  156.6955 H   0  0  0  0  0  0  0  0  0  0  0  0  # atno 11005 bound_to 11000
  144.6731  140.1552  143.7427 LP  0  0  0  0  0  0  0  0  0  0  0  0  # atno 17320 bound_to 7965
  145.8891  139.2365  143.1560 LP  0  0  0  0  0  0  0  0  0  0  0  0  # atno 17321 bound_to 7965
  139.6852  143.9787  152.2830 LP  0  0  0  0  0  0  0  0  0  0  0  0  # atno 17342 bound_to 10162
  139.9430  144.6670  150.8248 LP  0  0  0  0  0  0  0  0  0  0  0  0  # atno 17343 bound_to 10162
  157.7285  130.9658  150.1746 LP  0  0  0  0  0  0  0  0  0  0  0  0  # atno 17370 bound_to 10713
  156.2488  130.3698  149.8255 LP  0  0  0  0  0  0  0  0  0  0  0  0  # atno 17371 bound_to 10713
  140.7191  133.9156  155.8135 LP  0  0  0  0  0  0  0  0  0  0  0  0  # atno 17394 bound_to 11000
  141.0241  134.0848  157.4088 LP  0  0  0  0  0  0  0  0  0  0  0  0  # atno 17395 bound_to 11000

$$$$
