AV-unprocessed.smi:2777|AV-procd|sdf|10709|dock4
  -GOLD-   2272015143D 1   1.00000     0.00000
 Structure written by MMmdl.
 31 32  0  0  0  0  0  0  0  0  1 V2000
  154.5618  139.7911  160.3175 C   0  0  0  0  0  0  0  0  0  0  0  0
  153.6245  140.9232  160.1895 N   0  0  0  0  0  0  0  0  0  0  0  0
  152.8744  141.0175  159.0464 C   0  0  0  0  0  0  0  0  0  0  0  0
  152.9256  140.2268  158.1041 O   0  0  0  0  0  0  0  0  0  0  0  0
  151.9732  142.1745  159.0215 C   0  0  0  0  0  0  0  0  0  0  0  0
  151.8981  143.0705  160.0354 C   0  0  0  0  0  0  0  0  0  0  0  0
  150.9737  144.0718  159.7606 N   0  0  0  0  0  0  0  0  0  0  0  0
  150.5256  143.7131  158.5571 C   0  0  0  0  0  0  0  0  0  0  0  0
  151.0707  142.5917  158.0429 N   0  0  0  0  0  0  0  0  0  0  0  0
  150.7485  141.9991  156.7533 C   0  0  0  0  0  0  0  0  0  0  0  0
  149.3674  141.3117  156.7428 C   0  0  1  0  0  0  0  0  0  0  0  0
  148.3534  142.2479  157.0560 O   0  0  0  0  0  0  0  0  0  0  0  0
  149.0435  140.6491  155.3904 C   0  0  0  0  0  0  0  0  0  0  0  0
  147.9502  139.8939  155.4987 F   0  0  0  0  0  0  0  0  0  0  0  0
  148.8611  141.5666  154.4398 F   0  0  0  0  0  0  0  0  0  0  0  0
  150.0550  139.8587  155.0309 F   0  0  0  0  0  0  0  0  0  0  0  0
  152.7216  142.8823  161.1726 N   0  0  0  0  0  0  0  0  0  0  0  0
  152.6136  143.8736  162.2470 C   0  0  0  0  0  0  0  0  0  0  0  0
  153.5795  141.8119  161.2506 C   0  0  0  0  0  0  0  0  0  0  0  0
  154.2935  141.6479  162.2437 O   0  0  0  0  0  0  0  0  0  0  0  0
  154.5751  139.1062  159.4690 H   0  0  0  0  0  0  0  0  0  0  0  0
  154.3150  139.1908  161.1946 H   0  0  0  0  0  0  0  0  0  0  0  0
  155.5836  140.1549  160.4373 H   0  0  0  0  0  0  0  0  0  0  0  0
  149.7759  144.2853  158.0306 H   0  0  0  0  0  0  0  0  0  0  0  0
  150.8153  142.7594  155.9766 H   0  0  0  0  0  0  0  0  0  0  0  0
  151.5232  141.2683  156.5186 H   0  0  0  0  0  0  0  0  0  0  0  0
  149.3500  140.5457  157.5192 H   0  0  0  0  0  0  0  0  0  0  0  0
  148.6087  143.0924  156.7180 H   0  0  0  0  0  0  0  0  0  0  0  0
  153.2602  143.6830  163.1039 H   0  0  0  0  0  0  0  0  0  0  0  0
  151.5884  143.9098  162.6172 H   0  0  0  0  0  0  0  0  0  0  0  0
  152.8657  144.8635  161.8649 H   0  0  0  0  0  0  0  0  0  0  0  0
  1  2  1  0  0  0  0
  1 21  1  0  0  0  0
  1 22  1  0  0  0  0
  1 23  1  0  0  0  0
  2 19  1  0  0  0  0
  2  3  1  0  0  0  0
  3  4  2  0  0  0  0
  3  5  1  0  0  0  0
  5  9  1  0  0  0  0
  5  6  2  0  0  0  0
  6  7  1  0  0  0  0
  6 17  1  0  0  0  0
  7  8  2  0  0  0  0
  8  9  1  0  0  0  0
  8 24  1  0  0  0  0
  9 10  1  0  0  0  0
 10 11  1  0  0  0  0
 10 25  1  0  0  0  0
 10 26  1  0  0  0  0
 11 12  1  0  0  0  0
 11 13  1  0  0  0  0
 11 27  1  0  0  0  0
 12 28  1  0  0  0  0
 13 14  1  0  0  0  0
 13 15  1  0  0  0  0
 13 16  1  0  0  0  0
 17 18  1  0  0  0  0
 17 19  1  0  0  0  0
 18 29  1  0  0  0  0
 18 30  1  0  0  0  0
 18 31  1  0  0  0  0
 19 20  2  0  0  0  0
M  END
> <s_m_source_file>
AV-unprocessed.smi

> <i_m_source_file_index>
2777

> <i_lp_mmshare_version>
43012

> <i_f3d_flags>
0

> <s_epik_input>
Tz1jMW4oW0NIM10pYyg9TyluKFtDSDNdKWMoYzEyKW5bY0hdbjJbQ0gyXVtDQEhdKFtPSF0pQyhGKShGKUY=

> <s_epik_cmdline>
J2VwaWtfcHl0aG9uJywgJy1waCcsICc3LjAnLCAnLXRuJywgJzgnLCAnLW1hJywgJzIwMCcsICctbWV0YWxfYmluZGluZycsICctaW1hZScsICc8aW5maWxlLm1hZT4nLCAnLW9tYWUnLCAnPG91dGZpbGUubWFlPic=

> <r_epik_Ionization_Penalty>
0.000551612

> <r_epik_Ionization_Penalty_Charging>
2.619e-09

> <r_epik_Ionization_Penalty_Neutral>
0.00055161

> <r_epik_State_Penalty>
0.000345115

> <r_epik_Charging_Adjusted_Penalty>
0.000345118

> <i_epik_Tot_Q>
0

> <i_epik_Tot_abs_Q>
0

> <r_epik_Metal_State_Penalty>
-0

> <b_epik_Metal_Only>
0

> <s_lp_Force_Field>
OPLS_2005

> <r_lp_Energy>
33.5503

> <b_lp_Chiralities_Consistent>
1

> <s_lp_Variant>
AV-unprocessed.smi:2777-2

> <Gold.Version>
5.8.1

> <Gold.Id.Protein>
6NUR|6NUR_protein|mol2

> <Gold.PLP.Fitness>
50.7116

> <Gold.PLP.PLP>
-41.7623

> <Gold.PLP.part.hbond>
-3.0000

> <Gold.PLP.part.metal>
0.0000

> <Gold.PLP.part.buried>
-4.4223

> <Gold.PLP.part.nonpolar>
-34.7666

> <Gold.PLP.part.repulsive>
0.0923

> <Gold.PLP.ligand.clash>
0.0000

> <Gold.PLP.ligand.torsion>
0.2470

> <Gold.PLP.Chemscore.Hbond>
1.9760

> <Gold.PLP.Chemscore.CHOScore>
1.1674

> <Gold.PLP.Chemscore.Metal>
0.0000

> <Gold.Chemscore.Hbonds>
donor molecule, donor type, donor heavy atom, donor atom, acceptor molecule, acceptor atom, score
      L1  H    12    28       P1  8028  1.00
      P1  H  7997  8010       L1     4  0.96
      L1  C     8    24       P1  8028  0.71
      L1  C     8    24       P1  8029  0.44

> <Gold.PLP.Chemscore.Internal.Correction>
0.0129

> <Gold.Rescore>
     Score         DG    S(hbond)    S(metal)    S(lipo)     H(rot)  DE(clash)    DE(int)     intcor
     11.47     -11.83       1.95        0.00      46.78       2.20       0.08       0.28       ----

> <Gold.Chemscore.Fitness>
11.4714

> <Gold.Chemscore.DG>
-11.8257

> <Gold.Chemscore.ZeroCoef>
-5.4800

> <Gold.Chemscore.Hbond>
1.9451

> <Gold.Chemscore.Metal>
0.0000

> <Gold.Chemscore.Lipo>
46.7763

> <Gold.Chemscore.Internal_Hbond>
0.0000

> <Gold.Chemscore.DEClash>
0.0763

> <Gold.Chemscore.DEInternal>
0.2780

> <Gold.Chemscore.Rot>
2.1969

> <Gold.Chemscore.Internal.Correction>
   9.000000E+99

> <Gold.Chemscore.Hbonds>
donor molecule, donor type, donor heavy atom, donor atom, acceptor molecule, acceptor atom, score
      L1  H    12    28       P1  8028  0.74
      P1  H  7997  8010       L1     4  0.90

> <Gold.Chemscore.Hbond.Weighted>
-6.4968

> <Gold.Chemscore.Metal.Weighted>
-0.0000

> <Gold.Chemscore.Lipo.Weighted>
-5.4728

> <Gold.Chemscore.Internal_Hbond.Weighted>
0.0000

> <Gold.Chemscore.DEClash.Weighted>
0.0763

> <Gold.Chemscore.DEInternal.Weighted>
0.2780

> <Gold.Chemscore.Rot.Weighted>
5.6239

> <Gold.Chemscore.Internal.Correction.Weighted>
   9.000000E+99

> <Gold.Protein.RotatedTorsions>
[ 6907 6896 6895 6894 ] final   50.26 input  -60.11 | X-H torsion
[ 7974 7965 7964 7962 ] final  -14.88 input  175.53 | X-H torsion
[ 8008 7997 7996 7995 ] final   42.96 input   59.86 | X-H torsion
[ 10167 10162 10161 10158 ] final   35.38 input  -65.29 | X-H torsion
[ 10718 10713 10712 10709 ] final   46.00 input   66.30 | X-H torsion
[ 10763 10752 10751 10750 ] final  -55.76 input  -60.55 | X-H torsion
[ 11005 11000 10999 10996 ] final   45.14 input  -57.11 | X-H torsion

> <Gold.Protein.ActiveResidues>
 VAL166  LYS551  ARG553  GLY616  TRP617  ASP618  TYR619  PRO620  LYS621  CYS622 
 ASP623  PHE694  ASN695  SER759  ASP760  ASP761  ALA762  ILE779  LEU786  VAL792 
 PHE793  MET794  SER795  GLU796  ALA797  LYS798  CYS799  TRP800  GLU811  SER814 

> <Gold.Protein.RotatedAtoms>
  152.2999  134.7624  160.0359 H   0  0  0  0  0  0  0  0  0  0  0  0  # atno 6907 bound_to 6896
  151.8141  133.3380  159.3572 H   0  0  0  0  0  0  0  0  0  0  0  0  # atno 6908 bound_to 6896
  150.7269  134.5566  159.5865 H   0  0  0  0  0  0  0  0  0  0  0  0  # atno 6909 bound_to 6896
  146.2055  140.3413  142.8408 H   0  0  0  0  0  0  0  0  0  0  0  0  # atno 7974 bound_to 7965
  155.2947  140.3381  155.4250 H   0  0  0  0  0  0  0  0  0  0  0  0  # atno 8008 bound_to 7997
  156.2029  140.1740  156.7900 H   0  0  0  0  0  0  0  0  0  0  0  0  # atno 8009 bound_to 7997
  154.5583  140.0692  156.8762 H   0  0  0  0  0  0  0  0  0  0  0  0  # atno 8010 bound_to 7997
  140.4227  144.1436  150.6150 H   0  0  0  0  0  0  0  0  0  0  0  0  # atno 10167 bound_to 10162
  157.4435  130.8095  149.7717 H   0  0  0  0  0  0  0  0  0  0  0  0  # atno 10718 bound_to 10713
  154.1959  135.6419  153.5073 H   0  0  0  0  0  0  0  0  0  0  0  0  # atno 10763 bound_to 10752
  153.0023  135.5440  154.6366 H   0  0  0  0  0  0  0  0  0  0  0  0  # atno 10764 bound_to 10752
  154.5767  135.2921  155.0747 H   0  0  0  0  0  0  0  0  0  0  0  0  # atno 10765 bound_to 10752
  140.1487  134.4490  155.8397 H   0  0  0  0  0  0  0  0  0  0  0  0  # atno 11005 bound_to 11000
  144.8784  140.7367  143.6002 LP  0  0  0  0  0  0  0  0  0  0  0  0  # atno 17320 bound_to 7965
  145.3333  139.1753  143.4525 LP  0  0  0  0  0  0  0  0  0  0  0  0  # atno 17321 bound_to 7965
  140.4515  143.2485  151.9341 LP  0  0  0  0  0  0  0  0  0  0  0  0  # atno 17342 bound_to 10162
  139.4783  144.5557  151.8317 LP  0  0  0  0  0  0  0  0  0  0  0  0  # atno 17343 bound_to 10162
  155.9958  130.3909  150.2804 LP  0  0  0  0  0  0  0  0  0  0  0  0  # atno 17370 bound_to 10713
  157.0971  131.0185  151.3100 LP  0  0  0  0  0  0  0  0  0  0  0  0  # atno 17371 bound_to 10713
  141.2196  133.6863  156.7381 LP  0  0  0  0  0  0  0  0  0  0  0  0  # atno 17394 bound_to 11000
  140.2632  134.8450  157.3778 LP  0  0  0  0  0  0  0  0  0  0  0  0  # atno 17395 bound_to 11000

$$$$
