AV-unprocessed.smi:3140|AV-procd|sdf|11958|dock7
  -GOLD-   2272017353D 1   1.00000     0.00000
 Structure written by MMmdl.
 38 39  0  0  0  0  0  0  0  0  2 V2000
  141.7645  135.8108  153.4672 C   0  0  0  0  0  0  0  0  0  0  0  0
  142.5363  137.0267  152.9276 C   0  0  2  0  0  0  0  0  0  0  0  0
  144.0032  136.6554  152.6331 C   0  0  0  0  0  0  0  0  0  0  0  0
  144.1194  135.4483  151.8334 N   0  0  0  0  0  0  0  0  0  0  0  0
  144.5358  135.3248  150.5245 C   0  0  0  0  0  0  0  0  0  0  0  0
  144.4872  133.9978  150.2066 C   0  0  0  0  0  0  0  0  0  0  0  0
  144.0204  133.3802  151.4004 C   0  0  0  0  0  0  0  0  0  0  0  0
  143.8035  134.2508  152.3732 N   0  0  0  0  0  0  0  0  0  0  0  0
  142.4772  138.1594  153.8803 N   0  3  0  0  0  0  0  0  0  0  0  0
  141.1314  138.4956  154.3869 C   0  0  0  0  0  0  0  0  0  0  0  0
  140.1029  138.4839  153.2459 C   0  0  0  0  0  0  0  0  0  0  0  0
  138.7471  138.2788  153.7478 N   0  0  0  0  0  0  0  0  0  0  0  0
  138.3524  137.0092  154.3347 C   0  0  0  0  0  0  0  0  0  0  0  0
  136.9506  137.2575  154.9104 C   0  0  0  0  0  0  0  0  0  0  0  0
  136.4724  138.5744  154.2890 C   0  0  0  0  0  0  0  0  0  0  0  0
  137.7404  139.1583  153.6894 C   0  0  0  0  0  0  0  0  0  0  0  0
  137.7980  140.2939  153.2202 O   0  0  0  0  0  0  0  0  0  0  0  0
  141.8358  134.9672  152.7801 H   0  0  0  0  0  0  0  0  0  0  0  0
  140.7042  136.0277  153.5955 H   0  0  0  0  0  0  0  0  0  0  0  0
  142.1587  135.4863  154.4308 H   0  0  0  0  0  0  0  0  0  0  0  0
  142.0758  137.3399  151.9892 H   0  0  0  0  0  0  0  0  0  0  0  0
  144.5159  137.4723  152.1219 H   0  0  0  0  0  0  0  0  0  0  0  0
  144.5424  136.4888  153.5667 H   0  0  0  0  0  0  0  0  0  0  0  0
  144.8298  136.1810  149.9350 H   0  0  0  0  0  0  0  0  0  0  0  0
  144.7437  133.5378  149.2635 H   0  0  0  0  0  0  0  0  0  0  0  0
  143.8355  132.3328  151.5885 H   0  0  0  0  0  0  0  0  0  0  0  0
  143.0899  137.9664  154.6598 H   0  0  0  0  0  0  0  0  0  0  0  0
  140.8404  137.7730  155.1505 H   0  0  0  0  0  0  0  0  0  0  0  0
  141.1555  139.4767  154.8612 H   0  0  0  0  0  0  0  0  0  0  0  0
  140.1426  139.4232  152.6915 H   0  0  0  0  0  0  0  0  0  0  0  0
  140.3461  137.6954  152.5323 H   0  0  0  0  0  0  0  0  0  0  0  0
  138.3260  136.2449  153.5569 H   0  0  0  0  0  0  0  0  0  0  0  0
  139.0552  136.6897  155.1052 H   0  0  0  0  0  0  0  0  0  0  0  0
  136.2719  136.4319  154.6928 H   0  0  0  0  0  0  0  0  0  0  0  0
  137.0044  137.3601  155.9952 H   0  0  0  0  0  0  0  0  0  0  0  0
  135.7441  138.3998  153.4963 H   0  0  0  0  0  0  0  0  0  0  0  0
  136.0331  139.2445  155.0284 H   0  0  0  0  0  0  0  0  0  0  0  0
  142.8282  138.9742  153.3962 H   0  0  0  0  0  0  0  0  0  0  0  0
  1  2  1  0  0  0  0
  1 18  1  0  0  0  0
  1 19  1  0  0  0  0
  1 20  1  0  0  0  0
  2  3  1  0  0  0  0
  2  9  1  0  0  0  0
  2 21  1  0  0  0  0
  3  4  1  0  0  0  0
  3 22  1  0  0  0  0
  3 23  1  0  0  0  0
  4  8  1  0  0  0  0
  4  5  1  0  0  0  0
  5  6  2  0  0  0  0
  5 24  1  0  0  0  0
  6  7  1  0  0  0  0
  6 25  1  0  0  0  0
  7  8  2  0  0  0  0
  7 26  1  0  0  0  0
  9 10  1  0  0  0  0
  9 27  1  0  0  0  0
  9 38  1  0  0  0  0
 10 11  1  0  0  0  0
 10 28  1  0  0  0  0
 10 29  1  0  0  0  0
 11 12  1  0  0  0  0
 11 30  1  0  0  0  0
 11 31  1  0  0  0  0
 12 16  1  0  0  0  0
 12 13  1  0  0  0  0
 13 14  1  0  0  0  0
 13 32  1  0  0  0  0
 13 33  1  0  0  0  0
 14 15  1  0  0  0  0
 14 34  1  0  0  0  0
 14 35  1  0  0  0  0
 15 16  1  0  0  0  0
 15 36  1  0  0  0  0
 15 37  1  0  0  0  0
 16 17  2  0  0  0  0
M  CHG  1   9   1
M  END
> <s_m_source_file>
AV-unprocessed.smi

> <i_m_source_file_index>
3140

> <i_lp_mmshare_version>
43012

> <i_f3d_flags>
0

> <s_epik_input>
bjFbY0hdW2NIXVtjSF1uMVtDSDJdW0NAQEhdKFtDSDNdKVtOSF1bQ0gyXVtDSDJdTjJbQ0gyXVtDSDJdW0NIMl1DMj1P

> <s_epik_cmdline>
J2VwaWtfcHl0aG9uJywgJy1waCcsICc3LjAnLCAnLXRuJywgJzgnLCAnLW1hJywgJzIwMCcsICctbWV0YWxfYmluZGluZycsICctaW1hZScsICc8aW5maWxlLm1hZT4nLCAnLW9tYWUnLCAnPG91dGZpbGUubWFlPic=

> <r_lp_tautomer_probability>
1

> <r_epik_Ionization_Penalty>
0.00826299

> <r_epik_Ionization_Penalty_Charging>
0.00825899

> <r_epik_Ionization_Penalty_Neutral>
3.99893e-06

> <r_epik_State_Penalty>
0.00621436

> <r_epik_Charging_Adjusted_Penalty>
0.0144734

> <i_epik_Tot_Q>
1

> <i_epik_Tot_abs_Q>
1

> <r_epik_Metal_State_Penalty>
0.00621472

> <b_epik_Metal_Only>
0

> <s_lp_Force_Field>
OPLS_2005

> <r_lp_Energy>
18.6849

> <b_lp_Chiralities_Consistent>
1

> <s_lp_Variant>
AV-unprocessed.smi:3140-1

> <Gold.Version>
5.8.1

> <Gold.Id.Protein>
6NUR|6NUR_protein|mol2

> <Gold.PLP.Fitness>
40.4641

> <Gold.PLP.PLP>
-32.1905

> <Gold.PLP.part.hbond>
-1.0000

> <Gold.PLP.part.metal>
0.0000

> <Gold.PLP.part.buried>
-4.7511

> <Gold.PLP.part.nonpolar>
-26.6876

> <Gold.PLP.part.repulsive>
0.1961

> <Gold.PLP.ligand.clash>
0.0000

> <Gold.PLP.ligand.torsion>
0.4018

> <Gold.PLP.Chemscore.Hbond>
2.0000

> <Gold.PLP.Chemscore.CHOScore>
1.0000

> <Gold.PLP.Chemscore.Metal>
0.0000

> <Gold.Chemscore.Hbonds>
donor molecule, donor type, donor heavy atom, donor atom, acceptor molecule, acceptor atom, score
      L1  H     9    38       P1 10175  2.00
      L1  C     5    24       P1 10171  0.90

> <Gold.PLP.Chemscore.Internal.Correction>
0.0773

> <Gold.Rescore>
     Score         DG    S(hbond)    S(metal)    S(lipo)     H(rot)  DE(clash)    DE(int)     intcor
      9.38     -11.11       0.99        0.00      64.95       2.06       0.02       1.72       ----

> <Gold.Chemscore.Fitness>
9.3758

> <Gold.Chemscore.DG>
-11.1107

> <Gold.Chemscore.ZeroCoef>
-5.4800

> <Gold.Chemscore.Hbond>
0.9863

> <Gold.Chemscore.Metal>
0.0000

> <Gold.Chemscore.Lipo>
64.9492

> <Gold.Chemscore.Internal_Hbond>
0.0000

> <Gold.Chemscore.DEClash>
0.0176

> <Gold.Chemscore.DEInternal>
1.7174

> <Gold.Chemscore.Rot>
2.0557

> <Gold.Chemscore.Internal.Correction>
   9.000000E+99

> <Gold.Chemscore.Hbonds>
donor molecule, donor type, donor heavy atom, donor atom, acceptor molecule, acceptor atom, score
      L1  H     9    38       P1 10175  1.00

> <Gold.Chemscore.Hbond.Weighted>
-3.2944

> <Gold.Chemscore.Metal.Weighted>
-0.0000

> <Gold.Chemscore.Lipo.Weighted>
-7.5991

> <Gold.Chemscore.Internal_Hbond.Weighted>
0.0000

> <Gold.Chemscore.DEClash.Weighted>
0.0176

> <Gold.Chemscore.DEInternal.Weighted>
1.7174

> <Gold.Chemscore.Rot.Weighted>
5.2627

> <Gold.Chemscore.Internal.Correction.Weighted>
   9.000000E+99

> <Gold.Protein.RotatedTorsions>
[ 6907 6896 6895 6894 ] final  169.30 input  -60.11 | X-H torsion
[ 7974 7965 7964 7962 ] final -156.34 input  175.53 | X-H torsion
[ 8008 7997 7996 7995 ] final  -66.27 input   59.86 | X-H torsion
[ 10167 10162 10161 10158 ] final   43.06 input  -65.29 | X-H torsion
[ 10718 10713 10712 10709 ] final   55.20 input   66.30 | X-H torsion
[ 10763 10752 10751 10750 ] final  114.85 input  -60.55 | X-H torsion
[ 11005 11000 10999 10996 ] final -145.65 input  -57.11 | X-H torsion

> <Gold.Protein.ActiveResidues>
 VAL166  LYS551  ARG553  GLY616  TRP617  ASP618  TYR619  PRO620  LYS621  CYS622 
 ASP623  PHE694  ASN695  SER759  ASP760  ASP761  ALA762  ILE779  LEU786  VAL792 
 PHE793  MET794  SER795  GLU796  ALA797  LYS798  CYS799  TRP800  GLU811  SER814 

> <Gold.Protein.RotatedAtoms>
  151.8341  133.3413  159.3622 H   0  0  0  0  0  0  0  0  0  0  0  0  # atno 6907 bound_to 6896
  150.7255  134.5454  159.5777 H   0  0  0  0  0  0  0  0  0  0  0  0  # atno 6908 bound_to 6896
  152.2914  134.7718  160.0428 H   0  0  0  0  0  0  0  0  0  0  0  0  # atno 6909 bound_to 6896
  144.7598  140.4124  143.5985 H   0  0  0  0  0  0  0  0  0  0  0  0  # atno 7974 bound_to 7965
  154.4724  140.0916  156.7178 H   0  0  0  0  0  0  0  0  0  0  0  0  # atno 8008 bound_to 7997
  155.4688  140.3463  155.4304 H   0  0  0  0  0  0  0  0  0  0  0  0  # atno 8009 bound_to 7997
  156.1061  140.1435  156.9390 H   0  0  0  0  0  0  0  0  0  0  0  0  # atno 8010 bound_to 7997
  140.3481  144.2385  150.6148 H   0  0  0  0  0  0  0  0  0  0  0  0  # atno 10167 bound_to 10162
  157.5324  130.8639  149.8706 H   0  0  0  0  0  0  0  0  0  0  0  0  # atno 10718 bound_to 10713
  153.5135  135.3613  155.2598 H   0  0  0  0  0  0  0  0  0  0  0  0  # atno 10763 bound_to 10752
  154.8740  135.4028  154.3342 H   0  0  0  0  0  0  0  0  0  0  0  0  # atno 10764 bound_to 10752
  153.3999  135.7074  153.6500 H   0  0  0  0  0  0  0  0  0  0  0  0  # atno 10765 bound_to 10752
  140.7901  134.2979  157.5016 H   0  0  0  0  0  0  0  0  0  0  0  0  # atno 11005 bound_to 11000
  145.6658  139.1590  143.2782 LP  0  0  0  0  0  0  0  0  0  0  0  0  # atno 17320 bound_to 7965
  146.1648  140.6734  142.9260 LP  0  0  0  0  0  0  0  0  0  0  0  0  # atno 17321 bound_to 7965
  140.5245  143.2258  151.8337 LP  0  0  0  0  0  0  0  0  0  0  0  0  # atno 17342 bound_to 10162
  139.4830  144.4796  151.9323 LP  0  0  0  0  0  0  0  0  0  0  0  0  # atno 17343 bound_to 10162
  156.0432  130.3734  150.1382 LP  0  0  0  0  0  0  0  0  0  0  0  0  # atno 17370 bound_to 10713
  156.9566  130.9791  151.3487 LP  0  0  0  0  0  0  0  0  0  0  0  0  # atno 17371 bound_to 10713
  139.8732  134.9369  156.3673 LP  0  0  0  0  0  0  0  0  0  0  0  0  # atno 17394 bound_to 11000
  140.9398  133.7522  156.0132 LP  0  0  0  0  0  0  0  0  0  0  0  0  # atno 17395 bound_to 11000

$$$$
