AV-unprocessed.smi:246|AV-procd|sdf|1885|dock4
  -GOLD-   2262020533D 1   1.00000     0.00000
 Structure written by MMmdl.
 57 60  0  0  0  0  0  0  0  0  1 V2000
  153.5931  142.8927  162.5099 C   0  0  0  0  0  0  0  0  0  0  0  0
  153.1034  142.2617  161.1994 C   0  0  0  0  0  0  0  0  0  0  0  0
  153.3834  143.0897  160.0792 O   0  0  0  0  0  0  0  0  0  0  0  0
  152.2453  143.7475  159.5417 C   0  0  0  0  0  0  0  0  0  0  0  0
  152.5141  144.0847  158.0724 C   0  0  0  0  0  0  0  0  0  0  0  0
  151.3164  143.9077  157.3311 O   0  0  0  0  0  0  0  0  0  0  0  0
  151.3402  142.7754  156.4747 C   0  0  2  0  0  0  0  0  0  0  0  0
  149.9319  142.4224  155.9979 C   0  0  0  0  0  0  0  0  0  0  0  0
  150.0591  140.9434  155.6380 C   0  0  0  0  0  0  0  0  0  0  0  0
  151.0251  140.4124  156.5903 N   0  0  0  0  0  0  0  0  0  0  0  0
  151.5219  139.1528  156.4822 C   0  0  0  0  0  0  0  0  0  0  0  0
  152.8399  138.9461  156.7450 N   0  0  0  0  0  0  0  0  0  0  0  0
  153.3663  137.7213  156.6581 C   0  0  0  0  0  0  0  0  0  0  0  0
  152.7664  136.5777  156.3252 N   0  0  0  0  0  0  0  0  0  0  0  0
  151.4477  136.7766  156.0436 C   0  0  0  0  0  0  0  0  0  0  0  0
  150.7497  138.0179  156.0938 C   0  0  0  0  0  0  0  0  0  0  0  0
  149.4216  137.8196  155.7297 N   0  0  0  0  0  0  0  0  0  0  0  0
  149.3375  136.5397  155.4919 C   0  0  0  0  0  0  0  0  0  0  0  0
  150.5071  135.8365  155.6610 N   0  0  0  0  0  0  0  0  0  0  0  0
  150.6909  134.4081  155.4733 C   0  0  0  0  0  0  0  0  0  0  0  0
  149.7031  133.5779  156.3157 C   0  0  2  0  0  0  0  0  0  0  0  0
  149.9096  133.8593  157.6870 O   0  0  0  0  0  0  0  0  0  0  0  0
  149.8685  132.0645  156.0864 C   0  0  1  0  0  0  0  0  0  0  0  0
  149.4817  131.5885  154.6849 C   0  0  0  0  0  0  0  0  0  0  0  0
  150.3014  130.3217  154.4952 C   0  0  0  0  0  0  0  0  0  0  0  0
  151.3569  130.3910  155.6018 C   0  0  0  0  0  0  0  0  0  0  0  0
  151.2385  131.6977  156.1464 O   0  0  0  0  0  0  0  0  0  0  0  0
  151.8077  141.4923  157.1767 C   0  0  0  0  0  0  0  0  0  0  0  0
  151.9633  142.9664  155.5989 H   0  0  0  0  0  0  0  0  0  0  0  0
  153.2903  142.2878  163.3645 H   0  0  0  0  0  0  0  0  0  0  0  0
  153.1729  143.8896  162.6433 H   0  0  0  0  0  0  0  0  0  0  0  0
  154.6788  142.9785  162.5400 H   0  0  0  0  0  0  0  0  0  0  0  0
  153.5213  141.2632  161.0635 H   0  0  0  0  0  0  0  0  0  0  0  0
  152.0216  142.1389  161.2531 H   0  0  0  0  0  0  0  0  0  0  0  0
  151.3452  143.1389  159.6284 H   0  0  0  0  0  0  0  0  0  0  0  0
  152.0717  144.6701  160.0971 H   0  0  0  0  0  0  0  0  0  0  0  0
  152.8336  145.1247  157.9927 H   0  0  0  0  0  0  0  0  0  0  0  0
  153.3216  143.4633  157.6831 H   0  0  0  0  0  0  0  0  0  0  0  0
  149.2202  142.5412  156.8163 H   0  0  0  0  0  0  0  0  0  0  0  0
  149.5947  143.0379  155.1636 H   0  0  0  0  0  0  0  0  0  0  0  0
  149.1006  140.4278  155.7057 H   0  0  0  0  0  0  0  0  0  0  0  0
  150.4422  140.8311  154.6227 H   0  0  0  0  0  0  0  0  0  0  0  0
  154.4183  137.6471  156.8910 H   0  0  0  0  0  0  0  0  0  0  0  0
  148.4135  136.0692  155.1881 H   0  0  0  0  0  0  0  0  0  0  0  0
  150.5600  134.1891  154.4129 H   0  0  0  0  0  0  0  0  0  0  0  0
  151.7213  134.1475  155.7190 H   0  0  0  0  0  0  0  0  0  0  0  0
  148.6826  133.8695  156.0631 H   0  0  0  0  0  0  0  0  0  0  0  0
  149.1725  134.3581  158.0050 H   0  0  0  0  0  0  0  0  0  0  0  0
  149.3161  131.4982  156.8393 H   0  0  0  0  0  0  0  0  0  0  0  0
  148.4098  131.4185  154.5803 H   0  0  0  0  0  0  0  0  0  0  0  0
  149.7782  132.3284  153.9400 H   0  0  0  0  0  0  0  0  0  0  0  0
  149.6872  129.4274  154.6057 H   0  0  0  0  0  0  0  0  0  0  0  0
  150.7554  130.2974  153.5041 H   0  0  0  0  0  0  0  0  0  0  0  0
  151.1455  129.6570  156.3806 H   0  0  0  0  0  0  0  0  0  0  0  0
  152.3656  130.2117  155.2296 H   0  0  0  0  0  0  0  0  0  0  0  0
  152.8809  141.3491  157.0472 H   0  0  0  0  0  0  0  0  0  0  0  0
  151.5918  141.5339  158.2448 H   0  0  0  0  0  0  0  0  0  0  0  0
  1  2  1  0  0  0  0
  1 30  1  0  0  0  0
  1 31  1  0  0  0  0
  1 32  1  0  0  0  0
  2  3  1  0  0  0  0
  2 33  1  0  0  0  0
  2 34  1  0  0  0  0
  3  4  1  0  0  0  0
  4  5  1  0  0  0  0
  4 35  1  0  0  0  0
  4 36  1  0  0  0  0
  5  6  1  0  0  0  0
  5 37  1  0  0  0  0
  5 38  1  0  0  0  0
  6  7  1  0  0  0  0
  7 29  1  0  0  0  0
  7 28  1  0  0  0  0
  7  8  1  0  0  0  0
  8  9  1  0  0  0  0
  8 39  1  0  0  0  0
  8 40  1  0  0  0  0
  9 10  1  0  0  0  0
  9 41  1  0  0  0  0
  9 42  1  0  0  0  0
 10 11  1  0  0  0  0
 10 28  1  0  0  0  0
 11 16  1  0  0  0  0
 11 12  2  0  0  0  0
 12 13  1  0  0  0  0
 13 14  2  0  0  0  0
 13 43  1  0  0  0  0
 14 15  1  0  0  0  0
 15 19  1  0  0  0  0
 15 16  2  0  0  0  0
 16 17  1  0  0  0  0
 17 18  2  0  0  0  0
 18 19  1  0  0  0  0
 18 44  1  0  0  0  0
 19 20  1  0  0  0  0
 20 21  1  0  0  0  0
 20 45  1  0  0  0  0
 20 46  1  0  0  0  0
 21 22  1  0  0  0  0
 21 23  1  0  0  0  0
 21 47  1  0  0  0  0
 22 48  1  0  0  0  0
 23 27  1  0  0  0  0
 23 24  1  0  0  0  0
 23 49  1  0  0  0  0
 24 25  1  0  0  0  0
 24 50  1  0  0  0  0
 24 51  1  0  0  0  0
 25 26  1  0  0  0  0
 25 52  1  0  0  0  0
 25 53  1  0  0  0  0
 26 27  1  0  0  0  0
 26 54  1  0  0  0  0
 26 55  1  0  0  0  0
 28 56  1  0  0  0  0
 28 57  1  0  0  0  0
M  END
> <s_m_source_file>
AV-unprocessed.smi

> <i_m_source_file_index>
246

> <i_lp_mmshare_version>
43012

> <i_f3d_flags>
0

> <s_epik_input>
W0NIM11bQ0gyXU9bQ0gyXVtDSDJdT1tDQEhdMVtDSDJdW0NIMl1OKFtDSDJdMSljKG5bY0hdbjIpYyhjMjMpbltjSF1uM1tDSDJdW0NASF0oW09IXSlbQ0BASF00W0NIMl1bQ0gyXVtDSDJdTzQ=

> <s_epik_cmdline>
J2VwaWtfcHl0aG9uJywgJy1waCcsICc3LjAnLCAnLXRuJywgJzgnLCAnLW1hJywgJzIwMCcsICctbWV0YWxfYmluZGluZycsICctaW1hZScsICc8aW5maWxlLm1hZT4nLCAnLW9tYWUnLCAnPG91dGZpbGUubWFlPic=

> <r_lp_tautomer_probability>
1

> <r_epik_Ionization_Penalty>
0.0024631

> <r_epik_Ionization_Penalty_Charging>
0

> <r_epik_Ionization_Penalty_Neutral>
0.0024631

> <r_epik_State_Penalty>
0.00162428

> <r_epik_Charging_Adjusted_Penalty>
0.00162428

> <i_epik_Tot_Q>
0

> <i_epik_Tot_abs_Q>
0

> <r_epik_Metal_State_Penalty>
-0

> <b_epik_Metal_Only>
0

> <s_lp_Force_Field>
OPLS_2005

> <r_lp_Energy>
48.9745

> <b_lp_Chiralities_Consistent>
1

> <s_lp_Variant>
AV-unprocessed.smi:246-6

> <Gold.Version>
5.8.1

> <Gold.Id.Protein>
6NUR|6NUR_protein|mol2

> <Gold.PLP.Fitness>
48.3216

> <Gold.PLP.PLP>
-42.0219

> <Gold.PLP.part.hbond>
-3.0000

> <Gold.PLP.part.metal>
0.0000

> <Gold.PLP.part.buried>
-3.7987

> <Gold.PLP.part.nonpolar>
-35.6214

> <Gold.PLP.part.repulsive>
0.5396

> <Gold.PLP.ligand.clash>
0.0000

> <Gold.PLP.ligand.torsion>
1.6136

> <Gold.PLP.Chemscore.Hbond>
3.0000

> <Gold.PLP.Chemscore.CHOScore>
0.0000

> <Gold.PLP.Chemscore.Metal>
0.0000

> <Gold.Chemscore.Hbonds>
donor molecule, donor type, donor heavy atom, donor atom, acceptor molecule, acceptor atom, score
      P1  H  6896  6909       L1    22  0.80
      P1  H  7997  8008       L1    12  1.00
      P1  H 10752 10763       L1    14  0.93

> <Gold.PLP.Chemscore.Internal.Correction>
0.5269

> <Gold.Rescore>
     Score         DG    S(hbond)    S(metal)    S(lipo)     H(rot)  DE(clash)    DE(int)     intcor
     14.29     -17.83       2.28        0.00     108.31       3.10       1.62       1.92       ----

> <Gold.Chemscore.Fitness>
14.2867

> <Gold.Chemscore.DG>
-17.8332

> <Gold.Chemscore.ZeroCoef>
-5.4800

> <Gold.Chemscore.Hbond>
2.2826

> <Gold.Chemscore.Metal>
0.0000

> <Gold.Chemscore.Lipo>
108.3075

> <Gold.Chemscore.Internal_Hbond>
0.0000

> <Gold.Chemscore.DEClash>
1.6234

> <Gold.Chemscore.DEInternal>
1.9230

> <Gold.Chemscore.Rot>
3.1026

> <Gold.Chemscore.Internal.Correction>
   9.000000E+99

> <Gold.Chemscore.Hbonds>
donor molecule, donor type, donor heavy atom, donor atom, acceptor molecule, acceptor atom, score
      P1  H  6896  6909       L1    22  0.12
      P1  H  7997  8008       L1    12  0.39
      P1  H 10752 10763       L1    14  0.76

> <Gold.Chemscore.Hbond.Weighted>
-7.6238

> <Gold.Chemscore.Metal.Weighted>
-0.0000

> <Gold.Chemscore.Lipo.Weighted>
-12.6720

> <Gold.Chemscore.Internal_Hbond.Weighted>
0.0000

> <Gold.Chemscore.DEClash.Weighted>
1.6234

> <Gold.Chemscore.DEInternal.Weighted>
1.9230

> <Gold.Chemscore.Rot.Weighted>
7.9426

> <Gold.Chemscore.Internal.Correction.Weighted>
   9.000000E+99

> <Gold.Protein.RotatedTorsions>
[ 6907 6896 6895 6894 ] final    1.17 input  -60.11 | X-H torsion
[ 7974 7965 7964 7962 ] final -167.84 input  175.53 | X-H torsion
[ 8008 7997 7996 7995 ] final  -48.95 input   59.86 | X-H torsion
[ 10167 10162 10161 10158 ] final  -37.88 input  -65.29 | X-H torsion
[ 10718 10713 10712 10709 ] final  135.33 input   66.30 | X-H torsion
[ 10763 10752 10751 10750 ] final  115.17 input  -60.55 | X-H torsion
[ 11005 11000 10999 10996 ] final -108.40 input  -57.11 | X-H torsion

> <Gold.Protein.ActiveResidues>
 VAL166  LYS551  ARG553  GLY616  TRP617  ASP618  TYR619  PRO620  LYS621  CYS622 
 ASP623  PHE694  ASN695  SER759  ASP760  ASP761  ALA762  ILE779  LEU786  VAL792 
 PHE793  MET794  SER795  GLU796  ALA797  LYS798  CYS799  TRP800  GLU811  SER814 

> <Gold.Protein.RotatedAtoms>
  151.5883  135.1055  160.0032 H   0  0  0  0  0  0  0  0  0  0  0  0  # atno 6907 bound_to 6896
  152.4319  133.7289  159.6587 H   0  0  0  0  0  0  0  0  0  0  0  0  # atno 6908 bound_to 6896
  150.8213  133.8178  159.3160 H   0  0  0  0  0  0  0  0  0  0  0  0  # atno 6909 bound_to 6896
  144.7215  140.2458  143.6285 H   0  0  0  0  0  0  0  0  0  0  0  0  # atno 7974 bound_to 7965
  154.4036  140.1309  156.4422 H   0  0  0  0  0  0  0  0  0  0  0  0  # atno 8008 bound_to 7997
  155.7448  140.3489  155.5101 H   0  0  0  0  0  0  0  0  0  0  0  0  # atno 8009 bound_to 7997
  155.9005  140.1018  157.1343 H   0  0  0  0  0  0  0  0  0  0  0  0  # atno 8010 bound_to 7997
  140.7107  143.3313  151.2563 H   0  0  0  0  0  0  0  0  0  0  0  0  # atno 10167 bound_to 10162
  157.4582  131.1071  150.9952 H   0  0  0  0  0  0  0  0  0  0  0  0  # atno 10718 bound_to 10713
  153.5182  135.3603  155.2619 H   0  0  0  0  0  0  0  0  0  0  0  0  # atno 10763 bound_to 10752
  154.8737  135.4039  154.3290 H   0  0  0  0  0  0  0  0  0  0  0  0  # atno 10764 bound_to 10752
  153.3955  135.7073  153.6530 H   0  0  0  0  0  0  0  0  0  0  0  0  # atno 10765 bound_to 10752
  141.0904  133.9065  157.2089 H   0  0  0  0  0  0  0  0  0  0  0  0  # atno 11005 bound_to 11000
  145.8275  139.2071  143.1902 LP  0  0  0  0  0  0  0  0  0  0  0  0  # atno 17320 bound_to 7965
  146.0460  140.8118  142.9805 LP  0  0  0  0  0  0  0  0  0  0  0  0  # atno 17321 bound_to 7965
  139.6795  143.9878  152.2800 LP  0  0  0  0  0  0  0  0  0  0  0  0  # atno 17342 bound_to 10162
  139.9504  144.6624  150.8178 LP  0  0  0  0  0  0  0  0  0  0  0  0  # atno 17343 bound_to 10162
  157.0759  130.5883  149.5411 LP  0  0  0  0  0  0  0  0  0  0  0  0  # atno 17370 bound_to 10713
  156.0016  130.5097  150.7685 LP  0  0  0  0  0  0  0  0  0  0  0  0  # atno 17371 bound_to 10713
  139.9728  135.0123  156.9556 LP  0  0  0  0  0  0  0  0  0  0  0  0  # atno 17394 bound_to 11000
  140.5266  134.0855  155.7305 LP  0  0  0  0  0  0  0  0  0  0  0  0  # atno 17395 bound_to 11000

$$$$
