AV-unprocessed.smi:2812|AV-procd|sdf|10833|dock3
  -GOLD-   2272015273D 1   1.00000     0.00000
 Structure written by MMmdl.
 55 56  0  0  0  0  0  0  0  0  2 V2000
  150.2398  137.7451  154.7217 C   0  0  0  0  0  0  0  0  0  0  0  0
  149.2552  138.9012  154.8015 C   0  0  0  0  0  0  0  0  0  0  0  0
  149.6590  140.1269  155.4589 C   0  0  0  0  0  0  0  0  0  0  0  0
  148.7928  141.1452  155.5449 C   0  0  0  0  0  0  0  0  0  0  0  0
  147.5031  141.0632  155.0006 N   0  0  0  0  0  0  0  0  0  0  0  0
  146.6335  142.2348  155.1364 C   0  0  0  0  0  0  0  0  0  0  0  0
  147.0596  139.9553  154.3396 C   0  0  0  0  0  0  0  0  0  0  0  0
  145.9465  139.9407  153.8090 O   0  0  0  0  0  0  0  0  0  0  0  0
  147.9988  138.8080  154.2914 C   0  0  0  0  0  0  0  0  0  0  0  0
  147.6186  137.6252  153.6377 N   0  0  0  0  0  0  0  0  0  0  0  0
  146.4718  136.9485  153.8244 C   0  0  0  0  0  0  0  0  0  0  0  0
  145.5724  137.2841  154.5965 O   0  0  0  0  0  0  0  0  0  0  0  0
  146.4335  135.8323  153.0834 N   0  0  0  0  0  0  0  0  0  0  0  0
  145.3294  134.8784  153.0771 C   0  0  0  0  0  0  0  0  0  0  0  0
  144.1660  135.3150  152.1442 C   0  0  2  0  0  0  0  0  0  0  0  0
  143.4041  136.5635  152.6494 C   0  0  0  0  0  0  0  0  0  0  0  0
  142.5162  136.2490  153.8598 C   0  0  0  0  0  0  0  0  0  0  0  0
  141.5597  135.1034  153.5137 C   0  0  0  0  0  0  0  0  0  0  0  0
  142.3289  133.8730  153.0068 C   0  0  0  0  0  0  0  0  0  0  0  0
  143.1992  134.2104  151.8477 N   0  3  2  0  0  0  0  0  0  0  0  0
  143.7740  132.9892  151.2151 C   0  0  0  0  0  0  0  0  0  0  0  0
  144.5284  133.2405  149.8893 C   0  0  0  0  0  0  0  0  0  0  0  0
  143.6655  132.9128  148.6592 C   0  0  0  0  0  0  0  0  0  0  0  0
  145.8343  132.4330  149.8565 C   0  0  0  0  0  0  0  0  0  0  0  0
  151.1846  137.9974  155.2038 H   0  0  0  0  0  0  0  0  0  0  0  0
  150.4512  137.4923  153.6823 H   0  0  0  0  0  0  0  0  0  0  0  0
  149.8353  136.8625  155.2186 H   0  0  0  0  0  0  0  0  0  0  0  0
  150.6470  140.2229  155.8846 H   0  0  0  0  0  0  0  0  0  0  0  0
  149.0361  142.0817  156.0249 H   0  0  0  0  0  0  0  0  0  0  0  0
  145.6984  141.9631  155.6289 H   0  0  0  0  0  0  0  0  0  0  0  0
  146.3934  142.6491  154.1561 H   0  0  0  0  0  0  0  0  0  0  0  0
  147.0884  143.0313  155.7262 H   0  0  0  0  0  0  0  0  0  0  0  0
  148.3306  137.1882  153.0710 H   0  0  0  0  0  0  0  0  0  0  0  0
  147.2176  135.6311  152.4799 H   0  0  0  0  0  0  0  0  0  0  0  0
  145.7273  133.9070  152.7829 H   0  0  0  0  0  0  0  0  0  0  0  0
  144.9846  134.7670  154.1044 H   0  0  0  0  0  0  0  0  0  0  0  0
  144.6028  135.6177  151.1940 H   0  0  0  0  0  0  0  0  0  0  0  0
  144.0918  137.3742  152.8905 H   0  0  0  0  0  0  0  0  0  0  0  0
  142.7754  136.9438  151.8430 H   0  0  0  0  0  0  0  0  0  0  0  0
  143.1303  135.9785  154.7193 H   0  0  0  0  0  0  0  0  0  0  0  0
  141.9501  137.1348  154.1496 H   0  0  0  0  0  0  0  0  0  0  0  0
  140.9647  134.8374  154.3877 H   0  0  0  0  0  0  0  0  0  0  0  0
  140.8549  135.4342  152.7496 H   0  0  0  0  0  0  0  0  0  0  0  0
  142.9271  133.4416  153.8102 H   0  0  0  0  0  0  0  0  0  0  0  0
  141.6097  133.1077  152.7125 H   0  0  0  0  0  0  0  0  0  0  0  0
  144.4224  132.4788  151.9277 H   0  0  0  0  0  0  0  0  0  0  0  0
  142.9576  132.2941  151.0139 H   0  0  0  0  0  0  0  0  0  0  0  0
  144.8208  134.2888  149.8333 H   0  0  0  0  0  0  0  0  0  0  0  0
  143.3492  131.8693  148.6634 H   0  0  0  0  0  0  0  0  0  0  0  0
  144.2191  133.0869  147.7361 H   0  0  0  0  0  0  0  0  0  0  0  0
  142.7701  133.5332  148.6198 H   0  0  0  0  0  0  0  0  0  0  0  0
  145.6407  131.3605  149.8964 H   0  0  0  0  0  0  0  0  0  0  0  0
  146.4758  132.6874  150.7007 H   0  0  0  0  0  0  0  0  0  0  0  0
  146.3984  132.6349  148.9453 H   0  0  0  0  0  0  0  0  0  0  0  0
  142.5734  134.5925  151.1531 H   0  0  0  0  0  0  0  0  0  0  0  0
  1  2  1  0  0  0  0
  1 25  1  0  0  0  0
  1 26  1  0  0  0  0
  1 27  1  0  0  0  0
  2  9  2  0  0  0  0
  2  3  1  0  0  0  0
  3  4  2  0  0  0  0
  3 28  1  0  0  0  0
  4  5  1  0  0  0  0
  4 29  1  0  0  0  0
  5  6  1  0  0  0  0
  5  7  1  0  0  0  0
  6 30  1  0  0  0  0
  6 31  1  0  0  0  0
  6 32  1  0  0  0  0
  7  8  2  0  0  0  0
  7  9  1  0  0  0  0
  9 10  1  0  0  0  0
 10 11  1  0  0  0  0
 10 33  1  0  0  0  0
 11 12  2  0  0  0  0
 11 13  1  0  0  0  0
 13 14  1  0  0  0  0
 13 34  1  0  0  0  0
 14 15  1  0  0  0  0
 14 35  1  0  0  0  0
 14 36  1  0  0  0  0
 15 20  1  0  0  0  0
 15 16  1  0  0  0  0
 15 37  1  0  0  0  0
 16 17  1  0  0  0  0
 16 38  1  0  0  0  0
 16 39  1  0  0  0  0
 17 18  1  0  0  0  0
 17 40  1  0  0  0  0
 17 41  1  0  0  0  0
 18 19  1  0  0  0  0
 18 42  1  0  0  0  0
 18 43  1  0  0  0  0
 19 20  1  0  0  0  0
 19 44  1  0  0  0  0
 19 45  1  0  0  0  0
 20 21  1  0  0  0  0
 20 55  1  0  0  0  0
 21 22  1  0  0  0  0
 21 46  1  0  0  0  0
 21 47  1  0  0  0  0
 22 23  1  0  0  0  0
 22 24  1  0  0  0  0
 22 48  1  0  0  0  0
 23 49  1  0  0  0  0
 23 50  1  0  0  0  0
 23 51  1  0  0  0  0
 24 52  1  0  0  0  0
 24 53  1  0  0  0  0
 24 54  1  0  0  0  0
M  CHG  1  20   1
M  END
> <s_m_source_file>
AV-unprocessed.smi

> <i_m_source_file_index>
2812

> <i_lp_mmshare_version>
43012

> <i_f3d_flags>
0

> <s_epik_input>
W0NIM11jMVtjSF1bY0hdbihbQ0gzXSljKD1PKWMxW05IXUMoPU8pW05IXVtDSDJdW0NAQEhdMltDSDJdW0NIMl1bQ0gyXVtDSDJdTjJbQ0gyXVtDSF0oW0NIM10pW0NIM10=

> <s_epik_cmdline>
J2VwaWtfcHl0aG9uJywgJy1waCcsICc3LjAnLCAnLXRuJywgJzgnLCAnLW1hJywgJzIwMCcsICctbWV0YWxfYmluZGluZycsICctaW1hZScsICc8aW5maWxlLm1hZT4nLCAnLW9tYWUnLCAnPG91dGZpbGUubWFlPic=

> <r_lp_tautomer_probability>
1

> <r_epik_Ionization_Penalty>
0.0010902

> <r_epik_Ionization_Penalty_Charging>
0.00107091

> <r_epik_Ionization_Penalty_Neutral>
1.92854e-05

> <r_epik_State_Penalty>
0.000697184

> <r_epik_Charging_Adjusted_Penalty>
0.0017681

> <i_epik_Tot_Q>
1

> <i_epik_Tot_abs_Q>
1

> <r_epik_Metal_State_Penalty>
-0

> <b_epik_Metal_Only>
0

> <s_lp_Force_Field>
OPLS_2005

> <r_lp_Energy>
39.0226

> <b_lp_Chiralities_Consistent>
1

> <s_lp_Variant>
AV-unprocessed.smi:2812-1

> <Gold.Version>
5.8.1

> <Gold.Id.Protein>
6NUR|6NUR_protein|mol2

> <Gold.PLP.Fitness>
50.2503

> <Gold.PLP.PLP>
-41.2799

> <Gold.PLP.part.hbond>
-2.6400

> <Gold.PLP.part.metal>
0.0000

> <Gold.PLP.part.buried>
-2.6164

> <Gold.PLP.part.nonpolar>
-40.3002

> <Gold.PLP.part.repulsive>
3.8766

> <Gold.PLP.ligand.clash>
0.0000

> <Gold.PLP.ligand.torsion>
1.2557

> <Gold.PLP.Chemscore.Hbond>
2.6041

> <Gold.PLP.Chemscore.CHOScore>
1.0000

> <Gold.PLP.Chemscore.Metal>
0.0000

> <Gold.Chemscore.Hbonds>
donor molecule, donor type, donor heavy atom, donor atom, acceptor molecule, acceptor atom, score
      L1  H    10    33       P1  7948  1.00
      L1  H    13    34       P1  7948  0.94
      L1  H    20    55       P1 10186  0.55
      L1  C     4    29       P1  8028  0.66

> <Gold.PLP.Chemscore.Internal.Correction>
0.6694

> <Gold.Rescore>
     Score         DG    S(hbond)    S(metal)    S(lipo)     H(rot)  DE(clash)    DE(int)     intcor
     16.55     -20.21       1.94        0.00     103.68       1.52       2.28       1.38       ----

> <Gold.Chemscore.Fitness>
16.5525

> <Gold.Chemscore.DG>
-20.2130

> <Gold.Chemscore.ZeroCoef>
-5.4800

> <Gold.Chemscore.Hbond>
1.9408

> <Gold.Chemscore.Metal>
0.0000

> <Gold.Chemscore.Lipo>
103.6826

> <Gold.Chemscore.Internal_Hbond>
0.0000

> <Gold.Chemscore.DEClash>
2.2765

> <Gold.Chemscore.DEInternal>
1.3840

> <Gold.Chemscore.Rot>
1.5157

> <Gold.Chemscore.Internal.Correction>
   9.000000E+99

> <Gold.Chemscore.Hbonds>
donor molecule, donor type, donor heavy atom, donor atom, acceptor molecule, acceptor atom, score
      L1  H    10    33       P1  7948  0.99
      L1  H    13    34       P1  7948  0.91
      L1  H    20    55       P1 10186  0.02

> <Gold.Chemscore.Hbond.Weighted>
-6.4824

> <Gold.Chemscore.Metal.Weighted>
-0.0000

> <Gold.Chemscore.Lipo.Weighted>
-12.1309

> <Gold.Chemscore.Internal_Hbond.Weighted>
0.0000

> <Gold.Chemscore.DEClash.Weighted>
2.2765

> <Gold.Chemscore.DEInternal.Weighted>
1.3840

> <Gold.Chemscore.Rot.Weighted>
3.8803

> <Gold.Chemscore.Internal.Correction.Weighted>
   9.000000E+99

> <Gold.Protein.RotatedTorsions>
[ 6907 6896 6895 6894 ] final -106.66 input  -60.11 | X-H torsion
[ 7974 7965 7964 7962 ] final   51.83 input  175.53 | X-H torsion
[ 8008 7997 7996 7995 ] final  113.01 input   59.86 | X-H torsion
[ 10167 10162 10161 10158 ] final  -65.19 input  -65.29 | X-H torsion
[ 10718 10713 10712 10709 ] final -138.70 input   66.30 | X-H torsion
[ 10763 10752 10751 10750 ] final   70.56 input  -60.55 | X-H torsion
[ 11005 11000 10999 10996 ] final   -2.14 input  -57.11 | X-H torsion

> <Gold.Protein.ActiveResidues>
 VAL166  LYS551  ARG553  GLY616  TRP617  ASP618  TYR619  PRO620  LYS621  CYS622 
 ASP623  PHE694  ASN695  SER759  ASP760  ASP761  ALA762  ILE779  LEU786  VAL792 
 PHE793  MET794  SER795  GLU796  ALA797  LYS798  CYS799  TRP800  GLU811  SER814 

> <Gold.Protein.RotatedAtoms>
  150.7401  133.9942  159.3616 H   0  0  0  0  0  0  0  0  0  0  0  0  # atno 6907 bound_to 6896
  151.7892  135.0738  160.0394 H   0  0  0  0  0  0  0  0  0  0  0  0  # atno 6908 bound_to 6896
  152.3220  133.5827  159.5787 H   0  0  0  0  0  0  0  0  0  0  0  0  # atno 6909 bound_to 6896
  145.9874  139.4303  143.0095 H   0  0  0  0  0  0  0  0  0  0  0  0  # atno 7974 bound_to 7965
  156.2230  140.2988  155.9999 H   0  0  0  0  0  0  0  0  0  0  0  0  # atno 8008 bound_to 7997
  155.2430  140.0423  157.2994 H   0  0  0  0  0  0  0  0  0  0  0  0  # atno 8009 bound_to 7997
  154.5871  140.2391  155.7980 H   0  0  0  0  0  0  0  0  0  0  0  0  # atno 8010 bound_to 7997
  140.5748  143.2321  151.6465 H   0  0  0  0  0  0  0  0  0  0  0  0  # atno 10167 bound_to 10162
  156.3023  130.7435  151.1490 H   0  0  0  0  0  0  0  0  0  0  0  0  # atno 10718 bound_to 10713
  153.0348  135.5169  154.7459 H   0  0  0  0  0  0  0  0  0  0  0  0  # atno 10763 bound_to 10752
  154.6445  135.2916  155.0066 H   0  0  0  0  0  0  0  0  0  0  0  0  # atno 10764 bound_to 10752
  154.0972  135.6641  153.4914 H   0  0  0  0  0  0  0  0  0  0  0  0  # atno 10765 bound_to 10752
  140.6551  133.9370  155.8403 H   0  0  0  0  0  0  0  0  0  0  0  0  # atno 11005 bound_to 11000
  145.7681  140.9908  143.1164 LP  0  0  0  0  0  0  0  0  0  0  0  0  # atno 17320 bound_to 7965
  144.6878  139.9413  143.7475 LP  0  0  0  0  0  0  0  0  0  0  0  0  # atno 17321 bound_to 7965
  139.5136  144.3436  152.0717 LP  0  0  0  0  0  0  0  0  0  0  0  0  # atno 17342 bound_to 10162
  140.2578  144.4100  150.6197 LP  0  0  0  0  0  0  0  0  0  0  0  0  # atno 17343 bound_to 10162
  157.7371  131.0555  150.5375 LP  0  0  0  0  0  0  0  0  0  0  0  0  # atno 17370 bound_to 10713
  156.5504  130.4230  149.6110 LP  0  0  0  0  0  0  0  0  0  0  0  0  # atno 17371 bound_to 10713
  141.0507  134.0488  157.3787 LP  0  0  0  0  0  0  0  0  0  0  0  0  # atno 17394 bound_to 11000
  139.9032  135.0171  156.7366 LP  0  0  0  0  0  0  0  0  0  0  0  0  # atno 17395 bound_to 11000

$$$$
