AV-unprocessed.smi:107|AV-procd|sdf|1021|dock2
  -GOLD-   2262018 23D 1   1.00000     0.00000
 Structure written by MMmdl.
 30 31  0  0  0  0  0  0  0  0  2 V2000
  150.6930  142.8540  158.9263 C   0  0  0  0  0  0  0  0  0  0  0  0
  150.9566  141.9276  157.7518 C   0  0  0  0  0  0  0  0  0  0  0  0
  150.1523  141.8931  156.6659 C   0  0  0  0  0  0  0  0  0  0  0  0
  150.3975  141.0483  155.5952 N   0  0  0  0  0  0  0  0  0  0  0  0
  149.4878  141.0077  154.3809 C   0  0  2  0  0  0  0  0  0  0  0  0
  148.2093  141.8318  154.6252 C   0  0  0  0  0  0  0  0  0  0  0  0
  147.0931  140.8413  154.3403 C   0  0  1  0  0  0  0  0  0  0  0  0
  146.6567  140.9507  152.9974 O   0  0  0  0  0  0  0  0  0  0  0  0
  147.7609  139.4905  154.6187 C   0  0  1  0  0  0  0  0  0  0  0  0
  147.0998  138.2716  153.9523 C   0  0  0  0  0  0  0  0  0  0  0  0
  147.2491  138.3448  152.5504 O   0  0  0  0  0  0  0  0  0  0  0  0
  149.0822  139.6930  154.1294 O   0  0  0  0  0  0  0  0  0  0  0  0
  151.5125  140.1701  155.6406 C   0  0  0  0  0  0  0  0  0  0  0  0
  151.6929  139.4156  154.6842 O   0  0  0  0  0  0  0  0  0  0  0  0
  152.3306  140.1999  156.7308 N   0  5  0  0  0  0  0  0  0  0  0  0
  152.1207  141.0346  157.7887 C   0  0  0  0  0  0  0  0  0  0  0  0
  152.8725  141.0574  158.7630 O   0  0  0  0  0  0  0  0  0  0  0  0
  149.7834  143.4362  158.7765 H   0  0  0  0  0  0  0  0  0  0  0  0
  151.5224  143.5498  159.0551 H   0  0  0  0  0  0  0  0  0  0  0  0
  150.5784  142.2802  159.8465 H   0  0  0  0  0  0  0  0  0  0  0  0
  149.2960  142.5491  156.6497 H   0  0  0  0  0  0  0  0  0  0  0  0
  150.0967  141.3645  153.5486 H   0  0  0  0  0  0  0  0  0  0  0  0
  148.1680  142.1532  155.6674 H   0  0  0  0  0  0  0  0  0  0  0  0
  148.1865  142.7176  153.9890 H   0  0  0  0  0  0  0  0  0  0  0  0
  146.2340  141.0050  154.9917 H   0  0  0  0  0  0  0  0  0  0  0  0
  145.7167  140.8572  152.9774 H   0  0  0  0  0  0  0  0  0  0  0  0
  147.7969  139.3510  155.7008 H   0  0  0  0  0  0  0  0  0  0  0  0
  147.5855  137.3533  154.2834 H   0  0  0  0  0  0  0  0  0  0  0  0
  146.0445  138.1968  154.2167 H   0  0  0  0  0  0  0  0  0  0  0  0
  147.6973  137.5672  152.2549 H   0  0  0  0  0  0  0  0  0  0  0  0
  1  2  1  0  0  0  0
  1 18  1  0  0  0  0
  1 19  1  0  0  0  0
  1 20  1  0  0  0  0
  2 16  1  0  0  0  0
  2  3  2  0  0  0  0
  3  4  1  0  0  0  0
  3 21  1  0  0  0  0
  4  5  1  0  0  0  0
  4 13  1  0  0  0  0
  5 12  1  0  0  0  0
  5  6  1  0  0  0  0
  5 22  1  0  0  0  0
  6  7  1  0  0  0  0
  6 23  1  0  0  0  0
  6 24  1  0  0  0  0
  7  8  1  0  0  0  0
  7  9  1  0  0  0  0
  7 25  1  0  0  0  0
  8 26  1  0  0  0  0
  9 10  1  0  0  0  0
  9 12  1  0  0  0  0
  9 27  1  0  0  0  0
 10 11  1  0  0  0  0
 10 28  1  0  0  0  0
 10 29  1  0  0  0  0
 11 30  1  0  0  0  0
 13 14  2  0  0  0  0
 13 15  1  0  0  0  0
 15 16  1  0  0  0  0
 16 17  2  0  0  0  0
M  CHG  1  15  -1
M  END
> <s_m_source_file>
AV-unprocessed.smi

> <i_m_source_file_index>
107

> <i_lp_mmshare_version>
43012

> <i_f3d_flags>
0

> <s_epik_input>
Tz1jMVtuSF1jKD1PKW4oW2NIXWMxW0NIM10pW0NAQEhdMltDSDJdW0NAQEhdKFtPSF0pW0NASF0oTzIpW0NIMl1bT0hd

> <s_epik_cmdline>
J2VwaWtfcHl0aG9uJywgJy1waCcsICc3LjAnLCAnLXRuJywgJzgnLCAnLW1hJywgJzIwMCcsICctbWV0YWxfYmluZGluZycsICctaW1hZScsICc8aW5maWxlLm1hZT4nLCAnLW9tYWUnLCAnPG91dGZpbGUubWFlPic=

> <r_lp_tautomer_probability>
0.999537

> <r_epik_Ionization_Penalty>
3.66603

> <r_epik_Ionization_Penalty_Charging>
1.09773e-07

> <r_epik_Ionization_Penalty_Neutral>
3.66603

> <r_epik_State_Penalty>
3.66562

> <r_epik_Charging_Adjusted_Penalty>
3.66562

> <i_epik_Tot_Q>
-1

> <i_epik_Tot_abs_Q>
1

> <r_epik_Metal_State_Penalty>
0.234536

> <b_epik_Metal_Only>
1

> <s_epik_Chemistry_Notes>
This compound contains an acetal/aminal-like group ( X-CH(R)-Y where X, Y are N, S, or O) that may be acid/base labile, releasing an aldehyde.

> <s_lp_Force_Field>
OPLS_2005

> <r_lp_Energy>
39.3758

> <b_lp_Chiralities_Consistent>
1

> <s_lp_Variant>
AV-unprocessed.smi:107-9

> <Gold.Version>
5.8.1

> <Gold.Id.Protein>
6NUR|6NUR_protein|mol2

> <Gold.PLP.Fitness>
42.0802

> <Gold.PLP.PLP>
-26.4521

> <Gold.PLP.part.hbond>
-4.2171

> <Gold.PLP.part.metal>
0.0000

> <Gold.PLP.part.buried>
-0.3711

> <Gold.PLP.part.nonpolar>
-19.7436

> <Gold.PLP.part.repulsive>
0.5817

> <Gold.PLP.ligand.clash>
0.0000

> <Gold.PLP.ligand.torsion>
0.1857

> <Gold.PLP.Chemscore.Hbond>
4.3300

> <Gold.PLP.Chemscore.CHOScore>
1.0000

> <Gold.PLP.Chemscore.Metal>
0.0000

> <Gold.Chemscore.Hbonds>
donor molecule, donor type, donor heavy atom, donor atom, acceptor molecule, acceptor atom, score
      L1  H     8    26       P1 10175  0.78
      L1  H    11    30       P1  7948  1.00
      P1  H  7989  7998       L1    14  0.55
      P1  H  7997  8008       L1    15  2.00
      L1  C     3    21       P1  8028  1.00

> <Gold.PLP.Chemscore.Internal.Correction>
0.0095

> <Gold.Rescore>
     Score         DG    S(hbond)    S(metal)    S(lipo)     H(rot)  DE(clash)    DE(int)     intcor
      9.86     -11.99       2.80        0.00      34.54       2.69       0.54       1.58       ----

> <Gold.Chemscore.Fitness>
9.8636

> <Gold.Chemscore.DG>
-11.9891

> <Gold.Chemscore.ZeroCoef>
-5.4800

> <Gold.Chemscore.Hbond>
2.7987

> <Gold.Chemscore.Metal>
0.0000

> <Gold.Chemscore.Lipo>
34.5350

> <Gold.Chemscore.Internal_Hbond>
0.0000

> <Gold.Chemscore.DEClash>
0.5434

> <Gold.Chemscore.DEInternal>
1.5821

> <Gold.Chemscore.Rot>
2.6871

> <Gold.Chemscore.Internal.Correction>
   9.000000E+99

> <Gold.Chemscore.Hbonds>
donor molecule, donor type, donor heavy atom, donor atom, acceptor molecule, acceptor atom, score
      L1  H     8    26       P1 10175  0.34
      L1  H    11    30       P1  7948  1.00
      P1  H  7989  7998       L1    14  0.03
      P1  H  7997  8008       L1    15  0.53

> <Gold.Chemscore.Hbond.Weighted>
-9.3475

> <Gold.Chemscore.Metal.Weighted>
-0.0000

> <Gold.Chemscore.Lipo.Weighted>
-4.0406

> <Gold.Chemscore.Internal_Hbond.Weighted>
0.0000

> <Gold.Chemscore.DEClash.Weighted>
0.5434

> <Gold.Chemscore.DEInternal.Weighted>
1.5821

> <Gold.Chemscore.Rot.Weighted>
6.8791

> <Gold.Chemscore.Internal.Correction.Weighted>
   9.000000E+99

> <Gold.Protein.RotatedTorsions>
[ 6907 6896 6895 6894 ] final   33.48 input  -60.11 | X-H torsion
[ 7974 7965 7964 7962 ] final   96.57 input  175.53 | X-H torsion
[ 8008 7997 7996 7995 ] final  -47.75 input   59.86 | X-H torsion
[ 10167 10162 10161 10158 ] final   51.08 input  -65.29 | X-H torsion
[ 10718 10713 10712 10709 ] final -126.52 input   66.30 | X-H torsion
[ 10763 10752 10751 10750 ] final -135.42 input  -60.55 | X-H torsion
[ 11005 11000 10999 10996 ] final   38.29 input  -57.11 | X-H torsion

> <Gold.Protein.ActiveResidues>
 VAL166  LYS551  ARG553  GLY616  TRP617  ASP618  TYR619  PRO620  LYS621  CYS622 
 ASP623  PHE694  ASN695  SER759  ASP760  ASP761  ALA762  ILE779  LEU786  VAL792 
 PHE793  MET794  SER795  GLU796  ALA797  LYS798  CYS799  TRP800  GLU811  SER814 

> <Gold.Protein.RotatedAtoms>
  152.0891  134.9419  160.0571 H   0  0  0  0  0  0  0  0  0  0  0  0  # atno 6907 bound_to 6896
  152.0677  133.4087  159.4454 H   0  0  0  0  0  0  0  0  0  0  0  0  # atno 6908 bound_to 6896
  150.6836  134.3047  159.4764 H   0  0  0  0  0  0  0  0  0  0  0  0  # atno 6909 bound_to 6896
  145.4371  139.2305  143.3112 H   0  0  0  0  0  0  0  0  0  0  0  0  # atno 7974 bound_to 7965
  154.4020  140.1338  156.4227 H   0  0  0  0  0  0  0  0  0  0  0  0  # atno 8008 bound_to 7997
  155.7627  140.3485  155.5186 H   0  0  0  0  0  0  0  0  0  0  0  0  # atno 8009 bound_to 7997
  155.8843  140.0992  157.1454 H   0  0  0  0  0  0  0  0  0  0  0  0  # atno 8010 bound_to 7997
  140.2657  144.3323  150.6305 H   0  0  0  0  0  0  0  0  0  0  0  0  # atno 10167 bound_to 10162
  156.1773  130.6708  151.0258 H   0  0  0  0  0  0  0  0  0  0  0  0  # atno 10718 bound_to 10713
  154.8703  135.3704  154.4896 H   0  0  0  0  0  0  0  0  0  0  0  0  # atno 10763 bound_to 10752
  153.5543  135.7024  153.5581 H   0  0  0  0  0  0  0  0  0  0  0  0  # atno 10764 bound_to 10752
  153.3686  135.4027  155.1735 H   0  0  0  0  0  0  0  0  0  0  0  0  # atno 10765 bound_to 10752
  140.2141  134.3719  155.8035 H   0  0  0  0  0  0  0  0  0  0  0  0  # atno 11005 bound_to 11000
  146.2576  140.5115  142.8867 LP  0  0  0  0  0  0  0  0  0  0  0  0  # atno 17320 bound_to 7965
  144.8145  140.6444  143.6393 LP  0  0  0  0  0  0  0  0  0  0  0  0  # atno 17321 bound_to 7965
  140.5930  143.2167  151.7217 LP  0  0  0  0  0  0  0  0  0  0  0  0  # atno 17342 bound_to 10162
  139.5003  144.3910  152.0280 LP  0  0  0  0  0  0  0  0  0  0  0  0  # atno 17343 bound_to 10162
  157.6844  131.0829  150.7282 LP  0  0  0  0  0  0  0  0  0  0  0  0  # atno 17370 bound_to 10713
  156.7340  130.4718  149.5493 LP  0  0  0  0  0  0  0  0  0  0  0  0  # atno 17371 bound_to 10713
  141.2225  133.7159  156.8467 LP  0  0  0  0  0  0  0  0  0  0  0  0  # atno 17394 bound_to 11000
  140.1919  134.8959  157.3070 LP  0  0  0  0  0  0  0  0  0  0  0  0  # atno 17395 bound_to 11000

$$$$
