AV-unprocessed.smi:3181|AV-procd|sdf|12146|dock5
  -GOLD-   2272017583D 1   1.00000     0.00000
 Structure written by MMmdl.
 42 43  0  0  0  0  0  0  0  0  2 V2000
  148.4799  141.2938  157.4636 C   0  0  0  0  0  0  0  0  0  0  0  0
  149.9337  141.7352  157.2294 C   0  0  1  0  0  0  0  0  0  0  0  0
  150.3304  141.6960  155.7377 C   0  0  0  0  0  0  0  0  0  0  0  0
  150.6622  140.3612  155.2748 N   0  0  0  0  0  0  0  0  0  0  0  0
  151.6055  139.5087  155.6793 C   0  0  0  0  0  0  0  0  0  0  0  0
  151.6017  138.3570  155.0232 N   0  0  0  0  0  0  0  0  0  0  0  0
  150.5526  138.5791  154.1763 C   0  0  0  0  0  0  0  0  0  0  0  0
  149.9525  139.7643  154.2890 N   0  0  0  0  0  0  0  0  0  0  0  0
  150.1283  143.1002  157.7690 N   0  3  0  0  0  0  0  0  0  0  0  0
  151.5117  143.6325  157.7217 C   0  0  1  0  0  0  0  0  0  0  0  0
  151.6518  144.9893  158.4394 C   0  0  0  0  0  0  0  0  0  0  0  0
  151.5036  144.8501  159.9619 C   0  0  0  0  0  0  0  0  0  0  0  0
  152.5085  143.8396  160.5505 C   0  0  1  0  0  0  0  0  0  0  0  0
  152.3320  143.7570  162.0771 C   0  0  0  0  0  0  0  0  0  0  0  0
  152.3736  142.4624  159.8486 C   0  0  2  0  0  0  0  0  0  0  0  0
  153.3958  141.4293  160.3555 C   0  0  0  0  0  0  0  0  0  0  0  0
  152.5009  142.6132  158.3157 C   0  0  0  0  0  0  0  0  0  0  0  0
  148.3170  140.2640  157.1440 H   0  0  0  0  0  0  0  0  0  0  0  0
  147.7801  141.9267  156.9171 H   0  0  0  0  0  0  0  0  0  0  0  0
  148.2209  141.3475  158.5214 H   0  0  0  0  0  0  0  0  0  0  0  0
  150.5722  141.0413  157.7781 H   0  0  0  0  0  0  0  0  0  0  0  0
  149.5165  142.0802  155.1212 H   0  0  0  0  0  0  0  0  0  0  0  0
  151.1907  142.3387  155.5493 H   0  0  0  0  0  0  0  0  0  0  0  0
  152.3096  139.7342  156.4672 H   0  0  0  0  0  0  0  0  0  0  0  0
  150.2202  137.8452  153.4567 H   0  0  0  0  0  0  0  0  0  0  0  0
  149.5139  143.7378  157.2832 H   0  0  0  0  0  0  0  0  0  0  0  0
  151.7687  143.7642  156.6695 H   0  0  0  0  0  0  0  0  0  0  0  0
  152.6360  145.4049  158.2193 H   0  0  0  0  0  0  0  0  0  0  0  0
  150.9351  145.7145  158.0545 H   0  0  0  0  0  0  0  0  0  0  0  0
  151.6453  145.8274  160.4250 H   0  0  0  0  0  0  0  0  0  0  0  0
  150.4859  144.5433  160.2066 H   0  0  0  0  0  0  0  0  0  0  0  0
  153.5126  144.2215  160.3581 H   0  0  0  0  0  0  0  0  0  0  0  0
  151.3722  143.3139  162.3434 H   0  0  0  0  0  0  0  0  0  0  0  0
  152.3753  144.7484  162.5292 H   0  0  0  0  0  0  0  0  0  0  0  0
  153.1176  143.1644  162.5450 H   0  0  0  0  0  0  0  0  0  0  0  0
  151.3805  142.0668  160.0662 H   0  0  0  0  0  0  0  0  0  0  0  0
  154.4175  141.7925  160.2408 H   0  0  0  0  0  0  0  0  0  0  0  0
  153.3134  140.4936  159.8022 H   0  0  0  0  0  0  0  0  0  0  0  0
  153.2413  141.1876  161.4068 H   0  0  0  0  0  0  0  0  0  0  0  0
  152.3666  141.6453  157.8305 H   0  0  0  0  0  0  0  0  0  0  0  0
  153.5171  142.9292  158.0746 H   0  0  0  0  0  0  0  0  0  0  0  0
  149.8535  143.0763  158.7406 H   0  0  0  0  0  0  0  0  0  0  0  0
  1  2  1  0  0  0  0
  1 18  1  0  0  0  0
  1 19  1  0  0  0  0
  1 20  1  0  0  0  0
  2  3  1  0  0  0  0
  2  9  1  0  0  0  0
  2 21  1  0  0  0  0
  3  4  1  0  0  0  0
  3 22  1  0  0  0  0
  3 23  1  0  0  0  0
  4  8  1  0  0  0  0
  4  5  1  0  0  0  0
  5  6  2  0  0  0  0
  5 24  1  0  0  0  0
  6  7  1  0  0  0  0
  7  8  2  0  0  0  0
  7 25  1  0  0  0  0
  9 10  1  0  0  0  0
  9 26  1  0  0  0  0
  9 42  1  0  0  0  0
 10 17  1  0  0  0  0
 10 11  1  0  0  0  0
 10 27  1  0  0  0  0
 11 12  1  0  0  0  0
 11 28  1  0  0  0  0
 11 29  1  0  0  0  0
 12 13  1  0  0  0  0
 12 30  1  0  0  0  0
 12 31  1  0  0  0  0
 13 14  1  0  0  0  0
 13 15  1  0  0  0  0
 13 32  1  0  0  0  0
 14 33  1  0  0  0  0
 14 34  1  0  0  0  0
 14 35  1  0  0  0  0
 15 16  1  0  0  0  0
 15 17  1  0  0  0  0
 15 36  1  0  0  0  0
 16 37  1  0  0  0  0
 16 38  1  0  0  0  0
 16 39  1  0  0  0  0
 17 40  1  0  0  0  0
 17 41  1  0  0  0  0
M  CHG  1   9   1
M  END
> <s_m_source_file>
AV-unprocessed.smi

> <i_m_source_file_index>
3181

> <i_lp_mmshare_version>
43012

> <i_f3d_flags>
0

> <s_epik_input>
bjFbY0hdbltjSF1uMVtDSDJdW0NAQEhdKFtDSDNdKVtOSF1bQ0BASF0yW0NIMl1bQ0gyXVtDQEBIXShbQ0gzXSlbQ0BASF0oW0NIM10pW0NIMl0y

> <s_epik_cmdline>
J2VwaWtfcHl0aG9uJywgJy1waCcsICc3LjAnLCAnLXRuJywgJzgnLCAnLW1hJywgJzIwMCcsICctbWV0YWxfYmluZGluZycsICctaW1hZScsICc8aW5maWxlLm1hZT4nLCAnLW9tYWUnLCAnPG91dGZpbGUubWFlPic=

> <r_lp_tautomer_probability>
1

> <r_epik_Ionization_Penalty>
0.000617007

> <r_epik_Ionization_Penalty_Charging>
0.000616215

> <r_epik_Ionization_Penalty_Neutral>
7.92544e-07

> <r_epik_State_Penalty>
0.000388807

> <r_epik_Charging_Adjusted_Penalty>
0.00100502

> <i_epik_Tot_Q>
1

> <i_epik_Tot_abs_Q>
1

> <r_epik_Metal_State_Penalty>
-0

> <b_epik_Metal_Only>
0

> <s_lp_Force_Field>
OPLS_2005

> <r_lp_Energy>
23.4305

> <b_lp_Chiralities_Consistent>
1

> <s_lp_Variant>
AV-unprocessed.smi:3181-12

> <Gold.Version>
5.8.1

> <Gold.Id.Protein>
6NUR|6NUR_protein|mol2

> <Gold.PLP.Fitness>
51.0822

> <Gold.PLP.PLP>
-42.5006

> <Gold.PLP.part.hbond>
-1.8448

> <Gold.PLP.part.metal>
0.0000

> <Gold.PLP.part.buried>
-4.7299

> <Gold.PLP.part.nonpolar>
-36.2753

> <Gold.PLP.part.repulsive>
0.2383

> <Gold.PLP.ligand.clash>
0.0000

> <Gold.PLP.ligand.torsion>
0.2506

> <Gold.PLP.Chemscore.Hbond>
2.0000

> <Gold.PLP.Chemscore.CHOScore>
1.0166

> <Gold.PLP.Chemscore.Metal>
0.0000

> <Gold.Chemscore.Hbonds>
donor molecule, donor type, donor heavy atom, donor atom, acceptor molecule, acceptor atom, score
      L1  H     9    26       P1  8028  2.00
      L1  C     7    25       P1  7948  0.95
      L1  C     7    25       P1  7949  0.06

> <Gold.PLP.Chemscore.Internal.Correction>
0.0330

> <Gold.Rescore>
     Score         DG    S(hbond)    S(metal)    S(lipo)     H(rot)  DE(clash)    DE(int)     intcor
     15.89     -16.10       0.90        0.00     111.39       2.11       0.06       0.15       ----

> <Gold.Chemscore.Fitness>
15.8928

> <Gold.Chemscore.DG>
-16.1047

> <Gold.Chemscore.ZeroCoef>
-5.4800

> <Gold.Chemscore.Hbond>
0.8960

> <Gold.Chemscore.Metal>
0.0000

> <Gold.Chemscore.Lipo>
111.3867

> <Gold.Chemscore.Internal_Hbond>
0.0000

> <Gold.Chemscore.DEClash>
0.0594

> <Gold.Chemscore.DEInternal>
0.1525

> <Gold.Chemscore.Rot>
2.1095

> <Gold.Chemscore.Internal.Correction>
   9.000000E+99

> <Gold.Chemscore.Hbonds>
donor molecule, donor type, donor heavy atom, donor atom, acceptor molecule, acceptor atom, score
      L1  H     9    26       P1  8028  0.62

> <Gold.Chemscore.Hbond.Weighted>
-2.9928

> <Gold.Chemscore.Metal.Weighted>
-0.0000

> <Gold.Chemscore.Lipo.Weighted>
-13.0322

> <Gold.Chemscore.Internal_Hbond.Weighted>
0.0000

> <Gold.Chemscore.DEClash.Weighted>
0.0594

> <Gold.Chemscore.DEInternal.Weighted>
0.1525

> <Gold.Chemscore.Rot.Weighted>
5.4003

> <Gold.Chemscore.Internal.Correction.Weighted>
   9.000000E+99

> <Gold.Protein.RotatedTorsions>
[ 6907 6896 6895 6894 ] final   63.72 input  -60.11 | X-H torsion
[ 7974 7965 7964 7962 ] final  150.09 input  175.53 | X-H torsion
[ 8008 7997 7996 7995 ] final -136.36 input   59.86 | X-H torsion
[ 10167 10162 10161 10158 ] final  -90.31 input  -65.29 | X-H torsion
[ 10718 10713 10712 10709 ] final  114.13 input   66.30 | X-H torsion
[ 10763 10752 10751 10750 ] final -103.00 input  -60.55 | X-H torsion
[ 11005 11000 10999 10996 ] final   36.94 input  -57.11 | X-H torsion

> <Gold.Protein.ActiveResidues>
 VAL166  LYS551  ARG553  GLY616  TRP617  ASP618  TYR619  PRO620  LYS621  CYS622 
 ASP623  PHE694  ASN695  SER759  ASP760  ASP761  ALA762  ILE779  LEU786  VAL792 
 PHE793  MET794  SER795  GLU796  ALA797  LYS798  CYS799  TRP800  GLU811  SER814 

> <Gold.Protein.RotatedAtoms>
  152.4275  134.5840  159.9955 H   0  0  0  0  0  0  0  0  0  0  0  0  # atno 6907 bound_to 6896
  151.5972  133.3354  159.3048 H   0  0  0  0  0  0  0  0  0  0  0  0  # atno 6908 bound_to 6896
  150.8166  134.7388  159.6800 H   0  0  0  0  0  0  0  0  0  0  0  0  # atno 6909 bound_to 6896
  144.8390  139.6364  143.6025 H   0  0  0  0  0  0  0  0  0  0  0  0  # atno 7974 bound_to 7965
  155.3940  140.0501  157.3039 H   0  0  0  0  0  0  0  0  0  0  0  0  # atno 8008 bound_to 7997
  154.5022  140.2161  155.9284 H   0  0  0  0  0  0  0  0  0  0  0  0  # atno 8009 bound_to 7997
  156.1482  140.3141  155.8610 H   0  0  0  0  0  0  0  0  0  0  0  0  # atno 8010 bound_to 7997
  140.3561  143.2866  151.9669 H   0  0  0  0  0  0  0  0  0  0  0  0  # atno 10167 bound_to 10162
  157.6299  131.0994  150.7141 H   0  0  0  0  0  0  0  0  0  0  0  0  # atno 10718 bound_to 10713
  154.7775  135.4840  153.9775 H   0  0  0  0  0  0  0  0  0  0  0  0  # atno 10763 bound_to 10752
  153.1449  135.6780  153.8978 H   0  0  0  0  0  0  0  0  0  0  0  0  # atno 10764 bound_to 10752
  153.8641  135.3152  155.3417 H   0  0  0  0  0  0  0  0  0  0  0  0  # atno 10765 bound_to 10752
  140.2275  134.3567  155.7978 H   0  0  0  0  0  0  0  0  0  0  0  0  # atno 11005 bound_to 11000
  146.2685  139.6577  142.9313 LP  0  0  0  0  0  0  0  0  0  0  0  0  # atno 17320 bound_to 7965
  145.4735  141.0436  143.2686 LP  0  0  0  0  0  0  0  0  0  0  0  0  # atno 17321 bound_to 7965
  139.4820  144.6033  151.7566 LP  0  0  0  0  0  0  0  0  0  0  0  0  # atno 17342 bound_to 10162
  140.5172  144.0935  150.6012 LP  0  0  0  0  0  0  0  0  0  0  0  0  # atno 17343 bound_to 10162
  156.7482  130.4760  149.5462 LP  0  0  0  0  0  0  0  0  0  0  0  0  # atno 17370 bound_to 10713
  156.1495  130.6300  151.0577 LP  0  0  0  0  0  0  0  0  0  0  0  0  # atno 17371 bound_to 10713
  141.2220  133.7227  156.8677 LP  0  0  0  0  0  0  0  0  0  0  0  0  # atno 17394 bound_to 11000
  140.1785  134.9050  157.2920 LP  0  0  0  0  0  0  0  0  0  0  0  0  # atno 17395 bound_to 11000

$$$$
