AV-unprocessed.smi:1815|AV-procd|sdf|7360|dock2
  -GOLD-   22720 9 23D 1   1.00000     0.00000
 Structure written by MMmdl.
 39 40  0  0  0  0  0  0  0  0  3 V2000
  146.1652  131.9286  151.7861 C   0  0  0  0  0  0  0  0  0  0  0  0
  146.4497  133.4102  152.0572 C   0  0  2  0  0  0  0  0  0  0  0  0
  147.1695  133.6231  153.4007 C   0  0  0  0  0  0  0  0  0  0  0  0
  147.3523  135.0686  153.6659 N   0  3  2  0  0  0  0  0  0  0  0  0
  148.1398  135.3255  154.8967 C   0  0  0  0  0  0  0  0  0  0  0  0
  147.4607  134.7539  156.1505 C   0  0  0  0  0  0  0  0  0  0  0  0
  147.5533  135.6999  157.2531 N   0  0  0  0  0  0  0  0  0  0  0  0
  148.2081  135.4820  158.4007 C   0  0  0  0  0  0  0  0  0  0  0  0
  148.7990  134.4139  158.5765 O   0  0  0  0  0  0  0  0  0  0  0  0
  148.1363  136.5143  159.2705 N   0  5  0  0  0  0  0  0  0  0  0  0
  147.7461  136.2997  160.5376 C   0  0  0  0  0  0  0  0  0  0  0  0
  147.4782  137.2904  161.3959 N   0  0  0  0  0  0  0  0  0  0  0  0
  147.0978  136.8408  162.6614 C   0  0  0  0  0  0  0  0  0  0  0  0
  147.0844  135.4757  162.7719 C   0  0  0  0  0  0  0  0  0  0  0  0
  147.5500  134.7097  161.2801 S   0  0  0  0  0  0  0  0  0  0  0  0
  146.0421  135.7644  153.6433 C   0  0  0  0  0  0  0  0  0  0  0  0
  145.2975  135.5042  152.3190 C   0  0  1  0  0  0  0  0  0  0  0  0
  145.8873  136.2702  151.1212 C   0  0  0  0  0  0  0  0  0  0  0  0
  145.2032  134.1011  152.0718 O   0  0  0  0  0  0  0  0  0  0  0  0
  147.0895  131.3513  151.7505 H   0  0  0  0  0  0  0  0  0  0  0  0
  145.6558  131.7983  150.8311 H   0  0  0  0  0  0  0  0  0  0  0  0
  145.5315  131.4988  152.5623 H   0  0  0  0  0  0  0  0  0  0  0  0
  147.0707  133.7875  151.2445 H   0  0  0  0  0  0  0  0  0  0  0  0
  146.5992  133.1723  154.2149 H   0  0  0  0  0  0  0  0  0  0  0  0
  148.1406  133.1265  153.3758 H   0  0  0  0  0  0  0  0  0  0  0  0
  149.1487  134.9255  154.7834 H   0  0  0  0  0  0  0  0  0  0  0  0
  148.2481  136.4029  155.0325 H   0  0  0  0  0  0  0  0  0  0  0  0
  146.4108  134.5407  155.9430 H   0  0  0  0  0  0  0  0  0  0  0  0
  147.9279  133.8186  156.4586 H   0  0  0  0  0  0  0  0  0  0  0  0
  147.0833  136.5871  157.1459 H   0  0  0  0  0  0  0  0  0  0  0  0
  146.8560  137.5640  163.4258 H   0  0  0  0  0  0  0  0  0  0  0  0
  146.8322  134.8769  163.6338 H   0  0  0  0  0  0  0  0  0  0  0  0
  145.4365  135.4071  154.4775 H   0  0  0  0  0  0  0  0  0  0  0  0
  146.1678  136.8371  153.7854 H   0  0  0  0  0  0  0  0  0  0  0  0
  144.2730  135.8569  152.4419 H   0  0  0  0  0  0  0  0  0  0  0  0
  145.8309  137.3463  151.2867 H   0  0  0  0  0  0  0  0  0  0  0  0
  145.3345  136.0492  150.2080 H   0  0  0  0  0  0  0  0  0  0  0  0
  146.9346  136.0255  150.9463 H   0  0  0  0  0  0  0  0  0  0  0  0
  147.8971  135.4326  152.8970 H   0  0  0  0  0  0  0  0  0  0  0  0
  1  2  1  0  0  0  0
  1 20  1  0  0  0  0
  1 21  1  0  0  0  0
  1 22  1  0  0  0  0
  2 19  1  0  0  0  0
  2  3  1  0  0  0  0
  2 23  1  0  0  0  0
  3  4  1  0  0  0  0
  3 24  1  0  0  0  0
  3 25  1  0  0  0  0
  4  5  1  0  0  0  0
  4 16  1  0  0  0  0
  4 39  1  0  0  0  0
  5  6  1  0  0  0  0
  5 26  1  0  0  0  0
  5 27  1  0  0  0  0
  6  7  1  0  0  0  0
  6 28  1  0  0  0  0
  6 29  1  0  0  0  0
  7  8  1  0  0  0  0
  7 30  1  0  0  0  0
  8  9  2  0  0  0  0
  8 10  1  0  0  0  0
 10 11  1  0  0  0  0
 11 15  1  0  0  0  0
 11 12  2  0  0  0  0
 12 13  1  0  0  0  0
 13 14  2  0  0  0  0
 13 31  1  0  0  0  0
 14 15  1  0  0  0  0
 14 32  1  0  0  0  0
 16 17  1  0  0  0  0
 16 33  1  0  0  0  0
 16 34  1  0  0  0  0
 17 18  1  0  0  0  0
 17 19  1  0  0  0  0
 17 35  1  0  0  0  0
 18 36  1  0  0  0  0
 18 37  1  0  0  0  0
 18 38  1  0  0  0  0
M  CHG  1   4   1
M  CHG  1  10  -1
M  END
> <s_m_source_file>
AV-unprocessed.smi

> <i_m_source_file_index>
1815

> <i_lp_mmshare_version>
43012

> <i_f3d_flags>
0

> <s_epik_input>
W0NIM11bQ0BASF0xW0NIMl1OKFtDSDJdW0NASF0oTzEpW0NIM10pW0NIMl1bQ0gyXVtOSF1DKD1PKVtOSF1jMm5bY0hdW2NIXXMy

> <s_epik_cmdline>
J2VwaWtfcHl0aG9uJywgJy1waCcsICc3LjAnLCAnLXRuJywgJzgnLCAnLW1hJywgJzIwMCcsICctbWV0YWxfYmluZGluZycsICctaW1hZScsICc8aW5maWxlLm1hZT4nLCAnLW9tYWUnLCAnPG91dGZpbGUubWFlPic=

> <r_lp_tautomer_probability>
0.999

> <r_epik_Ionization_Penalty>
6.71699

> <r_epik_Ionization_Penalty_Charging>
5.88592

> <r_epik_Ionization_Penalty_Neutral>
0.831074

> <r_epik_State_Penalty>
6.08365

> <r_epik_Charging_Adjusted_Penalty>
11.9696

> <i_epik_Tot_Q>
0

> <i_epik_Tot_abs_Q>
2

> <r_epik_Metal_State_Penalty>
2.0947

> <b_epik_Metal_Only>
1

> <s_lp_Force_Field>
OPLS_2005

> <r_lp_Energy>
8.1919

> <b_lp_Chiralities_Consistent>
1

> <s_lp_Variant>
AV-unprocessed.smi:1815-11

> <Gold.Version>
5.8.1

> <Gold.Id.Protein>
6NUR|6NUR_protein|mol2

> <Gold.PLP.Fitness>
41.8791

> <Gold.PLP.PLP>
-28.9587

> <Gold.PLP.part.hbond>
-4.0000

> <Gold.PLP.part.metal>
0.0000

> <Gold.PLP.part.buried>
-2.9590

> <Gold.PLP.part.nonpolar>
-21.9893

> <Gold.PLP.part.repulsive>
0.0870

> <Gold.PLP.ligand.clash>
0.0000

> <Gold.PLP.ligand.torsion>
0.7958

> <Gold.PLP.Chemscore.Hbond>
4.8320

> <Gold.PLP.Chemscore.CHOScore>
0.0000

> <Gold.PLP.Chemscore.Metal>
0.0000

> <Gold.Chemscore.Hbonds>
donor molecule, donor type, donor heavy atom, donor atom, acceptor molecule, acceptor atom, score
      L1  H     4    39       P1  7948  2.00
      P1  H  6896  6908       L1     9  0.86
      P1  H  6931  6943       L1    12  0.79
      P1  H  6934  6947       L1    12  0.88

> <Gold.PLP.Chemscore.Internal.Correction>
0.0160

> <Gold.Rescore>
     Score         DG    S(hbond)    S(metal)    S(lipo)     H(rot)  DE(clash)    DE(int)     intcor
     17.23     -19.04       3.23        0.00      58.92       1.61       0.03       1.78       ----

> <Gold.Chemscore.Fitness>
17.2327

> <Gold.Chemscore.DG>
-19.0423

> <Gold.Chemscore.ZeroCoef>
-5.4800

> <Gold.Chemscore.Hbond>
3.2277

> <Gold.Chemscore.Metal>
0.0000

> <Gold.Chemscore.Lipo>
58.9158

> <Gold.Chemscore.Internal_Hbond>
0.0000

> <Gold.Chemscore.DEClash>
0.0336

> <Gold.Chemscore.DEInternal>
1.7760

> <Gold.Chemscore.Rot>
1.6060

> <Gold.Chemscore.Internal.Correction>
   9.000000E+99

> <Gold.Chemscore.Hbonds>
donor molecule, donor type, donor heavy atom, donor atom, acceptor molecule, acceptor atom, score
      L1  H     4    39       P1  7948  1.00
      P1  H  6896  6908       L1     9  0.82
      P1  H  6931  6943       L1    12  0.13
      P1  H  6934  6947       L1    12  0.84

> <Gold.Chemscore.Hbond.Weighted>
-10.7804

> <Gold.Chemscore.Metal.Weighted>
-0.0000

> <Gold.Chemscore.Lipo.Weighted>
-6.8931

> <Gold.Chemscore.Internal_Hbond.Weighted>
0.0000

> <Gold.Chemscore.DEClash.Weighted>
0.0336

> <Gold.Chemscore.DEInternal.Weighted>
1.7760

> <Gold.Chemscore.Rot.Weighted>
4.1112

> <Gold.Chemscore.Internal.Correction.Weighted>
   9.000000E+99

> <Gold.Protein.RotatedTorsions>
[ 6907 6896 6895 6894 ] final  130.22 input  -60.11 | X-H torsion
[ 7974 7965 7964 7962 ] final   59.66 input  175.53 | X-H torsion
[ 8008 7997 7996 7995 ] final -173.88 input   59.86 | X-H torsion
[ 10167 10162 10161 10158 ] final  -47.48 input  -65.29 | X-H torsion
[ 10718 10713 10712 10709 ] final  157.36 input   66.30 | X-H torsion
[ 10763 10752 10751 10750 ] final -145.60 input  -60.55 | X-H torsion
[ 11005 11000 10999 10996 ] final   15.48 input  -57.11 | X-H torsion

> <Gold.Protein.ActiveResidues>
 VAL166  LYS551  ARG553  GLY616  TRP617  ASP618  TYR619  PRO620  LYS621  CYS622 
 ASP623  PHE694  ASN695  SER759  ASP760  ASP761  ALA762  ILE779  LEU786  VAL792 
 PHE793  MET794  SER795  GLU796  ALA797  LYS798  CYS799  TRP800  GLU811  SER814 

> <Gold.Protein.RotatedAtoms>
  152.3548  133.6223  159.5970 H   0  0  0  0  0  0  0  0  0  0  0  0  # atno 6907 bound_to 6896
  150.7561  133.9518  159.3497 H   0  0  0  0  0  0  0  0  0  0  0  0  # atno 6908 bound_to 6896
  151.7365  135.0864  160.0360 H   0  0  0  0  0  0  0  0  0  0  0  0  # atno 6909 bound_to 6896
  145.9047  139.3608  143.0571 H   0  0  0  0  0  0  0  0  0  0  0  0  # atno 7974 bound_to 7965
  155.9630  140.1148  157.0879 H   0  0  0  0  0  0  0  0  0  0  0  0  # atno 8008 bound_to 7997
  154.4137  140.1178  156.5272 H   0  0  0  0  0  0  0  0  0  0  0  0  # atno 8009 bound_to 7997
  155.6695  140.3473  155.4815 H   0  0  0  0  0  0  0  0  0  0  0  0  # atno 8010 bound_to 7997
  140.6773  143.2783  151.3932 H   0  0  0  0  0  0  0  0  0  0  0  0  # atno 10167 bound_to 10162
  157.1925  131.0658  151.2071 H   0  0  0  0  0  0  0  0  0  0  0  0  # atno 10718 bound_to 10713
  154.8376  135.3409  154.6529 H   0  0  0  0  0  0  0  0  0  0  0  0  # atno 10763 bound_to 10752
  153.7143  135.6962  153.5034 H   0  0  0  0  0  0  0  0  0  0  0  0  # atno 10764 bound_to 10752
  153.2428  135.4379  155.0670 H   0  0  0  0  0  0  0  0  0  0  0  0  # atno 10765 bound_to 10752
  140.4578  134.1158  155.7712 H   0  0  0  0  0  0  0  0  0  0  0  0  # atno 11005 bound_to 11000
  145.8747  140.9399  143.0632 LP  0  0  0  0  0  0  0  0  0  0  0  0  # atno 17320 bound_to 7965
  144.6738  140.0701  143.7473 LP  0  0  0  0  0  0  0  0  0  0  0  0  # atno 17321 bound_to 7965
  139.6073  144.1170  152.2263 LP  0  0  0  0  0  0  0  0  0  0  0  0  # atno 17342 bound_to 10162
  140.0573  144.5885  150.7290 LP  0  0  0  0  0  0  0  0  0  0  0  0  # atno 17343 bound_to 10162
  157.3846  130.7249  149.6654 LP  0  0  0  0  0  0  0  0  0  0  0  0  # atno 17370 bound_to 10713
  155.9710  130.4163  150.4223 LP  0  0  0  0  0  0  0  0  0  0  0  0  # atno 17371 bound_to 10713
  141.1635  133.8748  157.1781 LP  0  0  0  0  0  0  0  0  0  0  0  0  # atno 17394 bound_to 11000
  139.9965  135.0045  157.0093 LP  0  0  0  0  0  0  0  0  0  0  0  0  # atno 17395 bound_to 11000

$$$$
