AV-unprocessed.smi:581|AV-procd|sdf|2991|dock7
  -GOLD-   2262023493D 1   1.00000     0.00000
 Structure written by MMmdl.
 35 36  0  0  0  0  0  0  0  0  2 V2000
  149.1281  141.2973  154.6287 C   0  0  0  0  0  0  0  0  0  0  0  0
  149.9781  140.9526  155.8389 C   0  0  0  0  0  0  0  0  0  0  0  0
  150.2133  142.0047  156.7331 N   0  0  0  0  0  0  0  0  0  0  0  0
  150.9236  141.8097  157.7996 C   0  0  0  0  0  0  0  0  0  0  0  0
  151.2364  142.7733  158.7616 N   0  0  0  0  0  0  0  0  0  0  0  0
  150.8664  144.1809  158.5912 C   0  0  0  0  0  0  0  0  0  0  0  0
  150.8018  144.9102  159.9436 C   0  0  0  0  0  0  0  0  0  0  0  0
  152.0399  144.7667  160.6257 O   0  0  0  0  0  0  0  0  0  0  0  0
  152.3249  143.4018  160.8991 C   0  0  0  0  0  0  0  0  0  0  0  0
  152.4403  142.6217  159.5789 C   0  0  0  0  0  0  0  0  0  0  0  0
  151.4682  140.5473  158.0587 N   0  0  0  0  0  0  0  0  0  0  0  0
  151.2984  139.4694  157.2614 C   0  0  0  0  0  0  0  0  0  0  0  0
  151.8052  138.3893  157.5605 O   0  0  0  0  0  0  0  0  0  0  0  0
  150.4833  139.7065  156.0587 C   0  0  0  0  0  0  0  0  0  0  0  0
  150.2670  138.5367  155.1020 C   0  0  0  0  0  0  0  0  0  0  0  0
  148.8550  137.9288  155.2372 C   0  0  0  0  0  0  0  0  0  0  0  0
  148.7535  136.8695  156.3429 C   0  0  0  0  0  0  0  0  0  0  0  0
  147.9334  137.0438  157.2720 O   0  0  0  0  0  0  0  0  0  0  0  0
  149.5161  135.8849  156.2352 O   0  5  0  0  0  0  0  0  0  0  0  0
  152.0237  140.4243  158.8922 H   0  0  0  0  0  0  0  0  0  0  0  0
  148.3017  140.5938  154.5249 H   0  0  0  0  0  0  0  0  0  0  0  0
  149.7296  141.2634  153.7201 H   0  0  0  0  0  0  0  0  0  0  0  0
  148.7042  142.2986  154.7143 H   0  0  0  0  0  0  0  0  0  0  0  0
  151.6076  144.6588  157.9493 H   0  0  0  0  0  0  0  0  0  0  0  0
  149.9044  144.2899  158.0907 H   0  0  0  0  0  0  0  0  0  0  0  0
  150.6045  145.9708  159.7880 H   0  0  0  0  0  0  0  0  0  0  0  0
  149.9867  144.5216  160.5561 H   0  0  0  0  0  0  0  0  0  0  0  0
  153.2607  143.3394  161.4543 H   0  0  0  0  0  0  0  0  0  0  0  0
  151.5481  142.9752  161.5359 H   0  0  0  0  0  0  0  0  0  0  0  0
  152.6205  141.5695  159.8041 H   0  0  0  0  0  0  0  0  0  0  0  0
  153.3001  142.9768  159.0095 H   0  0  0  0  0  0  0  0  0  0  0  0
  150.4341  138.8639  154.0758 H   0  0  0  0  0  0  0  0  0  0  0  0
  151.0272  137.7755  155.2864 H   0  0  0  0  0  0  0  0  0  0  0  0
  148.1290  138.7146  155.4482 H   0  0  0  0  0  0  0  0  0  0  0  0
  148.5565  137.4697  154.2941 H   0  0  0  0  0  0  0  0  0  0  0  0
  1  2  1  0  0  0  0
  1 21  1  0  0  0  0
  1 22  1  0  0  0  0
  1 23  1  0  0  0  0
  2 14  2  0  0  0  0
  2  3  1  0  0  0  0
  3  4  2  0  0  0  0
  4  5  1  0  0  0  0
  4 11  1  0  0  0  0
  5 10  1  0  0  0  0
  5  6  1  0  0  0  0
  6  7  1  0  0  0  0
  6 24  1  0  0  0  0
  6 25  1  0  0  0  0
  7  8  1  0  0  0  0
  7 26  1  0  0  0  0
  7 27  1  0  0  0  0
  8  9  1  0  0  0  0
  9 10  1  0  0  0  0
  9 28  1  0  0  0  0
  9 29  1  0  0  0  0
 10 30  1  0  0  0  0
 10 31  1  0  0  0  0
 11 20  1  0  0  0  0
 11 12  1  0  0  0  0
 12 13  2  0  0  0  0
 12 14  1  0  0  0  0
 14 15  1  0  0  0  0
 15 16  1  0  0  0  0
 15 32  1  0  0  0  0
 15 33  1  0  0  0  0
 16 17  1  0  0  0  0
 16 34  1  0  0  0  0
 16 35  1  0  0  0  0
 17 18  2  0  0  0  0
 17 19  1  0  0  0  0
M  CHG  1  19  -1
M  END
> <s_m_source_file>
AV-unprocessed.smi

> <i_m_source_file_index>
581

> <i_lp_mmshare_version>
43012

> <i_f3d_flags>
0

> <s_epik_input>
W0NIMl0xW0NIMl1PW0NIMl1bQ0gyXU4xYyhuYzJbQ0gzXSlbbkhdYyg9TyljMltDSDJdW0NIMl1DKD1PKVtPSF0=

> <s_epik_cmdline>
J2VwaWtfcHl0aG9uJywgJy1waCcsICc3LjAnLCAnLXRuJywgJzgnLCAnLW1hJywgJzIwMCcsICctbWV0YWxfYmluZGluZycsICctaW1hZScsICc8aW5maWxlLm1hZT4nLCAnLW9tYWUnLCAnPG91dGZpbGUubWFlPic=

> <r_lp_tautomer_probability>
0.878553

> <r_epik_Ionization_Penalty>
0.00211884

> <r_epik_Ionization_Penalty_Charging>
0.00208365

> <r_epik_Ionization_Penalty_Neutral>
3.51846e-05

> <r_epik_State_Penalty>
0.0663044

> <r_epik_Charging_Adjusted_Penalty>
0.0683881

> <i_epik_Tot_Q>
-1

> <i_epik_Tot_abs_Q>
1

> <r_epik_Metal_State_Penalty>
0.312881

> <b_epik_Metal_Only>
0

> <s_lp_Force_Field>
OPLS_2005

> <r_lp_Energy>
24.7506

> <b_lp_Chiralities_Consistent>
1

> <s_lp_Variant>
AV-unprocessed.smi:581-1

> <Gold.Version>
5.8.1

> <Gold.Id.Protein>
6NUR|6NUR_protein|mol2

> <Gold.PLP.Fitness>
43.8434

> <Gold.PLP.PLP>
-35.6795

> <Gold.PLP.part.hbond>
-2.0000

> <Gold.PLP.part.metal>
0.0000

> <Gold.PLP.part.buried>
-4.5357

> <Gold.PLP.part.nonpolar>
-29.8011

> <Gold.PLP.part.repulsive>
0.4889

> <Gold.PLP.ligand.clash>
0.0250

> <Gold.PLP.ligand.torsion>
0.5131

> <Gold.PLP.Chemscore.Hbond>
3.0000

> <Gold.PLP.Chemscore.CHOScore>
0.0000

> <Gold.PLP.Chemscore.Metal>
0.0000

> <Gold.PLP.Chemscore.Internal.Correction>
0.2152

> <Gold.Rescore>
     Score         DG    S(hbond)    S(metal)    S(lipo)     H(rot)  DE(clash)    DE(int)     intcor
     15.00     -15.43       1.82        0.00      74.28       1.89       0.05       0.38       ----

> <Gold.Chemscore.Fitness>
15.0043

> <Gold.Chemscore.DG>
-15.4296

> <Gold.Chemscore.ZeroCoef>
-5.4800

> <Gold.Chemscore.Hbond>
1.8248

> <Gold.Chemscore.Metal>
0.0000

> <Gold.Chemscore.Lipo>
74.2774

> <Gold.Chemscore.Internal_Hbond>
0.0000

> <Gold.Chemscore.DEClash>
0.0452

> <Gold.Chemscore.DEInternal>
0.3802

> <Gold.Chemscore.Rot>
1.8890

> <Gold.Chemscore.Internal.Correction>
   9.000000E+99

> <Gold.Chemscore.Hbond.Weighted>
-6.0949

> <Gold.Chemscore.Metal.Weighted>
-0.0000

> <Gold.Chemscore.Lipo.Weighted>
-8.6905

> <Gold.Chemscore.Internal_Hbond.Weighted>
0.0000

> <Gold.Chemscore.DEClash.Weighted>
0.0452

> <Gold.Chemscore.DEInternal.Weighted>
0.3802

> <Gold.Chemscore.Rot.Weighted>
4.8357

> <Gold.Chemscore.Internal.Correction.Weighted>
   9.000000E+99

> <Gold.Protein.RotatedTorsions>
[ 6907 6896 6895 6894 ] final -125.78 input  -60.11 | X-H torsion
[ 7974 7965 7964 7962 ] final  163.24 input  175.53 | X-H torsion
[ 8008 7997 7996 7995 ] final  -73.15 input   59.86 | X-H torsion
[ 10167 10162 10161 10158 ] final  112.51 input  -65.29 | X-H torsion
[ 10718 10713 10712 10709 ] final -176.15 input   66.30 | X-H torsion
[ 10763 10752 10751 10750 ] final  -43.95 input  -60.55 | X-H torsion
[ 11005 11000 10999 10996 ] final  -23.55 input  -57.11 | X-H torsion

> <Gold.Protein.ActiveResidues>
 VAL166  LYS551  ARG553  GLY616  TRP617  ASP618  TYR619  PRO620  LYS621  CYS622 
 ASP623  PHE694  ASN695  SER759  ASP760  ASP761  ALA762  ILE779  LEU786  VAL792 
 PHE793  MET794  SER795  GLU796  ALA797  LYS798  CYS799  TRP800  GLU811  SER814 

> <Gold.Protein.RotatedAtoms>
  150.8902  133.7253  159.2906 H   0  0  0  0  0  0  0  0  0  0  0  0  # atno 6907 bound_to 6896
  151.4805  135.1050  159.9786 H   0  0  0  0  0  0  0  0  0  0  0  0  # atno 6908 bound_to 6896
  152.4815  133.8220  159.7114 H   0  0  0  0  0  0  0  0  0  0  0  0  # atno 6909 bound_to 6896
  144.7599  139.8155  143.6336 H   0  0  0  0  0  0  0  0  0  0  0  0  # atno 7974 bound_to 7965
  154.5223  140.0784  156.8195 H   0  0  0  0  0  0  0  0  0  0  0  0  # atno 8008 bound_to 7997
  155.3549  140.3414  155.4221 H   0  0  0  0  0  0  0  0  0  0  0  0  # atno 8009 bound_to 7997
  156.1695  140.1615  156.8460 H   0  0  0  0  0  0  0  0  0  0  0  0  # atno 8010 bound_to 7997
  139.6530  144.7128  151.2010 H   0  0  0  0  0  0  0  0  0  0  0  0  # atno 10167 bound_to 10162
  156.8104  130.9584  151.3116 H   0  0  0  0  0  0  0  0  0  0  0  0  # atno 10718 bound_to 10713
  154.0041  135.6690  153.4761 H   0  0  0  0  0  0  0  0  0  0  0  0  # atno 10763 bound_to 10752
  153.0649  135.5006  154.8174 H   0  0  0  0  0  0  0  0  0  0  0  0  # atno 10764 bound_to 10752
  154.7035  135.3083  154.9268 H   0  0  0  0  0  0  0  0  0  0  0  0  # atno 10765 bound_to 10752
  140.8762  133.7686  156.0246 H   0  0  0  0  0  0  0  0  0  0  0  0  # atno 11005 bound_to 11000
  146.1650  139.4778  142.9964 LP  0  0  0  0  0  0  0  0  0  0  0  0  # atno 17320 bound_to 7965
  145.6655  141.0230  143.1686 LP  0  0  0  0  0  0  0  0  0  0  0  0  # atno 17321 bound_to 7965
  140.7546  143.6118  150.8598 LP  0  0  0  0  0  0  0  0  0  0  0  0  # atno 17342 bound_to 10162
  139.9768  143.5995  152.2956 LP  0  0  0  0  0  0  0  0  0  0  0  0  # atno 17343 bound_to 10162
  157.6509  130.8883  149.9631 LP  0  0  0  0  0  0  0  0  0  0  0  0  # atno 17370 bound_to 10713
  156.1048  130.3653  150.0153 LP  0  0  0  0  0  0  0  0  0  0  0  0  # atno 17371 bound_to 10713
  140.8515  134.2948  157.5273 LP  0  0  0  0  0  0  0  0  0  0  0  0  # atno 17394 bound_to 11000
  139.8716  134.9470  156.3955 LP  0  0  0  0  0  0  0  0  0  0  0  0  # atno 17395 bound_to 11000

$$$$
