AV-unprocessed.smi:221|AV-procd|sdf|1686|dock2
  -GOLD-   2262020123D 1   1.00000     0.00000
 Structure written by MMmdl.
 50 53  0  0  0  0  0  0  0  0  1 V2000
  142.2304  134.2881  154.9240 N   0  0  0  0  0  0  0  0  0  0  0  0
  142.3914  135.4237  154.2410 C   0  0  0  0  0  0  0  0  0  0  0  0
  141.7511  136.4403  154.5035 O   0  0  0  0  0  0  0  0  0  0  0  0
  143.4359  135.4116  153.1156 C   0  0  2  0  0  0  0  0  0  0  0  0
  143.1819  134.2795  152.1117 C   0  0  0  0  0  0  0  0  0  0  0  0
  144.5541  134.0603  151.4846 C   0  0  1  0  0  0  0  0  0  0  0  0
  144.7537  134.9620  150.5221 F   0  0  0  0  0  0  0  0  0  0  0  0
  145.5184  134.3263  152.6431 C   0  0  0  0  0  0  0  0  0  0  0  0
  144.7875  135.1408  153.6107 N   0  0  0  0  0  0  0  0  0  0  0  0
  145.4596  136.2032  154.1064 C   0  0  0  0  0  0  0  0  0  0  0  0
  144.8830  137.4216  153.9659 N   0  0  0  0  0  0  0  0  0  0  0  0
  145.5027  138.5106  154.4314 C   0  0  0  0  0  0  0  0  0  0  0  0
  146.6793  138.6002  155.0563 N   0  0  0  0  0  0  0  0  0  0  0  0
  147.2591  137.3736  155.1981 C   0  0  0  0  0  0  0  0  0  0  0  0
  146.7224  136.1315  154.7585 C   0  0  0  0  0  0  0  0  0  0  0  0
  147.5923  135.0968  155.0806 N   0  0  0  0  0  0  0  0  0  0  0  0
  148.5894  135.6941  155.6742 C   0  0  0  0  0  0  0  0  0  0  0  0
  148.4745  137.0620  155.7799 N   0  0  0  0  0  0  0  0  0  0  0  0
  149.4295  137.9738  156.3835 C   0  0  0  0  0  0  0  0  0  0  0  0
  149.5823  139.3136  155.6206 C   0  0  2  0  0  0  0  0  0  0  0  0
  150.4156  139.1752  154.3196 C   0  0  0  0  0  0  0  0  0  0  0  0
  149.6815  138.5424  153.2915 O   0  0  0  0  0  0  0  0  0  0  0  0
  150.1130  140.4029  156.5891 C   0  0  2  0  0  0  0  0  0  0  0  0
  150.3695  141.7725  155.9871 C   0  0  0  0  0  0  0  0  0  0  0  0
  151.2011  142.4307  157.0832 C   0  0  0  0  0  0  0  0  0  0  0  0
  151.9752  141.3831  157.6608 O   0  0  0  0  0  0  0  0  0  0  0  0
  151.4462  140.1131  157.2868 C   0  0  0  0  0  0  0  0  0  0  0  0
  143.4140  136.3678  152.5894 H   0  0  0  0  0  0  0  0  0  0  0  0
  144.6759  133.0726  151.0396 H   0  0  0  0  0  0  0  0  0  0  0  0
  141.5524  134.2453  155.6709 H   0  0  0  0  0  0  0  0  0  0  0  0
  142.7827  133.4758  154.6901 H   0  0  0  0  0  0  0  0  0  0  0  0
  142.8669  133.3681  152.6232 H   0  0  0  0  0  0  0  0  0  0  0  0
  142.4180  134.5302  151.3748 H   0  0  0  0  0  0  0  0  0  0  0  0
  145.7767  133.3882  153.1351 H   0  0  0  0  0  0  0  0  0  0  0  0
  146.4512  134.7767  152.2989 H   0  0  0  0  0  0  0  0  0  0  0  0
  144.9812  139.4444  154.2811 H   0  0  0  0  0  0  0  0  0  0  0  0
  149.4454  135.1499  156.0463 H   0  0  0  0  0  0  0  0  0  0  0  0
  149.1059  138.1573  157.4087 H   0  0  0  0  0  0  0  0  0  0  0  0
  150.3929  137.4671  156.4512 H   0  0  0  0  0  0  0  0  0  0  0  0
  148.5812  139.6394  155.3331 H   0  0  0  0  0  0  0  0  0  0  0  0
  150.7183  140.1458  153.9319 H   0  0  0  0  0  0  0  0  0  0  0  0
  151.3317  138.6133  154.5029 H   0  0  0  0  0  0  0  0  0  0  0  0
  149.8710  138.9788  152.4749 H   0  0  0  0  0  0  0  0  0  0  0  0
  149.3629  140.5524  157.3681 H   0  0  0  0  0  0  0  0  0  0  0  0
  150.9551  141.7125  155.0708 H   0  0  0  0  0  0  0  0  0  0  0  0
  149.4527  142.3207  155.7681 H   0  0  0  0  0  0  0  0  0  0  0  0
  151.8339  143.2334  156.7040 H   0  0  0  0  0  0  0  0  0  0  0  0
  150.5513  142.8475  157.8540 H   0  0  0  0  0  0  0  0  0  0  0  0
  151.3244  139.4666  158.1562 H   0  0  0  0  0  0  0  0  0  0  0  0
  152.1623  139.6406  156.6152 H   0  0  0  0  0  0  0  0  0  0  0  0
  1  2  1  0  0  0  0
  1 30  1  0  0  0  0
  1 31  1  0  0  0  0
  2  3  2  0  0  0  0
  2  4  1  0  0  0  0
  4 28  1  0  0  0  0
  4  9  1  0  0  0  0
  4  5  1  0  0  0  0
  5  6  1  0  0  0  0
  5 32  1  0  0  0  0
  5 33  1  0  0  0  0
  6 29  1  0  0  0  0
  6  7  1  0  0  0  0
  6  8  1  0  0  0  0
  8  9  1  0  0  0  0
  8 34  1  0  0  0  0
  8 35  1  0  0  0  0
  9 10  1  0  0  0  0
 10 15  1  0  0  0  0
 10 11  2  0  0  0  0
 11 12  1  0  0  0  0
 12 13  2  0  0  0  0
 12 36  1  0  0  0  0
 13 14  1  0  0  0  0
 14 18  1  0  0  0  0
 14 15  2  0  0  0  0
 15 16  1  0  0  0  0
 16 17  2  0  0  0  0
 17 18  1  0  0  0  0
 17 37  1  0  0  0  0
 18 19  1  0  0  0  0
 19 20  1  0  0  0  0
 19 38  1  0  0  0  0
 19 39  1  0  0  0  0
 20 21  1  0  0  0  0
 20 23  1  0  0  0  0
 20 40  1  0  0  0  0
 21 22  1  0  0  0  0
 21 41  1  0  0  0  0
 21 42  1  0  0  0  0
 22 43  1  0  0  0  0
 23 27  1  0  0  0  0
 23 24  1  0  0  0  0
 23 44  1  0  0  0  0
 24 25  1  0  0  0  0
 24 45  1  0  0  0  0
 24 46  1  0  0  0  0
 25 26  1  0  0  0  0
 25 47  1  0  0  0  0
 25 48  1  0  0  0  0
 26 27  1  0  0  0  0
 27 49  1  0  0  0  0
 27 50  1  0  0  0  0
M  END
> <s_m_source_file>
AV-unprocessed.smi

> <i_m_source_file_index>
221

> <i_lp_mmshare_version>
43012

> <i_f3d_flags>
0

> <s_epik_input>
W05IMl1DKD1PKVtDQEBIXTFbQ0gyXVtDQEBIXShGKVtDSDJdTjFjKG5bY0hdbjIpYyhjMjMpbltjSF1uM1tDSDJdW0NASF0oW0NIMl1bT0hdKVtDQEBIXTRbQ0gyXVtDSDJdT1tDSDJdNA==

> <s_epik_cmdline>
J2VwaWtfcHl0aG9uJywgJy1waCcsICc3LjAnLCAnLXRuJywgJzgnLCAnLW1hJywgJzIwMCcsICctbWV0YWxfYmluZGluZycsICctaW1hZScsICc8aW5maWxlLm1hZT4nLCAnLW9tYWUnLCAnPG91dGZpbGUubWFlPic=

> <r_lp_tautomer_probability>
1

> <r_epik_Ionization_Penalty>
0.000818822

> <r_epik_Ionization_Penalty_Charging>
0

> <r_epik_Ionization_Penalty_Neutral>
0.000818822

> <r_epik_State_Penalty>
0.000440551

> <r_epik_Charging_Adjusted_Penalty>
0.000440551

> <i_epik_Tot_Q>
0

> <i_epik_Tot_abs_Q>
0

> <r_epik_Metal_State_Penalty>
-0

> <b_epik_Metal_Only>
0

> <s_lp_Force_Field>
OPLS_2005

> <r_lp_Energy>
52.3399

> <b_lp_Chiralities_Consistent>
1

> <s_lp_Variant>
AV-unprocessed.smi:221-1

> <Gold.Version>
5.8.1

> <Gold.Id.Protein>
6NUR|6NUR_protein|mol2

> <Gold.PLP.Fitness>
39.4276

> <Gold.PLP.PLP>
-29.1034

> <Gold.PLP.part.hbond>
-4.0000

> <Gold.PLP.part.metal>
0.0000

> <Gold.PLP.part.buried>
-4.6558

> <Gold.PLP.part.nonpolar>
-21.0601

> <Gold.PLP.part.repulsive>
0.4096

> <Gold.PLP.ligand.clash>
0.0000

> <Gold.PLP.ligand.torsion>
0.7847

> <Gold.PLP.Chemscore.Hbond>
2.8480

> <Gold.PLP.Chemscore.CHOScore>
1.0000

> <Gold.PLP.Chemscore.Metal>
0.0000

> <Gold.Chemscore.Hbonds>
donor molecule, donor type, donor heavy atom, donor atom, acceptor molecule, acceptor atom, score
      L1  H     1    30       P1 11000  1.00
      L1  H     1    31       P1 10957  0.75
      L1  H    22    43       P1  7957  1.00
      L1  C    12    36       P1 10175  1.00

> <Gold.PLP.Chemscore.Internal.Correction>
0.3498

> <Gold.Rescore>
     Score         DG    S(hbond)    S(metal)    S(lipo)     H(rot)  DE(clash)    DE(int)     intcor
      9.36     -11.05       2.51        0.00      57.50       3.72       0.08       1.61       ----

> <Gold.Chemscore.Fitness>
9.3647

> <Gold.Chemscore.DG>
-11.0515

> <Gold.Chemscore.ZeroCoef>
-5.4800

> <Gold.Chemscore.Hbond>
2.5054

> <Gold.Chemscore.Metal>
0.0000

> <Gold.Chemscore.Lipo>
57.4968

> <Gold.Chemscore.Internal_Hbond>
0.0000

> <Gold.Chemscore.DEClash>
0.0752

> <Gold.Chemscore.DEInternal>
1.6116

> <Gold.Chemscore.Rot>
3.7202

> <Gold.Chemscore.Internal.Correction>
   9.000000E+99

> <Gold.Chemscore.Hbonds>
donor molecule, donor type, donor heavy atom, donor atom, acceptor molecule, acceptor atom, score
      L1  H     1    30       P1 11000  0.53
      L1  H     1    31       P1 10957  0.76
      L1  H    22    43       P1  7957  0.65

> <Gold.Chemscore.Hbond.Weighted>
-8.3681

> <Gold.Chemscore.Metal.Weighted>
-0.0000

> <Gold.Chemscore.Lipo.Weighted>
-6.7271

> <Gold.Chemscore.Internal_Hbond.Weighted>
0.0000

> <Gold.Chemscore.DEClash.Weighted>
0.0752

> <Gold.Chemscore.DEInternal.Weighted>
1.6116

> <Gold.Chemscore.Rot.Weighted>
9.5237

> <Gold.Chemscore.Internal.Correction.Weighted>
   9.000000E+99

> <Gold.Protein.RotatedTorsions>
[ 6907 6896 6895 6894 ] final   79.61 input  -60.11 | X-H torsion
[ 7974 7965 7964 7962 ] final  -84.34 input  175.53 | X-H torsion
[ 8008 7997 7996 7995 ] final  -81.34 input   59.86 | X-H torsion
[ 10167 10162 10161 10158 ] final -146.29 input  -65.29 | X-H torsion
[ 10718 10713 10712 10709 ] final -113.47 input   66.30 | X-H torsion
[ 10763 10752 10751 10750 ] final   80.64 input  -60.55 | X-H torsion
[ 11005 11000 10999 10996 ] final  119.19 input  -57.11 | X-H torsion

> <Gold.Protein.ActiveResidues>
 VAL166  LYS551  ARG553  GLY616  TRP617  ASP618  TYR619  PRO620  LYS621  CYS622 
 ASP623  PHE694  ASN695  SER759  ASP760  ASP761  ALA762  ILE779  LEU786  VAL792 
 PHE793  MET794  SER795  GLU796  ALA797  LYS798  CYS799  TRP800  GLU811  SER814 

> <Gold.Protein.RotatedAtoms>
  152.5205  134.3484  159.9241 H   0  0  0  0  0  0  0  0  0  0  0  0  # atno 6907 bound_to 6896
  151.3434  133.3947  159.2681 H   0  0  0  0  0  0  0  0  0  0  0  0  # atno 6908 bound_to 6896
  150.9785  134.9163  159.7888 H   0  0  0  0  0  0  0  0  0  0  0  0  # atno 6909 bound_to 6896
  145.5079  140.9542  143.1723 H   0  0  0  0  0  0  0  0  0  0  0  0  # atno 7974 bound_to 7965
  154.5974  140.0649  156.9322 H   0  0  0  0  0  0  0  0  0  0  0  0  # atno 8008 bound_to 7997
  155.2191  140.3328  155.4300 H   0  0  0  0  0  0  0  0  0  0  0  0  # atno 8009 bound_to 7997
  156.2296  140.1835  156.7261 H   0  0  0  0  0  0  0  0  0  0  0  0  # atno 8010 bound_to 7997
  139.7727  143.8214  152.2627 H   0  0  0  0  0  0  0  0  0  0  0  0  # atno 10167 bound_to 10162
  156.0768  130.5975  150.8646 H   0  0  0  0  0  0  0  0  0  0  0  0  # atno 10718 bound_to 10713
  153.1050  135.4795  154.8934 H   0  0  0  0  0  0  0  0  0  0  0  0  # atno 10763 bound_to 10752
  154.7420  135.3084  154.8714 H   0  0  0  0  0  0  0  0  0  0  0  0  # atno 10764 bound_to 10752
  153.9319  135.6843  153.4799 H   0  0  0  0  0  0  0  0  0  0  0  0  # atno 10765 bound_to 10752
  139.9137  134.9626  156.7618 H   0  0  0  0  0  0  0  0  0  0  0  0  # atno 11005 bound_to 11000
  144.7743  139.6664  143.7181 LP  0  0  0  0  0  0  0  0  0  0  0  0  # atno 17320 bound_to 7965
  146.2185  139.5592  142.9634 LP  0  0  0  0  0  0  0  0  0  0  0  0  # atno 17321 bound_to 7965
  139.8253  144.7278  150.9519 LP  0  0  0  0  0  0  0  0  0  0  0  0  # atno 17342 bound_to 10162
  140.7815  143.4120  151.0977 LP  0  0  0  0  0  0  0  0  0  0  0  0  # atno 17343 bound_to 10162
  157.5868  131.0945  150.9184 LP  0  0  0  0  0  0  0  0  0  0  0  0  # atno 17370 bound_to 10713
  156.9368  130.5370  149.5279 LP  0  0  0  0  0  0  0  0  0  0  0  0  # atno 17371 bound_to 10713
  140.6691  133.9575  155.7847 LP  0  0  0  0  0  0  0  0  0  0  0  0  # atno 17394 bound_to 11000
  141.0590  134.0374  157.3684 LP  0  0  0  0  0  0  0  0  0  0  0  0  # atno 17395 bound_to 11000

$$$$
