AV-unprocessed.smi:1291|AV-procd|sdf|5392|dock1
  -GOLD-   22720 4543D 1   1.00000     0.00000
 Structure written by MMmdl.
 43 45  0  0  0  0  0  0  0  0  1 V2000
  149.8346  138.1972  153.4939 O   0  0  0  0  0  0  0  0  0  0  0  0
  151.0771  138.1894  154.1681 C   0  0  0  0  0  0  0  0  0  0  0  0
  151.2108  139.2580  155.2163 C   0  0  0  0  0  0  0  0  0  0  0  0
  150.8424  140.5257  155.0155 N   0  0  0  0  0  0  0  0  0  0  0  0
  151.1321  141.1250  156.2251 C   0  0  0  0  0  0  0  0  0  0  0  0
  150.9695  142.4633  156.6493 C   0  0  0  0  0  0  0  0  0  0  0  0
  151.3419  142.8490  157.9538 C   0  0  0  0  0  0  0  0  0  0  0  0
  151.8798  141.9038  158.8511 C   0  0  0  0  0  0  0  0  0  0  0  0
  152.0482  140.5649  158.4490 C   0  0  0  0  0  0  0  0  0  0  0  0
  151.6763  140.1853  157.1451 C   0  0  0  0  0  0  0  0  0  0  0  0
  151.7119  138.9817  156.4467 N   0  0  0  0  0  0  0  0  0  0  0  0
  152.1874  137.7015  156.9568 C   0  0  0  0  0  0  0  0  0  0  0  0
  151.0446  136.7573  157.3849 C   0  0  1  0  0  0  0  0  0  0  0  0
  151.5536  135.4474  157.5457 O   0  0  0  0  0  0  0  0  0  0  0  0
  150.4118  137.1985  158.7144 C   0  0  0  0  0  0  0  0  0  0  0  0
  149.5915  136.1532  159.2098 O   0  0  0  0  0  0  0  0  0  0  0  0
  148.6601  136.5969  160.1845 C   0  0  0  0  0  0  0  0  0  0  0  0
  147.9368  135.4528  160.8756 C   0  0  0  0  0  0  0  0  0  0  0  0
  147.8722  134.1713  160.2838 C   0  0  0  0  0  0  0  0  0  0  0  0
  147.1903  133.1233  160.9320 C   0  0  0  0  0  0  0  0  0  0  0  0
  146.5641  133.3499  162.1722 C   0  0  0  0  0  0  0  0  0  0  0  0
  146.6179  134.6267  162.7627 C   0  0  0  0  0  0  0  0  0  0  0  0
  147.2995  135.6763  162.1160 C   0  0  0  0  0  0  0  0  0  0  0  0
  147.3390  136.9017  162.6926 F   0  0  0  0  0  0  0  0  0  0  0  0
  149.8972  138.7809  152.7538 H   0  0  0  0  0  0  0  0  0  0  0  0
  151.2100  137.2140  154.6364 H   0  0  0  0  0  0  0  0  0  0  0  0
  151.8675  138.3082  153.4277 H   0  0  0  0  0  0  0  0  0  0  0  0
  150.5581  143.1941  155.9691 H   0  0  0  0  0  0  0  0  0  0  0  0
  151.2145  143.8746  158.2672 H   0  0  0  0  0  0  0  0  0  0  0  0
  152.1637  142.2074  159.8481 H   0  0  0  0  0  0  0  0  0  0  0  0
  152.4612  139.8395  159.1339 H   0  0  0  0  0  0  0  0  0  0  0  0
  152.7964  137.2284  156.1854 H   0  0  0  0  0  0  0  0  0  0  0  0
  152.8592  137.8860  157.7955 H   0  0  0  0  0  0  0  0  0  0  0  0
  150.2819  136.7408  156.6060 H   0  0  0  0  0  0  0  0  0  0  0  0
  150.9961  134.9791  158.1478 H   0  0  0  0  0  0  0  0  0  0  0  0
  151.1767  137.4837  159.4390 H   0  0  0  0  0  0  0  0  0  0  0  0
  149.7827  138.0745  158.5484 H   0  0  0  0  0  0  0  0  0  0  0  0
  149.1812  137.1892  160.9385 H   0  0  0  0  0  0  0  0  0  0  0  0
  147.9141  137.2430  159.7192 H   0  0  0  0  0  0  0  0  0  0  0  0
  148.3436  133.9802  159.3310 H   0  0  0  0  0  0  0  0  0  0  0  0
  147.1474  132.1449  160.4764 H   0  0  0  0  0  0  0  0  0  0  0  0
  146.0415  132.5460  162.6691 H   0  0  0  0  0  0  0  0  0  0  0  0
  146.1348  134.8019  163.7126 H   0  0  0  0  0  0  0  0  0  0  0  0
  1  2  1  0  0  0  0
  1 25  1  0  0  0  0
  2  3  1  0  0  0  0
  2 26  1  0  0  0  0
  2 27  1  0  0  0  0
  3 11  1  0  0  0  0
  3  4  2  0  0  0  0
  4  5  1  0  0  0  0
  5 10  2  0  0  0  0
  5  6  1  0  0  0  0
  6  7  2  0  0  0  0
  6 28  1  0  0  0  0
  7  8  1  0  0  0  0
  7 29  1  0  0  0  0
  8  9  2  0  0  0  0
  8 30  1  0  0  0  0
  9 10  1  0  0  0  0
  9 31  1  0  0  0  0
 10 11  1  0  0  0  0
 11 12  1  0  0  0  0
 12 13  1  0  0  0  0
 12 32  1  0  0  0  0
 12 33  1  0  0  0  0
 13 14  1  0  0  0  0
 13 15  1  0  0  0  0
 13 34  1  0  0  0  0
 14 35  1  0  0  0  0
 15 16  1  0  0  0  0
 15 36  1  0  0  0  0
 15 37  1  0  0  0  0
 16 17  1  0  0  0  0
 17 18  1  0  0  0  0
 17 38  1  0  0  0  0
 17 39  1  0  0  0  0
 18 23  1  0  0  0  0
 18 19  2  0  0  0  0
 19 20  1  0  0  0  0
 19 40  1  0  0  0  0
 20 21  2  0  0  0  0
 20 41  1  0  0  0  0
 21 22  1  0  0  0  0
 21 42  1  0  0  0  0
 22 23  2  0  0  0  0
 22 43  1  0  0  0  0
 23 24  1  0  0  0  0
M  END
> <s_m_source_file>
AV-unprocessed.smi

> <i_m_source_file_index>
1291

> <i_lp_mmshare_version>
43012

> <i_f3d_flags>
0

> <s_epik_input>
W2NIXTFbY0hdW2NIXVtjSF1jKGMxMiluKGMobjIpW0NIMl1bT0hdKVtDSDJdW0NASF0oW09IXSlbQ0gyXU9bQ0gyXWMzW2NIXVtjSF1bY0hdW2NIXWMzRg==

> <s_epik_cmdline>
J2VwaWtfcHl0aG9uJywgJy1waCcsICc3LjAnLCAnLXRuJywgJzgnLCAnLW1hJywgJzIwMCcsICctbWV0YWxfYmluZGluZycsICctaW1hZScsICc8aW5maWxlLm1hZT4nLCAnLW9tYWUnLCAnPG91dGZpbGUubWFlPic=

> <r_epik_Ionization_Penalty>
0.0649918

> <r_epik_Ionization_Penalty_Charging>
0

> <r_epik_Ionization_Penalty_Neutral>
0.0649918

> <r_epik_State_Penalty>
0.0565791

> <r_epik_Charging_Adjusted_Penalty>
0.0565791

> <i_epik_Tot_Q>
0

> <i_epik_Tot_abs_Q>
0

> <r_epik_Metal_State_Penalty>
5.93658e-05

> <b_epik_Metal_Only>
0

> <s_lp_Force_Field>
OPLS_2005

> <r_lp_Energy>
17.1818

> <b_lp_Chiralities_Consistent>
1

> <s_lp_Variant>
AV-unprocessed.smi:1291-2

> <Gold.Version>
5.8.1

> <Gold.Id.Protein>
6NUR|6NUR_protein|mol2

> <Gold.PLP.Fitness>
57.9630

> <Gold.PLP.PLP>
-50.7877

> <Gold.PLP.part.hbond>
-5.1629

> <Gold.PLP.part.metal>
0.0000

> <Gold.PLP.part.buried>
-4.5664

> <Gold.PLP.part.nonpolar>
-40.6761

> <Gold.PLP.part.repulsive>
0.0672

> <Gold.PLP.ligand.clash>
0.0000

> <Gold.PLP.ligand.torsion>
1.0139

> <Gold.PLP.Chemscore.Hbond>
3.0000

> <Gold.PLP.Chemscore.CHOScore>
0.0000

> <Gold.PLP.Chemscore.Metal>
0.0000

> <Gold.Chemscore.Hbonds>
donor molecule, donor type, donor heavy atom, donor atom, acceptor molecule, acceptor atom, score
      L1  H     1    25       P1  7957  0.99
      P1  H  6896  6908       L1    16  1.00
      P1  H  7989  7998       L1     4  1.00

> <Gold.PLP.Chemscore.Internal.Correction>
0.2031

> <Gold.Rescore>
     Score         DG    S(hbond)    S(metal)    S(lipo)     H(rot)  DE(clash)    DE(int)     intcor
     16.27     -17.42       1.97        0.00     118.67       3.33       0.20       0.95       ----

> <Gold.Chemscore.Fitness>
16.2655

> <Gold.Chemscore.DG>
-17.4160

> <Gold.Chemscore.ZeroCoef>
-5.4800

> <Gold.Chemscore.Hbond>
1.9703

> <Gold.Chemscore.Metal>
0.0000

> <Gold.Chemscore.Lipo>
118.6662

> <Gold.Chemscore.Internal_Hbond>
0.0000

> <Gold.Chemscore.DEClash>
0.1957

> <Gold.Chemscore.DEInternal>
0.9548

> <Gold.Chemscore.Rot>
3.3316

> <Gold.Chemscore.Internal.Correction>
   9.000000E+99

> <Gold.Chemscore.Hbonds>
donor molecule, donor type, donor heavy atom, donor atom, acceptor molecule, acceptor atom, score
      L1  H     1    25       P1  7957  0.60
      P1  H  6896  6908       L1    16  0.65
      P1  H  7989  7998       L1     4  0.33

> <Gold.Chemscore.Hbond.Weighted>
-6.5809

> <Gold.Chemscore.Metal.Weighted>
-0.0000

> <Gold.Chemscore.Lipo.Weighted>
-13.8839

> <Gold.Chemscore.Internal_Hbond.Weighted>
0.0000

> <Gold.Chemscore.DEClash.Weighted>
0.1957

> <Gold.Chemscore.DEInternal.Weighted>
0.9548

> <Gold.Chemscore.Rot.Weighted>
8.5288

> <Gold.Chemscore.Internal.Correction.Weighted>
   9.000000E+99

> <Gold.Protein.RotatedTorsions>
[ 6907 6896 6895 6894 ] final  168.30 input  -60.11 | X-H torsion
[ 7974 7965 7964 7962 ] final  141.63 input  175.53 | X-H torsion
[ 8008 7997 7996 7995 ] final   33.92 input   59.86 | X-H torsion
[ 10167 10162 10161 10158 ] final -101.39 input  -65.29 | X-H torsion
[ 10718 10713 10712 10709 ] final  169.82 input   66.30 | X-H torsion
[ 10763 10752 10751 10750 ] final   -6.54 input  -60.55 | X-H torsion
[ 11005 11000 10999 10996 ] final  -52.06 input  -57.11 | X-H torsion

> <Gold.Protein.ActiveResidues>
 VAL166  LYS551  ARG553  GLY616  TRP617  ASP618  TYR619  PRO620  LYS621  CYS622 
 ASP623  PHE694  ASN695  SER759  ASP760  ASP761  ALA762  ILE779  LEU786  VAL792 
 PHE793  MET794  SER795  GLU796  ALA797  LYS798  CYS799  TRP800  GLU811  SER814 

> <Gold.Protein.RotatedAtoms>
  151.8499  133.3438  159.3669 H   0  0  0  0  0  0  0  0  0  0  0  0  # atno 6907 bound_to 6896
  150.7209  134.5310  159.5709 H   0  0  0  0  0  0  0  0  0  0  0  0  # atno 6908 bound_to 6896
  152.2801  134.7839  160.0449 H   0  0  0  0  0  0  0  0  0  0  0  0  # atno 6909 bound_to 6896
  144.9079  139.5333  143.5722 H   0  0  0  0  0  0  0  0  0  0  0  0  # atno 7974 bound_to 7965
  155.1464  140.3271  155.4440 H   0  0  0  0  0  0  0  0  0  0  0  0  # atno 8008 bound_to 7997
  156.2588  140.1984  156.6528 H   0  0  0  0  0  0  0  0  0  0  0  0  # atno 8009 bound_to 7997
  154.6505  140.0559  156.9936 H   0  0  0  0  0  0  0  0  0  0  0  0  # atno 8010 bound_to 7997
  140.2418  143.3533  152.0795 H   0  0  0  0  0  0  0  0  0  0  0  0  # atno 10167 bound_to 10162
  157.0172  131.0221  151.2785 H   0  0  0  0  0  0  0  0  0  0  0  0  # atno 10718 bound_to 10713
  153.4137  135.7008  153.6341 H   0  0  0  0  0  0  0  0  0  0  0  0  # atno 10763 bound_to 10752
  153.4824  135.3690  155.2449 H   0  0  0  0  0  0  0  0  0  0  0  0  # atno 10764 bound_to 10752
  154.8718  135.4069  154.3494 H   0  0  0  0  0  0  0  0  0  0  0  0  # atno 10765 bound_to 10752
  141.0904  133.6634  156.3968 H   0  0  0  0  0  0  0  0  0  0  0  0  # atno 11005 bound_to 11000
  146.3143  139.7862  142.8995 LP  0  0  0  0  0  0  0  0  0  0  0  0  # atno 17320 bound_to 7965
  145.3504  141.0306  143.3342 LP  0  0  0  0  0  0  0  0  0  0  0  0  # atno 17321 bound_to 7965
  139.5075  144.6833  151.5954 LP  0  0  0  0  0  0  0  0  0  0  0  0  # atno 17342 bound_to 10162
  140.6108  143.9440  150.6451 LP  0  0  0  0  0  0  0  0  0  0  0  0  # atno 17343 bound_to 10162
  157.5277  130.8038  149.7881 LP  0  0  0  0  0  0  0  0  0  0  0  0  # atno 17370 bound_to 10713
  156.0115  130.3831  150.2249 LP  0  0  0  0  0  0  0  0  0  0  0  0  # atno 17371 bound_to 10713
  140.5265  134.6254  157.5336 LP  0  0  0  0  0  0  0  0  0  0  0  0  # atno 17394 bound_to 11000
  139.9729  134.7263  156.0006 LP  0  0  0  0  0  0  0  0  0  0  0  0  # atno 17395 bound_to 11000

$$$$
