AV-unprocessed.smi:3287|AV-procd|sdf|12592|dock2
  -GOLD-   2272018513D 1   1.00000     0.00000
 Structure written by MMmdl.
 43 44  0  0  0  0  0  0  0  0  2 V2000
  144.3426  132.1861  151.2518 C   0  0  0  0  0  0  0  0  0  0  0  0
  144.2618  133.7152  151.0951 C   0  0  2  0  0  0  0  0  0  0  0  0
  145.6380  134.2706  150.6757 C   0  0  0  0  0  0  0  0  0  0  0  0
  145.6210  135.7975  150.4977 C   0  0  0  0  0  0  0  0  0  0  0  0
  145.1210  136.5202  151.7597 C   0  0  2  0  0  0  0  0  0  0  0  0
  146.1251  136.4217  152.8444 N   0  3  0  0  0  0  0  0  0  0  0  0
  146.3395  137.6555  153.6312 C   0  0  0  0  0  0  0  0  0  0  0  0
  146.8214  138.8114  152.7379 C   0  0  2  0  0  0  0  0  0  0  0  0
  147.5611  138.2723  151.6589 O   0  0  0  0  0  0  0  0  0  0  0  0
  147.6375  139.8170  153.5347 C   0  0  0  0  0  0  0  0  0  0  0  0
  148.8377  139.4252  154.1640 C   0  0  0  0  0  0  0  0  0  0  0  0
  149.5664  140.3911  154.8866 C   0  0  0  0  0  0  0  0  0  0  0  0
  149.1756  141.6778  155.0067 N   0  0  0  0  0  0  0  0  0  0  0  0
  148.0275  142.0488  154.4006 C   0  0  0  0  0  0  0  0  0  0  0  0
  147.2257  141.1624  153.6544 C   0  0  0  0  0  0  0  0  0  0  0  0
  143.7454  135.9609  152.1786 C   0  0  0  0  0  0  0  0  0  0  0  0
  143.7496  134.4287  152.3744 C   0  0  1  0  0  0  0  0  0  0  0  0
  142.3495  133.9558  152.8045 C   0  0  0  0  0  0  0  0  0  0  0  0
  144.9714  131.9057  152.0973 H   0  0  0  0  0  0  0  0  0  0  0  0
  144.7637  131.7235  150.3588 H   0  0  0  0  0  0  0  0  0  0  0  0
  143.3593  131.7412  151.4018 H   0  0  0  0  0  0  0  0  0  0  0  0
  143.5604  133.9247  150.2857 H   0  0  0  0  0  0  0  0  0  0  0  0
  146.3873  133.9964  151.4194 H   0  0  0  0  0  0  0  0  0  0  0  0
  145.9556  133.8057  149.7415 H   0  0  0  0  0  0  0  0  0  0  0  0
  146.6150  136.1544  150.2252 H   0  0  0  0  0  0  0  0  0  0  0  0
  144.9696  136.0491  149.6594 H   0  0  0  0  0  0  0  0  0  0  0  0
  145.0109  137.5775  151.5135 H   0  0  0  0  0  0  0  0  0  0  0  0
  145.8531  135.6779  153.4718 H   0  0  0  0  0  0  0  0  0  0  0  0
  145.3981  137.9299  154.1092 H   0  0  0  0  0  0  0  0  0  0  0  0
  147.0622  137.4783  154.4277 H   0  0  0  0  0  0  0  0  0  0  0  0
  145.9572  139.3265  152.3157 H   0  0  0  0  0  0  0  0  0  0  0  0
  148.1583  137.6231  151.9994 H   0  0  0  0  0  0  0  0  0  0  0  0
  149.1980  138.4088  154.0978 H   0  0  0  0  0  0  0  0  0  0  0  0
  150.4889  140.1224  155.3800 H   0  0  0  0  0  0  0  0  0  0  0  0
  147.7396  143.0837  154.5116 H   0  0  0  0  0  0  0  0  0  0  0  0
  146.3172  141.5128  153.1865 H   0  0  0  0  0  0  0  0  0  0  0  0
  143.3880  136.4545  153.0818 H   0  0  0  0  0  0  0  0  0  0  0  0
  143.0185  136.2139  151.4052 H   0  0  0  0  0  0  0  0  0  0  0  0
  144.4341  134.1964  153.1914 H   0  0  0  0  0  0  0  0  0  0  0  0
  141.6214  134.0901  152.0042 H   0  0  0  0  0  0  0  0  0  0  0  0
  141.9959  134.5163  153.6702 H   0  0  0  0  0  0  0  0  0  0  0  0
  142.3462  132.9040  153.0890 H   0  0  0  0  0  0  0  0  0  0  0  0
  147.0097  136.1752  152.4240 H   0  0  0  0  0  0  0  0  0  0  0  0
  1  2  1  0  0  0  0
  1 19  1  0  0  0  0
  1 20  1  0  0  0  0
  1 21  1  0  0  0  0
  2 17  1  0  0  0  0
  2  3  1  0  0  0  0
  2 22  1  0  0  0  0
  3  4  1  0  0  0  0
  3 23  1  0  0  0  0
  3 24  1  0  0  0  0
  4  5  1  0  0  0  0
  4 25  1  0  0  0  0
  4 26  1  0  0  0  0
  5  6  1  0  0  0  0
  5 16  1  0  0  0  0
  5 27  1  0  0  0  0
  6  7  1  0  0  0  0
  6 28  1  0  0  0  0
  6 43  1  0  0  0  0
  7  8  1  0  0  0  0
  7 29  1  0  0  0  0
  7 30  1  0  0  0  0
  8  9  1  0  0  0  0
  8 10  1  0  0  0  0
  8 31  1  0  0  0  0
  9 32  1  0  0  0  0
 10 15  1  0  0  0  0
 10 11  2  0  0  0  0
 11 12  1  0  0  0  0
 11 33  1  0  0  0  0
 12 13  2  0  0  0  0
 12 34  1  0  0  0  0
 13 14  1  0  0  0  0
 14 15  2  0  0  0  0
 14 35  1  0  0  0  0
 15 36  1  0  0  0  0
 16 17  1  0  0  0  0
 16 37  1  0  0  0  0
 16 38  1  0  0  0  0
 17 18  1  0  0  0  0
 17 39  1  0  0  0  0
 18 40  1  0  0  0  0
 18 41  1  0  0  0  0
 18 42  1  0  0  0  0
M  CHG  1   6   1
M  END
> <s_m_source_file>
AV-unprocessed.smi

> <i_m_source_file_index>
3287

> <i_lp_mmshare_version>
43012

> <i_f3d_flags>
0

> <s_epik_input>
W0NIM11bQ0BASF0xW0NIMl1bQ0gyXVtDQEhdKFtDSDJdW0NASF0xW0NIM10pW05IXVtDSDJdW0NASF0oW09IXSljMltjSF1bY0hdbltjSF1bY0hdMg==

> <s_epik_cmdline>
J2VwaWtfcHl0aG9uJywgJy1waCcsICc3LjAnLCAnLXRuJywgJzgnLCAnLW1hJywgJzIwMCcsICctbWV0YWxfYmluZGluZycsICctaW1hZScsICc8aW5maWxlLm1hZT4nLCAnLW9tYWUnLCAnPG91dGZpbGUubWFlPic=

> <r_lp_tautomer_probability>
1

> <r_epik_Ionization_Penalty>
0.00537262

> <r_epik_Ionization_Penalty_Charging>
0.00321624

> <r_epik_Ionization_Penalty_Neutral>
0.00215638

> <r_epik_State_Penalty>
-0

> <r_epik_Charging_Adjusted_Penalty>
0.00321624

> <i_epik_Tot_Q>
1

> <i_epik_Tot_abs_Q>
1

> <r_epik_Metal_State_Penalty>
-0

> <b_epik_Metal_Only>
0

> <s_lp_Force_Field>
OPLS_2005

> <r_lp_Energy>
19.3861

> <b_lp_Chiralities_Consistent>
1

> <s_lp_Variant>
AV-unprocessed.smi:3287-3

> <Gold.Version>
5.8.1

> <Gold.Id.Protein>
6NUR|6NUR_protein|mol2

> <Gold.PLP.Fitness>
45.7167

> <Gold.PLP.PLP>
-33.9306

> <Gold.PLP.part.hbond>
-3.5304

> <Gold.PLP.part.metal>
0.0000

> <Gold.PLP.part.buried>
2.7373

> <Gold.PLP.part.nonpolar>
-32.6435

> <Gold.PLP.part.repulsive>
0.1494

> <Gold.PLP.ligand.clash>
0.0000

> <Gold.PLP.ligand.torsion>
0.9064

> <Gold.PLP.Chemscore.Hbond>
3.5250

> <Gold.PLP.Chemscore.CHOScore>
0.9972

> <Gold.PLP.Chemscore.Metal>
0.0000

> <Gold.Chemscore.Hbonds>
donor molecule, donor type, donor heavy atom, donor atom, acceptor molecule, acceptor atom, score
      L1  H     6    43       P1  7948  2.00
      L1  H     9    32       P1  7948  0.99
      P1  H  7954  7966       L1     9  0.45
      L1  C    14    35       P1  8028  0.97

> <Gold.PLP.Chemscore.Internal.Correction>
0.0326

> <Gold.Rescore>
     Score         DG    S(hbond)    S(metal)    S(lipo)     H(rot)  DE(clash)    DE(int)     intcor
     14.77     -18.21       1.95        0.00      94.83       1.90       1.32       2.12       ----

> <Gold.Chemscore.Fitness>
14.7690

> <Gold.Chemscore.DG>
-18.2067

> <Gold.Chemscore.ZeroCoef>
-5.4800

> <Gold.Chemscore.Hbond>
1.9474

> <Gold.Chemscore.Metal>
0.0000

> <Gold.Chemscore.Lipo>
94.8311

> <Gold.Chemscore.Internal_Hbond>
0.0000

> <Gold.Chemscore.DEClash>
1.3182

> <Gold.Chemscore.DEInternal>
2.1195

> <Gold.Chemscore.Rot>
1.9035

> <Gold.Chemscore.Internal.Correction>
   9.000000E+99

> <Gold.Chemscore.Hbonds>
donor molecule, donor type, donor heavy atom, donor atom, acceptor molecule, acceptor atom, score
      L1  H     6    43       P1  7948  0.95
      L1  H     9    32       P1  7948  0.92
      P1  H  7954  7966       L1     9  0.02

> <Gold.Chemscore.Hbond.Weighted>
-6.5043

> <Gold.Chemscore.Metal.Weighted>
-0.0000

> <Gold.Chemscore.Lipo.Weighted>
-11.0952

> <Gold.Chemscore.Internal_Hbond.Weighted>
0.0000

> <Gold.Chemscore.DEClash.Weighted>
1.3182

> <Gold.Chemscore.DEInternal.Weighted>
2.1195

> <Gold.Chemscore.Rot.Weighted>
4.8729

> <Gold.Chemscore.Internal.Correction.Weighted>
   9.000000E+99

> <Gold.Protein.RotatedTorsions>
[ 6907 6896 6895 6894 ] final  -47.43 input  -60.11 | X-H torsion
[ 7974 7965 7964 7962 ] final -133.36 input  175.53 | X-H torsion
[ 8008 7997 7996 7995 ] final   21.63 input   59.86 | X-H torsion
[ 10167 10162 10161 10158 ] final  -50.58 input  -65.29 | X-H torsion
[ 10718 10713 10712 10709 ] final  -95.53 input   66.30 | X-H torsion
[ 10763 10752 10751 10750 ] final  162.25 input  -60.55 | X-H torsion
[ 11005 11000 10999 10996 ] final -121.28 input  -57.11 | X-H torsion

> <Gold.Protein.ActiveResidues>
 VAL166  LYS551  ARG553  GLY616  TRP617  ASP618  TYR619  PRO620  LYS621  CYS622 
 ASP623  PHE694  ASN695  SER759  ASP760  ASP761  ALA762  ILE779  LEU786  VAL792 
 PHE793  MET794  SER795  GLU796  ALA797  LYS798  CYS799  TRP800  GLU811  SER814 

> <Gold.Protein.RotatedAtoms>
  150.9009  134.8421  159.7358 H   0  0  0  0  0  0  0  0  0  0  0  0  # atno 6907 bound_to 6896
  152.4891  134.4504  159.9582 H   0  0  0  0  0  0  0  0  0  0  0  0  # atno 6908 bound_to 6896
  151.4556  133.3567  159.2837 H   0  0  0  0  0  0  0  0  0  0  0  0  # atno 6909 bound_to 6896
  144.9201  140.7003  143.4971 H   0  0  0  0  0  0  0  0  0  0  0  0  # atno 7974 bound_to 7965
  154.9534  140.3068  155.5064 H   0  0  0  0  0  0  0  0  0  0  0  0  # atno 8008 bound_to 7997
  156.2985  140.2314  156.4552 H   0  0  0  0  0  0  0  0  0  0  0  0  # atno 8009 bound_to 7997
  154.8033  140.0433  157.1277 H   0  0  0  0  0  0  0  0  0  0  0  0  # atno 8010 bound_to 7997
  140.6630  143.2652  151.4380 H   0  0  0  0  0  0  0  0  0  0  0  0  # atno 10167 bound_to 10162
  156.0045  130.5113  150.6091 H   0  0  0  0  0  0  0  0  0  0  0  0  # atno 10718 bound_to 10713
  154.2754  135.2764  155.2720 H   0  0  0  0  0  0  0  0  0  0  0  0  # atno 10763 bound_to 10752
  154.5265  135.5742  153.6726 H   0  0  0  0  0  0  0  0  0  0  0  0  # atno 10764 bound_to 10752
  152.9938  135.6217  154.2911 H   0  0  0  0  0  0  0  0  0  0  0  0  # atno 10765 bound_to 10752
  141.0082  134.0303  157.3449 H   0  0  0  0  0  0  0  0  0  0  0  0  # atno 11005 bound_to 11000
  145.3311  139.1759  143.4536 LP  0  0  0  0  0  0  0  0  0  0  0  0  # atno 17320 bound_to 7965
  146.3200  140.3341  142.8642 LP  0  0  0  0  0  0  0  0  0  0  0  0  # atno 17321 bound_to 7965
  139.5870  144.1582  152.2041 LP  0  0  0  0  0  0  0  0  0  0  0  0  # atno 17342 bound_to 10162
  140.0925  144.5608  150.7045 LP  0  0  0  0  0  0  0  0  0  0  0  0  # atno 17343 bound_to 10162
  157.3926  131.0798  151.1380 LP  0  0  0  0  0  0  0  0  0  0  0  0  # atno 17370 bound_to 10713
  157.2067  130.6419  149.5758 LP  0  0  0  0  0  0  0  0  0  0  0  0  # atno 17371 bound_to 10713
  139.9075  135.0183  156.7549 LP  0  0  0  0  0  0  0  0  0  0  0  0  # atno 17394 bound_to 11000
  140.6777  133.9502  155.7893 LP  0  0  0  0  0  0  0  0  0  0  0  0  # atno 17395 bound_to 11000

$$$$
