AV-unprocessed.smi:218|AV-procd|sdf|1664|dock2
  -GOLD-   2262020 63D 1   1.00000     0.00000
 Structure written by MMmdl.
 54 57  0  0  0  0  0  0  0  0  1 V2000
  152.0799  143.4399  160.4264 C   0  0  0  0  0  0  0  0  0  0  0  0
  152.4883  143.7906  158.9905 C   0  0  0  0  0  0  0  0  0  0  0  0
  151.7865  145.0726  158.5101 C   0  0  0  0  0  0  0  0  0  0  0  0
  152.1137  142.6818  158.1708 O   0  0  0  0  0  0  0  0  0  0  0  0
  150.7864  142.4730  157.8489 C   0  0  0  0  0  0  0  0  0  0  0  0
  150.4895  141.8193  156.6358 C   0  0  0  0  0  0  0  0  0  0  0  0
  149.1387  141.6102  156.2844 C   0  0  0  0  0  0  0  0  0  0  0  0
  148.7600  140.9206  154.9825 C   0  0  0  0  0  0  0  0  0  0  0  0
  147.3839  140.4382  154.9120 N   0  0  0  0  0  0  0  0  0  0  0  0
  147.1243  139.1150  155.0001 C   0  0  0  0  0  0  0  0  0  0  0  0
  147.2939  138.4446  156.1696 N   0  0  0  0  0  0  0  0  0  0  0  0
  147.0227  137.1378  156.2352 C   0  0  0  0  0  0  0  0  0  0  0  0
  146.5848  136.3271  155.2693 N   0  0  0  0  0  0  0  0  0  0  0  0
  146.4195  136.9946  154.0906 C   0  0  0  0  0  0  0  0  0  0  0  0
  146.6687  138.3789  153.8763 C   0  0  0  0  0  0  0  0  0  0  0  0
  146.3893  138.7094  152.5567 N   0  0  0  0  0  0  0  0  0  0  0  0
  145.9947  137.5829  152.0264 C   0  0  0  0  0  0  0  0  0  0  0  0
  145.9843  136.5002  152.8779 N   0  0  0  0  0  0  0  0  0  0  0  0
  145.5766  135.0977  152.5648 C   0  0  2  0  0  0  0  0  0  0  0  0
  146.5515  134.5436  151.7320 O   0  0  0  0  0  0  0  0  0  0  0  0
  145.9401  133.7564  150.7169 C   0  0  1  0  0  0  0  0  0  0  0  0
  145.8103  132.3072  151.2333 C   0  0  0  0  0  0  0  0  0  0  0  0
  147.0444  131.8432  151.7394 O   0  0  0  0  0  0  0  0  0  0  0  0
  144.6286  134.5102  150.4528 C   0  0  1  0  0  0  0  0  0  0  0  0
  143.6213  133.7469  149.8137 O   0  0  0  0  0  0  0  0  0  0  0  0
  144.2294  135.0638  151.8203 C   0  0  1  0  0  0  0  0  0  0  0  0
  143.2985  134.2307  152.4876 O   0  0  0  0  0  0  0  0  0  0  0  0
  148.1376  142.0531  157.1712 C   0  0  0  0  0  0  0  0  0  0  0  0
  148.5314  142.6957  158.3608 C   0  0  0  0  0  0  0  0  0  0  0  0
  149.8212  142.9062  158.6976 N   0  0  0  0  0  0  0  0  0  0  0  0
  145.5583  134.5883  153.5295 H   0  0  0  0  0  0  0  0  0  0  0  0
  146.5821  133.7696  149.8349 H   0  0  0  0  0  0  0  0  0  0  0  0
  144.8545  135.3523  149.7983 H   0  0  0  0  0  0  0  0  0  0  0  0
  143.8010  136.0637  151.7354 H   0  0  0  0  0  0  0  0  0  0  0  0
  152.3477  144.2388  161.1183 H   0  0  0  0  0  0  0  0  0  0  0  0
  152.5785  142.5302  160.7618 H   0  0  0  0  0  0  0  0  0  0  0  0
  151.0044  143.2773  160.5029 H   0  0  0  0  0  0  0  0  0  0  0  0
  153.5699  143.9336  158.9887 H   0  0  0  0  0  0  0  0  0  0  0  0
  152.0316  145.9165  159.1553 H   0  0  0  0  0  0  0  0  0  0  0  0
  150.7027  144.9530  158.5164 H   0  0  0  0  0  0  0  0  0  0  0  0
  152.0823  145.3414  157.4965 H   0  0  0  0  0  0  0  0  0  0  0  0
  151.2885  141.4920  155.9869 H   0  0  0  0  0  0  0  0  0  0  0  0
  148.9102  141.6299  154.1685 H   0  0  0  0  0  0  0  0  0  0  0  0
  149.4414  140.0902  154.7932 H   0  0  0  0  0  0  0  0  0  0  0  0
  146.6706  141.1403  155.0462 H   0  0  0  0  0  0  0  0  0  0  0  0
  147.1767  136.6766  157.1995 H   0  0  0  0  0  0  0  0  0  0  0  0
  145.6982  137.5109  150.9901 H   0  0  0  0  0  0  0  0  0  0  0  0
  145.0902  132.2722  152.0513 H   0  0  0  0  0  0  0  0  0  0  0  0
  145.4465  131.6285  150.4624 H   0  0  0  0  0  0  0  0  0  0  0  0
  147.5247  131.4358  151.0344 H   0  0  0  0  0  0  0  0  0  0  0  0
  142.8102  134.2310  149.8495 H   0  0  0  0  0  0  0  0  0  0  0  0
  143.1712  133.4500  151.9708 H   0  0  0  0  0  0  0  0  0  0  0  0
  147.0909  141.9107  156.9451 H   0  0  0  0  0  0  0  0  0  0  0  0
  147.7897  143.0498  159.0615 H   0  0  0  0  0  0  0  0  0  0  0  0
  1  2  1  0  0  0  0
  1 35  1  0  0  0  0
  1 36  1  0  0  0  0
  1 37  1  0  0  0  0
  2  3  1  0  0  0  0
  2  4  1  0  0  0  0
  2 38  1  0  0  0  0
  3 39  1  0  0  0  0
  3 40  1  0  0  0  0
  3 41  1  0  0  0  0
  4  5  1  0  0  0  0
  5 30  1  0  0  0  0
  5  6  2  0  0  0  0
  6  7  1  0  0  0  0
  6 42  1  0  0  0  0
  7  8  1  0  0  0  0
  7 28  2  0  0  0  0
  8  9  1  0  0  0  0
  8 43  1  0  0  0  0
  8 44  1  0  0  0  0
  9 10  1  0  0  0  0
  9 45  1  0  0  0  0
 10 15  1  0  0  0  0
 10 11  2  0  0  0  0
 11 12  1  0  0  0  0
 12 13  2  0  0  0  0
 12 46  1  0  0  0  0
 13 14  1  0  0  0  0
 14 18  1  0  0  0  0
 14 15  2  0  0  0  0
 15 16  1  0  0  0  0
 16 17  2  0  0  0  0
 17 18  1  0  0  0  0
 17 47  1  0  0  0  0
 18 19  1  0  0  0  0
 19 31  1  0  0  0  0
 19 26  1  0  0  0  0
 19 20  1  0  0  0  0
 20 21  1  0  0  0  0
 21 32  1  0  0  0  0
 21 22  1  0  0  0  0
 21 24  1  0  0  0  0
 22 23  1  0  0  0  0
 22 48  1  0  0  0  0
 22 49  1  0  0  0  0
 23 50  1  0  0  0  0
 24 33  1  0  0  0  0
 24 25  1  0  0  0  0
 24 26  1  0  0  0  0
 25 51  1  0  0  0  0
 26 34  1  0  0  0  0
 26 27  1  0  0  0  0
 27 52  1  0  0  0  0
 28 29  1  0  0  0  0
 28 53  1  0  0  0  0
 29 30  2  0  0  0  0
 29 54  1  0  0  0  0
M  END
> <s_m_source_file>
AV-unprocessed.smi

> <i_m_source_file_index>
218

> <i_lp_mmshare_version>
43012

> <i_f3d_flags>
0

> <s_epik_input>
W0NIM11bQ0hdKFtDSDNdKU9jMVtjSF1jKFtjSF1bY0hdbjEpW0NIMl1bTkhdYyhuW2NIXW4yKWMoYzIzKW5bY0hdbjNbQ0BASF00T1tDQEhdKFtDSDJdW09IXSlbQ0BASF0oW09IXSlbQ0BIXTRbT0hd

> <s_epik_cmdline>
J2VwaWtfcHl0aG9uJywgJy1waCcsICc3LjAnLCAnLXRuJywgJzgnLCAnLW1hJywgJzIwMCcsICctbWV0YWxfYmluZGluZycsICctaW1hZScsICc8aW5maWxlLm1hZT4nLCAnLW9tYWUnLCAnPG91dGZpbGUubWFlPic=

> <r_lp_tautomer_probability>
1

> <r_epik_Ionization_Penalty>
0.00457014

> <r_epik_Ionization_Penalty_Charging>
0

> <r_epik_Ionization_Penalty_Neutral>
0.00457014

> <r_epik_State_Penalty>
-0

> <r_epik_Charging_Adjusted_Penalty>
0

> <i_epik_Tot_Q>
0

> <i_epik_Tot_abs_Q>
0

> <r_epik_Metal_State_Penalty>
-0

> <b_epik_Metal_Only>
0

> <s_epik_Chemistry_Notes>
This compound contains an acetal/aminal-like group ( X-CH(R)-Y where X, Y are N, S, or O) that may be acid/base labile, releasing an aldehyde.

> <s_lp_Force_Field>
OPLS_2005

> <r_lp_Energy>
44.1408

> <b_lp_Chiralities_Consistent>
1

> <s_lp_Variant>
AV-unprocessed.smi:218-3

> <Gold.Version>
5.8.1

> <Gold.Id.Protein>
6NUR|6NUR_protein|mol2

> <Gold.PLP.Fitness>
46.6175

> <Gold.PLP.PLP>
-40.9437

> <Gold.PLP.part.hbond>
-2.2034

> <Gold.PLP.part.metal>
0.0000

> <Gold.PLP.part.buried>
-6.8854

> <Gold.PLP.part.nonpolar>
-32.8963

> <Gold.PLP.part.repulsive>
1.2899

> <Gold.PLP.ligand.clash>
0.0000

> <Gold.PLP.ligand.torsion>
1.7166

> <Gold.PLP.Chemscore.Hbond>
2.0000

> <Gold.PLP.Chemscore.CHOScore>
1.0000

> <Gold.PLP.Chemscore.Metal>
0.0000

> <Gold.Chemscore.Hbonds>
donor molecule, donor type, donor heavy atom, donor atom, acceptor molecule, acceptor atom, score
      L1  H    23    50       P1 10747  1.00
      L1  H    25    51       P1 10186  1.00
      L1  C    17    47       P1 10171  1.00

> <Gold.PLP.Chemscore.Internal.Correction>
0.1071

> <Gold.Rescore>
     Score         DG    S(hbond)    S(metal)    S(lipo)     H(rot)  DE(clash)    DE(int)     intcor
      6.67      -9.91       1.97        0.00      88.92       4.90       0.17       3.07       ----

> <Gold.Chemscore.Fitness>
6.6689

> <Gold.Chemscore.DG>
-9.9104

> <Gold.Chemscore.ZeroCoef>
-5.4800

> <Gold.Chemscore.Hbond>
1.9695

> <Gold.Chemscore.Metal>
0.0000

> <Gold.Chemscore.Lipo>
88.9210

> <Gold.Chemscore.Internal_Hbond>
0.0000

> <Gold.Chemscore.DEClash>
0.1731

> <Gold.Chemscore.DEInternal>
3.0684

> <Gold.Chemscore.Rot>
4.9029

> <Gold.Chemscore.Internal.Correction>
   9.000000E+99

> <Gold.Chemscore.Hbonds>
donor molecule, donor type, donor heavy atom, donor atom, acceptor molecule, acceptor atom, score
      L1  H    23    50       P1 10747  0.98
      L1  H    25    51       P1 10186  0.96

> <Gold.Chemscore.Hbond.Weighted>
-6.5782

> <Gold.Chemscore.Metal.Weighted>
-0.0000

> <Gold.Chemscore.Lipo.Weighted>
-10.4038

> <Gold.Chemscore.Internal_Hbond.Weighted>
0.0000

> <Gold.Chemscore.DEClash.Weighted>
0.1731

> <Gold.Chemscore.DEInternal.Weighted>
3.0684

> <Gold.Chemscore.Rot.Weighted>
12.5515

> <Gold.Chemscore.Internal.Correction.Weighted>
   9.000000E+99

> <Gold.Protein.RotatedTorsions>
[ 6907 6896 6895 6894 ] final  -94.54 input  -60.11 | X-H torsion
[ 7974 7965 7964 7962 ] final  -25.79 input  175.53 | X-H torsion
[ 8008 7997 7996 7995 ] final  168.81 input   59.86 | X-H torsion
[ 10167 10162 10161 10158 ] final -150.28 input  -65.29 | X-H torsion
[ 10718 10713 10712 10709 ] final  111.17 input   66.30 | X-H torsion
[ 10763 10752 10751 10750 ] final  101.71 input  -60.55 | X-H torsion
[ 11005 11000 10999 10996 ] final  153.34 input  -57.11 | X-H torsion

> <Gold.Protein.ActiveResidues>
 VAL166  LYS551  ARG553  GLY616  TRP617  ASP618  TYR619  PRO620  LYS621  CYS622 
 ASP623  PHE694  ASN695  SER759  ASP760  ASP761  ALA762  ILE779  LEU786  VAL792 
 PHE793  MET794  SER795  GLU796  ALA797  LYS798  CYS799  TRP800  GLU811  SER814 

> <Gold.Protein.RotatedAtoms>
  150.6944  134.1797  159.4243 H   0  0  0  0  0  0  0  0  0  0  0  0  # atno 6907 bound_to 6896
  151.9772  135.0044  160.0565 H   0  0  0  0  0  0  0  0  0  0  0  0  # atno 6908 bound_to 6896
  152.1788  133.4658  159.4984 H   0  0  0  0  0  0  0  0  0  0  0  0  # atno 6909 bound_to 6896
  146.1468  140.4934  142.8628 H   0  0  0  0  0  0  0  0  0  0  0  0  # atno 7974 bound_to 7965
  156.1514  140.1580  156.8764 H   0  0  0  0  0  0  0  0  0  0  0  0  # atno 8008 bound_to 7997
  154.5074  140.0809  156.7959 H   0  0  0  0  0  0  0  0  0  0  0  0  # atno 8009 bound_to 7997
  155.3889  140.3409  155.4252 H   0  0  0  0  0  0  0  0  0  0  0  0  # atno 8010 bound_to 7997
  139.7368  143.8723  152.2551 H   0  0  0  0  0  0  0  0  0  0  0  0  # atno 10167 bound_to 10162
  157.6458  131.0946  150.6709 H   0  0  0  0  0  0  0  0  0  0  0  0  # atno 10718 bound_to 10713
  153.3301  135.4035  155.1488 H   0  0  0  0  0  0  0  0  0  0  0  0  # atno 10763 bound_to 10752
  154.8621  135.3608  154.5481 H   0  0  0  0  0  0  0  0  0  0  0  0  # atno 10764 bound_to 10752
  153.5920  135.7073  153.5479 H   0  0  0  0  0  0  0  0  0  0  0  0  # atno 10765 bound_to 10752
  140.1389  134.8752  157.2304 H   0  0  0  0  0  0  0  0  0  0  0  0  # atno 11005 bound_to 11000
  144.7856  140.5929  143.6576 LP  0  0  0  0  0  0  0  0  0  0  0  0  # atno 17320 bound_to 7965
  145.4919  139.1488  143.3705 LP  0  0  0  0  0  0  0  0  0  0  0  0  # atno 17321 bound_to 7965
  139.8662  144.7092  150.9041 LP  0  0  0  0  0  0  0  0  0  0  0  0  # atno 17342 bound_to 10162
  140.7780  143.3776  151.1535 LP  0  0  0  0  0  0  0  0  0  0  0  0  # atno 17343 bound_to 10162
  156.7026  130.4628  149.5569 LP  0  0  0  0  0  0  0  0  0  0  0  0  # atno 17370 bound_to 10713
  156.1785  130.6483  151.0923 LP  0  0  0  0  0  0  0  0  0  0  0  0  # atno 17371 bound_to 10713
  140.2747  134.3419  155.7362 LP  0  0  0  0  0  0  0  0  0  0  0  0  # atno 17394 bound_to 11000
  141.2183  133.7444  156.9276 LP  0  0  0  0  0  0  0  0  0  0  0  0  # atno 17395 bound_to 11000

$$$$
