AV-unprocessed.smi:2101|AV-procd|sdf|8580|dock3
  -GOLD-   2272011313D 1   1.00000     0.00000
 Structure written by MMmdl.
 42 43  0  0  0  0  0  0  0  0  2 V2000
  149.6959  133.2676  155.2361 C   0  0  0  0  0  0  0  0  0  0  0  0
  149.0536  133.9694  156.8104 S   0  0  0  0  0  0  0  0  0  0  0  0
  147.6274  133.6266  156.9197 O   0  0  0  0  0  0  0  0  0  0  0  0
  149.9782  133.5981  157.8927 O   0  0  0  0  0  0  0  0  0  0  0  0
  149.1721  135.6882  156.5734 N   0  0  0  0  0  0  0  0  0  0  0  0
  149.8611  136.5143  157.5916 C   0  0  0  0  0  0  0  0  0  0  0  0
  151.2562  136.9607  157.1124 C   0  0  0  0  0  0  0  0  0  0  0  0
  151.1169  137.6332  155.8142 N   0  0  0  0  0  0  0  0  0  0  0  0
  151.1530  138.9699  155.5898 C   0  0  0  0  0  0  0  0  0  0  0  0
  151.0874  139.4672  154.4645 O   0  0  0  0  0  0  0  0  0  0  0  0
  151.3113  139.7217  156.6929 N   0  0  0  0  0  0  0  0  0  0  0  0
  151.3932  141.1777  156.7075 C   0  0  0  0  0  0  0  0  0  0  0  0
  150.3579  141.7903  157.6658 C   0  0  0  0  0  0  0  0  0  0  0  0
  150.9370  142.9276  158.4837 C   0  0  0  0  0  0  0  0  0  0  0  0
  151.8137  142.7066  159.5682 C   0  0  0  0  0  0  0  0  0  0  0  0
  152.3203  143.8138  160.2809 C   0  0  0  0  0  0  0  0  0  0  0  0
  151.9395  145.1161  159.8953 C   0  0  0  0  0  0  0  0  0  0  0  0
  151.0619  145.2787  158.8039 C   0  0  0  0  0  0  0  0  0  0  0  0
  150.5994  144.1932  158.1453 N   0  3  0  0  0  0  0  0  0  0  0  0
  150.6355  136.6835  154.8093 C   0  0  0  0  0  0  0  0  0  0  0  0
  149.2152  136.2260  155.1941 C   0  0  0  0  0  0  0  0  0  0  0  0
  149.6620  132.1798  155.2903 H   0  0  0  0  0  0  0  0  0  0  0  0
  150.7264  133.5844  155.0832 H   0  0  0  0  0  0  0  0  0  0  0  0
  149.0775  133.6007  154.4039 H   0  0  0  0  0  0  0  0  0  0  0  0
  149.2462  137.3922  157.7940 H   0  0  0  0  0  0  0  0  0  0  0  0
  149.9411  135.9719  158.5330 H   0  0  0  0  0  0  0  0  0  0  0  0
  151.7248  137.5785  157.8784 H   0  0  0  0  0  0  0  0  0  0  0  0
  151.9143  136.0988  157.0010 H   0  0  0  0  0  0  0  0  0  0  0  0
  151.3783  139.2496  157.5830 H   0  0  0  0  0  0  0  0  0  0  0  0
  152.3999  141.4606  157.0168 H   0  0  0  0  0  0  0  0  0  0  0  0
  151.2596  141.5657  155.6961 H   0  0  0  0  0  0  0  0  0  0  0  0
  149.4992  142.1671  157.1080 H   0  0  0  0  0  0  0  0  0  0  0  0
  149.9730  141.0231  158.3389 H   0  0  0  0  0  0  0  0  0  0  0  0
  152.0977  141.7030  159.8503 H   0  0  0  0  0  0  0  0  0  0  0  0
  152.9933  143.6663  161.1131 H   0  0  0  0  0  0  0  0  0  0  0  0
  152.3155  145.9771  160.4286 H   0  0  0  0  0  0  0  0  0  0  0  0
  150.7185  146.2363  158.4400 H   0  0  0  0  0  0  0  0  0  0  0  0
  150.6303  137.1076  153.8043 H   0  0  0  0  0  0  0  0  0  0  0  0
  151.3136  135.8314  154.7604 H   0  0  0  0  0  0  0  0  0  0  0  0
  148.8518  135.4840  154.4838 H   0  0  0  0  0  0  0  0  0  0  0  0
  148.5291  137.0717  155.1331 H   0  0  0  0  0  0  0  0  0  0  0  0
  149.9660  144.3341  157.3577 H   0  0  0  0  0  0  0  0  0  0  0  0
  1  2  1  0  0  0  0
  1 22  1  0  0  0  0
  1 23  1  0  0  0  0
  1 24  1  0  0  0  0
  2  3  2  0  0  0  0
  2  4  2  0  0  0  0
  2  5  1  0  0  0  0
  5 21  1  0  0  0  0
  5  6  1  0  0  0  0
  6  7  1  0  0  0  0
  6 25  1  0  0  0  0
  6 26  1  0  0  0  0
  7  8  1  0  0  0  0
  7 27  1  0  0  0  0
  7 28  1  0  0  0  0
  8  9  1  0  0  0  0
  8 20  1  0  0  0  0
  9 10  2  0  0  0  0
  9 11  1  0  0  0  0
 11 12  1  0  0  0  0
 11 29  1  0  0  0  0
 12 13  1  0  0  0  0
 12 30  1  0  0  0  0
 12 31  1  0  0  0  0
 13 14  1  0  0  0  0
 13 32  1  0  0  0  0
 13 33  1  0  0  0  0
 14 19  1  0  0  0  0
 14 15  2  0  0  0  0
 15 16  1  0  0  0  0
 15 34  1  0  0  0  0
 16 17  2  0  0  0  0
 16 35  1  0  0  0  0
 17 18  1  0  0  0  0
 17 36  1  0  0  0  0
 18 19  2  0  0  0  0
 18 37  1  0  0  0  0
 19 42  1  0  0  0  0
 20 21  1  0  0  0  0
 20 38  1  0  0  0  0
 20 39  1  0  0  0  0
 21 40  1  0  0  0  0
 21 41  1  0  0  0  0
M  CHG  1  19   1
M  END
> <s_m_source_file>
AV-unprocessed.smi

> <i_m_source_file_index>
2101

> <i_lp_mmshare_version>
43012

> <i_f3d_flags>
0

> <s_epik_input>
W0NIM11TKD1PKSg9TylOMVtDSDJdW0NIMl1OKFtDSDJdW0NIMl0xKUMoPU8pW05IXVtDSDJdW0NIMl1jMltjSF1bY0hdW2NIXVtjSF1uMg==

> <s_epik_cmdline>
J2VwaWtfcHl0aG9uJywgJy1waCcsICc3LjAnLCAnLXRuJywgJzgnLCAnLW1hJywgJzIwMCcsICctbWV0YWxfYmluZGluZycsICctaW1hZScsICc8aW5maWxlLm1hZT4nLCAnLW9tYWUnLCAnPG91dGZpbGUubWFlPic=

> <r_epik_Ionization_Penalty>
1.56137

> <r_epik_Ionization_Penalty_Charging>
1.56133

> <r_epik_Ionization_Penalty_Neutral>
3.86464e-05

> <r_epik_State_Penalty>
1.65637

> <r_epik_Charging_Adjusted_Penalty>
3.2177

> <i_epik_Tot_Q>
1

> <i_epik_Tot_abs_Q>
1

> <r_epik_Metal_State_Penalty>
1.69784

> <b_epik_Metal_Only>
0

> <s_lp_Force_Field>
OPLS_2005

> <r_lp_Energy>
29.4976

> <b_lp_Chiralities_Consistent>
1

> <s_lp_Variant>
AV-unprocessed.smi:2101-2

> <Gold.Version>
5.8.1

> <Gold.Id.Protein>
6NUR|6NUR_protein|mol2

> <Gold.PLP.Fitness>
44.8368

> <Gold.PLP.PLP>
-34.1929

> <Gold.PLP.part.hbond>
-3.0162

> <Gold.PLP.part.metal>
0.0000

> <Gold.PLP.part.buried>
-5.6545

> <Gold.PLP.part.nonpolar>
-26.2951

> <Gold.PLP.part.repulsive>
0.2930

> <Gold.PLP.ligand.clash>
0.0000

> <Gold.PLP.ligand.torsion>
1.7179

> <Gold.PLP.Chemscore.Hbond>
3.9760

> <Gold.PLP.Chemscore.CHOScore>
0.0000

> <Gold.PLP.Chemscore.Metal>
0.0000

> <Gold.Chemscore.Hbonds>
donor molecule, donor type, donor heavy atom, donor atom, acceptor molecule, acceptor atom, score
      L1  H    19    42       P1  8028  2.00
      P1  H  6896  6909       L1     4  1.00
      P1  H  7989  7998       L1    10  1.00

> <Gold.PLP.Chemscore.Internal.Correction>
2.1518

> <Gold.Rescore>
     Score         DG    S(hbond)    S(metal)    S(lipo)     H(rot)  DE(clash)    DE(int)     intcor
     19.88     -21.76       2.80        0.00      91.45       1.47       0.13       1.76       ----

> <Gold.Chemscore.Fitness>
19.8751

> <Gold.Chemscore.DG>
-21.7589

> <Gold.Chemscore.ZeroCoef>
-5.4800

> <Gold.Chemscore.Hbond>
2.7982

> <Gold.Chemscore.Metal>
0.0000

> <Gold.Chemscore.Lipo>
91.4490

> <Gold.Chemscore.Internal_Hbond>
0.0000

> <Gold.Chemscore.DEClash>
0.1255

> <Gold.Chemscore.DEInternal>
1.7583

> <Gold.Chemscore.Rot>
1.4714

> <Gold.Chemscore.Internal.Correction>
   9.000000E+99

> <Gold.Chemscore.Hbonds>
donor molecule, donor type, donor heavy atom, donor atom, acceptor molecule, acceptor atom, score
      L1  H    19    42       P1  8028  0.42
      P1  H  6896  6909       L1     4  0.97
      P1  H  7989  7998       L1    10  1.00

> <Gold.Chemscore.Hbond.Weighted>
-9.3460

> <Gold.Chemscore.Metal.Weighted>
-0.0000

> <Gold.Chemscore.Lipo.Weighted>
-10.6995

> <Gold.Chemscore.Internal_Hbond.Weighted>
0.0000

> <Gold.Chemscore.DEClash.Weighted>
0.1255

> <Gold.Chemscore.DEInternal.Weighted>
1.7583

> <Gold.Chemscore.Rot.Weighted>
3.7667

> <Gold.Chemscore.Internal.Correction.Weighted>
   9.000000E+99

> <Gold.Protein.RotatedTorsions>
[ 6907 6896 6895 6894 ] final  -11.54 input  -60.11 | X-H torsion
[ 7974 7965 7964 7962 ] final   47.27 input  175.53 | X-H torsion
[ 8008 7997 7996 7995 ] final   46.06 input   59.86 | X-H torsion
[ 10167 10162 10161 10158 ] final  178.41 input  -65.29 | X-H torsion
[ 10718 10713 10712 10709 ] final  -12.37 input   66.30 | X-H torsion
[ 10763 10752 10751 10750 ] final  103.79 input  -60.55 | X-H torsion
[ 11005 11000 10999 10996 ] final -149.09 input  -57.11 | X-H torsion

> <Gold.Protein.ActiveResidues>
 VAL166  LYS551  ARG553  GLY616  TRP617  ASP618  TYR619  PRO620  LYS621  CYS622 
 ASP623  PHE694  ASN695  SER759  ASP760  ASP761  ALA762  ILE779  LEU786  VAL792 
 PHE793  MET794  SER795  GLU796  ALA797  LYS798  CYS799  TRP800  GLU811  SER814 

> <Gold.Protein.RotatedAtoms>
  151.3847  135.0946  159.9506 H   0  0  0  0  0  0  0  0  0  0  0  0  # atno 6907 bound_to 6896
  152.5098  133.9038  159.7464 H   0  0  0  0  0  0  0  0  0  0  0  0  # atno 6908 bound_to 6896
  150.9479  133.6527  159.2806 H   0  0  0  0  0  0  0  0  0  0  0  0  # atno 6909 bound_to 6896
  146.0313  139.4767  142.9836 H   0  0  0  0  0  0  0  0  0  0  0  0  # atno 7974 bound_to 7965
  155.3462  140.3411  155.4239 H   0  0  0  0  0  0  0  0  0  0  0  0  # atno 8008 bound_to 7997
  156.1787  140.1656  156.8349 H   0  0  0  0  0  0  0  0  0  0  0  0  # atno 8009 bound_to 7997
  154.5310  140.0745  156.8328 H   0  0  0  0  0  0  0  0  0  0  0  0  # atno 8010 bound_to 7997
  139.5293  144.2683  152.0649 H   0  0  0  0  0  0  0  0  0  0  0  0  # atno 10167 bound_to 10162
  156.6456  130.4940  149.6079 H   0  0  0  0  0  0  0  0  0  0  0  0  # atno 10718 bound_to 10713
  153.3574  135.3965  155.1692 H   0  0  0  0  0  0  0  0  0  0  0  0  # atno 10763 bound_to 10752
  154.8673  135.3671  154.5144 H   0  0  0  0  0  0  0  0  0  0  0  0  # atno 10764 bound_to 10752
  153.5600  135.7081  153.5612 H   0  0  0  0  0  0  0  0  0  0  0  0  # atno 10765 bound_to 10752
  140.7544  134.3370  157.5118 H   0  0  0  0  0  0  0  0  0  0  0  0  # atno 11005 bound_to 11000
  145.7036  141.0128  143.1491 LP  0  0  0  0  0  0  0  0  0  0  0  0  # atno 17320 bound_to 7965
  144.7032  139.8673  143.7438 LP  0  0  0  0  0  0  0  0  0  0  0  0  # atno 17321 bound_to 7965
  140.2144  144.4530  150.6371 LP  0  0  0  0  0  0  0  0  0  0  0  0  # atno 17342 bound_to 10162
  140.6460  143.2213  151.6185 LP  0  0  0  0  0  0  0  0  0  0  0  0  # atno 17343 bound_to 10162
  156.2124  130.6687  151.1284 LP  0  0  0  0  0  0  0  0  0  0  0  0  # atno 17370 bound_to 10713
  157.7157  131.0711  150.6335 LP  0  0  0  0  0  0  0  0  0  0  0  0  # atno 17371 bound_to 10713
  139.8782  134.9162  156.3149 LP  0  0  0  0  0  0  0  0  0  0  0  0  # atno 17394 bound_to 11000
  140.9721  133.7320  156.0550 LP  0  0  0  0  0  0  0  0  0  0  0  0  # atno 17395 bound_to 11000

$$$$
