AV-unprocessed.smi:778|AV-procd|sdf|3703|dock3
  -GOLD-   22720 1123D 1   1.00000     0.00000
 Structure written by MMmdl.
 40 41  0  0  0  0  0  0  0  0  1 V2000
  145.1371  133.6684  163.3148 N   0  0  0  0  0  0  0  0  0  0  0  0
  145.8056  134.2743  162.5905 C   0  0  0  0  0  0  0  0  0  0  0  0
  146.6472  135.0370  161.6787 C   0  0  0  0  0  0  0  0  0  0  0  0
  146.9875  136.3755  161.9708 C   0  0  0  0  0  0  0  0  0  0  0  0
  147.7656  137.1111  161.1479 N   0  0  0  0  0  0  0  0  0  0  0  0
  148.2004  136.5057  160.0396 C   0  0  0  0  0  0  0  0  0  0  0  0
  149.2280  137.4457  158.9229 S   0  0  0  0  0  0  0  0  0  0  0  0
  149.3122  136.3783  157.4515 C   0  0  0  0  0  0  0  0  0  0  0  0
  150.1155  137.0394  156.3285 C   0  0  0  0  0  0  0  0  0  0  0  0
  149.5130  138.2872  156.0196 O   0  0  0  0  0  0  0  0  0  0  0  0
  149.9665  138.9023  154.8194 C   0  0  0  0  0  0  0  0  0  0  0  0
  151.4391  139.3674  154.8795 C   0  0  0  0  0  0  0  0  0  0  0  0
  151.8049  140.2658  156.0707 C   0  0  0  0  0  0  0  0  0  0  0  0
  150.9945  141.5685  156.1685 C   0  0  0  0  0  0  0  0  0  0  0  0
  149.5586  141.3380  156.6618 C   0  0  0  0  0  0  0  0  0  0  0  0
  148.5327  140.9697  155.5746 C   0  0  0  0  0  0  0  0  0  0  0  0
  149.0034  140.0416  154.4360 C   0  0  0  0  0  0  0  0  0  0  0  0
  147.9460  135.2528  159.6553 N   0  0  0  0  0  0  0  0  0  0  0  0
  147.1685  134.5077  160.4709 C   0  0  0  0  0  0  0  0  0  0  0  0
  146.9146  133.1998  160.0536 N   0  0  0  0  0  0  0  0  0  0  0  0
  146.6363  136.8634  162.8687 H   0  0  0  0  0  0  0  0  0  0  0  0
  149.7777  135.4314  157.7263 H   0  0  0  0  0  0  0  0  0  0  0  0
  148.3023  136.1581  157.1039 H   0  0  0  0  0  0  0  0  0  0  0  0
  151.1501  137.1660  156.6469 H   0  0  0  0  0  0  0  0  0  0  0  0
  150.1170  136.3997  155.4449 H   0  0  0  0  0  0  0  0  0  0  0  0
  149.8990  138.1660  154.0165 H   0  0  0  0  0  0  0  0  0  0  0  0
  152.0939  138.4964  154.8927 H   0  0  0  0  0  0  0  0  0  0  0  0
  151.6864  139.8879  153.9537 H   0  0  0  0  0  0  0  0  0  0  0  0
  151.7155  139.7018  157.0000 H   0  0  0  0  0  0  0  0  0  0  0  0
  152.8611  140.5231  155.9858 H   0  0  0  0  0  0  0  0  0  0  0  0
  151.4963  142.2150  156.8891 H   0  0  0  0  0  0  0  0  0  0  0  0
  151.0033  142.1119  155.2230 H   0  0  0  0  0  0  0  0  0  0  0  0
  149.5617  140.5722  157.4385 H   0  0  0  0  0  0  0  0  0  0  0  0
  149.2067  142.2426  157.1591 H   0  0  0  0  0  0  0  0  0  0  0  0
  147.6732  140.5146  156.0680 H   0  0  0  0  0  0  0  0  0  0  0  0
  148.1527  141.8865  155.1227 H   0  0  0  0  0  0  0  0  0  0  0  0
  149.4600  140.6421  153.6486 H   0  0  0  0  0  0  0  0  0  0  0  0
  148.1139  139.6064  153.9789 H   0  0  0  0  0  0  0  0  0  0  0  0
  146.3437  132.5710  160.5999 H   0  0  0  0  0  0  0  0  0  0  0  0
  147.3059  132.8371  159.1960 H   0  0  0  0  0  0  0  0  0  0  0  0
  1  2  3  0  0  0  0
  2  3  1  0  0  0  0
  3 19  1  0  0  0  0
  3  4  2  0  0  0  0
  4  5  1  0  0  0  0
  4 21  1  0  0  0  0
  5  6  2  0  0  0  0
  6  7  1  0  0  0  0
  6 18  1  0  0  0  0
  7  8  1  0  0  0  0
  8  9  1  0  0  0  0
  8 22  1  0  0  0  0
  8 23  1  0  0  0  0
  9 10  1  0  0  0  0
  9 24  1  0  0  0  0
  9 25  1  0  0  0  0
 10 11  1  0  0  0  0
 11 17  1  0  0  0  0
 11 12  1  0  0  0  0
 11 26  1  0  0  0  0
 12 13  1  0  0  0  0
 12 27  1  0  0  0  0
 12 28  1  0  0  0  0
 13 14  1  0  0  0  0
 13 29  1  0  0  0  0
 13 30  1  0  0  0  0
 14 15  1  0  0  0  0
 14 31  1  0  0  0  0
 14 32  1  0  0  0  0
 15 16  1  0  0  0  0
 15 33  1  0  0  0  0
 15 34  1  0  0  0  0
 16 17  1  0  0  0  0
 16 35  1  0  0  0  0
 16 36  1  0  0  0  0
 17 37  1  0  0  0  0
 17 38  1  0  0  0  0
 18 19  2  0  0  0  0
 19 20  1  0  0  0  0
 20 39  1  0  0  0  0
 20 40  1  0  0  0  0
M  END
> <s_m_source_file>
AV-unprocessed.smi

> <i_m_source_file_index>
778

> <i_lp_mmshare_version>
43012

> <i_f3d_flags>
0

> <s_epik_input>
TiNDYzFbY0hdbmMobmMxW05IMl0pU1tDSDJdW0NIMl1PW0NIXTJbQ0gyXVtDSDJdW0NIMl1bQ0gyXVtDSDJdW0NIMl0y

> <s_epik_cmdline>
J2VwaWtfcHl0aG9uJywgJy1waCcsICc3LjAnLCAnLXRuJywgJzgnLCAnLW1hJywgJzIwMCcsICctbWV0YWxfYmluZGluZycsICctaW1hZScsICc8aW5maWxlLm1hZT4nLCAnLW9tYWUnLCAnPG91dGZpbGUubWFlPic=

> <r_lp_tautomer_probability>
1

> <r_epik_Ionization_Penalty>
5.1519e-05

> <r_epik_Ionization_Penalty_Charging>
0

> <r_epik_Ionization_Penalty_Neutral>
5.1519e-05

> <r_epik_State_Penalty>
-0

> <r_epik_Charging_Adjusted_Penalty>
0

> <i_epik_Tot_Q>
0

> <i_epik_Tot_abs_Q>
0

> <r_epik_Metal_State_Penalty>
-0

> <b_epik_Metal_Only>
0

> <s_lp_Force_Field>
OPLS_2005

> <r_lp_Energy>
14.4265

> <b_lp_Chiralities_Consistent>
1

> <s_lp_Variant>
AV-unprocessed.smi:778-1

> <Gold.Version>
5.8.1

> <Gold.Id.Protein>
6NUR|6NUR_protein|mol2

> <Gold.PLP.Fitness>
37.5000

> <Gold.PLP.PLP>
-32.4634

> <Gold.PLP.part.hbond>
-3.0000

> <Gold.PLP.part.metal>
0.0000

> <Gold.PLP.part.buried>
-3.9324

> <Gold.PLP.part.nonpolar>
-25.9438

> <Gold.PLP.part.repulsive>
0.1146

> <Gold.PLP.ligand.clash>
0.0000

> <Gold.PLP.ligand.torsion>
0.2012

> <Gold.PLP.Chemscore.Hbond>
1.8089

> <Gold.PLP.Chemscore.CHOScore>
0.0000

> <Gold.PLP.Chemscore.Metal>
0.0000

> <Gold.Chemscore.Hbonds>
donor molecule, donor type, donor heavy atom, donor atom, acceptor molecule, acceptor atom, score
      P1  H  6931  6943       L1     5  0.99
      P1  H  6934  6947       L1     5  0.85

> <Gold.PLP.Chemscore.Internal.Correction>
0.0125

> <Gold.Rescore>
     Score         DG    S(hbond)    S(metal)    S(lipo)     H(rot)  DE(clash)    DE(int)     intcor
     12.41     -12.59       1.48        0.00      67.98       2.26       0.03       0.15       ----

> <Gold.Chemscore.Fitness>
12.4137

> <Gold.Chemscore.DG>
-12.5880

> <Gold.Chemscore.ZeroCoef>
-5.4800

> <Gold.Chemscore.Hbond>
1.4760

> <Gold.Chemscore.Metal>
0.0000

> <Gold.Chemscore.Lipo>
67.9838

> <Gold.Chemscore.Internal_Hbond>
0.0000

> <Gold.Chemscore.DEClash>
0.0279

> <Gold.Chemscore.DEInternal>
0.1464

> <Gold.Chemscore.Rot>
2.2562

> <Gold.Chemscore.Internal.Correction>
   9.000000E+99

> <Gold.Chemscore.Hbonds>
donor molecule, donor type, donor heavy atom, donor atom, acceptor molecule, acceptor atom, score
      P1  H  6931  6943       L1     5  0.77
      P1  H  6934  6947       L1     5  0.67

> <Gold.Chemscore.Hbond.Weighted>
-4.9298

> <Gold.Chemscore.Metal.Weighted>
-0.0000

> <Gold.Chemscore.Lipo.Weighted>
-7.9541

> <Gold.Chemscore.Internal_Hbond.Weighted>
0.0000

> <Gold.Chemscore.DEClash.Weighted>
0.0279

> <Gold.Chemscore.DEInternal.Weighted>
0.1464

> <Gold.Chemscore.Rot.Weighted>
5.7759

> <Gold.Chemscore.Internal.Correction.Weighted>
   9.000000E+99

> <Gold.Protein.RotatedTorsions>
[ 6907 6896 6895 6894 ] final   26.46 input  -60.11 | X-H torsion
[ 7974 7965 7964 7962 ] final -168.59 input  175.53 | X-H torsion
[ 8008 7997 7996 7995 ] final  -10.89 input   59.86 | X-H torsion
[ 10167 10162 10161 10158 ] final   75.16 input  -65.29 | X-H torsion
[ 10718 10713 10712 10709 ] final -157.25 input   66.30 | X-H torsion
[ 10763 10752 10751 10750 ] final  137.13 input  -60.55 | X-H torsion
[ 11005 11000 10999 10996 ] final  -78.68 input  -57.11 | X-H torsion

> <Gold.Protein.ActiveResidues>
 VAL166  LYS551  ARG553  GLY616  TRP617  ASP618  TYR619  PRO620  LYS621  CYS622 
 ASP623  PHE694  ASN695  SER759  ASP760  ASP761  ALA762  ILE779  LEU786  VAL792 
 PHE793  MET794  SER795  GLU796  ALA797  LYS798  CYS799  TRP800  GLU811  SER814 

> <Gold.Protein.RotatedAtoms>
  151.9878  134.9995  160.0559 H   0  0  0  0  0  0  0  0  0  0  0  0  # atno 6907 bound_to 6896
  152.1637  133.4593  159.4882 H   0  0  0  0  0  0  0  0  0  0  0  0  # atno 6908 bound_to 6896
  150.6891  134.1957  159.4346 H   0  0  0  0  0  0  0  0  0  0  0  0  # atno 6909 bound_to 6896
  144.7200  140.2347  143.6299 H   0  0  0  0  0  0  0  0  0  0  0  0  # atno 7974 bound_to 7965
  154.5513  140.2317  155.8480 H   0  0  0  0  0  0  0  0  0  0  0  0  # atno 8008 bound_to 7997
  156.1949  140.3067  155.9368 H   0  0  0  0  0  0  0  0  0  0  0  0  # atno 8009 bound_to 7997
  155.3065  140.0433  157.3023 H   0  0  0  0  0  0  0  0  0  0  0  0  # atno 8010 bound_to 7997
  140.0060  144.5650  150.7698 H   0  0  0  0  0  0  0  0  0  0  0  0  # atno 10167 bound_to 10162
  156.5378  130.8549  151.2738 H   0  0  0  0  0  0  0  0  0  0  0  0  # atno 10718 bound_to 10713
  153.8679  135.3059  155.3441 H   0  0  0  0  0  0  0  0  0  0  0  0  # atno 10763 bound_to 10752
  154.7819  135.4831  153.9866 H   0  0  0  0  0  0  0  0  0  0  0  0  # atno 10764 bound_to 10752
  153.1423  135.6826  153.9103 H   0  0  0  0  0  0  0  0  0  0  0  0  # atno 10765 bound_to 10752
  141.1665  133.7073  156.8008 H   0  0  0  0  0  0  0  0  0  0  0  0  # atno 11005 bound_to 11000
  145.8377  139.2115  143.1845 LP  0  0  0  0  0  0  0  0  0  0  0  0  # atno 17320 bound_to 7965
  146.0374  140.8199  142.9846 LP  0  0  0  0  0  0  0  0  0  0  0  0  # atno 17321 bound_to 7965
  140.7400  143.2799  151.3630 LP  0  0  0  0  0  0  0  0  0  0  0  0  # atno 17342 bound_to 10162
  139.6238  144.0854  152.2416 LP  0  0  0  0  0  0  0  0  0  0  0  0  # atno 17343 bound_to 10162
  157.7411  130.9862  150.2420 LP  0  0  0  0  0  0  0  0  0  0  0  0  # atno 17370 bound_to 10713
  156.3000  130.3757  149.7759 LP  0  0  0  0  0  0  0  0  0  0  0  0  # atno 17371 bound_to 10713
  140.2258  134.8723  157.3425 LP  0  0  0  0  0  0  0  0  0  0  0  0  # atno 17394 bound_to 11000
  140.1941  134.4335  155.7699 LP  0  0  0  0  0  0  0  0  0  0  0  0  # atno 17395 bound_to 11000

$$$$
