AV-unprocessed.smi:648|AV-procd|sdf|3177|dock4
  -GOLD-   22720 0103D 1   1.00000     0.00000
 Structure written by MMmdl.
 45 46  0  0  0  0  0  0  0  0  1 V2000
  142.2016  135.1505  153.4757 C   0  0  0  0  0  0  0  0  0  0  0  0
  143.6757  135.1788  153.0455 C   0  0  1  0  0  0  0  0  0  0  0  0
  143.9831  134.0504  152.0452 C   0  0  0  0  0  0  0  0  0  0  0  0
  145.4569  134.0255  151.5807 C   0  0  0  0  0  0  0  0  0  0  0  0
  146.3815  133.5054  152.7054 C   0  0  0  0  0  0  0  0  0  0  0  0
  145.5815  133.0345  150.4050 C   0  0  0  0  0  0  0  0  0  0  0  0
  145.8790  135.4362  151.0779 C   0  0  0  0  0  0  0  0  0  0  0  0
  145.5362  136.6473  151.9955 C   0  0  2  0  0  0  0  0  0  0  0  0
  145.7720  137.9377  151.1532 C   0  0  0  0  0  0  0  0  0  0  0  0
  147.1227  138.1442  150.7860 O   0  0  0  0  0  0  0  0  0  0  0  0
  146.4822  136.6335  153.1293 N   0  0  0  0  0  0  0  0  0  0  0  0
  146.5022  137.7792  154.0407 C   0  0  0  0  0  0  0  0  0  0  0  0
  147.9380  138.0777  154.4910 C   0  0  0  0  0  0  0  0  0  0  0  0
  148.2319  139.4956  154.4398 N   0  0  0  0  0  0  0  0  0  0  0  0
  149.1632  140.1641  153.7578 C   0  0  0  0  0  0  0  0  0  0  0  0
  149.1321  141.4751  153.9539 N   0  0  0  0  0  0  0  0  0  0  0  0
  148.0847  141.5499  154.8282 C   0  0  0  0  0  0  0  0  0  0  0  0
  147.5077  140.3920  155.1499 N   0  0  0  0  0  0  0  0  0  0  0  0
  144.0516  136.5453  152.4449 C   0  0  0  0  0  0  0  0  0  0  0  0
  141.5360  135.3009  152.6251 H   0  0  0  0  0  0  0  0  0  0  0  0
  141.9906  135.9328  154.2054 H   0  0  0  0  0  0  0  0  0  0  0  0
  141.9450  134.1955  153.9350 H   0  0  0  0  0  0  0  0  0  0  0  0
  144.2693  135.0250  153.9464 H   0  0  0  0  0  0  0  0  0  0  0  0
  143.7172  133.0867  152.4820 H   0  0  0  0  0  0  0  0  0  0  0  0
  143.3336  134.1732  151.1770 H   0  0  0  0  0  0  0  0  0  0  0  0
  147.4267  133.5215  152.3950 H   0  0  0  0  0  0  0  0  0  0  0  0
  146.1381  132.4759  152.9691 H   0  0  0  0  0  0  0  0  0  0  0  0
  146.3064  134.0853  153.6228 H   0  0  0  0  0  0  0  0  0  0  0  0
  146.6065  132.9837  150.0354 H   0  0  0  0  0  0  0  0  0  0  0  0
  144.9461  133.3217  149.5662 H   0  0  0  0  0  0  0  0  0  0  0  0
  145.2896  132.0262  150.7011 H   0  0  0  0  0  0  0  0  0  0  0  0
  146.9434  135.4399  150.8367 H   0  0  0  0  0  0  0  0  0  0  0  0
  145.3736  135.5905  150.1232 H   0  0  0  0  0  0  0  0  0  0  0  0
  145.1489  137.9423  150.2576 H   0  0  0  0  0  0  0  0  0  0  0  0
  145.4884  138.8231  151.7229 H   0  0  0  0  0  0  0  0  0  0  0  0
  147.6454  137.4518  151.1607 H   0  0  0  0  0  0  0  0  0  0  0  0
  147.4206  136.4657  152.7813 H   0  0  0  0  0  0  0  0  0  0  0  0
  146.0952  138.6653  153.5556 H   0  0  0  0  0  0  0  0  0  0  0  0
  145.8898  137.5823  154.9200 H   0  0  0  0  0  0  0  0  0  0  0  0
  148.0944  137.7296  155.5130 H   0  0  0  0  0  0  0  0  0  0  0  0
  148.6564  137.5510  153.8613 H   0  0  0  0  0  0  0  0  0  0  0  0
  149.8776  139.6835  153.1056 H   0  0  0  0  0  0  0  0  0  0  0  0
  147.7363  142.4863  155.2390 H   0  0  0  0  0  0  0  0  0  0  0  0
  143.4153  136.7198  151.5758 H   0  0  0  0  0  0  0  0  0  0  0  0
  143.7935  137.3371  153.1477 H   0  0  0  0  0  0  0  0  0  0  0  0
  1  2  1  0  0  0  0
  1 20  1  0  0  0  0
  1 21  1  0  0  0  0
  1 22  1  0  0  0  0
  2 19  1  0  0  0  0
  2  3  1  0  0  0  0
  2 23  1  0  0  0  0
  3  4  1  0  0  0  0
  3 24  1  0  0  0  0
  3 25  1  0  0  0  0
  4  5  1  0  0  0  0
  4  6  1  0  0  0  0
  4  7  1  0  0  0  0
  5 26  1  0  0  0  0
  5 27  1  0  0  0  0
  5 28  1  0  0  0  0
  6 29  1  0  0  0  0
  6 30  1  0  0  0  0
  6 31  1  0  0  0  0
  7  8  1  0  0  0  0
  7 32  1  0  0  0  0
  7 33  1  0  0  0  0
  8  9  1  0  0  0  0
  8 11  1  0  0  0  0
  8 19  1  0  0  0  0
  9 10  1  0  0  0  0
  9 34  1  0  0  0  0
  9 35  1  0  0  0  0
 10 36  1  0  0  0  0
 11 12  1  0  0  0  0
 11 37  1  0  0  0  0
 12 13  1  0  0  0  0
 12 38  1  0  0  0  0
 12 39  1  0  0  0  0
 13 14  1  0  0  0  0
 13 40  1  0  0  0  0
 13 41  1  0  0  0  0
 14 18  1  0  0  0  0
 14 15  1  0  0  0  0
 15 16  2  0  0  0  0
 15 42  1  0  0  0  0
 16 17  1  0  0  0  0
 17 18  2  0  0  0  0
 17 43  1  0  0  0  0
 19 44  1  0  0  0  0
 19 45  1  0  0  0  0
M  END
> <s_m_source_file>
AV-unprocessed.smi

> <i_m_source_file_index>
648

> <i_lp_mmshare_version>
43012

> <i_f3d_flags>
0

> <s_epik_input>
W0NIM11DMShbQ0gzXSlbQ0gyXVtDQEBIXShbQ0gzXSlbQ0gyXVtDQF0oW0NIMl0xKShbQ0gyXVtPSF0pW05IXVtDSDJdW0NIMl1uMltjSF1uW2NIXW4y

> <s_epik_cmdline>
J2VwaWtfcHl0aG9uJywgJy1waCcsICc3LjAnLCAnLXRuJywgJzgnLCAnLW1hJywgJzIwMCcsICctbWV0YWxfYmluZGluZycsICctaW1hZScsICc8aW5maWxlLm1hZT4nLCAnLW9tYWUnLCAnPG91dGZpbGUubWFlPic=

> <r_lp_tautomer_probability>
1

> <r_epik_Ionization_Penalty>
2.45849

> <r_epik_Ionization_Penalty_Charging>
0

> <r_epik_Ionization_Penalty_Neutral>
2.45849

> <r_epik_State_Penalty>
2.62037

> <r_epik_Charging_Adjusted_Penalty>
2.62037

> <i_epik_Tot_Q>
0

> <i_epik_Tot_abs_Q>
0

> <r_epik_Metal_State_Penalty>
2.62024

> <b_epik_Metal_Only>
0

> <s_lp_Force_Field>
OPLS_2005

> <r_lp_Energy>
32.8017

> <b_lp_Chiralities_Consistent>
1

> <s_lp_Variant>
AV-unprocessed.smi:648-8

> <Gold.Version>
5.8.1

> <Gold.Id.Protein>
6NUR|6NUR_protein|mol2

> <Gold.PLP.Fitness>
41.2630

> <Gold.PLP.PLP>
-29.2804

> <Gold.PLP.part.hbond>
-5.1148

> <Gold.PLP.part.metal>
0.0000

> <Gold.PLP.part.buried>
3.2407

> <Gold.PLP.part.nonpolar>
-27.4376

> <Gold.PLP.part.repulsive>
0.2411

> <Gold.PLP.ligand.clash>
0.0000

> <Gold.PLP.ligand.torsion>
0.6473

> <Gold.PLP.Chemscore.Hbond>
2.6880

> <Gold.PLP.Chemscore.CHOScore>
1.7285

> <Gold.PLP.Chemscore.Metal>
0.0000

> <Gold.Chemscore.Hbonds>
donor molecule, donor type, donor heavy atom, donor atom, acceptor molecule, acceptor atom, score
      L1  H    10    36       P1  7948  1.00
      L1  H    11    37       P1  7948  1.00
      P1  H  8011  8017       L1    16  0.70
      L1  C    15    42       P1  7957  0.64
      L1  C    17    43       P1  8028  1.00

> <Gold.PLP.Chemscore.Internal.Correction>
0.0277

> <Gold.Rescore>
     Score         DG    S(hbond)    S(metal)    S(lipo)     H(rot)  DE(clash)    DE(int)     intcor
     11.72     -13.81       2.77        0.00      60.45       3.12       1.45       0.64       ----

> <Gold.Chemscore.Fitness>
11.7228

> <Gold.Chemscore.DG>
-13.8135

> <Gold.Chemscore.ZeroCoef>
-5.4800

> <Gold.Chemscore.Hbond>
2.7676

> <Gold.Chemscore.Metal>
0.0000

> <Gold.Chemscore.Lipo>
60.4488

> <Gold.Chemscore.Internal_Hbond>
0.0000

> <Gold.Chemscore.DEClash>
1.4529

> <Gold.Chemscore.DEInternal>
0.6377

> <Gold.Chemscore.Rot>
3.1183

> <Gold.Chemscore.Internal.Correction>
   9.000000E+99

> <Gold.Chemscore.Hbonds>
donor molecule, donor type, donor heavy atom, donor atom, acceptor molecule, acceptor atom, score
      L1  H    10    36       P1  7948  1.00
      L1  H    11    37       P1  7948  1.00
      P1  H  8011  8017       L1    16  0.52

> <Gold.Chemscore.Hbond.Weighted>
-9.2439

> <Gold.Chemscore.Metal.Weighted>
-0.0000

> <Gold.Chemscore.Lipo.Weighted>
-7.0725

> <Gold.Chemscore.Internal_Hbond.Weighted>
0.0000

> <Gold.Chemscore.DEClash.Weighted>
1.4529

> <Gold.Chemscore.DEInternal.Weighted>
0.6377

> <Gold.Chemscore.Rot.Weighted>
7.9829

> <Gold.Chemscore.Internal.Correction.Weighted>
   9.000000E+99

> <Gold.Protein.RotatedTorsions>
[ 6907 6896 6895 6894 ] final  169.46 input  -60.11 | X-H torsion
[ 7974 7965 7964 7962 ] final  145.83 input  175.53 | X-H torsion
[ 8008 7997 7996 7995 ] final -134.70 input   59.86 | X-H torsion
[ 10167 10162 10161 10158 ] final  -24.71 input  -65.29 | X-H torsion
[ 10718 10713 10712 10709 ] final   63.05 input   66.30 | X-H torsion
[ 10763 10752 10751 10750 ] final  -86.25 input  -60.55 | X-H torsion
[ 11005 11000 10999 10996 ] final -151.39 input  -57.11 | X-H torsion

> <Gold.Protein.ActiveResidues>
 VAL166  LYS551  ARG553  GLY616  TRP617  ASP618  TYR619  PRO620  LYS621  CYS622 
 ASP623  PHE694  ASN695  SER759  ASP760  ASP761  ALA762  ILE779  LEU786  VAL792 
 PHE793  MET794  SER795  GLU796  ALA797  LYS798  CYS799  TRP800  GLU811  SER814 

> <Gold.Protein.RotatedAtoms>
  151.8315  133.3409  159.3614 H   0  0  0  0  0  0  0  0  0  0  0  0  # atno 6907 bound_to 6896
  150.7262  134.5478  159.5788 H   0  0  0  0  0  0  0  0  0  0  0  0  # atno 6908 bound_to 6896
  152.2932  134.7698  160.0424 H   0  0  0  0  0  0  0  0  0  0  0  0  # atno 6909 bound_to 6896
  144.8720  139.5831  143.5882 H   0  0  0  0  0  0  0  0  0  0  0  0  # atno 7974 bound_to 7965
  155.3664  140.0486  157.3046 H   0  0  0  0  0  0  0  0  0  0  0  0  # atno 8008 bound_to 7997
  154.5152  140.2205  155.9043 H   0  0  0  0  0  0  0  0  0  0  0  0  # atno 8009 bound_to 7997
  156.1628  140.3113  155.8842 H   0  0  0  0  0  0  0  0  0  0  0  0  # atno 8010 bound_to 7997
  140.7288  143.4329  151.0774 H   0  0  0  0  0  0  0  0  0  0  0  0  # atno 10167 bound_to 10162
  157.5944  130.9084  149.9666 H   0  0  0  0  0  0  0  0  0  0  0  0  # atno 10718 bound_to 10713
  154.6204  135.5456  153.7569 H   0  0  0  0  0  0  0  0  0  0  0  0  # atno 10763 bound_to 10752
  153.0235  135.6411  154.1449 H   0  0  0  0  0  0  0  0  0  0  0  0  # atno 10764 bound_to 10752
  154.1384  135.2910  155.3147 H   0  0  0  0  0  0  0  0  0  0  0  0  # atno 10765 bound_to 10752
  140.7301  134.3631  157.5168 H   0  0  0  0  0  0  0  0  0  0  0  0  # atno 11005 bound_to 11000
  146.2937  139.7214  142.9142 LP  0  0  0  0  0  0  0  0  0  0  0  0  # atno 17320 bound_to 7965
  145.4112  141.0396  143.3016 LP  0  0  0  0  0  0  0  0  0  0  0  0  # atno 17321 bound_to 7965
  139.7988  143.8114  152.3160 LP  0  0  0  0  0  0  0  0  0  0  0  0  # atno 17342 bound_to 10162
  139.8123  144.7330  150.9681 LP  0  0  0  0  0  0  0  0  0  0  0  0  # atno 17343 bound_to 10162
  156.1004  130.3656  150.0228 LP  0  0  0  0  0  0  0  0  0  0  0  0  # atno 17370 bound_to 10713
  156.8345  130.9404  151.3635 LP  0  0  0  0  0  0  0  0  0  0  0  0  # atno 17371 bound_to 10713
  139.8828  134.9012  156.2806 LP  0  0  0  0  0  0  0  0  0  0  0  0  # atno 17394 bound_to 11000
  140.9928  133.7198  156.0840 LP  0  0  0  0  0  0  0  0  0  0  0  0  # atno 17395 bound_to 11000

$$$$
