AV-unprocessed.smi:601|AV-procd|sdf|3032|dock2
  -GOLD-   2262023543D 1   1.00000     0.00000
 Structure written by MMmdl.
 50 51  0  0  0  0  0  0  0  0  1 V2000
  149.3493  133.9536  154.6541 C   0  0  0  0  0  0  0  0  0  0  0  0
  148.2141  134.4991  155.5276 C   0  0  0  0  0  0  0  0  0  0  0  0
  148.7313  135.2474  156.7641 C   0  0  0  0  0  0  0  0  0  0  0  0
  147.5906  135.7626  157.6600 C   0  0  0  0  0  0  0  0  0  0  0  0
  148.0869  136.6236  158.7441 N   0  0  0  0  0  0  0  0  0  0  0  0
  147.7194  136.4051  160.0342 C   0  0  0  0  0  0  0  0  0  0  0  0
  148.0425  137.1771  160.9394 O   0  0  0  0  0  0  0  0  0  0  0  0
  146.9128  135.1287  160.3888 C   0  0  1  0  0  0  0  0  0  0  0  0
  147.5772  134.2159  161.4278 C   0  0  0  0  0  0  0  0  0  0  0  0
  147.1328  134.7800  162.7717 C   0  0  0  0  0  0  0  0  0  0  0  0
  145.9669  135.7107  162.4252 C   0  0  0  0  0  0  0  0  0  0  0  0
  145.6996  135.4751  161.0471 O   0  0  0  0  0  0  0  0  0  0  0  0
  148.9145  137.6978  158.3716 C   0  0  0  0  0  0  0  0  0  0  0  0
  148.4412  138.7422  157.6284 C   0  0  0  0  0  0  0  0  0  0  0  0
  147.1093  138.7774  157.2414 N   0  0  0  0  0  0  0  0  0  0  0  0
  149.2696  139.7972  157.2343 N   0  0  0  0  0  0  0  0  0  0  0  0
  148.8121  140.9301  156.4540 C   0  0  0  0  0  0  0  0  0  0  0  0
  148.3448  140.5295  155.0447 C   0  0  0  0  0  0  0  0  0  0  0  0
  147.9560  141.7422  154.1938 C   0  0  0  0  0  0  0  0  0  0  0  0
  150.6477  139.7767  157.5584 C   0  0  0  0  0  0  0  0  0  0  0  0
  151.4414  140.6519  157.2112 O   0  0  0  0  0  0  0  0  0  0  0  0
  151.1081  138.6968  158.3035 N   0  0  0  0  0  0  0  0  0  0  0  0
  150.3326  137.6289  158.7477 C   0  0  0  0  0  0  0  0  0  0  0  0
  150.8615  136.7255  159.3944 O   0  0  0  0  0  0  0  0  0  0  0  0
  152.0901  138.6825  158.5375 H   0  0  0  0  0  0  0  0  0  0  0  0
  148.9533  133.4308  153.7833 H   0  0  0  0  0  0  0  0  0  0  0  0
  149.9705  133.2504  155.2096 H   0  0  0  0  0  0  0  0  0  0  0  0
  149.9913  134.7588  154.2958 H   0  0  0  0  0  0  0  0  0  0  0  0
  147.5894  135.1649  154.9310 H   0  0  0  0  0  0  0  0  0  0  0  0
  147.5743  133.6733  155.8407 H   0  0  0  0  0  0  0  0  0  0  0  0
  149.3836  134.5866  157.3359 H   0  0  0  0  0  0  0  0  0  0  0  0
  149.3494  136.0863  156.4430 H   0  0  0  0  0  0  0  0  0  0  0  0
  146.8780  136.3165  157.0467 H   0  0  0  0  0  0  0  0  0  0  0  0
  147.0272  134.9245  158.0737 H   0  0  0  0  0  0  0  0  0  0  0  0
  146.7043  134.5645  159.4794 H   0  0  0  0  0  0  0  0  0  0  0  0
  147.1927  133.2018  161.3127 H   0  0  0  0  0  0  0  0  0  0  0  0
  148.6623  134.1593  161.3330 H   0  0  0  0  0  0  0  0  0  0  0  0
  146.8268  133.9816  163.4484 H   0  0  0  0  0  0  0  0  0  0  0  0
  147.9367  135.3381  163.2534 H   0  0  0  0  0  0  0  0  0  0  0  0
  145.0824  135.5140  163.0312 H   0  0  0  0  0  0  0  0  0  0  0  0
  146.2492  136.7548  162.5687 H   0  0  0  0  0  0  0  0  0  0  0  0
  146.4620  138.0443  157.4937 H   0  0  0  0  0  0  0  0  0  0  0  0
  146.7471  139.5091  156.6469 H   0  0  0  0  0  0  0  0  0  0  0  0
  148.0116  141.4054  157.0202 H   0  0  0  0  0  0  0  0  0  0  0  0
  149.6141  141.6702  156.4262 H   0  0  0  0  0  0  0  0  0  0  0  0
  149.1332  139.9742  154.5355 H   0  0  0  0  0  0  0  0  0  0  0  0
  147.4913  139.8545  155.1182 H   0  0  0  0  0  0  0  0  0  0  0  0
  147.6272  141.4315  153.2019 H   0  0  0  0  0  0  0  0  0  0  0  0
  148.8005  142.4202  154.0676 H   0  0  0  0  0  0  0  0  0  0  0  0
  147.1414  142.3015  154.6549 H   0  0  0  0  0  0  0  0  0  0  0  0
  1  2  1  0  0  0  0
  1 26  1  0  0  0  0
  1 27  1  0  0  0  0
  1 28  1  0  0  0  0
  2  3  1  0  0  0  0
  2 29  1  0  0  0  0
  2 30  1  0  0  0  0
  3  4  1  0  0  0  0
  3 31  1  0  0  0  0
  3 32  1  0  0  0  0
  4  5  1  0  0  0  0
  4 33  1  0  0  0  0
  4 34  1  0  0  0  0
  5  6  1  0  0  0  0
  5 13  1  0  0  0  0
  6  7  2  0  0  0  0
  6  8  1  0  0  0  0
  8 12  1  0  0  0  0
  8  9  1  0  0  0  0
  8 35  1  0  0  0  0
  9 10  1  0  0  0  0
  9 36  1  0  0  0  0
  9 37  1  0  0  0  0
 10 11  1  0  0  0  0
 10 38  1  0  0  0  0
 10 39  1  0  0  0  0
 11 12  1  0  0  0  0
 11 40  1  0  0  0  0
 11 41  1  0  0  0  0
 13 23  1  0  0  0  0
 13 14  2  0  0  0  0
 14 15  1  0  0  0  0
 14 16  1  0  0  0  0
 15 42  1  0  0  0  0
 15 43  1  0  0  0  0
 16 17  1  0  0  0  0
 16 20  1  0  0  0  0
 17 18  1  0  0  0  0
 17 44  1  0  0  0  0
 17 45  1  0  0  0  0
 18 19  1  0  0  0  0
 18 46  1  0  0  0  0
 18 47  1  0  0  0  0
 19 48  1  0  0  0  0
 19 49  1  0  0  0  0
 19 50  1  0  0  0  0
 20 21  2  0  0  0  0
 20 22  1  0  0  0  0
 22 25  1  0  0  0  0
 22 23  1  0  0  0  0
 23 24  2  0  0  0  0
M  END
> <s_m_source_file>
AV-unprocessed.smi

> <i_m_source_file_index>
601

> <i_lp_mmshare_version>
43012

> <i_f3d_flags>
0

> <s_epik_input>
TzFbQ0gyXVtDSDJdW0NIMl1bQ0BIXTFDKD1PKU4oW0NIMl1bQ0gyXVtDSDJdW0NIM10pYzJjKFtOSDJdKW4oW0NIMl1bQ0gyXVtDSDNdKWMoPU8pW25IXWMyPU8=

> <s_epik_cmdline>
J2VwaWtfcHl0aG9uJywgJy1waCcsICc3LjAnLCAnLXRuJywgJzgnLCAnLW1hJywgJzIwMCcsICctbWV0YWxfYmluZGluZycsICctaW1hZScsICc8aW5maWxlLm1hZT4nLCAnLW9tYWUnLCAnPG91dGZpbGUubWFlPic=

> <r_lp_tautomer_probability>
1

> <r_epik_Ionization_Penalty>
6.19718e-05

> <r_epik_Ionization_Penalty_Charging>
2.78773e-05

> <r_epik_Ionization_Penalty_Neutral>
3.40944e-05

> <r_epik_State_Penalty>
-0

> <r_epik_Charging_Adjusted_Penalty>
2.78773e-05

> <i_epik_Tot_Q>
0

> <i_epik_Tot_abs_Q>
0

> <r_epik_Metal_State_Penalty>
0.0271358

> <b_epik_Metal_Only>
0

> <s_lp_Force_Field>
OPLS_2005

> <r_lp_Energy>
41.2463

> <b_lp_Chiralities_Consistent>
1

> <s_lp_Variant>
AV-unprocessed.smi:601-2

> <Gold.Version>
5.8.1

> <Gold.Id.Protein>
6NUR|6NUR_protein|mol2

> <Gold.PLP.Fitness>
38.9839

> <Gold.PLP.PLP>
-31.3039

> <Gold.PLP.part.hbond>
-3.0000

> <Gold.PLP.part.metal>
0.0000

> <Gold.PLP.part.buried>
-5.3527

> <Gold.PLP.part.nonpolar>
-23.0406

> <Gold.PLP.part.repulsive>
0.1431

> <Gold.PLP.ligand.clash>
0.0000

> <Gold.PLP.ligand.torsion>
1.4561

> <Gold.PLP.Chemscore.Hbond>
2.6480

> <Gold.PLP.Chemscore.CHOScore>
0.0000

> <Gold.PLP.Chemscore.Metal>
0.0000

> <Gold.Chemscore.Hbonds>
donor molecule, donor type, donor heavy atom, donor atom, acceptor molecule, acceptor atom, score
      P1  H  6896  6909       L1    24  1.00
      P1  H  6931  6943       L1     7  0.93
      P1  H  6934  6947       L1     7  0.72

> <Gold.PLP.Chemscore.Internal.Correction>
2.6483

> <Gold.Rescore>
     Score         DG    S(hbond)    S(metal)    S(lipo)     H(rot)  DE(clash)    DE(int)     intcor
     14.03     -16.74       2.74        0.00      60.81       1.96       0.01       2.69       ----

> <Gold.Chemscore.Fitness>
14.0332

> <Gold.Chemscore.DG>
-16.7351

> <Gold.Chemscore.ZeroCoef>
-5.4800

> <Gold.Chemscore.Hbond>
2.7420

> <Gold.Chemscore.Metal>
0.0000

> <Gold.Chemscore.Lipo>
60.8135

> <Gold.Chemscore.Internal_Hbond>
0.0000

> <Gold.Chemscore.DEClash>
0.0077

> <Gold.Chemscore.DEInternal>
2.6941

> <Gold.Chemscore.Rot>
1.9603

> <Gold.Chemscore.Internal.Correction>
   9.000000E+99

> <Gold.Chemscore.Hbonds>
donor molecule, donor type, donor heavy atom, donor atom, acceptor molecule, acceptor atom, score
      P1  H  6896  6909       L1    24  0.99
      P1  H  6931  6943       L1     7  0.91
      P1  H  6934  6947       L1     7  0.63

> <Gold.Chemscore.Hbond.Weighted>
-9.1584

> <Gold.Chemscore.Metal.Weighted>
-0.0000

> <Gold.Chemscore.Lipo.Weighted>
-7.1152

> <Gold.Chemscore.Internal_Hbond.Weighted>
0.0000

> <Gold.Chemscore.DEClash.Weighted>
0.0077

> <Gold.Chemscore.DEInternal.Weighted>
2.6941

> <Gold.Chemscore.Rot.Weighted>
5.0185

> <Gold.Chemscore.Internal.Correction.Weighted>
   9.000000E+99

> <Gold.Protein.RotatedTorsions>
[ 6907 6896 6895 6894 ] final   86.84 input  -60.11 | X-H torsion
[ 7974 7965 7964 7962 ] final   66.12 input  175.53 | X-H torsion
[ 8008 7997 7996 7995 ] final  -60.47 input   59.86 | X-H torsion
[ 10167 10162 10161 10158 ] final  121.23 input  -65.29 | X-H torsion
[ 10718 10713 10712 10709 ] final  -50.36 input   66.30 | X-H torsion
[ 10763 10752 10751 10750 ] final -172.24 input  -60.55 | X-H torsion
[ 11005 11000 10999 10996 ] final -122.01 input  -57.11 | X-H torsion

> <Gold.Protein.ActiveResidues>
 VAL166  LYS551  ARG553  GLY616  TRP617  ASP618  TYR619  PRO620  LYS621  CYS622 
 ASP623  PHE694  ASN695  SER759  ASP760  ASP761  ALA762  ILE779  LEU786  VAL792 
 PHE793  MET794  SER795  GLU796  ALA797  LYS798  CYS799  TRP800  GLU811  SER814 

> <Gold.Protein.RotatedAtoms>
  152.5401  134.2368  159.8846 H   0  0  0  0  0  0  0  0  0  0  0  0  # atno 6907 bound_to 6896
  151.2338  133.4429  159.2612 H   0  0  0  0  0  0  0  0  0  0  0  0  # atno 6908 bound_to 6896
  151.0691  134.9800  159.8355 H   0  0  0  0  0  0  0  0  0  0  0  0  # atno 6909 bound_to 6896
  145.8304  139.3135  143.0991 H   0  0  0  0  0  0  0  0  0  0  0  0  # atno 7974 bound_to 7965
  154.4400  140.1039  156.6278 H   0  0  0  0  0  0  0  0  0  0  0  0  # atno 8008 bound_to 7997
  155.5637  140.3488  155.4479 H   0  0  0  0  0  0  0  0  0  0  0  0  # atno 8009 bound_to 7997
  156.0441  140.1288  157.0113 H   0  0  0  0  0  0  0  0  0  0  0  0  # atno 8010 bound_to 7997
  139.5932  144.7033  151.3238 H   0  0  0  0  0  0  0  0  0  0  0  0  # atno 10167 bound_to 10162
  156.1808  130.4150  149.9510 H   0  0  0  0  0  0  0  0  0  0  0  0  # atno 10718 bound_to 10713
  154.6215  135.2876  155.0320 H   0  0  0  0  0  0  0  0  0  0  0  0  # atno 10763 bound_to 10752
  154.1514  135.6503  153.4968 H   0  0  0  0  0  0  0  0  0  0  0  0  # atno 10764 bound_to 10752
  153.0238  135.5356  154.7007 H   0  0  0  0  0  0  0  0  0  0  0  0  # atno 10765 bound_to 10752
  141.0027  134.0379  157.3516 H   0  0  0  0  0  0  0  0  0  0  0  0  # atno 11005 bound_to 11000
  145.9577  140.8860  143.0226 LP  0  0  0  0  0  0  0  0  0  0  0  0  # atno 17320 bound_to 7965
  144.6740  140.1769  143.7409 LP  0  0  0  0  0  0  0  0  0  0  0  0  # atno 17321 bound_to 7965
  140.7191  143.7186  150.7713 LP  0  0  0  0  0  0  0  0  0  0  0  0  # atno 17342 bound_to 10162
  140.0746  143.5027  152.2562 LP  0  0  0  0  0  0  0  0  0  0  0  0  # atno 17343 bound_to 10162
  156.7281  130.9032  151.3623 LP  0  0  0  0  0  0  0  0  0  0  0  0  # atno 17370 bound_to 10713
  157.6867  130.9192  150.0404 LP  0  0  0  0  0  0  0  0  0  0  0  0  # atno 17371 bound_to 10713
  139.9047  135.0176  156.7432 LP  0  0  0  0  0  0  0  0  0  0  0  0  # atno 17394 bound_to 11000
  140.6862  133.9430  155.7939 LP  0  0  0  0  0  0  0  0  0  0  0  0  # atno 17395 bound_to 11000

$$$$
