AV-unprocessed.smi:686|AV-procd|sdf|3348|dock8
  -GOLD-   22720 0323D 1   1.00000     0.00000
 Structure written by MMmdl.
 40 41  0  0  0  0  0  0  0  0  3 V2000
  148.1679  140.7996  154.1220 C   0  0  0  0  0  0  0  0  0  0  0  0
  147.5261  139.4260  154.4096 C   0  0  1  0  0  0  0  0  0  0  0  0
  146.9993  138.6853  153.1687 C   0  0  0  0  0  0  0  0  0  0  0  0
  147.1534  137.2324  153.4391 N   0  3  2  0  0  0  0  0  0  0  0  0
  146.0003  136.3798  153.0344 C   0  0  0  0  0  0  0  0  0  0  0  0
  146.2564  134.8906  153.3359 C   0  0  0  0  0  0  0  0  0  0  0  0
  145.6852  136.5536  151.5368 C   0  0  0  0  0  0  0  0  0  0  0  0
  147.5951  137.0997  154.8477 C   0  0  0  0  0  0  0  0  0  0  0  0
  148.3766  138.3816  155.1540 C   0  0  1  0  0  0  0  0  0  0  0  0
  149.7219  138.2917  154.5868 N   0  5  0  0  0  0  0  0  0  0  0  0
  150.8876  137.4034  155.2940 S   0  0  0  0  0  0  0  0  0  0  0  0
  150.5491  136.9541  156.6553 O   0  0  0  0  0  0  0  0  0  0  0  0
  151.3939  136.3763  154.3711 O   0  0  0  0  0  0  0  0  0  0  0  0
  152.2615  138.6306  155.4691 C   0  0  0  0  0  0  0  0  0  0  0  0
  151.8006  139.8029  156.2889 C   0  0  0  0  0  0  0  0  0  0  0  0
  150.7579  140.7279  156.0044 C   0  0  0  0  0  0  0  0  0  0  0  0
  150.7760  141.5700  157.0783 C   0  0  0  0  0  0  0  0  0  0  0  0
  151.7381  141.1964  157.9588 O   0  0  0  0  0  0  0  0  0  0  0  0
  152.3848  140.0653  157.4479 N   0  0  0  0  0  0  0  0  0  0  0  0
  149.0185  140.7270  153.4423 H   0  0  0  0  0  0  0  0  0  0  0  0
  148.5103  141.2870  155.0364 H   0  0  0  0  0  0  0  0  0  0  0  0
  147.4428  141.4662  153.6547 H   0  0  0  0  0  0  0  0  0  0  0  0
  146.6611  139.6170  155.0475 H   0  0  0  0  0  0  0  0  0  0  0  0
  145.9609  138.9645  152.9836 H   0  0  0  0  0  0  0  0  0  0  0  0
  147.5712  138.9347  152.2732 H   0  0  0  0  0  0  0  0  0  0  0  0
  145.1285  136.6950  153.6099 H   0  0  0  0  0  0  0  0  0  0  0  0
  145.4282  134.2735  152.9860 H   0  0  0  0  0  0  0  0  0  0  0  0
  146.3592  134.7006  154.4044 H   0  0  0  0  0  0  0  0  0  0  0  0
  147.1626  134.5363  152.8433 H   0  0  0  0  0  0  0  0  0  0  0  0
  144.8524  135.9169  151.2369 H   0  0  0  0  0  0  0  0  0  0  0  0
  146.5434  136.2860  150.9193 H   0  0  0  0  0  0  0  0  0  0  0  0
  145.4055  137.5777  151.2902 H   0  0  0  0  0  0  0  0  0  0  0  0
  146.7206  137.0470  155.4985 H   0  0  0  0  0  0  0  0  0  0  0  0
  148.1783  136.1919  155.0051 H   0  0  0  0  0  0  0  0  0  0  0  0
  148.3921  138.5900  156.2240 H   0  0  0  0  0  0  0  0  0  0  0  0
  153.1057  138.1323  155.9449 H   0  0  0  0  0  0  0  0  0  0  0  0
  152.5806  138.9485  154.4766 H   0  0  0  0  0  0  0  0  0  0  0  0
  150.1070  140.7701  155.1438 H   0  0  0  0  0  0  0  0  0  0  0  0
  150.1948  142.4386  157.3500 H   0  0  0  0  0  0  0  0  0  0  0  0
  147.9478  136.9381  152.8884 H   0  0  0  0  0  0  0  0  0  0  0  0
  1  2  1  0  0  0  0
  1 20  1  0  0  0  0
  1 21  1  0  0  0  0
  1 22  1  0  0  0  0
  2  9  1  0  0  0  0
  2  3  1  0  0  0  0
  2 23  1  0  0  0  0
  3  4  1  0  0  0  0
  3 24  1  0  0  0  0
  3 25  1  0  0  0  0
  4  5  1  0  0  0  0
  4  8  1  0  0  0  0
  4 40  1  0  0  0  0
  5  6  1  0  0  0  0
  5  7  1  0  0  0  0
  5 26  1  0  0  0  0
  6 27  1  0  0  0  0
  6 28  1  0  0  0  0
  6 29  1  0  0  0  0
  7 30  1  0  0  0  0
  7 31  1  0  0  0  0
  7 32  1  0  0  0  0
  8  9  1  0  0  0  0
  8 33  1  0  0  0  0
  8 34  1  0  0  0  0
  9 10  1  0  0  0  0
  9 35  1  0  0  0  0
 10 11  1  0  0  0  0
 11 12  2  0  0  0  0
 11 13  2  0  0  0  0
 11 14  1  0  0  0  0
 14 15  1  0  0  0  0
 14 36  1  0  0  0  0
 14 37  1  0  0  0  0
 15 19  2  0  0  0  0
 15 16  1  0  0  0  0
 16 17  2  0  0  0  0
 16 38  1  0  0  0  0
 17 18  1  0  0  0  0
 17 39  1  0  0  0  0
 18 19  1  0  0  0  0
M  CHG  1   4   1
M  CHG  1  10  -1
M  END
> <s_m_source_file>
AV-unprocessed.smi

> <i_m_source_file_index>
686

> <i_lp_mmshare_version>
43012

> <i_f3d_flags>
0

> <s_epik_input>
W0NIM11bQ0BASF0xW0NIMl1OKFtDSF0oW0NIM10pW0NIM10pW0NIMl1bQ0BIXTFbTkhdUyg9TykoPU8pW0NIMl1jMltjSF1bY0hdb24y

> <s_epik_cmdline>
J2VwaWtfcHl0aG9uJywgJy1waCcsICc3LjAnLCAnLXRuJywgJzgnLCAnLW1hJywgJzIwMCcsICctbWV0YWxfYmluZGluZycsICctaW1hZScsICc8aW5maWxlLm1hZT4nLCAnLW9tYWUnLCAnPG91dGZpbGUubWFlPic=

> <r_epik_Ionization_Penalty>
3.62478

> <r_epik_Ionization_Penalty_Charging>
3.62478

> <r_epik_Ionization_Penalty_Neutral>
2.03645e-10

> <r_epik_State_Penalty>
3.6247

> <r_epik_Charging_Adjusted_Penalty>
7.24949

> <i_epik_Tot_Q>
0

> <i_epik_Tot_abs_Q>
2

> <r_epik_Metal_State_Penalty>
0.530836

> <b_epik_Metal_Only>
1

> <s_lp_Force_Field>
OPLS_2005

> <r_lp_Energy>
18.5921

> <b_lp_Chiralities_Consistent>
1

> <s_lp_Variant>
AV-unprocessed.smi:686-12

> <Gold.Version>
5.8.1

> <Gold.Id.Protein>
6NUR|6NUR_protein|mol2

> <Gold.PLP.Fitness>
39.2462

> <Gold.PLP.PLP>
-25.8037

> <Gold.PLP.part.hbond>
-2.8689

> <Gold.PLP.part.metal>
0.0000

> <Gold.PLP.part.buried>
-0.7704

> <Gold.PLP.part.nonpolar>
-22.9118

> <Gold.PLP.part.repulsive>
1.5883

> <Gold.PLP.ligand.clash>
0.0000

> <Gold.PLP.ligand.torsion>
0.7099

> <Gold.PLP.Chemscore.Hbond>
3.5881

> <Gold.PLP.Chemscore.CHOScore>
1.0000

> <Gold.PLP.Chemscore.Metal>
0.0000

> <Gold.Chemscore.Hbonds>
donor molecule, donor type, donor heavy atom, donor atom, acceptor molecule, acceptor atom, score
      L1  H     4    40       P1  7948  2.00
      P1  H  7997  8009       L1    19  0.49
      P1  H 10752 10763       L1    13  1.00

> <Gold.PLP.Chemscore.Internal.Correction>
1.0980

> <Gold.Rescore>
     Score         DG    S(hbond)    S(metal)    S(lipo)     H(rot)  DE(clash)    DE(int)     intcor
     16.70     -17.93       2.84        0.00      60.70       1.61       0.38       0.85       ----

> <Gold.Chemscore.Fitness>
16.7006

> <Gold.Chemscore.DG>
-17.9320

> <Gold.Chemscore.ZeroCoef>
-5.4800

> <Gold.Chemscore.Hbond>
2.8394

> <Gold.Chemscore.Metal>
0.0000

> <Gold.Chemscore.Lipo>
60.7043

> <Gold.Chemscore.Internal_Hbond>
0.0000

> <Gold.Chemscore.DEClash>
0.3794

> <Gold.Chemscore.DEInternal>
0.8520

> <Gold.Chemscore.Rot>
1.6149

> <Gold.Chemscore.Internal.Correction>
   9.000000E+99

> <Gold.Chemscore.Hbonds>
donor molecule, donor type, donor heavy atom, donor atom, acceptor molecule, acceptor atom, score
      L1  H     4    40       P1  7948  0.99
      P1  H  7997  8009       L1    19  0.05
      P1  H 10752 10763       L1    13  1.00

> <Gold.Chemscore.Hbond.Weighted>
-9.4837

> <Gold.Chemscore.Metal.Weighted>
-0.0000

> <Gold.Chemscore.Lipo.Weighted>
-7.1024

> <Gold.Chemscore.Internal_Hbond.Weighted>
0.0000

> <Gold.Chemscore.DEClash.Weighted>
0.3794

> <Gold.Chemscore.DEInternal.Weighted>
0.8520

> <Gold.Chemscore.Rot.Weighted>
4.1341

> <Gold.Chemscore.Internal.Correction.Weighted>
   9.000000E+99

> <Gold.Protein.RotatedTorsions>
[ 6907 6896 6895 6894 ] final -132.33 input  -60.11 | X-H torsion
[ 7974 7965 7964 7962 ] final  130.59 input  175.53 | X-H torsion
[ 8008 7997 7996 7995 ] final -177.31 input   59.86 | X-H torsion
[ 10167 10162 10161 10158 ] final   68.62 input  -65.29 | X-H torsion
[ 10718 10713 10712 10709 ] final    6.18 input   66.30 | X-H torsion
[ 10763 10752 10751 10750 ] final   40.21 input  -60.55 | X-H torsion
[ 11005 11000 10999 10996 ] final -161.89 input  -57.11 | X-H torsion

> <Gold.Protein.ActiveResidues>
 VAL166  LYS551  ARG553  GLY616  TRP617  ASP618  TYR619  PRO620  LYS621  CYS622 
 ASP623  PHE694  ASN695  SER759  ASP760  ASP761  ALA762  ILE779  LEU786  VAL792 
 PHE793  MET794  SER795  GLU796  ALA797  LYS798  CYS799  TRP800  GLU811  SER814 

> <Gold.Protein.RotatedAtoms>
  150.9612  133.6443  159.2753 H   0  0  0  0  0  0  0  0  0  0  0  0  # atno 6907 bound_to 6896
  151.3765  135.0931  159.9492 H   0  0  0  0  0  0  0  0  0  0  0  0  # atno 6908 bound_to 6896
  152.5148  133.9155  159.7563 H   0  0  0  0  0  0  0  0  0  0  0  0  # atno 6909 bound_to 6896
  145.0163  139.4173  143.5220 H   0  0  0  0  0  0  0  0  0  0  0  0  # atno 7974 bound_to 7965
  156.0054  140.1229  157.0506 H   0  0  0  0  0  0  0  0  0  0  0  0  # atno 8008 bound_to 7997
  154.4257  140.1098  156.5825 H   0  0  0  0  0  0  0  0  0  0  0  0  # atno 8009 bound_to 7997
  155.6154  140.3472  155.4637 H   0  0  0  0  0  0  0  0  0  0  0  0  # atno 8010 bound_to 7997
  140.0766  144.5107  150.7190 H   0  0  0  0  0  0  0  0  0  0  0  0  # atno 10167 bound_to 10162
  156.9184  130.5782  149.5647 H   0  0  0  0  0  0  0  0  0  0  0  0  # atno 10718 bound_to 10713
  152.9943  135.6198  154.2590 H   0  0  0  0  0  0  0  0  0  0  0  0  # atno 10763 bound_to 10752
  154.2326  135.2791  155.2886 H   0  0  0  0  0  0  0  0  0  0  0  0  # atno 10764 bound_to 10752
  154.5436  135.5753  153.6919 H   0  0  0  0  0  0  0  0  0  0  0  0  # atno 10765 bound_to 10752
  140.6154  134.4806  157.5219 H   0  0  0  0  0  0  0  0  0  0  0  0  # atno 11005 bound_to 11000
  146.3478  139.9636  142.8714 LP  0  0  0  0  0  0  0  0  0  0  0  0  # atno 17320 bound_to 7965
  145.1955  140.9831  143.4186 LP  0  0  0  0  0  0  0  0  0  0  0  0  # atno 17321 bound_to 7965
  140.7099  143.2496  151.4614 LP  0  0  0  0  0  0  0  0  0  0  0  0  # atno 17342 bound_to 10162
  139.5804  144.1723  152.1960 LP  0  0  0  0  0  0  0  0  0  0  0  0  # atno 17343 bound_to 10162
  156.0503  130.5573  150.8973 LP  0  0  0  0  0  0  0  0  0  0  0  0  # atno 17370 bound_to 10713
  157.5923  131.0944  150.9098 LP  0  0  0  0  0  0  0  0  0  0  0  0  # atno 17371 bound_to 10713
  139.9175  134.8216  156.1319 LP  0  0  0  0  0  0  0  0  0  0  0  0  # atno 17394 bound_to 11000
  141.0779  133.6767  156.2275 LP  0  0  0  0  0  0  0  0  0  0  0  0  # atno 17395 bound_to 11000

$$$$
