AV-unprocessed.smi:1941|AV-procd|sdf|7845|dock4
  -GOLD-   22720 9583D 1   1.00000     0.00000
 Structure written by MMmdl.
 40 41  0  0  0  0  0  0  0  0  1 V2000
  154.0328  140.5615  161.6232 C   0  0  0  0  0  0  0  0  0  0  0  0
  153.3759  141.8057  161.1325 C   0  0  0  0  0  0  0  0  0  0  0  0
  152.9501  141.9708  159.8775 N   0  0  0  0  0  0  0  0  0  0  0  0
  152.3708  143.2258  159.6659 C   0  0  0  0  0  0  0  0  0  0  0  0
  151.8378  143.5846  158.3120 C   0  0  0  0  0  0  0  0  0  0  0  0
  151.5703  142.3439  157.4440 C   0  0  0  0  0  0  0  0  0  0  0  0
  150.4301  142.5466  156.5575 N   0  0  0  0  0  0  0  0  0  0  0  0
  149.9772  141.6486  155.6720 C   0  0  0  0  0  0  0  0  0  0  0  0
  150.4656  140.5296  155.5151 O   0  0  0  0  0  0  0  0  0  0  0  0
  148.9314  142.1218  154.9792 N   0  0  0  0  0  0  0  0  0  0  0  0
  148.2051  141.4085  153.9299 C   0  0  2  0  0  0  0  0  0  0  0  0
  146.8764  142.1301  153.6628 C   0  0  0  0  0  0  0  0  0  0  0  0
  147.9896  139.9390  154.3409 C   0  0  2  0  0  0  0  0  0  0  0  0
  146.8903  139.2094  153.5677 C   0  0  0  0  0  0  0  0  0  0  0  0
  146.4706  138.0962  154.5143 C   0  0  0  0  0  0  0  0  0  0  0  0
  147.0252  138.5328  155.8737 C   0  0  0  0  0  0  0  0  0  0  0  0
  147.5134  139.8524  155.6748 O   0  0  0  0  0  0  0  0  0  0  0  0
  152.3606  144.0132  160.7904 C   0  0  0  0  0  0  0  0  0  0  0  0
  153.0804  143.2057  162.1560 S   0  0  0  0  0  0  0  0  0  0  0  0
  154.3364  139.9322  160.7859 H   0  0  0  0  0  0  0  0  0  0  0  0
  153.3421  139.9994  162.2516 H   0  0  0  0  0  0  0  0  0  0  0  0
  154.9170  140.8121  162.2094 H   0  0  0  0  0  0  0  0  0  0  0  0
  150.9160  144.1580  158.4173 H   0  0  0  0  0  0  0  0  0  0  0  0
  152.5423  144.2445  157.8040 H   0  0  0  0  0  0  0  0  0  0  0  0
  152.4564  142.0827  156.8627 H   0  0  0  0  0  0  0  0  0  0  0  0
  151.3535  141.4863  158.0814 H   0  0  0  0  0  0  0  0  0  0  0  0
  149.9600  143.4380  156.6160 H   0  0  0  0  0  0  0  0  0  0  0  0
  148.6100  143.0546  155.1918 H   0  0  0  0  0  0  0  0  0  0  0  0
  148.7787  141.4204  153.0014 H   0  0  0  0  0  0  0  0  0  0  0  0
  146.3138  141.6371  152.8698 H   0  0  0  0  0  0  0  0  0  0  0  0
  147.0462  143.1610  153.3503 H   0  0  0  0  0  0  0  0  0  0  0  0
  146.2475  142.1501  154.5535 H   0  0  0  0  0  0  0  0  0  0  0  0
  148.9255  139.3817  154.2646 H   0  0  0  0  0  0  0  0  0  0  0  0
  146.0462  139.8786  153.3946 H   0  0  0  0  0  0  0  0  0  0  0  0
  147.2284  138.8385  152.5998 H   0  0  0  0  0  0  0  0  0  0  0  0
  145.3859  137.9864  154.5334 H   0  0  0  0  0  0  0  0  0  0  0  0
  146.9006  137.1393  154.2168 H   0  0  0  0  0  0  0  0  0  0  0  0
  146.2703  138.5111  156.6600 H   0  0  0  0  0  0  0  0  0  0  0  0
  147.8502  137.8869  156.1771 H   0  0  0  0  0  0  0  0  0  0  0  0
  151.9747  145.0160  160.8983 H   0  0  0  0  0  0  0  0  0  0  0  0
  1  2  1  0  0  0  0
  1 20  1  0  0  0  0
  1 21  1  0  0  0  0
  1 22  1  0  0  0  0
  2 19  1  0  0  0  0
  2  3  2  0  0  0  0
  3  4  1  0  0  0  0
  4  5  1  0  0  0  0
  4 18  2  0  0  0  0
  5  6  1  0  0  0  0
  5 23  1  0  0  0  0
  5 24  1  0  0  0  0
  6  7  1  0  0  0  0
  6 25  1  0  0  0  0
  6 26  1  0  0  0  0
  7  8  1  0  0  0  0
  7 27  1  0  0  0  0
  8  9  2  0  0  0  0
  8 10  1  0  0  0  0
 10 11  1  0  0  0  0
 10 28  1  0  0  0  0
 11 12  1  0  0  0  0
 11 13  1  0  0  0  0
 11 29  1  0  0  0  0
 12 30  1  0  0  0  0
 12 31  1  0  0  0  0
 12 32  1  0  0  0  0
 13 17  1  0  0  0  0
 13 14  1  0  0  0  0
 13 33  1  0  0  0  0
 14 15  1  0  0  0  0
 14 34  1  0  0  0  0
 14 35  1  0  0  0  0
 15 16  1  0  0  0  0
 15 36  1  0  0  0  0
 15 37  1  0  0  0  0
 16 17  1  0  0  0  0
 16 38  1  0  0  0  0
 16 39  1  0  0  0  0
 18 19  1  0  0  0  0
 18 40  1  0  0  0  0
M  END
> <s_m_source_file>
AV-unprocessed.smi

> <i_m_source_file_index>
1941

> <i_lp_mmshare_version>
43012

> <i_f3d_flags>
0

> <s_epik_input>
W0NIM11jMW5jKFtjSF1zMSlbQ0gyXVtDSDJdW05IXUMoPU8pW05IXVtDQEhdKFtDSDNdKVtDQEBIXTJbQ0gyXVtDSDJdW0NIMl1PMg==

> <s_epik_cmdline>
J2VwaWtfcHl0aG9uJywgJy1waCcsICc3LjAnLCAnLXRuJywgJzgnLCAnLW1hJywgJzIwMCcsICctbWV0YWxfYmluZGluZycsICctaW1hZScsICc8aW5maWxlLm1hZT4nLCAnLW9tYWUnLCAnPG91dGZpbGUubWFlPic=

> <r_epik_Ionization_Penalty>
0.00195486

> <r_epik_Ionization_Penalty_Charging>
0

> <r_epik_Ionization_Penalty_Neutral>
0.00195486

> <r_epik_State_Penalty>
0.00129472

> <r_epik_Charging_Adjusted_Penalty>
0.00129472

> <i_epik_Tot_Q>
0

> <i_epik_Tot_abs_Q>
0

> <r_epik_Metal_State_Penalty>
-0

> <b_epik_Metal_Only>
0

> <s_lp_Force_Field>
OPLS_2005

> <r_lp_Energy>
10.4909

> <b_lp_Chiralities_Consistent>
1

> <s_lp_Variant>
AV-unprocessed.smi:1941-1

> <Gold.Version>
5.8.1

> <Gold.Id.Protein>
6NUR|6NUR_protein|mol2

> <Gold.PLP.Fitness>
46.9289

> <Gold.PLP.PLP>
-41.4455

> <Gold.PLP.part.hbond>
-3.0000

> <Gold.PLP.part.metal>
0.0000

> <Gold.PLP.part.buried>
-4.0549

> <Gold.PLP.part.nonpolar>
-31.7278

> <Gold.PLP.part.repulsive>
0.3420

> <Gold.PLP.ligand.clash>
0.0000

> <Gold.PLP.ligand.torsion>
0.9826

> <Gold.PLP.Chemscore.Hbond>
2.4562

> <Gold.PLP.Chemscore.CHOScore>
0.0000

> <Gold.PLP.Chemscore.Metal>
0.0000

> <Gold.Chemscore.Hbonds>
donor molecule, donor type, donor heavy atom, donor atom, acceptor molecule, acceptor atom, score
      L1  H     7    27       P1  8028  0.91
      L1  H    10    28       P1  8028  1.00
      P1  H  7989  7998       L1     9  0.18

> <Gold.PLP.Chemscore.Internal.Correction>
0.0801

> <Gold.Rescore>
     Score         DG    S(hbond)    S(metal)    S(lipo)     H(rot)  DE(clash)    DE(int)     intcor
     17.39     -20.46       2.03        0.00     107.15       1.69       0.46       2.62       ----

> <Gold.Chemscore.Fitness>
17.3858

> <Gold.Chemscore.DG>
-20.4627

> <Gold.Chemscore.ZeroCoef>
-5.4800

> <Gold.Chemscore.Hbond>
2.0293

> <Gold.Chemscore.Metal>
0.0000

> <Gold.Chemscore.Lipo>
107.1547

> <Gold.Chemscore.Internal_Hbond>
0.0000

> <Gold.Chemscore.DEClash>
0.4606

> <Gold.Chemscore.DEInternal>
2.6163

> <Gold.Chemscore.Rot>
1.6923

> <Gold.Chemscore.Internal.Correction>
   9.000000E+99

> <Gold.Chemscore.Hbonds>
donor molecule, donor type, donor heavy atom, donor atom, acceptor molecule, acceptor atom, score
      L1  H     7    27       P1  8028  0.89
      L1  H    10    28       P1  8028  0.97
      P1  H  7989  7998       L1     9  0.04

> <Gold.Chemscore.Hbond.Weighted>
-6.7779

> <Gold.Chemscore.Metal.Weighted>
-0.0000

> <Gold.Chemscore.Lipo.Weighted>
-12.5371

> <Gold.Chemscore.Internal_Hbond.Weighted>
0.0000

> <Gold.Chemscore.DEClash.Weighted>
0.4606

> <Gold.Chemscore.DEInternal.Weighted>
2.6163

> <Gold.Chemscore.Rot.Weighted>
4.3323

> <Gold.Chemscore.Internal.Correction.Weighted>
   9.000000E+99

> <Gold.Protein.RotatedTorsions>
[ 6907 6896 6895 6894 ] final   58.89 input  -60.11 | X-H torsion
[ 7974 7965 7964 7962 ] final   77.97 input  175.53 | X-H torsion
[ 8008 7997 7996 7995 ] final  162.70 input   59.86 | X-H torsion
[ 10167 10162 10161 10158 ] final   41.84 input  -65.29 | X-H torsion
[ 10718 10713 10712 10709 ] final  -66.24 input   66.30 | X-H torsion
[ 10763 10752 10751 10750 ] final  -51.14 input  -60.55 | X-H torsion
[ 11005 11000 10999 10996 ] final   99.17 input  -57.11 | X-H torsion

> <Gold.Protein.ActiveResidues>
 VAL166  LYS551  ARG553  GLY616  TRP617  ASP618  TYR619  PRO620  LYS621  CYS622 
 ASP623  PHE694  ASN695  SER759  ASP760  ASP761  ALA762  ILE779  LEU786  VAL792 
 PHE793  MET794  SER795  GLU796  ALA797  LYS798  CYS799  TRP800  GLU811  SER814 

> <Gold.Protein.RotatedAtoms>
  152.3865  134.6509  160.0123 H   0  0  0  0  0  0  0  0  0  0  0  0  # atno 6907 bound_to 6896
  151.6756  133.3307  159.3215 H   0  0  0  0  0  0  0  0  0  0  0  0  # atno 6908 bound_to 6896
  150.7790  134.6761  159.6463 H   0  0  0  0  0  0  0  0  0  0  0  0  # atno 6909 bound_to 6896
  145.6832  139.2530  143.1802 H   0  0  0  0  0  0  0  0  0  0  0  0  # atno 7974 bound_to 7965
  156.2012  140.1743  156.7896 H   0  0  0  0  0  0  0  0  0  0  0  0  # atno 8008 bound_to 7997
  154.5594  140.0702  156.8825 H   0  0  0  0  0  0  0  0  0  0  0  0  # atno 8009 bound_to 7997
  155.2877  140.3353  155.4256 H   0  0  0  0  0  0  0  0  0  0  0  0  # atno 8010 bound_to 7997
  140.3603  144.2236  150.6138 H   0  0  0  0  0  0  0  0  0  0  0  0  # atno 10167 bound_to 10162
  156.0624  130.4259  150.1679 H   0  0  0  0  0  0  0  0  0  0  0  0  # atno 10718 bound_to 10713
  154.1217  135.6533  153.4904 H   0  0  0  0  0  0  0  0  0  0  0  0  # atno 10763 bound_to 10752
  153.0223  135.5272  154.7090 H   0  0  0  0  0  0  0  0  0  0  0  0  # atno 10764 bound_to 10752
  154.6299  135.2975  155.0198 H   0  0  0  0  0  0  0  0  0  0  0  0  # atno 10765 bound_to 10752
  139.8771  134.9083  156.4566 H   0  0  0  0  0  0  0  0  0  0  0  0  # atno 11005 bound_to 11000
  146.0946  140.7616  142.9578 LP  0  0  0  0  0  0  0  0  0  0  0  0  # atno 17320 bound_to 7965
  144.7019  140.3691  143.7149 LP  0  0  0  0  0  0  0  0  0  0  0  0  # atno 17321 bound_to 7965
  140.5133  143.2285  151.8502 LP  0  0  0  0  0  0  0  0  0  0  0  0  # atno 17342 bound_to 10162
  139.4815  144.4924  151.9168 LP  0  0  0  0  0  0  0  0  0  0  0  0  # atno 17343 bound_to 10162
  156.9745  130.9845  151.3451 LP  0  0  0  0  0  0  0  0  0  0  0  0  # atno 17370 bound_to 10713
  157.5642  130.8266  149.8305 LP  0  0  0  0  0  0  0  0  0  0  0  0  # atno 17371 bound_to 10713
  140.8894  133.7859  155.9555 LP  0  0  0  0  0  0  0  0  0  0  0  0  # atno 17394 bound_to 11000
  140.8770  134.2658  157.5163 LP  0  0  0  0  0  0  0  0  0  0  0  0  # atno 17395 bound_to 11000

$$$$
