AV-unprocessed.smi:651|AV-procd|sdf|3186|dock6
  -GOLD-   22720 0113D 1   1.00000     0.00000
 Structure written by MMmdl.
 38 39  0  0  0  0  0  0  0  0  1 V2000
  153.4647  142.6725  162.8014 C   0  0  0  0  0  0  0  0  0  0  0  0
  152.7371  142.8120  161.4806 C   0  0  0  0  0  0  0  0  0  0  0  0
  152.0042  143.9802  161.1836 C   0  0  0  0  0  0  0  0  0  0  0  0
  151.3563  144.0665  159.9366 C   0  0  0  0  0  0  0  0  0  0  0  0
  151.4650  142.9857  159.0373 C   0  0  0  0  0  0  0  0  0  0  0  0
  150.7945  143.0340  157.6739 C   0  0  0  0  0  0  0  0  0  0  0  0
  149.3821  142.4369  157.6986 C   0  0  0  0  0  0  0  0  0  0  0  0
  148.9083  141.9546  158.7287 O   0  0  0  0  0  0  0  0  0  0  0  0
  148.7081  142.4883  156.5398 N   0  0  0  0  0  0  0  0  0  0  0  0
  147.3417  142.0009  156.3432 C   0  0  2  0  0  0  0  0  0  0  0  0
  147.1652  140.5805  156.9122 C   0  0  0  0  0  0  0  0  0  0  0  0
  146.2957  139.8064  155.9122 C   0  0  0  0  0  0  0  0  0  0  0  0
  145.8090  140.8376  154.8897 C   0  0  0  0  0  0  0  0  0  0  0  0
  146.8789  141.9392  154.8633 C   0  0  2  0  0  0  0  0  0  0  0  0
  147.9900  141.6080  153.8430 C   0  0  0  0  0  0  0  0  0  0  0  0
  147.6857  140.7324  152.8818 N   0  0  0  0  0  0  0  0  0  0  0  0
  149.0988  142.1356  153.9134 O   0  0  0  0  0  0  0  0  0  0  0  0
  152.2207  141.8614  159.4331 C   0  0  0  0  0  0  0  0  0  0  0  0
  152.8462  141.7702  160.6265 N   0  0  0  0  0  0  0  0  0  0  0  0
  152.9886  143.2774  163.5737 H   0  0  0  0  0  0  0  0  0  0  0  0
  154.4982  143.0029  162.6959 H   0  0  0  0  0  0  0  0  0  0  0  0
  153.4677  141.6355  163.1389 H   0  0  0  0  0  0  0  0  0  0  0  0
  151.9422  144.7937  161.8915 H   0  0  0  0  0  0  0  0  0  0  0  0
  150.7911  144.9490  159.6747 H   0  0  0  0  0  0  0  0  0  0  0  0
  150.7413  144.0693  157.3344 H   0  0  0  0  0  0  0  0  0  0  0  0
  151.4016  142.4921  156.9476 H   0  0  0  0  0  0  0  0  0  0  0  0
  149.1640  142.9049  155.7409 H   0  0  0  0  0  0  0  0  0  0  0  0
  146.6575  142.6593  156.8826 H   0  0  0  0  0  0  0  0  0  0  0  0
  148.1226  140.0718  157.0348 H   0  0  0  0  0  0  0  0  0  0  0  0
  146.6953  140.6190  157.8957 H   0  0  0  0  0  0  0  0  0  0  0  0
  146.8974  139.0455  155.4138 H   0  0  0  0  0  0  0  0  0  0  0  0
  145.4649  139.2942  156.3982 H   0  0  0  0  0  0  0  0  0  0  0  0
  145.6255  140.3892  153.9123 H   0  0  0  0  0  0  0  0  0  0  0  0
  144.8636  141.2654  155.2262 H   0  0  0  0  0  0  0  0  0  0  0  0
  146.4258  142.8905  154.5787 H   0  0  0  0  0  0  0  0  0  0  0  0
  148.3783  140.4793  152.1920 H   0  0  0  0  0  0  0  0  0  0  0  0
  146.7632  140.3235  152.8508 H   0  0  0  0  0  0  0  0  0  0  0  0
  152.3322  141.0144  158.7721 H   0  0  0  0  0  0  0  0  0  0  0  0
  1  2  1  0  0  0  0
  1 20  1  0  0  0  0
  1 21  1  0  0  0  0
  1 22  1  0  0  0  0
  2 19  1  0  0  0  0
  2  3  2  0  0  0  0
  3  4  1  0  0  0  0
  3 23  1  0  0  0  0
  4  5  2  0  0  0  0
  4 24  1  0  0  0  0
  5  6  1  0  0  0  0
  5 18  1  0  0  0  0
  6  7  1  0  0  0  0
  6 25  1  0  0  0  0
  6 26  1  0  0  0  0
  7  8  2  0  0  0  0
  7  9  1  0  0  0  0
  9 10  1  0  0  0  0
  9 27  1  0  0  0  0
 10 14  1  0  0  0  0
 10 11  1  0  0  0  0
 10 28  1  0  0  0  0
 11 12  1  0  0  0  0
 11 29  1  0  0  0  0
 11 30  1  0  0  0  0
 12 13  1  0  0  0  0
 12 31  1  0  0  0  0
 12 32  1  0  0  0  0
 13 14  1  0  0  0  0
 13 33  1  0  0  0  0
 13 34  1  0  0  0  0
 14 15  1  0  0  0  0
 14 35  1  0  0  0  0
 15 16  1  0  0  0  0
 15 17  2  0  0  0  0
 16 36  1  0  0  0  0
 16 37  1  0  0  0  0
 18 19  2  0  0  0  0
 18 38  1  0  0  0  0
M  END
> <s_m_source_file>
AV-unprocessed.smi

> <i_m_source_file_index>
651

> <i_lp_mmshare_version>
43012

> <i_f3d_flags>
0

> <s_epik_input>
W0NIM11jMVtjSF1bY0hdYyhbY0hdbjEpW0NIMl1DKD1PKVtOSF1bQ0BASF0yW0NIMl1bQ0gyXVtDSDJdW0NASF0yQyg9TylbTkgyXQ==

> <s_epik_cmdline>
J2VwaWtfcHl0aG9uJywgJy1waCcsICc3LjAnLCAnLXRuJywgJzgnLCAnLW1hJywgJzIwMCcsICctbWV0YWxfYmluZGluZycsICctaW1hZScsICc8aW5maWxlLm1hZT4nLCAnLW9tYWUnLCAnPG91dGZpbGUubWFlPic=

> <r_epik_Ionization_Penalty>
0.0159502

> <r_epik_Ionization_Penalty_Charging>
0

> <r_epik_Ionization_Penalty_Neutral>
0.0159502

> <r_epik_State_Penalty>
0.012563

> <r_epik_Charging_Adjusted_Penalty>
0.012563

> <i_epik_Tot_Q>
0

> <i_epik_Tot_abs_Q>
0

> <r_epik_Metal_State_Penalty>
0.0122326

> <b_epik_Metal_Only>
0

> <s_lp_Force_Field>
OPLS_2005

> <r_lp_Energy>
13.1482

> <b_lp_Chiralities_Consistent>
1

> <s_lp_Variant>
AV-unprocessed.smi:651-3

> <Gold.Version>
5.8.1

> <Gold.Id.Protein>
6NUR|6NUR_protein|mol2

> <Gold.PLP.Fitness>
39.7607

> <Gold.PLP.PLP>
-36.6551

> <Gold.PLP.part.hbond>
-5.3892

> <Gold.PLP.part.metal>
0.0000

> <Gold.PLP.part.buried>
-5.1714

> <Gold.PLP.part.nonpolar>
-26.7709

> <Gold.PLP.part.repulsive>
0.4026

> <Gold.PLP.ligand.clash>
0.0000

> <Gold.PLP.ligand.torsion>
0.9916

> <Gold.PLP.Chemscore.Hbond>
1.6877

> <Gold.PLP.Chemscore.CHOScore>
0.0000

> <Gold.PLP.Chemscore.Metal>
0.0000

> <Gold.Chemscore.Hbonds>
donor molecule, donor type, donor heavy atom, donor atom, acceptor molecule, acceptor atom, score
      L1  H     9    27       P1  8028  0.24
      L1  H    16    36       P1  7957  1.00
      P1  H  8011  8017       L1    17  0.35

> <Gold.PLP.Chemscore.Internal.Correction>
0.0258

> <Gold.Rescore>
     Score         DG    S(hbond)    S(metal)    S(lipo)     H(rot)  DE(clash)    DE(int)     intcor
     11.90     -15.76       1.60        0.00      85.23       1.97       0.06       3.79       ----

> <Gold.Chemscore.Fitness>
11.9008

> <Gold.Chemscore.DG>
-15.7592

> <Gold.Chemscore.ZeroCoef>
-5.4800

> <Gold.Chemscore.Hbond>
1.6023

> <Gold.Chemscore.Metal>
0.0000

> <Gold.Chemscore.Lipo>
85.2277

> <Gold.Chemscore.Internal_Hbond>
0.0000

> <Gold.Chemscore.DEClash>
0.0642

> <Gold.Chemscore.DEInternal>
3.7941

> <Gold.Chemscore.Rot>
1.9704

> <Gold.Chemscore.Internal.Correction>
   9.000000E+99

> <Gold.Chemscore.Hbonds>
donor molecule, donor type, donor heavy atom, donor atom, acceptor molecule, acceptor atom, score
      L1  H     9    27       P1  8028  0.24
      L1  H    16    36       P1  7957  1.00
      P1  H  8011  8017       L1    17  0.31

> <Gold.Chemscore.Hbond.Weighted>
-5.3518

> <Gold.Chemscore.Metal.Weighted>
-0.0000

> <Gold.Chemscore.Lipo.Weighted>
-9.9716

> <Gold.Chemscore.Internal_Hbond.Weighted>
0.0000

> <Gold.Chemscore.DEClash.Weighted>
0.0642

> <Gold.Chemscore.DEInternal.Weighted>
3.7941

> <Gold.Chemscore.Rot.Weighted>
5.0443

> <Gold.Chemscore.Internal.Correction.Weighted>
   9.000000E+99

> <Gold.Protein.RotatedTorsions>
[ 6907 6896 6895 6894 ] final  -58.67 input  -60.11 | X-H torsion
[ 7974 7965 7964 7962 ] final -140.32 input  175.53 | X-H torsion
[ 8008 7997 7996 7995 ] final  -61.09 input   59.86 | X-H torsion
[ 10167 10162 10161 10158 ] final   70.23 input  -65.29 | X-H torsion
[ 10718 10713 10712 10709 ] final -119.40 input   66.30 | X-H torsion
[ 10763 10752 10751 10750 ] final  -94.44 input  -60.55 | X-H torsion
[ 11005 11000 10999 10996 ] final  -36.57 input  -57.11 | X-H torsion

> <Gold.Protein.ActiveResidues>
 VAL166  LYS551  ARG553  GLY616  TRP617  ASP618  TYR619  PRO620  LYS621  CYS622 
 ASP623  PHE694  ASN695  SER759  ASP760  ASP761  ALA762  ILE779  LEU786  VAL792 
 PHE793  MET794  SER795  GLU796  ALA797  LYS798  CYS799  TRP800  GLU811  SER814 

> <Gold.Protein.RotatedAtoms>
  150.7989  134.7069  159.6581 H   0  0  0  0  0  0  0  0  0  0  0  0  # atno 6907 bound_to 6896
  152.4104  134.6131  160.0040 H   0  0  0  0  0  0  0  0  0  0  0  0  # atno 6908 bound_to 6896
  151.6375  133.3291  159.3159 H   0  0  0  0  0  0  0  0  0  0  0  0  # atno 6909 bound_to 6896
  144.8607  140.6214  143.5330 H   0  0  0  0  0  0  0  0  0  0  0  0  # atno 7974 bound_to 7965
  154.4430  140.1025  156.6376 H   0  0  0  0  0  0  0  0  0  0  0  0  # atno 8008 bound_to 7997
  155.5537  140.3486  155.4456 H   0  0  0  0  0  0  0  0  0  0  0  0  # atno 8009 bound_to 7997
  156.0510  140.1304  157.0039 H   0  0  0  0  0  0  0  0  0  0  0  0  # atno 8010 bound_to 7997
  140.0592  144.5247  150.7307 H   0  0  0  0  0  0  0  0  0  0  0  0  # atno 10167 bound_to 10162
  156.1178  130.6300  150.9412 H   0  0  0  0  0  0  0  0  0  0  0  0  # atno 10718 bound_to 10713
  154.7055  135.5157  153.8589 H   0  0  0  0  0  0  0  0  0  0  0  0  # atno 10763 bound_to 10752
  153.0738  135.6610  154.0199 H   0  0  0  0  0  0  0  0  0  0  0  0  # atno 10764 bound_to 10752
  154.0050  135.3007  155.3378 H   0  0  0  0  0  0  0  0  0  0  0  0  # atno 10765 bound_to 10752
  140.9885  133.7018  156.1807 H   0  0  0  0  0  0  0  0  0  0  0  0  # atno 11005 bound_to 11000
  145.4319  139.1548  143.4018 LP  0  0  0  0  0  0  0  0  0  0  0  0  # atno 17320 bound_to 7965
  146.2858  140.4435  142.8758 LP  0  0  0  0  0  0  0  0  0  0  0  0  # atno 17321 bound_to 7965
  140.7180  143.2562  151.4371 LP  0  0  0  0  0  0  0  0  0  0  0  0  # atno 17342 bound_to 10162
  139.5904  144.1511  152.2081 LP  0  0  0  0  0  0  0  0  0  0  0  0  # atno 17343 bound_to 10162
  157.6362  131.0916  150.8344 LP  0  0  0  0  0  0  0  0  0  0  0  0  # atno 17370 bound_to 10713
  156.8445  130.5059  149.5318 LP  0  0  0  0  0  0  0  0  0  0  0  0  # atno 17371 bound_to 10713
  140.7077  134.4495  157.5583 LP  0  0  0  0  0  0  0  0  0  0  0  0  # atno 17394 bound_to 11000
  139.8981  134.8621  156.2015 LP  0  0  0  0  0  0  0  0  0  0  0  0  # atno 17395 bound_to 11000

$$$$
