AV-unprocessed.smi:3283|AV-procd|sdf|12570|dock1
  -GOLD-   2272018493D 1   1.00000     0.00000
 Structure written by MMmdl.
 44 45  0  0  0  0  0  0  0  0  2 V2000
  151.1265  144.2883  160.1340 C   0  0  0  0  0  0  0  0  0  0  0  0
  152.0303  143.0914  159.8898 C   0  0  0  0  0  0  0  0  0  0  0  0
  153.2035  142.9964  160.5442 C   0  0  0  0  0  0  0  0  0  0  0  0
  154.1443  141.8186  160.4398 C   0  0  0  0  0  0  0  0  0  0  0  0
  153.4104  140.5728  159.9385 C   0  0  0  0  0  0  0  0  0  0  0  0
  152.5882  140.8757  158.6753 C   0  0  1  0  0  0  0  0  0  0  0  0
  151.9450  139.5733  158.1597 C   0  0  0  0  0  0  0  0  0  0  0  0
  151.5401  142.0083  158.9065 C   0  0  2  0  0  0  0  0  0  0  0  0
  151.0835  142.5962  157.5448 C   0  0  0  0  0  0  0  0  0  0  0  0
  149.7080  143.1322  157.5844 N   0  3  0  0  0  0  0  0  0  0  0  0
  148.6748  142.1311  157.9152 C   0  0  0  0  0  0  0  0  0  0  0  0
  148.8060  140.8715  157.0454 C   0  0  0  0  0  0  0  0  0  0  0  0
  148.4487  141.0941  155.6072 C   0  0  0  0  0  0  0  0  0  0  0  0
  149.1920  140.8676  154.4824 C   0  0  0  0  0  0  0  0  0  0  0  0
  148.3324  141.2447  153.4146 C   0  0  0  0  0  0  0  0  0  0  0  0
  147.1546  141.6672  153.8391 N   0  0  0  0  0  0  0  0  0  0  0  0
  147.2229  141.5829  155.1846 N   0  0  0  0  0  0  0  0  0  0  0  0
  146.0700  141.9842  155.9695 C   0  0  0  0  0  0  0  0  0  0  0  0
  150.1183  143.9593  160.3843 H   0  0  0  0  0  0  0  0  0  0  0  0
  151.0841  144.9327  159.2563 H   0  0  0  0  0  0  0  0  0  0  0  0
  151.4891  144.8954  160.9641 H   0  0  0  0  0  0  0  0  0  0  0  0
  153.5177  143.7892  161.2076 H   0  0  0  0  0  0  0  0  0  0  0  0
  154.9638  142.0836  159.7711 H   0  0  0  0  0  0  0  0  0  0  0  0
  154.5800  141.6200  161.4195 H   0  0  0  0  0  0  0  0  0  0  0  0
  154.1347  139.7812  159.7427 H   0  0  0  0  0  0  0  0  0  0  0  0
  152.7503  140.1993  160.7231 H   0  0  0  0  0  0  0  0  0  0  0  0
  153.2938  141.2187  157.9165 H   0  0  0  0  0  0  0  0  0  0  0  0
  151.2188  139.1827  158.8733 H   0  0  0  0  0  0  0  0  0  0  0  0
  152.6993  138.8010  158.0058 H   0  0  0  0  0  0  0  0  0  0  0  0
  151.4335  139.7076  157.2081 H   0  0  0  0  0  0  0  0  0  0  0  0
  150.6747  141.5508  159.3886 H   0  0  0  0  0  0  0  0  0  0  0  0
  151.7748  143.3799  157.2311 H   0  0  0  0  0  0  0  0  0  0  0  0
  151.1050  141.8392  156.7624 H   0  0  0  0  0  0  0  0  0  0  0  0
  149.6717  143.8708  158.2728 H   0  0  0  0  0  0  0  0  0  0  0  0
  148.7693  141.8598  158.9675 H   0  0  0  0  0  0  0  0  0  0  0  0
  147.6855  142.5724  157.7855 H   0  0  0  0  0  0  0  0  0  0  0  0
  149.8159  140.4705  157.1311 H   0  0  0  0  0  0  0  0  0  0  0  0
  148.1529  140.0981  157.4512 H   0  0  0  0  0  0  0  0  0  0  0  0
  150.2010  140.4861  154.4298 H   0  0  0  0  0  0  0  0  0  0  0  0
  148.5268  141.2216  152.3524 H   0  0  0  0  0  0  0  0  0  0  0  0
  146.3829  142.6186  156.7987 H   0  0  0  0  0  0  0  0  0  0  0  0
  145.5665  141.1007  156.3600 H   0  0  0  0  0  0  0  0  0  0  0  0
  145.3646  142.5452  155.3546 H   0  0  0  0  0  0  0  0  0  0  0  0
  149.4941  143.5248  156.6788 H   0  0  0  0  0  0  0  0  0  0  0  0
  1  2  1  0  0  0  0
  1 19  1  0  0  0  0
  1 20  1  0  0  0  0
  1 21  1  0  0  0  0
  2  8  1  0  0  0  0
  2  3  2  0  0  0  0
  3  4  1  0  0  0  0
  3 22  1  0  0  0  0
  4  5  1  0  0  0  0
  4 23  1  0  0  0  0
  4 24  1  0  0  0  0
  5  6  1  0  0  0  0
  5 25  1  0  0  0  0
  5 26  1  0  0  0  0
  6  7  1  0  0  0  0
  6  8  1  0  0  0  0
  6 27  1  0  0  0  0
  7 28  1  0  0  0  0
  7 29  1  0  0  0  0
  7 30  1  0  0  0  0
  8  9  1  0  0  0  0
  8 31  1  0  0  0  0
  9 10  1  0  0  0  0
  9 32  1  0  0  0  0
  9 33  1  0  0  0  0
 10 11  1  0  0  0  0
 10 34  1  0  0  0  0
 10 44  1  0  0  0  0
 11 12  1  0  0  0  0
 11 35  1  0  0  0  0
 11 36  1  0  0  0  0
 12 13  1  0  0  0  0
 12 37  1  0  0  0  0
 12 38  1  0  0  0  0
 13 17  1  0  0  0  0
 13 14  2  0  0  0  0
 14 15  1  0  0  0  0
 14 39  1  0  0  0  0
 15 16  2  0  0  0  0
 15 40  1  0  0  0  0
 16 17  1  0  0  0  0
 17 18  1  0  0  0  0
 18 41  1  0  0  0  0
 18 42  1  0  0  0  0
 18 43  1  0  0  0  0
M  CHG  1  10   1
M  END
> <s_m_source_file>
AV-unprocessed.smi

> <i_m_source_file_index>
3283

> <i_lp_mmshare_version>
43012

> <i_f3d_flags>
0

> <s_epik_input>
W0NIM11DMT1bQ0hdW0NIMl1bQ0gyXVtDQEBIXShbQ0gzXSlbQ0BIXTFbQ0gyXVtOSF1bQ0gyXVtDSDJdYzJbY0hdW2NIXW5uMltDSDNd

> <s_epik_cmdline>
J2VwaWtfcHl0aG9uJywgJy1waCcsICc3LjAnLCAnLXRuJywgJzgnLCAnLW1hJywgJzIwMCcsICctbWV0YWxfYmluZGluZycsICctaW1hZScsICc8aW5maWxlLm1hZT4nLCAnLW9tYWUnLCAnPG91dGZpbGUubWFlPic=

> <r_lp_tautomer_probability>
1

> <r_epik_Ionization_Penalty>
0.000866911

> <r_epik_Ionization_Penalty_Charging>
0.000836385

> <r_epik_Ionization_Penalty_Neutral>
3.05258e-05

> <r_epik_State_Penalty>
-0

> <r_epik_Charging_Adjusted_Penalty>
0.000836385

> <i_epik_Tot_Q>
1

> <i_epik_Tot_abs_Q>
1

> <r_epik_Metal_State_Penalty>
-0

> <b_epik_Metal_Only>
0

> <s_lp_Force_Field>
OPLS_2005

> <r_lp_Energy>
14.6104

> <b_lp_Chiralities_Consistent>
1

> <s_lp_Variant>
AV-unprocessed.smi:3283-3

> <Gold.Version>
5.8.1

> <Gold.Id.Protein>
6NUR|6NUR_protein|mol2

> <Gold.PLP.Fitness>
45.7250

> <Gold.PLP.PLP>
-37.2852

> <Gold.PLP.part.hbond>
-1.2800

> <Gold.PLP.part.metal>
0.0000

> <Gold.PLP.part.buried>
-4.7402

> <Gold.PLP.part.nonpolar>
-31.2748

> <Gold.PLP.part.repulsive>
0.1954

> <Gold.PLP.ligand.clash>
0.0000

> <Gold.PLP.ligand.torsion>
0.3386

> <Gold.PLP.Chemscore.Hbond>
2.0000

> <Gold.PLP.Chemscore.CHOScore>
1.0000

> <Gold.PLP.Chemscore.Metal>
0.0000

> <Gold.Chemscore.Hbonds>
donor molecule, donor type, donor heavy atom, donor atom, acceptor molecule, acceptor atom, score
      L1  H    10    44       P1  8028  2.00
      L1  C    15    40       P1  7957  0.86

> <Gold.PLP.Chemscore.Internal.Correction>
0.1168

> <Gold.Rescore>
     Score         DG    S(hbond)    S(metal)    S(lipo)     H(rot)  DE(clash)    DE(int)     intcor
     17.28     -17.62       0.96        0.00     108.86       1.48       0.03       0.31       ----

> <Gold.Chemscore.Fitness>
17.2787

> <Gold.Chemscore.DG>
-17.6162

> <Gold.Chemscore.ZeroCoef>
-5.4800

> <Gold.Chemscore.Hbond>
0.9583

> <Gold.Chemscore.Metal>
0.0000

> <Gold.Chemscore.Lipo>
108.8581

> <Gold.Chemscore.Internal_Hbond>
0.0000

> <Gold.Chemscore.DEClash>
0.0255

> <Gold.Chemscore.DEInternal>
0.3121

> <Gold.Chemscore.Rot>
1.4847

> <Gold.Chemscore.Internal.Correction>
   9.000000E+99

> <Gold.Chemscore.Hbonds>
donor molecule, donor type, donor heavy atom, donor atom, acceptor molecule, acceptor atom, score
      L1  H    10    44       P1  8028  0.96

> <Gold.Chemscore.Hbond.Weighted>
-3.2007

> <Gold.Chemscore.Metal.Weighted>
-0.0000

> <Gold.Chemscore.Lipo.Weighted>
-12.7364

> <Gold.Chemscore.Internal_Hbond.Weighted>
0.0000

> <Gold.Chemscore.DEClash.Weighted>
0.0255

> <Gold.Chemscore.DEInternal.Weighted>
0.3121

> <Gold.Chemscore.Rot.Weighted>
3.8008

> <Gold.Chemscore.Internal.Correction.Weighted>
   9.000000E+99

> <Gold.Protein.RotatedTorsions>
[ 6907 6896 6895 6894 ] final  149.60 input  -60.11 | X-H torsion
[ 7974 7965 7964 7962 ] final  147.68 input  175.53 | X-H torsion
[ 8008 7997 7996 7995 ] final   52.98 input   59.86 | X-H torsion
[ 10167 10162 10161 10158 ] final -174.84 input  -65.29 | X-H torsion
[ 10718 10713 10712 10709 ] final   88.69 input   66.30 | X-H torsion
[ 10763 10752 10751 10750 ] final -113.39 input  -60.55 | X-H torsion
[ 11005 11000 10999 10996 ] final -147.64 input  -57.11 | X-H torsion

> <Gold.Protein.ActiveResidues>
 VAL166  LYS551  ARG553  GLY616  TRP617  ASP618  TYR619  PRO620  LYS621  CYS622 
 ASP623  PHE694  ASN695  SER759  ASP760  ASP761  ALA762  ILE779  LEU786  VAL792 
 PHE793  MET794  SER795  GLU796  ALA797  LYS798  CYS799  TRP800  GLU811  SER814 

> <Gold.Protein.RotatedAtoms>
  152.1258  133.4379  159.4696 H   0  0  0  0  0  0  0  0  0  0  0  0  # atno 6907 bound_to 6896
  150.6875  134.2480  159.4508 H   0  0  0  0  0  0  0  0  0  0  0  0  # atno 6908 bound_to 6896
  152.0360  134.9739  160.0624 H   0  0  0  0  0  0  0  0  0  0  0  0  # atno 6909 bound_to 6896
  144.8573  139.6058  143.5947 H   0  0  0  0  0  0  0  0  0  0  0  0  # atno 7974 bound_to 7965
  155.4607  140.3461  155.4312 H   0  0  0  0  0  0  0  0  0  0  0  0  # atno 8008 bound_to 7997
  156.1162  140.1474  156.9298 H   0  0  0  0  0  0  0  0  0  0  0  0  # atno 8009 bound_to 7997
  154.4791  140.0875  156.7313 H   0  0  0  0  0  0  0  0  0  0  0  0  # atno 8010 bound_to 7997
  139.5612  144.1865  152.1242 H   0  0  0  0  0  0  0  0  0  0  0  0  # atno 10167 bound_to 10162
  157.6951  131.0304  150.3313 H   0  0  0  0  0  0  0  0  0  0  0  0  # atno 10718 bound_to 10713
  154.8394  135.4456  154.1341 H   0  0  0  0  0  0  0  0  0  0  0  0  # atno 10763 bound_to 10752
  153.2544  135.6930  153.7651 H   0  0  0  0  0  0  0  0  0  0  0  0  # atno 10764 bound_to 10752
  153.6951  135.3381  155.3187 H   0  0  0  0  0  0  0  0  0  0  0  0  # atno 10765 bound_to 10752
  140.7696  134.3204  157.5079 H   0  0  0  0  0  0  0  0  0  0  0  0  # atno 11005 bound_to 11000
  146.2833  139.6935  142.9213 LP  0  0  0  0  0  0  0  0  0  0  0  0  # atno 17320 bound_to 7965
  145.4381  141.0420  143.2873 LP  0  0  0  0  0  0  0  0  0  0  0  0  # atno 17321 bound_to 7965
  140.1379  144.5229  150.6762 LP  0  0  0  0  0  0  0  0  0  0  0  0  # atno 17342 bound_to 10162
  140.6892  143.2366  151.5177 LP  0  0  0  0  0  0  0  0  0  0  0  0  # atno 17343 bound_to 10162
  156.3786  130.3876  149.7119 LP  0  0  0  0  0  0  0  0  0  0  0  0  # atno 17370 bound_to 10713
  156.4509  130.7906  151.2927 LP  0  0  0  0  0  0  0  0  0  0  0  0  # atno 17371 bound_to 10713
  139.8758  134.9252  156.3370 LP  0  0  0  0  0  0  0  0  0  0  0  0  # atno 17394 bound_to 11000
  140.9586  133.7403  156.0370 LP  0  0  0  0  0  0  0  0  0  0  0  0  # atno 17395 bound_to 11000

$$$$
