AV-unprocessed.smi:1|AV-procd|sdf|21|dock10
  -GOLD-   2262015123D 1   1.00000     0.00000
 Structure written by MMmdl.
 56 61  0  0  0  0  0  0  0  0  2 V2000
  152.5536  140.1297  158.0432 O   0  0  0  0  0  0  0  0  0  0  0  0
  151.9349  141.1086  157.6197 C   0  0  0  0  0  0  0  0  0  0  0  0
  151.2010  141.2011  156.4817 N   0  5  0  0  0  0  0  0  0  0  0  0
  150.6077  140.1058  155.9826 C   0  0  0  0  0  0  0  0  0  0  0  0
  150.5713  139.8953  154.6422 N   0  0  0  0  0  0  0  0  0  0  0  0
  149.9725  138.8071  154.1449 C   0  0  0  0  0  0  0  0  0  0  0  0
  149.3573  137.8158  154.7964 N   0  0  0  0  0  0  0  0  0  0  0  0
  149.3977  138.0072  156.1472 C   0  0  0  0  0  0  0  0  0  0  0  0
  150.0057  139.1153  156.8067 C   0  0  0  0  0  0  0  0  0  0  0  0
  149.8739  139.0023  158.1824 N   0  0  0  0  0  0  0  0  0  0  0  0
  149.2020  137.8592  158.2947 C   0  0  0  0  0  0  0  0  0  0  0  0
  148.8726  137.2152  157.1571 N   0  0  0  0  0  0  0  0  0  0  0  0
  148.1239  135.9267  157.0397 C   0  0  2  0  0  0  0  0  0  0  0  0
  146.9339  136.1464  156.3414 O   0  0  0  0  0  0  0  0  0  0  0  0
  145.8068  135.8848  157.1735 C   0  0  1  0  0  0  0  0  0  0  0  0
  144.6170  135.3842  156.3474 C   0  0  0  0  0  0  0  0  0  0  0  0
  145.0891  134.9463  155.0842 O   0  0  0  0  0  0  0  0  0  0  0  0
  144.2391  134.8323  154.0468 C   0  0  0  0  0  0  0  0  0  0  0  0
  143.0486  135.1473  154.1025 O   0  0  0  0  0  0  0  0  0  0  0  0
  144.8912  134.2862  152.8216 C   0  0  0  0  0  0  0  0  0  0  0  0
  144.1187  134.0955  151.6519 C   0  0  0  0  0  0  0  0  0  0  0  0
  144.7067  133.5811  150.4799 C   0  0  0  0  0  0  0  0  0  0  0  0
  146.0747  133.2521  150.4628 C   0  0  0  0  0  0  0  0  0  0  0  0
  146.8540  133.4369  151.6197 C   0  0  0  0  0  0  0  0  0  0  0  0
  146.2677  133.9504  152.7931 C   0  0  0  0  0  0  0  0  0  0  0  0
  146.3291  134.8873  158.2054 C   0  0  1  0  0  0  0  0  0  0  0  0
  146.3570  133.5685  157.6840 O   0  0  0  0  0  0  0  0  0  0  0  0
  147.8010  132.8570  158.1309 S   0  0  0  0  0  0  0  0  0  0  0  0
  147.5413  131.9553  159.2633 O   0  0  0  0  0  0  0  0  0  0  0  0
  148.4952  132.4188  156.9104 O   0  0  0  0  0  0  0  0  0  0  0  0
  148.5736  134.2188  158.7152 O   0  0  0  0  0  0  0  0  0  0  0  0
  147.7728  135.3493  158.4192 C   0  0  1  0  0  0  0  0  0  0  0  0
  151.9047  142.3625  158.4515 C   0  0  0  0  0  0  0  0  0  0  0  0
  151.3935  143.5582  157.8974 C   0  0  0  0  0  0  0  0  0  0  0  0
  151.3297  144.7352  158.6686 C   0  0  0  0  0  0  0  0  0  0  0  0
  151.7679  144.7265  160.0060 C   0  0  0  0  0  0  0  0  0  0  0  0
  152.2663  143.5387  160.5729 C   0  0  0  0  0  0  0  0  0  0  0  0
  152.3309  142.3614  159.8021 C   0  0  0  0  0  0  0  0  0  0  0  0
  149.9851  138.7195  153.0687 H   0  0  0  0  0  0  0  0  0  0  0  0
  148.9273  137.4699  159.2641 H   0  0  0  0  0  0  0  0  0  0  0  0
  148.7726  135.2775  156.4499 H   0  0  0  0  0  0  0  0  0  0  0  0
  145.5284  136.8012  157.6931 H   0  0  0  0  0  0  0  0  0  0  0  0
  144.0974  134.5783  156.8677 H   0  0  0  0  0  0  0  0  0  0  0  0
  143.9036  136.1953  156.1959 H   0  0  0  0  0  0  0  0  0  0  0  0
  143.0667  134.3422  151.6411 H   0  0  0  0  0  0  0  0  0  0  0  0
  144.1066  133.4398  149.5930 H   0  0  0  0  0  0  0  0  0  0  0  0
  146.5258  132.8587  149.5637 H   0  0  0  0  0  0  0  0  0  0  0  0
  147.9043  133.1845  151.6085 H   0  0  0  0  0  0  0  0  0  0  0  0
  146.8948  134.0793  153.6633 H   0  0  0  0  0  0  0  0  0  0  0  0
  145.7467  134.8956  159.1273 H   0  0  0  0  0  0  0  0  0  0  0  0
  147.8375  136.1113  159.1966 H   0  0  0  0  0  0  0  0  0  0  0  0
  151.0501  143.5803  156.8731 H   0  0  0  0  0  0  0  0  0  0  0  0
  150.9425  145.6445  158.2331 H   0  0  0  0  0  0  0  0  0  0  0  0
  151.7175  145.6284  160.5977 H   0  0  0  0  0  0  0  0  0  0  0  0
  152.5963  143.5283  161.6011 H   0  0  0  0  0  0  0  0  0  0  0  0
  152.7061  141.4572  160.2596 H   0  0  0  0  0  0  0  0  0  0  0  0
  1  2  2  0  0  0  0
  2  3  1  0  0  0  0
  2 33  1  0  0  0  0
  3  4  1  0  0  0  0
  4  9  1  0  0  0  0
  4  5  2  0  0  0  0
  5  6  1  0  0  0  0
  6  7  2  0  0  0  0
  6 39  1  0  0  0  0
  7  8  1  0  0  0  0
  8 12  1  0  0  0  0
  8  9  2  0  0  0  0
  9 10  1  0  0  0  0
 10 11  2  0  0  0  0
 11 12  1  0  0  0  0
 11 40  1  0  0  0  0
 12 13  1  0  0  0  0
 13 32  1  0  0  0  0
 13 14  1  0  0  0  0
 13 41  1  0  0  0  0
 14 15  1  0  0  0  0
 15 16  1  0  0  0  0
 15 26  1  0  0  0  0
 15 42  1  0  0  0  0
 16 17  1  0  0  0  0
 16 43  1  0  0  0  0
 16 44  1  0  0  0  0
 17 18  1  0  0  0  0
 18 19  2  0  0  0  0
 18 20  1  0  0  0  0
 20 25  1  0  0  0  0
 20 21  2  0  0  0  0
 21 22  1  0  0  0  0
 21 45  1  0  0  0  0
 22 23  2  0  0  0  0
 22 46  1  0  0  0  0
 23 24  1  0  0  0  0
 23 47  1  0  0  0  0
 24 25  2  0  0  0  0
 24 48  1  0  0  0  0
 25 49  1  0  0  0  0
 26 32  1  0  0  0  0
 26 27  1  0  0  0  0
 26 50  1  0  0  0  0
 27 28  1  0  0  0  0
 28 29  2  0  0  0  0
 28 30  2  0  0  0  0
 28 31  1  0  0  0  0
 31 32  1  0  0  0  0
 32 51  1  0  0  0  0
 33 38  1  0  0  0  0
 33 34  2  0  0  0  0
 34 35  1  0  0  0  0
 34 52  1  0  0  0  0
 35 36  2  0  0  0  0
 35 53  1  0  0  0  0
 36 37  1  0  0  0  0
 36 54  1  0  0  0  0
 37 38  2  0  0  0  0
 37 55  1  0  0  0  0
 38 56  1  0  0  0  0
M  CHG  1   3  -1
M  END
> <s_m_source_file>
AV-unprocessed.smi

> <i_m_source_file_index>
1

> <i_lp_mmshare_version>
43012

> <i_f3d_flags>
0

> <s_epik_input>
W2NIXTFbY0hdW2NIXVtjSF1bY0hdYzFDKD1PKVtOSF1jKG5bY0hdbjIpYyhjMjMpbltjSF1uM1tDQEBIXShbQ0BIXShbQ0BIXTQ1KU9TKE81KSg9Tyk9TylPW0NASF00W0NIMl1PQyg9TyljNltjSF1bY0hdW2NIXVtjSF1bY0hdNg==

> <s_epik_cmdline>
J2VwaWtfcHl0aG9uJywgJy1waCcsICc3LjAnLCAnLXRuJywgJzgnLCAnLW1hJywgJzIwMCcsICctbWV0YWxfYmluZGluZycsICctaW1hZScsICc8aW5maWxlLm1hZT4nLCAnLW9tYWUnLCAnPG91dGZpbGUubWFlPic=

> <r_lp_tautomer_probability>
1

> <r_epik_Ionization_Penalty>
4.39121

> <r_epik_Ionization_Penalty_Charging>
3.39398

> <r_epik_Ionization_Penalty_Neutral>
0.997232

> <r_epik_State_Penalty>
3.39839

> <r_epik_Charging_Adjusted_Penalty>
6.79237

> <i_epik_Tot_Q>
-1

> <i_epik_Tot_abs_Q>
1

> <r_epik_Metal_State_Penalty>
0.497663

> <b_epik_Metal_Only>
1

> <s_epik_Chemistry_Notes>
This compound has an ester and may undergo hydrolysis at high or low pH. This compound contains an acetal/aminal-like group ( X-CH(R)-Y where X, Y are N, S, or O) that may be acid/base labile, releasing an aldehyde.

> <s_lp_Force_Field>
OPLS_2005

> <r_lp_Energy>
42.9256

> <b_lp_Chiralities_Consistent>
1

> <s_lp_Variant>
AV-unprocessed.smi:1-21

> <Gold.Version>
5.8.1

> <Gold.Id.Protein>
6NUR|6NUR_protein|mol2

> <Gold.PLP.Fitness>
53.4399

> <Gold.PLP.PLP>
-46.0280

> <Gold.PLP.part.hbond>
-3.0000

> <Gold.PLP.part.metal>
0.0000

> <Gold.PLP.part.buried>
-8.2125

> <Gold.PLP.part.nonpolar>
-34.4733

> <Gold.PLP.part.repulsive>
0.4303

> <Gold.PLP.ligand.clash>
0.0000

> <Gold.PLP.ligand.torsion>
1.2540

> <Gold.PLP.Chemscore.Hbond>
2.0000

> <Gold.PLP.Chemscore.CHOScore>
1.2269

> <Gold.PLP.Chemscore.Metal>
0.0000

> <Gold.Chemscore.Hbonds>
donor molecule, donor type, donor heavy atom, donor atom, acceptor molecule, acceptor atom, score
      P1  H  7989  7998       L1     5  1.00
      P1  H  7997  8008       L1     1  0.46
      L1  C     6    39       P1  7948  0.05
      L1  C     6    39       P1  7957  1.00

> <Gold.PLP.Chemscore.Internal.Correction>
0.2391

> <Gold.Rescore>
     Score         DG    S(hbond)    S(metal)    S(lipo)     H(rot)  DE(clash)    DE(int)     intcor
     17.14     -18.89       1.79        0.00     109.68       2.11       0.40       1.35       ----

> <Gold.Chemscore.Fitness>
17.1426

> <Gold.Chemscore.DG>
-18.8925

> <Gold.Chemscore.ZeroCoef>
-5.4800

> <Gold.Chemscore.Hbond>
1.7937

> <Gold.Chemscore.Metal>
0.0000

> <Gold.Chemscore.Lipo>
109.6787

> <Gold.Chemscore.Internal_Hbond>
0.0000

> <Gold.Chemscore.DEClash>
0.3997

> <Gold.Chemscore.DEInternal>
1.3502

> <Gold.Chemscore.Rot>
2.1136

> <Gold.Chemscore.Internal.Correction>
   9.000000E+99

> <Gold.Chemscore.Hbonds>
donor molecule, donor type, donor heavy atom, donor atom, acceptor molecule, acceptor atom, score
      P1  H  7989  7998       L1     5  0.93
      P1  H  7997  8008       L1     1  0.24

> <Gold.Chemscore.Hbond.Weighted>
-5.9909

> <Gold.Chemscore.Metal.Weighted>
-0.0000

> <Gold.Chemscore.Lipo.Weighted>
-12.8324

> <Gold.Chemscore.Internal_Hbond.Weighted>
0.0000

> <Gold.Chemscore.DEClash.Weighted>
0.3997

> <Gold.Chemscore.DEInternal.Weighted>
1.3502

> <Gold.Chemscore.Rot.Weighted>
5.4107

> <Gold.Chemscore.Internal.Correction.Weighted>
   9.000000E+99

> <Gold.Protein.RotatedTorsions>
[ 6907 6896 6895 6894 ] final   14.51 input  -60.11 | X-H torsion
[ 7974 7965 7964 7962 ] final  -35.74 input  175.53 | X-H torsion
[ 8008 7997 7996 7995 ] final  -75.83 input   59.86 | X-H torsion
[ 10167 10162 10161 10158 ] final   86.47 input  -65.29 | X-H torsion
[ 10718 10713 10712 10709 ] final  156.44 input   66.30 | X-H torsion
[ 10763 10752 10751 10750 ] final  -71.57 input  -60.55 | X-H torsion
[ 11005 11000 10999 10996 ] final  121.85 input  -57.11 | X-H torsion

> <Gold.Protein.ActiveResidues>
 VAL166  LYS551  ARG553  GLY616  TRP617  ASP618  TYR619  PRO620  LYS621  CYS622 
 ASP623  PHE694  ASN695  SER759  ASP760  ASP761  ALA762  ILE779  LEU786  VAL792 
 PHE793  MET794  SER795  GLU796  ALA797  LYS798  CYS799  TRP800  GLU811  SER814 

> <Gold.Protein.RotatedAtoms>
  151.8034  135.0702  160.0403 H   0  0  0  0  0  0  0  0  0  0  0  0  # atno 6907 bound_to 6896
  152.3072  133.5711  159.5665 H   0  0  0  0  0  0  0  0  0  0  0  0  # atno 6908 bound_to 6896
  150.7302  134.0121  159.3715 H   0  0  0  0  0  0  0  0  0  0  0  0  # atno 6909 bound_to 6896
  146.0721  140.6196  142.8948 H   0  0  0  0  0  0  0  0  0  0  0  0  # atno 7974 bound_to 7965
  154.5451  140.0737  156.8575 H   0  0  0  0  0  0  0  0  0  0  0  0  # atno 8008 bound_to 7997
  155.3103  140.3390  155.4226 H   0  0  0  0  0  0  0  0  0  0  0  0  # atno 8009 bound_to 7997
  156.1911  140.1686  156.8077 H   0  0  0  0  0  0  0  0  0  0  0  0  # atno 8010 bound_to 7997
  139.8871  144.6406  150.8779 H   0  0  0  0  0  0  0  0  0  0  0  0  # atno 10167 bound_to 10162
  157.2049  131.0684  151.2004 H   0  0  0  0  0  0  0  0  0  0  0  0  # atno 10718 bound_to 10713
  154.4336  135.5958  153.6084 H   0  0  0  0  0  0  0  0  0  0  0  0  # atno 10763 bound_to 10752
  152.9800  135.5981  154.3809 H   0  0  0  0  0  0  0  0  0  0  0  0  # atno 10764 bound_to 10752
  154.3650  135.2841  155.2277 H   0  0  0  0  0  0  0  0  0  0  0  0  # atno 10765 bound_to 10752
  139.9243  134.9640  156.8020 H   0  0  0  0  0  0  0  0  0  0  0  0  # atno 11005 bound_to 11000
  144.7238  140.4459  143.6988 LP  0  0  0  0  0  0  0  0  0  0  0  0  # atno 17320 bound_to 7965
  145.6373  139.1545  143.2935 LP  0  0  0  0  0  0  0  0  0  0  0  0  # atno 17321 bound_to 7965
  140.7733  143.3539  151.1960 LP  0  0  0  0  0  0  0  0  0  0  0  0  # atno 17342 bound_to 10162
  139.7143  143.9326  152.2960 LP  0  0  0  0  0  0  0  0  0  0  0  0  # atno 17343 bound_to 10162
  157.3730  130.7191  149.6578 LP  0  0  0  0  0  0  0  0  0  0  0  0  # atno 17370 bound_to 10713
  155.9696  130.4193  150.4370 LP  0  0  0  0  0  0  0  0  0  0  0  0  # atno 17371 bound_to 10713
  140.6382  133.9843  155.7694 LP  0  0  0  0  0  0  0  0  0  0  0  0  # atno 17394 bound_to 11000
  141.0789  134.0093  157.3416 LP  0  0  0  0  0  0  0  0  0  0  0  0  # atno 17395 bound_to 11000

$$$$
