AV-unprocessed.smi:157|AV-procd|sdf|1305|dock6
  -GOLD-   2262018593D 1   1.00000     0.00000
 Structure written by MMmdl.
 35 37  0  0  0  0  0  0  0  0  1 V2000
  154.4739  140.2111  160.6628 O   0  0  0  0  0  0  0  0  0  0  0  0
  153.9706  141.5279  160.5865 C   0  0  0  0  0  0  0  0  0  0  0  0
  153.1642  141.7185  159.2901 C   0  0  1  0  0  0  0  0  0  0  0  0
  152.0769  140.8034  159.2230 O   0  0  0  0  0  0  0  0  0  0  0  0
  151.0936  141.2911  158.3567 C   0  0  2  0  0  0  0  0  0  0  0  0
  151.1227  140.4940  157.0856 N   0  0  0  0  0  0  0  0  0  0  0  0
  151.3440  140.9570  155.8475 C   0  0  0  0  0  0  0  0  0  0  0  0
  151.3072  140.0349  154.9012 N   0  0  0  0  0  0  0  0  0  0  0  0
  151.0483  138.8519  155.5933 C   0  0  0  0  0  0  0  0  0  0  0  0
  150.9101  139.1188  156.9485 C   0  0  0  0  0  0  0  0  0  0  0  0
  150.6291  138.3913  158.0910 N   0  0  0  0  0  0  0  0  0  0  0  0
  150.2293  137.1634  157.9718 C   0  0  0  0  0  0  0  0  0  0  0  0
  150.1057  136.3529  156.8514 N   0  0  0  0  0  0  0  0  0  0  0  0
  151.0678  136.3303  155.7666 C   0  0  0  0  0  0  0  0  0  0  0  0
  150.9302  137.5490  154.8538 C   0  0  2  0  0  0  0  0  0  0  0  0
  151.9704  137.5104  153.8974 O   0  0  0  0  0  0  0  0  0  0  0  0
  151.4240  142.7622  158.0592 C   0  0  0  0  0  0  0  0  0  0  0  0
  152.4978  143.0840  159.0820 C   0  0  1  0  0  0  0  0  0  0  0  0
  151.9216  143.5862  160.2730 O   0  0  0  0  0  0  0  0  0  0  0  0
  153.8105  141.5130  158.4347 H   0  0  0  0  0  0  0  0  0  0  0  0
  150.1007  141.1293  158.7778 H   0  0  0  0  0  0  0  0  0  0  0  0
  149.9761  137.5072  154.3272 H   0  0  0  0  0  0  0  0  0  0  0  0
  153.2056  143.8235  158.7057 H   0  0  0  0  0  0  0  0  0  0  0  0
  153.8842  139.6949  161.1910 H   0  0  0  0  0  0  0  0  0  0  0  0
  153.3282  141.6994  161.4505 H   0  0  0  0  0  0  0  0  0  0  0  0
  154.7923  142.2408  160.6571 H   0  0  0  0  0  0  0  0  0  0  0  0
  151.5337  141.9974  155.6277 H   0  0  0  0  0  0  0  0  0  0  0  0
  149.9413  136.6287  158.8781 H   0  0  0  0  0  0  0  0  0  0  0  0
  149.6145  135.4746  156.9371 H   0  0  0  0  0  0  0  0  0  0  0  0
  152.0721  136.2886  156.1914 H   0  0  0  0  0  0  0  0  0  0  0  0
  150.9304  135.4129  155.1937 H   0  0  0  0  0  0  0  0  0  0  0  0
  151.6852  136.9729  153.1740 H   0  0  0  0  0  0  0  0  0  0  0  0
  151.8297  142.8550  157.0501 H   0  0  0  0  0  0  0  0  0  0  0  0
  150.5347  143.3895  158.1340 H   0  0  0  0  0  0  0  0  0  0  0  0
  151.9837  142.9182  160.9386 H   0  0  0  0  0  0  0  0  0  0  0  0
  1  2  1  0  0  0  0
  1 24  1  0  0  0  0
  2  3  1  0  0  0  0
  2 25  1  0  0  0  0
  2 26  1  0  0  0  0
  3 20  1  0  0  0  0
  3 18  1  0  0  0  0
  3  4  1  0  0  0  0
  4  5  1  0  0  0  0
  5 21  1  0  0  0  0
  5  6  1  0  0  0  0
  5 17  1  0  0  0  0
  6 10  1  0  0  0  0
  6  7  1  0  0  0  0
  7  8  2  0  0  0  0
  7 27  1  0  0  0  0
  8  9  1  0  0  0  0
  9 15  1  0  0  0  0
  9 10  2  0  0  0  0
 10 11  1  0  0  0  0
 11 12  2  0  0  0  0
 12 13  1  0  0  0  0
 12 28  1  0  0  0  0
 13 14  1  0  0  0  0
 13 29  1  0  0  0  0
 14 15  1  0  0  0  0
 14 30  1  0  0  0  0
 14 31  1  0  0  0  0
 15 22  1  0  0  0  0
 15 16  1  0  0  0  0
 16 32  1  0  0  0  0
 17 18  1  0  0  0  0
 17 33  1  0  0  0  0
 17 34  1  0  0  0  0
 18 23  1  0  0  0  0
 18 19  1  0  0  0  0
 19 35  1  0  0  0  0
M  END
> <s_m_source_file>
AV-unprocessed.smi

> <i_m_source_file_index>
157

> <i_lp_mmshare_version>
43012

> <i_f3d_flags>
0

> <s_epik_input>
W09IXVtDSDJdW0NASF0xT1tDQEhdKFtDSDJdW0NAQEhdMVtPSF0pbihbY0hdbjIpYyhjMjMpTj1bQ0hdW05IXVtDSDJdW0NASF0zW09IXQ==

> <s_epik_cmdline>
J2VwaWtfcHl0aG9uJywgJy1waCcsICc3LjAnLCAnLXRuJywgJzgnLCAnLW1hJywgJzIwMCcsICctbWV0YWxfYmluZGluZycsICctaW1hZScsICc8aW5maWxlLm1hZT4nLCAnLW9tYWUnLCAnPG91dGZpbGUubWFlPic=

> <r_lp_tautomer_probability>
1

> <r_epik_Ionization_Penalty>
0.0357149

> <r_epik_Ionization_Penalty_Charging>
0.0355056

> <r_epik_Ionization_Penalty_Neutral>
0.000209255

> <r_epik_State_Penalty>
0.0296046

> <r_epik_Charging_Adjusted_Penalty>
0.0651102

> <i_epik_Tot_Q>
0

> <i_epik_Tot_abs_Q>
0

> <r_epik_Metal_State_Penalty>
3.03559e-05

> <b_epik_Metal_Only>
0

> <s_epik_Chemistry_Notes>
This compound has an imine and may undergo hydrolysis. This compound contains an acetal/aminal-like group ( X-CH(R)-Y where X, Y are N, S, or O) that may be acid/base labile, releasing an aldehyde.

> <s_lp_Force_Field>
OPLS_2005

> <r_lp_Energy>
41.6449

> <b_lp_Chiralities_Consistent>
1

> <s_lp_Variant>
AV-unprocessed.smi:157-15

> <Gold.Version>
5.8.1

> <Gold.Id.Protein>
6NUR|6NUR_protein|mol2

> <Gold.PLP.Fitness>
37.5453

> <Gold.PLP.PLP>
-31.5788

> <Gold.PLP.part.hbond>
-3.0000

> <Gold.PLP.part.metal>
0.0000

> <Gold.PLP.part.buried>
-6.0350

> <Gold.PLP.part.nonpolar>
-22.3943

> <Gold.PLP.part.repulsive>
0.1163

> <Gold.PLP.ligand.clash>
0.0000

> <Gold.PLP.ligand.torsion>
0.0070

> <Gold.PLP.Chemscore.Hbond>
1.9913

> <Gold.PLP.Chemscore.CHOScore>
0.0000

> <Gold.PLP.Chemscore.Metal>
0.0000

> <Gold.Chemscore.Hbonds>
donor molecule, donor type, donor heavy atom, donor atom, acceptor molecule, acceptor atom, score
      L1  H    16    32       P1  7949  1.00
      P1  H  7989  7998       L1     8  1.00

> <Gold.PLP.Chemscore.Internal.Correction>
0.0067

> <Gold.Rescore>
     Score         DG    S(hbond)    S(metal)    S(lipo)     H(rot)  DE(clash)    DE(int)     intcor
      8.31      -8.59       1.70        0.00      57.56       3.64       0.24       0.04       ----

> <Gold.Chemscore.Fitness>
8.3108

> <Gold.Chemscore.DG>
-8.5924

> <Gold.Chemscore.ZeroCoef>
-5.4800

> <Gold.Chemscore.Hbond>
1.7025

> <Gold.Chemscore.Metal>
0.0000

> <Gold.Chemscore.Lipo>
57.5617

> <Gold.Chemscore.Internal_Hbond>
0.0000

> <Gold.Chemscore.DEClash>
0.2386

> <Gold.Chemscore.DEInternal>
0.0430

> <Gold.Chemscore.Rot>
3.6362

> <Gold.Chemscore.Internal.Correction>
   9.000000E+99

> <Gold.Chemscore.Hbonds>
donor molecule, donor type, donor heavy atom, donor atom, acceptor molecule, acceptor atom, score
      L1  H    16    32       P1  7949  0.92
      P1  H  7989  7998       L1     8  0.45

> <Gold.Chemscore.Hbond.Weighted>
-5.6864

> <Gold.Chemscore.Metal.Weighted>
-0.0000

> <Gold.Chemscore.Lipo.Weighted>
-6.7347

> <Gold.Chemscore.Internal_Hbond.Weighted>
0.0000

> <Gold.Chemscore.DEClash.Weighted>
0.2386

> <Gold.Chemscore.DEInternal.Weighted>
0.0430

> <Gold.Chemscore.Rot.Weighted>
9.3087

> <Gold.Chemscore.Internal.Correction.Weighted>
   9.000000E+99

> <Gold.Protein.RotatedTorsions>
[ 6907 6896 6895 6894 ] final   69.66 input  -60.11 | X-H torsion
[ 7974 7965 7964 7962 ] final   58.84 input  175.53 | X-H torsion
[ 8008 7997 7996 7995 ] final -124.13 input   59.86 | X-H torsion
[ 10167 10162 10161 10158 ] final  109.12 input  -65.29 | X-H torsion
[ 10718 10713 10712 10709 ] final  -58.44 input   66.30 | X-H torsion
[ 10763 10752 10751 10750 ] final -107.84 input  -60.55 | X-H torsion
[ 11005 11000 10999 10996 ] final  111.66 input  -57.11 | X-H torsion

> <Gold.Protein.ActiveResidues>
 VAL166  LYS551  ARG553  GLY616  TRP617  ASP618  TYR619  PRO620  LYS621  CYS622 
 ASP623  PHE694  ASN695  SER759  ASP760  ASP761  ALA762  ILE779  LEU786  VAL792 
 PHE793  MET794  SER795  GLU796  ALA797  LYS798  CYS799  TRP800  GLU811  SER814 

> <Gold.Protein.RotatedAtoms>
  152.4700  134.4983  159.9716 H   0  0  0  0  0  0  0  0  0  0  0  0  # atno 6907 bound_to 6896
  151.5012  133.3498  159.2877 H   0  0  0  0  0  0  0  0  0  0  0  0  # atno 6908 bound_to 6896
  150.8705  134.8105  159.7212 H   0  0  0  0  0  0  0  0  0  0  0  0  # atno 6909 bound_to 6896
  145.9138  139.3675  143.0519 H   0  0  0  0  0  0  0  0  0  0  0  0  # atno 7974 bound_to 7965
  155.1919  140.0413  157.2902 H   0  0  0  0  0  0  0  0  0  0  0  0  # atno 8008 bound_to 7997
  154.6133  140.2482  155.7613 H   0  0  0  0  0  0  0  0  0  0  0  0  # atno 8009 bound_to 7997
  156.2392  140.2910  156.0405 H   0  0  0  0  0  0  0  0  0  0  0  0  # atno 8010 bound_to 7997
  139.6791  144.7120  151.1547 H   0  0  0  0  0  0  0  0  0  0  0  0  # atno 10167 bound_to 10162
  156.1135  130.4172  150.0578 H   0  0  0  0  0  0  0  0  0  0  0  0  # atno 10718 bound_to 10713
  154.8099  135.4660  154.0490 H   0  0  0  0  0  0  0  0  0  0  0  0  # atno 10763 bound_to 10752
  153.1929  135.6858  153.8336 H   0  0  0  0  0  0  0  0  0  0  0  0  # atno 10764 bound_to 10752
  153.7848  135.3251  155.3348 H   0  0  0  0  0  0  0  0  0  0  0  0  # atno 10765 bound_to 10752
  139.8909  134.9513  156.6467 H   0  0  0  0  0  0  0  0  0  0  0  0  # atno 11005 bound_to 11000
  145.8638  140.9460  143.0686 LP  0  0  0  0  0  0  0  0  0  0  0  0  # atno 17320 bound_to 7965
  144.6746  140.0565  143.7477 LP  0  0  0  0  0  0  0  0  0  0  0  0  # atno 17321 bound_to 7965
  140.7646  143.5726  150.8980 LP  0  0  0  0  0  0  0  0  0  0  0  0  # atno 17342 bound_to 10162
  139.9397  143.6397  152.3057 LP  0  0  0  0  0  0  0  0  0  0  0  0  # atno 17343 bound_to 10162
  156.8535  130.9467  151.3623 LP  0  0  0  0  0  0  0  0  0  0  0  0  # atno 17370 bound_to 10713
  157.6317  130.8734  149.9286 LP  0  0  0  0  0  0  0  0  0  0  0  0  # atno 17371 bound_to 10713
  140.7552  133.8864  155.8377 LP  0  0  0  0  0  0  0  0  0  0  0  0  # atno 17394 bound_to 11000
  140.9968  134.1205  157.4356 LP  0  0  0  0  0  0  0  0  0  0  0  0  # atno 17395 bound_to 11000

$$$$
