AV-unprocessed.smi:2838|AV-procd|sdf|10928|dock4
  -GOLD-   2272015373D 1   1.00000     0.00000
 Structure written by MMmdl.
 48 49  0  0  0  0  0  0  0  0  1 V2000
  144.1119  137.1173  152.2922 C   0  0  0  0  0  0  0  0  0  0  0  0
  145.1096  135.9675  152.5144 C   0  0  2  0  0  0  0  0  0  0  0  0
  146.4114  136.5611  152.8243 N   0  0  0  0  0  0  0  0  0  0  0  0
  146.6365  137.5528  153.6994 C   0  0  0  0  0  0  0  0  0  0  0  0
  145.7560  138.0715  154.3853 O   0  0  0  0  0  0  0  0  0  0  0  0
  147.9326  137.9061  153.7095 N   0  0  0  0  0  0  0  0  0  0  0  0
  148.5613  138.8937  154.5132 C   0  0  0  0  0  0  0  0  0  0  0  0
  149.5415  139.8058  154.0556 C   0  0  0  0  0  0  0  0  0  0  0  0
  150.0839  140.7316  154.8748 N   0  0  0  0  0  0  0  0  0  0  0  0
  149.6391  140.7876  156.1372 C   0  0  0  0  0  0  0  0  0  0  0  0
  150.3779  141.7358  157.0980 C   0  0  0  0  0  0  0  0  0  0  0  0
  149.3870  142.6588  157.8461 C   0  0  0  0  0  0  0  0  0  0  0  0
  151.3346  142.6735  156.3247 C   0  0  0  0  0  0  0  0  0  0  0  0
  151.1774  140.9071  158.1204 C   0  0  0  0  0  0  0  0  0  0  0  0
  148.7379  139.9535  156.6728 N   0  0  0  0  0  0  0  0  0  0  0  0
  148.1838  139.0261  155.8641 C   0  0  0  0  0  0  0  0  0  0  0  0
  145.2102  135.0018  151.3014 C   0  0  0  0  0  0  0  0  0  0  0  0
  143.9119  134.1984  151.0782 C   0  0  0  0  0  0  0  0  0  0  0  0
  144.0624  133.1990  149.9199 C   0  0  0  0  0  0  0  0  0  0  0  0
  145.1541  132.3233  150.1698 O   0  0  0  0  0  0  0  0  0  0  0  0
  146.3967  133.0092  150.2504 C   0  0  0  0  0  0  0  0  0  0  0  0
  146.3764  133.9976  151.4273 C   0  0  0  0  0  0  0  0  0  0  0  0
  143.0882  136.7545  152.2060 H   0  0  0  0  0  0  0  0  0  0  0  0
  144.3472  137.6793  151.3877 H   0  0  0  0  0  0  0  0  0  0  0  0
  144.1282  137.8158  153.1297 H   0  0  0  0  0  0  0  0  0  0  0  0
  144.7561  135.3978  153.3756 H   0  0  0  0  0  0  0  0  0  0  0  0
  147.2016  136.2019  152.3089 H   0  0  0  0  0  0  0  0  0  0  0  0
  148.5255  137.4559  153.0276 H   0  0  0  0  0  0  0  0  0  0  0  0
  149.8937  139.8197  153.0359 H   0  0  0  0  0  0  0  0  0  0  0  0
  149.9114  143.3654  158.4906 H   0  0  0  0  0  0  0  0  0  0  0  0
  148.7076  142.0951  158.4863 H   0  0  0  0  0  0  0  0  0  0  0  0
  148.7806  143.2390  157.1494 H   0  0  0  0  0  0  0  0  0  0  0  0
  150.7995  143.2527  155.5711 H   0  0  0  0  0  0  0  0  0  0  0  0
  152.1268  142.1221  155.8174 H   0  0  0  0  0  0  0  0  0  0  0  0
  151.8245  143.3813  156.9941 H   0  0  0  0  0  0  0  0  0  0  0  0
  151.7171  141.5475  158.8186 H   0  0  0  0  0  0  0  0  0  0  0  0
  151.9103  140.2685  157.6260 H   0  0  0  0  0  0  0  0  0  0  0  0
  150.5211  140.2615  158.7052 H   0  0  0  0  0  0  0  0  0  0  0  0
  147.4427  138.3762  156.3059 H   0  0  0  0  0  0  0  0  0  0  0  0
  145.3882  135.6022  150.4077 H   0  0  0  0  0  0  0  0  0  0  0  0
  143.6499  133.6585  151.9891 H   0  0  0  0  0  0  0  0  0  0  0  0
  143.0771  134.8628  150.8579 H   0  0  0  0  0  0  0  0  0  0  0  0
  143.1536  132.6058  149.8178 H   0  0  0  0  0  0  0  0  0  0  0  0
  144.2091  133.7207  148.9729 H   0  0  0  0  0  0  0  0  0  0  0  0
  147.1932  132.2782  150.3894 H   0  0  0  0  0  0  0  0  0  0  0  0
  146.6009  133.5265  149.3117 H   0  0  0  0  0  0  0  0  0  0  0  0
  147.3337  134.5171  151.4633 H   0  0  0  0  0  0  0  0  0  0  0  0
  146.2876  133.4444  152.3632 H   0  0  0  0  0  0  0  0  0  0  0  0
  1  2  1  0  0  0  0
  1 23  1  0  0  0  0
  1 24  1  0  0  0  0
  1 25  1  0  0  0  0
  2  3  1  0  0  0  0
  2 17  1  0  0  0  0
  2 26  1  0  0  0  0
  3  4  1  0  0  0  0
  3 27  1  0  0  0  0
  4  5  2  0  0  0  0
  4  6  1  0  0  0  0
  6  7  1  0  0  0  0
  6 28  1  0  0  0  0
  7 16  1  0  0  0  0
  7  8  2  0  0  0  0
  8  9  1  0  0  0  0
  8 29  1  0  0  0  0
  9 10  2  0  0  0  0
 10 11  1  0  0  0  0
 10 15  1  0  0  0  0
 11 12  1  0  0  0  0
 11 13  1  0  0  0  0
 11 14  1  0  0  0  0
 12 30  1  0  0  0  0
 12 31  1  0  0  0  0
 12 32  1  0  0  0  0
 13 33  1  0  0  0  0
 13 34  1  0  0  0  0
 13 35  1  0  0  0  0
 14 36  1  0  0  0  0
 14 37  1  0  0  0  0
 14 38  1  0  0  0  0
 15 16  2  0  0  0  0
 16 39  1  0  0  0  0
 17 22  1  0  0  0  0
 17 18  1  0  0  0  0
 17 40  1  0  0  0  0
 18 19  1  0  0  0  0
 18 41  1  0  0  0  0
 18 42  1  0  0  0  0
 19 20  1  0  0  0  0
 19 43  1  0  0  0  0
 19 44  1  0  0  0  0
 20 21  1  0  0  0  0
 21 22  1  0  0  0  0
 21 45  1  0  0  0  0
 21 46  1  0  0  0  0
 22 47  1  0  0  0  0
 22 48  1  0  0  0  0
M  END
> <s_m_source_file>
AV-unprocessed.smi

> <i_m_source_file_index>
2838

> <i_lp_mmshare_version>
43012

> <i_f3d_flags>
0

> <s_epik_input>
W0NIMl0xW0NIMl1PW0NIMl1bQ0gyXVtDSF0xW0NASF0oW0NIM10pW05IXUMoPU8pW05IXWMyW2NIXW5jKEMoW0NIM10pKFtDSDNdKVtDSDNdKW5bY0hdMg==

> <s_epik_cmdline>
J2VwaWtfcHl0aG9uJywgJy1waCcsICc3LjAnLCAnLXRuJywgJzgnLCAnLW1hJywgJzIwMCcsICctbWV0YWxfYmluZGluZycsICctaW1hZScsICc8aW5maWxlLm1hZT4nLCAnLW9tYWUnLCAnPG91dGZpbGUubWFlPic=

> <r_lp_tautomer_probability>
1

> <r_epik_Ionization_Penalty>
2.74753e-05

> <r_epik_Ionization_Penalty_Charging>
0

> <r_epik_Ionization_Penalty_Neutral>
2.74753e-05

> <r_epik_State_Penalty>
-0

> <r_epik_Charging_Adjusted_Penalty>
0

> <i_epik_Tot_Q>
0

> <i_epik_Tot_abs_Q>
0

> <r_epik_Metal_State_Penalty>
-0

> <b_epik_Metal_Only>
0

> <s_lp_Force_Field>
OPLS_2005

> <r_lp_Energy>
9.68517

> <b_lp_Chiralities_Consistent>
1

> <s_lp_Variant>
AV-unprocessed.smi:2838-1

> <Gold.Version>
5.8.1

> <Gold.Id.Protein>
6NUR|6NUR_protein|mol2

> <Gold.PLP.Fitness>
37.3178

> <Gold.PLP.PLP>
-29.0445

> <Gold.PLP.part.hbond>
-2.7692

> <Gold.PLP.part.metal>
0.0000

> <Gold.PLP.part.buried>
-4.0890

> <Gold.PLP.part.nonpolar>
-21.9033

> <Gold.PLP.part.repulsive>
0.3050

> <Gold.PLP.ligand.clash>
0.0000

> <Gold.PLP.ligand.torsion>
0.6786

> <Gold.PLP.Chemscore.Hbond>
2.1602

> <Gold.PLP.Chemscore.CHOScore>
1.0000

> <Gold.PLP.Chemscore.Metal>
0.0000

> <Gold.Chemscore.Hbonds>
donor molecule, donor type, donor heavy atom, donor atom, acceptor molecule, acceptor atom, score
      L1  H     3    27       P1  7948  1.00
      L1  H     6    28       P1  7948  1.00
      P1  H  7989  7998       L1     9  0.26
      L1  C     8    29       P1  7957  0.69

> <Gold.PLP.Chemscore.Internal.Correction>
0.1500

> <Gold.Rescore>
     Score         DG    S(hbond)    S(metal)    S(lipo)     H(rot)  DE(clash)    DE(int)     intcor
     14.48     -17.41       1.95        0.00      75.53       1.34       0.05       2.89       ----

> <Gold.Chemscore.Fitness>
14.4776

> <Gold.Chemscore.DG>
-17.4116

> <Gold.Chemscore.ZeroCoef>
-5.4800

> <Gold.Chemscore.Hbond>
1.9500

> <Gold.Chemscore.Metal>
0.0000

> <Gold.Chemscore.Lipo>
75.5317

> <Gold.Chemscore.Internal_Hbond>
0.0000

> <Gold.Chemscore.DEClash>
0.0473

> <Gold.Chemscore.DEInternal>
2.8867

> <Gold.Chemscore.Rot>
1.3354

> <Gold.Chemscore.Internal.Correction>
   9.000000E+99

> <Gold.Chemscore.Hbonds>
donor molecule, donor type, donor heavy atom, donor atom, acceptor molecule, acceptor atom, score
      L1  H     3    27       P1  7948  0.97
      L1  H     6    28       P1  7948  0.99
      P1  H  7989  7998       L1     9  0.01

> <Gold.Chemscore.Hbond.Weighted>
-6.5129

> <Gold.Chemscore.Metal.Weighted>
-0.0000

> <Gold.Chemscore.Lipo.Weighted>
-8.8372

> <Gold.Chemscore.Internal_Hbond.Weighted>
0.0000

> <Gold.Chemscore.DEClash.Weighted>
0.0473

> <Gold.Chemscore.DEInternal.Weighted>
2.8867

> <Gold.Chemscore.Rot.Weighted>
3.4185

> <Gold.Chemscore.Internal.Correction.Weighted>
   9.000000E+99

> <Gold.Protein.RotatedTorsions>
[ 6907 6896 6895 6894 ] final  168.84 input  -60.11 | X-H torsion
[ 7974 7965 7964 7962 ] final -131.59 input  175.53 | X-H torsion
[ 8008 7997 7996 7995 ] final  122.52 input   59.86 | X-H torsion
[ 10167 10162 10161 10158 ] final  -31.12 input  -65.29 | X-H torsion
[ 10718 10713 10712 10709 ] final  -57.86 input   66.30 | X-H torsion
[ 10763 10752 10751 10750 ] final   65.58 input  -60.55 | X-H torsion
[ 11005 11000 10999 10996 ] final  178.56 input  -57.11 | X-H torsion

> <Gold.Protein.ActiveResidues>
 VAL166  LYS551  ARG553  GLY616  TRP617  ASP618  TYR619  PRO620  LYS621  CYS622 
 ASP623  PHE694  ASN695  SER759  ASP760  ASP761  ALA762  ILE779  LEU786  VAL792 
 PHE793  MET794  SER795  GLU796  ALA797  LYS798  CYS799  TRP800  GLU811  SER814 

> <Gold.Protein.RotatedAtoms>
  151.8413  133.3424  159.3643 H   0  0  0  0  0  0  0  0  0  0  0  0  # atno 6907 bound_to 6896
  150.7234  134.5388  159.5746 H   0  0  0  0  0  0  0  0  0  0  0  0  # atno 6908 bound_to 6896
  152.2862  134.7773  160.0438 H   0  0  0  0  0  0  0  0  0  0  0  0  # atno 6909 bound_to 6896
  144.9365  140.7189  143.4873 H   0  0  0  0  0  0  0  0  0  0  0  0  # atno 7974 bound_to 7965
  156.2731  140.2784  156.1481 H   0  0  0  0  0  0  0  0  0  0  0  0  # atno 8008 bound_to 7997
  155.0882  140.0388  157.2678 H   0  0  0  0  0  0  0  0  0  0  0  0  # atno 8009 bound_to 7997
  154.6910  140.2629  155.6818 H   0  0  0  0  0  0  0  0  0  0  0  0  # atno 8010 bound_to 7997
  140.7240  143.3796  151.1626 H   0  0  0  0  0  0  0  0  0  0  0  0  # atno 10167 bound_to 10162
  156.1178  130.4169  150.0498 H   0  0  0  0  0  0  0  0  0  0  0  0  # atno 10718 bound_to 10713
  153.0102  135.5352  154.6689 H   0  0  0  0  0  0  0  0  0  0  0  0  # atno 10763 bound_to 10752
  154.5879  135.2856  155.0668 H   0  0  0  0  0  0  0  0  0  0  0  0  # atno 10764 bound_to 10752
  154.1773  135.6522  153.5077 H   0  0  0  0  0  0  0  0  0  0  0  0  # atno 10765 bound_to 10752
  140.3964  134.6816  157.4537 H   0  0  0  0  0  0  0  0  0  0  0  0  # atno 11005 bound_to 11000
  145.3058  139.1835  143.4665 LP  0  0  0  0  0  0  0  0  0  0  0  0  # atno 17320 bound_to 7965
  146.3269  140.3056  142.8623 LP  0  0  0  0  0  0  0  0  0  0  0  0  # atno 17321 bound_to 7965
  139.7382  143.8965  152.3041 LP  0  0  0  0  0  0  0  0  0  0  0  0  # atno 17342 bound_to 10162
  139.8778  144.7034  150.8913 LP  0  0  0  0  0  0  0  0  0  0  0  0  # atno 17343 bound_to 10162
  156.8445  130.9437  151.3630 LP  0  0  0  0  0  0  0  0  0  0  0  0  # atno 17370 bound_to 10713
  157.6362  130.8768  149.9363 LP  0  0  0  0  0  0  0  0  0  0  0  0  # atno 17371 bound_to 10713
  140.0368  134.6325  155.9033 LP  0  0  0  0  0  0  0  0  0  0  0  0  # atno 17394 bound_to 11000
  141.1872  133.6559  156.5273 LP  0  0  0  0  0  0  0  0  0  0  0  0  # atno 17395 bound_to 11000

$$$$
