AV-unprocessed.smi:1289|AV-procd|sdf|5388|dock5
  -GOLD-   22720 4543D 1   1.00000     0.00000
 Structure written by MMmdl.
 38 40  0  0  0  0  0  0  0  0  2 V2000
  145.6008  131.5430  162.0163 N   0  0  0  0  0  0  0  0  0  0  0  0
  146.1435  132.5192  161.7140 C   0  0  0  0  0  0  0  0  0  0  0  0
  146.8248  133.7456  161.3347 C   0  0  0  0  0  0  0  0  0  0  0  0
  147.1201  134.7211  162.3069 C   0  0  0  0  0  0  0  0  0  0  0  0
  147.7753  135.9109  161.9352 C   0  0  0  0  0  0  0  0  0  0  0  0
  148.1446  136.1446  160.5946 C   0  0  0  0  0  0  0  0  0  0  0  0
  148.7753  137.3388  160.3189 O   0  0  0  0  0  0  0  0  0  0  0  0
  149.0944  137.6348  158.9657 C   0  0  0  0  0  0  0  0  0  0  0  0
  150.4899  138.2739  158.9093 C   0  0  1  0  0  0  0  0  0  0  0  0
  151.4447  137.2893  159.2531 O   0  0  0  0  0  0  0  0  0  0  0  0
  150.8071  138.8604  157.5189 C   0  0  0  0  0  0  0  0  0  0  0  0
  150.7831  140.3299  157.4972 N   0  0  0  0  0  0  0  0  0  0  0  0
  150.0335  141.1739  156.7378 C   0  0  0  0  0  0  0  0  0  0  0  0
  150.3747  142.4477  157.0781 N   0  3  0  0  0  0  0  0  0  0  0  0
  151.3560  142.4180  158.0712 C   0  0  0  0  0  0  0  0  0  0  0  0
  152.0136  143.4506  158.7328 C   0  0  0  0  0  0  0  0  0  0  0  0
  152.9658  143.0755  159.7033 C   0  0  0  0  0  0  0  0  0  0  0  0
  153.2322  141.7200  159.9854 C   0  0  0  0  0  0  0  0  0  0  0  0
  152.5603  140.6815  159.3077 C   0  0  0  0  0  0  0  0  0  0  0  0
  151.6220  141.0599  158.3477 C   0  0  0  0  0  0  0  0  0  0  0  0
  147.8495  135.1549  159.6228 C   0  0  0  0  0  0  0  0  0  0  0  0
  147.1922  133.9650  159.9923 C   0  0  0  0  0  0  0  0  0  0  0  0
  146.8453  134.5646  163.3402 H   0  0  0  0  0  0  0  0  0  0  0  0
  147.9952  136.6537  162.6879 H   0  0  0  0  0  0  0  0  0  0  0  0
  149.0858  136.7104  158.3855 H   0  0  0  0  0  0  0  0  0  0  0  0
  148.3595  138.3143  158.5305 H   0  0  0  0  0  0  0  0  0  0  0  0
  150.5525  139.0633  159.6593 H   0  0  0  0  0  0  0  0  0  0  0  0
  152.3082  137.6434  159.1031 H   0  0  0  0  0  0  0  0  0  0  0  0
  151.7717  138.5099  157.1510 H   0  0  0  0  0  0  0  0  0  0  0  0
  150.0660  138.5199  156.7951 H   0  0  0  0  0  0  0  0  0  0  0  0
  149.3010  140.8852  155.9977 H   0  0  0  0  0  0  0  0  0  0  0  0
  151.8100  144.4899  158.5205 H   0  0  0  0  0  0  0  0  0  0  0  0
  153.5010  143.8427  160.2438 H   0  0  0  0  0  0  0  0  0  0  0  0
  153.9661  141.4709  160.7381 H   0  0  0  0  0  0  0  0  0  0  0  0
  152.7681  139.6467  159.5366 H   0  0  0  0  0  0  0  0  0  0  0  0
  148.1153  135.2841  158.5848 H   0  0  0  0  0  0  0  0  0  0  0  0
  146.9718  133.2235  159.2378 H   0  0  0  0  0  0  0  0  0  0  0  0
  149.9659  143.2743  156.6615 H   0  0  0  0  0  0  0  0  0  0  0  0
  1  2  3  0  0  0  0
  2  3  1  0  0  0  0
  3 22  1  0  0  0  0
  3  4  2  0  0  0  0
  4  5  1  0  0  0  0
  4 23  1  0  0  0  0
  5  6  2  0  0  0  0
  5 24  1  0  0  0  0
  6  7  1  0  0  0  0
  6 21  1  0  0  0  0
  7  8  1  0  0  0  0
  8  9  1  0  0  0  0
  8 25  1  0  0  0  0
  8 26  1  0  0  0  0
  9 10  1  0  0  0  0
  9 11  1  0  0  0  0
  9 27  1  0  0  0  0
 10 28  1  0  0  0  0
 11 12  1  0  0  0  0
 11 29  1  0  0  0  0
 11 30  1  0  0  0  0
 12 20  1  0  0  0  0
 12 13  1  0  0  0  0
 13 14  2  0  0  0  0
 13 31  1  0  0  0  0
 14 15  1  0  0  0  0
 14 38  1  0  0  0  0
 15 20  2  0  0  0  0
 15 16  1  0  0  0  0
 16 17  2  0  0  0  0
 16 32  1  0  0  0  0
 17 18  1  0  0  0  0
 17 33  1  0  0  0  0
 18 19  2  0  0  0  0
 18 34  1  0  0  0  0
 19 20  1  0  0  0  0
 19 35  1  0  0  0  0
 21 22  2  0  0  0  0
 21 36  1  0  0  0  0
 22 37  1  0  0  0  0
M  CHG  1  14   1
M  END
> <s_m_source_file>
AV-unprocessed.smi

> <i_m_source_file_index>
1289

> <i_lp_mmshare_version>
43012

> <i_f3d_flags>
0

> <s_epik_input>
TiNDYzFbY0hdW2NIXWMoW2NIXVtjSF0xKU9bQ0gyXVtDQEhdKFtPSF0pW0NIMl1uKFtjSF1uMiljKGMyMylbY0hdW2NIXVtjSF1bY0hdMw==

> <s_epik_cmdline>
J2VwaWtfcHl0aG9uJywgJy1waCcsICc3LjAnLCAnLXRuJywgJzgnLCAnLW1hJywgJzIwMCcsICctbWV0YWxfYmluZGluZycsICctaW1hZScsICc8aW5maWxlLm1hZT4nLCAnLW9tYWUnLCAnPG91dGZpbGUubWFlPic=

> <r_epik_Ionization_Penalty>
1.39523

> <r_epik_Ionization_Penalty_Charging>
1.39523

> <r_epik_Ionization_Penalty_Neutral>
2.3993e-06

> <r_epik_State_Penalty>
1.47691

> <r_epik_Charging_Adjusted_Penalty>
2.87215

> <i_epik_Tot_Q>
1

> <i_epik_Tot_abs_Q>
1

> <r_epik_Metal_State_Penalty>
5.51858

> <b_epik_Metal_Only>
0

> <s_lp_Force_Field>
OPLS_2005

> <r_lp_Energy>
20.386

> <b_lp_Chiralities_Consistent>
1

> <s_lp_Variant>
AV-unprocessed.smi:1289-4

> <Gold.Version>
5.8.1

> <Gold.Id.Protein>
6NUR|6NUR_protein|mol2

> <Gold.PLP.Fitness>
50.2014

> <Gold.PLP.PLP>
-42.9390

> <Gold.PLP.part.hbond>
-3.3705

> <Gold.PLP.part.metal>
0.0000

> <Gold.PLP.part.buried>
-5.9718

> <Gold.PLP.part.nonpolar>
-34.6656

> <Gold.PLP.part.repulsive>
0.1067

> <Gold.PLP.ligand.clash>
0.0000

> <Gold.PLP.ligand.torsion>
1.0264

> <Gold.PLP.Chemscore.Hbond>
3.0921

> <Gold.PLP.Chemscore.CHOScore>
0.0000

> <Gold.PLP.Chemscore.Metal>
0.0000

> <Gold.Chemscore.Hbonds>
donor molecule, donor type, donor heavy atom, donor atom, acceptor molecule, acceptor atom, score
      L1  H    14    38       P1  8028  1.85
      P1  H  6896  6907       L1    10  0.49
      P1  H  6931  6943       L1     7  0.54
      P1  H  6934  6947       L1     7  0.05

> <Gold.PLP.Chemscore.Internal.Correction>
0.0390

> <Gold.Rescore>
     Score         DG    S(hbond)    S(metal)    S(lipo)     H(rot)  DE(clash)    DE(int)     intcor
     17.58     -18.46       2.23        0.00     103.81       2.58       0.00       0.88       ----

> <Gold.Chemscore.Fitness>
17.5815

> <Gold.Chemscore.DG>
-18.4645

> <Gold.Chemscore.ZeroCoef>
-5.4800

> <Gold.Chemscore.Hbond>
2.2284

> <Gold.Chemscore.Metal>
0.0000

> <Gold.Chemscore.Lipo>
103.8124

> <Gold.Chemscore.Internal_Hbond>
0.0000

> <Gold.Chemscore.DEClash>
0.0000

> <Gold.Chemscore.DEInternal>
0.8830

> <Gold.Chemscore.Rot>
2.5798

> <Gold.Chemscore.Internal.Correction>
   9.000000E+99

> <Gold.Chemscore.Hbonds>
donor molecule, donor type, donor heavy atom, donor atom, acceptor molecule, acceptor atom, score
      L1  H    14    38       P1  8028  0.89
      P1  H  6896  6907       L1    10  0.44
      P1  H  6931  6943       L1     7  0.40
      P1  H  6934  6947       L1     7  0.02

> <Gold.Chemscore.Hbond.Weighted>
-7.4428

> <Gold.Chemscore.Metal.Weighted>
-0.0000

> <Gold.Chemscore.Lipo.Weighted>
-12.1461

> <Gold.Chemscore.Internal_Hbond.Weighted>
0.0000

> <Gold.Chemscore.DEClash.Weighted>
0.0000

> <Gold.Chemscore.DEInternal.Weighted>
0.8830

> <Gold.Chemscore.Rot.Weighted>
6.6043

> <Gold.Chemscore.Internal.Correction.Weighted>
   9.000000E+99

> <Gold.Protein.RotatedTorsions>
[ 6907 6896 6895 6894 ] final  -13.07 input  -60.11 | X-H torsion
[ 7974 7965 7964 7962 ] final -109.72 input  175.53 | X-H torsion
[ 8008 7997 7996 7995 ] final  -64.51 input   59.86 | X-H torsion
[ 10167 10162 10161 10158 ] final -143.78 input  -65.29 | X-H torsion
[ 10718 10713 10712 10709 ] final  -88.96 input   66.30 | X-H torsion
[ 10763 10752 10751 10750 ] final  -67.52 input  -60.55 | X-H torsion
[ 11005 11000 10999 10996 ] final  158.73 input  -57.11 | X-H torsion

> <Gold.Protein.ActiveResidues>
 VAL166  LYS551  ARG553  GLY616  TRP617  ASP618  TYR619  PRO620  LYS621  CYS622 
 ASP623  PHE694  ASN695  SER759  ASP760  ASP761  ALA762  ILE779  LEU786  VAL792 
 PHE793  MET794  SER795  GLU796  ALA797  LYS798  CYS799  TRP800  GLU811  SER814 

> <Gold.Protein.RotatedAtoms>
  151.3606  135.0903  159.9432 H   0  0  0  0  0  0  0  0  0  0  0  0  # atno 6907 bound_to 6896
  152.5163  133.9262  159.7569 H   0  0  0  0  0  0  0  0  0  0  0  0  # atno 6908 bound_to 6896
  150.9656  133.6344  159.2776 H   0  0  0  0  0  0  0  0  0  0  0  0  # atno 6909 bound_to 6896
  145.1770  140.8953  143.3502 H   0  0  0  0  0  0  0  0  0  0  0  0  # atno 7974 bound_to 7965
  154.4616  140.0952  156.6909 H   0  0  0  0  0  0  0  0  0  0  0  0  # atno 8008 bound_to 7997
  155.4977  140.3472  155.4347 H   0  0  0  0  0  0  0  0  0  0  0  0  # atno 8009 bound_to 7997
  156.0881  140.1390  156.9616 H   0  0  0  0  0  0  0  0  0  0  0  0  # atno 8010 bound_to 7997
  139.7961  143.7898  152.2654 H   0  0  0  0  0  0  0  0  0  0  0  0  # atno 10167 bound_to 10162
  155.9984  130.4855  150.5098 H   0  0  0  0  0  0  0  0  0  0  0  0  # atno 10718 bound_to 10713
  154.3757  135.6085  153.5764 H   0  0  0  0  0  0  0  0  0  0  0  0  # atno 10763 bound_to 10752
  152.9789  135.5849  154.4469 H   0  0  0  0  0  0  0  0  0  0  0  0  # atno 10764 bound_to 10752
  154.4230  135.2846  155.1940 H   0  0  0  0  0  0  0  0  0  0  0  0  # atno 10765 bound_to 10752
  140.1893  134.8419  157.2894 H   0  0  0  0  0  0  0  0  0  0  0  0  # atno 11005 bound_to 11000
  145.0175  139.3454  143.6089 LP  0  0  0  0  0  0  0  0  0  0  0  0  # atno 17320 bound_to 7965
  146.3459  139.9462  142.8734 LP  0  0  0  0  0  0  0  0  0  0  0  0  # atno 17321 bound_to 7965
  139.8004  144.7376  150.9833 LP  0  0  0  0  0  0  0  0  0  0  0  0  # atno 17342 bound_to 10162
  140.7820  143.4351  151.0636 LP  0  0  0  0  0  0  0  0  0  0  0  0  # atno 17343 bound_to 10162
  157.3073  131.0657  151.2026 LP  0  0  0  0  0  0  0  0  0  0  0  0  # atno 17370 bound_to 10713
  157.2985  130.6831  149.6151 LP  0  0  0  0  0  0  0  0  0  0  0  0  # atno 17371 bound_to 10713
  140.2178  134.4060  155.7581 LP  0  0  0  0  0  0  0  0  0  0  0  0  # atno 17394 bound_to 11000
  141.2226  133.7150  156.8441 LP  0  0  0  0  0  0  0  0  0  0  0  0  # atno 17395 bound_to 11000

$$$$
