AV-unprocessed.smi:1207|AV-procd|sdf|5060|dock10
  -GOLD-   22720 4103D 1   1.00000     0.00000
 Structure written by MMmdl.
 53 55  0  0  0  0  0  0  0  0  3 V2000
  151.8927  143.1843  160.4985 C   0  0  0  0  0  0  0  0  0  0  0  0
  151.8369  142.3776  159.2124 C   0  0  0  0  0  0  0  0  0  0  0  0
  150.9116  142.7607  158.2156 C   0  0  0  0  0  0  0  0  0  0  0  0
  150.8840  142.0034  157.0507 C   0  0  0  0  0  0  0  0  0  0  0  0
  150.0985  142.1229  155.9025 N   0  3  0  0  0  0  0  0  0  0  0  0
  150.4317  141.1419  155.0189 C   0  0  0  0  0  0  0  0  0  0  0  0
  151.4157  140.3936  155.5878 N   0  0  0  0  0  0  0  0  0  0  0  0
  152.1258  139.2217  155.0551 C   0  0  0  0  0  0  0  0  0  0  0  0
  151.2533  138.3478  154.1297 C   0  0  1  0  0  0  0  0  0  0  0  0
  152.0344  137.2285  153.7617 O   0  0  0  0  0  0  0  0  0  0  0  0
  149.9416  137.8658  154.7913 C   0  0  0  0  0  0  0  0  0  0  0  0
  148.9680  137.2610  153.8389 N   0  3  2  0  0  0  0  0  0  0  0  0
  147.8364  138.1614  153.5114 C   0  0  0  0  0  0  0  0  0  0  0  0
  148.4810  135.9238  154.2688 C   0  0  0  0  0  0  0  0  0  0  0  0
  149.5716  134.8830  154.2455 C   0  0  0  0  0  0  0  0  0  0  0  0
  149.7251  133.7975  153.3355 C   0  0  0  0  0  0  0  0  0  0  0  0
  148.8510  133.4242  152.1726 C   0  0  0  0  0  0  0  0  0  0  0  0
  150.7898  133.0661  153.6151 N   0  0  0  0  0  0  0  0  0  0  0  0
  151.3857  133.6664  154.7286 O   0  0  0  0  0  0  0  0  0  0  0  0
  150.6447  134.7464  155.0830 C   0  0  0  0  0  0  0  0  0  0  0  0
  151.1221  135.5221  156.2638 C   0  0  0  0  0  0  0  0  0  0  0  0
  151.7355  140.8983  156.8554 C   0  0  0  0  0  0  0  0  0  0  0  0
  152.6537  140.5084  157.8287 C   0  0  0  0  0  0  0  0  0  0  0  0
  152.6962  141.2650  159.0215 C   0  0  0  0  0  0  0  0  0  0  0  0
  153.6864  140.8602  160.1003 C   0  0  0  0  0  0  0  0  0  0  0  0
  151.2128  144.0363  160.4648 H   0  0  0  0  0  0  0  0  0  0  0  0
  152.8985  143.5691  160.6679 H   0  0  0  0  0  0  0  0  0  0  0  0
  151.6100  142.5650  161.3501 H   0  0  0  0  0  0  0  0  0  0  0  0
  150.2541  143.6068  158.3543 H   0  0  0  0  0  0  0  0  0  0  0  0
  149.9941  140.9866  154.0429 H   0  0  0  0  0  0  0  0  0  0  0  0
  152.9923  139.5933  154.5062 H   0  0  0  0  0  0  0  0  0  0  0  0
  152.5250  138.6381  155.8847 H   0  0  0  0  0  0  0  0  0  0  0  0
  151.0353  138.9257  153.2320 H   0  0  0  0  0  0  0  0  0  0  0  0
  151.7543  136.9217  152.9132 H   0  0  0  0  0  0  0  0  0  0  0  0
  150.2132  137.1407  155.5574 H   0  0  0  0  0  0  0  0  0  0  0  0
  149.4487  138.6884  155.3106 H   0  0  0  0  0  0  0  0  0  0  0  0
  147.2775  138.4288  154.4092 H   0  0  0  0  0  0  0  0  0  0  0  0
  147.1483  137.6811  152.8151 H   0  0  0  0  0  0  0  0  0  0  0  0
  148.1763  139.0779  153.0316 H   0  0  0  0  0  0  0  0  0  0  0  0
  148.0381  136.0118  155.2617 H   0  0  0  0  0  0  0  0  0  0  0  0
  147.6692  135.6133  153.6098 H   0  0  0  0  0  0  0  0  0  0  0  0
  147.8239  133.2545  152.4943 H   0  0  0  0  0  0  0  0  0  0  0  0
  149.1989  132.5160  151.6795 H   0  0  0  0  0  0  0  0  0  0  0  0
  148.8369  134.2187  151.4269 H   0  0  0  0  0  0  0  0  0  0  0  0
  150.4930  136.3941  156.4421 H   0  0  0  0  0  0  0  0  0  0  0  0
  152.1438  135.8699  156.1101 H   0  0  0  0  0  0  0  0  0  0  0  0
  151.1064  134.9051  157.1622 H   0  0  0  0  0  0  0  0  0  0  0  0
  153.3103  139.6623  157.6903 H   0  0  0  0  0  0  0  0  0  0  0  0
  154.2172  139.9459  159.8328 H   0  0  0  0  0  0  0  0  0  0  0  0
  153.1737  140.6805  161.0454 H   0  0  0  0  0  0  0  0  0  0  0  0
  154.4275  141.6452  160.2524 H   0  0  0  0  0  0  0  0  0  0  0  0
  149.4706  137.1063  152.9766 H   0  0  0  0  0  0  0  0  0  0  0  0
  149.3895  142.8245  155.7303 H   0  0  0  0  0  0  0  0  0  0  0  0
  1  2  1  0  0  0  0
  1 26  1  0  0  0  0
  1 27  1  0  0  0  0
  1 28  1  0  0  0  0
  2 24  1  0  0  0  0
  2  3  2  0  0  0  0
  3  4  1  0  0  0  0
  3 29  1  0  0  0  0
  4 22  2  0  0  0  0
  4  5  1  0  0  0  0
  5  6  2  0  0  0  0
  5 53  1  0  0  0  0
  6  7  1  0  0  0  0
  6 30  1  0  0  0  0
  7  8  1  0  0  0  0
  7 22  1  0  0  0  0
  8  9  1  0  0  0  0
  8 31  1  0  0  0  0
  8 32  1  0  0  0  0
  9 10  1  0  0  0  0
  9 11  1  0  0  0  0
  9 33  1  0  0  0  0
 10 34  1  0  0  0  0
 11 12  1  0  0  0  0
 11 35  1  0  0  0  0
 11 36  1  0  0  0  0
 12 13  1  0  0  0  0
 12 14  1  0  0  0  0
 12 52  1  0  0  0  0
 13 37  1  0  0  0  0
 13 38  1  0  0  0  0
 13 39  1  0  0  0  0
 14 15  1  0  0  0  0
 14 40  1  0  0  0  0
 14 41  1  0  0  0  0
 15 20  2  0  0  0  0
 15 16  1  0  0  0  0
 16 17  1  0  0  0  0
 16 18  2  0  0  0  0
 17 42  1  0  0  0  0
 17 43  1  0  0  0  0
 17 44  1  0  0  0  0
 18 19  1  0  0  0  0
 19 20  1  0  0  0  0
 20 21  1  0  0  0  0
 21 45  1  0  0  0  0
 21 46  1  0  0  0  0
 21 47  1  0  0  0  0
 22 23  1  0  0  0  0
 23 24  2  0  0  0  0
 23 48  1  0  0  0  0
 24 25  1  0  0  0  0
 25 49  1  0  0  0  0
 25 50  1  0  0  0  0
 25 51  1  0  0  0  0
M  CHG  1   5   1
M  CHG  1  12   1
M  END
> <s_m_source_file>
AV-unprocessed.smi

> <i_m_source_file_index>
1207

> <i_lp_mmshare_version>
43012

> <i_f3d_flags>
0

> <s_epik_input>
W0NIM11jKFtjSF0xKWMoW0NIM10pW2NIXWMoYzEyKW4oW2NIXW4yKVtDSDJdW0NASF0oW09IXSlbQ0gyXU4oW0NIM10pW0NIMl1jM2MoW0NIM10pbm9jM1tDSDNd

> <s_epik_cmdline>
J2VwaWtfcHl0aG9uJywgJy1waCcsICc3LjAnLCAnLXRuJywgJzgnLCAnLW1hJywgJzIwMCcsICctbWV0YWxfYmluZGluZycsICctaW1hZScsICc8aW5maWxlLm1hZT4nLCAnLW9tYWUnLCAnPG91dGZpbGUubWFlPic=

> <r_epik_Ionization_Penalty>
1.77463

> <r_epik_Ionization_Penalty_Charging>
1.77463

> <r_epik_Ionization_Penalty_Neutral>
3.70885e-06

> <r_epik_State_Penalty>
1.85225

> <r_epik_Charging_Adjusted_Penalty>
3.62688

> <i_epik_Tot_Q>
2

> <i_epik_Tot_abs_Q>
2

> <r_epik_Metal_State_Penalty>
1.92674

> <b_epik_Metal_Only>
0

> <s_lp_Force_Field>
OPLS_2005

> <r_lp_Energy>
19.6609

> <b_lp_Chiralities_Consistent>
1

> <s_lp_Variant>
AV-unprocessed.smi:1207-12

> <Gold.Version>
5.8.1

> <Gold.Id.Protein>
6NUR|6NUR_protein|mol2

> <Gold.PLP.Fitness>
60.7606

> <Gold.PLP.PLP>
-45.2485

> <Gold.PLP.part.hbond>
-4.0730

> <Gold.PLP.part.metal>
0.0000

> <Gold.PLP.part.buried>
-3.9432

> <Gold.PLP.part.nonpolar>
-37.3833

> <Gold.PLP.part.repulsive>
0.2371

> <Gold.PLP.ligand.clash>
0.0000

> <Gold.PLP.ligand.torsion>
1.3129

> <Gold.PLP.Chemscore.Hbond>
5.9840

> <Gold.PLP.Chemscore.CHOScore>
0.0000

> <Gold.PLP.Chemscore.Metal>
0.0000

> <Gold.Chemscore.Hbonds>
donor molecule, donor type, donor heavy atom, donor atom, acceptor molecule, acceptor atom, score
      L1  H     5    53       P1  8028  1.95
      L1  H    10    34       P1  7949  1.00
      L1  H    12    52       P1  7948  0.88
      P1  H 10752 10765       L1    10  0.79

> <Gold.PLP.Chemscore.Internal.Correction>
0.1859

> <Gold.Rescore>
     Score         DG    S(hbond)    S(metal)    S(lipo)     H(rot)  DE(clash)    DE(int)     intcor
     18.17     -21.58       2.79        0.00     113.40       2.54       1.87       1.55       ----

> <Gold.Chemscore.Fitness>
18.1676

> <Gold.Chemscore.DG>
-21.5832

> <Gold.Chemscore.ZeroCoef>
-5.4800

> <Gold.Chemscore.Hbond>
2.7920

> <Gold.Chemscore.Metal>
0.0000

> <Gold.Chemscore.Lipo>
113.3994

> <Gold.Chemscore.Internal_Hbond>
0.0000

> <Gold.Chemscore.DEClash>
1.8670

> <Gold.Chemscore.DEInternal>
1.5486

> <Gold.Chemscore.Rot>
2.5351

> <Gold.Chemscore.Internal.Correction>
   9.000000E+99

> <Gold.Chemscore.Hbonds>
donor molecule, donor type, donor heavy atom, donor atom, acceptor molecule, acceptor atom, score
      L1  H     5    53       P1  8028  0.92
      L1  H    10    34       P1  7949  1.00
      L1  H    12    52       P1  7948  0.34
      P1  H 10752 10765       L1    10  0.17

> <Gold.Chemscore.Hbond.Weighted>
-9.3254

> <Gold.Chemscore.Metal.Weighted>
-0.0000

> <Gold.Chemscore.Lipo.Weighted>
-13.2677

> <Gold.Chemscore.Internal_Hbond.Weighted>
0.0000

> <Gold.Chemscore.DEClash.Weighted>
1.8670

> <Gold.Chemscore.DEInternal.Weighted>
1.5486

> <Gold.Chemscore.Rot.Weighted>
6.4900

> <Gold.Chemscore.Internal.Correction.Weighted>
   9.000000E+99

> <Gold.Protein.RotatedTorsions>
[ 6907 6896 6895 6894 ] final  -53.30 input  -60.11 | X-H torsion
[ 7974 7965 7964 7962 ] final  -77.78 input  175.53 | X-H torsion
[ 8008 7997 7996 7995 ] final  -65.37 input   59.86 | X-H torsion
[ 10167 10162 10161 10158 ] final  -41.33 input  -65.29 | X-H torsion
[ 10718 10713 10712 10709 ] final -110.91 input   66.30 | X-H torsion
[ 10763 10752 10751 10750 ] final  167.52 input  -60.55 | X-H torsion
[ 11005 11000 10999 10996 ] final -164.40 input  -57.11 | X-H torsion

> <Gold.Protein.ActiveResidues>
 VAL166  LYS551  ARG553  GLY616  TRP617  ASP618  TYR619  PRO620  LYS621  CYS622 
 ASP623  PHE694  ASN695  SER759  ASP760  ASP761  ALA762  ILE779  LEU786  VAL792 
 PHE793  MET794  SER795  GLU796  ALA797  LYS798  CYS799  TRP800  GLU811  SER814 

> <Gold.Protein.RotatedAtoms>
  150.8439  134.7741  159.6954 H   0  0  0  0  0  0  0  0  0  0  0  0  # atno 6907 bound_to 6896
  152.4520  134.5369  159.9837 H   0  0  0  0  0  0  0  0  0  0  0  0  # atno 6908 bound_to 6896
  151.5503  133.3380  159.2987 H   0  0  0  0  0  0  0  0  0  0  0  0  # atno 6909 bound_to 6896
  145.5952  140.9421  143.1270 H   0  0  0  0  0  0  0  0  0  0  0  0  # atno 7974 bound_to 7965
  154.4668  140.0934  156.7040 H   0  0  0  0  0  0  0  0  0  0  0  0  # atno 8008 bound_to 7997
  155.4836  140.3468  155.4325 H   0  0  0  0  0  0  0  0  0  0  0  0  # atno 8009 bound_to 7997
  156.0970  140.1412  156.9507 H   0  0  0  0  0  0  0  0  0  0  0  0  # atno 8010 bound_to 7997
  140.7006  143.3101  151.3051 H   0  0  0  0  0  0  0  0  0  0  0  0  # atno 10167 bound_to 10162
  156.0617  130.5840  150.8302 H   0  0  0  0  0  0  0  0  0  0  0  0  # atno 10718 bound_to 10713
  154.3550  135.2753  155.2351 H   0  0  0  0  0  0  0  0  0  0  0  0  # atno 10763 bound_to 10752
  154.4564  135.5918  153.6229 H   0  0  0  0  0  0  0  0  0  0  0  0  # atno 10764 bound_to 10752
  152.9847  135.6054  154.3764 H   0  0  0  0  0  0  0  0  0  0  0  0  # atno 10765 bound_to 10752
  140.5873  134.5080  157.5188 H   0  0  0  0  0  0  0  0  0  0  0  0  # atno 11005 bound_to 11000
  144.7334  139.7658  143.7338 LP  0  0  0  0  0  0  0  0  0  0  0  0  # atno 17320 bound_to 7965
  146.1617  139.4734  142.9984 LP  0  0  0  0  0  0  0  0  0  0  0  0  # atno 17321 bound_to 7965
  139.6521  144.0344  152.2633 LP  0  0  0  0  0  0  0  0  0  0  0  0  # atno 17342 bound_to 10162
  139.9883  144.6379  150.7837 LP  0  0  0  0  0  0  0  0  0  0  0  0  # atno 17343 bound_to 10162
  157.5631  131.0946  150.9530 LP  0  0  0  0  0  0  0  0  0  0  0  0  # atno 17370 bound_to 10713
  156.9763  130.5510  149.5293 LP  0  0  0  0  0  0  0  0  0  0  0  0  # atno 17371 bound_to 10713
  139.9290  134.8001  156.0986 LP  0  0  0  0  0  0  0  0  0  0  0  0  # atno 17394 bound_to 11000
  141.0957  133.6696  156.2640 LP  0  0  0  0  0  0  0  0  0  0  0  0  # atno 17395 bound_to 11000

$$$$
