AV-unprocessed.smi:3231|AV-procd|sdf|12338|dock8
  -GOLD-   2272018193D 1   1.00000     0.00000
 Structure written by MMmdl.
 40 41  0  0  0  0  0  0  0  0  1 V2000
  145.3763  139.0008  154.2749 O   0  0  0  0  0  0  0  0  0  0  0  0
  146.5755  138.6749  153.6000 C   0  0  1  0  0  0  0  0  0  0  0  0
  146.1828  138.1941  152.1912 C   0  0  0  0  0  0  0  0  0  0  0  0
  146.1914  136.7360  152.1057 N   0  0  0  0  0  0  0  0  0  0  0  0
  145.6577  136.2276  150.8465 C   0  0  0  0  0  0  0  0  0  0  0  0
  144.4336  135.3337  151.0875 C   0  0  0  0  0  0  0  0  0  0  0  0
  144.7402  133.9358  150.8543 N   0  0  0  0  0  0  0  0  0  0  0  0
  143.8765  132.8612  150.8293 C   0  0  0  0  0  0  0  0  0  0  0  0
  144.6220  131.7470  150.5698 C   0  0  0  0  0  0  0  0  0  0  0  0
  145.9484  132.2480  150.4497 C   0  0  0  0  0  0  0  0  0  0  0  0
  146.0160  133.5586  150.6206 N   0  0  0  0  0  0  0  0  0  0  0  0
  147.4640  139.9378  153.5510 C   0  0  0  0  0  0  0  0  0  0  0  0
  148.6086  139.9348  154.4635 N   0  0  0  0  0  0  0  0  0  0  0  0
  149.1592  141.2708  154.6818 C   0  0  0  0  0  0  0  0  0  0  0  0
  150.3807  141.2445  155.6175 C   0  0  0  0  0  0  0  0  0  0  0  0
  151.3698  140.3652  155.0923 O   0  0  0  0  0  0  0  0  0  0  0  0
  150.8836  139.0393  154.9123 C   0  0  0  0  0  0  0  0  0  0  0  0
  149.6682  139.0615  153.9694 C   0  0  0  0  0  0  0  0  0  0  0  0
  144.7213  139.2147  153.6278 H   0  0  0  0  0  0  0  0  0  0  0  0
  147.0972  137.8758  154.1295 H   0  0  0  0  0  0  0  0  0  0  0  0
  145.2092  138.5951  151.9060 H   0  0  0  0  0  0  0  0  0  0  0  0
  146.8997  138.5862  151.4688 H   0  0  0  0  0  0  0  0  0  0  0  0
  147.1374  136.3923  152.2390 H   0  0  0  0  0  0  0  0  0  0  0  0
  145.3830  137.0587  150.1958 H   0  0  0  0  0  0  0  0  0  0  0  0
  146.4255  135.6581  150.3210 H   0  0  0  0  0  0  0  0  0  0  0  0
  144.0706  135.4454  152.1103 H   0  0  0  0  0  0  0  0  0  0  0  0
  143.6149  135.6229  150.4269 H   0  0  0  0  0  0  0  0  0  0  0  0
  142.8155  132.9774  150.9958 H   0  0  0  0  0  0  0  0  0  0  0  0
  144.2735  130.7288  150.4793 H   0  0  0  0  0  0  0  0  0  0  0  0
  146.8575  131.7022  150.2446 H   0  0  0  0  0  0  0  0  0  0  0  0
  147.8598  140.0197  152.5381 H   0  0  0  0  0  0  0  0  0  0  0  0
  146.8608  140.8359  153.6956 H   0  0  0  0  0  0  0  0  0  0  0  0
  149.4448  141.7139  153.7266 H   0  0  0  0  0  0  0  0  0  0  0  0
  148.4031  141.9238  155.1168 H   0  0  0  0  0  0  0  0  0  0  0  0
  150.8063  142.2434  155.7136 H   0  0  0  0  0  0  0  0  0  0  0  0
  150.0926  140.9212  156.6191 H   0  0  0  0  0  0  0  0  0  0  0  0
  151.6780  138.4218  154.4926 H   0  0  0  0  0  0  0  0  0  0  0  0
  150.6168  138.6072  155.8778 H   0  0  0  0  0  0  0  0  0  0  0  0
  149.2871  138.0463  153.8519 H   0  0  0  0  0  0  0  0  0  0  0  0
  149.9877  139.3912  152.9795 H   0  0  0  0  0  0  0  0  0  0  0  0
  1  2  1  0  0  0  0
  1 19  1  0  0  0  0
  2  3  1  0  0  0  0
  2 12  1  0  0  0  0
  2 20  1  0  0  0  0
  3  4  1  0  0  0  0
  3 21  1  0  0  0  0
  3 22  1  0  0  0  0
  4  5  1  0  0  0  0
  4 23  1  0  0  0  0
  5  6  1  0  0  0  0
  5 24  1  0  0  0  0
  5 25  1  0  0  0  0
  6  7  1  0  0  0  0
  6 26  1  0  0  0  0
  6 27  1  0  0  0  0
  7 11  1  0  0  0  0
  7  8  1  0  0  0  0
  8  9  2  0  0  0  0
  8 28  1  0  0  0  0
  9 10  1  0  0  0  0
  9 29  1  0  0  0  0
 10 11  2  0  0  0  0
 10 30  1  0  0  0  0
 12 13  1  0  0  0  0
 12 31  1  0  0  0  0
 12 32  1  0  0  0  0
 13 18  1  0  0  0  0
 13 14  1  0  0  0  0
 14 15  1  0  0  0  0
 14 33  1  0  0  0  0
 14 34  1  0  0  0  0
 15 16  1  0  0  0  0
 15 35  1  0  0  0  0
 15 36  1  0  0  0  0
 16 17  1  0  0  0  0
 17 18  1  0  0  0  0
 17 37  1  0  0  0  0
 17 38  1  0  0  0  0
 18 39  1  0  0  0  0
 18 40  1  0  0  0  0
M  END
> <s_m_source_file>
AV-unprocessed.smi

> <i_m_source_file_index>
3231

> <i_lp_mmshare_version>
43012

> <i_f3d_flags>
0

> <s_epik_input>
W0NIMl0xW0NIMl1PW0NIMl1bQ0gyXU4xW0NIMl1bQ0BIXShbT0hdKVtDSDJdW05IXVtDSDJdW0NIMl1uMltjSF1bY0hdW2NIXW4y

> <s_epik_cmdline>
J2VwaWtfcHl0aG9uJywgJy1waCcsICc3LjAnLCAnLXRuJywgJzgnLCAnLW1hJywgJzIwMCcsICctbWV0YWxfYmluZGluZycsICctaW1hZScsICc8aW5maWxlLm1hZT4nLCAnLW9tYWUnLCAnPG91dGZpbGUubWFlPic=

> <r_lp_tautomer_probability>
1

> <r_epik_Ionization_Penalty>
2.37071

> <r_epik_Ionization_Penalty_Charging>
0

> <r_epik_Ionization_Penalty_Neutral>
2.37071

> <r_epik_State_Penalty>
1.72455

> <r_epik_Charging_Adjusted_Penalty>
1.72455

> <i_epik_Tot_Q>
0

> <i_epik_Tot_abs_Q>
0

> <r_epik_Metal_State_Penalty>
1.72366

> <b_epik_Metal_Only>
0

> <s_lp_Force_Field>
OPLS_2005

> <r_lp_Energy>
35.5688

> <b_lp_Chiralities_Consistent>
1

> <s_lp_Variant>
AV-unprocessed.smi:3231-8

> <Gold.Version>
5.8.1

> <Gold.Id.Protein>
6NUR|6NUR_protein|mol2

> <Gold.PLP.Fitness>
48.7014

> <Gold.PLP.PLP>
-37.7540

> <Gold.PLP.part.hbond>
-3.0000

> <Gold.PLP.part.metal>
0.0000

> <Gold.PLP.part.buried>
-4.3622

> <Gold.PLP.part.nonpolar>
-32.1441

> <Gold.PLP.part.repulsive>
0.3191

> <Gold.PLP.ligand.clash>
0.0000

> <Gold.PLP.ligand.torsion>
2.0965

> <Gold.PLP.Chemscore.Hbond>
2.9920

> <Gold.PLP.Chemscore.CHOScore>
2.0000

> <Gold.PLP.Chemscore.Metal>
0.0000

> <Gold.Chemscore.Hbonds>
donor molecule, donor type, donor heavy atom, donor atom, acceptor molecule, acceptor atom, score
      L1  H     1    19       P1 10175  1.00
      L1  H     4    23       P1  7948  1.00
      P1  H  7989  7998       L1    16  0.99
      L1  C     8    28       P1 10186  0.51
      L1  C    10    30       P1 10747  1.00

> <Gold.PLP.Chemscore.Internal.Correction>
0.1643

> <Gold.Rescore>
     Score         DG    S(hbond)    S(metal)    S(lipo)     H(rot)  DE(clash)    DE(int)     intcor
     14.65     -16.74       2.24        0.00      91.80       2.72       0.04       2.06       ----

> <Gold.Chemscore.Fitness>
14.6454

> <Gold.Chemscore.DG>
-16.7449

> <Gold.Chemscore.ZeroCoef>
-5.4800

> <Gold.Chemscore.Hbond>
2.2405

> <Gold.Chemscore.Metal>
0.0000

> <Gold.Chemscore.Lipo>
91.7986

> <Gold.Chemscore.Internal_Hbond>
0.0000

> <Gold.Chemscore.DEClash>
0.0420

> <Gold.Chemscore.DEInternal>
2.0575

> <Gold.Chemscore.Rot>
2.7183

> <Gold.Chemscore.Internal.Correction>
   9.000000E+99

> <Gold.Chemscore.Hbonds>
donor molecule, donor type, donor heavy atom, donor atom, acceptor molecule, acceptor atom, score
      L1  H     1    19       P1 10175  0.94
      L1  H     4    23       P1  7948  0.98
      P1  H  7989  7998       L1    16  0.21

> <Gold.Chemscore.Hbond.Weighted>
-7.4833

> <Gold.Chemscore.Metal.Weighted>
-0.0000

> <Gold.Chemscore.Lipo.Weighted>
-10.7404

> <Gold.Chemscore.Internal_Hbond.Weighted>
0.0000

> <Gold.Chemscore.DEClash.Weighted>
0.0420

> <Gold.Chemscore.DEInternal.Weighted>
2.0575

> <Gold.Chemscore.Rot.Weighted>
6.9589

> <Gold.Chemscore.Internal.Correction.Weighted>
   9.000000E+99

> <Gold.Protein.RotatedTorsions>
[ 6907 6896 6895 6894 ] final   79.37 input  -60.11 | X-H torsion
[ 7974 7965 7964 7962 ] final   -6.85 input  175.53 | X-H torsion
[ 8008 7997 7996 7995 ] final  110.16 input   59.86 | X-H torsion
[ 10167 10162 10161 10158 ] final  163.49 input  -65.29 | X-H torsion
[ 10718 10713 10712 10709 ] final -117.76 input   66.30 | X-H torsion
[ 10763 10752 10751 10750 ] final -122.04 input  -60.55 | X-H torsion
[ 11005 11000 10999 10996 ] final   99.59 input  -57.11 | X-H torsion

> <Gold.Protein.ActiveResidues>
 VAL166  LYS551  ARG553  GLY616  TRP617  ASP618  TYR619  PRO620  LYS621  CYS622 
 ASP623  PHE694  ASN695  SER759  ASP760  ASP761  ALA762  ILE779  LEU786  VAL792 
 PHE793  MET794  SER795  GLU796  ALA797  LYS798  CYS799  TRP800  GLU811  SER814 

> <Gold.Protein.RotatedAtoms>
  152.5196  134.3521  159.9254 H   0  0  0  0  0  0  0  0  0  0  0  0  # atno 6907 bound_to 6896
  151.3472  133.3933  159.2684 H   0  0  0  0  0  0  0  0  0  0  0  0  # atno 6908 bound_to 6896
  150.9756  134.9139  159.7872 H   0  0  0  0  0  0  0  0  0  0  0  0  # atno 6909 bound_to 6896
  146.2321  140.2232  142.8338 H   0  0  0  0  0  0  0  0  0  0  0  0  # atno 7974 bound_to 7965
  156.2033  140.3044  155.9572 H   0  0  0  0  0  0  0  0  0  0  0  0  # atno 8008 bound_to 7997
  155.2902  140.0441  157.3039 H   0  0  0  0  0  0  0  0  0  0  0  0  # atno 8009 bound_to 7997
  154.5599  140.2317  155.8360 H   0  0  0  0  0  0  0  0  0  0  0  0  # atno 8010 bound_to 7997
  139.4874  144.4331  151.9045 H   0  0  0  0  0  0  0  0  0  0  0  0  # atno 10167 bound_to 10162
  156.1057  130.6208  150.9205 H   0  0  0  0  0  0  0  0  0  0  0  0  # atno 10718 bound_to 10713
  154.8681  135.4146  154.2718 H   0  0  0  0  0  0  0  0  0  0  0  0  # atno 10763 bound_to 10752
  153.3627  135.7004  153.6705 H   0  0  0  0  0  0  0  0  0  0  0  0  # atno 10764 bound_to 10752
  153.5599  135.3612  155.2767 H   0  0  0  0  0  0  0  0  0  0  0  0  # atno 10765 bound_to 10752
  139.8771  134.9102  156.4629 H   0  0  0  0  0  0  0  0  0  0  0  0  # atno 11005 bound_to 11000
  144.9616  140.8280  143.5510 LP  0  0  0  0  0  0  0  0  0  0  0  0  # atno 17320 bound_to 7965
  145.2203  139.2162  143.5096 LP  0  0  0  0  0  0  0  0  0  0  0  0  # atno 17321 bound_to 7965
  140.3780  144.2772  150.5912 LP  0  0  0  0  0  0  0  0  0  0  0  0  # atno 17342 bound_to 10162
  140.5259  143.2254  151.8315 LP  0  0  0  0  0  0  0  0  0  0  0  0  # atno 17343 bound_to 10162
  157.6233  131.0928  150.8581 LP  0  0  0  0  0  0  0  0  0  0  0  0  # atno 17370 bound_to 10713
  156.8700  130.5143  149.5297 LP  0  0  0  0  0  0  0  0  0  0  0  0  # atno 17371 bound_to 10713
  140.8851  133.7889  155.9509 LP  0  0  0  0  0  0  0  0  0  0  0  0  # atno 17394 bound_to 11000
  140.8813  134.2607  157.5142 LP  0  0  0  0  0  0  0  0  0  0  0  0  # atno 17395 bound_to 11000

$$$$
