AV-unprocessed.smi:2215|AV-procd|sdf|8960|dock6
  -GOLD-   2272012183D 1   1.00000     0.00000
 Structure written by MMmdl.
 40 41  0  0  0  0  0  0  0  0  1 V2000
  143.5279  131.8474  150.4401 C   0  0  0  0  0  0  0  0  0  0  0  0
  144.3462  133.0405  150.8873 C   0  0  0  0  0  0  0  0  0  0  0  0
  145.7534  133.0040  150.8812 C   0  0  0  0  0  0  0  0  0  0  0  0
  146.4636  134.1419  151.3096 C   0  0  0  0  0  0  0  0  0  0  0  0
  145.7526  135.2868  151.7346 C   0  0  0  0  0  0  0  0  0  0  0  0
  146.5628  136.3758  152.1530 N   0  0  0  0  0  0  0  0  0  0  0  0
  146.2584  137.3524  153.0259 C   0  0  0  0  0  0  0  0  0  0  0  0
  145.1826  137.4756  153.6123 O   0  0  0  0  0  0  0  0  0  0  0  0
  147.2876  138.1968  153.1859 N   0  0  0  0  0  0  0  0  0  0  0  0
  147.2884  139.3601  154.0678 C   0  0  0  0  0  0  0  0  0  0  0  0
  148.7069  139.9295  154.3132 C   0  0  2  0  0  0  0  0  0  0  0  0
  149.6842  138.8304  154.7931 C   0  0  0  0  0  0  0  0  0  0  0  0
  151.0887  139.3861  155.0744 C   0  0  0  0  0  0  0  0  0  0  0  0
  151.0368  140.5315  156.0940 C   0  0  0  0  0  0  0  0  0  0  0  0
  150.0948  141.6438  155.6142 C   0  0  0  0  0  0  0  0  0  0  0  0
  148.6828  141.1003  155.3272 C   0  0  1  0  0  0  0  0  0  0  0  0
  147.9021  142.1673  154.8268 O   0  0  0  0  0  0  0  0  0  0  0  0
  144.3965  135.3133  151.7340 N   0  0  0  0  0  0  0  0  0  0  0  0
  143.7166  134.2227  151.3223 C   0  0  0  0  0  0  0  0  0  0  0  0
  144.1583  130.9714  150.2851 H   0  0  0  0  0  0  0  0  0  0  0  0
  143.0152  132.0705  149.5042 H   0  0  0  0  0  0  0  0  0  0  0  0
  142.7785  131.5981  151.1918 H   0  0  0  0  0  0  0  0  0  0  0  0
  146.2836  132.1213  150.5551 H   0  0  0  0  0  0  0  0  0  0  0  0
  147.5439  134.1302  151.3121 H   0  0  0  0  0  0  0  0  0  0  0  0
  147.4869  136.4080  151.7492 H   0  0  0  0  0  0  0  0  0  0  0  0
  148.1343  138.0214  152.6650 H   0  0  0  0  0  0  0  0  0  0  0  0
  146.6310  140.1225  153.6468 H   0  0  0  0  0  0  0  0  0  0  0  0
  146.8390  139.0634  155.0158 H   0  0  0  0  0  0  0  0  0  0  0  0
  149.0870  140.3181  153.3667 H   0  0  0  0  0  0  0  0  0  0  0  0
  149.2940  138.3617  155.6976 H   0  0  0  0  0  0  0  0  0  0  0  0
  149.7637  138.0391  154.0471 H   0  0  0  0  0  0  0  0  0  0  0  0
  151.7358  138.5898  155.4430 H   0  0  0  0  0  0  0  0  0  0  0  0
  151.5347  139.7418  154.1448 H   0  0  0  0  0  0  0  0  0  0  0  0
  150.6968  140.1515  157.0583 H   0  0  0  0  0  0  0  0  0  0  0  0
  152.0375  140.9340  156.2545 H   0  0  0  0  0  0  0  0  0  0  0  0
  150.0466  142.4328  156.3659 H   0  0  0  0  0  0  0  0  0  0  0  0
  150.5072  142.0998  154.7129 H   0  0  0  0  0  0  0  0  0  0  0  0
  148.2330  140.7634  156.2621 H   0  0  0  0  0  0  0  0  0  0  0  0
  148.1043  142.9457  155.3232 H   0  0  0  0  0  0  0  0  0  0  0  0
  142.6390  134.2968  151.3425 H   0  0  0  0  0  0  0  0  0  0  0  0
  1  2  1  0  0  0  0
  1 20  1  0  0  0  0
  1 21  1  0  0  0  0
  1 22  1  0  0  0  0
  2 19  1  0  0  0  0
  2  3  2  0  0  0  0
  3  4  1  0  0  0  0
  3 23  1  0  0  0  0
  4  5  2  0  0  0  0
  4 24  1  0  0  0  0
  5  6  1  0  0  0  0
  5 18  1  0  0  0  0
  6  7  1  0  0  0  0
  6 25  1  0  0  0  0
  7  8  2  0  0  0  0
  7  9  1  0  0  0  0
  9 10  1  0  0  0  0
  9 26  1  0  0  0  0
 10 11  1  0  0  0  0
 10 27  1  0  0  0  0
 10 28  1  0  0  0  0
 11 16  1  0  0  0  0
 11 12  1  0  0  0  0
 11 29  1  0  0  0  0
 12 13  1  0  0  0  0
 12 30  1  0  0  0  0
 12 31  1  0  0  0  0
 13 14  1  0  0  0  0
 13 32  1  0  0  0  0
 13 33  1  0  0  0  0
 14 15  1  0  0  0  0
 14 34  1  0  0  0  0
 14 35  1  0  0  0  0
 15 16  1  0  0  0  0
 15 36  1  0  0  0  0
 15 37  1  0  0  0  0
 16 17  1  0  0  0  0
 16 38  1  0  0  0  0
 17 39  1  0  0  0  0
 18 19  2  0  0  0  0
 19 40  1  0  0  0  0
M  END
> <s_m_source_file>
AV-unprocessed.smi

> <i_m_source_file_index>
2215

> <i_lp_mmshare_version>
43012

> <i_f3d_flags>
0

> <s_epik_input>
W0NIM11jMVtjSF1bY0hdYyhuW2NIXTEpW05IXUMoPU8pW05IXVtDSDJdW0NAQEhdMltDSDJdW0NIMl1bQ0gyXVtDSDJdW0NASF0yW09IXQ==

> <s_epik_cmdline>
J2VwaWtfcHl0aG9uJywgJy1waCcsICc3LjAnLCAnLXRuJywgJzgnLCAnLW1hJywgJzIwMCcsICctbWV0YWxfYmluZGluZycsICctaW1hZScsICc8aW5maWxlLm1hZT4nLCAnLW9tYWUnLCAnPG91dGZpbGUubWFlPic=

> <r_lp_tautomer_probability>
1

> <r_epik_Ionization_Penalty>
6.08491e-05

> <r_epik_Ionization_Penalty_Charging>
0

> <r_epik_Ionization_Penalty_Neutral>
6.08491e-05

> <r_epik_State_Penalty>
-0

> <r_epik_Charging_Adjusted_Penalty>
0

> <i_epik_Tot_Q>
0

> <i_epik_Tot_abs_Q>
0

> <r_epik_Metal_State_Penalty>
-0

> <b_epik_Metal_Only>
0

> <s_lp_Force_Field>
OPLS_2005

> <r_lp_Energy>
13.8041

> <b_lp_Chiralities_Consistent>
1

> <s_lp_Variant>
AV-unprocessed.smi:2215-1

> <Gold.Version>
5.8.1

> <Gold.Id.Protein>
6NUR|6NUR_protein|mol2

> <Gold.PLP.Fitness>
41.0956

> <Gold.PLP.PLP>
-32.2926

> <Gold.PLP.part.hbond>
-2.5184

> <Gold.PLP.part.metal>
0.0000

> <Gold.PLP.part.buried>
-2.9922

> <Gold.PLP.part.nonpolar>
-27.5532

> <Gold.PLP.part.repulsive>
0.3653

> <Gold.PLP.ligand.clash>
0.0000

> <Gold.PLP.ligand.torsion>
0.2558

> <Gold.PLP.Chemscore.Hbond>
2.3384

> <Gold.PLP.Chemscore.CHOScore>
0.7649

> <Gold.PLP.Chemscore.Metal>
0.0000

> <Gold.Chemscore.Hbonds>
donor molecule, donor type, donor heavy atom, donor atom, acceptor molecule, acceptor atom, score
      L1  H     6    25       P1  7948  0.81
      L1  H     9    26       P1  7948  0.53
      L1  H    17    39       P1  8028  1.00
      L1  C    19    40       P1 10186  0.76

> <Gold.PLP.Chemscore.Internal.Correction>
0.0049

> <Gold.Rescore>
     Score         DG    S(hbond)    S(metal)    S(lipo)     H(rot)  DE(clash)    DE(int)     intcor
     17.32     -18.59       2.56        0.00      76.82       1.73       0.08       1.19       ----

> <Gold.Chemscore.Fitness>
17.3196

> <Gold.Chemscore.DG>
-18.5892

> <Gold.Chemscore.ZeroCoef>
-5.4800

> <Gold.Chemscore.Hbond>
2.5630

> <Gold.Chemscore.Metal>
0.0000

> <Gold.Chemscore.Lipo>
76.8153

> <Gold.Chemscore.Internal_Hbond>
0.0000

> <Gold.Chemscore.DEClash>
0.0814

> <Gold.Chemscore.DEInternal>
1.1881

> <Gold.Chemscore.Rot>
1.7339

> <Gold.Chemscore.Internal.Correction>
   9.000000E+99

> <Gold.Chemscore.Hbonds>
donor molecule, donor type, donor heavy atom, donor atom, acceptor molecule, acceptor atom, score
      L1  H     6    25       P1  7948  0.76
      L1  H     9    26       P1  7948  0.53
      L1  H    17    39       P1  8028  0.92

> <Gold.Chemscore.Hbond.Weighted>
-8.5605

> <Gold.Chemscore.Metal.Weighted>
-0.0000

> <Gold.Chemscore.Lipo.Weighted>
-8.9874

> <Gold.Chemscore.Internal_Hbond.Weighted>
0.0000

> <Gold.Chemscore.DEClash.Weighted>
0.0814

> <Gold.Chemscore.DEInternal.Weighted>
1.1881

> <Gold.Chemscore.Rot.Weighted>
4.4387

> <Gold.Chemscore.Internal.Correction.Weighted>
   9.000000E+99

> <Gold.Protein.RotatedTorsions>
[ 6907 6896 6895 6894 ] final  -86.59 input  -60.11 | X-H torsion
[ 7974 7965 7964 7962 ] final  -72.85 input  175.53 | X-H torsion
[ 8008 7997 7996 7995 ] final  149.75 input   59.86 | X-H torsion
[ 10167 10162 10161 10158 ] final   77.89 input  -65.29 | X-H torsion
[ 10718 10713 10712 10709 ] final  139.79 input   66.30 | X-H torsion
[ 10763 10752 10751 10750 ] final  -54.38 input  -60.55 | X-H torsion
[ 11005 11000 10999 10996 ] final -165.28 input  -57.11 | X-H torsion

> <Gold.Protein.ActiveResidues>
 VAL166  LYS551  ARG553  GLY616  TRP617  ASP618  TYR619  PRO620  LYS621  CYS622 
 ASP623  PHE694  ASN695  SER759  ASP760  ASP761  ALA762  ILE779  LEU786  VAL792 
 PHE793  MET794  SER795  GLU796  ALA797  LYS798  CYS799  TRP800  GLU811  SER814 

> <Gold.Protein.RotatedAtoms>
  150.6867  134.3027  159.4712 H   0  0  0  0  0  0  0  0  0  0  0  0  # atno 6907 bound_to 6896
  152.0921  134.9397  160.0581 H   0  0  0  0  0  0  0  0  0  0  0  0  # atno 6908 bound_to 6896
  152.0709  133.4071  159.4495 H   0  0  0  0  0  0  0  0  0  0  0  0  # atno 6909 bound_to 6896
  145.6598  140.9256  143.0940 H   0  0  0  0  0  0  0  0  0  0  0  0  # atno 7974 bound_to 7965
  156.2743  140.2093  156.5908 H   0  0  0  0  0  0  0  0  0  0  0  0  # atno 8008 bound_to 7997
  154.6984  140.0523  157.0457 H   0  0  0  0  0  0  0  0  0  0  0  0  # atno 8009 bound_to 7997
  155.0769  140.3182  155.4616 H   0  0  0  0  0  0  0  0  0  0  0  0  # atno 8010 bound_to 7997
  139.9767  144.5855  150.7936 H   0  0  0  0  0  0  0  0  0  0  0  0  # atno 10167 bound_to 10162
  157.4105  131.1027  151.0459 H   0  0  0  0  0  0  0  0  0  0  0  0  # atno 10718 bound_to 10713
  154.1740  135.6454  153.5016 H   0  0  0  0  0  0  0  0  0  0  0  0  # atno 10763 bound_to 10752
  153.0077  135.5390  154.6583 H   0  0  0  0  0  0  0  0  0  0  0  0  # atno 10764 bound_to 10752
  154.5930  135.2936  155.0588 H   0  0  0  0  0  0  0  0  0  0  0  0  # atno 10765 bound_to 10752
  140.5774  134.5176  157.5172 H   0  0  0  0  0  0  0  0  0  0  0  0  # atno 11005 bound_to 11000
  144.7093  139.8434  143.7420 LP  0  0  0  0  0  0  0  0  0  0  0  0  # atno 17320 bound_to 7965
  146.1134  139.4142  143.0273 LP  0  0  0  0  0  0  0  0  0  0  0  0  # atno 17321 bound_to 7965
  140.7503  143.2953  151.3221 LP  0  0  0  0  0  0  0  0  0  0  0  0  # atno 17342 bound_to 10162
  139.6440  144.0486  152.2576 LP  0  0  0  0  0  0  0  0  0  0  0  0  # atno 17343 bound_to 10162
  157.1425  130.6149  149.5559 LP  0  0  0  0  0  0  0  0  0  0  0  0  # atno 17370 bound_to 10713
  155.9849  130.4876  150.7006 LP  0  0  0  0  0  0  0  0  0  0  0  0  # atno 17371 bound_to 10713
  139.9333  134.7923  156.0871 LP  0  0  0  0  0  0  0  0  0  0  0  0  # atno 17394 bound_to 11000
  141.1017  133.6674  156.2771 LP  0  0  0  0  0  0  0  0  0  0  0  0  # atno 17395 bound_to 11000

$$$$
