AV-unprocessed.smi:2340|AV-procd|sdf|9347|dock7
  -GOLD-   2272012563D 1   1.00000     0.00000
 Structure written by MMmdl.
 40 41  0  0  0  0  0  0  0  0  1 V2000
  150.9401  142.4106  157.4177 C   0  0  0  0  0  0  0  0  0  0  0  0
  150.4901  141.4625  156.3518 C   0  0  0  0  0  0  0  0  0  0  0  0
  149.3458  141.5468  155.5987 C   0  0  0  0  0  0  0  0  0  0  0  0
  149.2037  140.2164  154.4832 S   0  0  0  0  0  0  0  0  0  0  0  0
  150.7309  139.5838  155.0891 C   0  0  0  0  0  0  0  0  0  0  0  0
  151.3372  138.3008  154.6065 C   0  0  1  0  0  0  0  0  0  0  0  0
  152.8684  138.3833  154.5262 C   0  0  0  0  0  0  0  0  0  0  0  0
  150.8426  137.0622  155.3849 C   0  0  0  0  0  0  0  0  0  0  0  0
  150.0186  136.1807  154.5590 N   0  0  0  0  0  0  0  0  0  0  0  0
  149.2798  135.1562  155.0093 C   0  0  0  0  0  0  0  0  0  0  0  0
  149.2370  134.7972  156.1858 O   0  0  0  0  0  0  0  0  0  0  0  0
  148.5831  134.5766  154.0221 N   0  0  0  0  0  0  0  0  0  0  0  0
  147.6473  133.4640  154.1886 C   0  0  1  0  0  0  0  0  0  0  0  0
  146.8115  133.2730  152.9238 C   0  0  0  0  0  0  0  0  0  0  0  0
  146.9183  131.7808  152.6283 C   0  0  0  0  0  0  0  0  0  0  0  0
  148.1964  131.4394  153.1345 O   0  0  0  0  0  0  0  0  0  0  0  0
  148.3382  132.0946  154.3864 C   0  0  1  0  0  0  0  0  0  0  0  0
  149.8139  132.0962  154.8169 C   0  0  0  0  0  0  0  0  0  0  0  0
  151.2721  140.3465  156.0437 N   0  0  0  0  0  0  0  0  0  0  0  0
  150.2395  143.2371  157.5392 H   0  0  0  0  0  0  0  0  0  0  0  0
  151.9151  142.8363  157.1804 H   0  0  0  0  0  0  0  0  0  0  0  0
  151.0236  141.9060  158.3806 H   0  0  0  0  0  0  0  0  0  0  0  0
  148.5777  142.3048  155.6355 H   0  0  0  0  0  0  0  0  0  0  0  0
  150.9908  138.1737  153.5799 H   0  0  0  0  0  0  0  0  0  0  0  0
  153.1843  139.2099  153.8888 H   0  0  0  0  0  0  0  0  0  0  0  0
  153.2894  137.4670  154.1114 H   0  0  0  0  0  0  0  0  0  0  0  0
  153.3095  138.5344  155.5118 H   0  0  0  0  0  0  0  0  0  0  0  0
  151.6964  136.4864  155.7430 H   0  0  0  0  0  0  0  0  0  0  0  0
  150.2957  137.3761  156.2758 H   0  0  0  0  0  0  0  0  0  0  0  0
  149.9859  136.3882  153.5717 H   0  0  0  0  0  0  0  0  0  0  0  0
  148.6914  134.9406  153.0868 H   0  0  0  0  0  0  0  0  0  0  0  0
  146.9832  133.6540  155.0339 H   0  0  0  0  0  0  0  0  0  0  0  0
  145.7776  133.5953  153.0497 H   0  0  0  0  0  0  0  0  0  0  0  0
  147.2318  133.8349  152.0883 H   0  0  0  0  0  0  0  0  0  0  0  0
  146.1512  131.2208  153.1654 H   0  0  0  0  0  0  0  0  0  0  0  0
  146.8299  131.5536  151.5658 H   0  0  0  0  0  0  0  0  0  0  0  0
  147.7644  131.5227  155.1180 H   0  0  0  0  0  0  0  0  0  0  0  0
  149.9446  132.6071  155.7710 H   0  0  0  0  0  0  0  0  0  0  0  0
  150.4483  132.5869  154.0783 H   0  0  0  0  0  0  0  0  0  0  0  0
  150.1806  131.0766  154.9360 H   0  0  0  0  0  0  0  0  0  0  0  0
  1  2  1  0  0  0  0
  1 20  1  0  0  0  0
  1 21  1  0  0  0  0
  1 22  1  0  0  0  0
  2 19  1  0  0  0  0
  2  3  2  0  0  0  0
  3  4  1  0  0  0  0
  3 23  1  0  0  0  0
  4  5  1  0  0  0  0
  5  6  1  0  0  0  0
  5 19  2  0  0  0  0
  6  7  1  0  0  0  0
  6  8  1  0  0  0  0
  6 24  1  0  0  0  0
  7 25  1  0  0  0  0
  7 26  1  0  0  0  0
  7 27  1  0  0  0  0
  8  9  1  0  0  0  0
  8 28  1  0  0  0  0
  8 29  1  0  0  0  0
  9 10  1  0  0  0  0
  9 30  1  0  0  0  0
 10 11  2  0  0  0  0
 10 12  1  0  0  0  0
 12 13  1  0  0  0  0
 12 31  1  0  0  0  0
 13 17  1  0  0  0  0
 13 14  1  0  0  0  0
 13 32  1  0  0  0  0
 14 15  1  0  0  0  0
 14 33  1  0  0  0  0
 14 34  1  0  0  0  0
 15 16  1  0  0  0  0
 15 35  1  0  0  0  0
 15 36  1  0  0  0  0
 16 17  1  0  0  0  0
 17 18  1  0  0  0  0
 17 37  1  0  0  0  0
 18 38  1  0  0  0  0
 18 39  1  0  0  0  0
 18 40  1  0  0  0  0
M  END
> <s_m_source_file>
AV-unprocessed.smi

> <i_m_source_file_index>
2340

> <i_lp_mmshare_version>
43012

> <i_f3d_flags>
0

> <s_epik_input>
W0NIM11jMVtjSF1zYyhuMSlbQ0BIXShbQ0gzXSlbQ0gyXVtOSF1DKD1PKVtOSF1bQ0BASF0yW0NIMl1bQ0gyXU9bQ0BIXTJbQ0gzXQ==

> <s_epik_cmdline>
J2VwaWtfcHl0aG9uJywgJy1waCcsICc3LjAnLCAnLXRuJywgJzgnLCAnLW1hJywgJzIwMCcsICctbWV0YWxfYmluZGluZycsICctaW1hZScsICc8aW5maWxlLm1hZT4nLCAnLW9tYWUnLCAnPG91dGZpbGUubWFlPic=

> <r_epik_Ionization_Penalty>
0.00156622

> <r_epik_Ionization_Penalty_Charging>
0

> <r_epik_Ionization_Penalty_Neutral>
0.00156622

> <r_epik_State_Penalty>
0.00101902

> <r_epik_Charging_Adjusted_Penalty>
0.00101902

> <i_epik_Tot_Q>
0

> <i_epik_Tot_abs_Q>
0

> <r_epik_Metal_State_Penalty>
-0

> <b_epik_Metal_Only>
0

> <s_lp_Force_Field>
OPLS_2005

> <r_lp_Energy>
5.75985

> <b_lp_Chiralities_Consistent>
1

> <s_lp_Variant>
AV-unprocessed.smi:2340-4

> <Gold.Version>
5.8.1

> <Gold.Id.Protein>
6NUR|6NUR_protein|mol2

> <Gold.PLP.Fitness>
38.2726

> <Gold.PLP.PLP>
-33.3191

> <Gold.PLP.part.hbond>
-2.3791

> <Gold.PLP.part.metal>
0.0000

> <Gold.PLP.part.buried>
-3.3314

> <Gold.PLP.part.nonpolar>
-28.6918

> <Gold.PLP.part.repulsive>
0.6352

> <Gold.PLP.ligand.clash>
0.0000

> <Gold.PLP.ligand.torsion>
1.6651

> <Gold.PLP.Chemscore.Hbond>
1.7200

> <Gold.PLP.Chemscore.CHOScore>
0.9993

> <Gold.PLP.Chemscore.Metal>
0.0000

> <Gold.Chemscore.Hbonds>
donor molecule, donor type, donor heavy atom, donor atom, acceptor molecule, acceptor atom, score
      L1  H     9    30       P1  7948  0.77
      L1  H    12    31       P1  7948  1.00
      L1  C     3    23       P1  8028  0.96

> <Gold.PLP.Chemscore.Internal.Correction>
0.1258

> <Gold.Rescore>
     Score         DG    S(hbond)    S(metal)    S(lipo)     H(rot)  DE(clash)    DE(int)     intcor
     12.61     -15.95       1.53        0.00      79.24       1.53       0.01       3.33       ----

> <Gold.Chemscore.Fitness>
12.6077

> <Gold.Chemscore.DG>
-15.9451

> <Gold.Chemscore.ZeroCoef>
-5.4800

> <Gold.Chemscore.Hbond>
1.5320

> <Gold.Chemscore.Metal>
0.0000

> <Gold.Chemscore.Lipo>
79.2437

> <Gold.Chemscore.Internal_Hbond>
0.0000

> <Gold.Chemscore.DEClash>
0.0068

> <Gold.Chemscore.DEInternal>
3.3306

> <Gold.Chemscore.Rot>
1.5325

> <Gold.Chemscore.Internal.Correction>
   9.000000E+99

> <Gold.Chemscore.Hbonds>
donor molecule, donor type, donor heavy atom, donor atom, acceptor molecule, acceptor atom, score
      L1  H     9    30       P1  7948  0.11
      L1  H    12    31       P1  7948  0.44

> <Gold.Chemscore.Hbond.Weighted>
-5.1169

> <Gold.Chemscore.Metal.Weighted>
-0.0000

> <Gold.Chemscore.Lipo.Weighted>
-9.2715

> <Gold.Chemscore.Internal_Hbond.Weighted>
0.0000

> <Gold.Chemscore.DEClash.Weighted>
0.0068

> <Gold.Chemscore.DEInternal.Weighted>
3.3306

> <Gold.Chemscore.Rot.Weighted>
3.9233

> <Gold.Chemscore.Internal.Correction.Weighted>
   9.000000E+99

> <Gold.Protein.RotatedTorsions>
[ 6907 6896 6895 6894 ] final   20.66 input  -60.11 | X-H torsion
[ 7974 7965 7964 7962 ] final   98.58 input  175.53 | X-H torsion
[ 8008 7997 7996 7995 ] final  -46.95 input   59.86 | X-H torsion
[ 10167 10162 10161 10158 ] final -136.02 input  -65.29 | X-H torsion
[ 10718 10713 10712 10709 ] final -162.72 input   66.30 | X-H torsion
[ 10763 10752 10751 10750 ] final  -55.54 input  -60.55 | X-H torsion
[ 11005 11000 10999 10996 ] final   12.48 input  -57.11 | X-H torsion

> <Gold.Protein.ActiveResidues>
 VAL166  LYS551  ARG553  GLY616  TRP617  ASP618  TYR619  PRO620  LYS621  CYS622 
 ASP623  PHE694  ASN695  SER759  ASP760  ASP761  ALA762  ILE779  LEU786  VAL792 
 PHE793  MET794  SER795  GLU796  ALA797  LYS798  CYS799  TRP800  GLU811  SER814 

> <Gold.Protein.RotatedAtoms>
  151.8998  135.0383  160.0505 H   0  0  0  0  0  0  0  0  0  0  0  0  # atno 6907 bound_to 6896
  152.2368  133.5098  159.5255 H   0  0  0  0  0  0  0  0  0  0  0  0  # atno 6908 bound_to 6896
  150.7041  134.1059  159.4025 H   0  0  0  0  0  0  0  0  0  0  0  0  # atno 6909 bound_to 6896
  145.4102  139.2335  143.3252 H   0  0  0  0  0  0  0  0  0  0  0  0  # atno 7974 bound_to 7965
  154.4012  140.1358  156.4096 H   0  0  0  0  0  0  0  0  0  0  0  0  # atno 8008 bound_to 7997
  155.7746  140.3483  155.5245 H   0  0  0  0  0  0  0  0  0  0  0  0  # atno 8009 bound_to 7997
  155.8733  140.0975  157.1526 H   0  0  0  0  0  0  0  0  0  0  0  0  # atno 8010 bound_to 7997
  139.8720  143.6946  152.2638 H   0  0  0  0  0  0  0  0  0  0  0  0  # atno 10167 bound_to 10162
  156.6145  130.8864  151.2944 H   0  0  0  0  0  0  0  0  0  0  0  0  # atno 10718 bound_to 10713
  154.1924  135.6425  153.5063 H   0  0  0  0  0  0  0  0  0  0  0  0  # atno 10763 bound_to 10752
  153.0032  135.5432  154.6401 H   0  0  0  0  0  0  0  0  0  0  0  0  # atno 10764 bound_to 10752
  154.5793  135.2924  155.0721 H   0  0  0  0  0  0  0  0  0  0  0  0  # atno 10765 bound_to 10752
  140.4915  134.0836  155.7772 H   0  0  0  0  0  0  0  0  0  0  0  0  # atno 11005 bound_to 11000
  146.2708  140.4813  142.8815 LP  0  0  0  0  0  0  0  0  0  0  0  0  # atno 17320 bound_to 7965
  144.8314  140.6713  143.6288 LP  0  0  0  0  0  0  0  0  0  0  0  0  # atno 17321 bound_to 7965
  139.7275  144.7589  151.0855 LP  0  0  0  0  0  0  0  0  0  0  0  0  # atno 17342 bound_to 10162
  140.7759  143.5129  150.9630 LP  0  0  0  0  0  0  0  0  0  0  0  0  # atno 17343 bound_to 10162
  157.7245  130.9603  150.1576 LP  0  0  0  0  0  0  0  0  0  0  0  0  # atno 17370 bound_to 10713
  156.2363  130.3686  149.8388 LP  0  0  0  0  0  0  0  0  0  0  0  0  # atno 17371 bound_to 10713
  141.1482  133.9017  157.2164 LP  0  0  0  0  0  0  0  0  0  0  0  0  # atno 17394 bound_to 11000
  139.9767  135.0112  156.9647 LP  0  0  0  0  0  0  0  0  0  0  0  0  # atno 17395 bound_to 11000

$$$$
