AV-unprocessed.smi:946|AV-procd|sdf|4236|dock2
  -GOLD-   22720 2143D 1   1.00000     0.00000
 Structure written by MMmdl.
 42 43  0  0  0  0  0  0  0  0  1 V2000
  149.8417  138.0043  156.5542 C   0  0  0  0  0  0  0  0  0  0  0  0
  149.7100  138.3874  158.0352 C   0  0  2  0  0  0  0  0  0  0  0  0
  150.8929  139.0934  158.3975 O   0  0  0  0  0  0  0  0  0  0  0  0
  151.2268  140.1964  157.5633 C   0  0  0  0  0  0  0  0  0  0  0  0
  151.3606  141.4477  158.4410 C   0  0  1  0  0  0  0  0  0  0  0  0
  152.5814  141.3697  159.3784 C   0  0  0  0  0  0  0  0  0  0  0  0
  152.7311  142.6711  160.1753 C   0  0  0  0  0  0  0  0  0  0  0  0
  152.7546  143.8655  159.2159 C   0  0  0  0  0  0  0  0  0  0  0  0
  151.5412  143.8178  158.2737 C   0  0  0  0  0  0  0  0  0  0  0  0
  151.5142  142.5744  157.5801 O   0  0  0  0  0  0  0  0  0  0  0  0
  149.5439  137.1400  158.9175 C   0  0  0  0  0  0  0  0  0  0  0  0
  150.4113  136.2660  158.9050 O   0  0  0  0  0  0  0  0  0  0  0  0
  148.4299  137.1020  159.6729 N   0  0  0  0  0  0  0  0  0  0  0  0
  148.0074  136.0828  160.5666 C   0  0  0  0  0  0  0  0  0  0  0  0
  147.3978  136.5421  161.7548 C   0  0  0  0  0  0  0  0  0  0  0  0
  146.9401  135.6081  162.7035 C   0  0  0  0  0  0  0  0  0  0  0  0
  147.1044  134.2366  162.4409 C   0  0  0  0  0  0  0  0  0  0  0  0
  147.7254  133.8568  161.2319 C   0  0  0  0  0  0  0  0  0  0  0  0
  147.9442  132.3942  160.8710 C   0  0  0  0  0  0  0  0  0  0  0  0
  146.7892  131.7420  160.7317 F   0  0  0  0  0  0  0  0  0  0  0  0
  148.6168  132.3101  159.7231 F   0  0  0  0  0  0  0  0  0  0  0  0
  148.6526  131.7964  161.8293 F   0  0  0  0  0  0  0  0  0  0  0  0
  148.1628  134.7582  160.3238 N   0  0  0  0  0  0  0  0  0  0  0  0
  148.9645  137.4570  156.2071 H   0  0  0  0  0  0  0  0  0  0  0  0
  150.7189  137.3807  156.3765 H   0  0  0  0  0  0  0  0  0  0  0  0
  149.9412  138.8945  155.9327 H   0  0  0  0  0  0  0  0  0  0  0  0
  148.8452  139.0444  158.1456 H   0  0  0  0  0  0  0  0  0  0  0  0
  152.1772  139.9876  157.0701 H   0  0  0  0  0  0  0  0  0  0  0  0
  150.4824  140.3612  156.7834 H   0  0  0  0  0  0  0  0  0  0  0  0
  150.4538  141.5606  159.0383 H   0  0  0  0  0  0  0  0  0  0  0  0
  152.4820  140.5255  160.0615 H   0  0  0  0  0  0  0  0  0  0  0  0
  153.4849  141.1941  158.7929 H   0  0  0  0  0  0  0  0  0  0  0  0
  151.8963  142.7744  160.8697 H   0  0  0  0  0  0  0  0  0  0  0  0
  153.6396  142.6481  160.7776 H   0  0  0  0  0  0  0  0  0  0  0  0
  152.7616  144.8005  159.7765 H   0  0  0  0  0  0  0  0  0  0  0  0
  153.6729  143.8458  158.6277 H   0  0  0  0  0  0  0  0  0  0  0  0
  150.6115  143.9577  158.8273 H   0  0  0  0  0  0  0  0  0  0  0  0
  151.6016  144.6259  157.5445 H   0  0  0  0  0  0  0  0  0  0  0  0
  147.8057  137.8905  159.5863 H   0  0  0  0  0  0  0  0  0  0  0  0
  147.2768  137.5995  161.9408 H   0  0  0  0  0  0  0  0  0  0  0  0
  146.4694  135.9394  163.6175 H   0  0  0  0  0  0  0  0  0  0  0  0
  146.7596  133.5025  163.1538 H   0  0  0  0  0  0  0  0  0  0  0  0
  1  2  1  0  0  0  0
  1 24  1  0  0  0  0
  1 25  1  0  0  0  0
  1 26  1  0  0  0  0
  2  3  1  0  0  0  0
  2 11  1  0  0  0  0
  2 27  1  0  0  0  0
  3  4  1  0  0  0  0
  4  5  1  0  0  0  0
  4 28  1  0  0  0  0
  4 29  1  0  0  0  0
  5 10  1  0  0  0  0
  5  6  1  0  0  0  0
  5 30  1  0  0  0  0
  6  7  1  0  0  0  0
  6 31  1  0  0  0  0
  6 32  1  0  0  0  0
  7  8  1  0  0  0  0
  7 33  1  0  0  0  0
  7 34  1  0  0  0  0
  8  9  1  0  0  0  0
  8 35  1  0  0  0  0
  8 36  1  0  0  0  0
  9 10  1  0  0  0  0
  9 37  1  0  0  0  0
  9 38  1  0  0  0  0
 11 12  2  0  0  0  0
 11 13  1  0  0  0  0
 13 14  1  0  0  0  0
 13 39  1  0  0  0  0
 14 23  1  0  0  0  0
 14 15  2  0  0  0  0
 15 16  1  0  0  0  0
 15 40  1  0  0  0  0
 16 17  2  0  0  0  0
 16 41  1  0  0  0  0
 17 18  1  0  0  0  0
 17 42  1  0  0  0  0
 18 19  1  0  0  0  0
 18 23  2  0  0  0  0
 19 20  1  0  0  0  0
 19 21  1  0  0  0  0
 19 22  1  0  0  0  0
M  END
> <s_m_source_file>
AV-unprocessed.smi

> <i_m_source_file_index>
946

> <i_lp_mmshare_version>
43012

> <i_f3d_flags>
0

> <s_epik_input>
TzFbQ0gyXVtDSDJdW0NIMl1bQ0gyXVtDQEhdMVtDSDJdT1tDQEBIXShbQ0gzXSlDKD1PKVtOSF1jMltjSF1bY0hdW2NIXWMobjIpQyhGKShGKUY=

> <s_epik_cmdline>
J2VwaWtfcHl0aG9uJywgJy1waCcsICc3LjAnLCAnLXRuJywgJzgnLCAnLW1hJywgJzIwMCcsICctbWV0YWxfYmluZGluZycsICctaW1hZScsICc8aW5maWxlLm1hZT4nLCAnLW9tYWUnLCAnPG91dGZpbGUubWFlPic=

> <r_lp_tautomer_probability>
1

> <r_epik_Ionization_Penalty>
1.32683e-06

> <r_epik_Ionization_Penalty_Charging>
0

> <r_epik_Ionization_Penalty_Neutral>
1.32683e-06

> <r_epik_State_Penalty>
-0

> <r_epik_Charging_Adjusted_Penalty>
0

> <i_epik_Tot_Q>
0

> <i_epik_Tot_abs_Q>
0

> <r_epik_Metal_State_Penalty>
-0

> <b_epik_Metal_Only>
0

> <s_lp_Force_Field>
OPLS_2005

> <r_lp_Energy>
15.6569

> <b_lp_Chiralities_Consistent>
1

> <s_lp_Variant>
AV-unprocessed.smi:946-3

> <Gold.Version>
5.8.1

> <Gold.Id.Protein>
6NUR|6NUR_protein|mol2

> <Gold.PLP.Fitness>
46.2452

> <Gold.PLP.PLP>
-44.6490

> <Gold.PLP.part.hbond>
-1.0000

> <Gold.PLP.part.metal>
0.0000

> <Gold.PLP.part.buried>
-5.3872

> <Gold.PLP.part.nonpolar>
-37.7285

> <Gold.PLP.part.repulsive>
0.2924

> <Gold.PLP.ligand.clash>
0.0000

> <Gold.PLP.ligand.torsion>
0.7527

> <Gold.PLP.Chemscore.Hbond>
1.0000

> <Gold.PLP.Chemscore.CHOScore>
0.0000

> <Gold.PLP.Chemscore.Metal>
0.0000

> <Gold.Chemscore.Hbonds>
donor molecule, donor type, donor heavy atom, donor atom, acceptor molecule, acceptor atom, score
      P1  H  6896  6909       L1    12  0.93

> <Gold.PLP.Chemscore.Internal.Correction>
0.1015

> <Gold.Rescore>
     Score         DG    S(hbond)    S(metal)    S(lipo)     H(rot)  DE(clash)    DE(int)     intcor
     14.39     -15.93       0.99        0.00      99.40       1.76       0.00       1.54       ----

> <Gold.Chemscore.Fitness>
14.3881

> <Gold.Chemscore.DG>
-15.9271

> <Gold.Chemscore.ZeroCoef>
-5.4800

> <Gold.Chemscore.Hbond>
0.9915

> <Gold.Chemscore.Metal>
0.0000

> <Gold.Chemscore.Lipo>
99.4035

> <Gold.Chemscore.Internal_Hbond>
0.0000

> <Gold.Chemscore.DEClash>
0.0000

> <Gold.Chemscore.DEInternal>
1.5389

> <Gold.Chemscore.Rot>
1.7557

> <Gold.Chemscore.Internal.Correction>
   9.000000E+99

> <Gold.Chemscore.Hbonds>
donor molecule, donor type, donor heavy atom, donor atom, acceptor molecule, acceptor atom, score
      P1  H  6896  6909       L1    12  0.91

> <Gold.Chemscore.Hbond.Weighted>
-3.3115

> <Gold.Chemscore.Metal.Weighted>
-0.0000

> <Gold.Chemscore.Lipo.Weighted>
-11.6302

> <Gold.Chemscore.Internal_Hbond.Weighted>
0.0000

> <Gold.Chemscore.DEClash.Weighted>
0.0000

> <Gold.Chemscore.DEInternal.Weighted>
1.5389

> <Gold.Chemscore.Rot.Weighted>
4.4946

> <Gold.Chemscore.Internal.Correction.Weighted>
   9.000000E+99

> <Gold.Protein.RotatedTorsions>
[ 6907 6896 6895 6894 ] final   62.91 input  -60.11 | X-H torsion
[ 7974 7965 7964 7962 ] final    6.79 input  175.53 | X-H torsion
[ 8008 7997 7996 7995 ] final  135.44 input   59.86 | X-H torsion
[ 10167 10162 10161 10158 ] final  -24.03 input  -65.29 | X-H torsion
[ 10718 10713 10712 10709 ] final  162.58 input   66.30 | X-H torsion
[ 10763 10752 10751 10750 ] final -126.00 input  -60.55 | X-H torsion
[ 11005 11000 10999 10996 ] final -141.29 input  -57.11 | X-H torsion

> <Gold.Protein.ActiveResidues>
 VAL166  LYS551  ARG553  GLY616  TRP617  ASP618  TYR619  PRO620  LYS621  CYS622 
 ASP623  PHE694  ASN695  SER759  ASP760  ASP761  ALA762  ILE779  LEU786  VAL792 
 PHE793  MET794  SER795  GLU796  ALA797  LYS798  CYS799  TRP800  GLU811  SER814 

> <Gold.Protein.RotatedAtoms>
  152.4211  134.5953  159.9985 H   0  0  0  0  0  0  0  0  0  0  0  0  # atno 6907 bound_to 6896
  151.6103  133.3342  159.3074 H   0  0  0  0  0  0  0  0  0  0  0  0  # atno 6908 bound_to 6896
  150.8099  134.7285  159.6744 H   0  0  0  0  0  0  0  0  0  0  0  0  # atno 6909 bound_to 6896
  146.2432  140.0181  142.8400 H   0  0  0  0  0  0  0  0  0  0  0  0  # atno 7974 bound_to 7965
  156.3003  140.2470  156.3582 H   0  0  0  0  0  0  0  0  0  0  0  0  # atno 8008 bound_to 7997
  154.8902  140.0409  157.1853 H   0  0  0  0  0  0  0  0  0  0  0  0  # atno 8009 bound_to 7997
  154.8605  140.2920  155.5546 H   0  0  0  0  0  0  0  0  0  0  0  0  # atno 8010 bound_to 7997
  140.7288  143.4390  151.0686 H   0  0  0  0  0  0  0  0  0  0  0  0  # atno 10167 bound_to 10162
  157.1205  131.0491  151.2417 H   0  0  0  0  0  0  0  0  0  0  0  0  # atno 10718 bound_to 10713
  154.8741  135.4010  154.3359 H   0  0  0  0  0  0  0  0  0  0  0  0  # atno 10763 bound_to 10752
  153.4166  135.7022  153.6328 H   0  0  0  0  0  0  0  0  0  0  0  0  # atno 10764 bound_to 10752
  153.5008  135.3728  155.2509 H   0  0  0  0  0  0  0  0  0  0  0  0  # atno 10765 bound_to 10752
  140.8339  134.2484  157.4843 H   0  0  0  0  0  0  0  0  0  0  0  0  # atno 11005 bound_to 11000
  145.1266  140.9494  143.4569 LP  0  0  0  0  0  0  0  0  0  0  0  0  # atno 17320 bound_to 7965
  145.0428  139.3245  143.5968 LP  0  0  0  0  0  0  0  0  0  0  0  0  # atno 17321 bound_to 7965
  139.8055  143.8024  152.3167 LP  0  0  0  0  0  0  0  0  0  0  0  0  # atno 17342 bound_to 10162
  139.8055  144.7357  150.9767 LP  0  0  0  0  0  0  0  0  0  0  0  0  # atno 17343 bound_to 10162
  157.4480  130.7582  149.7127 LP  0  0  0  0  0  0  0  0  0  0  0  0  # atno 17370 bound_to 10713
  155.9829  130.4005  150.3389 LP  0  0  0  0  0  0  0  0  0  0  0  0  # atno 17371 bound_to 10713
  139.8704  134.9600  156.4351 LP  0  0  0  0  0  0  0  0  0  0  0  0  # atno 17394 bound_to 11000
  140.8969  133.7808  155.9635 LP  0  0  0  0  0  0  0  0  0  0  0  0  # atno 17395 bound_to 11000

$$$$
