AV-unprocessed.smi:33|AV-procd|sdf|206|dock4
  -GOLD-   2262015493D 1   1.00000     0.00000
 Structure written by MMmdl.
 67 72  0  0  0  0  0  0  0  0  1 V2000
  153.4783  140.4377  160.8265 O   0  0  0  0  0  0  0  0  0  0  0  0
  152.8686  141.1024  159.9860 C   0  0  0  0  0  0  0  0  0  0  0  0
  152.5372  140.6379  158.7651 O   0  0  0  0  0  0  0  0  0  0  0  0
  152.9342  139.3357  158.3659 C   0  0  0  0  0  0  0  0  0  0  0  0
  151.7379  138.6040  157.7469 C   0  0  1  0  0  0  0  0  0  0  0  0
  150.6465  138.5842  158.6652 O   0  0  0  0  0  0  0  0  0  0  0  0
  149.4307  138.6093  157.9720 C   0  0  2  0  0  0  0  0  0  0  0  0
  148.6261  137.3939  158.3238 N   0  0  0  0  0  0  0  0  0  0  0  0
  149.0659  136.2739  158.9944 C   0  0  0  0  0  0  0  0  0  0  0  0
  148.1680  135.3468  159.1902 N   0  0  0  0  0  0  0  0  0  0  0  0
  147.0195  135.8665  158.6089 C   0  0  0  0  0  0  0  0  0  0  0  0
  145.6869  135.3950  158.4648 C   0  0  0  0  0  0  0  0  0  0  0  0
  145.2743  134.2003  158.9487 N   0  0  0  0  0  0  0  0  0  0  0  0
  144.4552  133.3663  158.0569 C   0  0  0  0  0  0  0  0  0  0  0  0
  144.5450  133.5103  156.8361 O   0  0  0  0  0  0  0  0  0  0  0  0
  143.5447  132.3134  158.6219 C   0  0  0  0  0  0  0  0  0  0  0  0
  143.1078  131.2455  157.8078 C   0  0  0  0  0  0  0  0  0  0  0  0
  142.2431  130.2635  158.3288 C   0  0  0  0  0  0  0  0  0  0  0  0
  141.7943  130.3539  159.6603 C   0  0  0  0  0  0  0  0  0  0  0  0
  142.2029  131.4319  160.4685 C   0  0  0  0  0  0  0  0  0  0  0  0
  143.0687  132.4133  159.9489 C   0  0  0  0  0  0  0  0  0  0  0  0
  145.6848  133.8475  160.3157 C   0  0  0  0  0  0  0  0  0  0  0  0
  145.7505  132.6608  160.6426 O   0  0  0  0  0  0  0  0  0  0  0  0
  146.0792  134.9168  161.2950 C   0  0  0  0  0  0  0  0  0  0  0  0
  147.1406  134.6901  162.1984 C   0  0  0  0  0  0  0  0  0  0  0  0
  147.5077  135.6834  163.1268 C   0  0  0  0  0  0  0  0  0  0  0  0
  146.8035  136.9016  163.1714 C   0  0  0  0  0  0  0  0  0  0  0  0
  145.7260  137.1232  162.2928 C   0  0  0  0  0  0  0  0  0  0  0  0
  145.3590  136.1310  161.3631 C   0  0  0  0  0  0  0  0  0  0  0  0
  144.7956  136.1878  157.8160 N   0  0  0  0  0  0  0  0  0  0  0  0
  145.1870  137.3732  157.3405 C   0  0  0  0  0  0  0  0  0  0  0  0
  146.3930  137.9416  157.4055 N   0  0  0  0  0  0  0  0  0  0  0  0
  147.2935  137.1471  158.0543 C   0  0  0  0  0  0  0  0  0  0  0  0
  149.7459  138.7151  156.4661 C   0  0  2  0  0  0  0  0  0  0  0  0
  149.7083  137.4708  155.7866 O   0  0  0  0  0  0  0  0  0  0  0  0
  151.1493  139.2885  156.5155 C   0  0  2  0  0  0  0  0  0  0  0  0
  151.8407  139.0845  155.3928 F   0  0  0  0  0  0  0  0  0  0  0  0
  152.4170  142.5053  160.2160 C   0  0  0  0  0  0  0  0  0  0  0  0
  152.2102  143.3576  159.1060 C   0  0  0  0  0  0  0  0  0  0  0  0
  151.7837  144.6872  159.2916 C   0  0  0  0  0  0  0  0  0  0  0  0
  151.5582  145.1807  160.5898 C   0  0  0  0  0  0  0  0  0  0  0  0
  151.7603  144.3432  161.7023 C   0  0  0  0  0  0  0  0  0  0  0  0
  152.1867  143.0131  161.5186 C   0  0  0  0  0  0  0  0  0  0  0  0
  153.7392  139.4196  157.6350 H   0  0  0  0  0  0  0  0  0  0  0  0
  153.3207  138.7718  159.2162 H   0  0  0  0  0  0  0  0  0  0  0  0
  152.0077  137.5741  157.5094 H   0  0  0  0  0  0  0  0  0  0  0  0
  148.8372  139.4482  158.3379 H   0  0  0  0  0  0  0  0  0  0  0  0
  150.0832  136.1666  159.3419 H   0  0  0  0  0  0  0  0  0  0  0  0
  143.4463  131.1664  156.7847 H   0  0  0  0  0  0  0  0  0  0  0  0
  141.9233  129.4410  157.7062 H   0  0  0  0  0  0  0  0  0  0  0  0
  141.1313  129.6005  160.0592 H   0  0  0  0  0  0  0  0  0  0  0  0
  141.8515  131.5072  161.4870 H   0  0  0  0  0  0  0  0  0  0  0  0
  143.3720  133.2390  160.5766 H   0  0  0  0  0  0  0  0  0  0  0  0
  147.6882  133.7589  162.1732 H   0  0  0  0  0  0  0  0  0  0  0  0
  148.3293  135.5099  163.8058 H   0  0  0  0  0  0  0  0  0  0  0  0
  147.0852  137.6628  163.8839 H   0  0  0  0  0  0  0  0  0  0  0  0
  145.1797  138.0538  162.3321 H   0  0  0  0  0  0  0  0  0  0  0  0
  144.5275  136.3107  160.6970 H   0  0  0  0  0  0  0  0  0  0  0  0
  144.4251  137.9499  156.8374 H   0  0  0  0  0  0  0  0  0  0  0  0
  149.0410  139.3954  155.9873 H   0  0  0  0  0  0  0  0  0  0  0  0
  149.9123  136.7851  156.4042 H   0  0  0  0  0  0  0  0  0  0  0  0
  151.1022  140.3671  156.6724 H   0  0  0  0  0  0  0  0  0  0  0  0
  152.3777  143.0015  158.0996 H   0  0  0  0  0  0  0  0  0  0  0  0
  151.6289  145.3285  158.4364 H   0  0  0  0  0  0  0  0  0  0  0  0
  151.2306  146.1999  160.7321 H   0  0  0  0  0  0  0  0  0  0  0  0
  151.5869  144.7205  162.6993 H   0  0  0  0  0  0  0  0  0  0  0  0
  152.3308  142.3971  162.3943 H   0  0  0  0  0  0  0  0  0  0  0  0
  1  2  2  0  0  0  0
  2  3  1  0  0  0  0
  2 38  1  0  0  0  0
  3  4  1  0  0  0  0
  4  5  1  0  0  0  0
  4 44  1  0  0  0  0
  4 45  1  0  0  0  0
  5 36  1  0  0  0  0
  5  6  1  0  0  0  0
  5 46  1  0  0  0  0
  6  7  1  0  0  0  0
  7  8  1  0  0  0  0
  7 34  1  0  0  0  0
  7 47  1  0  0  0  0
  8 33  1  0  0  0  0
  8  9  1  0  0  0  0
  9 10  2  0  0  0  0
  9 48  1  0  0  0  0
 10 11  1  0  0  0  0
 11 33  2  0  0  0  0
 11 12  1  0  0  0  0
 12 13  1  0  0  0  0
 12 30  2  0  0  0  0
 13 14  1  0  0  0  0
 13 22  1  0  0  0  0
 14 15  2  0  0  0  0
 14 16  1  0  0  0  0
 16 21  1  0  0  0  0
 16 17  2  0  0  0  0
 17 18  1  0  0  0  0
 17 49  1  0  0  0  0
 18 19  2  0  0  0  0
 18 50  1  0  0  0  0
 19 20  1  0  0  0  0
 19 51  1  0  0  0  0
 20 21  2  0  0  0  0
 20 52  1  0  0  0  0
 21 53  1  0  0  0  0
 22 23  2  0  0  0  0
 22 24  1  0  0  0  0
 24 29  1  0  0  0  0
 24 25  2  0  0  0  0
 25 26  1  0  0  0  0
 25 54  1  0  0  0  0
 26 27  2  0  0  0  0
 26 55  1  0  0  0  0
 27 28  1  0  0  0  0
 27 56  1  0  0  0  0
 28 29  2  0  0  0  0
 28 57  1  0  0  0  0
 29 58  1  0  0  0  0
 30 31  1  0  0  0  0
 31 32  2  0  0  0  0
 31 59  1  0  0  0  0
 32 33  1  0  0  0  0
 34 35  1  0  0  0  0
 34 36  1  0  0  0  0
 34 60  1  0  0  0  0
 35 61  1  0  0  0  0
 36 37  1  0  0  0  0
 36 62  1  0  0  0  0
 38 43  1  0  0  0  0
 38 39  2  0  0  0  0
 39 40  1  0  0  0  0
 39 63  1  0  0  0  0
 40 41  2  0  0  0  0
 40 64  1  0  0  0  0
 41 42  1  0  0  0  0
 41 65  1  0  0  0  0
 42 43  2  0  0  0  0
 42 66  1  0  0  0  0
 43 67  1  0  0  0  0
M  END
> <s_m_source_file>
AV-unprocessed.smi

> <i_m_source_file_index>
33

> <i_lp_mmshare_version>
43012

> <i_f3d_flags>
0

> <s_epik_input>
W2NIXTFbY0hdW2NIXVtjSF1bY0hdYzFDKD1PKU9bQ0gyXVtDQEBIXTJPW0NASF0oW0NAQEhdKFtPSF0pW0NAQEhdMkYpbihbY0hdbjMpYyhjMzQpbltjSF1uYzROKEMoPU8pYzVbY0hdW2NIXVtjSF1bY0hdW2NIXTUpQyg9TyljNltjSF1bY0hdW2NIXVtjSF1bY0hdNg==

> <s_epik_cmdline>
J2VwaWtfcHl0aG9uJywgJy1waCcsICc3LjAnLCAnLXRuJywgJzgnLCAnLW1hJywgJzIwMCcsICctbWV0YWxfYmluZGluZycsICctaW1hZScsICc8aW5maWxlLm1hZT4nLCAnLW9tYWUnLCAnPG91dGZpbGUubWFlPic=

> <r_lp_tautomer_probability>
1

> <r_epik_Ionization_Penalty>
0.00067664

> <r_epik_Ionization_Penalty_Charging>
0

> <r_epik_Ionization_Penalty_Neutral>
0.00067664

> <r_epik_State_Penalty>
0.000428095

> <r_epik_Charging_Adjusted_Penalty>
0.000428095

> <i_epik_Tot_Q>
0

> <i_epik_Tot_abs_Q>
0

> <r_epik_Metal_State_Penalty>
-0

> <b_epik_Metal_Only>
0

> <s_epik_Chemistry_Notes>
This compound has an ester and may undergo hydrolysis at high or low pH. This compound contains an acetal/aminal-like group ( X-CH(R)-Y where X, Y are N, S, or O) that may be acid/base labile, releasing an aldehyde.

> <s_lp_Force_Field>
OPLS_2005

> <r_lp_Energy>
78.7548

> <b_lp_Chiralities_Consistent>
1

> <s_lp_Variant>
AV-unprocessed.smi:33-8

> <Gold.Version>
5.8.1

> <Gold.Id.Protein>
6NUR|6NUR_protein|mol2

> <Gold.PLP.Fitness>
63.8244

> <Gold.PLP.PLP>
-64.9443

> <Gold.PLP.part.hbond>
-0.2710

> <Gold.PLP.part.metal>
0.0000

> <Gold.PLP.part.buried>
-7.1428

> <Gold.PLP.part.nonpolar>
-57.0683

> <Gold.PLP.part.repulsive>
0.1069

> <Gold.PLP.ligand.clash>
0.0000

> <Gold.PLP.ligand.torsion>
2.8756

> <Gold.PLP.Chemscore.Hbond>
0.0000

> <Gold.PLP.Chemscore.CHOScore>
0.0000

> <Gold.PLP.Chemscore.Metal>
0.0000

> <Gold.PLP.Chemscore.Internal.Correction>
4.6314

> <Gold.Rescore>
     Score         DG    S(hbond)    S(metal)    S(lipo)     H(rot)  DE(clash)    DE(int)     intcor
     10.19     -17.77       0.00        0.00     160.30       2.52       0.10       7.48       ----

> <Gold.Chemscore.Fitness>
10.1862

> <Gold.Chemscore.DG>
-17.7723

> <Gold.Chemscore.ZeroCoef>
-5.4800

> <Gold.Chemscore.Hbond>
0.0000

> <Gold.Chemscore.Metal>
0.0000

> <Gold.Chemscore.Lipo>
160.3040

> <Gold.Chemscore.Internal_Hbond>
0.0000

> <Gold.Chemscore.DEClash>
0.1033

> <Gold.Chemscore.DEInternal>
7.4827

> <Gold.Chemscore.Rot>
2.5247

> <Gold.Chemscore.Internal.Correction>
   9.000000E+99

> <Gold.Chemscore.Hbond.Weighted>
-0.0000

> <Gold.Chemscore.Metal.Weighted>
-0.0000

> <Gold.Chemscore.Lipo.Weighted>
-18.7556

> <Gold.Chemscore.Internal_Hbond.Weighted>
0.0000

> <Gold.Chemscore.DEClash.Weighted>
0.1033

> <Gold.Chemscore.DEInternal.Weighted>
7.4827

> <Gold.Chemscore.Rot.Weighted>
6.4633

> <Gold.Chemscore.Internal.Correction.Weighted>
   9.000000E+99

> <Gold.Protein.RotatedTorsions>
[ 6907 6896 6895 6894 ] final   91.01 input  -60.11 | X-H torsion
[ 7974 7965 7964 7962 ] final  -69.00 input  175.53 | X-H torsion
[ 8008 7997 7996 7995 ] final  -88.70 input   59.86 | X-H torsion
[ 10167 10162 10161 10158 ] final  -96.40 input  -65.29 | X-H torsion
[ 10718 10713 10712 10709 ] final   16.93 input   66.30 | X-H torsion
[ 10763 10752 10751 10750 ] final  163.51 input  -60.55 | X-H torsion
[ 11005 11000 10999 10996 ] final -169.44 input  -57.11 | X-H torsion

> <Gold.Protein.ActiveResidues>
 VAL166  LYS551  ARG553  GLY616  TRP617  ASP618  TYR619  PRO620  LYS621  CYS622 
 ASP623  PHE694  ASN695  SER759  ASP760  ASP761  ALA762  ILE779  LEU786  VAL792 
 PHE793  MET794  SER795  GLU796  ALA797  LYS798  CYS799  TRP800  GLU811  SER814 

> <Gold.Protein.RotatedAtoms>
  152.5448  134.1723  159.8601 H   0  0  0  0  0  0  0  0  0  0  0  0  # atno 6907 bound_to 6896
  151.1732  133.4764  159.2601 H   0  0  0  0  0  0  0  0  0  0  0  0  # atno 6908 bound_to 6896
  151.1253  135.0113  159.8613 H   0  0  0  0  0  0  0  0  0  0  0  0  # atno 6909 bound_to 6896
  145.7093  140.9085  143.0689 H   0  0  0  0  0  0  0  0  0  0  0  0  # atno 7974 bound_to 7965
  154.6779  140.0550  157.0235 H   0  0  0  0  0  0  0  0  0  0  0  0  # atno 8008 bound_to 7997
  155.0994  140.3227  155.4532 H   0  0  0  0  0  0  0  0  0  0  0  0  # atno 8009 bound_to 7997
  156.2683  140.2034  156.6120 H   0  0  0  0  0  0  0  0  0  0  0  0  # atno 8010 bound_to 7997
  140.2942  143.3202  152.0315 H   0  0  0  0  0  0  0  0  0  0  0  0  # atno 10167 bound_to 10162
  157.0749  130.6363  149.5813 H   0  0  0  0  0  0  0  0  0  0  0  0  # atno 10718 bound_to 10713
  154.2948  135.2760  155.2638 H   0  0  0  0  0  0  0  0  0  0  0  0  # atno 10763 bound_to 10752
  154.5101  135.5785  153.6601 H   0  0  0  0  0  0  0  0  0  0  0  0  # atno 10764 bound_to 10752
  152.9909  135.6179  154.3115 H   0  0  0  0  0  0  0  0  0  0  0  0  # atno 10765 bound_to 10752
  140.5307  134.5619  157.5074 H   0  0  0  0  0  0  0  0  0  0  0  0  # atno 11005 bound_to 11000
  144.6946  139.9053  143.7460 LP  0  0  0  0  0  0  0  0  0  0  0  0  # atno 17320 bound_to 7965
  146.0727  139.3715  143.0513 LP  0  0  0  0  0  0  0  0  0  0  0  0  # atno 17321 bound_to 7965
  139.4930  144.6503  151.6690 LP  0  0  0  0  0  0  0  0  0  0  0  0  # atno 17342 bound_to 10162
  140.5706  144.0115  150.6215 LP  0  0  0  0  0  0  0  0  0  0  0  0  # atno 17343 bound_to 10162
  155.9940  130.5002  150.7402 LP  0  0  0  0  0  0  0  0  0  0  0  0  # atno 17370 bound_to 10713
  157.4848  131.0905  151.0495 LP  0  0  0  0  0  0  0  0  0  0  0  0  # atno 17371 bound_to 10713
  139.9555  134.7542  156.0350 LP  0  0  0  0  0  0  0  0  0  0  0  0  # atno 17394 bound_to 11000
  141.1283  133.6593  156.3395 LP  0  0  0  0  0  0  0  0  0  0  0  0  # atno 17395 bound_to 11000

$$$$
