AV-unprocessed.smi:1535|AV-procd|sdf|6180|dock4
  -GOLD-   22720 6333D 1   1.00000     0.00000
 Structure written by MMmdl.
 47 48  0  0  0  0  0  0  0  0  2 V2000
  152.6112  143.4077  160.5261 C   0  0  0  0  0  0  0  0  0  0  0  0
  152.1542  142.6183  159.3119 C   0  0  0  0  0  0  0  0  0  0  0  0
  152.8350  141.4281  158.9703 C   0  0  0  0  0  0  0  0  0  0  0  0
  152.4417  140.6652  157.8492 C   0  0  0  0  0  0  0  0  0  0  0  0
  152.9585  139.4876  157.3370 N   0  0  0  0  0  0  0  0  0  0  0  0
  152.1677  139.2804  156.2887 C   0  0  0  0  0  0  0  0  0  0  0  0
  151.2067  140.1945  156.0515 N   0  0  0  0  0  0  0  0  0  0  0  0
  150.2424  140.1903  154.9666 C   0  0  0  0  0  0  0  0  0  0  0  0
  150.0582  138.7912  154.3459 C   0  0  2  0  0  0  0  0  0  0  0  0
  149.2940  138.9347  153.1660 O   0  0  0  0  0  0  0  0  0  0  0  0
  149.3411  137.7894  155.2756 C   0  0  0  0  0  0  0  0  0  0  0  0
  149.3544  136.4158  154.7107 N   0  3  1  0  0  0  0  0  0  0  0  0
  150.7002  135.7976  154.7580 C   0  0  0  0  0  0  0  0  0  0  0  0
  148.3128  135.5313  155.2907 C   0  0  0  0  0  0  0  0  0  0  0  0
  147.9653  134.3494  154.3643 C   0  0  2  0  0  0  0  0  0  0  0  0
  146.6060  133.7356  154.7220 C   0  0  0  0  0  0  0  0  0  0  0  0
  149.0231  133.3262  154.3845 C   0  0  0  0  0  0  0  0  0  0  0  0
  149.8517  132.5199  154.3976 N   0  0  0  0  0  0  0  0  0  0  0  0
  151.3407  141.1300  157.0720 C   0  0  0  0  0  0  0  0  0  0  0  0
  150.6521  142.3099  157.4050 C   0  0  0  0  0  0  0  0  0  0  0  0
  151.0585  143.0602  158.5279 C   0  0  0  0  0  0  0  0  0  0  0  0
  150.3102  144.3344  158.8780 C   0  0  0  0  0  0  0  0  0  0  0  0
  153.4721  142.9399  161.0046 H   0  0  0  0  0  0  0  0  0  0  0  0
  151.8110  143.4694  161.2640 H   0  0  0  0  0  0  0  0  0  0  0  0
  152.8978  144.4198  160.2394 H   0  0  0  0  0  0  0  0  0  0  0  0
  153.6678  141.0895  159.5692 H   0  0  0  0  0  0  0  0  0  0  0  0
  152.3023  138.4200  155.6494 H   0  0  0  0  0  0  0  0  0  0  0  0
  149.2905  140.5642  155.3474 H   0  0  0  0  0  0  0  0  0  0  0  0
  150.5790  140.9014  154.2110 H   0  0  0  0  0  0  0  0  0  0  0  0
  151.0362  138.4026  154.0630 H   0  0  0  0  0  0  0  0  0  0  0  0
  149.2556  138.0982  152.7263 H   0  0  0  0  0  0  0  0  0  0  0  0
  149.8032  137.7617  156.2632 H   0  0  0  0  0  0  0  0  0  0  0  0
  148.3218  138.1377  155.4423 H   0  0  0  0  0  0  0  0  0  0  0  0
  151.0102  135.6150  155.7880 H   0  0  0  0  0  0  0  0  0  0  0  0
  151.4474  136.4369  154.2876 H   0  0  0  0  0  0  0  0  0  0  0  0
  150.7052  134.8452  154.2270 H   0  0  0  0  0  0  0  0  0  0  0  0
  148.6725  135.1247  156.2372 H   0  0  0  0  0  0  0  0  0  0  0  0
  147.4235  136.1183  155.5255 H   0  0  0  0  0  0  0  0  0  0  0  0
  147.9081  134.6958  153.3332 H   0  0  0  0  0  0  0  0  0  0  0  0
  146.3590  132.9158  154.0469 H   0  0  0  0  0  0  0  0  0  0  0  0
  145.8083  134.4753  154.6492 H   0  0  0  0  0  0  0  0  0  0  0  0
  146.6055  133.3404  155.7383 H   0  0  0  0  0  0  0  0  0  0  0  0
  149.8171  142.6354  156.8024 H   0  0  0  0  0  0  0  0  0  0  0  0
  149.4872  144.5158  158.1861 H   0  0  0  0  0  0  0  0  0  0  0  0
  150.9793  145.1939  158.8348 H   0  0  0  0  0  0  0  0  0  0  0  0
  149.8930  144.2695  159.8832 H   0  0  0  0  0  0  0  0  0  0  0  0
  149.1199  136.5106  153.7322 H   0  0  0  0  0  0  0  0  0  0  0  0
  1  2  1  0  0  0  0
  1 23  1  0  0  0  0
  1 24  1  0  0  0  0
  1 25  1  0  0  0  0
  2 21  1  0  0  0  0
  2  3  2  0  0  0  0
  3  4  1  0  0  0  0
  3 26  1  0  0  0  0
  4 19  2  0  0  0  0
  4  5  1  0  0  0  0
  5  6  2  0  0  0  0
  6  7  1  0  0  0  0
  6 27  1  0  0  0  0
  7  8  1  0  0  0  0
  7 19  1  0  0  0  0
  8  9  1  0  0  0  0
  8 28  1  0  0  0  0
  8 29  1  0  0  0  0
  9 10  1  0  0  0  0
  9 11  1  0  0  0  0
  9 30  1  0  0  0  0
 10 31  1  0  0  0  0
 11 12  1  0  0  0  0
 11 32  1  0  0  0  0
 11 33  1  0  0  0  0
 12 13  1  0  0  0  0
 12 14  1  0  0  0  0
 12 47  1  0  0  0  0
 13 34  1  0  0  0  0
 13 35  1  0  0  0  0
 13 36  1  0  0  0  0
 14 15  1  0  0  0  0
 14 37  1  0  0  0  0
 14 38  1  0  0  0  0
 15 16  1  0  0  0  0
 15 17  1  0  0  0  0
 15 39  1  0  0  0  0
 16 40  1  0  0  0  0
 16 41  1  0  0  0  0
 16 42  1  0  0  0  0
 17 18  3  0  0  0  0
 19 20  1  0  0  0  0
 20 21  2  0  0  0  0
 20 43  1  0  0  0  0
 21 22  1  0  0  0  0
 22 44  1  0  0  0  0
 22 45  1  0  0  0  0
 22 46  1  0  0  0  0
M  CHG  1  12   1
M  END
> <s_m_source_file>
AV-unprocessed.smi

> <i_m_source_file_index>
1535

> <i_lp_mmshare_version>
43012

> <i_f3d_flags>
0

> <s_epik_input>
W0NIM11jKFtjSF0xKWMoW0NIM10pW2NIXWMoYzEyKW4oW2NIXW4yKVtDSDJdW0NASF0oW09IXSlbQ0gyXU4oW0NIM10pW0NIMl1bQ0BIXShbQ0gzXSlDI04=

> <s_epik_cmdline>
J2VwaWtfcHl0aG9uJywgJy1waCcsICc3LjAnLCAnLXRuJywgJzgnLCAnLW1hJywgJzIwMCcsICctbWV0YWxfYmluZGluZycsICctaW1hZScsICc8aW5maWxlLm1hZT4nLCAnLW9tYWUnLCAnPG91dGZpbGUubWFlPic=

> <r_epik_Ionization_Penalty>
2.21058

> <r_epik_Ionization_Penalty_Charging>
2.12381

> <r_epik_Ionization_Penalty_Neutral>
0.0867699

> <r_epik_State_Penalty>
2.36208

> <r_epik_Charging_Adjusted_Penalty>
4.48589

> <i_epik_Tot_Q>
1

> <i_epik_Tot_abs_Q>
1

> <r_epik_Metal_State_Penalty>
2.2818

> <b_epik_Metal_Only>
0

> <s_lp_Force_Field>
OPLS_2005

> <r_lp_Energy>
13.2218

> <b_lp_Chiralities_Consistent>
1

> <s_lp_Variant>
AV-unprocessed.smi:1535-11

> <Gold.Version>
5.8.1

> <Gold.Id.Protein>
6NUR|6NUR_protein|mol2

> <Gold.PLP.Fitness>
49.8532

> <Gold.PLP.PLP>
-39.1899

> <Gold.PLP.part.hbond>
-3.3783

> <Gold.PLP.part.metal>
0.0000

> <Gold.PLP.part.buried>
-3.1244

> <Gold.PLP.part.nonpolar>
-31.5939

> <Gold.PLP.part.repulsive>
0.0724

> <Gold.PLP.ligand.clash>
0.0000

> <Gold.PLP.ligand.torsion>
0.8012

> <Gold.PLP.Chemscore.Hbond>
3.9913

> <Gold.PLP.Chemscore.CHOScore>
0.0000

> <Gold.PLP.Chemscore.Metal>
0.0000

> <Gold.Chemscore.Hbonds>
donor molecule, donor type, donor heavy atom, donor atom, acceptor molecule, acceptor atom, score
      L1  H    10    31       P1  7948  0.98
      L1  H    12    47       P1  7948  2.00
      P1  H  7997  8009       L1     5  1.00

> <Gold.PLP.Chemscore.Internal.Correction>
0.2919

> <Gold.Rescore>
     Score         DG    S(hbond)    S(metal)    S(lipo)     H(rot)  DE(clash)    DE(int)     intcor
     17.18     -17.98       2.03        0.00     105.93       2.60       0.08       0.73       ----

> <Gold.Chemscore.Fitness>
17.1751

> <Gold.Chemscore.DG>
-17.9836

> <Gold.Chemscore.ZeroCoef>
-5.4800

> <Gold.Chemscore.Hbond>
2.0280

> <Gold.Chemscore.Metal>
0.0000

> <Gold.Chemscore.Lipo>
105.9309

> <Gold.Chemscore.Internal_Hbond>
0.0000

> <Gold.Chemscore.DEClash>
0.0799

> <Gold.Chemscore.DEInternal>
0.7287

> <Gold.Chemscore.Rot>
2.6031

> <Gold.Chemscore.Internal.Correction>
   9.000000E+99

> <Gold.Chemscore.Hbonds>
donor molecule, donor type, donor heavy atom, donor atom, acceptor molecule, acceptor atom, score
      L1  H    10    31       P1  7948  0.86
      L1  H    12    47       P1  7948  0.98
      P1  H  7997  8009       L1     5  0.11

> <Gold.Chemscore.Hbond.Weighted>
-6.7737

> <Gold.Chemscore.Metal.Weighted>
-0.0000

> <Gold.Chemscore.Lipo.Weighted>
-12.3939

> <Gold.Chemscore.Internal_Hbond.Weighted>
0.0000

> <Gold.Chemscore.DEClash.Weighted>
0.0799

> <Gold.Chemscore.DEInternal.Weighted>
0.7287

> <Gold.Chemscore.Rot.Weighted>
6.6640

> <Gold.Chemscore.Internal.Correction.Weighted>
   9.000000E+99

> <Gold.Protein.RotatedTorsions>
[ 6907 6896 6895 6894 ] final -146.78 input  -60.11 | X-H torsion
[ 7974 7965 7964 7962 ] final   76.34 input  175.53 | X-H torsion
[ 8008 7997 7996 7995 ] final  179.17 input   59.86 | X-H torsion
[ 10167 10162 10161 10158 ] final -172.78 input  -65.29 | X-H torsion
[ 10718 10713 10712 10709 ] final -166.93 input   66.30 | X-H torsion
[ 10763 10752 10751 10750 ] final -105.91 input  -60.55 | X-H torsion
[ 11005 11000 10999 10996 ] final   -1.44 input  -57.11 | X-H torsion

> <Gold.Protein.ActiveResidues>
 VAL166  LYS551  ARG553  GLY616  TRP617  ASP618  TYR619  PRO620  LYS621  CYS622 
 ASP623  PHE694  ASN695  SER759  ASP760  ASP761  ALA762  ILE779  LEU786  VAL792 
 PHE793  MET794  SER795  GLU796  ALA797  LYS798  CYS799  TRP800  GLU811  SER814 

> <Gold.Protein.RotatedAtoms>
  151.1464  133.4936  159.2595 H   0  0  0  0  0  0  0  0  0  0  0  0  # atno 6907 bound_to 6896
  151.1600  135.0268  159.8716 H   0  0  0  0  0  0  0  0  0  0  0  0  # atno 6908 bound_to 6896
  152.5463  134.1339  159.8504 H   0  0  0  0  0  0  0  0  0  0  0  0  # atno 6909 bound_to 6896
  145.7040  139.2592  143.1688 H   0  0  0  0  0  0  0  0  0  0  0  0  # atno 7974 bound_to 7965
  156.0464  140.1315  157.0099 H   0  0  0  0  0  0  0  0  0  0  0  0  # atno 8008 bound_to 7997
  154.4414  140.1020  156.6382 H   0  0  0  0  0  0  0  0  0  0  0  0  # atno 8009 bound_to 7997
  155.5590  140.3464  155.4489 H   0  0  0  0  0  0  0  0  0  0  0  0  # atno 8010 bound_to 7997
  139.5725  144.1609  152.1404 H   0  0  0  0  0  0  0  0  0  0  0  0  # atno 10167 bound_to 10162
  156.6750  130.9099  151.3049 H   0  0  0  0  0  0  0  0  0  0  0  0  # atno 10718 bound_to 10713
  154.7978  135.4731  154.0203 H   0  0  0  0  0  0  0  0  0  0  0  0  # atno 10763 bound_to 10752
  153.1732  135.6828  153.8586 H   0  0  0  0  0  0  0  0  0  0  0  0  # atno 10764 bound_to 10752
  153.8162  135.3210  155.3383 H   0  0  0  0  0  0  0  0  0  0  0  0  # atno 10765 bound_to 10752
  140.6473  133.9435  155.8360 H   0  0  0  0  0  0  0  0  0  0  0  0  # atno 11005 bound_to 11000
  146.0772  140.7804  142.9659 LP  0  0  0  0  0  0  0  0  0  0  0  0  # atno 17320 bound_to 7965
  144.6960  140.3433  143.7195 LP  0  0  0  0  0  0  0  0  0  0  0  0  # atno 17321 bound_to 7965
  140.1145  144.5428  150.6903 LP  0  0  0  0  0  0  0  0  0  0  0  0  # atno 17342 bound_to 10162
  140.7009  143.2434  151.4867 LP  0  0  0  0  0  0  0  0  0  0  0  0  # atno 17343 bound_to 10162
  157.7064  130.9390  150.0944 LP  0  0  0  0  0  0  0  0  0  0  0  0  # atno 17370 bound_to 10713
  156.1910  130.3654  149.8910 LP  0  0  0  0  0  0  0  0  0  0  0  0  # atno 17371 bound_to 10713
  141.0562  134.0412  157.3719 LP  0  0  0  0  0  0  0  0  0  0  0  0  # atno 17394 bound_to 11000
  139.9058  135.0179  156.7479 LP  0  0  0  0  0  0  0  0  0  0  0  0  # atno 17395 bound_to 11000

$$$$
