AV-unprocessed.smi:793|AV-procd|sdf|3755|dock10
  -GOLD-   22720 1183D 1   1.00000     0.00000
 Structure written by MMmdl.
 38 39  0  0  0  0  0  0  0  0  2 V2000
  151.6022  138.1256  158.7311 C   0  0  0  0  0  0  0  0  0  0  0  0
  150.1845  138.6523  158.4750 C   0  0  0  0  0  0  0  0  0  0  0  0
  149.3538  137.7129  157.5802 C   0  0  1  0  0  0  0  0  0  0  0  0
  150.1242  137.4335  156.4120 O   0  0  0  0  0  0  0  0  0  0  0  0
  150.1380  138.4446  155.4065 C   0  0  0  0  0  0  0  0  0  0  0  0
  150.6453  137.8590  154.0844 C   0  0  0  0  0  0  0  0  0  0  0  0
  152.1758  137.8500  154.1936 C   0  0  0  0  0  0  0  0  0  0  0  0
  152.5363  138.8130  155.3349 C   0  0  0  0  0  0  0  0  0  0  0  0
  151.2197  139.4587  155.7769 C   0  0  0  0  0  0  0  0  0  0  0  0
  148.9949  136.4068  158.3094 C   0  0  0  0  0  0  0  0  0  0  0  0
  149.3152  135.3254  157.8156 O   0  0  0  0  0  0  0  0  0  0  0  0
  148.3372  136.5537  159.4740 N   0  0  0  0  0  0  0  0  0  0  0  0
  147.8726  135.5563  160.3762 C   0  0  0  0  0  0  0  0  0  0  0  0
  147.4688  134.2579  159.9749 C   0  0  0  0  0  0  0  0  0  0  0  0
  147.0143  133.3184  160.8322 N   0  0  0  0  0  0  0  0  0  0  0  0
  146.9361  133.6411  162.1400 C   0  0  0  0  0  0  0  0  0  0  0  0
  147.2925  134.9052  162.6472 C   0  0  0  0  0  0  0  0  0  0  0  0
  147.7643  135.8820  161.7492 C   0  0  0  0  0  0  0  0  0  0  0  0
  148.1095  137.1189  162.2199 O   0  5  0  0  0  0  0  0  0  0  0  0
  152.1640  138.8142  159.3624 H   0  0  0  0  0  0  0  0  0  0  0  0
  152.1518  138.0064  157.7972 H   0  0  0  0  0  0  0  0  0  0  0  0
  151.5797  137.1579  159.2329 H   0  0  0  0  0  0  0  0  0  0  0  0
  149.6790  138.8017  159.4301 H   0  0  0  0  0  0  0  0  0  0  0  0
  150.2576  139.6362  158.0092 H   0  0  0  0  0  0  0  0  0  0  0  0
  148.4372  138.2332  157.2941 H   0  0  0  0  0  0  0  0  0  0  0  0
  149.1677  138.9328  155.2989 H   0  0  0  0  0  0  0  0  0  0  0  0
  150.2377  136.8715  153.8678 H   0  0  0  0  0  0  0  0  0  0  0  0
  150.3488  138.5166  153.2663 H   0  0  0  0  0  0  0  0  0  0  0  0
  152.5353  136.8469  154.4264 H   0  0  0  0  0  0  0  0  0  0  0  0
  152.6357  138.1503  153.2516 H   0  0  0  0  0  0  0  0  0  0  0  0
  152.9661  138.2499  156.1643 H   0  0  0  0  0  0  0  0  0  0  0  0
  153.2713  139.5588  155.0308 H   0  0  0  0  0  0  0  0  0  0  0  0
  151.0603  140.3788  155.2131 H   0  0  0  0  0  0  0  0  0  0  0  0
  151.2110  139.7171  156.8364 H   0  0  0  0  0  0  0  0  0  0  0  0
  148.2113  137.5029  159.7951 H   0  0  0  0  0  0  0  0  0  0  0  0
  147.4818  133.9491  158.9416 H   0  0  0  0  0  0  0  0  0  0  0  0
  146.5716  132.8701  162.8025 H   0  0  0  0  0  0  0  0  0  0  0  0
  147.2041  135.1180  163.7025 H   0  0  0  0  0  0  0  0  0  0  0  0
  1  2  1  0  0  0  0
  1 20  1  0  0  0  0
  1 21  1  0  0  0  0
  1 22  1  0  0  0  0
  2  3  1  0  0  0  0
  2 23  1  0  0  0  0
  2 24  1  0  0  0  0
  3  4  1  0  0  0  0
  3 10  1  0  0  0  0
  3 25  1  0  0  0  0
  4  5  1  0  0  0  0
  5  9  1  0  0  0  0
  5  6  1  0  0  0  0
  5 26  1  0  0  0  0
  6  7  1  0  0  0  0
  6 27  1  0  0  0  0
  6 28  1  0  0  0  0
  7  8  1  0  0  0  0
  7 29  1  0  0  0  0
  7 30  1  0  0  0  0
  8  9  1  0  0  0  0
  8 31  1  0  0  0  0
  8 32  1  0  0  0  0
  9 33  1  0  0  0  0
  9 34  1  0  0  0  0
 10 11  2  0  0  0  0
 10 12  1  0  0  0  0
 12 35  1  0  0  0  0
 12 13  1  0  0  0  0
 13 18  1  0  0  0  0
 13 14  2  0  0  0  0
 14 36  1  0  0  0  0
 14 15  1  0  0  0  0
 15 16  2  0  0  0  0
 16 37  1  0  0  0  0
 16 17  1  0  0  0  0
 17 18  2  0  0  0  0
 17 38  1  0  0  0  0
 18 19  1  0  0  0  0
M  CHG  1  19  -1
M  END
> <s_m_source_file>
AV-unprocessed.smi

> <i_m_source_file_index>
793

> <i_lp_mmshare_version>
43012

> <i_f3d_flags>
0

> <s_epik_input>
W0NIMl0xW0NIMl1bQ0gyXVtDSDJdW0NIXTFPW0NAQEhdKFtDSDJdW0NIM10pQyg9TylbTkhdYzJbY0hdbltjSF1bY0hdYzJbT0hd

> <s_epik_cmdline>
J2VwaWtfcHl0aG9uJywgJy1waCcsICc3LjAnLCAnLXRuJywgJzgnLCAnLW1hJywgJzIwMCcsICctbWV0YWxfYmluZGluZycsICctaW1hZScsICc8aW5maWxlLm1hZT4nLCAnLW9tYWUnLCAnPG91dGZpbGUubWFlPic=

> <r_lp_tautomer_probability>
1

> <r_epik_Ionization_Penalty>
5.91611

> <r_epik_Ionization_Penalty_Charging>
1.01889

> <r_epik_Ionization_Penalty_Neutral>
4.89722

> <r_epik_State_Penalty>
4.89706

> <r_epik_Charging_Adjusted_Penalty>
5.91595

> <i_epik_Tot_Q>
-1

> <i_epik_Tot_abs_Q>
1

> <r_epik_Metal_State_Penalty>
1.05012

> <b_epik_Metal_Only>
1

> <s_lp_Force_Field>
OPLS_2005

> <r_lp_Energy>
29.623

> <b_lp_Chiralities_Consistent>
1

> <s_lp_Variant>
AV-unprocessed.smi:793-4

> <Gold.Version>
5.8.1

> <Gold.Id.Protein>
6NUR|6NUR_protein|mol2

> <Gold.PLP.Fitness>
45.5441

> <Gold.PLP.PLP>
-34.0892

> <Gold.PLP.part.hbond>
-3.0000

> <Gold.PLP.part.metal>
0.0000

> <Gold.PLP.part.buried>
-4.9816

> <Gold.PLP.part.nonpolar>
-27.8907

> <Gold.PLP.part.repulsive>
0.1574

> <Gold.PLP.ligand.clash>
0.0000

> <Gold.PLP.ligand.torsion>
0.6374

> <Gold.PLP.Chemscore.Hbond>
4.2240

> <Gold.PLP.Chemscore.CHOScore>
0.0000

> <Gold.PLP.Chemscore.Metal>
0.0000

> <Gold.Chemscore.Hbonds>
donor molecule, donor type, donor heavy atom, donor atom, acceptor molecule, acceptor atom, score
      P1  H  6896  6908       L1    11  0.18
      P1  H  6931  6943       L1    19  1.76

> <Gold.PLP.Chemscore.Internal.Correction>
0.0577

> <Gold.Rescore>
     Score         DG    S(hbond)    S(metal)    S(lipo)     H(rot)  DE(clash)    DE(int)     intcor
     18.46     -19.29       2.47        0.00      80.36       1.49       0.00       0.83       ----

> <Gold.Chemscore.Fitness>
18.4599

> <Gold.Chemscore.DG>
-19.2935

> <Gold.Chemscore.ZeroCoef>
-5.4800

> <Gold.Chemscore.Hbond>
2.4652

> <Gold.Chemscore.Metal>
0.0000

> <Gold.Chemscore.Lipo>
80.3608

> <Gold.Chemscore.Internal_Hbond>
0.0000

> <Gold.Chemscore.DEClash>
0.0015

> <Gold.Chemscore.DEInternal>
0.8321

> <Gold.Chemscore.Rot>
1.4932

> <Gold.Chemscore.Internal.Correction>
   9.000000E+99

> <Gold.Chemscore.Hbonds>
donor molecule, donor type, donor heavy atom, donor atom, acceptor molecule, acceptor atom, score
      P1  H  6896  6908       L1    11  0.03
      P1  H  6931  6943       L1    19  0.84
      P1  H  6934  6947       L1    19  0.02

> <Gold.Chemscore.Hbond.Weighted>
-8.2339

> <Gold.Chemscore.Metal.Weighted>
-0.0000

> <Gold.Chemscore.Lipo.Weighted>
-9.4022

> <Gold.Chemscore.Internal_Hbond.Weighted>
0.0000

> <Gold.Chemscore.DEClash.Weighted>
0.0015

> <Gold.Chemscore.DEInternal.Weighted>
0.8321

> <Gold.Chemscore.Rot.Weighted>
3.8226

> <Gold.Chemscore.Internal.Correction.Weighted>
   9.000000E+99

> <Gold.Protein.RotatedTorsions>
[ 6907 6896 6895 6894 ] final  174.87 input  -60.11 | X-H torsion
[ 7974 7965 7964 7962 ] final -139.77 input  175.53 | X-H torsion
[ 8008 7997 7996 7995 ] final  149.93 input   59.86 | X-H torsion
[ 10167 10162 10161 10158 ] final  142.99 input  -65.29 | X-H torsion
[ 10718 10713 10712 10709 ] final  164.41 input   66.30 | X-H torsion
[ 10763 10752 10751 10750 ] final   98.17 input  -60.55 | X-H torsion
[ 11005 11000 10999 10996 ] final  171.66 input  -57.11 | X-H torsion

> <Gold.Protein.ActiveResidues>
 VAL166  LYS551  ARG553  GLY616  TRP617  ASP618  TYR619  PRO620  LYS621  CYS622 
 ASP623  PHE694  ASN695  SER759  ASP760  ASP761  ALA762  ILE779  LEU786  VAL792 
 PHE793  MET794  SER795  GLU796  ALA797  LYS798  CYS799  TRP800  GLU811  SER814 

> <Gold.Protein.RotatedAtoms>
  151.7454  133.3324  159.3376 H   0  0  0  0  0  0  0  0  0  0  0  0  # atno 6907 bound_to 6896
  150.7556  134.6240  159.6160 H   0  0  0  0  0  0  0  0  0  0  0  0  # atno 6908 bound_to 6896
  152.3503  134.7016  160.0290 H   0  0  0  0  0  0  0  0  0  0  0  0  # atno 6909 bound_to 6896
  144.8650  140.6279  143.5304 H   0  0  0  0  0  0  0  0  0  0  0  0  # atno 7974 bound_to 7965
  156.2736  140.2088  156.5937 H   0  0  0  0  0  0  0  0  0  0  0  0  # atno 8008 bound_to 7997
  154.6962  140.0525  157.0436 H   0  0  0  0  0  0  0  0  0  0  0  0  # atno 8009 bound_to 7997
  155.0798  140.3185  155.4608 H   0  0  0  0  0  0  0  0  0  0  0  0  # atno 8010 bound_to 7997
  139.4980  144.6070  151.6356 H   0  0  0  0  0  0  0  0  0  0  0  0  # atno 10167 bound_to 10162
  157.0947  131.0427  151.2523 H   0  0  0  0  0  0  0  0  0  0  0  0  # atno 10718 bound_to 10713
  153.2858  135.4157  155.1121 H   0  0  0  0  0  0  0  0  0  0  0  0  # atno 10763 bound_to 10752
  154.8504  135.3506  154.6049 H   0  0  0  0  0  0  0  0  0  0  0  0  # atno 10764 bound_to 10752
  153.6471  135.7054  153.5279 H   0  0  0  0  0  0  0  0  0  0  0  0  # atno 10765 bound_to 10752
  140.3214  134.7434  157.4067 H   0  0  0  0  0  0  0  0  0  0  0  0  # atno 11005 bound_to 11000
  145.4239  139.1559  143.4059 LP  0  0  0  0  0  0  0  0  0  0  0  0  # atno 17320 bound_to 7965
  146.2889  140.4351  142.8747 LP  0  0  0  0  0  0  0  0  0  0  0  0  # atno 17321 bound_to 7965
  140.5734  144.0069  150.6229 LP  0  0  0  0  0  0  0  0  0  0  0  0  # atno 17342 bound_to 10162
  140.3194  143.3146  152.0799 LP  0  0  0  0  0  0  0  0  0  0  0  0  # atno 17343 bound_to 10162
  157.4691  130.7698  149.7307 LP  0  0  0  0  0  0  0  0  0  0  0  0  # atno 17370 bound_to 10713
  155.9889  130.3956  150.3098 LP  0  0  0  0  0  0  0  0  0  0  0  0  # atno 17371 bound_to 10713
  140.0938  134.5564  155.8418 LP  0  0  0  0  0  0  0  0  0  0  0  0  # atno 17394 bound_to 11000
  141.2085  133.6675  156.6379 LP  0  0  0  0  0  0  0  0  0  0  0  0  # atno 17395 bound_to 11000

$$$$
