AV-unprocessed.smi:807|AV-procd|sdf|3802|dock4
  -GOLD-   22720 1243D 1   1.00000     0.00000
 Structure written by MMmdl.
 35 37  0  0  0  0  0  0  0  0  1 V2000
  147.1204  136.3677  154.9228 C   0  0  0  0  0  0  0  0  0  0  0  0
  148.4643  136.0096  154.4987 N   0  0  0  0  0  0  0  0  0  0  0  0
  149.3162  135.3005  155.3569 C   0  0  0  0  0  0  0  0  0  0  0  0
  149.8634  135.9183  156.4293 N   0  0  0  0  0  0  0  0  0  0  0  0
  150.6718  135.2005  157.2204 C   0  0  0  0  0  0  0  0  0  0  0  0
  151.0364  133.9134  157.1125 N   0  0  0  0  0  0  0  0  0  0  0  0
  150.4995  133.2929  156.0531 C   0  0  0  0  0  0  0  0  0  0  0  0
  150.7044  131.9715  155.6950 N   0  0  0  0  0  0  0  0  0  0  0  0
  149.9647  131.8721  154.5936 C   0  0  0  0  0  0  0  0  0  0  0  0
  149.3029  132.9735  154.1872 N   0  0  0  0  0  0  0  0  0  0  0  0
  148.4599  133.0930  153.0105 C   0  0  0  0  0  0  0  0  0  0  0  0
  147.2777  132.1029  153.0345 C   0  0  2  0  0  0  0  0  0  0  0  0
  147.7878  130.8075  152.7917 O   0  0  0  0  0  0  0  0  0  0  0  0
  146.1774  132.4870  152.0453 C   0  0  0  0  0  0  0  0  0  0  0  0
  145.9121  133.8554  151.8078 C   0  0  0  0  0  0  0  0  0  0  0  0
  144.8966  134.2471  150.9156 C   0  0  0  0  0  0  0  0  0  0  0  0
  144.1311  133.2723  150.2516 C   0  0  0  0  0  0  0  0  0  0  0  0
  144.3813  131.9076  150.4841 C   0  0  0  0  0  0  0  0  0  0  0  0
  145.3964  131.5082  151.3767 C   0  0  0  0  0  0  0  0  0  0  0  0
  145.6389  129.8145  151.6298 Cl  0  0  0  0  0  0  0  0  0  0  0  0
  149.6241  133.9441  155.1329 C   0  0  0  0  0  0  0  0  0  0  0  0
  146.6234  136.9391  154.1389 H   0  0  0  0  0  0  0  0  0  0  0  0
  147.1498  136.9806  155.8243 H   0  0  0  0  0  0  0  0  0  0  0  0
  146.5268  135.4754  155.1239 H   0  0  0  0  0  0  0  0  0  0  0  0
  148.8116  136.3619  153.6183 H   0  0  0  0  0  0  0  0  0  0  0  0
  151.0876  135.7319  158.0635 H   0  0  0  0  0  0  0  0  0  0  0  0
  149.9083  130.9446  154.0423 H   0  0  0  0  0  0  0  0  0  0  0  0
  148.1002  134.1205  152.9379 H   0  0  0  0  0  0  0  0  0  0  0  0
  149.0828  132.9233  152.1318 H   0  0  0  0  0  0  0  0  0  0  0  0
  146.8708  132.0585  154.0430 H   0  0  0  0  0  0  0  0  0  0  0  0
  148.1002  130.7688  151.9008 H   0  0  0  0  0  0  0  0  0  0  0  0
  146.4865  134.6163  152.3151 H   0  0  0  0  0  0  0  0  0  0  0  0
  144.7040  135.2958  150.7423 H   0  0  0  0  0  0  0  0  0  0  0  0
  143.3504  133.5710  149.5675 H   0  0  0  0  0  0  0  0  0  0  0  0
  143.7873  131.1621  149.9760 H   0  0  0  0  0  0  0  0  0  0  0  0
  1  2  1  0  0  0  0
  1 22  1  0  0  0  0
  1 23  1  0  0  0  0
  1 24  1  0  0  0  0
  2  3  1  0  0  0  0
  2 25  1  0  0  0  0
  3 21  1  0  0  0  0
  3  4  2  0  0  0  0
  4  5  1  0  0  0  0
  5  6  2  0  0  0  0
  5 26  1  0  0  0  0
  6  7  1  0  0  0  0
  7 21  2  0  0  0  0
  7  8  1  0  0  0  0
  8  9  2  0  0  0  0
  9 10  1  0  0  0  0
  9 27  1  0  0  0  0
 10 11  1  0  0  0  0
 10 21  1  0  0  0  0
 11 12  1  0  0  0  0
 11 28  1  0  0  0  0
 11 29  1  0  0  0  0
 12 13  1  0  0  0  0
 12 14  1  0  0  0  0
 12 30  1  0  0  0  0
 13 31  1  0  0  0  0
 14 19  1  0  0  0  0
 14 15  2  0  0  0  0
 15 16  1  0  0  0  0
 15 32  1  0  0  0  0
 16 17  2  0  0  0  0
 16 33  1  0  0  0  0
 17 18  1  0  0  0  0
 17 34  1  0  0  0  0
 18 19  2  0  0  0  0
 18 35  1  0  0  0  0
 19 20  1  0  0  0  0
M  END
> <s_m_source_file>
AV-unprocessed.smi

> <i_m_source_file_index>
807

> <i_lp_mmshare_version>
43012

> <i_f3d_flags>
0

> <s_epik_input>
bjFbY0hdbmMoW05IXVtDSDNdKWMoYzEyKW4oW2NIXW4yKVtDSDJdW0NASF0oW09IXSljM1tjSF1bY0hdW2NIXVtjSF1jM0Ns

> <s_epik_cmdline>
J2VwaWtfcHl0aG9uJywgJy1waCcsICc3LjAnLCAnLXRuJywgJzgnLCAnLW1hJywgJzIwMCcsICctbWV0YWxfYmluZGluZycsICctaW1hZScsICc8aW5maWxlLm1hZT4nLCAnLW9tYWUnLCAnPG91dGZpbGUubWFlPic=

> <r_lp_tautomer_probability>
1

> <r_epik_Ionization_Penalty>
0.00695285

> <r_epik_Ionization_Penalty_Charging>
0

> <r_epik_Ionization_Penalty_Neutral>
0.00695285

> <r_epik_State_Penalty>
-0

> <r_epik_Charging_Adjusted_Penalty>
0

> <i_epik_Tot_Q>
0

> <i_epik_Tot_abs_Q>
0

> <r_epik_Metal_State_Penalty>
-0

> <b_epik_Metal_Only>
0

> <s_lp_Force_Field>
OPLS_2005

> <r_lp_Energy>
11.3951

> <b_lp_Chiralities_Consistent>
1

> <s_lp_Variant>
AV-unprocessed.smi:807-1

> <Gold.Version>
5.8.1

> <Gold.Id.Protein>
6NUR|6NUR_protein|mol2

> <Gold.PLP.Fitness>
41.7215

> <Gold.PLP.PLP>
-37.9463

> <Gold.PLP.part.hbond>
-2.8159

> <Gold.PLP.part.metal>
0.0000

> <Gold.PLP.part.buried>
-5.9127

> <Gold.PLP.part.nonpolar>
-30.5994

> <Gold.PLP.part.repulsive>
0.0279

> <Gold.PLP.ligand.clash>
0.0000

> <Gold.PLP.ligand.torsion>
1.4902

> <Gold.PLP.Chemscore.Hbond>
2.2418

> <Gold.PLP.Chemscore.CHOScore>
0.0000

> <Gold.PLP.Chemscore.Metal>
0.0000

> <Gold.Chemscore.Hbonds>
donor molecule, donor type, donor heavy atom, donor atom, acceptor molecule, acceptor atom, score
      L1  H     2    25       P1  7948  1.00
      L1  H    13    31       P1 10747  1.00
      P1  H  6896  6909       L1     6  0.33

> <Gold.PLP.Chemscore.Internal.Correction>
0.0303

> <Gold.Rescore>
     Score         DG    S(hbond)    S(metal)    S(lipo)     H(rot)  DE(clash)    DE(int)     intcor
     11.57     -15.53       2.00        0.00      79.42       2.31       0.04       3.92       ----

> <Gold.Chemscore.Fitness>
11.5707

> <Gold.Chemscore.DG>
-15.5334

> <Gold.Chemscore.ZeroCoef>
-5.4800

> <Gold.Chemscore.Hbond>
1.9997

> <Gold.Chemscore.Metal>
0.0000

> <Gold.Chemscore.Lipo>
79.4179

> <Gold.Chemscore.Internal_Hbond>
0.0000

> <Gold.Chemscore.DEClash>
0.0444

> <Gold.Chemscore.DEInternal>
3.9183

> <Gold.Chemscore.Rot>
2.3115

> <Gold.Chemscore.Internal.Correction>
   9.000000E+99

> <Gold.Chemscore.Hbonds>
donor molecule, donor type, donor heavy atom, donor atom, acceptor molecule, acceptor atom, score
      L1  H     2    25       P1  7948  0.95
      L1  H    13    31       P1 10747  1.00
      P1  H  6896  6909       L1     6  0.07

> <Gold.Chemscore.Hbond.Weighted>
-6.6789

> <Gold.Chemscore.Metal.Weighted>
-0.0000

> <Gold.Chemscore.Lipo.Weighted>
-9.2919

> <Gold.Chemscore.Internal_Hbond.Weighted>
0.0000

> <Gold.Chemscore.DEClash.Weighted>
0.0444

> <Gold.Chemscore.DEInternal.Weighted>
3.9183

> <Gold.Chemscore.Rot.Weighted>
5.9174

> <Gold.Chemscore.Internal.Correction.Weighted>
   9.000000E+99

> <Gold.Protein.RotatedTorsions>
[ 6907 6896 6895 6894 ] final  -30.27 input  -60.11 | X-H torsion
[ 7974 7965 7964 7962 ] final  -91.37 input  175.53 | X-H torsion
[ 8008 7997 7996 7995 ] final -130.81 input   59.86 | X-H torsion
[ 10167 10162 10161 10158 ] final   76.68 input  -65.29 | X-H torsion
[ 10718 10713 10712 10709 ] final   73.41 input   66.30 | X-H torsion
[ 10763 10752 10751 10750 ] final   22.08 input  -60.55 | X-H torsion
[ 11005 11000 10999 10996 ] final  -99.71 input  -57.11 | X-H torsion

> <Gold.Protein.ActiveResidues>
 VAL166  LYS551  ARG553  GLY616  TRP617  ASP618  TYR619  PRO620  LYS621  CYS622 
 ASP623  PHE694  ASN695  SER759  ASP760  ASP761  ALA762  ILE779  LEU786  VAL792 
 PHE793  MET794  SER795  GLU796  ALA797  LYS798  CYS799  TRP800  GLU811  SER814 

> <Gold.Protein.RotatedAtoms>
  151.1079  135.0010  159.8479 H   0  0  0  0  0  0  0  0  0  0  0  0  # atno 6907 bound_to 6896
  152.5441  134.1871  159.8669 H   0  0  0  0  0  0  0  0  0  0  0  0  # atno 6908 bound_to 6896
  151.1919  133.4617  159.2628 H   0  0  0  0  0  0  0  0  0  0  0  0  # atno 6909 bound_to 6896
  145.4141  140.9547  143.2218 H   0  0  0  0  0  0  0  0  0  0  0  0  # atno 7974 bound_to 7965
  155.3019  140.0453  157.3030 H   0  0  0  0  0  0  0  0  0  0  0  0  # atno 8008 bound_to 7997
  154.5482  140.2309  155.8496 H   0  0  0  0  0  0  0  0  0  0  0  0  # atno 8009 bound_to 7997
  156.1943  140.3042  155.9402 H   0  0  0  0  0  0  0  0  0  0  0  0  # atno 8010 bound_to 7997
  139.9897  144.5766  150.7829 H   0  0  0  0  0  0  0  0  0  0  0  0  # atno 10167 bound_to 10162
  157.6546  130.9627  150.1065 H   0  0  0  0  0  0  0  0  0  0  0  0  # atno 10718 bound_to 10713
  153.0944  135.6655  153.9791 H   0  0  0  0  0  0  0  0  0  0  0  0  # atno 10763 bound_to 10752
  153.9379  135.2997  155.3445 H   0  0  0  0  0  0  0  0  0  0  0  0  # atno 10764 bound_to 10752
  154.7361  135.5101  153.9118 H   0  0  0  0  0  0  0  0  0  0  0  0  # atno 10765 bound_to 10752
  141.1298  133.8342  157.1007 H   0  0  0  0  0  0  0  0  0  0  0  0  # atno 11005 bound_to 11000
  144.8289  139.5662  143.6953 LP  0  0  0  0  0  0  0  0  0  0  0  0  # atno 17320 bound_to 7965
  146.2690  139.6589  142.9309 LP  0  0  0  0  0  0  0  0  0  0  0  0  # atno 17321 bound_to 7965
  140.7459  143.2883  151.3402 LP  0  0  0  0  0  0  0  0  0  0  0  0  # atno 17342 bound_to 10162
  139.6349  144.0649  152.2507 LP  0  0  0  0  0  0  0  0  0  0  0  0  # atno 17343 bound_to 10162
  156.1973  130.3658  149.8832 LP  0  0  0  0  0  0  0  0  0  0  0  0  # atno 17370 bound_to 10713
  156.6745  130.8833  151.3567 LP  0  0  0  0  0  0  0  0  0  0  0  0  # atno 17371 bound_to 10713
  140.0335  134.9889  157.0826 LP  0  0  0  0  0  0  0  0  0  0  0  0  # atno 17394 bound_to 11000
  140.4247  134.1843  155.7165 LP  0  0  0  0  0  0  0  0  0  0  0  0  # atno 17395 bound_to 11000

$$$$
