AV-unprocessed.smi:2149|AV-procd|sdf|8752|dock6
  -GOLD-   2272011523D 1   1.00000     0.00000
 Structure written by MMmdl.
 42 43  0  0  0  0  0  0  0  0  1 V2000
  151.3349  137.9505  157.8434 C   0  0  0  0  0  0  0  0  0  0  0  0
  151.4396  136.3260  156.9871 S   0  0  0  0  0  0  0  0  0  0  0  0
  152.8604  135.9726  156.8457 O   0  0  0  0  0  0  0  0  0  0  0  0
  150.5200  135.3952  157.6590 O   0  0  0  0  0  0  0  0  0  0  0  0
  150.8085  136.6425  155.3963 N   0  0  0  0  0  0  0  0  0  0  0  0
  151.3994  137.7111  154.5647 C   0  0  0  0  0  0  0  0  0  0  0  0
  150.5308  138.9809  154.5684 C   0  0  0  0  0  0  0  0  0  0  0  0
  149.0839  138.6646  154.1735 C   0  0  0  0  0  0  0  0  0  0  0  0
  148.5104  137.5914  155.1160 C   0  0  1  0  0  0  0  0  0  0  0  0
  147.0616  137.2476  154.7446 C   0  0  0  0  0  0  0  0  0  0  0  0
  146.1461  137.4805  155.5344 O   0  0  0  0  0  0  0  0  0  0  0  0
  146.8677  136.6908  153.5389 N   0  0  0  0  0  0  0  0  0  0  0  0
  145.5739  136.2859  153.0024 C   0  0  0  0  0  0  0  0  0  0  0  0
  145.6061  136.1857  151.4684 C   0  0  0  0  0  0  0  0  0  0  0  0
  145.4222  134.7606  150.9822 C   0  0  0  0  0  0  0  0  0  0  0  0
  144.3123  134.4094  150.1844 C   0  0  0  0  0  0  0  0  0  0  0  0
  144.1841  133.0709  149.7657 C   0  0  0  0  0  0  0  0  0  0  0  0
  145.1648  132.1401  150.1591 C   0  0  0  0  0  0  0  0  0  0  0  0
  146.2346  132.5908  150.9578 C   0  0  0  0  0  0  0  0  0  0  0  0
  146.3660  133.8716  151.3658 N   0  0  0  0  0  0  0  0  0  0  0  0
  149.3986  136.3273  155.0862 C   0  0  0  0  0  0  0  0  0  0  0  0
  151.7415  137.8483  158.8491 H   0  0  0  0  0  0  0  0  0  0  0  0
  150.2951  138.2651  157.9148 H   0  0  0  0  0  0  0  0  0  0  0  0
  151.9156  138.6944  157.3015 H   0  0  0  0  0  0  0  0  0  0  0  0
  152.4100  137.9414  154.9007 H   0  0  0  0  0  0  0  0  0  0  0  0
  151.4930  137.3384  153.5441 H   0  0  0  0  0  0  0  0  0  0  0  0
  150.5492  139.4462  155.5531 H   0  0  0  0  0  0  0  0  0  0  0  0
  150.9495  139.7139  153.8783 H   0  0  0  0  0  0  0  0  0  0  0  0
  148.4822  139.5734  154.2174 H   0  0  0  0  0  0  0  0  0  0  0  0
  149.0569  138.3196  153.1385 H   0  0  0  0  0  0  0  0  0  0  0  0
  148.5105  137.9968  156.1275 H   0  0  0  0  0  0  0  0  0  0  0  0
  147.6741  136.5346  152.9513 H   0  0  0  0  0  0  0  0  0  0  0  0
  145.2647  135.3367  153.4439 H   0  0  0  0  0  0  0  0  0  0  0  0
  144.8341  137.0254  153.3099 H   0  0  0  0  0  0  0  0  0  0  0  0
  144.8265  136.8148  151.0369 H   0  0  0  0  0  0  0  0  0  0  0  0
  146.5536  136.5672  151.0849 H   0  0  0  0  0  0  0  0  0  0  0  0
  143.5750  135.1459  149.9001 H   0  0  0  0  0  0  0  0  0  0  0  0
  143.3486  132.7639  149.1540 H   0  0  0  0  0  0  0  0  0  0  0  0
  145.0994  131.1055  149.8565 H   0  0  0  0  0  0  0  0  0  0  0  0
  147.0046  131.9047  151.2779 H   0  0  0  0  0  0  0  0  0  0  0  0
  149.3646  135.8671  154.0975 H   0  0  0  0  0  0  0  0  0  0  0  0
  149.0212  135.5788  155.7830 H   0  0  0  0  0  0  0  0  0  0  0  0
  1  2  1  0  0  0  0
  1 22  1  0  0  0  0
  1 23  1  0  0  0  0
  1 24  1  0  0  0  0
  2  3  2  0  0  0  0
  2  4  2  0  0  0  0
  2  5  1  0  0  0  0
  5 21  1  0  0  0  0
  5  6  1  0  0  0  0
  6  7  1  0  0  0  0
  6 25  1  0  0  0  0
  6 26  1  0  0  0  0
  7  8  1  0  0  0  0
  7 27  1  0  0  0  0
  7 28  1  0  0  0  0
  8  9  1  0  0  0  0
  8 29  1  0  0  0  0
  8 30  1  0  0  0  0
  9 10  1  0  0  0  0
  9 21  1  0  0  0  0
  9 31  1  0  0  0  0
 10 11  2  0  0  0  0
 10 12  1  0  0  0  0
 12 13  1  0  0  0  0
 12 32  1  0  0  0  0
 13 14  1  0  0  0  0
 13 33  1  0  0  0  0
 13 34  1  0  0  0  0
 14 15  1  0  0  0  0
 14 35  1  0  0  0  0
 14 36  1  0  0  0  0
 15 20  1  0  0  0  0
 15 16  2  0  0  0  0
 16 17  1  0  0  0  0
 16 37  1  0  0  0  0
 17 18  2  0  0  0  0
 17 38  1  0  0  0  0
 18 19  1  0  0  0  0
 18 39  1  0  0  0  0
 19 20  2  0  0  0  0
 19 40  1  0  0  0  0
 21 41  1  0  0  0  0
 21 42  1  0  0  0  0
M  END
> <s_m_source_file>
AV-unprocessed.smi

> <i_m_source_file_index>
2149

> <i_lp_mmshare_version>
43012

> <i_f3d_flags>
0

> <s_epik_input>
W0NIM11TKD1PKSg9TylOMVtDSDJdW0NIMl1bQ0gyXVtDQEhdKFtDSDJdMSlDKD1PKVtOSF1bQ0gyXVtDSDJdYzJbY0hdW2NIXVtjSF1bY0hdbjI=

> <s_epik_cmdline>
J2VwaWtfcHl0aG9uJywgJy1waCcsICc3LjAnLCAnLXRuJywgJzgnLCAnLW1hJywgJzIwMCcsICctbWV0YWxfYmluZGluZycsICctaW1hZScsICc8aW5maWxlLm1hZT4nLCAnLW9tYWUnLCAnPG91dGZpbGUubWFlPic=

> <r_epik_Ionization_Penalty>
0.0273806

> <r_epik_Ionization_Penalty_Charging>
0

> <r_epik_Ionization_Penalty_Neutral>
0.0273806

> <r_epik_State_Penalty>
0.0224071

> <r_epik_Charging_Adjusted_Penalty>
0.0224071

> <i_epik_Tot_Q>
0

> <i_epik_Tot_abs_Q>
0

> <r_epik_Metal_State_Penalty>
0.0214134

> <b_epik_Metal_Only>
0

> <s_lp_Force_Field>
OPLS_2005

> <r_lp_Energy>
-0.402048

> <b_lp_Chiralities_Consistent>
1

> <s_lp_Variant>
AV-unprocessed.smi:2149-1

> <Gold.Version>
5.8.1

> <Gold.Id.Protein>
6NUR|6NUR_protein|mol2

> <Gold.PLP.Fitness>
42.7550

> <Gold.PLP.PLP>
-33.1725

> <Gold.PLP.part.hbond>
-3.0000

> <Gold.PLP.part.metal>
0.0000

> <Gold.PLP.part.buried>
-5.0798

> <Gold.PLP.part.nonpolar>
-26.2991

> <Gold.PLP.part.repulsive>
0.1951

> <Gold.PLP.ligand.clash>
0.0000

> <Gold.PLP.ligand.torsion>
1.5884

> <Gold.PLP.Chemscore.Hbond>
2.5577

> <Gold.PLP.Chemscore.CHOScore>
1.0000

> <Gold.PLP.Chemscore.Metal>
0.0000

> <Gold.Chemscore.Hbonds>
donor molecule, donor type, donor heavy atom, donor atom, acceptor molecule, acceptor atom, score
      L1  H    12    32       P1  7948  1.00
      P1  H  6896  6909       L1     4  0.53
      P1  H 10752 10764       L1     3  1.00
      L1  C    19    40       P1 10747  1.00

> <Gold.PLP.Chemscore.Internal.Correction>
2.0862

> <Gold.Rescore>
     Score         DG    S(hbond)    S(metal)    S(lipo)     H(rot)  DE(clash)    DE(int)     intcor
     18.47     -20.13       2.63        0.00      84.47       1.56       0.04       1.63       ----

> <Gold.Chemscore.Fitness>
18.4689

> <Gold.Chemscore.DG>
-20.1307

> <Gold.Chemscore.ZeroCoef>
-5.4800

> <Gold.Chemscore.Hbond>
2.6265

> <Gold.Chemscore.Metal>
0.0000

> <Gold.Chemscore.Lipo>
84.4677

> <Gold.Chemscore.Internal_Hbond>
0.0000

> <Gold.Chemscore.DEClash>
0.0363

> <Gold.Chemscore.DEInternal>
1.6255

> <Gold.Chemscore.Rot>
1.5643

> <Gold.Chemscore.Internal.Correction>
   9.000000E+99

> <Gold.Chemscore.Hbonds>
donor molecule, donor type, donor heavy atom, donor atom, acceptor molecule, acceptor atom, score
      L1  H    12    32       P1  7948  1.00
      P1  H  6896  6909       L1     4  0.49
      P1  H 10752 10764       L1     3  0.94

> <Gold.Chemscore.Hbond.Weighted>
-8.7726

> <Gold.Chemscore.Metal.Weighted>
-0.0000

> <Gold.Chemscore.Lipo.Weighted>
-9.8827

> <Gold.Chemscore.Internal_Hbond.Weighted>
0.0000

> <Gold.Chemscore.DEClash.Weighted>
0.0363

> <Gold.Chemscore.DEInternal.Weighted>
1.6255

> <Gold.Chemscore.Rot.Weighted>
4.0046

> <Gold.Chemscore.Internal.Correction.Weighted>
   9.000000E+99

> <Gold.Protein.RotatedTorsions>
[ 6907 6896 6895 6894 ] final   45.36 input  -60.11 | X-H torsion
[ 7974 7965 7964 7962 ] final   -5.23 input  175.53 | X-H torsion
[ 8008 7997 7996 7995 ] final   28.47 input   59.86 | X-H torsion
[ 10167 10162 10161 10158 ] final  -64.84 input  -65.29 | X-H torsion
[ 10718 10713 10712 10709 ] final    1.19 input   66.30 | X-H torsion
[ 10763 10752 10751 10750 ] final  -11.37 input  -60.55 | X-H torsion
[ 11005 11000 10999 10996 ] final  -19.03 input  -57.11 | X-H torsion

> <Gold.Protein.ActiveResidues>
 VAL166  LYS551  ARG553  GLY616  TRP617  ASP618  TYR619  PRO620  LYS621  CYS622 
 ASP623  PHE694  ASN695  SER759  ASP760  ASP761  ALA762  ILE779  LEU786  VAL792 
 PHE793  MET794  SER795  GLU796  ALA797  LYS798  CYS799  TRP800  GLU811  SER814 

> <Gold.Protein.RotatedAtoms>
  152.2436  134.8204  160.0456 H   0  0  0  0  0  0  0  0  0  0  0  0  # atno 6907 bound_to 6896
  151.8910  133.3511  159.3806 H   0  0  0  0  0  0  0  0  0  0  0  0  # atno 6908 bound_to 6896
  150.7061  134.4850  159.5533 H   0  0  0  0  0  0  0  0  0  0  0  0  # atno 6909 bound_to 6896
  146.2357  140.1990  142.8333 H   0  0  0  0  0  0  0  0  0  0  0  0  # atno 7974 bound_to 7965
  155.0591  140.3188  155.4666 H   0  0  0  0  0  0  0  0  0  0  0  0  # atno 8008 bound_to 7997
  156.2817  140.2132  156.5662 H   0  0  0  0  0  0  0  0  0  0  0  0  # atno 8009 bound_to 7997
  154.7147  140.0495  157.0571 H   0  0  0  0  0  0  0  0  0  0  0  0  # atno 8010 bound_to 7997
  140.5772  143.2323  151.6417 H   0  0  0  0  0  0  0  0  0  0  0  0  # atno 10167 bound_to 10162
  156.8445  130.5532  149.5675 H   0  0  0  0  0  0  0  0  0  0  0  0  # atno 10718 bound_to 10713
  153.4828  135.7017  153.5928 H   0  0  0  0  0  0  0  0  0  0  0  0  # atno 10763 bound_to 10752
  153.4134  135.3843  155.2065 H   0  0  0  0  0  0  0  0  0  0  0  0  # atno 10764 bound_to 10752
  154.8721  135.3910  154.4280 H   0  0  0  0  0  0  0  0  0  0  0  0  # atno 10765 bound_to 10752
  140.8327  133.7985  155.9775 H   0  0  0  0  0  0  0  0  0  0  0  0  # atno 11005 bound_to 11000
  144.9797  140.8447  143.5405 LP  0  0  0  0  0  0  0  0  0  0  0  0  # atno 17320 bound_to 7965
  145.1982  139.2265  143.5207 LP  0  0  0  0  0  0  0  0  0  0  0  0  # atno 17321 bound_to 7965
  139.5149  144.3394  152.0754 LP  0  0  0  0  0  0  0  0  0  0  0  0  # atno 17342 bound_to 10162
  140.2539  144.4139  150.6211 LP  0  0  0  0  0  0  0  0  0  0  0  0  # atno 17343 bound_to 10162
  156.0862  130.5860  150.9652 LP  0  0  0  0  0  0  0  0  0  0  0  0  # atno 17370 bound_to 10713
  157.6337  131.0918  150.8391 LP  0  0  0  0  0  0  0  0  0  0  0  0  # atno 17371 bound_to 10713
  140.8981  134.2413  157.5057 LP  0  0  0  0  0  0  0  0  0  0  0  0  # atno 17394 bound_to 11000
  139.8704  134.9693  156.4662 LP  0  0  0  0  0  0  0  0  0  0  0  0  # atno 17395 bound_to 11000

$$$$
