AV-unprocessed.smi:632|AV-procd|sdf|3129|dock4
  -GOLD-   22720 0 53D 1   1.00000     0.00000
 Structure written by MMmdl.
 41 42  0  0  0  0  0  0  0  0  2 V2000
  154.3913  136.9996  164.7552 C   0  0  0  0  0  0  0  0  0  0  0  0
  154.7459  135.8467  163.7962 C   0  0  0  0  0  0  0  0  0  0  0  0
  156.2684  135.6063  163.8991 C   0  0  0  0  0  0  0  0  0  0  0  0
  154.0433  134.5447  164.2288 C   0  0  0  0  0  0  0  0  0  0  0  0
  154.3371  136.2082  162.3869 C   0  0  0  0  0  0  0  0  0  0  0  0
  154.5137  135.3701  161.3582 N   0  0  0  0  0  0  0  0  0  0  0  0
  154.0673  135.8967  160.1555 N   0  0  0  0  0  0  0  0  0  0  0  0
  153.5421  137.1223  160.2812 C   0  0  0  0  0  0  0  0  0  0  0  0
  153.0516  137.8110  159.2372 N   0  5  0  0  0  0  0  0  0  0  0  0
  153.4460  139.0874  159.0247 C   0  0  0  0  0  0  0  0  0  0  0  0
  154.6098  139.4916  158.9680 O   0  0  0  0  0  0  0  0  0  0  0  0
  152.4287  139.9467  158.8647 N   0  0  0  0  0  0  0  0  0  0  0  0
  152.5415  141.3810  158.6108 C   0  0  2  0  0  0  0  0  0  0  0  0
  152.5982  142.1615  159.9388 C   0  0  0  0  0  0  0  0  0  0  0  0
  152.6501  143.6810  159.6997 C   0  0  0  0  0  0  0  0  0  0  0  0
  151.4949  144.1746  158.8076 C   0  0  2  0  0  0  0  0  0  0  0  0
  150.2702  144.1003  159.5107 O   0  0  0  0  0  0  0  0  0  0  0  0
  151.4022  143.3658  157.4996 C   0  0  0  0  0  0  0  0  0  0  0  0
  151.3510  141.8492  157.7547 C   0  0  0  0  0  0  0  0  0  0  0  0
  153.5843  137.7366  161.9312 S   0  0  0  0  0  0  0  0  0  0  0  0
  154.6890  136.7716  165.7791 H   0  0  0  0  0  0  0  0  0  0  0  0
  153.3185  137.1954  164.7653 H   0  0  0  0  0  0  0  0  0  0  0  0
  154.8911  137.9244  164.4640 H   0  0  0  0  0  0  0  0  0  0  0  0
  156.8367  136.4969  163.6269 H   0  0  0  0  0  0  0  0  0  0  0  0
  156.5920  134.7919  163.2497 H   0  0  0  0  0  0  0  0  0  0  0  0
  156.5592  135.3402  164.9160 H   0  0  0  0  0  0  0  0  0  0  0  0
  154.3351  134.2506  165.2375 H   0  0  0  0  0  0  0  0  0  0  0  0
  154.2908  133.7198  163.5596 H   0  0  0  0  0  0  0  0  0  0  0  0
  152.9583  134.6555  164.2257 H   0  0  0  0  0  0  0  0  0  0  0  0
  151.4943  139.5690  158.9223 H   0  0  0  0  0  0  0  0  0  0  0  0
  153.4557  141.5766  158.0472 H   0  0  0  0  0  0  0  0  0  0  0  0
  151.7266  141.9175  160.5478 H   0  0  0  0  0  0  0  0  0  0  0  0
  153.4708  141.8547  160.5165 H   0  0  0  0  0  0  0  0  0  0  0  0
  152.6462  144.2108  160.6529 H   0  0  0  0  0  0  0  0  0  0  0  0
  153.5981  143.9279  159.2201 H   0  0  0  0  0  0  0  0  0  0  0  0
  151.6568  145.2255  158.5650 H   0  0  0  0  0  0  0  0  0  0  0  0
  150.4548  144.1115  160.4374 H   0  0  0  0  0  0  0  0  0  0  0  0
  150.5320  143.6787  156.9214 H   0  0  0  0  0  0  0  0  0  0  0  0
  152.2729  143.5896  156.8821 H   0  0  0  0  0  0  0  0  0  0  0  0
  151.3467  141.3192  156.8015 H   0  0  0  0  0  0  0  0  0  0  0  0
  150.4138  141.5941  158.2514 H   0  0  0  0  0  0  0  0  0  0  0  0
  1  2  1  0  0  0  0
  1 21  1  0  0  0  0
  1 22  1  0  0  0  0
  1 23  1  0  0  0  0
  2  3  1  0  0  0  0
  2  4  1  0  0  0  0
  2  5  1  0  0  0  0
  3 24  1  0  0  0  0
  3 25  1  0  0  0  0
  3 26  1  0  0  0  0
  4 27  1  0  0  0  0
  4 28  1  0  0  0  0
  4 29  1  0  0  0  0
  5 20  1  0  0  0  0
  5  6  2  0  0  0  0
  6  7  1  0  0  0  0
  7  8  2  0  0  0  0
  8  9  1  0  0  0  0
  8 20  1  0  0  0  0
  9 10  1  0  0  0  0
 10 11  2  0  0  0  0
 10 12  1  0  0  0  0
 12 13  1  0  0  0  0
 12 30  1  0  0  0  0
 13 19  1  0  0  0  0
 13 14  1  0  0  0  0
 13 31  1  0  0  0  0
 14 15  1  0  0  0  0
 14 32  1  0  0  0  0
 14 33  1  0  0  0  0
 15 16  1  0  0  0  0
 15 34  1  0  0  0  0
 15 35  1  0  0  0  0
 16 17  1  0  0  0  0
 16 18  1  0  0  0  0
 16 36  1  0  0  0  0
 17 37  1  0  0  0  0
 18 19  1  0  0  0  0
 18 38  1  0  0  0  0
 18 39  1  0  0  0  0
 19 40  1  0  0  0  0
 19 41  1  0  0  0  0
M  CHG  1   9  -1
M  END
> <s_m_source_file>
AV-unprocessed.smi

> <i_m_source_file_index>
632

> <i_lp_mmshare_version>
43012

> <i_f3d_flags>
0

> <s_epik_input>
W0NIM11DKFtDSDNdKShbQ0gzXSljMW5uYyhzMSlbTkhdQyg9TylbTkhdW0NAQEhdMltDSDJdW0NIMl1bQ0BASF0oW09IXSlbQ0gyXVtDSDJdMg==

> <s_epik_cmdline>
J2VwaWtfcHl0aG9uJywgJy1waCcsICc3LjAnLCAnLXRuJywgJzgnLCAnLW1hJywgJzIwMCcsICctbWV0YWxfYmluZGluZycsICctaW1hZScsICc8aW5maWxlLm1hZT4nLCAnLW9tYWUnLCAnPG91dGZpbGUubWFlPic=

> <r_lp_tautomer_probability>
1

> <r_epik_Ionization_Penalty>
4.62389

> <r_epik_Ionization_Penalty_Charging>
4.45204

> <r_epik_Ionization_Penalty_Neutral>
0.171842

> <r_epik_State_Penalty>
4.45172

> <r_epik_Charging_Adjusted_Penalty>
8.90376

> <i_epik_Tot_Q>
-1

> <i_epik_Tot_abs_Q>
1

> <r_epik_Metal_State_Penalty>
0.795834

> <b_epik_Metal_Only>
1

> <s_lp_Force_Field>
OPLS_2005

> <r_lp_Energy>
3.40986

> <b_lp_Chiralities_Consistent>
1

> <s_lp_Variant>
AV-unprocessed.smi:632-4

> <Gold.Version>
5.8.1

> <Gold.Id.Protein>
6NUR|6NUR_protein|mol2

> <Gold.PLP.Fitness>
39.8462

> <Gold.PLP.PLP>
-36.5295

> <Gold.PLP.part.hbond>
-2.0000

> <Gold.PLP.part.metal>
0.0000

> <Gold.PLP.part.buried>
-4.7405

> <Gold.PLP.part.nonpolar>
-30.7744

> <Gold.PLP.part.repulsive>
0.1204

> <Gold.PLP.ligand.clash>
0.0000

> <Gold.PLP.ligand.torsion>
1.2819

> <Gold.PLP.Chemscore.Hbond>
1.9500

> <Gold.PLP.Chemscore.CHOScore>
0.0000

> <Gold.PLP.Chemscore.Metal>
0.0000

> <Gold.Chemscore.Hbonds>
donor molecule, donor type, donor heavy atom, donor atom, acceptor molecule, acceptor atom, score
      P1  H  6896  6909       L1     7  0.64
      P1  H  7997  8010       L1    11  1.00

> <Gold.PLP.Chemscore.Internal.Correction>
0.0304

> <Gold.Rescore>
     Score         DG    S(hbond)    S(metal)    S(lipo)     H(rot)  DE(clash)    DE(int)     intcor
     17.69     -18.96       1.71        0.00     103.12       1.67       0.01       1.26       ----

> <Gold.Chemscore.Fitness>
17.6926

> <Gold.Chemscore.DG>
-18.9649

> <Gold.Chemscore.ZeroCoef>
-5.4800

> <Gold.Chemscore.Hbond>
1.7079

> <Gold.Chemscore.Metal>
0.0000

> <Gold.Chemscore.Lipo>
103.1213

> <Gold.Chemscore.Internal_Hbond>
0.0000

> <Gold.Chemscore.DEClash>
0.0144

> <Gold.Chemscore.DEInternal>
1.2578

> <Gold.Chemscore.Rot>
1.6737

> <Gold.Chemscore.Internal.Correction>
   9.000000E+99

> <Gold.Chemscore.Hbonds>
donor molecule, donor type, donor heavy atom, donor atom, acceptor molecule, acceptor atom, score
      P1  H  6896  6909       L1     7  0.04
      P1  H  7997  8010       L1    11  0.88

> <Gold.Chemscore.Hbond.Weighted>
-5.7044

> <Gold.Chemscore.Metal.Weighted>
-0.0000

> <Gold.Chemscore.Lipo.Weighted>
-12.0652

> <Gold.Chemscore.Internal_Hbond.Weighted>
0.0000

> <Gold.Chemscore.DEClash.Weighted>
0.0144

> <Gold.Chemscore.DEInternal.Weighted>
1.2578

> <Gold.Chemscore.Rot.Weighted>
4.2848

> <Gold.Chemscore.Internal.Correction.Weighted>
   9.000000E+99

> <Gold.Protein.RotatedTorsions>
[ 6907 6896 6895 6894 ] final -169.67 input  -60.11 | X-H torsion
[ 7974 7965 7964 7962 ] final  135.25 input  175.53 | X-H torsion
[ 8008 7997 7996 7995 ] final   -0.16 input   59.86 | X-H torsion
[ 10167 10162 10161 10158 ] final -145.93 input  -65.29 | X-H torsion
[ 10718 10713 10712 10709 ] final   16.12 input   66.30 | X-H torsion
[ 10763 10752 10751 10750 ] final -151.55 input  -60.55 | X-H torsion
[ 11005 11000 10999 10996 ] final  -66.84 input  -57.11 | X-H torsion

> <Gold.Protein.ActiveResidues>
 VAL166  LYS551  ARG553  GLY616  TRP617  ASP618  TYR619  PRO620  LYS621  CYS622 
 ASP623  PHE694  ASN695  SER759  ASP760  ASP761  ALA762  ILE779  LEU786  VAL792 
 PHE793  MET794  SER795  GLU796  ALA797  LYS798  CYS799  TRP800  GLU811  SER814 

> <Gold.Protein.RotatedAtoms>
  151.4954  133.3516  159.2859 H   0  0  0  0  0  0  0  0  0  0  0  0  # atno 6907 bound_to 6896
  150.8807  134.8200  159.7234 H   0  0  0  0  0  0  0  0  0  0  0  0  # atno 6908 bound_to 6896
  152.4761  134.4851  159.9730 H   0  0  0  0  0  0  0  0  0  0  0  0  # atno 6909 bound_to 6896
  144.9682  139.4635  143.5446 H   0  0  0  0  0  0  0  0  0  0  0  0  # atno 7974 bound_to 7965
  154.6613  140.2591  155.7106 H   0  0  0  0  0  0  0  0  0  0  0  0  # atno 8008 bound_to 7997
  156.2619  140.2848  156.1007 H   0  0  0  0  0  0  0  0  0  0  0  0  # atno 8009 bound_to 7997
  155.1305  140.0378  157.2763 H   0  0  0  0  0  0  0  0  0  0  0  0  # atno 8010 bound_to 7997
  139.7760  143.8169  152.2632 H   0  0  0  0  0  0  0  0  0  0  0  0  # atno 10167 bound_to 10162
  157.0633  130.6318  149.5790 H   0  0  0  0  0  0  0  0  0  0  0  0  # atno 10718 bound_to 10713
  154.8050  135.3257  154.7453 H   0  0  0  0  0  0  0  0  0  0  0  0  # atno 10763 bound_to 10752
  153.8113  135.6895  153.4845 H   0  0  0  0  0  0  0  0  0  0  0  0  # atno 10764 bound_to 10752
  153.1790  135.4594  154.9948 H   0  0  0  0  0  0  0  0  0  0  0  0  # atno 10765 bound_to 10752
  141.1493  133.6707  156.6202 H   0  0  0  0  0  0  0  0  0  0  0  0  # atno 11005 bound_to 11000
  146.3374  139.8877  142.8814 LP  0  0  0  0  0  0  0  0  0  0  0  0  # atno 17320 bound_to 7965
  145.2598  141.0073  143.3833 LP  0  0  0  0  0  0  0  0  0  0  0  0  # atno 17321 bound_to 7965
  139.8217  144.7292  150.9563 LP  0  0  0  0  0  0  0  0  0  0  0  0  # atno 17342 bound_to 10162
  140.7816  143.4152  151.0928 LP  0  0  0  0  0  0  0  0  0  0  0  0  # atno 17343 bound_to 10162
  155.9972  130.5043  150.7525 LP  0  0  0  0  0  0  0  0  0  0  0  0  # atno 17370 bound_to 10713
  157.4937  131.0913  151.0396 LP  0  0  0  0  0  0  0  0  0  0  0  0  # atno 17371 bound_to 10713
  140.3547  134.7739  157.4491 LP  0  0  0  0  0  0  0  0  0  0  0  0  # atno 17394 bound_to 11000
  140.0833  134.5701  155.8518 LP  0  0  0  0  0  0  0  0  0  0  0  0  # atno 17395 bound_to 11000

$$$$
