AV-unprocessed.smi:652|AV-procd|sdf|3194|dock7
  -GOLD-   22720 0123D 1   1.00000     0.00000
 Structure written by MMmdl.
 48 49  0  0  0  0  0  0  0  0  2 V2000
  152.4428  144.5838  158.8283 C   0  0  0  0  0  0  0  0  0  0  0  0
  150.9971  144.7693  158.3491 C   0  0  0  0  0  0  0  0  0  0  0  0
  149.9870  144.5901  159.4919 C   0  0  0  0  0  0  0  0  0  0  0  0
  150.7181  143.8201  157.2756 N   0  0  0  0  0  0  0  0  0  0  0  0
  150.7644  142.4826  157.3819 C   0  0  0  0  0  0  0  0  0  0  0  0
  151.0742  141.8919  158.4159 O   0  0  0  0  0  0  0  0  0  0  0  0
  150.3982  141.6868  156.1280 C   0  0  0  0  0  0  0  0  0  0  0  0
  150.5596  140.1703  156.3578 C   0  0  0  0  0  0  0  0  0  0  0  0
  150.7313  139.3982  155.0958 N   0  3  1  0  0  0  0  0  0  0  0  0
  152.1531  139.1919  154.7247 C   0  0  0  0  0  0  0  0  0  0  0  0
  152.7982  138.0814  155.5773 C   0  0  0  0  0  0  0  0  0  0  0  0
  152.0394  136.8815  155.4654 O   0  0  0  0  0  0  0  0  0  0  0  0
  150.7020  137.0374  155.9277 C   0  0  2  0  0  0  0  0  0  0  0  0
  150.0076  135.6635  155.8697 C   0  0  0  0  0  0  0  0  0  0  0  0
  149.9709  135.0964  154.5248 N   0  0  0  0  0  0  0  0  0  0  0  0
  149.8069  133.7197  154.3130 C   0  0  0  0  0  0  0  0  0  0  0  0
  148.9071  133.2875  153.3184 C   0  0  0  0  0  0  0  0  0  0  0  0
  148.7513  131.9024  153.1361 C   0  0  0  0  0  0  0  0  0  0  0  0
  149.5109  131.0537  153.9616 C   0  0  0  0  0  0  0  0  0  0  0  0
  150.3613  131.5233  154.9019 N   0  0  0  0  0  0  0  0  0  0  0  0
  150.5097  132.8418  155.0718 N   0  0  0  0  0  0  0  0  0  0  0  0
  150.0078  138.1014  155.0482 C   0  0  0  0  0  0  0  0  0  0  0  0
  152.6873  145.2936  159.6190 H   0  0  0  0  0  0  0  0  0  0  0  0
  153.1482  144.7464  158.0128 H   0  0  0  0  0  0  0  0  0  0  0  0
  152.6092  143.5794  159.2192 H   0  0  0  0  0  0  0  0  0  0  0  0
  150.9067  145.7875  157.9661 H   0  0  0  0  0  0  0  0  0  0  0  0
  150.1785  145.2994  160.2975 H   0  0  0  0  0  0  0  0  0  0  0  0
  150.0375  143.5861  159.9146 H   0  0  0  0  0  0  0  0  0  0  0  0
  148.9662  144.7558  159.1457 H   0  0  0  0  0  0  0  0  0  0  0  0
  150.4597  144.2138  156.3825 H   0  0  0  0  0  0  0  0  0  0  0  0
  149.3778  141.9440  155.8475 H   0  0  0  0  0  0  0  0  0  0  0  0
  151.0350  142.0112  155.3044 H   0  0  0  0  0  0  0  0  0  0  0  0
  151.4430  140.0164  156.9795 H   0  0  0  0  0  0  0  0  0  0  0  0
  149.7200  139.7811  156.9339 H   0  0  0  0  0  0  0  0  0  0  0  0
  152.1951  138.9063  153.6727 H   0  0  0  0  0  0  0  0  0  0  0  0
  152.7144  140.1230  154.8102 H   0  0  0  0  0  0  0  0  0  0  0  0
  153.8130  137.8872  155.2301 H   0  0  0  0  0  0  0  0  0  0  0  0
  152.8771  138.3809  156.6234 H   0  0  0  0  0  0  0  0  0  0  0  0
  150.7340  137.3653  156.9661 H   0  0  0  0  0  0  0  0  0  0  0  0
  150.5305  134.9603  156.5183 H   0  0  0  0  0  0  0  0  0  0  0  0
  148.9910  135.7388  156.2576 H   0  0  0  0  0  0  0  0  0  0  0  0
  149.8406  135.7275  153.7472 H   0  0  0  0  0  0  0  0  0  0  0  0
  148.3508  133.9915  152.7170 H   0  0  0  0  0  0  0  0  0  0  0  0
  148.0754  131.5051  152.3933 H   0  0  0  0  0  0  0  0  0  0  0  0
  149.4331  129.9805  153.8706 H   0  0  0  0  0  0  0  0  0  0  0  0
  148.9645  138.2227  155.3311 H   0  0  0  0  0  0  0  0  0  0  0  0
  149.9923  137.7575  154.0130 H   0  0  0  0  0  0  0  0  0  0  0  0
  150.3353  139.9796  154.3710 H   0  0  0  0  0  0  0  0  0  0  0  0
  1  2  1  0  0  0  0
  1 23  1  0  0  0  0
  1 24  1  0  0  0  0
  1 25  1  0  0  0  0
  2  3  1  0  0  0  0
  2  4  1  0  0  0  0
  2 26  1  0  0  0  0
  3 27  1  0  0  0  0
  3 28  1  0  0  0  0
  3 29  1  0  0  0  0
  4  5  1  0  0  0  0
  4 30  1  0  0  0  0
  5  6  2  0  0  0  0
  5  7  1  0  0  0  0
  7  8  1  0  0  0  0
  7 31  1  0  0  0  0
  7 32  1  0  0  0  0
  8  9  1  0  0  0  0
  8 33  1  0  0  0  0
  8 34  1  0  0  0  0
  9 22  1  0  0  0  0
  9 10  1  0  0  0  0
  9 48  1  0  0  0  0
 10 11  1  0  0  0  0
 10 35  1  0  0  0  0
 10 36  1  0  0  0  0
 11 12  1  0  0  0  0
 11 37  1  0  0  0  0
 11 38  1  0  0  0  0
 12 13  1  0  0  0  0
 13 14  1  0  0  0  0
 13 22  1  0  0  0  0
 13 39  1  0  0  0  0
 14 15  1  0  0  0  0
 14 40  1  0  0  0  0
 14 41  1  0  0  0  0
 15 16  1  0  0  0  0
 15 42  1  0  0  0  0
 16 21  1  0  0  0  0
 16 17  2  0  0  0  0
 17 18  1  0  0  0  0
 17 43  1  0  0  0  0
 18 19  2  0  0  0  0
 18 44  1  0  0  0  0
 19 20  1  0  0  0  0
 19 45  1  0  0  0  0
 20 21  2  0  0  0  0
 22 46  1  0  0  0  0
 22 47  1  0  0  0  0
M  CHG  1   9   1
M  END
> <s_m_source_file>
AV-unprocessed.smi

> <i_m_source_file_index>
652

> <i_lp_mmshare_version>
43012

> <i_f3d_flags>
0

> <s_epik_input>
W0NIM11bQ0hdKFtDSDNdKVtOSF1DKD1PKVtDSDJdW0NIMl1OMVtDSDJdW0NIMl1PW0NASF0oW0NIMl0xKVtDSDJdW05IXWMyW2NIXVtjSF1bY0hdbm4y

> <s_epik_cmdline>
J2VwaWtfcHl0aG9uJywgJy1waCcsICc3LjAnLCAnLXRuJywgJzgnLCAnLW1hJywgJzIwMCcsICctbWV0YWxfYmluZGluZycsICctaW1hZScsICc8aW5maWxlLm1hZT4nLCAnLW9tYWUnLCAnPG91dGZpbGUubWFlPic=

> <r_lp_tautomer_probability>
0.999978

> <r_epik_Ionization_Penalty>
0.433079

> <r_epik_Ionization_Penalty_Charging>
0.413784

> <r_epik_Ionization_Penalty_Neutral>
0.0192945

> <r_epik_State_Penalty>
0.425138

> <r_epik_Charging_Adjusted_Penalty>
0.838922

> <i_epik_Tot_Q>
1

> <i_epik_Tot_abs_Q>
1

> <r_epik_Metal_State_Penalty>
0.422073

> <b_epik_Metal_Only>
0

> <s_lp_Force_Field>
OPLS_2005

> <r_lp_Energy>
22.7305

> <b_lp_Chiralities_Consistent>
1

> <s_lp_Variant>
AV-unprocessed.smi:652-3

> <Gold.Version>
5.8.1

> <Gold.Id.Protein>
6NUR|6NUR_protein|mol2

> <Gold.PLP.Fitness>
46.5951

> <Gold.PLP.PLP>
-40.8702

> <Gold.PLP.part.hbond>
-3.0000

> <Gold.PLP.part.metal>
0.0000

> <Gold.PLP.part.buried>
-4.4983

> <Gold.PLP.part.nonpolar>
-33.6264

> <Gold.PLP.part.repulsive>
0.2517

> <Gold.PLP.ligand.clash>
0.0000

> <Gold.PLP.ligand.torsion>
1.1466

> <Gold.PLP.Chemscore.Hbond>
2.6153

> <Gold.PLP.Chemscore.CHOScore>
0.0000

> <Gold.PLP.Chemscore.Metal>
0.0000

> <Gold.Chemscore.Hbonds>
donor molecule, donor type, donor heavy atom, donor atom, acceptor molecule, acceptor atom, score
      L1  H     4    30       P1  8028  0.69
      L1  H    15    42       P1  7948  0.62
      P1  H 10752 10764       L1    12  0.99

> <Gold.PLP.Chemscore.Internal.Correction>
0.1724

> <Gold.Rescore>
     Score         DG    S(hbond)    S(metal)    S(lipo)     H(rot)  DE(clash)    DE(int)     intcor
     14.17     -16.14       1.75        0.00      90.67       2.26       0.06       1.91       ----

> <Gold.Chemscore.Fitness>
14.1719

> <Gold.Chemscore.DG>
-16.1396

> <Gold.Chemscore.ZeroCoef>
-5.4800

> <Gold.Chemscore.Hbond>
1.7470

> <Gold.Chemscore.Metal>
0.0000

> <Gold.Chemscore.Lipo>
90.6747

> <Gold.Chemscore.Internal_Hbond>
0.0000

> <Gold.Chemscore.DEClash>
0.0616

> <Gold.Chemscore.DEInternal>
1.9061

> <Gold.Chemscore.Rot>
2.2594

> <Gold.Chemscore.Internal.Correction>
   9.000000E+99

> <Gold.Chemscore.Hbonds>
donor molecule, donor type, donor heavy atom, donor atom, acceptor molecule, acceptor atom, score
      L1  H     4    30       P1  8028  0.68
      L1  H    15    42       P1  7948  0.07
      P1  H 10752 10764       L1    12  0.77

> <Gold.Chemscore.Hbond.Weighted>
-5.8348

> <Gold.Chemscore.Metal.Weighted>
-0.0000

> <Gold.Chemscore.Lipo.Weighted>
-10.6089

> <Gold.Chemscore.Internal_Hbond.Weighted>
0.0000

> <Gold.Chemscore.DEClash.Weighted>
0.0616

> <Gold.Chemscore.DEInternal.Weighted>
1.9061

> <Gold.Chemscore.Rot.Weighted>
5.7841

> <Gold.Chemscore.Internal.Correction.Weighted>
   9.000000E+99

> <Gold.Protein.RotatedTorsions>
[ 6907 6896 6895 6894 ] final   91.96 input  -60.11 | X-H torsion
[ 7974 7965 7964 7962 ] final  -24.19 input  175.53 | X-H torsion
[ 8008 7997 7996 7995 ] final -113.71 input   59.86 | X-H torsion
[ 10167 10162 10161 10158 ] final   66.39 input  -65.29 | X-H torsion
[ 10718 10713 10712 10709 ] final  109.14 input   66.30 | X-H torsion
[ 10763 10752 10751 10750 ] final  -56.43 input  -60.55 | X-H torsion
[ 11005 11000 10999 10996 ] final  -32.02 input  -57.11 | X-H torsion

> <Gold.Protein.ActiveResidues>
 VAL166  LYS551  ARG553  GLY616  TRP617  ASP618  TYR619  PRO620  LYS621  CYS622 
 ASP623  PHE694  ASN695  SER759  ASP760  ASP761  ALA762  ILE779  LEU786  VAL792 
 PHE793  MET794  SER795  GLU796  ALA797  LYS798  CYS799  TRP800  GLU811  SER814 

> <Gold.Protein.RotatedAtoms>
  152.5451  134.1577  159.8544 H   0  0  0  0  0  0  0  0  0  0  0  0  # atno 6907 bound_to 6896
  151.1598  133.4846  159.2602 H   0  0  0  0  0  0  0  0  0  0  0  0  # atno 6908 bound_to 6896
  151.1385  135.0178  159.8670 H   0  0  0  0  0  0  0  0  0  0  0  0  # atno 6909 bound_to 6896
  146.1570  140.4719  142.8587 H   0  0  0  0  0  0  0  0  0  0  0  0  # atno 7974 bound_to 7965
  155.0250  140.0393  157.2452 H   0  0  0  0  0  0  0  0  0  0  0  0  # atno 8008 bound_to 7997
  154.7346  140.2737  155.6403 H   0  0  0  0  0  0  0  0  0  0  0  0  # atno 8009 bound_to 7997
  156.2850  140.2677  156.2055 H   0  0  0  0  0  0  0  0  0  0  0  0  # atno 8010 bound_to 7997
  140.1009  144.4904  150.7038 H   0  0  0  0  0  0  0  0  0  0  0  0  # atno 10167 bound_to 10162
  157.6555  131.0908  150.6409 H   0  0  0  0  0  0  0  0  0  0  0  0  # atno 10718 bound_to 10713
  154.2065  135.6402  153.5102 H   0  0  0  0  0  0  0  0  0  0  0  0  # atno 10763 bound_to 10752
  153.0000  135.5464  154.6260 H   0  0  0  0  0  0  0  0  0  0  0  0  # atno 10764 bound_to 10752
  154.5686  135.2915  155.0823 H   0  0  0  0  0  0  0  0  0  0  0  0  # atno 10765 bound_to 10752
  140.9517  133.7217  156.1230 H   0  0  0  0  0  0  0  0  0  0  0  0  # atno 11005 bound_to 11000
  144.7976  140.6152  143.6500 LP  0  0  0  0  0  0  0  0  0  0  0  0  # atno 17320 bound_to 7965
  145.4684  139.1506  143.3827 LP  0  0  0  0  0  0  0  0  0  0  0  0  # atno 17321 bound_to 7965
  140.6978  143.2415  151.4951 LP  0  0  0  0  0  0  0  0  0  0  0  0  # atno 17342 bound_to 10162
  139.5672  144.2015  152.1782 LP  0  0  0  0  0  0  0  0  0  0  0  0  # atno 17343 bound_to 10162
  156.6716  130.4541  149.5655 LP  0  0  0  0  0  0  0  0  0  0  0  0  # atno 17370 bound_to 10713
  156.1993  130.6610  151.1150 LP  0  0  0  0  0  0  0  0  0  0  0  0  # atno 17371 bound_to 10713
  140.7593  134.3957  157.5528 LP  0  0  0  0  0  0  0  0  0  0  0  0  # atno 17394 bound_to 11000
  139.8849  134.8951  156.2672 LP  0  0  0  0  0  0  0  0  0  0  0  0  # atno 17395 bound_to 11000

$$$$
