AV-unprocessed.smi:332|AV-procd|sdf|2358|dock3
  -GOLD-   2262022273D 1   1.00000     0.00000
 Structure written by MMmdl.
 42 44  0  0  0  0  0  0  0  0  1 V2000
  149.8970  141.5550  156.0438 C   0  0  0  0  0  0  0  0  0  0  0  0
  151.1320  141.7463  156.9422 C   0  0  2  0  0  0  0  0  0  0  0  0
  151.0955  140.7503  158.0114 N   0  0  0  0  0  0  0  0  0  0  0  0
  151.9450  139.7212  158.1514 C   0  0  0  0  0  0  0  0  0  0  0  0
  152.8486  139.4746  157.3516 O   0  0  0  0  0  0  0  0  0  0  0  0
  151.7190  138.8258  159.3772 C   0  0  0  0  0  0  0  0  0  0  0  0
  152.8777  138.7908  160.2848 N   0  0  0  0  0  0  0  0  0  0  0  0
  153.3942  140.0291  160.7161 C   0  0  0  0  0  0  0  0  0  0  0  0
  154.4478  140.1093  161.5442 C   0  0  0  0  0  0  0  0  0  0  0  0
  155.0562  138.8801  161.9956 C   0  0  0  0  0  0  0  0  0  0  0  0
  154.5681  137.6901  161.5916 C   0  0  0  0  0  0  0  0  0  0  0  0
  153.4157  137.5979  160.6875 C   0  0  0  0  0  0  0  0  0  0  0  0
  152.9622  136.5153  160.3143 O   0  0  0  0  0  0  0  0  0  0  0  0
  151.2142  143.1637  157.5617 C   0  0  1  0  0  0  0  0  0  0  0  0
  150.0841  143.4649  158.5796 C   0  0  0  0  0  0  0  0  0  0  0  0
  150.8474  143.9250  159.8336 C   0  0  2  0  0  0  0  0  0  0  0  0
  151.4936  145.2973  159.5712 C   0  0  0  0  0  0  0  0  0  0  0  0
  152.6447  144.9492  158.6091 C   0  0  0  0  0  0  0  0  0  0  0  0
  152.4800  143.4292  158.4163 C   0  0  1  0  0  0  0  0  0  0  0  0
  152.0516  142.9940  159.8143 C   0  0  0  0  0  0  0  0  0  0  0  0
  149.9150  142.2198  155.1813 H   0  0  0  0  0  0  0  0  0  0  0  0
  148.9740  141.7453  156.5924 H   0  0  0  0  0  0  0  0  0  0  0  0
  149.8481  140.5364  155.6572 H   0  0  0  0  0  0  0  0  0  0  0  0
  152.0247  141.5865  156.3349 H   0  0  0  0  0  0  0  0  0  0  0  0
  150.3806  140.8688  158.7145 H   0  0  0  0  0  0  0  0  0  0  0  0
  150.8323  139.1609  159.9192 H   0  0  0  0  0  0  0  0  0  0  0  0
  151.4754  137.8230  159.0234 H   0  0  0  0  0  0  0  0  0  0  0  0
  152.8786  140.9004  160.3390 H   0  0  0  0  0  0  0  0  0  0  0  0
  154.8276  141.0679  161.8666 H   0  0  0  0  0  0  0  0  0  0  0  0
  155.9059  138.9149  162.6618 H   0  0  0  0  0  0  0  0  0  0  0  0
  155.0357  136.7809  161.9404 H   0  0  0  0  0  0  0  0  0  0  0  0
  151.1685  143.8879  156.7466 H   0  0  0  0  0  0  0  0  0  0  0  0
  149.3884  144.2216  158.2148 H   0  0  0  0  0  0  0  0  0  0  0  0
  149.5038  142.5712  158.8131 H   0  0  0  0  0  0  0  0  0  0  0  0
  150.2511  143.8885  160.7458 H   0  0  0  0  0  0  0  0  0  0  0  0
  150.7889  146.0083  159.1384 H   0  0  0  0  0  0  0  0  0  0  0  0
  151.8825  145.7291  160.4943 H   0  0  0  0  0  0  0  0  0  0  0  0
  152.5865  145.5007  157.6700 H   0  0  0  0  0  0  0  0  0  0  0  0
  153.6072  145.1777  159.0685 H   0  0  0  0  0  0  0  0  0  0  0  0
  153.3881  142.9516  158.0510 H   0  0  0  0  0  0  0  0  0  0  0  0
  152.7893  143.2254  160.5849 H   0  0  0  0  0  0  0  0  0  0  0  0
  151.7848  141.9381  159.8820 H   0  0  0  0  0  0  0  0  0  0  0  0
  1  2  1  0  0  0  0
  1 21  1  0  0  0  0
  1 22  1  0  0  0  0
  1 23  1  0  0  0  0
  2  3  1  0  0  0  0
  2 14  1  0  0  0  0
  2 24  1  0  0  0  0
  3  4  1  0  0  0  0
  3 25  1  0  0  0  0
  4  5  2  0  0  0  0
  4  6  1  0  0  0  0
  6  7  1  0  0  0  0
  6 26  1  0  0  0  0
  6 27  1  0  0  0  0
  7 12  1  0  0  0  0
  7  8  1  0  0  0  0
  8  9  2  0  0  0  0
  8 28  1  0  0  0  0
  9 10  1  0  0  0  0
  9 29  1  0  0  0  0
 10 11  2  0  0  0  0
 10 30  1  0  0  0  0
 11 12  1  0  0  0  0
 11 31  1  0  0  0  0
 12 13  2  0  0  0  0
 14 19  1  0  0  0  0
 14 15  1  0  0  0  0
 14 32  1  0  0  0  0
 15 16  1  0  0  0  0
 15 33  1  0  0  0  0
 15 34  1  0  0  0  0
 16 20  1  0  0  0  0
 16 17  1  0  0  0  0
 16 35  1  0  0  0  0
 17 18  1  0  0  0  0
 17 36  1  0  0  0  0
 17 37  1  0  0  0  0
 18 19  1  0  0  0  0
 18 38  1  0  0  0  0
 18 39  1  0  0  0  0
 19 20  1  0  0  0  0
 19 40  1  0  0  0  0
 20 41  1  0  0  0  0
 20 42  1  0  0  0  0
M  END
> <s_m_source_file>
AV-unprocessed.smi

> <i_m_source_file_index>
332

> <i_lp_mmshare_version>
43012

> <i_f3d_flags>
0

> <s_epik_input>
W0NIMl0xW0NIMl1bQ0BIXShbQ0gyXTIpW0NAQEhdKFtDSDJdW0NAQEhdMTIpW0NASF0oW0NIM10pW05IXUMoPU8pW0NIMl1uM1tjSF1bY0hdW2NIXVtjSF1jMz1P

> <s_epik_cmdline>
J2VwaWtfcHl0aG9uJywgJy1waCcsICc3LjAnLCAnLXRuJywgJzgnLCAnLW1hJywgJzIwMCcsICctbWV0YWxfYmluZGluZycsICctaW1hZScsICc8aW5maWxlLm1hZT4nLCAnLW9tYWUnLCAnPG91dGZpbGUubWFlPic=

> <r_lp_tautomer_probability>
1

> <r_epik_Ionization_Penalty>
4.05802e-07

> <r_epik_Ionization_Penalty_Charging>
3.84175e-07

> <r_epik_Ionization_Penalty_Neutral>
2.16269e-08

> <r_epik_State_Penalty>
-0

> <r_epik_Charging_Adjusted_Penalty>
3.84175e-07

> <i_epik_Tot_Q>
0

> <i_epik_Tot_abs_Q>
0

> <r_epik_Metal_State_Penalty>
-0

> <b_epik_Metal_Only>
0

> <s_lp_Force_Field>
OPLS_2005

> <r_lp_Energy>
59.8508

> <b_lp_Chiralities_Consistent>
1

> <s_lp_Variant>
AV-unprocessed.smi:332-7

> <Gold.Version>
5.8.1

> <Gold.Id.Protein>
6NUR|6NUR_protein|mol2

> <Gold.PLP.Fitness>
46.3247

> <Gold.PLP.PLP>
-40.5376

> <Gold.PLP.part.hbond>
-2.0000

> <Gold.PLP.part.metal>
0.0000

> <Gold.PLP.part.buried>
-5.7696

> <Gold.PLP.part.nonpolar>
-33.0142

> <Gold.PLP.part.repulsive>
0.0816

> <Gold.PLP.ligand.clash>
0.0000

> <Gold.PLP.ligand.torsion>
0.1236

> <Gold.PLP.Chemscore.Hbond>
2.0000

> <Gold.PLP.Chemscore.CHOScore>
0.0000

> <Gold.PLP.Chemscore.Metal>
0.0000

> <Gold.Chemscore.Hbonds>
donor molecule, donor type, donor heavy atom, donor atom, acceptor molecule, acceptor atom, score
      P1  H  6896  6908       L1    13  1.00
      P1  H  7997  8008       L1     5  1.00

> <Gold.PLP.Chemscore.Internal.Correction>
0.0342

> <Gold.Rescore>
     Score         DG    S(hbond)    S(metal)    S(lipo)     H(rot)  DE(clash)    DE(int)     intcor
     21.17     -22.40       1.98        0.00     121.91       1.54       0.10       1.13       ----

> <Gold.Chemscore.Fitness>
21.1676

> <Gold.Chemscore.DG>
-22.3989

> <Gold.Chemscore.ZeroCoef>
-5.4800

> <Gold.Chemscore.Hbond>
1.9753

> <Gold.Chemscore.Metal>
0.0000

> <Gold.Chemscore.Lipo>
121.9075

> <Gold.Chemscore.Internal_Hbond>
0.0000

> <Gold.Chemscore.DEClash>
0.1028

> <Gold.Chemscore.DEInternal>
1.1285

> <Gold.Chemscore.Rot>
1.5398

> <Gold.Chemscore.Internal.Correction>
   9.000000E+99

> <Gold.Chemscore.Hbonds>
donor molecule, donor type, donor heavy atom, donor atom, acceptor molecule, acceptor atom, score
      P1  H  6896  6908       L1    13  1.00
      P1  H  7997  8008       L1     5  1.00

> <Gold.Chemscore.Hbond.Weighted>
-6.5976

> <Gold.Chemscore.Metal.Weighted>
-0.0000

> <Gold.Chemscore.Lipo.Weighted>
-14.2632

> <Gold.Chemscore.Internal_Hbond.Weighted>
0.0000

> <Gold.Chemscore.DEClash.Weighted>
0.1028

> <Gold.Chemscore.DEInternal.Weighted>
1.1285

> <Gold.Chemscore.Rot.Weighted>
3.9419

> <Gold.Chemscore.Internal.Correction.Weighted>
   9.000000E+99

> <Gold.Protein.RotatedTorsions>
[ 6907 6896 6895 6894 ] final  -99.09 input  -60.11 | X-H torsion
[ 7974 7965 7964 7962 ] final -177.13 input  175.53 | X-H torsion
[ 8008 7997 7996 7995 ] final  -68.92 input   59.86 | X-H torsion
[ 10167 10162 10161 10158 ] final  -16.49 input  -65.29 | X-H torsion
[ 10718 10713 10712 10709 ] final   80.48 input   66.30 | X-H torsion
[ 10763 10752 10751 10750 ] final   69.98 input  -60.55 | X-H torsion
[ 11005 11000 10999 10996 ] final   -2.06 input  -57.11 | X-H torsion

> <Gold.Protein.ActiveResidues>
 VAL166  LYS551  ARG553  GLY616  TRP617  ASP618  TYR619  PRO620  LYS621  CYS622 
 ASP623  PHE694  ASN695  SER759  ASP760  ASP761  ALA762  ILE779  LEU786  VAL792 
 PHE793  MET794  SER795  GLU796  ALA797  LYS798  CYS799  TRP800  GLU811  SER814 

> <Gold.Protein.RotatedAtoms>
  150.7068  134.1095  159.3994 H   0  0  0  0  0  0  0  0  0  0  0  0  # atno 6907 bound_to 6896
  151.9081  135.0348  160.0521 H   0  0  0  0  0  0  0  0  0  0  0  0  # atno 6908 bound_to 6896
  152.2358  133.5060  159.5278 H   0  0  0  0  0  0  0  0  0  0  0  0  # atno 6909 bound_to 6896
  144.7127  140.1066  143.6413 H   0  0  0  0  0  0  0  0  0  0  0  0  # atno 7974 bound_to 7965
  154.4902  140.0863  156.7576 H   0  0  0  0  0  0  0  0  0  0  0  0  # atno 8008 bound_to 7997
  155.4250  140.3447  155.4256 H   0  0  0  0  0  0  0  0  0  0  0  0  # atno 8009 bound_to 7997
  156.1318  140.1503  156.9041 H   0  0  0  0  0  0  0  0  0  0  0  0  # atno 8010 bound_to 7997
  140.7234  143.5111  150.9748 H   0  0  0  0  0  0  0  0  0  0  0  0  # atno 10167 bound_to 10162
  157.6807  130.9961  150.2085 H   0  0  0  0  0  0  0  0  0  0  0  0  # atno 10718 bound_to 10713
  153.0316  135.5190  154.7371 H   0  0  0  0  0  0  0  0  0  0  0  0  # atno 10763 bound_to 10752
  154.6382  135.2909  155.0138 H   0  0  0  0  0  0  0  0  0  0  0  0  # atno 10764 bound_to 10752
  154.1065  135.6628  153.4930 H   0  0  0  0  0  0  0  0  0  0  0  0  # atno 10765 bound_to 10752
  140.6542  133.9377  155.8398 H   0  0  0  0  0  0  0  0  0  0  0  0  # atno 11005 bound_to 11000
  145.9491  139.2721  143.1223 LP  0  0  0  0  0  0  0  0  0  0  0  0  # atno 17320 bound_to 7965
  145.9342  140.9026  143.0341 LP  0  0  0  0  0  0  0  0  0  0  0  0  # atno 17321 bound_to 7965
  139.8825  143.7054  152.3155 LP  0  0  0  0  0  0  0  0  0  0  0  0  # atno 17342 bound_to 10162
  139.7341  144.7575  151.0755 LP  0  0  0  0  0  0  0  0  0  0  0  0  # atno 17343 bound_to 10162
  156.2761  130.3727  149.7982 LP  0  0  0  0  0  0  0  0  0  0  0  0  # atno 17370 bound_to 10713
  156.5684  130.8414  151.3349 LP  0  0  0  0  0  0  0  0  0  0  0  0  # atno 17371 bound_to 10713
  141.0514  134.0479  157.3779 LP  0  0  0  0  0  0  0  0  0  0  0  0  # atno 17394 bound_to 11000
  139.9035  135.0172  156.7380 LP  0  0  0  0  0  0  0  0  0  0  0  0  # atno 17395 bound_to 11000

$$$$
