AV-unprocessed.smi:897|AV-procd|sdf|4082|dock10
  -GOLD-   22720 1573D 1   1.00000     0.00000
 Structure written by MMmdl.
 35 37  0  0  0  0  0  0  0  0  1 V2000
  153.0731  143.8403  158.7971 C   0  0  0  0  0  0  0  0  0  0  0  0
  152.8836  142.3687  159.0991 C   0  0  0  0  0  0  0  0  0  0  0  0
  153.6823  141.7164  160.0565 C   0  0  0  0  0  0  0  0  0  0  0  0
  153.4627  140.3455  160.2996 C   0  0  0  0  0  0  0  0  0  0  0  0
  154.3162  139.6313  161.3368 C   0  0  0  0  0  0  0  0  0  0  0  0
  152.4483  139.6763  159.5661 C   0  0  0  0  0  0  0  0  0  0  0  0
  152.1923  138.2535  159.7841 C   0  0  0  0  0  0  0  0  0  0  0  0
  151.9901  137.1274  159.9566 N   0  0  0  0  0  0  0  0  0  0  0  0
  151.6959  140.4237  158.6180 C   0  0  0  0  0  0  0  0  0  0  0  0
  150.6768  139.8064  157.8685 N   0  0  0  0  0  0  0  0  0  0  0  0
  150.9769  138.8654  156.7944 C   0  0  1  0  0  0  0  0  0  0  0  0
  149.7552  138.5307  155.9286 C   0  0  0  0  0  0  0  0  0  0  0  0
  150.2468  138.9083  154.5260 C   0  0  2  0  0  0  0  0  0  0  0  0
  151.3389  137.9579  154.0162 C   0  0  0  0  0  0  0  0  0  0  0  0
  152.5399  138.3797  154.8623 C   0  0  0  0  0  0  0  0  0  0  0  0
  151.9316  139.4719  155.7522 C   0  0  1  0  0  0  0  0  0  0  0  0
  151.0194  140.0545  154.8350 O   0  0  0  0  0  0  0  0  0  0  0  0
  151.9164  141.7423  158.3995 N   0  0  0  0  0  0  0  0  0  0  0  0
  153.8031  144.2916  159.4697 H   0  0  0  0  0  0  0  0  0  0  0  0
  152.1306  144.3767  158.9117 H   0  0  0  0  0  0  0  0  0  0  0  0
  153.4233  143.9742  157.7732 H   0  0  0  0  0  0  0  0  0  0  0  0
  154.4474  142.2576  160.5940 H   0  0  0  0  0  0  0  0  0  0  0  0
  154.8872  138.8262  160.8738 H   0  0  0  0  0  0  0  0  0  0  0  0
  153.6896  139.2060  162.1209 H   0  0  0  0  0  0  0  0  0  0  0  0
  155.0223  140.3148  161.8089 H   0  0  0  0  0  0  0  0  0  0  0  0
  149.7246  139.8563  158.2018 H   0  0  0  0  0  0  0  0  0  0  0  0
  151.4235  137.9663  157.2215 H   0  0  0  0  0  0  0  0  0  0  0  0
  149.4650  137.4822  156.0011 H   0  0  0  0  0  0  0  0  0  0  0  0
  148.8906  139.1392  156.1988 H   0  0  0  0  0  0  0  0  0  0  0  0
  149.4439  139.0870  153.8105 H   0  0  0  0  0  0  0  0  0  0  0  0
  151.0708  136.9096  154.1516 H   0  0  0  0  0  0  0  0  0  0  0  0
  151.5396  138.1268  152.9576 H   0  0  0  0  0  0  0  0  0  0  0  0
  152.9627  137.5571  155.4403 H   0  0  0  0  0  0  0  0  0  0  0  0
  153.3273  138.7914  154.2297 H   0  0  0  0  0  0  0  0  0  0  0  0
  152.6707  140.1624  156.1607 H   0  0  0  0  0  0  0  0  0  0  0  0
  1  2  1  0  0  0  0
  1 19  1  0  0  0  0
  1 20  1  0  0  0  0
  1 21  1  0  0  0  0
  2 18  1  0  0  0  0
  2  3  2  0  0  0  0
  3  4  1  0  0  0  0
  3 22  1  0  0  0  0
  4  5  1  0  0  0  0
  4  6  2  0  0  0  0
  5 23  1  0  0  0  0
  5 24  1  0  0  0  0
  5 25  1  0  0  0  0
  6  7  1  0  0  0  0
  6  9  1  0  0  0  0
  7  8  3  0  0  0  0
  9 10  1  0  0  0  0
  9 18  2  0  0  0  0
 10 11  1  0  0  0  0
 10 26  1  0  0  0  0
 11 16  1  0  0  0  0
 11 12  1  0  0  0  0
 11 27  1  0  0  0  0
 12 13  1  0  0  0  0
 12 28  1  0  0  0  0
 12 29  1  0  0  0  0
 13 17  1  0  0  0  0
 13 14  1  0  0  0  0
 13 30  1  0  0  0  0
 14 15  1  0  0  0  0
 14 31  1  0  0  0  0
 14 32  1  0  0  0  0
 15 16  1  0  0  0  0
 15 33  1  0  0  0  0
 15 34  1  0  0  0  0
 16 17  1  0  0  0  0
 16 35  1  0  0  0  0
M  END
> <s_m_source_file>
AV-unprocessed.smi

> <i_m_source_file_index>
897

> <i_lp_mmshare_version>
43012

> <i_f3d_flags>
0

> <s_epik_input>
W0NIM11jMVtjSF1jKFtDSDNdKWMoQyNOKWMobjEpW05IXVtDQEhdKFtDSDJdW0NAQEhdMjMpW0NAQEhdKE8zKVtDSDJdW0NIMl0y

> <s_epik_cmdline>
J2VwaWtfcHl0aG9uJywgJy1waCcsICc3LjAnLCAnLXRuJywgJzgnLCAnLW1hJywgJzIwMCcsICctbWV0YWxfYmluZGluZycsICctaW1hZScsICc8aW5maWxlLm1hZT4nLCAnLW9tYWUnLCAnPG91dGZpbGUubWFlPic=

> <r_lp_tautomer_probability>
1

> <r_epik_Ionization_Penalty>
0.000502654

> <r_epik_Ionization_Penalty_Charging>
0

> <r_epik_Ionization_Penalty_Neutral>
0.000502654

> <r_epik_State_Penalty>
-0

> <r_epik_Charging_Adjusted_Penalty>
0

> <i_epik_Tot_Q>
0

> <i_epik_Tot_abs_Q>
0

> <r_epik_Metal_State_Penalty>
-0

> <b_epik_Metal_Only>
0

> <s_lp_Force_Field>
OPLS_2005

> <r_lp_Energy>
43.6408

> <b_lp_Chiralities_Consistent>
1

> <s_lp_Variant>
AV-unprocessed.smi:897-4

> <Gold.Version>
5.8.1

> <Gold.Id.Protein>
6NUR|6NUR_protein|mol2

> <Gold.PLP.Fitness>
41.2948

> <Gold.PLP.PLP>
-36.8105

> <Gold.PLP.part.hbond>
-2.0000

> <Gold.PLP.part.metal>
0.0000

> <Gold.PLP.part.buried>
-5.6341

> <Gold.PLP.part.nonpolar>
-29.9946

> <Gold.PLP.part.repulsive>
0.1454

> <Gold.PLP.ligand.clash>
0.0000

> <Gold.PLP.ligand.torsion>
0.7548

> <Gold.PLP.Chemscore.Hbond>
1.9913

> <Gold.PLP.Chemscore.CHOScore>
0.0000

> <Gold.PLP.Chemscore.Metal>
0.0000

> <Gold.Chemscore.Hbonds>
donor molecule, donor type, donor heavy atom, donor atom, acceptor molecule, acceptor atom, score
      P1  H  6896  6909       L1     8  1.00
      P1  H  7989  7998       L1    17  1.00

> <Gold.PLP.Chemscore.Internal.Correction>
0.0202

> <Gold.Rescore>
     Score         DG    S(hbond)    S(metal)    S(lipo)     H(rot)  DE(clash)    DE(int)     intcor
     19.94     -20.88       1.90        0.00      99.21       1.00       0.13       0.80       ----

> <Gold.Chemscore.Fitness>
19.9395

> <Gold.Chemscore.DG>
-20.8751

> <Gold.Chemscore.ZeroCoef>
-5.4800

> <Gold.Chemscore.Hbond>
1.9004

> <Gold.Chemscore.Metal>
0.0000

> <Gold.Chemscore.Lipo>
99.2113

> <Gold.Chemscore.Internal_Hbond>
0.0000

> <Gold.Chemscore.DEClash>
0.1308

> <Gold.Chemscore.DEInternal>
0.8048

> <Gold.Chemscore.Rot>
1.0000

> <Gold.Chemscore.Internal.Correction>
   9.000000E+99

> <Gold.Chemscore.Hbonds>
donor molecule, donor type, donor heavy atom, donor atom, acceptor molecule, acceptor atom, score
      P1  H  6896  6909       L1     8  0.96
      P1  H  7989  7998       L1    17  0.87

> <Gold.Chemscore.Hbond.Weighted>
-6.3473

> <Gold.Chemscore.Metal.Weighted>
-0.0000

> <Gold.Chemscore.Lipo.Weighted>
-11.6077

> <Gold.Chemscore.Internal_Hbond.Weighted>
0.0000

> <Gold.Chemscore.DEClash.Weighted>
0.1308

> <Gold.Chemscore.DEInternal.Weighted>
0.8048

> <Gold.Chemscore.Rot.Weighted>
2.5600

> <Gold.Chemscore.Internal.Correction.Weighted>
   9.000000E+99

> <Gold.Protein.RotatedTorsions>
[ 6907 6896 6895 6894 ] final  135.72 input  -60.11 | X-H torsion
[ 7974 7965 7964 7962 ] final  100.22 input  175.53 | X-H torsion
[ 8008 7997 7996 7995 ] final  -30.68 input   59.86 | X-H torsion
[ 10167 10162 10161 10158 ] final   84.98 input  -65.29 | X-H torsion
[ 10718 10713 10712 10709 ] final   61.30 input   66.30 | X-H torsion
[ 10763 10752 10751 10750 ] final  -49.18 input  -60.55 | X-H torsion
[ 11005 11000 10999 10996 ] final  105.42 input  -57.11 | X-H torsion

> <Gold.Protein.ActiveResidues>
 VAL166  LYS551  ARG553  GLY616  TRP617  ASP618  TYR619  PRO620  LYS621  CYS622 
 ASP623  PHE694  ASN695  SER759  ASP760  ASP761  ALA762  ILE779  LEU786  VAL792 
 PHE793  MET794  SER795  GLU796  ALA797  LYS798  CYS799  TRP800  GLU811  SER814 

> <Gold.Protein.RotatedAtoms>
  152.2973  133.5620  159.5595 H   0  0  0  0  0  0  0  0  0  0  0  0  # atno 6907 bound_to 6896
  150.7262  134.0342  159.3752 H   0  0  0  0  0  0  0  0  0  0  0  0  # atno 6908 bound_to 6896
  151.8244  135.0642  160.0480 H   0  0  0  0  0  0  0  0  0  0  0  0  # atno 6909 bound_to 6896
  145.3884  139.2367  143.3365 H   0  0  0  0  0  0  0  0  0  0  0  0  # atno 7974 bound_to 7965
  154.4241  140.1784  156.1446 H   0  0  0  0  0  0  0  0  0  0  0  0  # atno 8008 bound_to 7997
  155.9964  140.3364  155.6778 H   0  0  0  0  0  0  0  0  0  0  0  0  # atno 8009 bound_to 7997
  155.6303  140.0669  157.2642 H   0  0  0  0  0  0  0  0  0  0  0  0  # atno 8010 bound_to 7997
  139.9024  144.6321  150.8623 H   0  0  0  0  0  0  0  0  0  0  0  0  # atno 10167 bound_to 10162
  157.5818  130.8987  149.9444 H   0  0  0  0  0  0  0  0  0  0  0  0  # atno 10718 bound_to 10713
  154.0899  135.6579  153.4851 H   0  0  0  0  0  0  0  0  0  0  0  0  # atno 10763 bound_to 10752
  153.0325  135.5200  154.7391 H   0  0  0  0  0  0  0  0  0  0  0  0  # atno 10764 bound_to 10752
  154.6511  135.3001  154.9954 H   0  0  0  0  0  0  0  0  0  0  0  0  # atno 10765 bound_to 10752
  139.8802  134.9335  156.5511 H   0  0  0  0  0  0  0  0  0  0  0  0  # atno 11005 bound_to 11000
  146.2809  140.4563  142.8777 LP  0  0  0  0  0  0  0  0  0  0  0  0  # atno 17320 bound_to 7965
  144.8457  140.6926  143.6200 LP  0  0  0  0  0  0  0  0  0  0  0  0  # atno 17321 bound_to 7965
  140.7704  143.3426  151.2176 LP  0  0  0  0  0  0  0  0  0  0  0  0  # atno 17342 bound_to 10162
  139.7013  143.9528  152.2907 LP  0  0  0  0  0  0  0  0  0  0  0  0  # atno 17343 bound_to 10162
  156.0864  130.3667  150.0479 LP  0  0  0  0  0  0  0  0  0  0  0  0  # atno 17370 bound_to 10713
  156.8617  130.9494  151.3617 LP  0  0  0  0  0  0  0  0  0  0  0  0  # atno 17371 bound_to 10713
  140.8239  133.8332  155.8921 LP  0  0  0  0  0  0  0  0  0  0  0  0  # atno 17394 bound_to 11000
  140.9392  134.1922  157.4809 LP  0  0  0  0  0  0  0  0  0  0  0  0  # atno 17395 bound_to 11000

$$$$
