AV-unprocessed.smi:2061|AV-procd|sdf|8364|dock2
  -GOLD-   2272011 33D 1   1.00000     0.00000
 Structure written by MMmdl.
 45 46  0  0  0  0  0  0  0  0  1 V2000
  143.9296  143.7930  162.5227 C   0  0  0  0  0  0  0  0  0  0  0  0
  144.5460  143.9741  161.1776 C   0  0  0  0  0  0  0  0  0  0  0  0
  145.6254  143.4020  160.5651 C   0  0  0  0  0  0  0  0  0  0  0  0
  145.6471  144.0385  159.2954 C   0  0  0  0  0  0  0  0  0  0  0  0
  146.6436  143.7198  158.3380 N   0  0  0  0  0  0  0  0  0  0  0  0
  147.2797  142.5468  158.1777 C   0  0  0  0  0  0  0  0  0  0  0  0
  147.1024  141.5442  158.8707 O   0  0  0  0  0  0  0  0  0  0  0  0
  148.1495  142.6011  157.1588 N   0  0  0  0  0  0  0  0  0  0  0  0
  149.0169  141.5091  156.7203 C   0  0  0  0  0  0  0  0  0  0  0  0
  150.4831  141.9677  156.5037 C   0  0  2  0  0  0  0  0  0  0  0  0
  151.3000  140.7618  155.9871 C   0  0  0  0  0  0  0  0  0  0  0  0
  151.0877  142.6302  157.6807 N   0  0  0  0  0  0  0  0  0  0  0  0
  151.9550  143.7526  157.3098 C   0  0  0  0  0  0  0  0  0  0  0  0
  152.6033  144.4499  158.5219 C   0  0  1  0  0  0  0  0  0  0  0  0
  151.6149  145.3089  159.3295 C   0  0  0  0  0  0  0  0  0  0  0  0
  153.2729  143.4945  159.3421 O   0  0  0  0  0  0  0  0  0  0  0  0
  152.4736  142.3875  159.7473 C   0  0  2  0  0  0  0  0  0  0  0  0
  153.3609  141.4320  160.5524 C   0  0  0  0  0  0  0  0  0  0  0  0
  151.8683  141.7066  158.5064 C   0  0  0  0  0  0  0  0  0  0  0  0
  144.6685  144.9184  159.1461 N   0  0  0  0  0  0  0  0  0  0  0  0
  143.9581  144.8817  160.3518 O   0  0  0  0  0  0  0  0  0  0  0  0
  144.2039  142.8282  162.9498 H   0  0  0  0  0  0  0  0  0  0  0  0
  142.8420  143.8373  162.4614 H   0  0  0  0  0  0  0  0  0  0  0  0
  144.2624  144.5733  163.2071 H   0  0  0  0  0  0  0  0  0  0  0  0
  146.2909  142.6511  160.9645 H   0  0  0  0  0  0  0  0  0  0  0  0
  146.8935  144.4625  157.7019 H   0  0  0  0  0  0  0  0  0  0  0  0
  148.2329  143.4707  156.6531 H   0  0  0  0  0  0  0  0  0  0  0  0
  148.9855  140.6803  157.4296 H   0  0  0  0  0  0  0  0  0  0  0  0
  148.6008  141.0919  155.8041 H   0  0  0  0  0  0  0  0  0  0  0  0
  150.4582  142.6920  155.6880 H   0  0  0  0  0  0  0  0  0  0  0  0
  150.7610  140.2236  155.2070 H   0  0  0  0  0  0  0  0  0  0  0  0
  151.5153  140.0520  156.7867 H   0  0  0  0  0  0  0  0  0  0  0  0
  152.2473  141.0675  155.5443 H   0  0  0  0  0  0  0  0  0  0  0  0
  152.7424  143.3950  156.6444 H   0  0  0  0  0  0  0  0  0  0  0  0
  151.3990  144.5057  156.7541 H   0  0  0  0  0  0  0  0  0  0  0  0
  153.3751  145.1227  158.1468 H   0  0  0  0  0  0  0  0  0  0  0  0
  151.2065  146.1109  158.7144 H   0  0  0  0  0  0  0  0  0  0  0  0
  152.1093  145.7686  160.1855 H   0  0  0  0  0  0  0  0  0  0  0  0
  150.7733  144.7256  159.7025 H   0  0  0  0  0  0  0  0  0  0  0  0
  151.6716  142.7379  160.3975 H   0  0  0  0  0  0  0  0  0  0  0  0
  152.7913  140.5727  160.9070 H   0  0  0  0  0  0  0  0  0  0  0  0
  153.7829  141.9335  161.4237 H   0  0  0  0  0  0  0  0  0  0  0  0
  154.1891  141.0594  159.9489 H   0  0  0  0  0  0  0  0  0  0  0  0
  151.2425  140.8881  158.8590 H   0  0  0  0  0  0  0  0  0  0  0  0
  152.6638  141.2598  157.9078 H   0  0  0  0  0  0  0  0  0  0  0  0
  1  2  1  0  0  0  0
  1 22  1  0  0  0  0
  1 23  1  0  0  0  0
  1 24  1  0  0  0  0
  2 21  1  0  0  0  0
  2  3  2  0  0  0  0
  3  4  1  0  0  0  0
  3 25  1  0  0  0  0
  4  5  1  0  0  0  0
  4 20  2  0  0  0  0
  5  6  1  0  0  0  0
  5 26  1  0  0  0  0
  6  7  2  0  0  0  0
  6  8  1  0  0  0  0
  8  9  1  0  0  0  0
  8 27  1  0  0  0  0
  9 10  1  0  0  0  0
  9 28  1  0  0  0  0
  9 29  1  0  0  0  0
 10 11  1  0  0  0  0
 10 12  1  0  0  0  0
 10 30  1  0  0  0  0
 11 31  1  0  0  0  0
 11 32  1  0  0  0  0
 11 33  1  0  0  0  0
 12 19  1  0  0  0  0
 12 13  1  0  0  0  0
 13 14  1  0  0  0  0
 13 34  1  0  0  0  0
 13 35  1  0  0  0  0
 14 15  1  0  0  0  0
 14 16  1  0  0  0  0
 14 36  1  0  0  0  0
 15 37  1  0  0  0  0
 15 38  1  0  0  0  0
 15 39  1  0  0  0  0
 16 17  1  0  0  0  0
 17 18  1  0  0  0  0
 17 19  1  0  0  0  0
 17 40  1  0  0  0  0
 18 41  1  0  0  0  0
 18 42  1  0  0  0  0
 18 43  1  0  0  0  0
 19 44  1  0  0  0  0
 19 45  1  0  0  0  0
 20 21  1  0  0  0  0
M  END
> <s_m_source_file>
AV-unprocessed.smi

> <i_m_source_file_index>
2061

> <i_lp_mmshare_version>
43012

> <i_f3d_flags>
0

> <s_epik_input>
W0NIM11jMVtjSF1jKG5vMSlbTkhdQyg9TylbTkhdW0NIMl1bQ0BIXShbQ0gzXSlOMltDSDJdW0NAQEhdKFtDSDNdKU9bQ0BASF0oW0NIM10pW0NIMl0y

> <s_epik_cmdline>
J2VwaWtfcHl0aG9uJywgJy1waCcsICc3LjAnLCAnLXRuJywgJzgnLCAnLW1hJywgJzIwMCcsICctbWV0YWxfYmluZGluZycsICctaW1hZScsICc8aW5maWxlLm1hZT4nLCAnLW9tYWUnLCAnPG91dGZpbGUubWFlPic=

> <r_epik_Ionization_Penalty>
0.214073

> <r_epik_Ionization_Penalty_Charging>
0

> <r_epik_Ionization_Penalty_Neutral>
0.214073

> <r_epik_State_Penalty>
0.204211

> <r_epik_Charging_Adjusted_Penalty>
0.204211

> <i_epik_Tot_Q>
0

> <i_epik_Tot_abs_Q>
0

> <r_epik_Metal_State_Penalty>
0.217067

> <b_epik_Metal_Only>
0

> <s_lp_Force_Field>
OPLS_2005

> <r_lp_Energy>
31.479

> <b_lp_Chiralities_Consistent>
1

> <s_lp_Variant>
AV-unprocessed.smi:2061-5

> <Gold.Version>
5.8.1

> <Gold.Id.Protein>
6NUR|6NUR_protein|mol2

> <Gold.PLP.Fitness>
46.7589

> <Gold.PLP.PLP>
-42.6246

> <Gold.PLP.part.hbond>
-3.0791

> <Gold.PLP.part.metal>
0.0000

> <Gold.PLP.part.buried>
-5.1483

> <Gold.PLP.part.nonpolar>
-34.0796

> <Gold.PLP.part.repulsive>
0.3591

> <Gold.PLP.ligand.clash>
0.0000

> <Gold.PLP.ligand.torsion>
1.1798

> <Gold.PLP.Chemscore.Hbond>
2.1480

> <Gold.PLP.Chemscore.CHOScore>
0.0000

> <Gold.PLP.Chemscore.Metal>
0.0000

> <Gold.Chemscore.Hbonds>
donor molecule, donor type, donor heavy atom, donor atom, acceptor molecule, acceptor atom, score
      L1  H     5    26       P1  8029  0.80
      L1  H     8    27       P1  8028  0.85
      P1  H  6934  6946       L1     7  0.45

> <Gold.PLP.Chemscore.Internal.Correction>
0.0498

> <Gold.Rescore>
     Score         DG    S(hbond)    S(metal)    S(lipo)     H(rot)  DE(clash)    DE(int)     intcor
     15.57     -18.40       1.27        0.00     108.00       1.55       0.63       2.20       ----

> <Gold.Chemscore.Fitness>
15.5686

> <Gold.Chemscore.DG>
-18.3985

> <Gold.Chemscore.ZeroCoef>
-5.4800

> <Gold.Chemscore.Hbond>
1.2705

> <Gold.Chemscore.Metal>
0.0000

> <Gold.Chemscore.Lipo>
108.0015

> <Gold.Chemscore.Internal_Hbond>
0.0000

> <Gold.Chemscore.DEClash>
0.6282

> <Gold.Chemscore.DEInternal>
2.2018

> <Gold.Chemscore.Rot>
1.5474

> <Gold.Chemscore.Internal.Correction>
   9.000000E+99

> <Gold.Chemscore.Hbonds>
donor molecule, donor type, donor heavy atom, donor atom, acceptor molecule, acceptor atom, score
      L1  H     5    26       P1  8029  0.11
      L1  H     8    27       P1  8028  0.15
      P1  H  6934  6946       L1     7  0.44

> <Gold.Chemscore.Hbond.Weighted>
-4.2436

> <Gold.Chemscore.Metal.Weighted>
-0.0000

> <Gold.Chemscore.Lipo.Weighted>
-12.6362

> <Gold.Chemscore.Internal_Hbond.Weighted>
0.0000

> <Gold.Chemscore.DEClash.Weighted>
0.6282

> <Gold.Chemscore.DEInternal.Weighted>
2.2018

> <Gold.Chemscore.Rot.Weighted>
3.9612

> <Gold.Chemscore.Internal.Correction.Weighted>
   9.000000E+99

> <Gold.Protein.RotatedTorsions>
[ 6907 6896 6895 6894 ] final   39.20 input  -60.11 | X-H torsion
[ 7974 7965 7964 7962 ] final   84.50 input  175.53 | X-H torsion
[ 8008 7997 7996 7995 ] final -136.56 input   59.86 | X-H torsion
[ 10167 10162 10161 10158 ] final   88.42 input  -65.29 | X-H torsion
[ 10718 10713 10712 10709 ] final -114.49 input   66.30 | X-H torsion
[ 10763 10752 10751 10750 ] final   67.93 input  -60.55 | X-H torsion
[ 11005 11000 10999 10996 ] final   73.04 input  -57.11 | X-H torsion

> <Gold.Protein.ActiveResidues>
 VAL166  LYS551  ARG553  GLY616  TRP617  ASP618  TYR619  PRO620  LYS621  CYS622 
 ASP623  PHE694  ASN695  SER759  ASP760  ASP761  ALA762  ILE779  LEU786  VAL792 
 PHE793  MET794  SER795  GLU796  ALA797  LYS798  CYS799  TRP800  GLU811  SER814 

> <Gold.Protein.RotatedAtoms>
  152.1665  134.8869  160.0537 H   0  0  0  0  0  0  0  0  0  0  0  0  # atno 6907 bound_to 6896
  151.9846  133.3764  159.4129 H   0  0  0  0  0  0  0  0  0  0  0  0  # atno 6908 bound_to 6896
  150.6895  134.3925  159.5126 H   0  0  0  0  0  0  0  0  0  0  0  0  # atno 6909 bound_to 6896
  145.5980  139.2348  143.2262 H   0  0  0  0  0  0  0  0  0  0  0  0  # atno 7974 bound_to 7965
  155.3973  140.0503  157.3038 H   0  0  0  0  0  0  0  0  0  0  0  0  # atno 8008 bound_to 7997
  154.5007  140.2156  155.9313 H   0  0  0  0  0  0  0  0  0  0  0  0  # atno 8009 bound_to 7997
  156.1464  140.3144  155.8582 H   0  0  0  0  0  0  0  0  0  0  0  0  # atno 8010 bound_to 7997
  139.8675  144.6511  150.8988 H   0  0  0  0  0  0  0  0  0  0  0  0  # atno 10167 bound_to 10162
  156.0833  130.6030  150.8782 H   0  0  0  0  0  0  0  0  0  0  0  0  # atno 10718 bound_to 10713
  153.0210  135.5266  154.7056 H   0  0  0  0  0  0  0  0  0  0  0  0  # atno 10763 bound_to 10752
  154.6152  135.2883  155.0389 H   0  0  0  0  0  0  0  0  0  0  0  0  # atno 10764 bound_to 10752
  154.1396  135.6580  153.4992 H   0  0  0  0  0  0  0  0  0  0  0  0  # atno 10765 bound_to 10752
  139.9460  134.7312  156.0979 H   0  0  0  0  0  0  0  0  0  0  0  0  # atno 11005 bound_to 11000
  146.1598  140.6805  142.9283 LP  0  0  0  0  0  0  0  0  0  0  0  0  # atno 17320 bound_to 7965
  144.7322  140.4706  143.6929 LP  0  0  0  0  0  0  0  0  0  0  0  0  # atno 17321 bound_to 7965
  140.7766  143.3692  151.1681 LP  0  0  0  0  0  0  0  0  0  0  0  0  # atno 17342 bound_to 10162
  139.7315  143.9064  152.3021 LP  0  0  0  0  0  0  0  0  0  0  0  0  # atno 17343 bound_to 10162
  157.5959  131.0943  150.9042 LP  0  0  0  0  0  0  0  0  0  0  0  0  # atno 17370 bound_to 10713
  156.9209  130.5314  149.5279 LP  0  0  0  0  0  0  0  0  0  0  0  0  # atno 17371 bound_to 10713
  141.1110  133.6643  156.2979 LP  0  0  0  0  0  0  0  0  0  0  0  0  # atno 17394 bound_to 11000
  140.5834  134.5723  157.5484 LP  0  0  0  0  0  0  0  0  0  0  0  0  # atno 17395 bound_to 11000

$$$$
