AV-unprocessed.smi:7|AV-procd|sdf|44|dock8
  -GOLD-   2262015163D 1   1.00000     0.00000
 Structure written by MMmdl.
 45 48  0  0  0  0  0  0  0  0  1 V2000
  156.3890  139.3655  163.8612 O   0  0  0  0  0  0  0  0  0  0  0  0
  155.6880  140.3618  163.6802 C   0  0  0  0  0  0  0  0  0  0  0  0
  154.9124  140.5712  162.4355 C   0  0  0  0  0  0  0  0  0  0  0  0
  154.8180  139.7898  161.2847 N   0  0  0  0  0  0  0  0  0  0  0  0
  153.9836  140.4917  160.5188 C   0  0  0  0  0  0  0  0  0  0  0  0
  153.5534  141.6339  161.0869 N   0  0  0  0  0  0  0  0  0  0  0  0
  152.6523  142.4843  160.4049 C   0  0  0  0  0  0  0  0  0  0  0  0
  151.8852  142.0020  159.3204 C   0  0  0  0  0  0  0  0  0  0  0  0
  150.9945  142.8601  158.6461 C   0  0  0  0  0  0  0  0  0  0  0  0
  150.8667  144.2031  159.0503 C   0  0  0  0  0  0  0  0  0  0  0  0
  151.6310  144.6886  160.1286 C   0  0  0  0  0  0  0  0  0  0  0  0
  152.5224  143.8321  160.8039 C   0  0  0  0  0  0  0  0  0  0  0  0
  154.1463  141.7005  162.3398 C   0  0  0  0  0  0  0  0  0  0  0  0
  153.9848  142.7089  163.2624 N   0  0  0  0  0  0  0  0  0  0  0  0
  154.6875  142.5001  164.3452 C   0  0  0  0  0  0  0  0  0  0  0  0
  155.5408  141.3790  164.5800 N   0  0  0  0  0  0  0  0  0  0  0  0
  156.2554  141.3559  165.8648 C   0  0  0  0  0  0  0  0  0  0  0  0
  155.2829  141.2443  167.0671 C   0  0  1  0  0  0  0  0  0  0  0  0
  155.5454  140.0145  167.7174 O   0  0  0  0  0  0  0  0  0  0  0  0
  155.4259  142.4089  168.0852 C   0  0  0  0  0  0  0  0  0  0  0  0
  154.5523  142.1391  169.1693 O   0  0  0  0  0  0  0  0  0  0  0  0
  156.8329  142.5755  168.6828 C   0  0  0  0  0  0  0  0  0  0  0  0
  156.8559  143.9951  169.2600 C   0  0  0  0  0  0  0  0  0  0  0  0
  155.8403  144.8065  168.4410 C   0  0  0  0  0  0  0  0  0  0  0  0
  155.1005  143.8091  167.5364 C   0  0  0  0  0  0  0  0  0  0  0  0
  153.6814  140.1586  159.5363 H   0  0  0  0  0  0  0  0  0  0  0  0
  151.9796  140.9757  158.9967 H   0  0  0  0  0  0  0  0  0  0  0  0
  150.4103  142.4881  157.8173 H   0  0  0  0  0  0  0  0  0  0  0  0
  150.1837  144.8607  158.5326 H   0  0  0  0  0  0  0  0  0  0  0  0
  151.5335  145.7187  160.4387 H   0  0  0  0  0  0  0  0  0  0  0  0
  153.1019  144.2125  161.6321 H   0  0  0  0  0  0  0  0  0  0  0  0
  154.6570  143.2074  165.1760 H   0  0  0  0  0  0  0  0  0  0  0  0
  157.0008  140.5582  165.8913 H   0  0  0  0  0  0  0  0  0  0  0  0
  156.8552  142.2642  165.9433 H   0  0  0  0  0  0  0  0  0  0  0  0
  154.2492  141.2188  166.7178 H   0  0  0  0  0  0  0  0  0  0  0  0
  156.4534  139.7896  167.5803 H   0  0  0  0  0  0  0  0  0  0  0  0
  153.6699  142.3388  168.8969 H   0  0  0  0  0  0  0  0  0  0  0  0
  157.0750  141.8155  169.4270 H   0  0  0  0  0  0  0  0  0  0  0  0
  157.5913  142.5111  167.9021 H   0  0  0  0  0  0  0  0  0  0  0  0
  156.5460  143.9719  170.3056 H   0  0  0  0  0  0  0  0  0  0  0  0
  157.8549  144.4311  169.2276 H   0  0  0  0  0  0  0  0  0  0  0  0
  155.1421  145.3147  169.1070 H   0  0  0  0  0  0  0  0  0  0  0  0
  156.3344  145.5734  167.8435 H   0  0  0  0  0  0  0  0  0  0  0  0
  155.4856  143.9113  166.5212 H   0  0  0  0  0  0  0  0  0  0  0  0
  154.0290  144.0080  167.4889 H   0  0  0  0  0  0  0  0  0  0  0  0
  1  2  2  0  0  0  0
  2 16  1  0  0  0  0
  2  3  1  0  0  0  0
  3 13  2  0  0  0  0
  3  4  1  0  0  0  0
  4  5  2  0  0  0  0
  5  6  1  0  0  0  0
  5 26  1  0  0  0  0
  6  7  1  0  0  0  0
  6 13  1  0  0  0  0
  7 12  1  0  0  0  0
  7  8  2  0  0  0  0
  8  9  1  0  0  0  0
  8 27  1  0  0  0  0
  9 10  2  0  0  0  0
  9 28  1  0  0  0  0
 10 11  1  0  0  0  0
 10 29  1  0  0  0  0
 11 12  2  0  0  0  0
 11 30  1  0  0  0  0
 12 31  1  0  0  0  0
 13 14  1  0  0  0  0
 14 15  2  0  0  0  0
 15 16  1  0  0  0  0
 15 32  1  0  0  0  0
 16 17  1  0  0  0  0
 17 18  1  0  0  0  0
 17 33  1  0  0  0  0
 17 34  1  0  0  0  0
 18 19  1  0  0  0  0
 18 20  1  0  0  0  0
 18 35  1  0  0  0  0
 19 36  1  0  0  0  0
 20 25  1  0  0  0  0
 20 21  1  0  0  0  0
 20 22  1  0  0  0  0
 21 37  1  0  0  0  0
 22 23  1  0  0  0  0
 22 38  1  0  0  0  0
 22 39  1  0  0  0  0
 23 24  1  0  0  0  0
 23 40  1  0  0  0  0
 23 41  1  0  0  0  0
 24 25  1  0  0  0  0
 24 42  1  0  0  0  0
 24 43  1  0  0  0  0
 25 44  1  0  0  0  0
 25 45  1  0  0  0  0
M  END
> <s_m_source_file>
AV-unprocessed.smi

> <i_m_source_file_index>
7

> <i_lp_mmshare_version>
43012

> <i_f3d_flags>
0

> <s_epik_input>
W0NIMl0xW0NIMl1bQ0gyXVtDSDJdQzEoW09IXSlbQ0BASF0oW09IXSlbQ0gyXW4oYzI9TylbY0hdbmMoYzIzKW4oW2NIXW4zKS1jNFtjSF1bY0hdW2NIXVtjSF1bY0hdNA==

> <s_epik_cmdline>
J2VwaWtfcHl0aG9uJywgJy1waCcsICc3LjAnLCAnLXRuJywgJzgnLCAnLW1hJywgJzIwMCcsICctbWV0YWxfYmluZGluZycsICctaW1hZScsICc8aW5maWxlLm1hZT4nLCAnLW9tYWUnLCAnPG91dGZpbGUubWFlPic=

> <r_lp_tautomer_probability>
1

> <r_epik_Ionization_Penalty>
0.000116694

> <r_epik_Ionization_Penalty_Charging>
6.60428e-09

> <r_epik_Ionization_Penalty_Neutral>
0.000116688

> <r_epik_State_Penalty>
-0

> <r_epik_Charging_Adjusted_Penalty>
6.60428e-09

> <i_epik_Tot_Q>
0

> <i_epik_Tot_abs_Q>
0

> <r_epik_Metal_State_Penalty>
-0

> <b_epik_Metal_Only>
0

> <s_lp_Force_Field>
OPLS_2005

> <r_lp_Energy>
52.8935

> <b_lp_Chiralities_Consistent>
1

> <s_lp_Variant>
AV-unprocessed.smi:7-2

> <Gold.Version>
5.8.1

> <Gold.Id.Protein>
6NUR|6NUR_protein|mol2

> <Gold.PLP.Fitness>
53.3086

> <Gold.PLP.PLP>
-55.1920

> <Gold.PLP.part.hbond>
-3.4095

> <Gold.PLP.part.metal>
0.0000

> <Gold.PLP.part.buried>
-4.4405

> <Gold.PLP.part.nonpolar>
-45.6509

> <Gold.PLP.part.repulsive>
0.0497

> <Gold.PLP.ligand.clash>
0.0000

> <Gold.PLP.ligand.torsion>
0.9478

> <Gold.PLP.Chemscore.Hbond>
0.0000

> <Gold.PLP.Chemscore.CHOScore>
0.0000

> <Gold.PLP.Chemscore.Metal>
0.0000

> <Gold.PLP.Chemscore.Internal.Correction>
0.0123

> <Gold.Rescore>
     Score         DG    S(hbond)    S(metal)    S(lipo)     H(rot)  DE(clash)    DE(int)     intcor
      7.51      -9.62       0.00        0.00      96.38       2.79       0.75       1.36       ----

> <Gold.Chemscore.Fitness>
7.5093

> <Gold.Chemscore.DG>
-9.6241

> <Gold.Chemscore.ZeroCoef>
-5.4800

> <Gold.Chemscore.Hbond>
0.0000

> <Gold.Chemscore.Metal>
0.0000

> <Gold.Chemscore.Lipo>
96.3783

> <Gold.Chemscore.Internal_Hbond>
0.0000

> <Gold.Chemscore.DEClash>
0.7550

> <Gold.Chemscore.DEInternal>
1.3599

> <Gold.Chemscore.Rot>
2.7860

> <Gold.Chemscore.Internal.Correction>
   9.000000E+99

> <Gold.Chemscore.Hbond.Weighted>
-0.0000

> <Gold.Chemscore.Metal.Weighted>
-0.0000

> <Gold.Chemscore.Lipo.Weighted>
-11.2763

> <Gold.Chemscore.Internal_Hbond.Weighted>
0.0000

> <Gold.Chemscore.DEClash.Weighted>
0.7550

> <Gold.Chemscore.DEInternal.Weighted>
1.3599

> <Gold.Chemscore.Rot.Weighted>
7.1322

> <Gold.Chemscore.Internal.Correction.Weighted>
   9.000000E+99

> <Gold.Protein.RotatedTorsions>
[ 6907 6896 6895 6894 ] final  -56.54 input  -60.11 | X-H torsion
[ 7974 7965 7964 7962 ] final  140.92 input  175.53 | X-H torsion
[ 8008 7997 7996 7995 ] final  -16.89 input   59.86 | X-H torsion
[ 10167 10162 10161 10158 ] final -156.22 input  -65.29 | X-H torsion
[ 10718 10713 10712 10709 ] final -159.91 input   66.30 | X-H torsion
[ 10763 10752 10751 10750 ] final   67.23 input  -60.55 | X-H torsion
[ 11005 11000 10999 10996 ] final  114.67 input  -57.11 | X-H torsion

> <Gold.Protein.ActiveResidues>
 VAL166  LYS551  ARG553  GLY616  TRP617  ASP618  TYR619  PRO620  LYS621  CYS622 
 ASP623  PHE694  ASN695  SER759  ASP760  ASP761  ALA762  ILE779  LEU786  VAL792 
 PHE793  MET794  SER795  GLU796  ALA797  LYS798  CYS799  TRP800  GLU811  SER814 

> <Gold.Protein.RotatedAtoms>
  150.8159  134.7341  159.6729 H   0  0  0  0  0  0  0  0  0  0  0  0  # atno 6907 bound_to 6896
  152.4278  134.5833  159.9963 H   0  0  0  0  0  0  0  0  0  0  0  0  # atno 6908 bound_to 6896
  151.6030  133.3317  159.3087 H   0  0  0  0  0  0  0  0  0  0  0  0  # atno 6909 bound_to 6896
  144.9142  139.5252  143.5694 H   0  0  0  0  0  0  0  0  0  0  0  0  # atno 7974 bound_to 7965
  154.5019  140.2157  155.9330 H   0  0  0  0  0  0  0  0  0  0  0  0  # atno 8008 bound_to 7997
  156.1444  140.3173  155.8514 H   0  0  0  0  0  0  0  0  0  0  0  0  # atno 8009 bound_to 7997
  155.4058  140.0487  157.3025 H   0  0  0  0  0  0  0  0  0  0  0  0  # atno 8010 bound_to 7997
  139.6868  143.9488  152.2365 H   0  0  0  0  0  0  0  0  0  0  0  0  # atno 10167 bound_to 10162
  156.5747  130.8704  151.2848 H   0  0  0  0  0  0  0  0  0  0  0  0  # atno 10718 bound_to 10713
  153.0176  135.5292  154.6946 H   0  0  0  0  0  0  0  0  0  0  0  0  # atno 10763 bound_to 10752
  154.6072  135.2874  155.0474 H   0  0  0  0  0  0  0  0  0  0  0  0  # atno 10764 bound_to 10752
  154.1509  135.6563  153.5016 H   0  0  0  0  0  0  0  0  0  0  0  0  # atno 10765 bound_to 10752
  139.8987  134.9571  156.6927 H   0  0  0  0  0  0  0  0  0  0  0  0  # atno 11005 bound_to 11000
  146.3174  139.7973  142.8973 LP  0  0  0  0  0  0  0  0  0  0  0  0  # atno 17320 bound_to 7965
  145.3403  141.0286  143.3396 LP  0  0  0  0  0  0  0  0  0  0  0  0  # atno 17321 bound_to 7965
  139.9293  144.6751  150.8380 LP  0  0  0  0  0  0  0  0  0  0  0  0  # atno 17342 bound_to 10162
  140.7670  143.3320  151.2390 LP  0  0  0  0  0  0  0  0  0  0  0  0  # atno 17343 bound_to 10162
  157.7340  130.9739  150.2007 LP  0  0  0  0  0  0  0  0  0  0  0  0  # atno 17370 bound_to 10713
  156.2683  130.3719  149.8058 LP  0  0  0  0  0  0  0  0  0  0  0  0  # atno 17371 bound_to 10713
  140.7212  133.9139  155.8148 LP  0  0  0  0  0  0  0  0  0  0  0  0  # atno 17394 bound_to 11000
  141.0226  134.0868  157.4104 LP  0  0  0  0  0  0  0  0  0  0  0  0  # atno 17395 bound_to 11000

$$$$
