AV-unprocessed.smi:2224|AV-procd|sdf|8995|dock2
  -GOLD-   2272012203D 1   1.00000     0.00000
 Structure written by MMmdl.
 44 46  0  0  0  0  0  0  0  0  1 V2000
  153.9426  141.2765  159.7791 C   0  0  0  0  0  0  0  0  0  0  0  0
  152.9835  142.3678  159.3527 C   0  0  0  0  0  0  0  0  0  0  0  0
  152.9254  143.5925  160.0452 C   0  0  0  0  0  0  0  0  0  0  0  0
  152.0079  144.5646  159.6006 C   0  0  0  0  0  0  0  0  0  0  0  0
  151.8944  145.9044  160.2967 C   0  0  0  0  0  0  0  0  0  0  0  0
  151.1861  144.3748  158.5461 N   0  0  0  0  0  0  0  0  0  0  0  0
  151.2336  143.1994  157.8718 C   0  0  0  0  0  0  0  0  0  0  0  0
  150.4183  142.9028  156.7478 N   0  0  0  0  0  0  0  0  0  0  0  0
  150.0876  141.6957  156.2565 C   0  0  0  0  0  0  0  0  0  0  0  0
  150.4874  140.6145  156.6895 O   0  0  0  0  0  0  0  0  0  0  0  0
  149.2557  141.8096  155.2120 N   0  0  0  0  0  0  0  0  0  0  0  0
  148.7323  140.6848  154.4427 C   0  0  2  0  0  0  0  0  0  0  0  0
  147.3214  140.9574  153.8976 C   0  0  1  0  0  0  0  0  0  0  0  0
  147.0955  141.0545  152.4130 C   0  0  0  0  0  0  0  0  0  0  0  0
  146.6365  139.6409  152.0446 C   0  0  0  0  0  0  0  0  0  0  0  0
  147.1331  138.8167  153.0963 O   0  0  0  0  0  0  0  0  0  0  0  0
  146.9766  139.5368  154.3167 C   0  0  1  0  0  0  0  0  0  0  0  0
  148.1719  139.5148  155.2928 C   0  0  0  0  0  0  0  0  0  0  0  0
  149.0017  138.2296  155.3036 C   0  0  0  0  0  0  0  0  0  0  0  0
  147.7976  139.8117  156.7522 C   0  0  0  0  0  0  0  0  0  0  0  0
  152.1274  142.1726  158.2502 C   0  0  0  0  0  0  0  0  0  0  0  0
  154.4925  141.5598  160.6771 H   0  0  0  0  0  0  0  0  0  0  0  0
  154.6629  141.0756  158.9857 H   0  0  0  0  0  0  0  0  0  0  0  0
  153.3976  140.3562  159.9903 H   0  0  0  0  0  0  0  0  0  0  0  0
  153.5665  143.7822  160.8937 H   0  0  0  0  0  0  0  0  0  0  0  0
  152.5212  145.9411  161.1883 H   0  0  0  0  0  0  0  0  0  0  0  0
  150.8634  146.0905  160.5988 H   0  0  0  0  0  0  0  0  0  0  0  0
  152.2066  146.7061  159.6271 H   0  0  0  0  0  0  0  0  0  0  0  0
  150.0395  143.7030  156.2638 H   0  0  0  0  0  0  0  0  0  0  0  0
  148.9743  142.7340  154.9206 H   0  0  0  0  0  0  0  0  0  0  0  0
  149.4094  140.3375  153.6589 H   0  0  0  0  0  0  0  0  0  0  0  0
  146.7745  141.6921  154.4913 H   0  0  0  0  0  0  0  0  0  0  0  0
  146.3458  141.8009  152.1501 H   0  0  0  0  0  0  0  0  0  0  0  0
  148.0200  141.3100  151.8942 H   0  0  0  0  0  0  0  0  0  0  0  0
  145.5470  139.5828  152.0328 H   0  0  0  0  0  0  0  0  0  0  0  0
  147.0066  139.3168  151.0718 H   0  0  0  0  0  0  0  0  0  0  0  0
  145.9865  139.4315  154.7630 H   0  0  0  0  0  0  0  0  0  0  0  0
  148.4301  137.3873  155.6946 H   0  0  0  0  0  0  0  0  0  0  0  0
  149.8967  138.3358  155.9175 H   0  0  0  0  0  0  0  0  0  0  0  0
  149.3337  137.9565  154.3016 H   0  0  0  0  0  0  0  0  0  0  0  0
  147.1985  139.0072  157.1799 H   0  0  0  0  0  0  0  0  0  0  0  0
  147.2129  140.7274  156.8429 H   0  0  0  0  0  0  0  0  0  0  0  0
  148.6817  139.9279  157.3801 H   0  0  0  0  0  0  0  0  0  0  0  0
  152.1566  141.2408  157.7038 H   0  0  0  0  0  0  0  0  0  0  0  0
  1  2  1  0  0  0  0
  1 22  1  0  0  0  0
  1 23  1  0  0  0  0
  1 24  1  0  0  0  0
  2 21  1  0  0  0  0
  2  3  2  0  0  0  0
  3  4  1  0  0  0  0
  3 25  1  0  0  0  0
  4  5  1  0  0  0  0
  4  6  2  0  0  0  0
  5 26  1  0  0  0  0
  5 27  1  0  0  0  0
  5 28  1  0  0  0  0
  6  7  1  0  0  0  0
  7  8  1  0  0  0  0
  7 21  2  0  0  0  0
  8  9  1  0  0  0  0
  8 29  1  0  0  0  0
  9 10  2  0  0  0  0
  9 11  1  0  0  0  0
 11 12  1  0  0  0  0
 11 30  1  0  0  0  0
 12 18  1  0  0  0  0
 12 13  1  0  0  0  0
 12 31  1  0  0  0  0
 13 17  1  0  0  0  0
 13 14  1  0  0  0  0
 13 32  1  0  0  0  0
 14 15  1  0  0  0  0
 14 33  1  0  0  0  0
 14 34  1  0  0  0  0
 15 16  1  0  0  0  0
 15 35  1  0  0  0  0
 15 36  1  0  0  0  0
 16 17  1  0  0  0  0
 17 18  1  0  0  0  0
 17 37  1  0  0  0  0
 18 19  1  0  0  0  0
 18 20  1  0  0  0  0
 19 38  1  0  0  0  0
 19 39  1  0  0  0  0
 19 40  1  0  0  0  0
 20 41  1  0  0  0  0
 20 42  1  0  0  0  0
 20 43  1  0  0  0  0
 21 44  1  0  0  0  0
M  END
> <s_m_source_file>
AV-unprocessed.smi

> <i_m_source_file_index>
2224

> <i_lp_mmshare_version>
43012

> <i_f3d_flags>
0

> <s_epik_input>
W0NIM11jMVtjSF1jKFtDSDNdKW5jKFtjSF0xKVtOSF1DKD1PKVtOSF1bQ0BIXTJDKFtDSDNdKShbQ0gzXSlbQ0BIXShbQ0BASF0yMylPW0NIMl1bQ0gyXTM=

> <s_epik_cmdline>
J2VwaWtfcHl0aG9uJywgJy1waCcsICc3LjAnLCAnLXRuJywgJzgnLCAnLW1hJywgJzIwMCcsICctbWV0YWxfYmluZGluZycsICctaW1hZScsICc8aW5maWxlLm1hZT4nLCAnLW9tYWUnLCAnPG91dGZpbGUubWFlPic=

> <r_lp_tautomer_probability>
1

> <r_epik_Ionization_Penalty>
0.000276544

> <r_epik_Ionization_Penalty_Charging>
0

> <r_epik_Ionization_Penalty_Neutral>
0.000276544

> <r_epik_State_Penalty>
-0

> <r_epik_Charging_Adjusted_Penalty>
0

> <i_epik_Tot_Q>
0

> <i_epik_Tot_abs_Q>
0

> <r_epik_Metal_State_Penalty>
-0

> <b_epik_Metal_Only>
0

> <s_lp_Force_Field>
OPLS_2005

> <r_lp_Energy>
38.5894

> <b_lp_Chiralities_Consistent>
1

> <s_lp_Variant>
AV-unprocessed.smi:2224-5

> <Gold.Version>
5.8.1

> <Gold.Id.Protein>
6NUR|6NUR_protein|mol2

> <Gold.PLP.Fitness>
40.3216

> <Gold.PLP.PLP>
-35.9022

> <Gold.PLP.part.hbond>
-2.0000

> <Gold.PLP.part.metal>
0.0000

> <Gold.PLP.part.buried>
-2.9899

> <Gold.PLP.part.nonpolar>
-31.8138

> <Gold.PLP.part.repulsive>
0.6223

> <Gold.PLP.ligand.clash>
0.0617

> <Gold.PLP.ligand.torsion>
0.3608

> <Gold.PLP.Chemscore.Hbond>
1.6760

> <Gold.PLP.Chemscore.CHOScore>
0.0000

> <Gold.PLP.Chemscore.Metal>
0.0000

> <Gold.Chemscore.Hbonds>
donor molecule, donor type, donor heavy atom, donor atom, acceptor molecule, acceptor atom, score
      L1  H     8    29       P1  8028  1.00
      L1  H    11    30       P1  8028  0.68

> <Gold.PLP.Chemscore.Internal.Correction>
0.1749

> <Gold.Rescore>
     Score         DG    S(hbond)    S(metal)    S(lipo)     H(rot)  DE(clash)    DE(int)     intcor
     16.57     -19.63       1.52        0.00      99.54       1.00       1.38       1.68       ----

> <Gold.Chemscore.Fitness>
16.5681

> <Gold.Chemscore.DG>
-19.6315

> <Gold.Chemscore.ZeroCoef>
-5.4800

> <Gold.Chemscore.Hbond>
1.5166

> <Gold.Chemscore.Metal>
0.0000

> <Gold.Chemscore.Lipo>
99.5383

> <Gold.Chemscore.Internal_Hbond>
0.0000

> <Gold.Chemscore.DEClash>
1.3787

> <Gold.Chemscore.DEInternal>
1.6847

> <Gold.Chemscore.Rot>
1.0000

> <Gold.Chemscore.Internal.Correction>
   9.000000E+99

> <Gold.Chemscore.Hbonds>
donor molecule, donor type, donor heavy atom, donor atom, acceptor molecule, acceptor atom, score
      L1  H     8    29       P1  8028  0.99
      L1  H    11    30       P1  8028  0.65

> <Gold.Chemscore.Hbond.Weighted>
-5.0655

> <Gold.Chemscore.Metal.Weighted>
-0.0000

> <Gold.Chemscore.Lipo.Weighted>
-11.6460

> <Gold.Chemscore.Internal_Hbond.Weighted>
0.0000

> <Gold.Chemscore.DEClash.Weighted>
1.3787

> <Gold.Chemscore.DEInternal.Weighted>
1.6847

> <Gold.Chemscore.Rot.Weighted>
2.5600

> <Gold.Chemscore.Internal.Correction.Weighted>
   9.000000E+99

> <Gold.Protein.RotatedTorsions>
[ 6907 6896 6895 6894 ] final   51.45 input  -60.11 | X-H torsion
[ 7974 7965 7964 7962 ] final   87.03 input  175.53 | X-H torsion
[ 8008 7997 7996 7995 ] final  173.95 input   59.86 | X-H torsion
[ 10167 10162 10161 10158 ] final -151.15 input  -65.29 | X-H torsion
[ 10718 10713 10712 10709 ] final  100.71 input   66.30 | X-H torsion
[ 10763 10752 10751 10750 ] final -109.73 input  -60.55 | X-H torsion
[ 11005 11000 10999 10996 ] final  -66.38 input  -57.11 | X-H torsion

> <Gold.Protein.ActiveResidues>
 VAL166  LYS551  ARG553  GLY616  TRP617  ASP618  TYR619  PRO620  LYS621  CYS622 
 ASP623  PHE694  ASN695  SER759  ASP760  ASP761  ALA762  ILE779  LEU786  VAL792 
 PHE793  MET794  SER795  GLU796  ALA797  LYS798  CYS799  TRP800  GLU811  SER814 

> <Gold.Protein.RotatedAtoms>
  152.3128  134.7477  160.0332 H   0  0  0  0  0  0  0  0  0  0  0  0  # atno 6907 bound_to 6896
  151.7952  133.3358  159.3518 H   0  0  0  0  0  0  0  0  0  0  0  0  # atno 6908 bound_to 6896
  150.7329  134.5736  159.5947 H   0  0  0  0  0  0  0  0  0  0  0  0  # atno 6909 bound_to 6896
  145.5645  139.2307  143.2441 H   0  0  0  0  0  0  0  0  0  0  0  0  # atno 7974 bound_to 7965
  156.1023  140.1447  156.9450 H   0  0  0  0  0  0  0  0  0  0  0  0  # atno 8008 bound_to 7997
  154.4711  140.0909  156.7191 H   0  0  0  0  0  0  0  0  0  0  0  0  # atno 8009 bound_to 7997
  155.4738  140.3442  155.4332 H   0  0  0  0  0  0  0  0  0  0  0  0  # atno 8010 bound_to 7997
  139.7292  143.8835  152.2529 H   0  0  0  0  0  0  0  0  0  0  0  0  # atno 10167 bound_to 10162
  157.6847  131.0706  150.5142 H   0  0  0  0  0  0  0  0  0  0  0  0  # atno 10718 bound_to 10713
  154.8209  135.4590  154.0777 H   0  0  0  0  0  0  0  0  0  0  0  0  # atno 10763 bound_to 10752
  153.2131  135.6884  153.8096 H   0  0  0  0  0  0  0  0  0  0  0  0  # atno 10764 bound_to 10752
  153.7540  135.3294  155.3302 H   0  0  0  0  0  0  0  0  0  0  0  0  # atno 10765 bound_to 10752
  141.1480  133.6698  156.6131 H   0  0  0  0  0  0  0  0  0  0  0  0  # atno 11005 bound_to 11000
  146.1828  140.6470  142.9181 LP  0  0  0  0  0  0  0  0  0  0  0  0  # atno 17320 bound_to 7965
  144.7467  140.5086  143.6830 LP  0  0  0  0  0  0  0  0  0  0  0  0  # atno 17321 bound_to 7965
  139.8753  144.7046  150.8940 LP  0  0  0  0  0  0  0  0  0  0  0  0  # atno 17342 bound_to 10162
  140.7768  143.3705  151.1659 LP  0  0  0  0  0  0  0  0  0  0  0  0  # atno 17343 bound_to 10162
  156.5458  130.4219  149.6131 LP  0  0  0  0  0  0  0  0  0  0  0  0  # atno 17370 bound_to 10713
  156.2945  130.7143  151.2000 LP  0  0  0  0  0  0  0  0  0  0  0  0  # atno 17371 bound_to 10713
  140.3599  134.7697  157.4526 LP  0  0  0  0  0  0  0  0  0  0  0  0  # atno 17394 bound_to 11000
  140.0793  134.5753  155.8557 LP  0  0  0  0  0  0  0  0  0  0  0  0  # atno 17395 bound_to 11000

$$$$
