AV-unprocessed.smi:3047|AV-procd|sdf|11622|dock4
  -GOLD-   2272017 03D 1   1.00000     0.00000
 Structure written by MMmdl.
 38 39  0  0  0  0  0  0  0  0  2 V2000
  149.6560  130.2730  159.1273 C   0  0  0  0  0  0  0  0  0  0  0  0
  149.7211  131.5332  157.7873 S   0  0  0  0  0  0  0  0  0  0  0  0
  148.3606  132.0565  157.5913 O   0  0  0  0  0  0  0  0  0  0  0  0
  150.8325  132.4573  158.0614 O   0  0  0  0  0  0  0  0  0  0  0  0
  150.1254  130.6013  156.3802 N   0  0  0  0  0  0  0  0  0  0  0  0
  151.4637  130.0567  156.1654 C   0  0  0  0  0  0  0  0  0  0  0  0
  151.3060  129.1446  154.9525 C   0  0  0  0  0  0  0  0  0  0  0  0
  150.2027  129.8091  154.1333 C   0  0  0  0  0  0  0  0  0  0  0  0
  149.2845  130.4835  155.1751 C   0  0  2  0  0  0  0  0  0  0  0  0
  148.6882  131.8025  154.6585 C   0  0  0  0  0  0  0  0  0  0  0  0
  148.8614  132.8554  155.2734 O   0  0  0  0  0  0  0  0  0  0  0  0
  147.9595  131.7258  153.5360 N   0  0  0  0  0  0  0  0  0  0  0  0
  147.2609  132.8499  152.9312 C   0  0  0  0  0  0  0  0  0  0  0  0
  146.5694  132.4177  151.6317 C   0  0  0  0  0  0  0  0  0  0  0  0
  145.6427  133.4415  151.1470 N   0  0  0  0  0  0  0  0  0  0  0  0
  145.9150  134.7636  150.9064 C   0  0  0  0  0  0  0  0  0  0  0  0
  144.7442  135.3305  150.4721 C   0  0  0  0  0  0  0  0  0  0  0  0
  143.8079  134.3312  150.4667 N   0  3  0  0  0  0  0  0  0  0  0  0
  144.3563  133.1832  150.8785 C   0  0  0  0  0  0  0  0  0  0  0  0
  149.3186  130.7469  160.0486 H   0  0  0  0  0  0  0  0  0  0  0  0
  150.6435  129.8451  159.2897 H   0  0  0  0  0  0  0  0  0  0  0  0
  148.9573  129.4834  158.8525 H   0  0  0  0  0  0  0  0  0  0  0  0
  152.1539  130.8750  155.9566 H   0  0  0  0  0  0  0  0  0  0  0  0
  151.8163  129.5163  157.0441 H   0  0  0  0  0  0  0  0  0  0  0  0
  152.2335  129.0216  154.3930 H   0  0  0  0  0  0  0  0  0  0  0  0
  150.9768  128.1570  155.2779 H   0  0  0  0  0  0  0  0  0  0  0  0
  150.6553  130.5320  153.4532 H   0  0  0  0  0  0  0  0  0  0  0  0
  149.6646  129.0839  153.5220 H   0  0  0  0  0  0  0  0  0  0  0  0
  148.4716  129.7974  155.4190 H   0  0  0  0  0  0  0  0  0  0  0  0
  147.8542  130.8225  153.0964 H   0  0  0  0  0  0  0  0  0  0  0  0
  146.5227  133.2372  153.6357 H   0  0  0  0  0  0  0  0  0  0  0  0
  147.9720  133.6532  152.7322 H   0  0  0  0  0  0  0  0  0  0  0  0
  147.3030  132.2307  150.8462 H   0  0  0  0  0  0  0  0  0  0  0  0
  146.0101  131.4919  151.7778 H   0  0  0  0  0  0  0  0  0  0  0  0
  146.8953  135.1917  151.0587 H   0  0  0  0  0  0  0  0  0  0  0  0
  144.5133  136.3432  150.1749 H   0  0  0  0  0  0  0  0  0  0  0  0
  143.8575  132.2352  150.9759 H   0  0  0  0  0  0  0  0  0  0  0  0
  142.8400  134.4424  150.1912 H   0  0  0  0  0  0  0  0  0  0  0  0
  1  2  1  0  0  0  0
  1 20  1  0  0  0  0
  1 21  1  0  0  0  0
  1 22  1  0  0  0  0
  2  3  2  0  0  0  0
  2  4  2  0  0  0  0
  2  5  1  0  0  0  0
  5  9  1  0  0  0  0
  5  6  1  0  0  0  0
  6  7  1  0  0  0  0
  6 23  1  0  0  0  0
  6 24  1  0  0  0  0
  7  8  1  0  0  0  0
  7 25  1  0  0  0  0
  7 26  1  0  0  0  0
  8  9  1  0  0  0  0
  8 27  1  0  0  0  0
  8 28  1  0  0  0  0
  9 10  1  0  0  0  0
  9 29  1  0  0  0  0
 10 11  2  0  0  0  0
 10 12  1  0  0  0  0
 12 13  1  0  0  0  0
 12 30  1  0  0  0  0
 13 14  1  0  0  0  0
 13 31  1  0  0  0  0
 13 32  1  0  0  0  0
 14 15  1  0  0  0  0
 14 33  1  0  0  0  0
 14 34  1  0  0  0  0
 15 19  1  0  0  0  0
 15 16  1  0  0  0  0
 16 17  2  0  0  0  0
 16 35  1  0  0  0  0
 17 18  1  0  0  0  0
 17 36  1  0  0  0  0
 18 19  2  0  0  0  0
 18 38  1  0  0  0  0
 19 37  1  0  0  0  0
M  CHG  1  18   1
M  END
> <s_m_source_file>
AV-unprocessed.smi

> <i_m_source_file_index>
3047

> <i_lp_mmshare_version>
43012

> <i_f3d_flags>
0

> <s_epik_input>
W0NIM11TKD1PKSg9TylOMVtDSDJdW0NIMl1bQ0gyXVtDQEhdMUMoPU8pW05IXVtDSDJdW0NIMl1uMltjSF1bY0hdbltjSF0y

> <s_epik_cmdline>
J2VwaWtfcHl0aG9uJywgJy1waCcsICc3LjAnLCAnLXRuJywgJzgnLCAnLW1hJywgJzIwMCcsICctbWV0YWxfYmluZGluZycsICctaW1hZScsICc8aW5maWxlLm1hZT4nLCAnLW9tYWUnLCAnPG91dGZpbGUubWFlPic=

> <r_lp_tautomer_probability>
1

> <r_epik_Ionization_Penalty>
0.281738

> <r_epik_Ionization_Penalty_Charging>
0

> <r_epik_Ionization_Penalty_Neutral>
0.281738

> <r_epik_State_Penalty>
0.274352

> <r_epik_Charging_Adjusted_Penalty>
0.274352

> <i_epik_Tot_Q>
1

> <i_epik_Tot_abs_Q>
1

> <r_epik_Metal_State_Penalty>
0.555562

> <b_epik_Metal_Only>
0

> <s_lp_Force_Field>
OPLS_2005

> <r_lp_Energy>
11.563

> <b_lp_Chiralities_Consistent>
1

> <s_lp_Variant>
AV-unprocessed.smi:3047-2

> <Gold.Version>
5.8.1

> <Gold.Id.Protein>
6NUR|6NUR_protein|mol2

> <Gold.PLP.Fitness>
40.7896

> <Gold.PLP.PLP>
-29.0481

> <Gold.PLP.part.hbond>
-2.0000

> <Gold.PLP.part.metal>
0.0000

> <Gold.PLP.part.buried>
-3.8579

> <Gold.PLP.part.nonpolar>
-23.0623

> <Gold.PLP.part.repulsive>
0.0376

> <Gold.PLP.ligand.clash>
0.0000

> <Gold.PLP.ligand.torsion>
1.1414

> <Gold.PLP.Chemscore.Hbond>
2.9920

> <Gold.PLP.Chemscore.CHOScore>
1.0000

> <Gold.PLP.Chemscore.Metal>
0.0000

> <Gold.Chemscore.Hbonds>
donor molecule, donor type, donor heavy atom, donor atom, acceptor molecule, acceptor atom, score
      L1  H    18    38       P1 10186  2.00
      P1  H  6896  6908       L1     4  1.00
      L1  C    16    35       P1  7948  1.00

> <Gold.PLP.Chemscore.Internal.Correction>
2.0482

> <Gold.Rescore>
     Score         DG    S(hbond)    S(metal)    S(lipo)     H(rot)  DE(clash)    DE(int)     intcor
      8.04     -12.27       1.95        0.00      48.17       2.10       0.62       3.61       ----

> <Gold.Chemscore.Fitness>
8.0371

> <Gold.Chemscore.DG>
-12.2681

> <Gold.Chemscore.ZeroCoef>
-5.4800

> <Gold.Chemscore.Hbond>
1.9511

> <Gold.Chemscore.Metal>
0.0000

> <Gold.Chemscore.Lipo>
48.1677

> <Gold.Chemscore.Internal_Hbond>
0.0000

> <Gold.Chemscore.DEClash>
0.6220

> <Gold.Chemscore.DEInternal>
3.6091

> <Gold.Chemscore.Rot>
2.0954

> <Gold.Chemscore.Internal.Correction>
   9.000000E+99

> <Gold.Chemscore.Hbonds>
donor molecule, donor type, donor heavy atom, donor atom, acceptor molecule, acceptor atom, score
      L1  H    18    38       P1 10186  0.78
      P1  H  6896  6908       L1     4  0.96

> <Gold.Chemscore.Hbond.Weighted>
-6.5168

> <Gold.Chemscore.Metal.Weighted>
-0.0000

> <Gold.Chemscore.Lipo.Weighted>
-5.6356

> <Gold.Chemscore.Internal_Hbond.Weighted>
0.0000

> <Gold.Chemscore.DEClash.Weighted>
0.6220

> <Gold.Chemscore.DEInternal.Weighted>
3.6091

> <Gold.Chemscore.Rot.Weighted>
5.3643

> <Gold.Chemscore.Internal.Correction.Weighted>
   9.000000E+99

> <Gold.Protein.RotatedTorsions>
[ 6907 6896 6895 6894 ] final   69.02 input  -60.11 | X-H torsion
[ 7974 7965 7964 7962 ] final  150.35 input  175.53 | X-H torsion
[ 8008 7997 7996 7995 ] final -101.62 input   59.86 | X-H torsion
[ 10167 10162 10161 10158 ] final   85.46 input  -65.29 | X-H torsion
[ 10718 10713 10712 10709 ] final  161.68 input   66.30 | X-H torsion
[ 10763 10752 10751 10750 ] final  146.09 input  -60.55 | X-H torsion
[ 11005 11000 10999 10996 ] final  160.67 input  -57.11 | X-H torsion

> <Gold.Protein.ActiveResidues>
 VAL166  LYS551  ARG553  GLY616  TRP617  ASP618  TYR619  PRO620  LYS621  CYS622 
 ASP623  PHE694  ASN695  SER759  ASP760  ASP761  ALA762  ILE779  LEU786  VAL792 
 PHE793  MET794  SER795  GLU796  ALA797  LYS798  CYS799  TRP800  GLU811  SER814 

> <Gold.Protein.RotatedAtoms>
  152.4659  134.5076  159.9743 H   0  0  0  0  0  0  0  0  0  0  0  0  # atno 6907 bound_to 6896
  151.5114  133.3478  159.2893 H   0  0  0  0  0  0  0  0  0  0  0  0  # atno 6908 bound_to 6896
  150.8643  134.8031  159.7169 H   0  0  0  0  0  0  0  0  0  0  0  0  # atno 6909 bound_to 6896
  144.8371  139.6397  143.6033 H   0  0  0  0  0  0  0  0  0  0  0  0  # atno 7974 bound_to 7965
  154.8452  140.0433  157.1567 H   0  0  0  0  0  0  0  0  0  0  0  0  # atno 8008 bound_to 7997
  154.9003  140.2999  155.5301 H   0  0  0  0  0  0  0  0  0  0  0  0  # atno 8009 bound_to 7997
  156.2994  140.2377  156.4030 H   0  0  0  0  0  0  0  0  0  0  0  0  # atno 8010 bound_to 7997
  139.8975  144.6349  150.8672 H   0  0  0  0  0  0  0  0  0  0  0  0  # atno 10167 bound_to 10162
  157.1331  131.0522  151.2362 H   0  0  0  0  0  0  0  0  0  0  0  0  # atno 10718 bound_to 10713
  154.0162  135.2910  155.3386 H   0  0  0  0  0  0  0  0  0  0  0  0  # atno 10763 bound_to 10752
  154.7074  135.5163  153.8618 H   0  0  0  0  0  0  0  0  0  0  0  0  # atno 10764 bound_to 10752
  153.0701  135.6645  154.0388 H   0  0  0  0  0  0  0  0  0  0  0  0  # atno 10765 bound_to 10752
  140.2082  134.8287  157.3092 H   0  0  0  0  0  0  0  0  0  0  0  0  # atno 11005 bound_to 11000
  146.2668  139.6539  142.9324 LP  0  0  0  0  0  0  0  0  0  0  0  0  # atno 17320 bound_to 7965
  145.4772  141.0437  143.2666 LP  0  0  0  0  0  0  0  0  0  0  0  0  # atno 17321 bound_to 7965
  140.7714  143.3462  151.2107 LP  0  0  0  0  0  0  0  0  0  0  0  0  # atno 17342 bound_to 10162
  139.7054  143.9463  152.2924 LP  0  0  0  0  0  0  0  0  0  0  0  0  # atno 17343 bound_to 10162
  157.4374  130.7525  149.7040 LP  0  0  0  0  0  0  0  0  0  0  0  0  # atno 17370 bound_to 10713
  155.9804  130.4030  150.3533 LP  0  0  0  0  0  0  0  0  0  0  0  0  # atno 17371 bound_to 10713
  140.1979  134.4291  155.7679 LP  0  0  0  0  0  0  0  0  0  0  0  0  # atno 17394 bound_to 11000
  141.2226  133.7058  156.8135 LP  0  0  0  0  0  0  0  0  0  0  0  0  # atno 17395 bound_to 11000

$$$$
