AV-unprocessed.smi:1454|AV-procd|sdf|5913|dock2
  -GOLD-   22720 5593D 1   1.00000     0.00000
 Structure written by MMmdl.
 44 45  0  0  0  0  0  0  0  0  1 V2000
  150.9947  139.4076  154.3167 O   0  0  0  0  0  0  0  0  0  0  0  0
  150.3733  139.5525  155.3701 C   0  0  0  0  0  0  0  0  0  0  0  0
  150.8522  138.8824  156.6624 C   0  0  0  0  0  0  0  0  0  0  0  0
  150.4636  139.6631  157.9338 C   0  0  0  0  0  0  0  0  0  0  0  0
  151.3815  140.7674  158.1889 N   0  0  0  0  0  0  0  0  0  0  0  0
  151.0215  141.9927  158.6011 C   0  0  0  0  0  0  0  0  0  0  0  0
  149.8507  142.3193  158.8000 O   0  0  0  0  0  0  0  0  0  0  0  0
  152.1607  143.0021  158.8195 C   0  0  0  0  0  0  0  0  0  0  0  0
  152.2331  143.4857  160.2872 C   0  0  0  0  0  0  0  0  0  0  0  0
  152.0265  145.0056  160.2690 C   0  0  0  0  0  0  0  0  0  0  0  0
  151.3490  145.3040  158.9347 C   0  0  0  0  0  0  0  0  0  0  0  0
  151.9589  144.2786  157.9804 C   0  0  0  0  0  0  0  0  0  0  0  0
  149.2628  140.2975  155.4669 N   0  0  0  0  0  0  0  0  0  0  0  0
  148.6637  141.0264  154.3573 C   0  0  0  0  0  0  0  0  0  0  0  0
  147.1484  140.7898  154.3079 C   0  0  0  0  0  0  0  0  0  0  0  0
  146.7801  139.6473  153.3820 C   0  0  0  0  0  0  0  0  0  0  0  0
  146.1253  138.4989  153.8728 C   0  0  0  0  0  0  0  0  0  0  0  0
  145.8102  137.4618  152.9738 C   0  0  0  0  0  0  0  0  0  0  0  0
  146.1653  137.6177  151.6189 C   0  0  0  0  0  0  0  0  0  0  0  0
  146.7925  138.7127  151.1378 N   0  0  0  0  0  0  0  0  0  0  0  0
  147.0907  139.7026  152.0066 C   0  0  0  0  0  0  0  0  0  0  0  0
  150.4314  137.8771  156.7005 H   0  0  0  0  0  0  0  0  0  0  0  0
  151.9361  138.7663  156.6179 H   0  0  0  0  0  0  0  0  0  0  0  0
  149.4412  140.0381  157.8601 H   0  0  0  0  0  0  0  0  0  0  0  0
  150.4919  139.0064  158.8040 H   0  0  0  0  0  0  0  0  0  0  0  0
  152.3649  140.5841  158.0502 H   0  0  0  0  0  0  0  0  0  0  0  0
  153.1056  142.5353  158.5361 H   0  0  0  0  0  0  0  0  0  0  0  0
  151.4655  143.0187  160.9073 H   0  0  0  0  0  0  0  0  0  0  0  0
  153.1924  143.2334  160.7401 H   0  0  0  0  0  0  0  0  0  0  0  0
  151.4445  145.3594  161.1207 H   0  0  0  0  0  0  0  0  0  0  0  0
  152.9960  145.5047  160.3025 H   0  0  0  0  0  0  0  0  0  0  0  0
  150.2739  145.1404  159.0197 H   0  0  0  0  0  0  0  0  0  0  0  0
  151.5056  146.3311  158.6046 H   0  0  0  0  0  0  0  0  0  0  0  0
  152.9271  144.6379  157.6293 H   0  0  0  0  0  0  0  0  0  0  0  0
  151.3366  144.1264  157.0971 H   0  0  0  0  0  0  0  0  0  0  0  0
  148.8080  140.3675  156.3659 H   0  0  0  0  0  0  0  0  0  0  0  0
  148.8709  142.0918  154.4708 H   0  0  0  0  0  0  0  0  0  0  0  0
  149.1256  140.7046  153.4225 H   0  0  0  0  0  0  0  0  0  0  0  0
  146.7694  140.5737  155.3076 H   0  0  0  0  0  0  0  0  0  0  0  0
  146.6385  141.6943  153.9730 H   0  0  0  0  0  0  0  0  0  0  0  0
  145.8710  138.4116  154.9189 H   0  0  0  0  0  0  0  0  0  0  0  0
  145.3097  136.5675  153.3142 H   0  0  0  0  0  0  0  0  0  0  0  0
  145.9406  136.8414  150.9027 H   0  0  0  0  0  0  0  0  0  0  0  0
  147.5947  140.5631  151.5915 H   0  0  0  0  0  0  0  0  0  0  0  0
  1  2  2  0  0  0  0
  2  3  1  0  0  0  0
  2 13  1  0  0  0  0
  3  4  1  0  0  0  0
  3 22  1  0  0  0  0
  3 23  1  0  0  0  0
  4  5  1  0  0  0  0
  4 24  1  0  0  0  0
  4 25  1  0  0  0  0
  5  6  1  0  0  0  0
  5 26  1  0  0  0  0
  6  7  2  0  0  0  0
  6  8  1  0  0  0  0
  8 12  1  0  0  0  0
  8  9  1  0  0  0  0
  8 27  1  0  0  0  0
  9 10  1  0  0  0  0
  9 28  1  0  0  0  0
  9 29  1  0  0  0  0
 10 11  1  0  0  0  0
 10 30  1  0  0  0  0
 10 31  1  0  0  0  0
 11 12  1  0  0  0  0
 11 32  1  0  0  0  0
 11 33  1  0  0  0  0
 12 34  1  0  0  0  0
 12 35  1  0  0  0  0
 13 14  1  0  0  0  0
 13 36  1  0  0  0  0
 14 15  1  0  0  0  0
 14 37  1  0  0  0  0
 14 38  1  0  0  0  0
 15 16  1  0  0  0  0
 15 39  1  0  0  0  0
 15 40  1  0  0  0  0
 16 21  1  0  0  0  0
 16 17  2  0  0  0  0
 17 18  1  0  0  0  0
 17 41  1  0  0  0  0
 18 19  2  0  0  0  0
 18 42  1  0  0  0  0
 19 20  1  0  0  0  0
 19 43  1  0  0  0  0
 20 21  2  0  0  0  0
 21 44  1  0  0  0  0
M  END
> <s_m_source_file>
AV-unprocessed.smi

> <i_m_source_file_index>
1454

> <i_lp_mmshare_version>
43012

> <i_f3d_flags>
0

> <s_epik_input>
W2NIXTFuW2NIXVtjSF1bY0hdYzFbQ0gyXVtDSDJdW05IXUMoPU8pW0NIMl1bQ0gyXVtOSF1DKD1PKVtDSF0yW0NIMl1bQ0gyXVtDSDJdW0NIMl0y

> <s_epik_cmdline>
J2VwaWtfcHl0aG9uJywgJy1waCcsICc3LjAnLCAnLXRuJywgJzgnLCAnLW1hJywgJzIwMCcsICctbWV0YWxfYmluZGluZycsICctaW1hZScsICc8aW5maWxlLm1hZT4nLCAnLW9tYWUnLCAnPG91dGZpbGUubWFlPic=

> <r_epik_Ionization_Penalty>
0.013238

> <r_epik_Ionization_Penalty_Charging>
0

> <r_epik_Ionization_Penalty_Neutral>
0.013238

> <r_epik_State_Penalty>
0.0102918

> <r_epik_Charging_Adjusted_Penalty>
0.0102918

> <i_epik_Tot_Q>
0

> <i_epik_Tot_abs_Q>
0

> <r_epik_Metal_State_Penalty>
0.0100665

> <b_epik_Metal_Only>
0

> <s_lp_Force_Field>
OPLS_2005

> <r_lp_Energy>
20.9977

> <b_lp_Chiralities_Consistent>
1

> <s_lp_Variant>
AV-unprocessed.smi:1454-1

> <Gold.Version>
5.8.1

> <Gold.Id.Protein>
6NUR|6NUR_protein|mol2

> <Gold.PLP.Fitness>
46.0644

> <Gold.PLP.PLP>
-39.9476

> <Gold.PLP.part.hbond>
-2.7736

> <Gold.PLP.part.metal>
0.0000

> <Gold.PLP.part.buried>
-0.7837

> <Gold.PLP.part.nonpolar>
-38.0362

> <Gold.PLP.part.repulsive>
1.2386

> <Gold.PLP.ligand.clash>
0.0000

> <Gold.PLP.ligand.torsion>
0.9221

> <Gold.PLP.Chemscore.Hbond>
1.9920

> <Gold.PLP.Chemscore.CHOScore>
0.5880

> <Gold.PLP.Chemscore.Metal>
0.0000

> <Gold.Chemscore.Hbonds>
donor molecule, donor type, donor heavy atom, donor atom, acceptor molecule, acceptor atom, score
      P1  H  7954  7966       L1    20  0.98
      P1  H  7989  7998       L1     1  1.00
      L1  C    19    43       P1 10171  0.01
      L1  C    21    44       P1  7957  0.59

> <Gold.PLP.Chemscore.Internal.Correction>
0.2211

> <Gold.Rescore>
     Score         DG    S(hbond)    S(metal)    S(lipo)     H(rot)  DE(clash)    DE(int)     intcor
     16.17     -18.91       1.72        0.00     111.40       2.10       1.76       0.97       ----

> <Gold.Chemscore.Fitness>
16.1727

> <Gold.Chemscore.DG>
-18.9064

> <Gold.Chemscore.ZeroCoef>
-5.4800

> <Gold.Chemscore.Hbond>
1.7240

> <Gold.Chemscore.Metal>
0.0000

> <Gold.Chemscore.Lipo>
111.4033

> <Gold.Chemscore.Internal_Hbond>
0.0000

> <Gold.Chemscore.DEClash>
1.7594

> <Gold.Chemscore.DEInternal>
0.9743

> <Gold.Chemscore.Rot>
2.0961

> <Gold.Chemscore.Internal.Correction>
   9.000000E+99

> <Gold.Chemscore.Hbonds>
donor molecule, donor type, donor heavy atom, donor atom, acceptor molecule, acceptor atom, score
      P1  H  7954  7966       L1    20  0.30
      P1  H  7989  7998       L1     1  0.97

> <Gold.Chemscore.Hbond.Weighted>
-5.7582

> <Gold.Chemscore.Metal.Weighted>
-0.0000

> <Gold.Chemscore.Lipo.Weighted>
-13.0342

> <Gold.Chemscore.Internal_Hbond.Weighted>
0.0000

> <Gold.Chemscore.DEClash.Weighted>
1.7594

> <Gold.Chemscore.DEInternal.Weighted>
0.9743

> <Gold.Chemscore.Rot.Weighted>
5.3660

> <Gold.Chemscore.Internal.Correction.Weighted>
   9.000000E+99

> <Gold.Protein.RotatedTorsions>
[ 6907 6896 6895 6894 ] final -109.33 input  -60.11 | X-H torsion
[ 7974 7965 7964 7962 ] final -160.10 input  175.53 | X-H torsion
[ 8008 7997 7996 7995 ] final    4.67 input   59.86 | X-H torsion
[ 10167 10162 10161 10158 ] final  -46.65 input  -65.29 | X-H torsion
[ 10718 10713 10712 10709 ] final  -78.93 input   66.30 | X-H torsion
[ 10763 10752 10751 10750 ] final   73.19 input  -60.55 | X-H torsion
[ 11005 11000 10999 10996 ] final  -23.40 input  -57.11 | X-H torsion

> <Gold.Protein.ActiveResidues>
 VAL166  LYS551  ARG553  GLY616  TRP617  ASP618  TYR619  PRO620  LYS621  CYS622 
 ASP623  PHE694  ASN695  SER759  ASP760  ASP761  ALA762  ILE779  LEU786  VAL792 
 PHE793  MET794  SER795  GLU796  ALA797  LYS798  CYS799  TRP800  GLU811  SER814 

> <Gold.Protein.RotatedAtoms>
  150.7556  133.9545  159.3495 H   0  0  0  0  0  0  0  0  0  0  0  0  # atno 6907 bound_to 6896
  151.7465  135.0840  160.0333 H   0  0  0  0  0  0  0  0  0  0  0  0  # atno 6908 bound_to 6896
  152.3494  133.6124  159.5970 H   0  0  0  0  0  0  0  0  0  0  0  0  # atno 6909 bound_to 6896
  144.7440  140.3590  143.6100 H   0  0  0  0  0  0  0  0  0  0  0  0  # atno 7974 bound_to 7965
  154.7188  140.2707  155.6561 H   0  0  0  0  0  0  0  0  0  0  0  0  # atno 8008 bound_to 7997
  156.2817  140.2738  156.1777 H   0  0  0  0  0  0  0  0  0  0  0  0  # atno 8009 bound_to 7997
  155.0535  140.0371  157.2542 H   0  0  0  0  0  0  0  0  0  0  0  0  # atno 8010 bound_to 7997
  140.6808  143.2821  151.3814 H   0  0  0  0  0  0  0  0  0  0  0  0  # atno 10167 bound_to 10162
  156.0105  130.4531  150.3571 H   0  0  0  0  0  0  0  0  0  0  0  0  # atno 10718 bound_to 10713
  153.0506  135.5072  154.7857 H   0  0  0  0  0  0  0  0  0  0  0  0  # atno 10763 bound_to 10752
  154.6722  135.2955  154.9729 H   0  0  0  0  0  0  0  0  0  0  0  0  # atno 10764 bound_to 10752
  154.0543  135.6699  153.4857 H   0  0  0  0  0  0  0  0  0  0  0  0  # atno 10765 bound_to 10752
  140.8748  133.7695  156.0230 H   0  0  0  0  0  0  0  0  0  0  0  0  # atno 11005 bound_to 11000
  145.7197  139.1706  143.2492 LP  0  0  0  0  0  0  0  0  0  0  0  0  # atno 17320 bound_to 7965
  146.1286  140.7215  142.9423 LP  0  0  0  0  0  0  0  0  0  0  0  0  # atno 17321 bound_to 7965
  139.6130  144.1060  152.2317 LP  0  0  0  0  0  0  0  0  0  0  0  0  # atno 17342 bound_to 10162
  140.0480  144.5955  150.7358 LP  0  0  0  0  0  0  0  0  0  0  0  0  # atno 17343 bound_to 10162
  157.1661  131.0357  151.2818 LP  0  0  0  0  0  0  0  0  0  0  0  0  # atno 17370 bound_to 10713
  157.4269  130.7469  149.6958 LP  0  0  0  0  0  0  0  0  0  0  0  0  # atno 17371 bound_to 10713
  140.8531  134.2930  157.5267 LP  0  0  0  0  0  0  0  0  0  0  0  0  # atno 17394 bound_to 11000
  139.8715  134.9478  156.3978 LP  0  0  0  0  0  0  0  0  0  0  0  0  # atno 17395 bound_to 11000

$$$$
