AV-unprocessed.smi:2021|AV-procd|sdf|8182|dock10
  -GOLD-   2272010433D 1   1.00000     0.00000
 Structure written by MMmdl.
 41 42  0  0  0  0  0  0  0  0  3 V2000
  146.2635  132.7871  150.7578 C   0  0  0  0  0  0  0  0  0  0  0  0
  144.8064  132.6493  151.2240 C   0  0  0  0  0  0  0  0  0  0  0  0
  143.8709  132.4826  150.0147 C   0  0  0  0  0  0  0  0  0  0  0  0
  144.4042  133.8516  152.1060 C   0  0  0  0  0  0  0  0  0  0  0  0
  144.7440  133.6632  153.5429 N   0  3  2  0  0  0  0  0  0  0  0  0
  144.5063  134.8704  154.3713 C   0  0  0  0  0  0  0  0  0  0  0  0
  145.6399  135.8958  154.1958 C   0  0  0  0  0  0  0  0  0  0  0  0
  146.8777  135.2791  154.5201 O   0  0  0  0  0  0  0  0  0  0  0  0
  147.1955  134.1953  153.6521 C   0  0  1  0  0  0  0  0  0  0  0  0
  148.5854  133.6494  154.0220 C   0  0  0  0  0  0  0  0  0  0  0  0
  149.5565  134.7254  154.1897 N   0  0  0  0  0  0  0  0  0  0  0  0
  150.3594  134.9035  155.2480 C   0  0  0  0  0  0  0  0  0  0  0  0
  150.3312  134.1028  156.1854 O   0  0  0  0  0  0  0  0  0  0  0  0
  151.1431  136.0011  155.1555 N   0  5  0  0  0  0  0  0  0  0  0  0
  150.6000  137.1881  154.8377 C   0  0  0  0  0  0  0  0  0  0  0  0
  151.3356  138.2159  154.3847 N   0  0  0  0  0  0  0  0  0  0  0  0
  150.5816  139.3500  154.1148 N   0  0  0  0  0  0  0  0  0  0  0  0
  149.2909  139.1498  154.3805 C   0  0  0  0  0  0  0  0  0  0  0  0
  148.8806  137.5609  154.9913 S   0  0  0  0  0  0  0  0  0  0  0  0
  146.1012  133.1150  153.8008 C   0  0  0  0  0  0  0  0  0  0  0  0
  146.4019  133.6776  150.1433 H   0  0  0  0  0  0  0  0  0  0  0  0
  146.5710  131.9245  150.1658 H   0  0  0  0  0  0  0  0  0  0  0  0
  146.9436  132.8597  151.6070 H   0  0  0  0  0  0  0  0  0  0  0  0
  144.7541  131.7361  151.8157 H   0  0  0  0  0  0  0  0  0  0  0  0
  143.8828  133.3678  149.3779 H   0  0  0  0  0  0  0  0  0  0  0  0
  142.8405  132.3090  150.3256 H   0  0  0  0  0  0  0  0  0  0  0  0
  144.1706  131.6307  149.4032 H   0  0  0  0  0  0  0  0  0  0  0  0
  144.8621  134.7669  151.7312 H   0  0  0  0  0  0  0  0  0  0  0  0
  143.3272  133.9956  152.0076 H   0  0  0  0  0  0  0  0  0  0  0  0
  143.5382  135.3159  154.1405 H   0  0  0  0  0  0  0  0  0  0  0  0
  144.4593  134.5643  155.4172 H   0  0  0  0  0  0  0  0  0  0  0  0
  145.6666  136.2925  153.1799 H   0  0  0  0  0  0  0  0  0  0  0  0
  145.4851  136.7438  154.8631 H   0  0  0  0  0  0  0  0  0  0  0  0
  147.2302  134.5536  152.6223 H   0  0  0  0  0  0  0  0  0  0  0  0
  148.5338  133.0244  154.9152 H   0  0  0  0  0  0  0  0  0  0  0  0
  148.9518  133.0075  153.2206 H   0  0  0  0  0  0  0  0  0  0  0  0
  149.6192  135.4045  153.4454 H   0  0  0  0  0  0  0  0  0  0  0  0
  148.5769  139.9437  154.2203 H   0  0  0  0  0  0  0  0  0  0  0  0
  146.1161  132.7279  154.8206 H   0  0  0  0  0  0  0  0  0  0  0  0
  146.3111  132.2641  153.1544 H   0  0  0  0  0  0  0  0  0  0  0  0
  144.0872  132.9713  153.8752 H   0  0  0  0  0  0  0  0  0  0  0  0
  1  2  1  0  0  0  0
  1 21  1  0  0  0  0
  1 22  1  0  0  0  0
  1 23  1  0  0  0  0
  2  3  1  0  0  0  0
  2  4  1  0  0  0  0
  2 24  1  0  0  0  0
  3 25  1  0  0  0  0
  3 26  1  0  0  0  0
  3 27  1  0  0  0  0
  4  5  1  0  0  0  0
  4 28  1  0  0  0  0
  4 29  1  0  0  0  0
  5 20  1  0  0  0  0
  5  6  1  0  0  0  0
  5 41  1  0  0  0  0
  6  7  1  0  0  0  0
  6 30  1  0  0  0  0
  6 31  1  0  0  0  0
  7  8  1  0  0  0  0
  7 32  1  0  0  0  0
  7 33  1  0  0  0  0
  8  9  1  0  0  0  0
  9 10  1  0  0  0  0
  9 20  1  0  0  0  0
  9 34  1  0  0  0  0
 10 11  1  0  0  0  0
 10 35  1  0  0  0  0
 10 36  1  0  0  0  0
 11 12  1  0  0  0  0
 11 37  1  0  0  0  0
 12 13  2  0  0  0  0
 12 14  1  0  0  0  0
 14 15  1  0  0  0  0
 15 19  1  0  0  0  0
 15 16  2  0  0  0  0
 16 17  1  0  0  0  0
 17 18  2  0  0  0  0
 18 19  1  0  0  0  0
 18 38  1  0  0  0  0
 20 39  1  0  0  0  0
 20 40  1  0  0  0  0
M  CHG  1   5   1
M  CHG  1  14  -1
M  END
> <s_m_source_file>
AV-unprocessed.smi

> <i_m_source_file_index>
2021

> <i_lp_mmshare_version>
43012

> <i_f3d_flags>
0

> <s_epik_input>
W0NIM11bQ0hdKFtDSDNdKVtDSDJdTjFbQ0gyXVtDSDJdT1tDQEhdKFtDSDJdMSlbQ0gyXVtOSF1DKD1PKVtOSF1jMm5uW2NIXXMy

> <s_epik_cmdline>
J2VwaWtfcHl0aG9uJywgJy1waCcsICc3LjAnLCAnLXRuJywgJzgnLCAnLW1hJywgJzIwMCcsICctbWV0YWxfYmluZGluZycsICctaW1hZScsICc8aW5maWxlLm1hZT4nLCAnLW9tYWUnLCAnPG91dGZpbGUubWFlPic=

> <r_lp_tautomer_probability>
1

> <r_epik_Ionization_Penalty>
3.15762

> <r_epik_Ionization_Penalty_Charging>
3.12229

> <r_epik_Ionization_Penalty_Neutral>
0.0353298

> <r_epik_State_Penalty>
3.11266

> <r_epik_Charging_Adjusted_Penalty>
6.23495

> <i_epik_Tot_Q>
0

> <i_epik_Tot_abs_Q>
2

> <r_epik_Metal_State_Penalty>
0.541462

> <b_epik_Metal_Only>
1

> <s_lp_Force_Field>
OPLS_2005

> <r_lp_Energy>
12.8808

> <b_lp_Chiralities_Consistent>
1

> <s_lp_Variant>
AV-unprocessed.smi:2021-8

> <Gold.Version>
5.8.1

> <Gold.Id.Protein>
6NUR|6NUR_protein|mol2

> <Gold.PLP.Fitness>
41.9366

> <Gold.PLP.PLP>
-26.9482

> <Gold.PLP.part.hbond>
-4.0143

> <Gold.PLP.part.metal>
0.0000

> <Gold.PLP.part.buried>
-4.5628

> <Gold.PLP.part.nonpolar>
-18.9814

> <Gold.PLP.part.repulsive>
0.6141

> <Gold.PLP.ligand.clash>
0.0000

> <Gold.PLP.ligand.torsion>
1.0475

> <Gold.PLP.Chemscore.Hbond>
5.6500

> <Gold.PLP.Chemscore.CHOScore>
0.0000

> <Gold.PLP.Chemscore.Metal>
0.0000

> <Gold.Chemscore.Hbonds>
donor molecule, donor type, donor heavy atom, donor atom, acceptor molecule, acceptor atom, score
      L1  H     5    41       P1 10957  1.82
      L1  H    11    37       P1  7948  0.60
      P1  H  7989  7998       L1    17  1.00
      P1  H 10752 10764       L1    14  2.00

> <Gold.PLP.Chemscore.Internal.Correction>
0.1333

> <Gold.Rescore>
     Score         DG    S(hbond)    S(metal)    S(lipo)     H(rot)  DE(clash)    DE(int)     intcor
     15.13     -16.27       2.84        0.00      51.48       1.85       0.00       1.14       ----

> <Gold.Chemscore.Fitness>
15.1326

> <Gold.Chemscore.DG>
-16.2682

> <Gold.Chemscore.ZeroCoef>
-5.4800

> <Gold.Chemscore.Hbond>
2.8419

> <Gold.Chemscore.Metal>
0.0000

> <Gold.Chemscore.Lipo>
51.4832

> <Gold.Chemscore.Internal_Hbond>
0.0000

> <Gold.Chemscore.DEClash>
0.0000

> <Gold.Chemscore.DEInternal>
1.1356

> <Gold.Chemscore.Rot>
1.8466

> <Gold.Chemscore.Internal.Correction>
   9.000000E+99

> <Gold.Chemscore.Hbonds>
donor molecule, donor type, donor heavy atom, donor atom, acceptor molecule, acceptor atom, score
      L1  H     5    41       P1 10957  0.82
      L1  H    11    37       P1  7948  0.04
      P1  H  7989  7998       L1    17  0.87
      P1  H 10752 10764       L1    14  0.81

> <Gold.Chemscore.Hbond.Weighted>
-9.4919

> <Gold.Chemscore.Metal.Weighted>
-0.0000

> <Gold.Chemscore.Lipo.Weighted>
-6.0235

> <Gold.Chemscore.Internal_Hbond.Weighted>
0.0000

> <Gold.Chemscore.DEClash.Weighted>
0.0000

> <Gold.Chemscore.DEInternal.Weighted>
1.1356

> <Gold.Chemscore.Rot.Weighted>
4.7272

> <Gold.Chemscore.Internal.Correction.Weighted>
   9.000000E+99

> <Gold.Protein.RotatedTorsions>
[ 6907 6896 6895 6894 ] final   24.96 input  -60.11 | X-H torsion
[ 7974 7965 7964 7962 ] final -139.54 input  175.53 | X-H torsion
[ 8008 7997 7996 7995 ] final  115.27 input   59.86 | X-H torsion
[ 10167 10162 10161 10158 ] final   89.09 input  -65.29 | X-H torsion
[ 10718 10713 10712 10709 ] final -171.10 input   66.30 | X-H torsion
[ 10763 10752 10751 10750 ] final  -48.47 input  -60.55 | X-H torsion
[ 11005 11000 10999 10996 ] final -146.25 input  -57.11 | X-H torsion

> <Gold.Protein.ActiveResidues>
 VAL166  LYS551  ARG553  GLY616  TRP617  ASP618  TYR619  PRO620  LYS621  CYS622 
 ASP623  PHE694  ASN695  SER759  ASP760  ASP761  ALA762  ILE779  LEU786  VAL792 
 PHE793  MET794  SER795  GLU796  ALA797  LYS798  CYS799  TRP800  GLU811  SER814 

> <Gold.Protein.RotatedAtoms>
  151.9653  135.0103  160.0549 H   0  0  0  0  0  0  0  0  0  0  0  0  # atno 6907 bound_to 6896
  152.1831  133.4716  159.4977 H   0  0  0  0  0  0  0  0  0  0  0  0  # atno 6908 bound_to 6896
  150.6921  134.1725  159.4260 H   0  0  0  0  0  0  0  0  0  0  0  0  # atno 6909 bound_to 6896
  144.8669  140.6306  143.5292 H   0  0  0  0  0  0  0  0  0  0  0  0  # atno 7974 bound_to 7965
  156.2371  140.2942  156.0343 H   0  0  0  0  0  0  0  0  0  0  0  0  # atno 8008 bound_to 7997
  155.2059  140.0411  157.2942 H   0  0  0  0  0  0  0  0  0  0  0  0  # atno 8009 bound_to 7997
  154.6099  140.2449  155.7689 H   0  0  0  0  0  0  0  0  0  0  0  0  # atno 8010 bound_to 7997
  139.8607  144.6545  150.9061 H   0  0  0  0  0  0  0  0  0  0  0  0  # atno 10167 bound_to 10162
  156.7360  130.9324  151.3107 H   0  0  0  0  0  0  0  0  0  0  0  0  # atno 10718 bound_to 10713
  154.0782  135.6595  153.4834 H   0  0  0  0  0  0  0  0  0  0  0  0  # atno 10763 bound_to 10752
  153.0365  135.5173  154.7500 H   0  0  0  0  0  0  0  0  0  0  0  0  # atno 10764 bound_to 10752
  154.6586  135.3011  154.9863 H   0  0  0  0  0  0  0  0  0  0  0  0  # atno 10765 bound_to 10752
  140.7840  134.3046  157.5036 H   0  0  0  0  0  0  0  0  0  0  0  0  # atno 11005 bound_to 11000
  145.4205  139.1565  143.4076 LP  0  0  0  0  0  0  0  0  0  0  0  0  # atno 17320 bound_to 7965
  146.2902  140.4315  142.8742 LP  0  0  0  0  0  0  0  0  0  0  0  0  # atno 17321 bound_to 7965
  140.7775  143.3747  151.1586 LP  0  0  0  0  0  0  0  0  0  0  0  0  # atno 17342 bound_to 10162
  139.7376  143.8974  152.3040 LP  0  0  0  0  0  0  0  0  0  0  0  0  # atno 17343 bound_to 10162
  157.6839  130.9166  150.0336 LP  0  0  0  0  0  0  0  0  0  0  0  0  # atno 17370 bound_to 10713
  156.1497  130.3642  149.9457 LP  0  0  0  0  0  0  0  0  0  0  0  0  # atno 17371 bound_to 10713
  139.8739  134.9335  156.3582 LP  0  0  0  0  0  0  0  0  0  0  0  0  # atno 17394 bound_to 11000
  140.9455  133.7486  156.0203 LP  0  0  0  0  0  0  0  0  0  0  0  0  # atno 17395 bound_to 11000

$$$$
