AV-unprocessed.smi:1769|AV-procd|sdf|7154|dock6
  -GOLD-   22720 8393D 1   1.00000     0.00000
 Structure written by MMmdl.
 42 43  0  0  0  0  0  0  0  0  2 V2000
  151.5406  137.5062  155.2268 C   0  0  0  0  0  0  0  0  0  0  0  0
  151.3860  139.0166  155.4179 C   0  0  0  0  0  0  0  0  0  0  0  0
  152.4039  139.7095  155.4053 O   0  0  0  0  0  0  0  0  0  0  0  0
  150.1486  139.5387  155.5955 N   0  0  0  0  0  0  0  0  0  0  0  0
  149.8363  140.9689  155.7139 C   0  0  0  0  0  0  0  0  0  0  0  0
  149.1077  141.4236  154.4361 C   0  0  0  0  0  0  0  0  0  0  0  0
  147.8514  140.5680  154.1806 C   0  0  0  0  0  0  0  0  0  0  0  0
  148.1706  139.0556  154.2331 C   0  0  2  0  0  0  0  0  0  0  0  0
  146.9003  138.2048  154.1203 C   0  0  0  0  0  0  0  0  0  0  0  0
  145.9547  138.3969  154.8857 O   0  0  0  0  0  0  0  0  0  0  0  0
  146.9064  137.2426  153.1834 N   0  0  0  0  0  0  0  0  0  0  0  0
  145.8475  136.2591  152.9693 C   0  0  0  0  0  0  0  0  0  0  0  0
  145.5688  136.0170  151.4720 C   0  0  0  0  0  0  0  0  0  0  0  0
  145.4203  134.5490  151.1091 C   0  0  0  0  0  0  0  0  0  0  0  0
  144.1873  134.0419  150.6407 C   0  0  0  0  0  0  0  0  0  0  0  0
  144.0920  132.6835  150.2740 C   0  0  0  0  0  0  0  0  0  0  0  0
  145.2310  131.8606  150.3885 C   0  0  0  0  0  0  0  0  0  0  0  0
  146.3918  132.3792  150.8461 N   0  3  0  0  0  0  0  0  0  0  0  0
  146.5241  133.6746  151.2063 C   0  0  0  0  0  0  0  0  0  0  0  0
  148.9305  138.7226  155.5366 C   0  0  0  0  0  0  0  0  0  0  0  0
  151.1365  136.9634  156.0818 H   0  0  0  0  0  0  0  0  0  0  0  0
  152.5929  137.2362  155.1294 H   0  0  0  0  0  0  0  0  0  0  0  0
  151.0275  137.1776  154.3227 H   0  0  0  0  0  0  0  0  0  0  0  0
  149.1947  141.1236  156.5826 H   0  0  0  0  0  0  0  0  0  0  0  0
  150.7111  141.5945  155.8850 H   0  0  0  0  0  0  0  0  0  0  0  0
  148.8321  142.4754  154.5154 H   0  0  0  0  0  0  0  0  0  0  0  0
  149.7844  141.3444  153.5842 H   0  0  0  0  0  0  0  0  0  0  0  0
  147.1015  140.8168  154.9334 H   0  0  0  0  0  0  0  0  0  0  0  0
  147.4164  140.8303  153.2153 H   0  0  0  0  0  0  0  0  0  0  0  0
  148.8210  138.8171  153.3890 H   0  0  0  0  0  0  0  0  0  0  0  0
  147.7247  137.1625  152.5966 H   0  0  0  0  0  0  0  0  0  0  0  0
  146.0941  135.3173  153.4622 H   0  0  0  0  0  0  0  0  0  0  0  0
  144.9418  136.6243  153.4540 H   0  0  0  0  0  0  0  0  0  0  0  0
  144.6585  136.5423  151.1810 H   0  0  0  0  0  0  0  0  0  0  0  0
  146.3716  136.4522  150.8754 H   0  0  0  0  0  0  0  0  0  0  0  0
  143.3269  134.6884  150.5465 H   0  0  0  0  0  0  0  0  0  0  0  0
  143.1599  132.2811  149.9047 H   0  0  0  0  0  0  0  0  0  0  0  0
  145.2497  130.8125  150.1280 H   0  0  0  0  0  0  0  0  0  0  0  0
  147.5054  133.9728  151.5454 H   0  0  0  0  0  0  0  0  0  0  0  0
  149.1433  137.6539  155.5889 H   0  0  0  0  0  0  0  0  0  0  0  0
  148.3128  138.9413  156.4096 H   0  0  0  0  0  0  0  0  0  0  0  0
  147.2049  131.7673  150.9190 H   0  0  0  0  0  0  0  0  0  0  0  0
  1  2  1  0  0  0  0
  1 21  1  0  0  0  0
  1 22  1  0  0  0  0
  1 23  1  0  0  0  0
  2  3  2  0  0  0  0
  2  4  1  0  0  0  0
  4 20  1  0  0  0  0
  4  5  1  0  0  0  0
  5  6  1  0  0  0  0
  5 24  1  0  0  0  0
  5 25  1  0  0  0  0
  6  7  1  0  0  0  0
  6 26  1  0  0  0  0
  6 27  1  0  0  0  0
  7  8  1  0  0  0  0
  7 28  1  0  0  0  0
  7 29  1  0  0  0  0
  8  9  1  0  0  0  0
  8 20  1  0  0  0  0
  8 30  1  0  0  0  0
  9 10  2  0  0  0  0
  9 11  1  0  0  0  0
 11 12  1  0  0  0  0
 11 31  1  0  0  0  0
 12 13  1  0  0  0  0
 12 32  1  0  0  0  0
 12 33  1  0  0  0  0
 13 14  1  0  0  0  0
 13 34  1  0  0  0  0
 13 35  1  0  0  0  0
 14 19  1  0  0  0  0
 14 15  2  0  0  0  0
 15 16  1  0  0  0  0
 15 36  1  0  0  0  0
 16 17  2  0  0  0  0
 16 37  1  0  0  0  0
 17 18  1  0  0  0  0
 17 38  1  0  0  0  0
 18 19  2  0  0  0  0
 18 42  1  0  0  0  0
 19 39  1  0  0  0  0
 20 40  1  0  0  0  0
 20 41  1  0  0  0  0
M  CHG  1  18   1
M  END
> <s_m_source_file>
AV-unprocessed.smi

> <i_m_source_file_index>
1769

> <i_lp_mmshare_version>
43012

> <i_f3d_flags>
0

> <s_epik_input>
W0NIM11DKD1PKU4xW0NIMl1bQ0gyXVtDSDJdW0NASF0oW0NIMl0xKUMoPU8pW05IXVtDSDJdW0NIMl1jMltjSF1bY0hdW2NIXW5bY0hdMg==

> <s_epik_cmdline>
J2VwaWtfcHl0aG9uJywgJy1waCcsICc3LjAnLCAnLXRuJywgJzgnLCAnLW1hJywgJzIwMCcsICctbWV0YWxfYmluZGluZycsICctaW1hZScsICc8aW5maWxlLm1hZT4nLCAnLW9tYWUnLCAnPG91dGZpbGUubWFlPic=

> <r_epik_Ionization_Penalty>
2.25127

> <r_epik_Ionization_Penalty_Charging>
2.25127

> <r_epik_Ionization_Penalty_Neutral>
1.02261e-06

> <r_epik_State_Penalty>
2.39841

> <r_epik_Charging_Adjusted_Penalty>
4.64968

> <i_epik_Tot_Q>
1

> <i_epik_Tot_abs_Q>
1

> <r_epik_Metal_State_Penalty>
2.41159

> <b_epik_Metal_Only>
0

> <s_lp_Force_Field>
OPLS_2005

> <r_lp_Energy>
29.6354

> <b_lp_Chiralities_Consistent>
1

> <s_lp_Variant>
AV-unprocessed.smi:1769-4

> <Gold.Version>
5.8.1

> <Gold.Id.Protein>
6NUR|6NUR_protein|mol2

> <Gold.PLP.Fitness>
45.9281

> <Gold.PLP.PLP>
-37.9614

> <Gold.PLP.part.hbond>
-3.7329

> <Gold.PLP.part.metal>
0.0000

> <Gold.PLP.part.buried>
-3.7019

> <Gold.PLP.part.nonpolar>
-31.0725

> <Gold.PLP.part.repulsive>
0.1646

> <Gold.PLP.ligand.clash>
0.0000

> <Gold.PLP.ligand.torsion>
0.6349

> <Gold.PLP.Chemscore.Hbond>
3.0695

> <Gold.PLP.Chemscore.CHOScore>
0.0000

> <Gold.PLP.Chemscore.Metal>
0.0000

> <Gold.Chemscore.Hbonds>
donor molecule, donor type, donor heavy atom, donor atom, acceptor molecule, acceptor atom, score
      L1  H    11    31       P1  7948  1.00
      L1  H    18    42       P1 10747  0.84
      P1  H  7989  7998       L1     3  0.10
      P1  H  7997  8010       L1     3  0.70

> <Gold.PLP.Chemscore.Internal.Correction>
0.0280

> <Gold.Rescore>
     Score         DG    S(hbond)    S(metal)    S(lipo)     H(rot)  DE(clash)    DE(int)     intcor
     19.82     -20.60       2.88        0.00      82.37       1.61       0.11       0.67       ----

> <Gold.Chemscore.Fitness>
19.8214

> <Gold.Chemscore.DG>
-20.6012

> <Gold.Chemscore.ZeroCoef>
-5.4800

> <Gold.Chemscore.Hbond>
2.8758

> <Gold.Chemscore.Metal>
0.0000

> <Gold.Chemscore.Lipo>
82.3727

> <Gold.Chemscore.Internal_Hbond>
0.0000

> <Gold.Chemscore.DEClash>
0.1117

> <Gold.Chemscore.DEInternal>
0.6681

> <Gold.Chemscore.Rot>
1.6100

> <Gold.Chemscore.Internal.Correction>
   9.000000E+99

> <Gold.Chemscore.Hbonds>
donor molecule, donor type, donor heavy atom, donor atom, acceptor molecule, acceptor atom, score
      L1  H    11    31       P1  7948  0.96
      L1  H    18    42       P1 10747  0.81
      P1  H  7989  7998       L1     3  0.01
      P1  H  7997  8010       L1     3  0.69

> <Gold.Chemscore.Hbond.Weighted>
-9.6052

> <Gold.Chemscore.Metal.Weighted>
-0.0000

> <Gold.Chemscore.Lipo.Weighted>
-9.6376

> <Gold.Chemscore.Internal_Hbond.Weighted>
0.0000

> <Gold.Chemscore.DEClash.Weighted>
0.1117

> <Gold.Chemscore.DEInternal.Weighted>
0.6681

> <Gold.Chemscore.Rot.Weighted>
4.1216

> <Gold.Chemscore.Internal.Correction.Weighted>
   9.000000E+99

> <Gold.Protein.RotatedTorsions>
[ 6907 6896 6895 6894 ] final  -49.53 input  -60.11 | X-H torsion
[ 7974 7965 7964 7962 ] final  -41.83 input  175.53 | X-H torsion
[ 8008 7997 7996 7995 ] final  103.20 input   59.86 | X-H torsion
[ 10167 10162 10161 10158 ] final  151.30 input  -65.29 | X-H torsion
[ 10718 10713 10712 10709 ] final   -1.02 input   66.30 | X-H torsion
[ 10763 10752 10751 10750 ] final   45.68 input  -60.55 | X-H torsion
[ 11005 11000 10999 10996 ] final  165.09 input  -57.11 | X-H torsion

> <Gold.Protein.ActiveResidues>
 VAL166  LYS551  ARG553  GLY616  TRP617  ASP618  TYR619  PRO620  LYS621  CYS622 
 ASP623  PHE694  ASN695  SER759  ASP760  ASP761  ALA762  ILE779  LEU786  VAL792 
 PHE793  MET794  SER795  GLU796  ALA797  LYS798  CYS799  TRP800  GLU811  SER814 

> <Gold.Protein.RotatedAtoms>
  150.8796  134.8185  159.7214 H   0  0  0  0  0  0  0  0  0  0  0  0  # atno 6907 bound_to 6896
  152.4769  134.4817  159.9677 H   0  0  0  0  0  0  0  0  0  0  0  0  # atno 6908 bound_to 6896
  151.4894  133.3489  159.2886 H   0  0  0  0  0  0  0  0  0  0  0  0  # atno 6909 bound_to 6896
  146.0173  140.6892  142.9195 H   0  0  0  0  0  0  0  0  0  0  0  0  # atno 7974 bound_to 7965
  156.1462  140.3169  155.8574 H   0  0  0  0  0  0  0  0  0  0  0  0  # atno 8008 bound_to 7997
  155.4060  140.0503  157.3051 H   0  0  0  0  0  0  0  0  0  0  0  0  # atno 8009 bound_to 7997
  154.5018  140.2132  155.9343 H   0  0  0  0  0  0  0  0  0  0  0  0  # atno 8010 bound_to 7997
  139.4842  144.5452  151.7497 H   0  0  0  0  0  0  0  0  0  0  0  0  # atno 10167 bound_to 10162
  156.8117  130.5427  149.5708 H   0  0  0  0  0  0  0  0  0  0  0  0  # atno 10718 bound_to 10713
  152.9821  135.6032  154.3475 H   0  0  0  0  0  0  0  0  0  0  0  0  # atno 10763 bound_to 10752
  154.3167  135.2770  155.2541 H   0  0  0  0  0  0  0  0  0  0  0  0  # atno 10764 bound_to 10752
  154.4726  135.5938  153.6388 H   0  0  0  0  0  0  0  0  0  0  0  0  # atno 10765 bound_to 10752
  140.2526  134.7965  157.3516 H   0  0  0  0  0  0  0  0  0  0  0  0  # atno 11005 bound_to 11000
  144.6976  140.3504  143.7183 LP  0  0  0  0  0  0  0  0  0  0  0  0  # atno 17320 bound_to 7965
  145.7248  139.1719  143.2464 LP  0  0  0  0  0  0  0  0  0  0  0  0  # atno 17321 bound_to 7965
  140.4997  144.1187  150.5968 LP  0  0  0  0  0  0  0  0  0  0  0  0  # atno 17342 bound_to 10162
  140.4076  143.2672  151.9872 LP  0  0  0  0  0  0  0  0  0  0  0  0  # atno 17343 bound_to 10162
  156.1040  130.5991  150.9941 LP  0  0  0  0  0  0  0  0  0  0  0  0  # atno 17370 bound_to 10713
  157.6502  131.0898  150.8067 LP  0  0  0  0  0  0  0  0  0  0  0  0  # atno 17371 bound_to 10713
  140.1543  134.4809  155.7939 LP  0  0  0  0  0  0  0  0  0  0  0  0  # atno 17394 bound_to 11000
  141.2199  133.6875  156.7434 LP  0  0  0  0  0  0  0  0  0  0  0  0  # atno 17395 bound_to 11000

$$$$
