AV-unprocessed.smi:283|AV-procd|sdf|2155|dock1
  -GOLD-   2262021503D 1   1.00000     0.00000
 Structure written by MMmdl.
 48 51  0  0  0  0  0  0  0  0  1 V2000
  143.4694  137.5936  156.5838 C   0  0  0  0  0  0  0  0  0  0  0  0
  143.4422  137.4475  155.0567 C   0  0  2  0  0  0  0  0  0  0  0  0
  144.4735  138.2961  154.4616 N   0  0  0  0  0  0  0  0  0  0  0  0
  145.7762  137.9381  154.5010 C   0  0  0  0  0  0  0  0  0  0  0  0
  146.0234  136.6632  154.8846 N   0  0  0  0  0  0  0  0  0  0  0  0
  147.2814  136.2262  154.9875 C   0  0  0  0  0  0  0  0  0  0  0  0
  148.4160  136.8913  154.7640 N   0  0  0  0  0  0  0  0  0  0  0  0
  148.1760  138.1746  154.3674 C   0  0  0  0  0  0  0  0  0  0  0  0
  146.8938  138.7678  154.1914 C   0  0  0  0  0  0  0  0  0  0  0  0
  147.0519  140.0698  153.7333 N   0  0  0  0  0  0  0  0  0  0  0  0
  148.3435  140.2371  153.6681 C   0  0  0  0  0  0  0  0  0  0  0  0
  149.0986  139.1594  154.0780 N   0  0  0  0  0  0  0  0  0  0  0  0
  150.5920  139.0235  154.1268 C   0  0  1  0  0  0  0  0  0  0  0  0
  151.1070  140.1683  154.7442 O   0  0  0  0  0  0  0  0  0  0  0  0
  151.4765  139.9023  156.0960 C   0  0  1  0  0  0  0  0  0  0  0  0
  150.2885  140.1593  157.0453 C   0  0  0  0  0  0  0  0  0  0  0  0
  149.8304  141.4875  156.9102 O   0  0  0  0  0  0  0  0  0  0  0  0
  151.9264  138.4401  156.0492 C   0  0  2  0  0  0  0  0  0  0  0  0
  153.2985  138.4002  155.6957 O   0  0  0  0  0  0  0  0  0  0  0  0
  151.0136  137.8179  154.9930 C   0  0  2  0  0  0  0  0  0  0  0  0
  151.6656  136.8010  154.2556 O   0  0  0  0  0  0  0  0  0  0  0  0
  142.0251  137.6859  154.5246 C   0  0  0  0  0  0  0  0  0  0  0  0
  141.4193  138.9553  154.6747 C   0  0  0  0  0  0  0  0  0  0  0  0
  140.1247  139.1974  154.1788 C   0  0  0  0  0  0  0  0  0  0  0  0
  139.4155  138.1683  153.5341 C   0  0  0  0  0  0  0  0  0  0  0  0
  140.0002  136.8964  153.3943 C   0  0  0  0  0  0  0  0  0  0  0  0
  141.2959  136.6482  153.8898 C   0  0  0  0  0  0  0  0  0  0  0  0
  141.9562  135.0612  153.7019 Cl  0  0  0  0  0  0  0  0  0  0  0  0
  150.8966  138.9656  153.0811 H   0  0  0  0  0  0  0  0  0  0  0  0
  152.2946  140.5693  156.3737 H   0  0  0  0  0  0  0  0  0  0  0  0
  151.8205  137.9435  157.0145 H   0  0  0  0  0  0  0  0  0  0  0  0
  150.1385  137.3959  155.4890 H   0  0  0  0  0  0  0  0  0  0  0  0
  142.7707  136.9025  157.0560 H   0  0  0  0  0  0  0  0  0  0  0  0
  143.1967  138.6035  156.8913 H   0  0  0  0  0  0  0  0  0  0  0  0
  144.4615  137.3796  156.9826 H   0  0  0  0  0  0  0  0  0  0  0  0
  143.7372  136.4237  154.8342 H   0  0  0  0  0  0  0  0  0  0  0  0
  144.1285  138.9701  153.7937 H   0  0  0  0  0  0  0  0  0  0  0  0
  147.3957  135.1997  155.3029 H   0  0  0  0  0  0  0  0  0  0  0  0
  148.7765  141.1663  153.3282 H   0  0  0  0  0  0  0  0  0  0  0  0
  149.4620  139.4921  156.8002 H   0  0  0  0  0  0  0  0  0  0  0  0
  150.5547  139.9767  158.0866 H   0  0  0  0  0  0  0  0  0  0  0  0
  148.9146  141.5147  157.1428 H   0  0  0  0  0  0  0  0  0  0  0  0
  153.3992  137.8124  154.9625 H   0  0  0  0  0  0  0  0  0  0  0  0
  151.3273  136.8119  153.3731 H   0  0  0  0  0  0  0  0  0  0  0  0
  141.9493  139.7571  155.1676 H   0  0  0  0  0  0  0  0  0  0  0  0
  139.6765  140.1733  154.2929 H   0  0  0  0  0  0  0  0  0  0  0  0
  138.4222  138.3525  153.1519 H   0  0  0  0  0  0  0  0  0  0  0  0
  139.4497  136.1062  152.9051 H   0  0  0  0  0  0  0  0  0  0  0  0
  1  2  1  0  0  0  0
  1 33  1  0  0  0  0
  1 34  1  0  0  0  0
  1 35  1  0  0  0  0
  2  3  1  0  0  0  0
  2 22  1  0  0  0  0
  2 36  1  0  0  0  0
  3  4  1  0  0  0  0
  3 37  1  0  0  0  0
  4  9  1  0  0  0  0
  4  5  2  0  0  0  0
  5  6  1  0  0  0  0
  6  7  2  0  0  0  0
  6 38  1  0  0  0  0
  7  8  1  0  0  0  0
  8 12  1  0  0  0  0
  8  9  2  0  0  0  0
  9 10  1  0  0  0  0
 10 11  2  0  0  0  0
 11 12  1  0  0  0  0
 11 39  1  0  0  0  0
 12 13  1  0  0  0  0
 13 29  1  0  0  0  0
 13 20  1  0  0  0  0
 13 14  1  0  0  0  0
 14 15  1  0  0  0  0
 15 30  1  0  0  0  0
 15 16  1  0  0  0  0
 15 18  1  0  0  0  0
 16 17  1  0  0  0  0
 16 40  1  0  0  0  0
 16 41  1  0  0  0  0
 17 42  1  0  0  0  0
 18 31  1  0  0  0  0
 18 19  1  0  0  0  0
 18 20  1  0  0  0  0
 19 43  1  0  0  0  0
 20 32  1  0  0  0  0
 20 21  1  0  0  0  0
 21 44  1  0  0  0  0
 22 27  1  0  0  0  0
 22 23  2  0  0  0  0
 23 24  1  0  0  0  0
 23 45  1  0  0  0  0
 24 25  2  0  0  0  0
 24 46  1  0  0  0  0
 25 26  1  0  0  0  0
 25 47  1  0  0  0  0
 26 27  2  0  0  0  0
 26 48  1  0  0  0  0
 27 28  1  0  0  0  0
M  END
> <s_m_source_file>
AV-unprocessed.smi

> <i_m_source_file_index>
283

> <i_lp_mmshare_version>
43012

> <i_f3d_flags>
0

> <s_epik_input>
Q2xjMVtjSF1bY0hdW2NIXVtjSF1jMVtDQEhdKFtDSDNdKVtOSF1jKG5bY0hdbjIpYyhjMjMpbltjSF1uM1tDQEBIXTRPW0NASF0oW0NIMl1bT0hdKVtDQEBIXShbT0hdKVtDQEhdNFtPSF0=

> <s_epik_cmdline>
J2VwaWtfcHl0aG9uJywgJy1waCcsICc3LjAnLCAnLXRuJywgJzgnLCAnLW1hJywgJzIwMCcsICctbWV0YWxfYmluZGluZycsICctaW1hZScsICc8aW5maWxlLm1hZT4nLCAnLW9tYWUnLCAnPG91dGZpbGUubWFlPic=

> <r_lp_tautomer_probability>
1

> <r_epik_Ionization_Penalty>
0.000266407

> <r_epik_Ionization_Penalty_Charging>
0

> <r_epik_Ionization_Penalty_Neutral>
0.000266407

> <r_epik_State_Penalty>
-0

> <r_epik_Charging_Adjusted_Penalty>
0

> <i_epik_Tot_Q>
0

> <i_epik_Tot_abs_Q>
0

> <r_epik_Metal_State_Penalty>
-0

> <b_epik_Metal_Only>
0

> <s_epik_Chemistry_Notes>
This compound contains an acetal/aminal-like group ( X-CH(R)-Y where X, Y are N, S, or O) that may be acid/base labile, releasing an aldehyde.

> <s_lp_Force_Field>
OPLS_2005

> <r_lp_Energy>
45.281

> <b_lp_Chiralities_Consistent>
1

> <s_lp_Variant>
AV-unprocessed.smi:283-31

> <Gold.Version>
5.8.1

> <Gold.Id.Protein>
6NUR|6NUR_protein|mol2

> <Gold.PLP.Fitness>
46.0690

> <Gold.PLP.PLP>
-32.8305

> <Gold.PLP.part.hbond>
-4.9146

> <Gold.PLP.part.metal>
0.0000

> <Gold.PLP.part.buried>
-2.8240

> <Gold.PLP.part.nonpolar>
-25.9104

> <Gold.PLP.part.repulsive>
0.8808

> <Gold.PLP.ligand.clash>
0.0000

> <Gold.PLP.ligand.torsion>
0.7295

> <Gold.PLP.Chemscore.Hbond>
4.5870

> <Gold.PLP.Chemscore.CHOScore>
0.2399

> <Gold.PLP.Chemscore.Metal>
0.0000

> <Gold.Chemscore.Hbonds>
donor molecule, donor type, donor heavy atom, donor atom, acceptor molecule, acceptor atom, score
      L1  H     3    37       P1 10175  0.99
      L1  H    21    44       P1  7949  0.93
      P1  H  7989  7998       L1    14  0.88
      P1  H  7997  8009       L1    19  0.74
      P1  H 10752 10765       L1    21  1.00
      L1  C    11    39       P1  7957  0.21

> <Gold.PLP.Chemscore.Internal.Correction>
0.2169

> <Gold.Rescore>
     Score         DG    S(hbond)    S(metal)    S(lipo)     H(rot)  DE(clash)    DE(int)     intcor
      9.77     -12.42       3.00        0.00      63.20       4.10       0.39       2.25       ----

> <Gold.Chemscore.Fitness>
9.7735

> <Gold.Chemscore.DG>
-12.4179

> <Gold.Chemscore.ZeroCoef>
-5.4800

> <Gold.Chemscore.Hbond>
3.0036

> <Gold.Chemscore.Metal>
0.0000

> <Gold.Chemscore.Lipo>
63.1956

> <Gold.Chemscore.Internal_Hbond>
0.0000

> <Gold.Chemscore.DEClash>
0.3917

> <Gold.Chemscore.DEInternal>
2.2527

> <Gold.Chemscore.Rot>
4.0968

> <Gold.Chemscore.Internal.Correction>
   9.000000E+99

> <Gold.Chemscore.Hbonds>
donor molecule, donor type, donor heavy atom, donor atom, acceptor molecule, acceptor atom, score
      L1  H     3    37       P1 10175  0.92
      L1  H    21    44       P1  7949  0.59
      P1  H  7989  7998       L1    14  0.17
      P1  H  7997  8009       L1    19  0.63
      P1  H 10752 10765       L1    21  0.74

> <Gold.Chemscore.Hbond.Weighted>
-10.0319

> <Gold.Chemscore.Metal.Weighted>
-0.0000

> <Gold.Chemscore.Lipo.Weighted>
-7.3939

> <Gold.Chemscore.Internal_Hbond.Weighted>
0.0000

> <Gold.Chemscore.DEClash.Weighted>
0.3917

> <Gold.Chemscore.DEInternal.Weighted>
2.2527

> <Gold.Chemscore.Rot.Weighted>
10.4879

> <Gold.Chemscore.Internal.Correction.Weighted>
   9.000000E+99

> <Gold.Protein.RotatedTorsions>
[ 6907 6896 6895 6894 ] final   99.77 input  -60.11 | X-H torsion
[ 7974 7965 7964 7962 ] final  114.70 input  175.53 | X-H torsion
[ 8008 7997 7996 7995 ] final -159.97 input   59.86 | X-H torsion
[ 10167 10162 10161 10158 ] final   56.56 input  -65.29 | X-H torsion
[ 10718 10713 10712 10709 ] final  134.29 input   66.30 | X-H torsion
[ 10763 10752 10751 10750 ] final  168.73 input  -60.55 | X-H torsion
[ 11005 11000 10999 10996 ] final -114.18 input  -57.11 | X-H torsion

> <Gold.Protein.ActiveResidues>
 VAL166  LYS551  ARG553  GLY616  TRP617  ASP618  TYR619  PRO620  LYS621  CYS622 
 ASP623  PHE694  ASN695  SER759  ASP760  ASP761  ALA762  ILE779  LEU786  VAL792 
 PHE793  MET794  SER795  GLU796  ALA797  LYS798  CYS799  TRP800  GLU811  SER814 

> <Gold.Protein.RotatedAtoms>
  152.5385  134.0377  159.8053 H   0  0  0  0  0  0  0  0  0  0  0  0  # atno 6907 bound_to 6896
  151.0538  133.5594  159.2647 H   0  0  0  0  0  0  0  0  0  0  0  0  # atno 6908 bound_to 6896
  151.2518  135.0632  159.9118 H   0  0  0  0  0  0  0  0  0  0  0  0  # atno 6909 bound_to 6896
  145.2011  139.2952  143.4318 H   0  0  0  0  0  0  0  0  0  0  0  0  # atno 7974 bound_to 7965
  155.7705  140.0851  157.2110 H   0  0  0  0  0  0  0  0  0  0  0  0  # atno 8008 bound_to 7997
  154.3996  140.1526  156.2994 H   0  0  0  0  0  0  0  0  0  0  0  0  # atno 8009 bound_to 7997
  155.8751  140.3423  155.5851 H   0  0  0  0  0  0  0  0  0  0  0  0  # atno 8010 bound_to 7997
  140.2075  144.3924  150.6503 H   0  0  0  0  0  0  0  0  0  0  0  0  # atno 10167 bound_to 10162
  157.4688  131.1078  150.9829 H   0  0  0  0  0  0  0  0  0  0  0  0  # atno 10718 bound_to 10713
  154.3729  135.2753  155.2256 H   0  0  0  0  0  0  0  0  0  0  0  0  # atno 10763 bound_to 10752
  154.4396  135.5957  153.6124 H   0  0  0  0  0  0  0  0  0  0  0  0  # atno 10764 bound_to 10752
  152.9837  135.6015  154.3962 H   0  0  0  0  0  0  0  0  0  0  0  0  # atno 10765 bound_to 10752
  141.0568  133.9599  157.2739 H   0  0  0  0  0  0  0  0  0  0  0  0  # atno 11005 bound_to 11000
  146.3417  140.2256  142.8592 LP  0  0  0  0  0  0  0  0  0  0  0  0  # atno 17320 bound_to 7965
  144.9947  140.8578  143.5318 LP  0  0  0  0  0  0  0  0  0  0  0  0  # atno 17321 bound_to 7965
  140.6347  143.2193  151.6420 LP  0  0  0  0  0  0  0  0  0  0  0  0  # atno 17342 bound_to 10162
  139.5193  144.3258  152.0870 LP  0  0  0  0  0  0  0  0  0  0  0  0  # atno 17343 bound_to 10162
  157.0601  130.5822  149.5384 LP  0  0  0  0  0  0  0  0  0  0  0  0  # atno 17370 bound_to 10713
  156.0063  130.5150  150.7840 LP  0  0  0  0  0  0  0  0  0  0  0  0  # atno 17371 bound_to 10713
  139.9397  135.0192  156.8670 LP  0  0  0  0  0  0  0  0  0  0  0  0  # atno 17394 bound_to 11000
  140.5948  134.0228  155.7513 LP  0  0  0  0  0  0  0  0  0  0  0  0  # atno 17395 bound_to 11000

$$$$
