AV-unprocessed.smi:3032|AV-procd|sdf|11559|dock2
  -GOLD-   2272016523D 1   1.00000     0.00000
 Structure written by MMmdl.
 37 38  0  0  0  0  0  0  0  0  1 V2000
  153.9103  141.7456  160.4058 C   0  0  0  0  0  0  0  0  0  0  0  0
  153.0469  142.5114  159.3933 C   0  0  2  0  0  0  0  0  0  0  0  0
  152.2329  143.6270  160.0772 C   0  0  0  0  0  0  0  0  0  0  0  0
  151.3640  144.3916  159.0664 C   0  0  0  0  0  0  0  0  0  0  0  0
  150.4399  143.4386  158.2929 C   0  0  0  0  0  0  0  0  0  0  0  0
  151.2462  142.3256  157.5923 C   0  0  2  0  0  0  0  0  0  0  0  0
  150.3109  141.3713  156.8382 C   0  0  0  0  0  0  0  0  0  0  0  0
  150.4104  140.1532  156.9892 O   0  0  0  0  0  0  0  0  0  0  0  0
  149.3941  141.9394  156.0403 N   0  0  0  0  0  0  0  0  0  0  0  0
  148.3749  141.2183  155.2830 C   0  0  0  0  0  0  0  0  0  0  0  0
  148.9678  140.1522  154.3391 C   0  0  0  0  0  0  0  0  0  0  0  0
  148.0508  139.7535  153.2258 C   0  0  0  0  0  0  0  0  0  0  0  0
  148.2726  138.6756  152.4705 N   0  0  0  0  0  0  0  0  0  0  0  0
  147.2764  138.5502  151.5691 N   0  0  0  0  0  0  0  0  0  0  0  0
  146.5062  139.5975  151.8581 C   0  0  0  0  0  0  0  0  0  0  0  0
  146.9347  140.3895  152.8868 N   0  0  0  0  0  0  0  0  0  0  0  0
  152.1123  141.5622  158.6174 C   0  0  0  0  0  0  0  0  0  0  0  0
  149.0453  138.0277  152.5346 H   0  0  0  0  0  0  0  0  0  0  0  0
  153.2952  141.2520  161.1588 H   0  0  0  0  0  0  0  0  0  0  0  0
  154.5959  142.4166  160.9239 H   0  0  0  0  0  0  0  0  0  0  0  0
  154.5096  140.9805  159.9115 H   0  0  0  0  0  0  0  0  0  0  0  0
  153.7221  142.9796  158.6756 H   0  0  0  0  0  0  0  0  0  0  0  0
  151.5956  143.1968  160.8512 H   0  0  0  0  0  0  0  0  0  0  0  0
  152.9037  144.3233  160.5817 H   0  0  0  0  0  0  0  0  0  0  0  0
  150.7703  145.1460  159.5833 H   0  0  0  0  0  0  0  0  0  0  0  0
  152.0046  144.9291  158.3661 H   0  0  0  0  0  0  0  0  0  0  0  0
  149.7152  143.0028  158.9828 H   0  0  0  0  0  0  0  0  0  0  0  0
  149.8645  144.0056  157.5595 H   0  0  0  0  0  0  0  0  0  0  0  0
  151.9138  142.7957  156.8676 H   0  0  0  0  0  0  0  0  0  0  0  0
  149.3824  142.9472  155.9739 H   0  0  0  0  0  0  0  0  0  0  0  0
  147.7195  140.7331  156.0069 H   0  0  0  0  0  0  0  0  0  0  0  0
  147.7525  141.9190  154.7249 H   0  0  0  0  0  0  0  0  0  0  0  0
  149.8993  140.5208  153.9085 H   0  0  0  0  0  0  0  0  0  0  0  0
  149.2319  139.2600  154.9087 H   0  0  0  0  0  0  0  0  0  0  0  0
  145.5987  139.7988  151.3081 H   0  0  0  0  0  0  0  0  0  0  0  0
  152.7061  140.8032  158.1056 H   0  0  0  0  0  0  0  0  0  0  0  0
  151.4741  141.0278  159.3237 H   0  0  0  0  0  0  0  0  0  0  0  0
  1  2  1  0  0  0  0
  1 19  1  0  0  0  0
  1 20  1  0  0  0  0
  1 21  1  0  0  0  0
  2 17  1  0  0  0  0
  2  3  1  0  0  0  0
  2 22  1  0  0  0  0
  3  4  1  0  0  0  0
  3 23  1  0  0  0  0
  3 24  1  0  0  0  0
  4  5  1  0  0  0  0
  4 25  1  0  0  0  0
  4 26  1  0  0  0  0
  5  6  1  0  0  0  0
  5 27  1  0  0  0  0
  5 28  1  0  0  0  0
  6  7  1  0  0  0  0
  6 17  1  0  0  0  0
  6 29  1  0  0  0  0
  7  8  2  0  0  0  0
  7  9  1  0  0  0  0
  9 10  1  0  0  0  0
  9 30  1  0  0  0  0
 10 11  1  0  0  0  0
 10 31  1  0  0  0  0
 10 32  1  0  0  0  0
 11 33  1  0  0  0  0
 11 34  1  0  0  0  0
 11 12  1  0  0  0  0
 12 16  2  0  0  0  0
 12 13  1  0  0  0  0
 13 18  1  0  0  0  0
 13 14  1  0  0  0  0
 14 15  2  0  0  0  0
 15 16  1  0  0  0  0
 15 35  1  0  0  0  0
 17 36  1  0  0  0  0
 17 37  1  0  0  0  0
M  END
> <s_m_source_file>
AV-unprocessed.smi

> <i_m_source_file_index>
3032

> <i_lp_mmshare_version>
43012

> <i_f3d_flags>
0

> <s_epik_input>
W0NIM11bQ0BASF0xW0NIMl1bQ0gyXVtDSDJdW0NASF0oW0NIMl0xKUMoPU8pW05IXVtDSDJdW0NIMl1jMm5uW2NIXVtuSF0y

> <s_epik_cmdline>
J2VwaWtfcHl0aG9uJywgJy1waCcsICc3LjAnLCAnLXRuJywgJzgnLCAnLW1hJywgJzIwMCcsICctbWV0YWxfYmluZGluZycsICctaW1hZScsICc8aW5maWxlLm1hZT4nLCAnLW9tYWUnLCAnPG91dGZpbGUubWFlPic=

> <r_lp_tautomer_probability>
0.948284

> <r_epik_Ionization_Penalty>
0.000474052

> <r_epik_Ionization_Penalty_Charging>
0

> <r_epik_Ionization_Penalty_Neutral>
0.000474052

> <r_epik_State_Penalty>
0.271807

> <r_epik_Charging_Adjusted_Penalty>
0.271807

> <i_epik_Tot_Q>
0

> <i_epik_Tot_abs_Q>
0

> <r_epik_Metal_State_Penalty>
0.397201

> <b_epik_Metal_Only>
0

> <s_lp_Force_Field>
OPLS_2005

> <r_lp_Energy>
10.6887

> <b_lp_Chiralities_Consistent>
1

> <s_lp_Variant>
AV-unprocessed.smi:3032-3

> <Gold.Version>
5.8.1

> <Gold.Id.Protein>
6NUR|6NUR_protein|mol2

> <Gold.PLP.Fitness>
42.6731

> <Gold.PLP.PLP>
-30.8749

> <Gold.PLP.part.hbond>
-3.5575

> <Gold.PLP.part.metal>
0.0000

> <Gold.PLP.part.buried>
0.1894

> <Gold.PLP.part.nonpolar>
-32.3685

> <Gold.PLP.part.repulsive>
4.6972

> <Gold.PLP.ligand.clash>
0.0000

> <Gold.PLP.ligand.torsion>
0.4080

> <Gold.PLP.Chemscore.Hbond>
2.4225

> <Gold.PLP.Chemscore.CHOScore>
1.7748

> <Gold.PLP.Chemscore.Metal>
0.0000

> <Gold.Chemscore.Hbonds>
donor molecule, donor type, donor heavy atom, donor atom, acceptor molecule, acceptor atom, score
      L1  H     9    30       P1  8028  1.00
      L1  H    13    18       P1  7948  0.46
      P1  H  7954  7966       L1    14  1.00
      L1  C    15    35       P1 10171  0.94
      L1  C    15    35       P1 10175  0.76

> <Gold.PLP.Chemscore.Internal.Correction>
0.0221

> <Gold.Rescore>
     Score         DG    S(hbond)    S(metal)    S(lipo)     H(rot)  DE(clash)    DE(int)     intcor
     12.00     -15.24       1.63        0.00      86.02       2.25       1.93       1.31       ----

> <Gold.Chemscore.Fitness>
11.9981

> <Gold.Chemscore.DG>
-15.2382

> <Gold.Chemscore.ZeroCoef>
-5.4800

> <Gold.Chemscore.Hbond>
1.6329

> <Gold.Chemscore.Metal>
0.0000

> <Gold.Chemscore.Lipo>
86.0214

> <Gold.Chemscore.Internal_Hbond>
0.0000

> <Gold.Chemscore.DEClash>
1.9322

> <Gold.Chemscore.DEInternal>
1.3079

> <Gold.Chemscore.Rot>
2.2501

> <Gold.Chemscore.Internal.Correction>
   9.000000E+99

> <Gold.Chemscore.Hbonds>
donor molecule, donor type, donor heavy atom, donor atom, acceptor molecule, acceptor atom, score
      L1  H     9    30       P1  8028  1.00
      L1  H    13    18       P1  7948  0.47
      P1  H  7954  7966       L1    14  0.46

> <Gold.Chemscore.Hbond.Weighted>
-5.4540

> <Gold.Chemscore.Metal.Weighted>
-0.0000

> <Gold.Chemscore.Lipo.Weighted>
-10.0645

> <Gold.Chemscore.Internal_Hbond.Weighted>
0.0000

> <Gold.Chemscore.DEClash.Weighted>
1.9322

> <Gold.Chemscore.DEInternal.Weighted>
1.3079

> <Gold.Chemscore.Rot.Weighted>
5.7603

> <Gold.Chemscore.Internal.Correction.Weighted>
   9.000000E+99

> <Gold.Protein.RotatedTorsions>
[ 6907 6896 6895 6894 ] final -101.16 input  -60.11 | X-H torsion
[ 7974 7965 7964 7962 ] final  -24.44 input  175.53 | X-H torsion
[ 8008 7997 7996 7995 ] final   85.90 input   59.86 | X-H torsion
[ 10167 10162 10161 10158 ] final   94.18 input  -65.29 | X-H torsion
[ 10718 10713 10712 10709 ] final -109.27 input   66.30 | X-H torsion
[ 10763 10752 10751 10750 ] final  -67.08 input  -60.55 | X-H torsion
[ 11005 11000 10999 10996 ] final  148.97 input  -57.11 | X-H torsion

> <Gold.Protein.ActiveResidues>
 VAL166  LYS551  ARG553  GLY616  TRP617  ASP618  TYR619  PRO620  LYS621  CYS622 
 ASP623  PHE694  ASN695  SER759  ASP760  ASP761  ALA762  ILE779  LEU786  VAL792 
 PHE793  MET794  SER795  GLU796  ALA797  LYS798  CYS799  TRP800  GLU811  SER814 

> <Gold.Protein.RotatedAtoms>
  150.7144  134.0776  159.3886 H   0  0  0  0  0  0  0  0  0  0  0  0  # atno 6907 bound_to 6896
  151.8760  135.0469  160.0493 H   0  0  0  0  0  0  0  0  0  0  0  0  # atno 6908 bound_to 6896
  152.2606  133.5258  159.5416 H   0  0  0  0  0  0  0  0  0  0  0  0  # atno 6909 bound_to 6896
  146.1554  140.4752  142.8593 H   0  0  0  0  0  0  0  0  0  0  0  0  # atno 7974 bound_to 7965
  155.9560  140.3397  155.6449 H   0  0  0  0  0  0  0  0  0  0  0  0  # atno 8008 bound_to 7997
  155.6859  140.0743  157.2485 H   0  0  0  0  0  0  0  0  0  0  0  0  # atno 8009 bound_to 7997
  154.4132  140.1666  156.2021 H   0  0  0  0  0  0  0  0  0  0  0  0  # atno 8010 bound_to 7997
  139.8108  144.6774  150.9642 H   0  0  0  0  0  0  0  0  0  0  0  0  # atno 10167 bound_to 10162
  156.0528  130.5755  150.8077 H   0  0  0  0  0  0  0  0  0  0  0  0  # atno 10718 bound_to 10713
  154.3692  135.6099  153.5731 H   0  0  0  0  0  0  0  0  0  0  0  0  # atno 10763 bound_to 10752
  152.9791  135.5834  154.4542 H   0  0  0  0  0  0  0  0  0  0  0  0  # atno 10764 bound_to 10752
  154.4293  135.2847  155.1901 H   0  0  0  0  0  0  0  0  0  0  0  0  # atno 10765 bound_to 10752
  140.1005  134.8986  157.1788 H   0  0  0  0  0  0  0  0  0  0  0  0  # atno 11005 bound_to 11000
  144.7957  140.6117  143.6512 LP  0  0  0  0  0  0  0  0  0  0  0  0  # atno 17320 bound_to 7965
  145.4721  139.1502  143.3808 LP  0  0  0  0  0  0  0  0  0  0  0  0  # atno 17321 bound_to 7965
  140.7818  143.4187  151.0876 LP  0  0  0  0  0  0  0  0  0  0  0  0  # atno 17342 bound_to 10162
  139.7853  143.8296  152.3144 LP  0  0  0  0  0  0  0  0  0  0  0  0  # atno 17343 bound_to 10162
  157.5471  131.0943  150.9747 LP  0  0  0  0  0  0  0  0  0  0  0  0  # atno 17370 bound_to 10713
  157.0016  130.5602  149.5312 LP  0  0  0  0  0  0  0  0  0  0  0  0  # atno 17371 bound_to 10713
  140.3227  134.2899  155.7243 LP  0  0  0  0  0  0  0  0  0  0  0  0  # atno 17394 bound_to 11000
  141.2104  133.7720  156.9933 LP  0  0  0  0  0  0  0  0  0  0  0  0  # atno 17395 bound_to 11000

$$$$
