AV-unprocessed.smi:1682|AV-procd|sdf|6743|dock10
  -GOLD-   22720 7493D 1   1.00000     0.00000
 Structure written by MMmdl.
 38 39  0  0  0  0  0  0  0  0  1 V2000
  148.4546  139.0449  155.8907 O   0  0  0  0  0  0  0  0  0  0  0  0
  149.2862  139.2658  156.7720 C   0  0  0  0  0  0  0  0  0  0  0  0
  149.2793  138.6439  157.9609 N   0  0  0  0  0  0  0  0  0  0  0  0
  148.2903  137.6574  158.3798 C   0  0  0  0  0  0  0  0  0  0  0  0
  148.7670  136.8712  159.6127 C   0  0  0  0  0  0  0  0  0  0  0  0
  147.6679  136.6919  160.6422 C   0  0  0  0  0  0  0  0  0  0  0  0
  147.8057  135.7502  161.6842 C   0  0  0  0  0  0  0  0  0  0  0  0
  146.7580  135.6236  162.6166 C   0  0  0  0  0  0  0  0  0  0  0  0
  145.6198  136.4399  162.4728 C   0  0  0  0  0  0  0  0  0  0  0  0
  145.5801  137.3511  161.3986 C   0  0  0  0  0  0  0  0  0  0  0  0
  146.5793  137.4808  160.4991 N   0  0  0  0  0  0  0  0  0  0  0  0
  150.3982  140.3017  156.5435 C   0  0  2  0  0  0  0  0  0  0  0  0
  151.7947  139.6568  156.6499 C   0  0  0  0  0  0  0  0  0  0  0  0
  152.3620  140.2237  157.9409 C   0  0  0  0  0  0  0  0  0  0  0  0
  153.4328  139.8518  158.4177 O   0  0  0  0  0  0  0  0  0  0  0  0
  151.5430  141.1442  158.4603 N   0  0  0  0  0  0  0  0  0  0  0  0
  151.7470  141.8891  159.7008 C   0  0  0  0  0  0  0  0  0  0  0  0
  152.5240  143.1984  159.4738 C   0  0  0  0  0  0  0  0  0  0  0  0
  152.4137  143.9621  160.5597 F   0  0  0  0  0  0  0  0  0  0  0  0
  153.8152  142.9403  159.2657 F   0  0  0  0  0  0  0  0  0  0  0  0
  152.0387  143.8724  158.4317 F   0  0  0  0  0  0  0  0  0  0  0  0
  150.3933  141.4147  157.6130 C   0  0  0  0  0  0  0  0  0  0  0  0
  150.0001  138.8803  158.6272 H   0  0  0  0  0  0  0  0  0  0  0  0
  147.3367  138.1473  158.5843 H   0  0  0  0  0  0  0  0  0  0  0  0
  148.1167  136.9760  157.5464 H   0  0  0  0  0  0  0  0  0  0  0  0
  149.1334  135.8889  159.3109 H   0  0  0  0  0  0  0  0  0  0  0  0
  149.6100  137.3798  160.0821 H   0  0  0  0  0  0  0  0  0  0  0  0
  148.6924  135.1393  161.7687 H   0  0  0  0  0  0  0  0  0  0  0  0
  146.8265  134.9134  163.4274 H   0  0  0  0  0  0  0  0  0  0  0  0
  144.7971  136.3695  163.1686 H   0  0  0  0  0  0  0  0  0  0  0  0
  144.7230  137.9929  161.2587 H   0  0  0  0  0  0  0  0  0  0  0  0
  150.2705  140.7468  155.5551 H   0  0  0  0  0  0  0  0  0  0  0  0
  151.7741  138.5662  156.6870 H   0  0  0  0  0  0  0  0  0  0  0  0
  152.4295  139.9531  155.8144 H   0  0  0  0  0  0  0  0  0  0  0  0
  150.7818  142.1028  160.1628 H   0  0  0  0  0  0  0  0  0  0  0  0
  152.2884  141.2588  160.4076 H   0  0  0  0  0  0  0  0  0  0  0  0
  150.5106  142.3952  157.1495 H   0  0  0  0  0  0  0  0  0  0  0  0
  149.4752  141.4381  158.2024 H   0  0  0  0  0  0  0  0  0  0  0  0
  1  2  2  0  0  0  0
  2  3  1  0  0  0  0
  2 12  1  0  0  0  0
  3  4  1  0  0  0  0
  3 23  1  0  0  0  0
  4  5  1  0  0  0  0
  4 24  1  0  0  0  0
  4 25  1  0  0  0  0
  5  6  1  0  0  0  0
  5 26  1  0  0  0  0
  5 27  1  0  0  0  0
  6 11  1  0  0  0  0
  6  7  2  0  0  0  0
  7  8  1  0  0  0  0
  7 28  1  0  0  0  0
  8  9  2  0  0  0  0
  8 29  1  0  0  0  0
  9 10  1  0  0  0  0
  9 30  1  0  0  0  0
 10 11  2  0  0  0  0
 10 31  1  0  0  0  0
 12 22  1  0  0  0  0
 12 13  1  0  0  0  0
 12 32  1  0  0  0  0
 13 14  1  0  0  0  0
 13 33  1  0  0  0  0
 13 34  1  0  0  0  0
 14 15  2  0  0  0  0
 14 16  1  0  0  0  0
 16 17  1  0  0  0  0
 16 22  1  0  0  0  0
 17 18  1  0  0  0  0
 17 35  1  0  0  0  0
 17 36  1  0  0  0  0
 18 19  1  0  0  0  0
 18 20  1  0  0  0  0
 18 21  1  0  0  0  0
 22 37  1  0  0  0  0
 22 38  1  0  0  0  0
M  END
> <s_m_source_file>
AV-unprocessed.smi

> <i_m_source_file_index>
1682

> <i_lp_mmshare_version>
43012

> <i_f3d_flags>
0

> <s_epik_input>
RkMoRikoRilbQ0gyXU4oW0NIMl0xKUMoPU8pW0NIMl1bQ0BIXTFDKD1PKVtOSF1bQ0gyXVtDSDJdYzJbY0hdW2NIXVtjSF1bY0hdbjI=

> <s_epik_cmdline>
J2VwaWtfcHl0aG9uJywgJy1waCcsICc3LjAnLCAnLXRuJywgJzgnLCAnLW1hJywgJzIwMCcsICctbWV0YWxfYmluZGluZycsICctaW1hZScsICc8aW5maWxlLm1hZT4nLCAnLW9tYWUnLCAnPG91dGZpbGUubWFlPic=

> <r_epik_Ionization_Penalty>
0.0252359

> <r_epik_Ionization_Penalty_Charging>
0

> <r_epik_Ionization_Penalty_Neutral>
0.0252359

> <r_epik_State_Penalty>
0.020532

> <r_epik_Charging_Adjusted_Penalty>
0.020532

> <i_epik_Tot_Q>
0

> <i_epik_Tot_abs_Q>
0

> <r_epik_Metal_State_Penalty>
0.0196899

> <b_epik_Metal_Only>
0

> <s_lp_Force_Field>
OPLS_2005

> <r_lp_Energy>
9.5977

> <b_lp_Chiralities_Consistent>
1

> <s_lp_Variant>
AV-unprocessed.smi:1682-1

> <Gold.Version>
5.8.1

> <Gold.Id.Protein>
6NUR|6NUR_protein|mol2

> <Gold.PLP.Fitness>
43.0039

> <Gold.PLP.PLP>
-39.1381

> <Gold.PLP.part.hbond>
-2.0000

> <Gold.PLP.part.metal>
0.0000

> <Gold.PLP.part.buried>
-4.5162

> <Gold.PLP.part.nonpolar>
-33.3110

> <Gold.PLP.part.repulsive>
0.1228

> <Gold.PLP.ligand.clash>
0.0000

> <Gold.PLP.ligand.torsion>
1.1187

> <Gold.PLP.Chemscore.Hbond>
2.0000

> <Gold.PLP.Chemscore.CHOScore>
0.0000

> <Gold.PLP.Chemscore.Metal>
0.0000

> <Gold.Chemscore.Hbonds>
donor molecule, donor type, donor heavy atom, donor atom, acceptor molecule, acceptor atom, score
      P1  H  6934  6947       L1    11  1.00
      P1  H  7997  8010       L1    15  1.00

> <Gold.PLP.Chemscore.Internal.Correction>
0.1031

> <Gold.Rescore>
     Score         DG    S(hbond)    S(metal)    S(lipo)     H(rot)  DE(clash)    DE(int)     intcor
     12.16     -13.62       1.19        0.00      81.32       2.09       0.43       1.03       ----

> <Gold.Chemscore.Fitness>
12.1570

> <Gold.Chemscore.DG>
-13.6210

> <Gold.Chemscore.ZeroCoef>
-5.4800

> <Gold.Chemscore.Hbond>
1.1894

> <Gold.Chemscore.Metal>
0.0000

> <Gold.Chemscore.Lipo>
81.3237

> <Gold.Chemscore.Internal_Hbond>
0.0000

> <Gold.Chemscore.DEClash>
0.4309

> <Gold.Chemscore.DEInternal>
1.0332

> <Gold.Chemscore.Rot>
2.0884

> <Gold.Chemscore.Internal.Correction>
   9.000000E+99

> <Gold.Chemscore.Hbonds>
donor molecule, donor type, donor heavy atom, donor atom, acceptor molecule, acceptor atom, score
      P1  H  6934  6947       L1    11  0.10
      P1  H  7997  8010       L1    15  0.60

> <Gold.Chemscore.Hbond.Weighted>
-3.9726

> <Gold.Chemscore.Metal.Weighted>
-0.0000

> <Gold.Chemscore.Lipo.Weighted>
-9.5149

> <Gold.Chemscore.Internal_Hbond.Weighted>
0.0000

> <Gold.Chemscore.DEClash.Weighted>
0.4309

> <Gold.Chemscore.DEInternal.Weighted>
1.0332

> <Gold.Chemscore.Rot.Weighted>
5.3464

> <Gold.Chemscore.Internal.Correction.Weighted>
   9.000000E+99

> <Gold.Protein.RotatedTorsions>
[ 6907 6896 6895 6894 ] final  105.46 input  -60.11 | X-H torsion
[ 7974 7965 7964 7962 ] final  103.26 input  175.53 | X-H torsion
[ 8008 7997 7996 7995 ] final   26.55 input   59.86 | X-H torsion
[ 10167 10162 10161 10158 ] final   64.96 input  -65.29 | X-H torsion
[ 10718 10713 10712 10709 ] final  -78.49 input   66.30 | X-H torsion
[ 10763 10752 10751 10750 ] final  -73.24 input  -60.55 | X-H torsion
[ 11005 11000 10999 10996 ] final -166.76 input  -57.11 | X-H torsion

> <Gold.Protein.ActiveResidues>
 VAL166  LYS551  ARG553  GLY616  TRP617  ASP618  TYR619  PRO620  LYS621  CYS622 
 ASP623  PHE694  ASN695  SER759  ASP760  ASP761  ALA762  ILE779  LEU786  VAL792 
 PHE793  MET794  SER795  GLU796  ALA797  LYS798  CYS799  TRP800  GLU811  SER814 

> <Gold.Protein.RotatedAtoms>
  152.5229  133.9525  159.7678 H   0  0  0  0  0  0  0  0  0  0  0  0  # atno 6907 bound_to 6896
  150.9832  133.6216  159.2726 H   0  0  0  0  0  0  0  0  0  0  0  0  # atno 6908 bound_to 6896
  151.3386  135.0864  159.9416 H   0  0  0  0  0  0  0  0  0  0  0  0  # atno 6909 bound_to 6896
  145.3483  139.2445  143.3572 H   0  0  0  0  0  0  0  0  0  0  0  0  # atno 7974 bound_to 7965
  155.0290  140.3156  155.4765 H   0  0  0  0  0  0  0  0  0  0  0  0  # atno 8008 bound_to 7997
  156.2877  140.2183  156.5353 H   0  0  0  0  0  0  0  0  0  0  0  0  # atno 8009 bound_to 7997
  154.7386  140.0475  157.0779 H   0  0  0  0  0  0  0  0  0  0  0  0  # atno 8010 bound_to 7997
  140.1165  144.4770  150.6946 H   0  0  0  0  0  0  0  0  0  0  0  0  # atno 10167 bound_to 10162
  156.0116  130.4519  150.3505 H   0  0  0  0  0  0  0  0  0  0  0  0  # atno 10718 bound_to 10713
  154.4567  135.5904  153.6228 H   0  0  0  0  0  0  0  0  0  0  0  0  # atno 10763 bound_to 10752
  152.9819  135.6034  154.3537 H   0  0  0  0  0  0  0  0  0  0  0  0  # atno 10764 bound_to 10752
  154.3404  135.2841  155.2404 H   0  0  0  0  0  0  0  0  0  0  0  0  # atno 10765 bound_to 10752
  140.5609  134.5334  157.5143 H   0  0  0  0  0  0  0  0  0  0  0  0  # atno 11005 bound_to 11000
  146.2979  140.4094  142.8715 LP  0  0  0  0  0  0  0  0  0  0  0  0  # atno 17320 bound_to 7965
  144.8737  140.7307  143.6030 LP  0  0  0  0  0  0  0  0  0  0  0  0  # atno 17321 bound_to 7965
  140.6896  143.2368  151.5167 LP  0  0  0  0  0  0  0  0  0  0  0  0  # atno 17342 bound_to 10162
  139.5591  144.2201  152.1662 LP  0  0  0  0  0  0  0  0  0  0  0  0  # atno 17343 bound_to 10162
  157.1597  131.0342  151.2846 LP  0  0  0  0  0  0  0  0  0  0  0  0  # atno 17370 bound_to 10713
  157.4321  130.7496  149.6999 LP  0  0  0  0  0  0  0  0  0  0  0  0  # atno 17371 bound_to 10713
  139.9408  134.7790  156.0683 LP  0  0  0  0  0  0  0  0  0  0  0  0  # atno 17394 bound_to 11000
  141.1115  133.6641  156.2990 LP  0  0  0  0  0  0  0  0  0  0  0  0  # atno 17395 bound_to 11000

$$$$
