AV-unprocessed.smi:3100|AV-procd|sdf|11805|dock1
  -GOLD-   2272017183D 1   1.00000     0.00000
 Structure written by MMmdl.
 28 29  0  0  0  0  0  0  0  0  1 V2000
  152.7914  143.0965  161.6738 C   0  0  0  0  0  0  0  0  0  0  0  0
  152.1265  143.7794  160.4743 C   0  0  1  0  0  0  0  0  0  0  0  0
  153.0174  143.8811  159.2417 C   0  0  0  0  0  0  0  0  0  0  0  0
  151.9961  144.1013  158.1442 C   0  0  0  0  0  0  0  0  0  0  0  0
  150.7585  143.3354  158.6458 C   0  0  1  0  0  0  0  0  0  0  0  0
  150.4918  142.0273  157.8917 C   0  0  0  0  0  0  0  0  0  0  0  0
  150.6827  140.9474  158.4524 O   0  0  0  0  0  0  0  0  0  0  0  0
  150.0383  142.1629  156.6318 N   0  0  0  0  0  0  0  0  0  0  0  0
  149.7242  141.1401  155.6987 C   0  0  0  0  0  0  0  0  0  0  0  0
  148.6958  141.4443  154.7758 C   0  0  0  0  0  0  0  0  0  0  0  0
  148.2873  140.5743  153.8254 N   0  0  0  0  0  0  0  0  0  0  0  0
  148.9132  139.3785  153.7925 C   0  0  0  0  0  0  0  0  0  0  0  0
  149.9397  139.0580  154.7032 C   0  0  0  0  0  0  0  0  0  0  0  0
  150.3431  139.9326  155.6501 N   0  0  0  0  0  0  0  0  0  0  0  0
  151.0238  143.0139  160.0107 O   0  0  0  0  0  0  0  0  0  0  0  0
  153.6597  143.6617  162.0136 H   0  0  0  0  0  0  0  0  0  0  0  0
  153.1238  142.0892  161.4211 H   0  0  0  0  0  0  0  0  0  0  0  0
  152.0968  143.0173  162.5102 H   0  0  0  0  0  0  0  0  0  0  0  0
  151.7681  144.7712  160.7554 H   0  0  0  0  0  0  0  0  0  0  0  0
  153.7525  144.6835  159.3096 H   0  0  0  0  0  0  0  0  0  0  0  0
  153.5476  142.9423  159.0739 H   0  0  0  0  0  0  0  0  0  0  0  0
  151.7614  145.1633  158.0619 H   0  0  0  0  0  0  0  0  0  0  0  0
  152.3606  143.7724  157.1697 H   0  0  0  0  0  0  0  0  0  0  0  0
  149.8821  143.9838  158.5959 H   0  0  0  0  0  0  0  0  0  0  0  0
  149.9080  143.1088  156.3034 H   0  0  0  0  0  0  0  0  0  0  0  0
  148.1923  142.4000  154.7972 H   0  0  0  0  0  0  0  0  0  0  0  0
  148.5956  138.6752  153.0370 H   0  0  0  0  0  0  0  0  0  0  0  0
  150.4375  138.1000  154.6722 H   0  0  0  0  0  0  0  0  0  0  0  0
  1  2  1  0  0  0  0
  1 16  1  0  0  0  0
  1 17  1  0  0  0  0
  1 18  1  0  0  0  0
  2 15  1  0  0  0  0
  2  3  1  0  0  0  0
  2 19  1  0  0  0  0
  3  4  1  0  0  0  0
  3 20  1  0  0  0  0
  3 21  1  0  0  0  0
  4  5  1  0  0  0  0
  4 22  1  0  0  0  0
  4 23  1  0  0  0  0
  5  6  1  0  0  0  0
  5 15  1  0  0  0  0
  5 24  1  0  0  0  0
  6  7  2  0  0  0  0
  6  8  1  0  0  0  0
  8  9  1  0  0  0  0
  8 25  1  0  0  0  0
  9 14  1  0  0  0  0
  9 10  2  0  0  0  0
 10 11  1  0  0  0  0
 10 26  1  0  0  0  0
 11 12  2  0  0  0  0
 12 13  1  0  0  0  0
 12 27  1  0  0  0  0
 13 14  2  0  0  0  0
 13 28  1  0  0  0  0
M  END
> <s_m_source_file>
AV-unprocessed.smi

> <i_m_source_file_index>
3100

> <i_lp_mmshare_version>
43012

> <i_f3d_flags>
0

> <s_epik_input>
W0NIM11bQ0BASF0xW0NIMl1bQ0gyXVtDQEhdKE8xKUMoPU8pW05IXWMyW2NIXW5bY0hdW2NIXW4y

> <s_epik_cmdline>
J2VwaWtfcHl0aG9uJywgJy1waCcsICc3LjAnLCAnLXRuJywgJzgnLCAnLW1hJywgJzIwMCcsICctbWV0YWxfYmluZGluZycsICctaW1hZScsICc8aW5maWxlLm1hZT4nLCAnLW9tYWUnLCAnPG91dGZpbGUubWFlPic=

> <r_lp_tautomer_probability>
1

> <r_epik_Ionization_Penalty>
2.81186e-06

> <r_epik_Ionization_Penalty_Charging>
0

> <r_epik_Ionization_Penalty_Neutral>
2.81186e-06

> <r_epik_State_Penalty>
-0

> <r_epik_Charging_Adjusted_Penalty>
0

> <i_epik_Tot_Q>
0

> <i_epik_Tot_abs_Q>
0

> <r_epik_Metal_State_Penalty>
-0

> <b_epik_Metal_Only>
0

> <s_lp_Force_Field>
OPLS_2005

> <r_lp_Energy>
25.9666

> <b_lp_Chiralities_Consistent>
1

> <s_lp_Variant>
AV-unprocessed.smi:3100-2

> <Gold.Version>
5.8.1

> <Gold.Id.Protein>
6NUR|6NUR_protein|mol2

> <Gold.PLP.Fitness>
38.4358

> <Gold.PLP.PLP>
-30.6174

> <Gold.PLP.part.hbond>
-2.0000

> <Gold.PLP.part.metal>
0.0000

> <Gold.PLP.part.buried>
-2.9582

> <Gold.PLP.part.nonpolar>
-27.0485

> <Gold.PLP.part.repulsive>
1.2518

> <Gold.PLP.ligand.clash>
0.0000

> <Gold.PLP.ligand.torsion>
0.3893

> <Gold.PLP.Chemscore.Hbond>
1.0000

> <Gold.PLP.Chemscore.CHOScore>
1.8630

> <Gold.PLP.Chemscore.Metal>
0.0000

> <Gold.Chemscore.Hbonds>
donor molecule, donor type, donor heavy atom, donor atom, acceptor molecule, acceptor atom, score
      L1  H     8    25       P1  8028  1.00
      L1  C    10    26       P1  8028  0.96
      L1  C    12    27       P1  7948  0.56
      L1  C    12    27       P1  7957  0.27

> <Gold.PLP.Chemscore.Internal.Correction>
0.0082

> <Gold.Rescore>
     Score         DG    S(hbond)    S(metal)    S(lipo)     H(rot)  DE(clash)    DE(int)     intcor
     13.69     -15.51       0.96        0.00      80.23       1.00       0.31       1.51       ----

> <Gold.Chemscore.Fitness>
13.6948

> <Gold.Chemscore.DG>
-15.5110

> <Gold.Chemscore.ZeroCoef>
-5.4800

> <Gold.Chemscore.Hbond>
0.9594

> <Gold.Chemscore.Metal>
0.0000

> <Gold.Chemscore.Lipo>
80.2288

> <Gold.Chemscore.Internal_Hbond>
0.0000

> <Gold.Chemscore.DEClash>
0.3073

> <Gold.Chemscore.DEInternal>
1.5089

> <Gold.Chemscore.Rot>
1.0000

> <Gold.Chemscore.Internal.Correction>
   9.000000E+99

> <Gold.Chemscore.Hbonds>
donor molecule, donor type, donor heavy atom, donor atom, acceptor molecule, acceptor atom, score
      L1  H     8    25       P1  8028  0.94

> <Gold.Chemscore.Hbond.Weighted>
-3.2043

> <Gold.Chemscore.Metal.Weighted>
-0.0000

> <Gold.Chemscore.Lipo.Weighted>
-9.3868

> <Gold.Chemscore.Internal_Hbond.Weighted>
0.0000

> <Gold.Chemscore.DEClash.Weighted>
0.3073

> <Gold.Chemscore.DEInternal.Weighted>
1.5089

> <Gold.Chemscore.Rot.Weighted>
2.5600

> <Gold.Chemscore.Internal.Correction.Weighted>
   9.000000E+99

> <Gold.Protein.RotatedTorsions>
[ 6907 6896 6895 6894 ] final  100.27 input  -60.11 | X-H torsion
[ 7974 7965 7964 7962 ] final  -66.60 input  175.53 | X-H torsion
[ 8008 7997 7996 7995 ] final  150.38 input   59.86 | X-H torsion
[ 10167 10162 10161 10158 ] final  -98.40 input  -65.29 | X-H torsion
[ 10718 10713 10712 10709 ] final   -2.13 input   66.30 | X-H torsion
[ 10763 10752 10751 10750 ] final  146.00 input  -60.55 | X-H torsion
[ 11005 11000 10999 10996 ] final  -71.22 input  -57.11 | X-H torsion

> <Gold.Protein.ActiveResidues>
 VAL166  LYS551  ARG553  GLY616  TRP617  ASP618  TYR619  PRO620  LYS621  CYS622 
 ASP623  PHE694  ASN695  SER759  ASP760  ASP761  ALA762  ILE779  LEU786  VAL792 
 PHE793  MET794  SER795  GLU796  ALA797  LYS798  CYS799  TRP800  GLU811  SER814 

> <Gold.Protein.RotatedAtoms>
  152.5375  134.0302  159.8021 H   0  0  0  0  0  0  0  0  0  0  0  0  # atno 6907 bound_to 6896
  151.0474  133.5646  159.2652 H   0  0  0  0  0  0  0  0  0  0  0  0  # atno 6908 bound_to 6896
  151.2593  135.0656  159.9145 H   0  0  0  0  0  0  0  0  0  0  0  0  # atno 6909 bound_to 6896
  145.7398  140.8959  143.0536 H   0  0  0  0  0  0  0  0  0  0  0  0  # atno 7974 bound_to 7965
  156.2718  140.2076  156.6009 H   0  0  0  0  0  0  0  0  0  0  0  0  # atno 8008 bound_to 7997
  154.6907  140.0530  157.0384 H   0  0  0  0  0  0  0  0  0  0  0  0  # atno 8009 bound_to 7997
  155.0870  140.3192  155.4587 H   0  0  0  0  0  0  0  0  0  0  0  0  # atno 8010 bound_to 7997
  140.2734  143.3329  152.0512 H   0  0  0  0  0  0  0  0  0  0  0  0  # atno 10167 bound_to 10162
  156.7953  130.5375  149.5729 H   0  0  0  0  0  0  0  0  0  0  0  0  # atno 10718 bound_to 10713
  154.0147  135.2911  155.3388 H   0  0  0  0  0  0  0  0  0  0  0  0  # atno 10763 bound_to 10752
  154.7082  135.5160  153.8630 H   0  0  0  0  0  0  0  0  0  0  0  0  # atno 10764 bound_to 10752
  153.0707  135.6647  154.0375 H   0  0  0  0  0  0  0  0  0  0  0  0  # atno 10765 bound_to 10752
  141.1588  133.6811  156.6873 H   0  0  0  0  0  0  0  0  0  0  0  0  # atno 11005 bound_to 11000
  144.6873  139.9444  143.7476 LP  0  0  0  0  0  0  0  0  0  0  0  0  # atno 17320 bound_to 7965
  146.0459  139.3465  143.0669 LP  0  0  0  0  0  0  0  0  0  0  0  0  # atno 17321 bound_to 7965
  139.4982  144.6641  151.6397 LP  0  0  0  0  0  0  0  0  0  0  0  0  # atno 17342 bound_to 10162
  140.5871  143.9845  150.6302 LP  0  0  0  0  0  0  0  0  0  0  0  0  # atno 17343 bound_to 10162
  156.1134  130.6057  151.0082 LP  0  0  0  0  0  0  0  0  0  0  0  0  # atno 17370 bound_to 10713
  157.6580  131.0886  150.7903 LP  0  0  0  0  0  0  0  0  0  0  0  0  # atno 17371 bound_to 10713
  140.3057  134.8127  157.4135 LP  0  0  0  0  0  0  0  0  0  0  0  0  # atno 17394 bound_to 11000
  140.1222  134.5204  155.8174 LP  0  0  0  0  0  0  0  0  0  0  0  0  # atno 17395 bound_to 11000

$$$$
