AV-unprocessed.smi:2928|AV-procd|sdf|11235|dock5
  -GOLD-   2272016133D 1   1.00000     0.00000
 Structure written by MMmdl.
 56 59  0  0  0  0  0  0  0  0  3 V2000
  146.8145  138.9877  152.6508 C   0  0  0  0  0  0  0  0  0  0  0  0
  147.0469  139.1180  154.1092 N   0  3  2  0  0  0  0  0  0  0  0  0
  146.9434  140.5001  154.6354 C   0  0  2  0  0  0  0  0  0  0  0  0
  148.1281  141.3782  154.1572 C   0  0  0  0  0  0  0  0  0  0  0  0
  149.5170  140.7563  154.3951 C   0  0  0  0  0  0  0  0  0  0  0  0
  149.5493  139.2431  154.1145 C   0  0  0  0  0  0  0  0  0  0  0  0
  148.2915  138.4796  154.5997 C   0  0  1  0  0  0  0  0  0  0  0  0
  148.1902  138.2825  156.1303 C   0  0  0  0  0  0  0  0  0  0  0  0
  147.7158  139.5204  156.9413 C   0  0  1  0  0  0  0  0  0  0  0  0
  148.8167  140.2826  157.5240 N   0  0  0  0  0  0  0  0  0  0  0  0
  149.8358  139.7783  158.2342 C   0  0  0  0  0  0  0  0  0  0  0  0
  149.9533  138.5843  158.5073 O   0  0  0  0  0  0  0  0  0  0  0  0
  150.7073  140.7412  158.5740 N   0  0  0  0  0  0  0  0  0  0  0  0
  151.9613  140.5961  159.2301 C   0  0  0  0  0  0  0  0  0  0  0  0
  152.5678  139.3336  159.4508 C   0  0  0  0  0  0  0  0  0  0  0  0
  153.8036  139.2626  160.1244 C   0  0  0  0  0  0  0  0  0  0  0  0
  154.4087  140.4513  160.5733 C   0  0  0  0  0  0  0  0  0  0  0  0
  153.7973  141.6356  160.3613 N   0  3  0  0  0  0  0  0  0  0  0  0
  152.6090  141.7581  159.7207 C   0  0  0  0  0  0  0  0  0  0  0  0
  152.0550  143.0384  159.5488 N   0  0  0  0  0  0  0  0  0  0  0  0
  151.9120  143.8262  160.7614 C   0  0  0  0  0  0  0  0  0  0  0  0
  151.6638  145.2606  160.2872 C   0  0  0  0  0  0  0  0  0  0  0  0
  152.2071  145.3025  158.8534 C   0  0  0  0  0  0  0  0  0  0  0  0
  152.7411  143.8917  158.5936 C   0  0  0  0  0  0  0  0  0  0  0  0
  146.7383  140.4416  156.1679 C   0  0  0  0  0  0  0  0  0  0  0  0
  147.5690  139.5089  152.0624 H   0  0  0  0  0  0  0  0  0  0  0  0
  145.8386  139.3939  152.3841 H   0  0  0  0  0  0  0  0  0  0  0  0
  146.8245  137.9377  152.3575 H   0  0  0  0  0  0  0  0  0  0  0  0
  146.0350  140.9437  154.2252 H   0  0  0  0  0  0  0  0  0  0  0  0
  148.0158  141.5611  153.0882 H   0  0  0  0  0  0  0  0  0  0  0  0
  148.0796  142.3628  154.6232 H   0  0  0  0  0  0  0  0  0  0  0  0
  150.2504  141.2564  153.7619 H   0  0  0  0  0  0  0  0  0  0  0  0
  149.8563  140.9596  155.4047 H   0  0  0  0  0  0  0  0  0  0  0  0
  149.6527  139.0967  153.0390 H   0  0  0  0  0  0  0  0  0  0  0  0
  150.4470  138.8053  154.5521 H   0  0  0  0  0  0  0  0  0  0  0  0
  148.3424  137.4788  154.1680 H   0  0  0  0  0  0  0  0  0  0  0  0
  147.4561  137.4933  156.2989 H   0  0  0  0  0  0  0  0  0  0  0  0
  149.1250  137.8807  156.5223 H   0  0  0  0  0  0  0  0  0  0  0  0
  147.1582  139.1424  157.8007 H   0  0  0  0  0  0  0  0  0  0  0  0
  148.8098  141.2782  157.3573 H   0  0  0  0  0  0  0  0  0  0  0  0
  150.5128  141.6629  158.2112 H   0  0  0  0  0  0  0  0  0  0  0  0
  152.0995  138.4169  159.1261 H   0  0  0  0  0  0  0  0  0  0  0  0
  154.2780  138.3077  160.2975 H   0  0  0  0  0  0  0  0  0  0  0  0
  155.3531  140.4903  161.0968 H   0  0  0  0  0  0  0  0  0  0  0  0
  151.0882  143.4584  161.3741 H   0  0  0  0  0  0  0  0  0  0  0  0
  152.8236  143.7804  161.3588 H   0  0  0  0  0  0  0  0  0  0  0  0
  150.5955  145.4808  160.2856 H   0  0  0  0  0  0  0  0  0  0  0  0
  152.1513  145.9877  160.9375 H   0  0  0  0  0  0  0  0  0  0  0  0
  151.4001  145.5362  158.1577 H   0  0  0  0  0  0  0  0  0  0  0  0
  152.9847  146.0560  158.7248 H   0  0  0  0  0  0  0  0  0  0  0  0
  153.8192  143.8627  158.7588 H   0  0  0  0  0  0  0  0  0  0  0  0
  152.5478  143.5712  157.5694 H   0  0  0  0  0  0  0  0  0  0  0  0
  146.7299  141.4464  156.5924 H   0  0  0  0  0  0  0  0  0  0  0  0
  145.7320  140.0558  156.3384 H   0  0  0  0  0  0  0  0  0  0  0  0
  146.2885  138.6043  154.5353 H   0  0  0  0  0  0  0  0  0  0  0  0
  154.2546  142.4823  160.7001 H   0  0  0  0  0  0  0  0  0  0  0  0
  1  2  1  0  0  0  0
  1 26  1  0  0  0  0
  1 27  1  0  0  0  0
  1 28  1  0  0  0  0
  2  7  1  0  0  0  0
  2  3  1  0  0  0  0
  2 55  1  0  0  0  0
  3 25  1  0  0  0  0
  3  4  1  0  0  0  0
  3 29  1  0  0  0  0
  4  5  1  0  0  0  0
  4 30  1  0  0  0  0
  4 31  1  0  0  0  0
  5  6  1  0  0  0  0
  5 32  1  0  0  0  0
  5 33  1  0  0  0  0
  6  7  1  0  0  0  0
  6 34  1  0  0  0  0
  6 35  1  0  0  0  0
  7  8  1  0  0  0  0
  7 36  1  0  0  0  0
  8  9  1  0  0  0  0
  8 37  1  0  0  0  0
  8 38  1  0  0  0  0
  9 10  1  0  0  0  0
  9 25  1  0  0  0  0
  9 39  1  0  0  0  0
 10 11  1  0  0  0  0
 10 40  1  0  0  0  0
 11 12  2  0  0  0  0
 11 13  1  0  0  0  0
 13 14  1  0  0  0  0
 13 41  1  0  0  0  0
 14 19  1  0  0  0  0
 14 15  2  0  0  0  0
 15 16  1  0  0  0  0
 15 42  1  0  0  0  0
 16 17  2  0  0  0  0
 16 43  1  0  0  0  0
 17 18  1  0  0  0  0
 17 44  1  0  0  0  0
 18 19  2  0  0  0  0
 18 56  1  0  0  0  0
 19 20  1  0  0  0  0
 20 24  1  0  0  0  0
 20 21  1  0  0  0  0
 21 22  1  0  0  0  0
 21 45  1  0  0  0  0
 21 46  1  0  0  0  0
 22 23  1  0  0  0  0
 22 47  1  0  0  0  0
 22 48  1  0  0  0  0
 23 24  1  0  0  0  0
 23 49  1  0  0  0  0
 23 50  1  0  0  0  0
 24 51  1  0  0  0  0
 24 52  1  0  0  0  0
 25 53  1  0  0  0  0
 25 54  1  0  0  0  0
M  CHG  1   2   1
M  CHG  1  18   1
M  END
> <s_m_source_file>
AV-unprocessed.smi

> <i_m_source_file_index>
2928

> <i_lp_mmshare_version>
43012

> <i_f3d_flags>
0

> <s_epik_input>
W0NIMl0xW0NIMl1bQ0gyXVtDQEhdKE4oW0NIM10pW0NIXTEyKVtDSDJdW0NASF0oW0NIMl0yKVtOSF1DKD1PKVtOSF1jM1tjSF1bY0hdW2NIXW5jM040W0NIMl1bQ0gyXVtDSDJdW0NIMl00

> <s_epik_cmdline>
J2VwaWtfcHl0aG9uJywgJy1waCcsICc3LjAnLCAnLXRuJywgJzgnLCAnLW1hJywgJzIwMCcsICctbWV0YWxfYmluZGluZycsICctaW1hZScsICc8aW5maWxlLm1hZT4nLCAnLW9tYWUnLCAnPG91dGZpbGUubWFlPic=

> <r_lp_tautomer_probability>
0.999994

> <r_epik_Ionization_Penalty>
1.2404

> <r_epik_Ionization_Penalty_Charging>
1.24038

> <r_epik_Ionization_Penalty_Neutral>
1.86539e-05

> <r_epik_State_Penalty>
1.30821

> <r_epik_Charging_Adjusted_Penalty>
2.54859

> <i_epik_Tot_Q>
2

> <i_epik_Tot_abs_Q>
2

> <r_epik_Metal_State_Penalty>
1.3782

> <b_epik_Metal_Only>
0

> <s_lp_Force_Field>
OPLS_2005

> <r_lp_Energy>
75.6224

> <b_lp_Chiralities_Consistent>
1

> <s_lp_Variant>
AV-unprocessed.smi:2928-5

> <Gold.Version>
5.8.1

> <Gold.Id.Protein>
6NUR|6NUR_protein|mol2

> <Gold.PLP.Fitness>
42.9316

> <Gold.PLP.PLP>
-43.3365

> <Gold.PLP.part.hbond>
0.0000

> <Gold.PLP.part.metal>
0.0000

> <Gold.PLP.part.buried>
-5.0800

> <Gold.PLP.part.nonpolar>
-39.2563

> <Gold.PLP.part.repulsive>
0.3348

> <Gold.PLP.ligand.clash>
0.0000

> <Gold.PLP.ligand.torsion>
0.2378

> <Gold.PLP.Chemscore.Hbond>
0.0000

> <Gold.PLP.Chemscore.CHOScore>
0.0000

> <Gold.PLP.Chemscore.Metal>
0.0000

> <Gold.PLP.Chemscore.Internal.Correction>
0.0707

> <Gold.Rescore>
     Score         DG    S(hbond)    S(metal)    S(lipo)     H(rot)  DE(clash)    DE(int)     intcor
     13.59     -16.27       0.00        0.00     118.26       1.19       0.09       2.59       ----

> <Gold.Chemscore.Fitness>
13.5918

> <Gold.Chemscore.DG>
-16.2748

> <Gold.Chemscore.ZeroCoef>
-5.4800

> <Gold.Chemscore.Hbond>
0.0000

> <Gold.Chemscore.Metal>
0.0000

> <Gold.Chemscore.Lipo>
118.2555

> <Gold.Chemscore.Internal_Hbond>
0.0000

> <Gold.Chemscore.DEClash>
0.0890

> <Gold.Chemscore.DEInternal>
2.5941

> <Gold.Chemscore.Rot>
1.1879

> <Gold.Chemscore.Internal.Correction>
   9.000000E+99

> <Gold.Chemscore.Hbond.Weighted>
-0.0000

> <Gold.Chemscore.Metal.Weighted>
-0.0000

> <Gold.Chemscore.Lipo.Weighted>
-13.8359

> <Gold.Chemscore.Internal_Hbond.Weighted>
0.0000

> <Gold.Chemscore.DEClash.Weighted>
0.0890

> <Gold.Chemscore.DEInternal.Weighted>
2.5941

> <Gold.Chemscore.Rot.Weighted>
3.0410

> <Gold.Chemscore.Internal.Correction.Weighted>
   9.000000E+99

> <Gold.Protein.RotatedTorsions>
[ 6907 6896 6895 6894 ] final  131.56 input  -60.11 | X-H torsion
[ 7974 7965 7964 7962 ] final -132.01 input  175.53 | X-H torsion
[ 8008 7997 7996 7995 ] final -120.26 input   59.86 | X-H torsion
[ 10167 10162 10161 10158 ] final -107.07 input  -65.29 | X-H torsion
[ 10718 10713 10712 10709 ] final  178.30 input   66.30 | X-H torsion
[ 10763 10752 10751 10750 ] final -104.96 input  -60.55 | X-H torsion
[ 11005 11000 10999 10996 ] final  172.58 input  -57.11 | X-H torsion

> <Gold.Protein.ActiveResidues>
 VAL166  LYS551  ARG553  GLY616  TRP617  ASP618  TYR619  PRO620  LYS621  CYS622 
 ASP623  PHE694  ASN695  SER759  ASP760  ASP761  ALA762  ILE779  LEU786  VAL792 
 PHE793  MET794  SER795  GLU796  ALA797  LYS798  CYS799  TRP800  GLU811  SER814 

> <Gold.Protein.RotatedAtoms>
  152.3414  133.6071  159.5878 H   0  0  0  0  0  0  0  0  0  0  0  0  # atno 6907 bound_to 6896
  150.7481  133.9717  159.3556 H   0  0  0  0  0  0  0  0  0  0  0  0  # atno 6908 bound_to 6896
  151.7580  135.0817  160.0392 H   0  0  0  0  0  0  0  0  0  0  0  0  # atno 6909 bound_to 6896
  144.9326  140.7146  143.4897 H   0  0  0  0  0  0  0  0  0  0  0  0  # atno 7974 bound_to 7965
  155.1289  140.0400  157.2769 H   0  0  0  0  0  0  0  0  0  0  0  0  # atno 8008 bound_to 7997
  154.6557  140.2579  155.7138 H   0  0  0  0  0  0  0  0  0  0  0  0  # atno 8009 bound_to 7997
  156.2597  140.2827  156.1009 H   0  0  0  0  0  0  0  0  0  0  0  0  # atno 8010 bound_to 7997
  140.1809  143.3967  152.1282 H   0  0  0  0  0  0  0  0  0  0  0  0  # atno 10167 bound_to 10162
  156.8926  130.9852  151.3047 H   0  0  0  0  0  0  0  0  0  0  0  0  # atno 10718 bound_to 10713
  154.7914  135.4767  154.0061 H   0  0  0  0  0  0  0  0  0  0  0  0  # atno 10763 bound_to 10752
  153.1637  135.6813  153.8713 H   0  0  0  0  0  0  0  0  0  0  0  0  # atno 10764 bound_to 10752
  153.8318  135.3190  155.3397 H   0  0  0  0  0  0  0  0  0  0  0  0  # atno 10765 bound_to 10752
  140.3313  134.7355  157.4136 H   0  0  0  0  0  0  0  0  0  0  0  0  # atno 11005 bound_to 11000
  145.3118  139.1816  143.4634 LP  0  0  0  0  0  0  0  0  0  0  0  0  # atno 17320 bound_to 7965
  146.3253  140.3124  142.8627 LP  0  0  0  0  0  0  0  0  0  0  0  0  # atno 17321 bound_to 7965
  139.5296  144.7144  151.5102 LP  0  0  0  0  0  0  0  0  0  0  0  0  # atno 17342 bound_to 10162
  140.6520  143.8677  150.6795 LP  0  0  0  0  0  0  0  0  0  0  0  0  # atno 17343 bound_to 10162
  157.6074  130.8558  149.8898 LP  0  0  0  0  0  0  0  0  0  0  0  0  # atno 17370 bound_to 10713
  156.0621  130.3698  150.0958 LP  0  0  0  0  0  0  0  0  0  0  0  0  # atno 17371 bound_to 10713
  140.0859  134.5668  155.8493 LP  0  0  0  0  0  0  0  0  0  0  0  0  # atno 17394 bound_to 11000
  141.2063  133.6654  156.6231 LP  0  0  0  0  0  0  0  0  0  0  0  0  # atno 17395 bound_to 11000

$$$$
