AV-unprocessed.smi:1522|AV-procd|sdf|6137|dock3
  -GOLD-   22720 6283D 1   1.00000     0.00000
 Structure written by MMmdl.
 34 35  0  0  0  0  0  0  0  0  3 V2000
  148.9153  133.2203  154.3808 C   0  0  0  0  0  0  0  0  0  0  0  0
  147.6148  134.0441  154.5224 C   0  0  1  0  0  0  0  0  0  0  0  0
  147.8159  135.2211  155.5062 C   0  0  0  0  0  0  0  0  0  0  0  0
  148.0088  134.7550  156.8738 N   0  0  0  0  0  0  0  0  0  0  0  0
  148.3677  135.5250  157.9085 C   0  0  0  0  0  0  0  0  0  0  0  0
  148.5594  136.7312  157.7380 O   0  0  0  0  0  0  0  0  0  0  0  0
  148.4830  134.8485  159.0731 N   0  5  0  0  0  0  0  0  0  0  0  0
  148.1949  135.4573  160.2352 C   0  0  0  0  0  0  0  0  0  0  0  0
  148.3470  136.7799  160.4096 N   0  0  0  0  0  0  0  0  0  0  0  0
  147.9877  137.2075  161.6807 N   0  0  0  0  0  0  0  0  0  0  0  0
  147.5648  136.1923  162.4335 C   0  0  0  0  0  0  0  0  0  0  0  0
  147.5627  134.6229  161.6574 S   0  0  0  0  0  0  0  0  0  0  0  0
  147.1437  134.5390  153.1965 N   0  3  0  0  0  0  0  0  0  0  0  0
  147.0779  133.5261  152.1201 C   0  0  0  0  0  0  0  0  0  0  0  0
  146.1407  134.1191  151.0747 C   0  0  0  0  0  0  0  0  0  0  0  0
  145.0920  134.8320  151.9203 C   0  0  0  0  0  0  0  0  0  0  0  0
  145.8285  135.2300  153.2070 C   0  0  0  0  0  0  0  0  0  0  0  0
  149.2726  132.8593  155.3453 H   0  0  0  0  0  0  0  0  0  0  0  0
  149.7136  133.8167  153.9378 H   0  0  0  0  0  0  0  0  0  0  0  0
  148.7748  132.3355  153.7605 H   0  0  0  0  0  0  0  0  0  0  0  0
  146.8419  133.3871  154.9251 H   0  0  0  0  0  0  0  0  0  0  0  0
  148.6803  135.8158  155.2060 H   0  0  0  0  0  0  0  0  0  0  0  0
  146.9543  135.8894  155.5024 H   0  0  0  0  0  0  0  0  0  0  0  0
  147.8612  133.7727  157.0536 H   0  0  0  0  0  0  0  0  0  0  0  0
  147.2478  136.3692  163.4503 H   0  0  0  0  0  0  0  0  0  0  0  0
  148.0614  133.3042  151.7047 H   0  0  0  0  0  0  0  0  0  0  0  0
  146.6536  132.5995  152.5111 H   0  0  0  0  0  0  0  0  0  0  0  0
  146.6797  134.8428  150.4616 H   0  0  0  0  0  0  0  0  0  0  0  0
  145.7123  133.3668  150.4117 H   0  0  0  0  0  0  0  0  0  0  0  0
  144.6532  135.6872  151.4054 H   0  0  0  0  0  0  0  0  0  0  0  0
  144.2832  134.1406  152.1605 H   0  0  0  0  0  0  0  0  0  0  0  0
  145.2290  134.9451  154.0728 H   0  0  0  0  0  0  0  0  0  0  0  0
  145.9909  136.3073  153.2547 H   0  0  0  0  0  0  0  0  0  0  0  0
  147.8145  135.2270  152.8851 H   0  0  0  0  0  0  0  0  0  0  0  0
  1  2  1  0  0  0  0
  1 18  1  0  0  0  0
  1 19  1  0  0  0  0
  1 20  1  0  0  0  0
  2  3  1  0  0  0  0
  2 13  1  0  0  0  0
  2 21  1  0  0  0  0
  3  4  1  0  0  0  0
  3 22  1  0  0  0  0
  3 23  1  0  0  0  0
  4  5  1  0  0  0  0
  4 24  1  0  0  0  0
  5  6  2  0  0  0  0
  5  7  1  0  0  0  0
  7  8  1  0  0  0  0
  8 12  1  0  0  0  0
  8  9  2  0  0  0  0
  9 10  1  0  0  0  0
 10 11  2  0  0  0  0
 11 12  1  0  0  0  0
 11 25  1  0  0  0  0
 13 17  1  0  0  0  0
 13 14  1  0  0  0  0
 13 34  1  0  0  0  0
 14 15  1  0  0  0  0
 14 26  1  0  0  0  0
 14 27  1  0  0  0  0
 15 16  1  0  0  0  0
 15 28  1  0  0  0  0
 15 29  1  0  0  0  0
 16 17  1  0  0  0  0
 16 30  1  0  0  0  0
 16 31  1  0  0  0  0
 17 32  1  0  0  0  0
 17 33  1  0  0  0  0
M  CHG  1   7  -1
M  CHG  1  13   1
M  END
> <s_m_source_file>
AV-unprocessed.smi

> <i_m_source_file_index>
1522

> <i_lp_mmshare_version>
43012

> <i_f3d_flags>
0

> <s_epik_input>
W0NIMl0xW0NIMl1bQ0gyXVtDSDJdTjFbQ0BIXShbQ0gzXSlbQ0gyXVtOSF1DKD1PKVtOSF1jMm5uW2NIXXMy

> <s_epik_cmdline>
J2VwaWtfcHl0aG9uJywgJy1waCcsICc3LjAnLCAnLXRuJywgJzgnLCAnLW1hJywgJzIwMCcsICctbWV0YWxfYmluZGluZycsICctaW1hZScsICc8aW5maWxlLm1hZT4nLCAnLW9tYWUnLCAnPG91dGZpbGUubWFlPic=

> <r_lp_tautomer_probability>
1

> <r_epik_Ionization_Penalty>
3.04208

> <r_epik_Ionization_Penalty_Charging>
3.00964

> <r_epik_Ionization_Penalty_Neutral>
0.0324455

> <r_epik_State_Penalty>
3.0051

> <r_epik_Charging_Adjusted_Penalty>
6.01474

> <i_epik_Tot_Q>
0

> <i_epik_Tot_abs_Q>
2

> <r_epik_Metal_State_Penalty>
0.454155

> <b_epik_Metal_Only>
1

> <s_lp_Force_Field>
OPLS_2005

> <r_lp_Energy>
23.3187

> <b_lp_Chiralities_Consistent>
1

> <s_lp_Variant>
AV-unprocessed.smi:1522-4

> <Gold.Version>
5.8.1

> <Gold.Id.Protein>
6NUR|6NUR_protein|mol2

> <Gold.PLP.Fitness>
41.8987

> <Gold.PLP.PLP>
-25.9893

> <Gold.PLP.part.hbond>
-4.5697

> <Gold.PLP.part.metal>
0.0000

> <Gold.PLP.part.buried>
-2.1128

> <Gold.PLP.part.nonpolar>
-18.7081

> <Gold.PLP.part.repulsive>
0.0288

> <Gold.PLP.ligand.clash>
0.0000

> <Gold.PLP.ligand.torsion>
0.5388

> <Gold.PLP.Chemscore.Hbond>
5.6336

> <Gold.PLP.Chemscore.CHOScore>
0.0000

> <Gold.PLP.Chemscore.Metal>
0.0000

> <Gold.Chemscore.Hbonds>
donor molecule, donor type, donor heavy atom, donor atom, acceptor molecule, acceptor atom, score
      L1  H    13    34       P1  7948  2.00
      P1  H  6896  6908       L1     7  0.94
      P1  H  6931  6943       L1    10  0.91
      P1  H  6934  6947       L1    10  0.31

> <Gold.PLP.Chemscore.Internal.Correction>
0.0861

> <Gold.Rescore>
     Score         DG    S(hbond)    S(metal)    S(lipo)     H(rot)  DE(clash)    DE(int)     intcor
     12.06     -14.45       2.24        0.00      49.36       1.68       0.13       2.26       ----

> <Gold.Chemscore.Fitness>
12.0608

> <Gold.Chemscore.DG>
-14.4471

> <Gold.Chemscore.ZeroCoef>
-5.4800

> <Gold.Chemscore.Hbond>
2.2405

> <Gold.Chemscore.Metal>
0.0000

> <Gold.Chemscore.Lipo>
49.3568

> <Gold.Chemscore.Internal_Hbond>
0.0000

> <Gold.Chemscore.DEClash>
0.1263

> <Gold.Chemscore.DEInternal>
2.2601

> <Gold.Chemscore.Rot>
1.6762

> <Gold.Chemscore.Internal.Correction>
   9.000000E+99

> <Gold.Chemscore.Hbonds>
donor molecule, donor type, donor heavy atom, donor atom, acceptor molecule, acceptor atom, score
      L1  H    13    34       P1  7948  1.00
      P1  H  6896  6908       L1     7  0.10
      P1  H  6931  6943       L1    10  0.22
      P1  H  6934  6947       L1    10  0.03

> <Gold.Chemscore.Hbond.Weighted>
-7.4834

> <Gold.Chemscore.Metal.Weighted>
-0.0000

> <Gold.Chemscore.Lipo.Weighted>
-5.7747

> <Gold.Chemscore.Internal_Hbond.Weighted>
0.0000

> <Gold.Chemscore.DEClash.Weighted>
0.1263

> <Gold.Chemscore.DEInternal.Weighted>
2.2601

> <Gold.Chemscore.Rot.Weighted>
4.2910

> <Gold.Chemscore.Internal.Correction.Weighted>
   9.000000E+99

> <Gold.Protein.RotatedTorsions>
[ 6907 6896 6895 6894 ] final  151.52 input  -60.11 | X-H torsion
[ 7974 7965 7964 7962 ] final  -18.65 input  175.53 | X-H torsion
[ 8008 7997 7996 7995 ] final   80.06 input   59.86 | X-H torsion
[ 10167 10162 10161 10158 ] final  -42.50 input  -65.29 | X-H torsion
[ 10718 10713 10712 10709 ] final   16.07 input   66.30 | X-H torsion
[ 10763 10752 10751 10750 ] final   57.85 input  -60.55 | X-H torsion
[ 11005 11000 10999 10996 ] final -121.87 input  -57.11 | X-H torsion

> <Gold.Protein.ActiveResidues>
 VAL166  LYS551  ARG553  GLY616  TRP617  ASP618  TYR619  PRO620  LYS621  CYS622 
 ASP623  PHE694  ASN695  SER759  ASP760  ASP761  ALA762  ILE779  LEU786  VAL792 
 PHE793  MET794  SER795  GLU796  ALA797  LYS798  CYS799  TRP800  GLU811  SER814 

> <Gold.Protein.RotatedAtoms>
  152.0994  133.4242  159.4580 H   0  0  0  0  0  0  0  0  0  0  0  0  # atno 6907 bound_to 6896
  150.6864  134.2778  159.4624 H   0  0  0  0  0  0  0  0  0  0  0  0  # atno 6908 bound_to 6896
  152.0637  134.9578  160.0625 H   0  0  0  0  0  0  0  0  0  0  0  0  # atno 6909 bound_to 6896
  146.1881  140.3951  142.8468 H   0  0  0  0  0  0  0  0  0  0  0  0  # atno 7974 bound_to 7965
  155.8783  140.3445  155.5870 H   0  0  0  0  0  0  0  0  0  0  0  0  # atno 8008 bound_to 7997
  155.7749  140.0850  157.2108 H   0  0  0  0  0  0  0  0  0  0  0  0  # atno 8009 bound_to 7997
  154.4022  140.1511  156.2971 H   0  0  0  0  0  0  0  0  0  0  0  0  # atno 8010 bound_to 7997
  140.6967  143.3034  151.3218 H   0  0  0  0  0  0  0  0  0  0  0  0  # atno 10167 bound_to 10162
  157.0625  130.6315  149.5789 H   0  0  0  0  0  0  0  0  0  0  0  0  # atno 10718 bound_to 10713
  152.9858  135.5627  154.5458 H   0  0  0  0  0  0  0  0  0  0  0  0  # atno 10763 bound_to 10752
  154.4904  135.2792  155.1503 H   0  0  0  0  0  0  0  0  0  0  0  0  # atno 10764 bound_to 10752
  154.2975  135.6314  153.5464 H   0  0  0  0  0  0  0  0  0  0  0  0  # atno 10765 bound_to 10752
  141.0037  134.0365  157.3504 H   0  0  0  0  0  0  0  0  0  0  0  0  # atno 11005 bound_to 11000
  144.8435  140.6894  143.6214 LP  0  0  0  0  0  0  0  0  0  0  0  0  # atno 17320 bound_to 7965
  145.3876  139.1623  143.4246 LP  0  0  0  0  0  0  0  0  0  0  0  0  # atno 17321 bound_to 7965
  139.6431  144.0502  152.2570 LP  0  0  0  0  0  0  0  0  0  0  0  0  # atno 17342 bound_to 10162
  140.0014  144.6291  150.7727 LP  0  0  0  0  0  0  0  0  0  0  0  0  # atno 17343 bound_to 10162
  155.9974  130.5046  150.7533 LP  0  0  0  0  0  0  0  0  0  0  0  0  # atno 17370 bound_to 10713
  157.4943  131.0913  151.0390 LP  0  0  0  0  0  0  0  0  0  0  0  0  # atno 17371 bound_to 10713
  139.9052  135.0177  156.7454 LP  0  0  0  0  0  0  0  0  0  0  0  0  # atno 17394 bound_to 11000
  140.6847  133.9443  155.7931 LP  0  0  0  0  0  0  0  0  0  0  0  0  # atno 17395 bound_to 11000

$$$$
