AV-unprocessed.smi:3040|AV-procd|sdf|11595|dock1
  -GOLD-   2272016573D 1   1.00000     0.00000
 Structure written by MMmdl.
 39 40  0  0  0  0  0  0  0  0  1 V2000
  151.0701  141.2507  157.0530 C   0  0  0  0  0  0  0  0  0  0  0  0
  150.9877  140.2315  156.0055 N   0  0  0  0  0  0  0  0  0  0  0  0
  152.1523  139.3423  155.9172 C   0  0  0  0  0  0  0  0  0  0  0  0
  152.2714  138.6426  154.5568 C   0  0  0  0  0  0  0  0  0  0  0  0
  150.9420  138.0018  154.1325 C   0  0  1  0  0  0  0  0  0  0  0  0
  150.6082  136.7503  154.9621 C   0  0  0  0  0  0  0  0  0  0  0  0
  151.3408  136.4040  155.8897 O   0  0  0  0  0  0  0  0  0  0  0  0
  149.5087  136.0690  154.6006 N   0  0  0  0  0  0  0  0  0  0  0  0
  149.0830  134.7887  155.1631 C   0  0  0  0  0  0  0  0  0  0  0  0
  149.4608  133.6020  154.2540 C   0  0  0  0  0  0  0  0  0  0  0  0
  148.2606  132.8878  153.6886 C   0  0  0  0  0  0  0  0  0  0  0  0
  147.8484  131.5448  153.9233 C   0  0  0  0  0  0  0  0  0  0  0  0
  146.7659  131.2118  153.2393 N   0  0  0  0  0  0  0  0  0  0  0  0
  146.4488  132.3261  152.5491 N   0  0  0  0  0  0  0  0  0  0  0  0
  145.3022  132.3170  151.6665 C   0  0  0  0  0  0  0  0  0  0  0  0
  147.3262  133.3562  152.8084 C   0  0  0  0  0  0  0  0  0  0  0  0
  149.7971  139.0413  154.1410 C   0  0  0  0  0  0  0  0  0  0  0  0
  149.8775  140.1245  155.2350 C   0  0  0  0  0  0  0  0  0  0  0  0
  148.9141  140.8806  155.3632 O   0  0  0  0  0  0  0  0  0  0  0  0
  150.1838  141.2323  157.6892 H   0  0  0  0  0  0  0  0  0  0  0  0
  151.1527  142.2439  156.6100 H   0  0  0  0  0  0  0  0  0  0  0  0
  151.9331  141.1023  157.7034 H   0  0  0  0  0  0  0  0  0  0  0  0
  153.0685  139.9042  156.1037 H   0  0  0  0  0  0  0  0  0  0  0  0
  152.0772  138.6044  156.7164 H   0  0  0  0  0  0  0  0  0  0  0  0
  152.5718  139.3716  153.8030 H   0  0  0  0  0  0  0  0  0  0  0  0
  153.0678  137.8981  154.5892 H   0  0  0  0  0  0  0  0  0  0  0  0
  151.0587  137.6660  153.1006 H   0  0  0  0  0  0  0  0  0  0  0  0
  148.9600  136.4324  153.8348 H   0  0  0  0  0  0  0  0  0  0  0  0
  149.5091  134.6440  156.1574 H   0  0  0  0  0  0  0  0  0  0  0  0
  148.0019  134.8161  155.3002 H   0  0  0  0  0  0  0  0  0  0  0  0
  150.1015  133.9649  153.4499 H   0  0  0  0  0  0  0  0  0  0  0  0
  150.0780  132.9073  154.8247 H   0  0  0  0  0  0  0  0  0  0  0  0
  148.3116  130.8021  154.5557 H   0  0  0  0  0  0  0  0  0  0  0  0
  145.2880  133.2257  151.0639 H   0  0  0  0  0  0  0  0  0  0  0  0
  144.3859  132.2654  152.2549 H   0  0  0  0  0  0  0  0  0  0  0  0
  145.3522  131.4537  151.0018 H   0  0  0  0  0  0  0  0  0  0  0  0
  147.2256  134.3226  152.3367 H   0  0  0  0  0  0  0  0  0  0  0  0
  149.7980  139.5647  153.1842 H   0  0  0  0  0  0  0  0  0  0  0  0
  148.8247  138.5492  154.2029 H   0  0  0  0  0  0  0  0  0  0  0  0
  1  2  1  0  0  0  0
  1 20  1  0  0  0  0
  1 21  1  0  0  0  0
  1 22  1  0  0  0  0
  2 18  1  0  0  0  0
  2  3  1  0  0  0  0
  3  4  1  0  0  0  0
  3 23  1  0  0  0  0
  3 24  1  0  0  0  0
  4  5  1  0  0  0  0
  4 25  1  0  0  0  0
  4 26  1  0  0  0  0
  5  6  1  0  0  0  0
  5 17  1  0  0  0  0
  5 27  1  0  0  0  0
  6  7  2  0  0  0  0
  6  8  1  0  0  0  0
  8  9  1  0  0  0  0
  8 28  1  0  0  0  0
  9 10  1  0  0  0  0
  9 29  1  0  0  0  0
  9 30  1  0  0  0  0
 10 11  1  0  0  0  0
 10 31  1  0  0  0  0
 10 32  1  0  0  0  0
 11 16  2  0  0  0  0
 11 12  1  0  0  0  0
 12 13  2  0  0  0  0
 12 33  1  0  0  0  0
 13 14  1  0  0  0  0
 14 15  1  0  0  0  0
 14 16  1  0  0  0  0
 15 34  1  0  0  0  0
 15 35  1  0  0  0  0
 15 36  1  0  0  0  0
 16 37  1  0  0  0  0
 17 18  1  0  0  0  0
 17 38  1  0  0  0  0
 17 39  1  0  0  0  0
 18 19  2  0  0  0  0
M  END
> <s_m_source_file>
AV-unprocessed.smi

> <i_m_source_file_index>
3040

> <i_lp_mmshare_version>
43012

> <i_f3d_flags>
0

> <s_epik_input>
W0NIM11OMVtDSDJdW0NIMl1bQ0BIXShbQ0gyXUMxPU8pQyg9TylbTkhdW0NIMl1bQ0gyXWMyW2NIXW5uKFtDSDNdKVtjSF0y

> <s_epik_cmdline>
J2VwaWtfcHl0aG9uJywgJy1waCcsICc3LjAnLCAnLXRuJywgJzgnLCAnLW1hJywgJzIwMCcsICctbWV0YWxfYmluZGluZycsICctaW1hZScsICc8aW5maWxlLm1hZT4nLCAnLW9tYWUnLCAnPG91dGZpbGUubWFlPic=

> <r_lp_tautomer_probability>
1

> <r_epik_Ionization_Penalty>
0.000456436

> <r_epik_Ionization_Penalty_Charging>
0

> <r_epik_Ionization_Penalty_Neutral>
0.000456436

> <r_epik_State_Penalty>
-0

> <r_epik_Charging_Adjusted_Penalty>
0

> <i_epik_Tot_Q>
0

> <i_epik_Tot_abs_Q>
0

> <r_epik_Metal_State_Penalty>
-0

> <b_epik_Metal_Only>
0

> <s_lp_Force_Field>
OPLS_2005

> <r_lp_Energy>
8.58968

> <b_lp_Chiralities_Consistent>
1

> <s_lp_Variant>
AV-unprocessed.smi:3040-1

> <Gold.Version>
5.8.1

> <Gold.Id.Protein>
6NUR|6NUR_protein|mol2

> <Gold.PLP.Fitness>
46.1875

> <Gold.PLP.PLP>
-38.3204

> <Gold.PLP.part.hbond>
-2.1691

> <Gold.PLP.part.metal>
0.0000

> <Gold.PLP.part.buried>
-0.9323

> <Gold.PLP.part.nonpolar>
-34.7364

> <Gold.PLP.part.repulsive>
0.3003

> <Gold.PLP.ligand.clash>
0.0000

> <Gold.PLP.ligand.torsion>
0.5536

> <Gold.PLP.Chemscore.Hbond>
1.9760

> <Gold.PLP.Chemscore.CHOScore>
1.0000

> <Gold.PLP.Chemscore.Metal>
0.0000

> <Gold.Chemscore.Hbonds>
donor molecule, donor type, donor heavy atom, donor atom, acceptor molecule, acceptor atom, score
      L1  H     8    28       P1  7948  0.70
      P1  H 10752 10764       L1     7  0.60
      L1  C    16    37       P1  7948  0.89

> <Gold.PLP.Chemscore.Internal.Correction>
0.0462

> <Gold.Rescore>
     Score         DG    S(hbond)    S(metal)    S(lipo)     H(rot)  DE(clash)    DE(int)     intcor
     14.54     -15.46       1.64        0.00      74.69       1.65       0.30       0.63       ----

> <Gold.Chemscore.Fitness>
14.5381

> <Gold.Chemscore.DG>
-15.4624

> <Gold.Chemscore.ZeroCoef>
-5.4800

> <Gold.Chemscore.Hbond>
1.6398

> <Gold.Chemscore.Metal>
0.0000

> <Gold.Chemscore.Lipo>
74.6897

> <Gold.Chemscore.Internal_Hbond>
0.0000

> <Gold.Chemscore.DEClash>
0.2978

> <Gold.Chemscore.DEInternal>
0.6265

> <Gold.Chemscore.Rot>
1.6536

> <Gold.Chemscore.Internal.Correction>
   9.000000E+99

> <Gold.Chemscore.Hbonds>
donor molecule, donor type, donor heavy atom, donor atom, acceptor molecule, acceptor atom, score
      L1  H     8    28       P1  7948  0.69
      P1  H 10752 10764       L1     7  0.39

> <Gold.Chemscore.Hbond.Weighted>
-5.4769

> <Gold.Chemscore.Metal.Weighted>
-0.0000

> <Gold.Chemscore.Lipo.Weighted>
-8.7387

> <Gold.Chemscore.Internal_Hbond.Weighted>
0.0000

> <Gold.Chemscore.DEClash.Weighted>
0.2978

> <Gold.Chemscore.DEInternal.Weighted>
0.6265

> <Gold.Chemscore.Rot.Weighted>
4.2332

> <Gold.Chemscore.Internal.Correction.Weighted>
   9.000000E+99

> <Gold.Protein.RotatedTorsions>
[ 6907 6896 6895 6894 ] final   -8.19 input  -60.11 | X-H torsion
[ 7974 7965 7964 7962 ] final  169.75 input  175.53 | X-H torsion
[ 8008 7997 7996 7995 ] final  171.85 input   59.86 | X-H torsion
[ 10167 10162 10161 10158 ] final -114.74 input  -65.29 | X-H torsion
[ 10718 10713 10712 10709 ] final -106.22 input   66.30 | X-H torsion
[ 10763 10752 10751 10750 ] final  -29.86 input  -60.55 | X-H torsion
[ 11005 11000 10999 10996 ] final   81.85 input  -57.11 | X-H torsion

> <Gold.Protein.ActiveResidues>
 VAL166  LYS551  ARG553  GLY616  TRP617  ASP618  TYR619  PRO620  LYS621  CYS622 
 ASP623  PHE694  ASN695  SER759  ASP760  ASP761  ALA762  ILE779  LEU786  VAL792 
 PHE793  MET794  SER795  GLU796  ALA797  LYS798  CYS799  TRP800  GLU811  SER814 

> <Gold.Protein.RotatedAtoms>
  151.4375  135.1016  159.9660 H   0  0  0  0  0  0  0  0  0  0  0  0  # atno 6907 bound_to 6896
  152.4934  133.8559  159.7236 H   0  0  0  0  0  0  0  0  0  0  0  0  # atno 6908 bound_to 6896
  150.9111  133.6938  159.2882 H   0  0  0  0  0  0  0  0  0  0  0  0  # atno 6909 bound_to 6896
  144.7345  139.9101  143.6414 H   0  0  0  0  0  0  0  0  0  0  0  0  # atno 7974 bound_to 7965
  156.1231  140.1501  156.9176 H   0  0  0  0  0  0  0  0  0  0  0  0  # atno 8008 bound_to 7997
  154.4851  140.0868  156.7508 H   0  0  0  0  0  0  0  0  0  0  0  0  # atno 8009 bound_to 7997
  155.4392  140.3430  155.4290 H   0  0  0  0  0  0  0  0  0  0  0  0  # atno 8010 bound_to 7997
  140.0977  143.4641  152.1831 H   0  0  0  0  0  0  0  0  0  0  0  0  # atno 10167 bound_to 10162
  156.0380  130.5602  150.7650 H   0  0  0  0  0  0  0  0  0  0  0  0  # atno 10718 bound_to 10713
  153.7715  135.6912  153.4905 H   0  0  0  0  0  0  0  0  0  0  0  0  # atno 10763 bound_to 10752
  153.1871  135.4484  155.0101 H   0  0  0  0  0  0  0  0  0  0  0  0  # atno 10764 bound_to 10752
  154.8116  135.3380  154.7224 H   0  0  0  0  0  0  0  0  0  0  0  0  # atno 10765 bound_to 10752
  139.9084  134.8027  156.2096 H   0  0  0  0  0  0  0  0  0  0  0  0  # atno 11005 bound_to 11000
  146.1007  139.4003  143.0348 LP  0  0  0  0  0  0  0  0  0  0  0  0  # atno 17320 bound_to 7965
  145.7582  140.9946  143.1214 LP  0  0  0  0  0  0  0  0  0  0  0  0  # atno 17321 bound_to 7965
  139.5689  144.7451  151.3946 LP  0  0  0  0  0  0  0  0  0  0  0  0  # atno 17342 bound_to 10162
  140.6995  143.7668  150.7379 LP  0  0  0  0  0  0  0  0  0  0  0  0  # atno 17343 bound_to 10162
  157.5159  131.0928  151.0140 LP  0  0  0  0  0  0  0  0  0  0  0  0  # atno 17370 bound_to 10713
  157.0483  130.5777  149.5366 LP  0  0  0  0  0  0  0  0  0  0  0  0  # atno 17371 bound_to 10713
  141.0474  133.6906  156.1708 LP  0  0  0  0  0  0  0  0  0  0  0  0  # atno 17394 bound_to 11000
  140.6863  134.4713  157.5589 LP  0  0  0  0  0  0  0  0  0  0  0  0  # atno 17395 bound_to 11000

$$$$
