AV-unprocessed.smi:1473|AV-procd|sdf|5968|dock3
  -GOLD-   22720 6 53D 1   1.00000     0.00000
 Structure written by MMmdl.
 34 35  0  0  0  0  0  0  0  0  3 V2000
  154.9370  137.4772  158.9592 N   0  0  0  0  0  0  0  0  0  0  0  0
  153.4536  137.1225  158.1695 S   0  0  0  0  0  0  0  0  0  0  0  0
  153.7480  136.0346  157.2228 O   0  0  0  0  0  0  0  0  0  0  0  0
  152.4733  136.8756  159.2388 O   0  0  0  0  0  0  0  0  0  0  0  0
  153.2861  138.5696  157.4595 N   0  5  0  0  0  0  0  0  0  0  0  0
  152.4574  138.6965  156.2719 C   0  0  0  0  0  0  0  0  0  0  0  0
  151.6389  139.9807  156.2733 C   0  0  0  0  0  0  0  0  0  0  0  0
  150.6017  140.1770  155.3310 C   0  0  0  0  0  0  0  0  0  0  0  0
  149.8521  141.3693  155.3716 C   0  0  0  0  0  0  0  0  0  0  0  0
  150.1243  142.3050  156.3062 N   0  3  0  0  0  0  0  0  0  0  0  0
  151.0994  142.1634  157.2306 C   0  0  0  0  0  0  0  0  0  0  0  0
  151.2659  143.2037  158.1535 N   0  0  0  0  0  0  0  0  0  0  0  0
  150.0149  143.6571  158.7486 C   0  0  0  0  0  0  0  0  0  0  0  0
  150.2773  144.8676  159.6609 C   0  0  0  0  0  0  0  0  0  0  0  0
  151.2506  144.5217  160.6425 O   0  0  0  0  0  0  0  0  0  0  0  0
  152.4940  144.1462  160.0566 C   0  0  0  0  0  0  0  0  0  0  0  0
  152.2880  142.9190  159.1517 C   0  0  0  0  0  0  0  0  0  0  0  0
  151.8923  140.9931  157.2290 C   0  0  0  0  0  0  0  0  0  0  0  0
  155.4227  136.6368  159.2700 H   0  0  0  0  0  0  0  0  0  0  0  0
  154.8305  138.1850  159.6851 H   0  0  0  0  0  0  0  0  0  0  0  0
  153.0504  138.6624  155.3573 H   0  0  0  0  0  0  0  0  0  0  0  0
  151.7600  137.8624  156.1899 H   0  0  0  0  0  0  0  0  0  0  0  0
  150.3676  139.4283  154.5860 H   0  0  0  0  0  0  0  0  0  0  0  0
  149.0430  141.5970  154.6930 H   0  0  0  0  0  0  0  0  0  0  0  0
  149.3078  143.9250  157.9624 H   0  0  0  0  0  0  0  0  0  0  0  0
  149.5632  142.8517  159.3290 H   0  0  0  0  0  0  0  0  0  0  0  0
  150.6195  145.7262  159.0805 H   0  0  0  0  0  0  0  0  0  0  0  0
  149.3571  145.1675  160.1624 H   0  0  0  0  0  0  0  0  0  0  0  0
  152.9082  144.9824  159.4907 H   0  0  0  0  0  0  0  0  0  0  0  0
  153.2053  143.9143  160.8491 H   0  0  0  0  0  0  0  0  0  0  0  0
  151.9872  142.0608  159.7545 H   0  0  0  0  0  0  0  0  0  0  0  0
  153.2243  142.6556  158.6582 H   0  0  0  0  0  0  0  0  0  0  0  0
  152.6725  140.8737  157.9688 H   0  0  0  0  0  0  0  0  0  0  0  0
  149.5616  143.1559  156.3196 H   0  0  0  0  0  0  0  0  0  0  0  0
  1  2  1  0  0  0  0
  1 19  1  0  0  0  0
  1 20  1  0  0  0  0
  2  3  2  0  0  0  0
  2  4  2  0  0  0  0
  2  5  1  0  0  0  0
  5  6  1  0  0  0  0
  6  7  1  0  0  0  0
  6 21  1  0  0  0  0
  6 22  1  0  0  0  0
  7 18  1  0  0  0  0
  7  8  2  0  0  0  0
  8  9  1  0  0  0  0
  8 23  1  0  0  0  0
  9 10  2  0  0  0  0
  9 24  1  0  0  0  0
 10 11  1  0  0  0  0
 10 34  1  0  0  0  0
 11 12  1  0  0  0  0
 11 18  2  0  0  0  0
 12 17  1  0  0  0  0
 12 13  1  0  0  0  0
 13 14  1  0  0  0  0
 13 25  1  0  0  0  0
 13 26  1  0  0  0  0
 14 15  1  0  0  0  0
 14 27  1  0  0  0  0
 14 28  1  0  0  0  0
 15 16  1  0  0  0  0
 16 17  1  0  0  0  0
 16 29  1  0  0  0  0
 16 30  1  0  0  0  0
 17 31  1  0  0  0  0
 17 32  1  0  0  0  0
 18 33  1  0  0  0  0
M  CHG  1   5  -1
M  CHG  1  10   1
M  END
> <s_m_source_file>
AV-unprocessed.smi

> <i_m_source_file_index>
1473

> <i_lp_mmshare_version>
43012

> <i_f3d_flags>
0

> <s_epik_input>
W05IMl1TKD1PKSg9TylbTkhdW0NIMl1jMVtjSF1bY0hdbmMoW2NIXTEpTjJbQ0gyXVtDSDJdT1tDSDJdW0NIMl0y

> <s_epik_cmdline>
J2VwaWtfcHl0aG9uJywgJy1waCcsICc3LjAnLCAnLXRuJywgJzgnLCAnLW1hJywgJzIwMCcsICctbWV0YWxfYmluZGluZycsICctaW1hZScsICc8aW5maWxlLm1hZT4nLCAnLW9tYWUnLCAnPG91dGZpbGUubWFlPic=

> <r_epik_Ionization_Penalty>
0.903927

> <r_epik_Ionization_Penalty_Charging>
0.902194

> <r_epik_Ionization_Penalty_Neutral>
0.00173209

> <r_epik_State_Penalty>
1.45154

> <r_epik_Charging_Adjusted_Penalty>
2.35374

> <i_epik_Tot_Q>
0

> <i_epik_Tot_abs_Q>
2

> <r_epik_Metal_State_Penalty>
1.803

> <b_epik_Metal_Only>
0

> <s_lp_Force_Field>
OPLS_2005

> <r_lp_Energy>
13.8401

> <b_lp_Chiralities_Consistent>
1

> <s_lp_Variant>
AV-unprocessed.smi:1473-3

> <Gold.Version>
5.8.1

> <Gold.Id.Protein>
6NUR|6NUR_protein|mol2

> <Gold.PLP.Fitness>
47.4365

> <Gold.PLP.PLP>
-30.4892

> <Gold.PLP.part.hbond>
-4.0000

> <Gold.PLP.part.metal>
0.0000

> <Gold.PLP.part.buried>
-5.3288

> <Gold.PLP.part.nonpolar>
-21.7534

> <Gold.PLP.part.repulsive>
0.3272

> <Gold.PLP.ligand.clash>
0.0019

> <Gold.PLP.ligand.torsion>
1.0440

> <Gold.PLP.Chemscore.Hbond>
6.0000

> <Gold.PLP.Chemscore.CHOScore>
0.0000

> <Gold.PLP.Chemscore.Metal>
0.0000

> <Gold.Chemscore.Hbonds>
donor molecule, donor type, donor heavy atom, donor atom, acceptor molecule, acceptor atom, score
      L1  H    10    34       P1  8028  2.00
      P1  H  6896  6908       L1     4  1.00
      P1  H  7997  8008       L1     5  1.90
      P1  H 10752 10765       L1     3  1.00

> <Gold.PLP.Chemscore.Internal.Correction>
1.0372

> <Gold.Rescore>
     Score         DG    S(hbond)    S(metal)    S(lipo)     H(rot)  DE(clash)    DE(int)     intcor
     19.01     -19.95       3.23        0.00      73.38       1.91       0.03       0.91       ----

> <Gold.Chemscore.Fitness>
19.0078

> <Gold.Chemscore.DG>
-19.9487

> <Gold.Chemscore.ZeroCoef>
-5.4800

> <Gold.Chemscore.Hbond>
3.2271

> <Gold.Chemscore.Metal>
0.0000

> <Gold.Chemscore.Lipo>
73.3794

> <Gold.Chemscore.Internal_Hbond>
0.0000

> <Gold.Chemscore.DEClash>
0.0284

> <Gold.Chemscore.DEInternal>
0.9125

> <Gold.Chemscore.Rot>
1.9121

> <Gold.Chemscore.Internal.Correction>
   9.000000E+99

> <Gold.Chemscore.Hbonds>
donor molecule, donor type, donor heavy atom, donor atom, acceptor molecule, acceptor atom, score
      L1  H    10    34       P1  8028  0.99
      P1  H  6896  6908       L1     4  0.89
      P1  H  7997  8008       L1     5  0.19
      P1  H 10752 10765       L1     3  0.97

> <Gold.Chemscore.Hbond.Weighted>
-10.7784

> <Gold.Chemscore.Metal.Weighted>
-0.0000

> <Gold.Chemscore.Lipo.Weighted>
-8.5854

> <Gold.Chemscore.Internal_Hbond.Weighted>
0.0000

> <Gold.Chemscore.DEClash.Weighted>
0.0284

> <Gold.Chemscore.DEInternal.Weighted>
0.9125

> <Gold.Chemscore.Rot.Weighted>
4.8950

> <Gold.Chemscore.Internal.Correction.Weighted>
   9.000000E+99

> <Gold.Protein.RotatedTorsions>
[ 6907 6896 6895 6894 ] final -110.74 input  -60.11 | X-H torsion
[ 7974 7965 7964 7962 ] final  -24.93 input  175.53 | X-H torsion
[ 8008 7997 7996 7995 ] final  -90.84 input   59.86 | X-H torsion
[ 10167 10162 10161 10158 ] final   56.31 input  -65.29 | X-H torsion
[ 10718 10713 10712 10709 ] final  -65.14 input   66.30 | X-H torsion
[ 10763 10752 10751 10750 ] final -118.27 input  -60.55 | X-H torsion
[ 11005 11000 10999 10996 ] final -126.51 input  -57.11 | X-H torsion

> <Gold.Protein.ActiveResidues>
 VAL166  LYS551  ARG553  GLY616  TRP617  ASP618  TYR619  PRO620  LYS621  CYS622 
 ASP623  PHE694  ASN695  SER759  ASP760  ASP761  ALA762  ILE779  LEU786  VAL792 
 PHE793  MET794  SER795  GLU796  ALA797  LYS798  CYS799  TRP800  GLU811  SER814 

> <Gold.Protein.RotatedAtoms>
  150.7645  133.9337  159.3434 H   0  0  0  0  0  0  0  0  0  0  0  0  # atno 6907 bound_to 6896
  151.7238  135.0887  160.0298 H   0  0  0  0  0  0  0  0  0  0  0  0  # atno 6908 bound_to 6896
  152.3633  133.6287  159.6067 H   0  0  0  0  0  0  0  0  0  0  0  0  # atno 6909 bound_to 6896
  146.1524  140.4817  142.8606 H   0  0  0  0  0  0  0  0  0  0  0  0  # atno 7974 bound_to 7965
  154.7034  140.0526  157.0480 H   0  0  0  0  0  0  0  0  0  0  0  0  # atno 8008 bound_to 7997
  155.0653  140.3194  155.4628 H   0  0  0  0  0  0  0  0  0  0  0  0  # atno 8009 bound_to 7997
  156.2767  140.2091  156.5780 H   0  0  0  0  0  0  0  0  0  0  0  0  # atno 8010 bound_to 7997
  140.2101  144.3898  150.6492 H   0  0  0  0  0  0  0  0  0  0  0  0  # atno 10167 bound_to 10162
  156.0687  130.4243  150.1522 H   0  0  0  0  0  0  0  0  0  0  0  0  # atno 10718 bound_to 10713
  154.8582  135.4280  154.2112 H   0  0  0  0  0  0  0  0  0  0  0  0  # atno 10763 bound_to 10752
  153.3137  135.6977  153.7098 H   0  0  0  0  0  0  0  0  0  0  0  0  # atno 10764 bound_to 10752
  153.6180  135.3507  155.2975 H   0  0  0  0  0  0  0  0  0  0  0  0  # atno 10765 bound_to 10752
  140.9676  134.0851  157.3904 H   0  0  0  0  0  0  0  0  0  0  0  0  # atno 11005 bound_to 11000
  144.7920  140.6050  143.6535 LP  0  0  0  0  0  0  0  0  0  0  0  0  # atno 17320 bound_to 7965
  145.4792  139.1497  143.3771 LP  0  0  0  0  0  0  0  0  0  0  0  0  # atno 17321 bound_to 7965
  140.6330  143.2190  151.6455 LP  0  0  0  0  0  0  0  0  0  0  0  0  # atno 17342 bound_to 10162
  139.5183  144.3287  152.0845 LP  0  0  0  0  0  0  0  0  0  0  0  0  # atno 17343 bound_to 10162
  156.9577  130.9795  151.3485 LP  0  0  0  0  0  0  0  0  0  0  0  0  # atno 17370 bound_to 10713
  157.5744  130.8333  149.8436 LP  0  0  0  0  0  0  0  0  0  0  0  0  # atno 17371 bound_to 10713
  139.8900  135.0109  156.6711 LP  0  0  0  0  0  0  0  0  0  0  0  0  # atno 17394 bound_to 11000
  140.7377  133.9004  155.8256 LP  0  0  0  0  0  0  0  0  0  0  0  0  # atno 17395 bound_to 11000

$$$$
