AV-unprocessed.smi:3264|AV-procd|sdf|12494|dock6
  -GOLD-   2272018393D 1   1.00000     0.00000
 Structure written by MMmdl.
 32 33  0  0  0  0  0  0  0  0  1 V2000
  154.6009  140.5840  160.8024 C   0  0  0  0  0  0  0  0  0  0  0  0
  153.6979  141.7670  160.8778 C   0  0  0  0  0  0  0  0  0  0  0  0
  153.1089  142.3134  159.8111 N   0  0  0  0  0  0  0  0  0  0  0  0
  152.3070  143.4105  160.1419 C   0  0  0  0  0  0  0  0  0  0  0  0
  151.5644  144.1459  159.0677 C   0  0  0  0  0  0  0  0  0  0  0  0
  150.4292  143.3018  158.4648 C   0  0  0  0  0  0  0  0  0  0  0  0
  150.8692  142.5756  157.2791 N   0  0  0  0  0  0  0  0  0  0  0  0
  150.8757  141.2402  157.1495 C   0  0  0  0  0  0  0  0  0  0  0  0
  150.5078  140.4737  158.0405 O   0  0  0  0  0  0  0  0  0  0  0  0
  151.3865  140.6908  155.8126 C   0  0  2  0  0  0  0  0  0  0  0  0
  150.3607  139.8314  155.0487 C   0  0  0  0  0  0  0  0  0  0  0  0
  150.9587  138.4378  155.0816 C   0  0  0  0  0  0  0  0  0  0  0  0
  152.4480  138.7346  155.1795 C   0  0  0  0  0  0  0  0  0  0  0  0
  152.4919  139.8305  156.0787 O   0  0  0  0  0  0  0  0  0  0  0  0
  152.2961  143.6870  161.4863 C   0  0  0  0  0  0  0  0  0  0  0  0
  153.2949  142.5784  162.3858 S   0  0  0  0  0  0  0  0  0  0  0  0
  155.1230  140.5635  159.8453 H   0  0  0  0  0  0  0  0  0  0  0  0
  154.0212  139.6669  160.9067 H   0  0  0  0  0  0  0  0  0  0  0  0
  155.3407  140.6243  161.6020 H   0  0  0  0  0  0  0  0  0  0  0  0
  151.1578  145.0737  159.4719 H   0  0  0  0  0  0  0  0  0  0  0  0
  152.2551  144.4432  158.2777 H   0  0  0  0  0  0  0  0  0  0  0  0
  150.0809  142.5711  159.1955 H   0  0  0  0  0  0  0  0  0  0  0  0
  149.5713  143.9313  158.2224 H   0  0  0  0  0  0  0  0  0  0  0  0
  151.1975  143.1285  156.5004 H   0  0  0  0  0  0  0  0  0  0  0  0
  151.7225  141.5091  155.1736 H   0  0  0  0  0  0  0  0  0  0  0  0
  149.3552  139.8522  155.4710 H   0  0  0  0  0  0  0  0  0  0  0  0
  150.2856  140.1806  154.0181 H   0  0  0  0  0  0  0  0  0  0  0  0
  150.6251  137.9082  155.9751 H   0  0  0  0  0  0  0  0  0  0  0  0
  150.6983  137.8383  154.2089 H   0  0  0  0  0  0  0  0  0  0  0  0
  153.0257  137.8871  155.5489 H   0  0  0  0  0  0  0  0  0  0  0  0
  152.8518  139.0364  154.2119 H   0  0  0  0  0  0  0  0  0  0  0  0
  151.7609  144.4716  162.0006 H   0  0  0  0  0  0  0  0  0  0  0  0
  1  2  1  0  0  0  0
  1 17  1  0  0  0  0
  1 18  1  0  0  0  0
  1 19  1  0  0  0  0
  2 16  1  0  0  0  0
  2  3  2  0  0  0  0
  3  4  1  0  0  0  0
  4  5  1  0  0  0  0
  4 15  2  0  0  0  0
  5  6  1  0  0  0  0
  5 20  1  0  0  0  0
  5 21  1  0  0  0  0
  6  7  1  0  0  0  0
  6 22  1  0  0  0  0
  6 23  1  0  0  0  0
  7  8  1  0  0  0  0
  7 24  1  0  0  0  0
  8  9  2  0  0  0  0
  8 10  1  0  0  0  0
 10 14  1  0  0  0  0
 10 11  1  0  0  0  0
 10 25  1  0  0  0  0
 11 12  1  0  0  0  0
 11 26  1  0  0  0  0
 11 27  1  0  0  0  0
 12 13  1  0  0  0  0
 12 28  1  0  0  0  0
 12 29  1  0  0  0  0
 13 14  1  0  0  0  0
 13 30  1  0  0  0  0
 13 31  1  0  0  0  0
 15 16  1  0  0  0  0
 15 32  1  0  0  0  0
M  END
> <s_m_source_file>
AV-unprocessed.smi

> <i_m_source_file_index>
3264

> <i_lp_mmshare_version>
43012

> <i_f3d_flags>
0

> <s_epik_input>
W0NIM11jMW5jKFtjSF1zMSlbQ0gyXVtDSDJdW05IXUMoPU8pW0NAQEhdMltDSDJdW0NIMl1bQ0gyXU8y

> <s_epik_cmdline>
J2VwaWtfcHl0aG9uJywgJy1waCcsICc3LjAnLCAnLXRuJywgJzgnLCAnLW1hJywgJzIwMCcsICctbWV0YWxfYmluZGluZycsICctaW1hZScsICc8aW5maWxlLm1hZT4nLCAnLW9tYWUnLCAnPG91dGZpbGUubWFlPic=

> <r_epik_Ionization_Penalty>
0.00112246

> <r_epik_Ionization_Penalty_Charging>
0

> <r_epik_Ionization_Penalty_Neutral>
0.00112246

> <r_epik_State_Penalty>
0.000737392

> <r_epik_Charging_Adjusted_Penalty>
0.000737392

> <i_epik_Tot_Q>
0

> <i_epik_Tot_abs_Q>
0

> <r_epik_Metal_State_Penalty>
-0

> <b_epik_Metal_Only>
0

> <s_lp_Force_Field>
OPLS_2005

> <r_lp_Energy>
12.7546

> <b_lp_Chiralities_Consistent>
1

> <s_lp_Variant>
AV-unprocessed.smi:3264-1

> <Gold.Version>
5.8.1

> <Gold.Id.Protein>
6NUR|6NUR_protein|mol2

> <Gold.PLP.Fitness>
43.2894

> <Gold.PLP.PLP>
-40.8832

> <Gold.PLP.part.hbond>
-1.0679

> <Gold.PLP.part.metal>
0.0000

> <Gold.PLP.part.buried>
-4.1334

> <Gold.PLP.part.nonpolar>
-34.8466

> <Gold.PLP.part.repulsive>
0.0214

> <Gold.PLP.ligand.clash>
0.0000

> <Gold.PLP.ligand.torsion>
0.3035

> <Gold.PLP.Chemscore.Hbond>
1.0000

> <Gold.PLP.Chemscore.CHOScore>
0.0000

> <Gold.PLP.Chemscore.Metal>
0.0000

> <Gold.Chemscore.Hbonds>
donor molecule, donor type, donor heavy atom, donor atom, acceptor molecule, acceptor atom, score
      P1  H  7997  8009       L1    14  1.00

> <Gold.PLP.Chemscore.Internal.Correction>
0.0131

> <Gold.Rescore>
     Score         DG    S(hbond)    S(metal)    S(lipo)     H(rot)  DE(clash)    DE(int)     intcor
     16.18     -16.52       0.77        0.00     105.55       1.52       0.05       0.29       ----

> <Gold.Chemscore.Fitness>
16.1812

> <Gold.Chemscore.DG>
-16.5185

> <Gold.Chemscore.ZeroCoef>
-5.4800

> <Gold.Chemscore.Hbond>
0.7695

> <Gold.Chemscore.Metal>
0.0000

> <Gold.Chemscore.Lipo>
105.5475

> <Gold.Chemscore.Internal_Hbond>
0.0000

> <Gold.Chemscore.DEClash>
0.0494

> <Gold.Chemscore.DEInternal>
0.2879

> <Gold.Chemscore.Rot>
1.5159

> <Gold.Chemscore.Internal.Correction>
   9.000000E+99

> <Gold.Chemscore.Hbonds>
donor molecule, donor type, donor heavy atom, donor atom, acceptor molecule, acceptor atom, score
      P1  H  7997  8009       L1    14  0.35

> <Gold.Chemscore.Hbond.Weighted>
-2.5701

> <Gold.Chemscore.Metal.Weighted>
-0.0000

> <Gold.Chemscore.Lipo.Weighted>
-12.3491

> <Gold.Chemscore.Internal_Hbond.Weighted>
0.0000

> <Gold.Chemscore.DEClash.Weighted>
0.0494

> <Gold.Chemscore.DEInternal.Weighted>
0.2879

> <Gold.Chemscore.Rot.Weighted>
3.8807

> <Gold.Chemscore.Internal.Correction.Weighted>
   9.000000E+99

> <Gold.Protein.RotatedTorsions>
[ 6907 6896 6895 6894 ] final   56.81 input  -60.11 | X-H torsion
[ 7974 7965 7964 7962 ] final  135.19 input  175.53 | X-H torsion
[ 8008 7997 7996 7995 ] final -153.32 input   59.86 | X-H torsion
[ 10167 10162 10161 10158 ] final  112.59 input  -65.29 | X-H torsion
[ 10718 10713 10712 10709 ] final   83.00 input   66.30 | X-H torsion
[ 10763 10752 10751 10750 ] final -141.44 input  -60.55 | X-H torsion
[ 11005 11000 10999 10996 ] final  -51.54 input  -57.11 | X-H torsion

> <Gold.Protein.ActiveResidues>
 VAL166  LYS551  ARG553  GLY616  TRP617  ASP618  TYR619  PRO620  LYS621  CYS622 
 ASP623  PHE694  ASN695  SER759  ASP760  ASP761  ALA762  ILE779  LEU786  VAL792 
 PHE793  MET794  SER795  GLU796  ALA797  LYS798  CYS799  TRP800  GLU811  SER814 

> <Gold.Protein.RotatedAtoms>
  152.3672  134.6787  160.0187 H   0  0  0  0  0  0  0  0  0  0  0  0  # atno 6907 bound_to 6896
  151.7091  133.3306  159.3294 H   0  0  0  0  0  0  0  0  0  0  0  0  # atno 6908 bound_to 6896
  150.7647  134.6482  159.6318 H   0  0  0  0  0  0  0  0  0  0  0  0  # atno 6909 bound_to 6896
  144.9688  139.4629  143.5443 H   0  0  0  0  0  0  0  0  0  0  0  0  # atno 7974 bound_to 7965
  155.6689  140.0731  157.2527 H   0  0  0  0  0  0  0  0  0  0  0  0  # atno 8008 bound_to 7997
  154.4127  140.1702  156.1909 H   0  0  0  0  0  0  0  0  0  0  0  0  # atno 8009 bound_to 7997
  155.9633  140.3368  155.6513 H   0  0  0  0  0  0  0  0  0  0  0  0  # atno 8010 bound_to 7997
  139.6524  144.7128  151.2022 H   0  0  0  0  0  0  0  0  0  0  0  0  # atno 10167 bound_to 10162
  157.6869  131.0072  150.2458 H   0  0  0  0  0  0  0  0  0  0  0  0  # atno 10718 bound_to 10713
  154.8545  135.3524  154.5869 H   0  0  0  0  0  0  0  0  0  0  0  0  # atno 10763 bound_to 10752
  153.6479  135.6995  153.5223 H   0  0  0  0  0  0  0  0  0  0  0  0  # atno 10764 bound_to 10752
  153.2918  135.4232  155.1132 H   0  0  0  0  0  0  0  0  0  0  0  0  # atno 10765 bound_to 10752
  141.0876  133.6639  156.3892 H   0  0  0  0  0  0  0  0  0  0  0  0  # atno 11005 bound_to 11000
  146.3376  139.8886  142.8812 LP  0  0  0  0  0  0  0  0  0  0  0  0  # atno 17320 bound_to 7965
  145.2590  141.0070  143.3837 LP  0  0  0  0  0  0  0  0  0  0  0  0  # atno 17321 bound_to 7965
  140.7544  143.6128  150.8589 LP  0  0  0  0  0  0  0  0  0  0  0  0  # atno 17342 bound_to 10162
  139.9777  143.5986  152.2953 LP  0  0  0  0  0  0  0  0  0  0  0  0  # atno 17343 bound_to 10162
  156.3064  130.3765  149.7702 LP  0  0  0  0  0  0  0  0  0  0  0  0  # atno 17370 bound_to 10713
  156.5316  130.8260  151.3239 LP  0  0  0  0  0  0  0  0  0  0  0  0  # atno 17371 bound_to 10713
  140.5326  134.6197  157.5355 LP  0  0  0  0  0  0  0  0  0  0  0  0  # atno 17394 bound_to 11000
  139.9697  134.7314  156.0067 LP  0  0  0  0  0  0  0  0  0  0  0  0  # atno 17395 bound_to 11000

$$$$
