AV-unprocessed.smi:2552|AV-procd|sdf|10015|dock6
  -GOLD-   2272014 63D 1   1.00000     0.00000
 Structure written by MMmdl.
 34 36  0  0  0  0  0  0  0  0  1 V2000
  145.3750  142.8847  157.9334 C   0  0  0  0  0  0  0  0  0  0  0  0
  146.2323  142.3687  156.8688 N   0  0  0  0  0  0  0  0  0  0  0  0
  145.5766  142.1145  155.6582 N   0  0  0  0  0  0  0  0  0  0  0  0
  146.2165  141.6532  154.6292 C   0  0  0  0  0  0  0  0  0  0  0  0
  147.6480  141.4015  154.7621 C   0  0  0  0  0  0  0  0  0  0  0  0
  148.6712  140.9109  153.9049 C   0  0  0  0  0  0  0  0  0  0  0  0
  149.8530  140.8607  154.5165 N   0  0  0  0  0  0  0  0  0  0  0  0
  149.6348  141.3102  155.7797 N   0  0  0  0  0  0  0  0  0  0  0  0
  150.7349  141.3634  156.7303 C   0  0  0  0  0  0  0  0  0  0  0  0
  150.7928  142.7058  157.4871 C   0  0  2  0  0  0  0  0  0  0  0  0
  151.2182  143.7048  156.5818 O   0  0  0  0  0  0  0  0  0  0  0  0
  151.6758  142.6343  158.7280 C   0  0  0  0  0  0  0  0  0  0  0  0
  152.3726  141.4455  159.0395 C   0  0  0  0  0  0  0  0  0  0  0  0
  153.1733  141.3711  160.1954 C   0  0  0  0  0  0  0  0  0  0  0  0
  153.2816  142.4844  161.0498 C   0  0  0  0  0  0  0  0  0  0  0  0
  152.5863  143.6709  160.7487 C   0  0  0  0  0  0  0  0  0  0  0  0
  151.7836  143.7472  159.5936 C   0  0  0  0  0  0  0  0  0  0  0  0
  151.1109  144.8930  159.3276 F   0  0  0  0  0  0  0  0  0  0  0  0
  148.3034  141.6415  155.9242 C   0  0  0  0  0  0  0  0  0  0  0  0
  147.5659  142.1710  157.0948 C   0  0  0  0  0  0  0  0  0  0  0  0
  148.1276  142.4041  158.1653 O   0  0  0  0  0  0  0  0  0  0  0  0
  145.7180  143.8671  158.2611 H   0  0  0  0  0  0  0  0  0  0  0  0
  145.3856  142.2140  158.7939 H   0  0  0  0  0  0  0  0  0  0  0  0
  144.3382  142.9886  157.6090 H   0  0  0  0  0  0  0  0  0  0  0  0
  145.7043  141.4560  153.6875 H   0  0  0  0  0  0  0  0  0  0  0  0
  148.5984  140.5922  152.8756 H   0  0  0  0  0  0  0  0  0  0  0  0
  150.6384  140.5334  157.4324 H   0  0  0  0  0  0  0  0  0  0  0  0
  151.6628  141.1945  156.1830 H   0  0  0  0  0  0  0  0  0  0  0  0
  149.7845  142.9885  157.7890 H   0  0  0  0  0  0  0  0  0  0  0  0
  150.4643  144.0168  156.1048 H   0  0  0  0  0  0  0  0  0  0  0  0
  152.2907  140.5829  158.3945 H   0  0  0  0  0  0  0  0  0  0  0  0
  153.7023  140.4585  160.4277 H   0  0  0  0  0  0  0  0  0  0  0  0
  153.8949  142.4274  161.9369 H   0  0  0  0  0  0  0  0  0  0  0  0
  152.6658  144.5235  161.4066 H   0  0  0  0  0  0  0  0  0  0  0  0
  1  2  1  0  0  0  0
  1 22  1  0  0  0  0
  1 23  1  0  0  0  0
  1 24  1  0  0  0  0
  2 20  1  0  0  0  0
  2  3  1  0  0  0  0
  3  4  2  0  0  0  0
  4  5  1  0  0  0  0
  4 25  1  0  0  0  0
  5 19  2  0  0  0  0
  5  6  1  0  0  0  0
  6  7  2  0  0  0  0
  6 26  1  0  0  0  0
  7  8  1  0  0  0  0
  8  9  1  0  0  0  0
  8 19  1  0  0  0  0
  9 10  1  0  0  0  0
  9 27  1  0  0  0  0
  9 28  1  0  0  0  0
 10 11  1  0  0  0  0
 10 12  1  0  0  0  0
 10 29  1  0  0  0  0
 11 30  1  0  0  0  0
 12 17  1  0  0  0  0
 12 13  2  0  0  0  0
 13 14  1  0  0  0  0
 13 31  1  0  0  0  0
 14 15  2  0  0  0  0
 14 32  1  0  0  0  0
 15 16  1  0  0  0  0
 15 33  1  0  0  0  0
 16 17  2  0  0  0  0
 16 34  1  0  0  0  0
 17 18  1  0  0  0  0
 19 20  1  0  0  0  0
 20 21  2  0  0  0  0
M  END
> <s_m_source_file>
AV-unprocessed.smi

> <i_m_source_file_index>
2552

> <i_lp_mmshare_version>
43012

> <i_f3d_flags>
0

> <s_epik_input>
W2NIXTFubihbQ0gzXSljKD1PKWMoYzEyKW4obltjSF0yKVtDSDJdW0NASF0oW09IXSljM1tjSF1bY0hdW2NIXVtjSF1jM0Y=

> <s_epik_cmdline>
J2VwaWtfcHl0aG9uJywgJy1waCcsICc3LjAnLCAnLXRuJywgJzgnLCAnLW1hJywgJzIwMCcsICctbWV0YWxfYmluZGluZycsICctaW1hZScsICc8aW5maWxlLm1hZT4nLCAnLW9tYWUnLCAnPG91dGZpbGUubWFlPic=

> <r_lp_tautomer_probability>
1

> <r_epik_Ionization_Penalty>
6.28011e-06

> <r_epik_Ionization_Penalty_Charging>
1.65421e-10

> <r_epik_Ionization_Penalty_Neutral>
6.27995e-06

> <r_epik_State_Penalty>
-0

> <r_epik_Charging_Adjusted_Penalty>
1.65421e-10

> <i_epik_Tot_Q>
0

> <i_epik_Tot_abs_Q>
0

> <r_epik_Metal_State_Penalty>
-0

> <b_epik_Metal_Only>
0

> <s_lp_Force_Field>
OPLS_2005

> <r_lp_Energy>
28.555

> <b_lp_Chiralities_Consistent>
1

> <s_lp_Variant>
AV-unprocessed.smi:2552-1

> <Gold.Version>
5.8.1

> <Gold.Id.Protein>
6NUR|6NUR_protein|mol2

> <Gold.PLP.Fitness>
51.4530

> <Gold.PLP.PLP>
-40.9326

> <Gold.PLP.part.hbond>
-2.0000

> <Gold.PLP.part.metal>
0.0000

> <Gold.PLP.part.buried>
-3.8789

> <Gold.PLP.part.nonpolar>
-36.1673

> <Gold.PLP.part.repulsive>
0.4024

> <Gold.PLP.ligand.clash>
0.0000

> <Gold.PLP.ligand.torsion>
0.2467

> <Gold.PLP.Chemscore.Hbond>
1.6661

> <Gold.PLP.Chemscore.CHOScore>
2.0000

> <Gold.PLP.Chemscore.Metal>
0.0000

> <Gold.Chemscore.Hbonds>
donor molecule, donor type, donor heavy atom, donor atom, acceptor molecule, acceptor atom, score
      L1  H    11    30       P1  8028  1.00
      P1  H  7989  7998       L1     7  0.67
      L1  C     4    25       P1 10175  0.99
      L1  C     6    26       P1  7957  1.00

> <Gold.PLP.Chemscore.Internal.Correction>
0.0154

> <Gold.Rescore>
     Score         DG    S(hbond)    S(metal)    S(lipo)     H(rot)  DE(clash)    DE(int)     intcor
     15.89     -18.20       1.74        0.00     103.22       2.02       0.45       1.86       ----

> <Gold.Chemscore.Fitness>
15.8867

> <Gold.Chemscore.DG>
-18.1977

> <Gold.Chemscore.ZeroCoef>
-5.4800

> <Gold.Chemscore.Hbond>
1.7387

> <Gold.Chemscore.Metal>
0.0000

> <Gold.Chemscore.Lipo>
103.2212

> <Gold.Chemscore.Internal_Hbond>
0.0000

> <Gold.Chemscore.DEClash>
0.4500

> <Gold.Chemscore.DEInternal>
1.8610

> <Gold.Chemscore.Rot>
2.0181

> <Gold.Chemscore.Internal.Correction>
   9.000000E+99

> <Gold.Chemscore.Hbonds>
donor molecule, donor type, donor heavy atom, donor atom, acceptor molecule, acceptor atom, score
      L1  H    11    30       P1  8028  1.00
      P1  H  7989  7998       L1     7  0.60

> <Gold.Chemscore.Hbond.Weighted>
-5.8071

> <Gold.Chemscore.Metal.Weighted>
-0.0000

> <Gold.Chemscore.Lipo.Weighted>
-12.0769

> <Gold.Chemscore.Internal_Hbond.Weighted>
0.0000

> <Gold.Chemscore.DEClash.Weighted>
0.4500

> <Gold.Chemscore.DEInternal.Weighted>
1.8610

> <Gold.Chemscore.Rot.Weighted>
5.1663

> <Gold.Chemscore.Internal.Correction.Weighted>
   9.000000E+99

> <Gold.Protein.RotatedTorsions>
[ 6907 6896 6895 6894 ] final   64.18 input  -60.11 | X-H torsion
[ 7974 7965 7964 7962 ] final  133.35 input  175.53 | X-H torsion
[ 8008 7997 7996 7995 ] final  -55.67 input   59.86 | X-H torsion
[ 10167 10162 10161 10158 ] final -133.45 input  -65.29 | X-H torsion
[ 10718 10713 10712 10709 ] final   54.38 input   66.30 | X-H torsion
[ 10763 10752 10751 10750 ] final   14.37 input  -60.55 | X-H torsion
[ 11005 11000 10999 10996 ] final  -62.43 input  -57.11 | X-H torsion

> <Gold.Protein.ActiveResidues>
 VAL166  LYS551  ARG553  GLY616  TRP617  ASP618  TYR619  PRO620  LYS621  CYS622 
 ASP623  PHE694  ASN695  SER759  ASP760  ASP761  ALA762  ILE779  LEU786  VAL792 
 PHE793  MET794  SER795  GLU796  ALA797  LYS798  CYS799  TRP800  GLU811  SER814 

> <Gold.Protein.RotatedAtoms>
  152.4311  134.5776  159.9938 H   0  0  0  0  0  0  0  0  0  0  0  0  # atno 6907 bound_to 6896
  151.5898  133.3362  159.3033 H   0  0  0  0  0  0  0  0  0  0  0  0  # atno 6908 bound_to 6896
  150.8204  134.7445  159.6832 H   0  0  0  0  0  0  0  0  0  0  0  0  # atno 6909 bound_to 6896
  144.9874  139.4441  143.5356 H   0  0  0  0  0  0  0  0  0  0  0  0  # atno 7974 bound_to 7965
  154.4203  140.1147  156.5515 H   0  0  0  0  0  0  0  0  0  0  0  0  # atno 8008 bound_to 7997
  155.6405  140.3496  155.4694 H   0  0  0  0  0  0  0  0  0  0  0  0  # atno 8009 bound_to 7997
  155.9874  140.1172  157.0659 H   0  0  0  0  0  0  0  0  0  0  0  0  # atno 8010 bound_to 7997
  139.8981  143.6640  152.2600 H   0  0  0  0  0  0  0  0  0  0  0  0  # atno 10167 bound_to 10162
  157.5252  130.8592  149.8611 H   0  0  0  0  0  0  0  0  0  0  0  0  # atno 10718 bound_to 10713
  153.1628  135.6799  153.8717 H   0  0  0  0  0  0  0  0  0  0  0  0  # atno 10763 bound_to 10752
  153.8107  135.3143  155.3401 H   0  0  0  0  0  0  0  0  0  0  0  0  # atno 10764 bound_to 10752
  154.7945  135.4815  154.0217 H   0  0  0  0  0  0  0  0  0  0  0  0  # atno 10765 bound_to 10752
  141.1359  133.6640  156.5526 H   0  0  0  0  0  0  0  0  0  0  0  0  # atno 11005 bound_to 11000
  146.3423  139.9185  142.8770 LP  0  0  0  0  0  0  0  0  0  0  0  0  # atno 17320 bound_to 7965
  145.2334  140.9982  143.3977 LP  0  0  0  0  0  0  0  0  0  0  0  0  # atno 17321 bound_to 7965
  139.7049  144.7629  151.1209 LP  0  0  0  0  0  0  0  0  0  0  0  0  # atno 17342 bound_to 10162
  140.7712  143.5407  150.9315 LP  0  0  0  0  0  0  0  0  0  0  0  0  # atno 17343 bound_to 10162
  156.0381  130.3746  150.1506 LP  0  0  0  0  0  0  0  0  0  0  0  0  # atno 17370 bound_to 10713
  156.9692  130.9829  151.3462 LP  0  0  0  0  0  0  0  0  0  0  0  0  # atno 17371 bound_to 10713
  140.4051  134.7322  157.4803 LP  0  0  0  0  0  0  0  0  0  0  0  0  # atno 17394 bound_to 11000
  140.0467  134.6189  155.8912 LP  0  0  0  0  0  0  0  0  0  0  0  0  # atno 17395 bound_to 11000

$$$$
