AV-unprocessed.smi:3094|AV-procd|sdf|11790|dock6
  -GOLD-   2272017163D 1   1.00000     0.00000
 Structure written by MMmdl.
 29 30  0  0  0  0  0  0  0  0  1 V2000
  149.4269  140.7345  157.1876 C   0  0  0  0  0  0  0  0  0  0  0  0
  150.3827  141.5053  156.2643 C   0  0  2  0  0  0  0  0  0  0  0  0
  151.7510  140.8058  156.1575 C   0  0  0  0  0  0  0  0  0  0  0  0
  151.6807  139.5731  155.3946 N   0  0  0  0  0  0  0  0  0  0  0  0
  150.5942  139.0946  154.6743 C   0  0  0  0  0  0  0  0  0  0  0  0
  150.9889  137.9009  154.1139 C   0  0  0  0  0  0  0  0  0  0  0  0
  152.3053  137.6253  154.4765 N   0  0  0  0  0  0  0  0  0  0  0  0
  152.6470  138.6581  155.2360 C   0  0  0  0  0  0  0  0  0  0  0  0
  150.5548  142.8716  156.7552 N   0  0  0  0  0  0  0  0  0  0  0  0
  151.3212  143.2362  157.7943 C   0  0  0  0  0  0  0  0  0  0  0  0
  151.9955  142.4377  158.4462 O   0  0  0  0  0  0  0  0  0  0  0  0
  151.2803  144.6996  158.0900 C   0  0  0  0  0  0  0  0  0  0  0  0
  152.2006  145.2242  159.1731 C   0  0  0  0  0  0  0  0  0  0  0  0
  150.7173  145.1294  159.4294 C   0  0  0  0  0  0  0  0  0  0  0  0
  149.2719  139.7166  156.8288 H   0  0  0  0  0  0  0  0  0  0  0  0
  148.4496  141.2162  157.2351 H   0  0  0  0  0  0  0  0  0  0  0  0
  149.8185  140.6732  158.2035 H   0  0  0  0  0  0  0  0  0  0  0  0
  149.9401  141.5315  155.2666 H   0  0  0  0  0  0  0  0  0  0  0  0
  152.4884  141.4660  155.6979 H   0  0  0  0  0  0  0  0  0  0  0  0
  152.1263  140.5619  157.1520 H   0  0  0  0  0  0  0  0  0  0  0  0
  149.6576  139.6299  154.6188 H   0  0  0  0  0  0  0  0  0  0  0  0
  150.4309  137.2247  153.4832 H   0  0  0  0  0  0  0  0  0  0  0  0
  153.6253  138.7537  155.6838 H   0  0  0  0  0  0  0  0  0  0  0  0
  150.0366  143.5943  156.2772 H   0  0  0  0  0  0  0  0  0  0  0  0
  151.0907  145.3616  157.2462 H   0  0  0  0  0  0  0  0  0  0  0  0
  152.8447  144.5192  159.6959 H   0  0  0  0  0  0  0  0  0  0  0  0
  152.6307  146.2116  159.0188 H   0  0  0  0  0  0  0  0  0  0  0  0
  150.1415  146.0525  159.4488 H   0  0  0  0  0  0  0  0  0  0  0  0
  150.3773  144.3615  160.1222 H   0  0  0  0  0  0  0  0  0  0  0  0
  1  2  1  0  0  0  0
  1 15  1  0  0  0  0
  1 16  1  0  0  0  0
  1 17  1  0  0  0  0
  2  3  1  0  0  0  0
  2  9  1  0  0  0  0
  2 18  1  0  0  0  0
  3  4  1  0  0  0  0
  3 19  1  0  0  0  0
  3 20  1  0  0  0  0
  4  8  1  0  0  0  0
  4  5  1  0  0  0  0
  5  6  2  0  0  0  0
  5 21  1  0  0  0  0
  6  7  1  0  0  0  0
  6 22  1  0  0  0  0
  7  8  2  0  0  0  0
  8 23  1  0  0  0  0
  9 10  1  0  0  0  0
  9 24  1  0  0  0  0
 10 11  2  0  0  0  0
 10 12  1  0  0  0  0
 12 14  1  0  0  0  0
 12 13  1  0  0  0  0
 12 25  1  0  0  0  0
 13 14  1  0  0  0  0
 13 26  1  0  0  0  0
 13 27  1  0  0  0  0
 14 28  1  0  0  0  0
 14 29  1  0  0  0  0
M  END
> <s_m_source_file>
AV-unprocessed.smi

> <i_m_source_file_index>
3094

> <i_lp_mmshare_version>
43012

> <i_f3d_flags>
0

> <s_epik_input>
W0NIMl0xW0NIMl1bQ0hdMUMoPU8pW05IXVtDQEhdKFtDSDNdKVtDSDJdbjJbY0hdW2NIXW5bY0hdMg==

> <s_epik_cmdline>
J2VwaWtfcHl0aG9uJywgJy1waCcsICc3LjAnLCAnLXRuJywgJzgnLCAnLW1hJywgJzIwMCcsICctbWV0YWxfYmluZGluZycsICctaW1hZScsICc8aW5maWxlLm1hZT4nLCAnLW9tYWUnLCAnPG91dGZpbGUubWFlPic=

> <r_lp_tautomer_probability>
1

> <r_epik_Ionization_Penalty>
0.642614

> <r_epik_Ionization_Penalty_Charging>
0.642614

> <r_epik_Ionization_Penalty_Neutral>
4.09963e-08

> <r_epik_State_Penalty>
0.660429

> <r_epik_Charging_Adjusted_Penalty>
1.30304

> <i_epik_Tot_Q>
0

> <i_epik_Tot_abs_Q>
0

> <r_epik_Metal_State_Penalty>
0.31224

> <b_epik_Metal_Only>
0

> <s_lp_Force_Field>
OPLS_2005

> <r_lp_Energy>
8.14958

> <b_lp_Chiralities_Consistent>
1

> <s_lp_Variant>
AV-unprocessed.smi:3094-3

> <Gold.Version>
5.8.1

> <Gold.Id.Protein>
6NUR|6NUR_protein|mol2

> <Gold.PLP.Fitness>
42.9589

> <Gold.PLP.PLP>
-35.2395

> <Gold.PLP.part.hbond>
-2.0000

> <Gold.PLP.part.metal>
0.0000

> <Gold.PLP.part.buried>
-5.5183

> <Gold.PLP.part.nonpolar>
-28.1207

> <Gold.PLP.part.repulsive>
0.1538

> <Gold.PLP.ligand.clash>
0.0000

> <Gold.PLP.ligand.torsion>
0.3632

> <Gold.PLP.Chemscore.Hbond>
1.6978

> <Gold.PLP.Chemscore.CHOScore>
1.0793

> <Gold.PLP.Chemscore.Metal>
0.0000

> <Gold.Chemscore.Hbonds>
donor molecule, donor type, donor heavy atom, donor atom, acceptor molecule, acceptor atom, score
      L1  H     9    24       P1  8028  1.00
      P1  H 10752 10765       L1     7  0.66
      L1  C     6    22       P1  7948  0.65
      L1  C     6    22       P1  7949  0.41

> <Gold.PLP.Chemscore.Internal.Correction>
0.1145

> <Gold.Rescore>
     Score         DG    S(hbond)    S(metal)    S(lipo)     H(rot)  DE(clash)    DE(int)     intcor
     13.59     -15.39       1.89        0.00      70.75       1.83       0.02       1.77       ----

> <Gold.Chemscore.Fitness>
13.5920

> <Gold.Chemscore.DG>
-15.3885

> <Gold.Chemscore.ZeroCoef>
-5.4800

> <Gold.Chemscore.Hbond>
1.8945

> <Gold.Chemscore.Metal>
0.0000

> <Gold.Chemscore.Lipo>
70.7506

> <Gold.Chemscore.Internal_Hbond>
0.0000

> <Gold.Chemscore.DEClash>
0.0221

> <Gold.Chemscore.DEInternal>
1.7744

> <Gold.Chemscore.Rot>
1.8347

> <Gold.Chemscore.Internal.Correction>
   9.000000E+99

> <Gold.Chemscore.Hbonds>
donor molecule, donor type, donor heavy atom, donor atom, acceptor molecule, acceptor atom, score
      L1  H     9    24       P1  8028  1.00
      P1  H 10752 10765       L1     7  0.60

> <Gold.Chemscore.Hbond.Weighted>
-6.3276

> <Gold.Chemscore.Metal.Weighted>
-0.0000

> <Gold.Chemscore.Lipo.Weighted>
-8.2778

> <Gold.Chemscore.Internal_Hbond.Weighted>
0.0000

> <Gold.Chemscore.DEClash.Weighted>
0.0221

> <Gold.Chemscore.DEInternal.Weighted>
1.7744

> <Gold.Chemscore.Rot.Weighted>
4.6969

> <Gold.Chemscore.Internal.Correction.Weighted>
   9.000000E+99

> <Gold.Protein.RotatedTorsions>
[ 6907 6896 6895 6894 ] final   43.12 input  -60.11 | X-H torsion
[ 7974 7965 7964 7962 ] final -126.42 input  175.53 | X-H torsion
[ 8008 7997 7996 7995 ] final -104.17 input   59.86 | X-H torsion
[ 10167 10162 10161 10158 ] final  -75.15 input  -65.29 | X-H torsion
[ 10718 10713 10712 10709 ] final    4.62 input   66.30 | X-H torsion
[ 10763 10752 10751 10750 ] final  158.81 input  -60.55 | X-H torsion
[ 11005 11000 10999 10996 ] final   26.85 input  -57.11 | X-H torsion

> <Gold.Protein.ActiveResidues>
 VAL166  LYS551  ARG553  GLY616  TRP617  ASP618  TYR619  PRO620  LYS621  CYS622 
 ASP623  PHE694  ASN695  SER759  ASP760  ASP761  ALA762  ILE779  LEU786  VAL792 
 PHE793  MET794  SER795  GLU796  ALA797  LYS798  CYS799  TRP800  GLU811  SER814 

> <Gold.Protein.RotatedAtoms>
  152.2163  134.8455  160.0491 H   0  0  0  0  0  0  0  0  0  0  0  0  # atno 6907 bound_to 6896
  151.9255  133.3592  159.3920 H   0  0  0  0  0  0  0  0  0  0  0  0  # atno 6908 bound_to 6896
  150.6988  134.4517  159.5383 H   0  0  0  0  0  0  0  0  0  0  0  0  # atno 6909 bound_to 6896
  144.9875  140.7700  143.4574 H   0  0  0  0  0  0  0  0  0  0  0  0  # atno 7974 bound_to 7965
  154.8814  140.0419  157.1784 H   0  0  0  0  0  0  0  0  0  0  0  0  # atno 8008 bound_to 7997
  154.8635  140.2947  155.5503 H   0  0  0  0  0  0  0  0  0  0  0  0  # atno 8009 bound_to 7997
  156.2998  140.2442  156.3613 H   0  0  0  0  0  0  0  0  0  0  0  0  # atno 8010 bound_to 7997
  140.4967  143.2369  151.7819 H   0  0  0  0  0  0  0  0  0  0  0  0  # atno 10167 bound_to 10162
  156.8954  130.5702  149.5649 H   0  0  0  0  0  0  0  0  0  0  0  0  # atno 10718 bound_to 10713
  154.2219  135.2781  155.2921 H   0  0  0  0  0  0  0  0  0  0  0  0  # atno 10763 bound_to 10752
  154.5694  135.5623  153.7085 H   0  0  0  0  0  0  0  0  0  0  0  0  # atno 10764 bound_to 10752
  153.0040  135.6317  154.2359 H   0  0  0  0  0  0  0  0  0  0  0  0  # atno 10765 bound_to 10752
  140.3326  134.2421  155.7700 H   0  0  0  0  0  0  0  0  0  0  0  0  # atno 11005 bound_to 11000
  145.2333  139.2105  143.5031 LP  0  0  0  0  0  0  0  0  0  0  0  0  # atno 17320 bound_to 7965
  146.3423  140.2214  142.8591 LP  0  0  0  0  0  0  0  0  0  0  0  0  # atno 17321 bound_to 7965
  139.4863  144.4577  151.9579 LP  0  0  0  0  0  0  0  0  0  0  0  0  # atno 17342 bound_to 10162
  140.3665  144.2909  150.5926 LP  0  0  0  0  0  0  0  0  0  0  0  0  # atno 17343 bound_to 10162
  156.0608  130.5661  150.9189 LP  0  0  0  0  0  0  0  0  0  0  0  0  # atno 17370 bound_to 10713
  157.6059  131.0939  150.8881 LP  0  0  0  0  0  0  0  0  0  0  0  0  # atno 17371 bound_to 10713
  141.2059  133.7846  157.0204 LP  0  0  0  0  0  0  0  0  0  0  0  0  # atno 17394 bound_to 11000
  140.0848  134.9627  157.1682 LP  0  0  0  0  0  0  0  0  0  0  0  0  # atno 17395 bound_to 11000

$$$$
