AV-unprocessed.smi:1047|AV-procd|sdf|4594|dock4
  -GOLD-   22720 3 73D 1   1.00000     0.00000
 Structure written by MMmdl.
 55 57  0  0  0  0  0  0  0  0  1 V2000
  148.4056  132.8783  153.0944 C   0  0  0  0  0  0  0  0  0  0  0  0
  149.5707  132.2226  153.8496 C   0  0  0  0  0  0  0  0  0  0  0  0
  149.8969  132.8396  155.1339 N   0  0  0  0  0  0  0  0  0  0  0  0
  150.9738  132.1427  155.8340 C   0  0  0  0  0  0  0  0  0  0  0  0
  151.3303  132.8270  157.1650 C   0  0  0  0  0  0  0  0  0  0  0  0
  151.6656  134.1887  156.9220 O   0  0  0  0  0  0  0  0  0  0  0  0
  150.6058  134.9161  156.3051 C   0  0  1  0  0  0  0  0  0  0  0  0
  151.0548  136.3724  156.1238 C   0  0  0  0  0  0  0  0  0  0  0  0
  149.9561  137.1709  155.5999 N   0  0  0  0  0  0  0  0  0  0  0  0
  149.9147  138.5503  156.0730 C   0  0  0  0  0  0  0  0  0  0  0  0
  150.9986  139.4123  155.3904 C   0  0  1  0  0  0  0  0  0  0  0  0
  150.6562  139.5370  154.0263 O   0  0  0  0  0  0  0  0  0  0  0  0
  151.1578  140.8468  155.9519 C   0  0  0  0  0  0  0  0  0  0  0  0
  151.6564  140.8889  157.3163 N   0  0  0  0  0  0  0  0  0  0  0  0
  152.3065  139.9074  157.9716 C   0  0  0  0  0  0  0  0  0  0  0  0
  152.7100  140.1652  159.2122 N   0  0  0  0  0  0  0  0  0  0  0  0
  152.2653  141.4646  159.3850 C   0  0  0  0  0  0  0  0  0  0  0  0
  152.3899  142.3355  160.4892 C   0  0  0  0  0  0  0  0  0  0  0  0
  151.8565  143.6432  160.4445 C   0  0  0  0  0  0  0  0  0  0  0  0
  152.0189  144.5488  161.6525 C   0  0  0  0  0  0  0  0  0  0  0  0
  151.1795  144.0950  159.2833 C   0  0  0  0  0  0  0  0  0  0  0  0
  150.5967  145.4953  159.2129 C   0  0  0  0  0  0  0  0  0  0  0  0
  151.0454  143.2372  158.1715 C   0  0  0  0  0  0  0  0  0  0  0  0
  151.5881  141.9412  158.2243 C   0  0  0  0  0  0  0  0  0  0  0  0
  150.2704  134.2398  154.9621 C   0  0  0  0  0  0  0  0  0  0  0  0
  148.2934  132.4341  152.1053 H   0  0  0  0  0  0  0  0  0  0  0  0
  148.5759  133.9470  152.9599 H   0  0  0  0  0  0  0  0  0  0  0  0
  147.4572  132.7494  153.6158 H   0  0  0  0  0  0  0  0  0  0  0  0
  149.3632  131.1606  153.9895 H   0  0  0  0  0  0  0  0  0  0  0  0
  150.4477  132.2737  153.2026 H   0  0  0  0  0  0  0  0  0  0  0  0
  150.6884  131.1112  156.0379 H   0  0  0  0  0  0  0  0  0  0  0  0
  151.8618  132.1038  155.2009 H   0  0  0  0  0  0  0  0  0  0  0  0
  150.4966  132.7693  157.8669 H   0  0  0  0  0  0  0  0  0  0  0  0
  152.1786  132.3282  157.6336 H   0  0  0  0  0  0  0  0  0  0  0  0
  149.7230  134.8893  156.9482 H   0  0  0  0  0  0  0  0  0  0  0  0
  151.4125  136.7815  157.0693 H   0  0  0  0  0  0  0  0  0  0  0  0
  151.8924  136.4066  155.4261 H   0  0  0  0  0  0  0  0  0  0  0  0
  149.0729  136.7089  155.7940 H   0  0  0  0  0  0  0  0  0  0  0  0
  148.9307  138.9674  155.8538 H   0  0  0  0  0  0  0  0  0  0  0  0
  150.0343  138.5877  157.1565 H   0  0  0  0  0  0  0  0  0  0  0  0
  151.9550  138.8903  155.4332 H   0  0  0  0  0  0  0  0  0  0  0  0
  150.5524  138.6709  153.6630 H   0  0  0  0  0  0  0  0  0  0  0  0
  151.8382  141.4236  155.3240 H   0  0  0  0  0  0  0  0  0  0  0  0
  150.1979  141.3652  155.9266 H   0  0  0  0  0  0  0  0  0  0  0  0
  152.5102  138.9543  157.5058 H   0  0  0  0  0  0  0  0  0  0  0  0
  152.9047  141.9904  161.3737 H   0  0  0  0  0  0  0  0  0  0  0  0
  151.0446  144.8012  162.0717 H   0  0  0  0  0  0  0  0  0  0  0  0
  152.5269  145.4726  161.3738 H   0  0  0  0  0  0  0  0  0  0  0  0
  152.6072  144.0684  162.4351 H   0  0  0  0  0  0  0  0  0  0  0  0
  150.0908  145.6682  158.2625 H   0  0  0  0  0  0  0  0  0  0  0  0
  151.3843  146.2425  159.3135 H   0  0  0  0  0  0  0  0  0  0  0  0
  149.8699  145.6473  160.0111 H   0  0  0  0  0  0  0  0  0  0  0  0
  150.5375  143.5712  157.2791 H   0  0  0  0  0  0  0  0  0  0  0  0
  151.1294  134.3143  154.2929 H   0  0  0  0  0  0  0  0  0  0  0  0
  149.4539  134.7808  154.4821 H   0  0  0  0  0  0  0  0  0  0  0  0
  1  2  1  0  0  0  0
  1 26  1  0  0  0  0
  1 27  1  0  0  0  0
  1 28  1  0  0  0  0
  2  3  1  0  0  0  0
  2 29  1  0  0  0  0
  2 30  1  0  0  0  0
  3 25  1  0  0  0  0
  3  4  1  0  0  0  0
  4  5  1  0  0  0  0
  4 31  1  0  0  0  0
  4 32  1  0  0  0  0
  5  6  1  0  0  0  0
  5 33  1  0  0  0  0
  5 34  1  0  0  0  0
  6  7  1  0  0  0  0
  7  8  1  0  0  0  0
  7 25  1  0  0  0  0
  7 35  1  0  0  0  0
  8  9  1  0  0  0  0
  8 36  1  0  0  0  0
  8 37  1  0  0  0  0
  9 10  1  0  0  0  0
  9 38  1  0  0  0  0
 10 11  1  0  0  0  0
 10 39  1  0  0  0  0
 10 40  1  0  0  0  0
 11 12  1  0  0  0  0
 11 13  1  0  0  0  0
 11 41  1  0  0  0  0
 12 42  1  0  0  0  0
 13 14  1  0  0  0  0
 13 43  1  0  0  0  0
 13 44  1  0  0  0  0
 14 24  1  0  0  0  0
 14 15  1  0  0  0  0
 15 16  2  0  0  0  0
 15 45  1  0  0  0  0
 16 17  1  0  0  0  0
 17 24  2  0  0  0  0
 17 18  1  0  0  0  0
 18 19  2  0  0  0  0
 18 46  1  0  0  0  0
 19 20  1  0  0  0  0
 19 21  1  0  0  0  0
 20 47  1  0  0  0  0
 20 48  1  0  0  0  0
 20 49  1  0  0  0  0
 21 22  1  0  0  0  0
 21 23  2  0  0  0  0
 22 50  1  0  0  0  0
 22 51  1  0  0  0  0
 22 52  1  0  0  0  0
 23 24  1  0  0  0  0
 23 53  1  0  0  0  0
 25 54  1  0  0  0  0
 25 55  1  0  0  0  0
M  END
> <s_m_source_file>
AV-unprocessed.smi

> <i_m_source_file_index>
1047

> <i_lp_mmshare_version>
43012

> <i_f3d_flags>
0

> <s_epik_input>
W0NIM11bQ0gyXU4xW0NIMl1bQ0gyXU9bQ0BIXShbQ0gyXTEpW0NIMl1bTkhdW0NIMl1bQ0BIXShbT0hdKVtDSDJdbihbY0hdbjIpYyhjMjMpW2NIXWMoW0NIM10pYyhbY0hdMylbQ0gzXQ==

> <s_epik_cmdline>
J2VwaWtfcHl0aG9uJywgJy1waCcsICc3LjAnLCAnLXRuJywgJzgnLCAnLW1hJywgJzIwMCcsICctbWV0YWxfYmluZGluZycsICctaW1hZScsICc8aW5maWxlLm1hZT4nLCAnLW9tYWUnLCAnPG91dGZpbGUubWFlPic=

> <r_epik_Ionization_Penalty>
2.74124

> <r_epik_Ionization_Penalty_Charging>
0

> <r_epik_Ionization_Penalty_Neutral>
2.74124

> <r_epik_State_Penalty>
2.37482

> <r_epik_Charging_Adjusted_Penalty>
2.37482

> <i_epik_Tot_Q>
0

> <i_epik_Tot_abs_Q>
0

> <r_epik_Metal_State_Penalty>
2.25944

> <b_epik_Metal_Only>
0

> <s_lp_Force_Field>
OPLS_2005

> <r_lp_Energy>
29.9902

> <b_lp_Chiralities_Consistent>
1

> <s_lp_Variant>
AV-unprocessed.smi:1047-35

> <Gold.Version>
5.8.1

> <Gold.Id.Protein>
6NUR|6NUR_protein|mol2

> <Gold.PLP.Fitness>
52.8573

> <Gold.PLP.PLP>
-50.9122

> <Gold.PLP.part.hbond>
-2.0074

> <Gold.PLP.part.metal>
0.0000

> <Gold.PLP.part.buried>
-6.8819

> <Gold.PLP.part.nonpolar>
-41.6609

> <Gold.PLP.part.repulsive>
0.0393

> <Gold.PLP.ligand.clash>
0.0000

> <Gold.PLP.ligand.torsion>
0.6024

> <Gold.PLP.Chemscore.Hbond>
1.0000

> <Gold.PLP.Chemscore.CHOScore>
0.0000

> <Gold.PLP.Chemscore.Metal>
0.0000

> <Gold.Chemscore.Hbonds>
donor molecule, donor type, donor heavy atom, donor atom, acceptor molecule, acceptor atom, score
      P1  H  7989  7998       L1    12  1.00

> <Gold.PLP.Chemscore.Internal.Correction>
0.1500

> <Gold.Rescore>
     Score         DG    S(hbond)    S(metal)    S(lipo)     H(rot)  DE(clash)    DE(int)     intcor
     17.50     -18.10       0.99        0.00     134.92       2.52       0.01       0.59       ----

> <Gold.Chemscore.Fitness>
17.5023

> <Gold.Chemscore.DG>
-18.0985

> <Gold.Chemscore.ZeroCoef>
-5.4800

> <Gold.Chemscore.Hbond>
0.9859

> <Gold.Chemscore.Metal>
0.0000

> <Gold.Chemscore.Lipo>
134.9243

> <Gold.Chemscore.Internal_Hbond>
0.0000

> <Gold.Chemscore.DEClash>
0.0052

> <Gold.Chemscore.DEInternal>
0.5910

> <Gold.Chemscore.Rot>
2.5237

> <Gold.Chemscore.Internal.Correction>
   9.000000E+99

> <Gold.Chemscore.Hbonds>
donor molecule, donor type, donor heavy atom, donor atom, acceptor molecule, acceptor atom, score
      P1  H  7989  7998       L1    12  0.45

> <Gold.Chemscore.Hbond.Weighted>
-3.2930

> <Gold.Chemscore.Metal.Weighted>
-0.0000

> <Gold.Chemscore.Lipo.Weighted>
-15.7861

> <Gold.Chemscore.Internal_Hbond.Weighted>
0.0000

> <Gold.Chemscore.DEClash.Weighted>
0.0052

> <Gold.Chemscore.DEInternal.Weighted>
0.5910

> <Gold.Chemscore.Rot.Weighted>
6.4607

> <Gold.Chemscore.Internal.Correction.Weighted>
   9.000000E+99

> <Gold.Protein.RotatedTorsions>
[ 6907 6896 6895 6894 ] final  -84.80 input  -60.11 | X-H torsion
[ 7974 7965 7964 7962 ] final   -9.59 input  175.53 | X-H torsion
[ 8008 7997 7996 7995 ] final    4.79 input   59.86 | X-H torsion
[ 10167 10162 10161 10158 ] final -125.45 input  -65.29 | X-H torsion
[ 10718 10713 10712 10709 ] final -113.74 input   66.30 | X-H torsion
[ 10763 10752 10751 10750 ] final  -63.44 input  -60.55 | X-H torsion
[ 11005 11000 10999 10996 ] final  168.06 input  -57.11 | X-H torsion

> <Gold.Protein.ActiveResidues>
 VAL166  LYS551  ARG553  GLY616  TRP617  ASP618  TYR619  PRO620  LYS621  CYS622 
 ASP623  PHE694  ASN695  SER759  ASP760  ASP761  ALA762  ILE779  LEU786  VAL792 
 PHE793  MET794  SER795  GLU796  ALA797  LYS798  CYS799  TRP800  GLU811  SER814 

> <Gold.Protein.RotatedAtoms>
  150.6874  134.3303  159.4823 H   0  0  0  0  0  0  0  0  0  0  0  0  # atno 6907 bound_to 6896
  152.1168  134.9232  160.0574 H   0  0  0  0  0  0  0  0  0  0  0  0  # atno 6908 bound_to 6896
  152.0453  133.3960  159.4391 H   0  0  0  0  0  0  0  0  0  0  0  0  # atno 6909 bound_to 6896
  146.2247  140.2639  142.8353 H   0  0  0  0  0  0  0  0  0  0  0  0  # atno 7974 bound_to 7965
  154.7203  140.2710  155.6548 H   0  0  0  0  0  0  0  0  0  0  0  0  # atno 8008 bound_to 7997
  156.2821  140.2736  156.1797 H   0  0  0  0  0  0  0  0  0  0  0  0  # atno 8009 bound_to 7997
  155.0516  140.0371  157.2536 H   0  0  0  0  0  0  0  0  0  0  0  0  # atno 8010 bound_to 7997
  139.9820  143.5732  152.2375 H   0  0  0  0  0  0  0  0  0  0  0  0  # atno 10167 bound_to 10162
  156.0785  130.5989  150.8682 H   0  0  0  0  0  0  0  0  0  0  0  0  # atno 10718 bound_to 10713
  154.3151  135.6207  153.5482 H   0  0  0  0  0  0  0  0  0  0  0  0  # atno 10763 bound_to 10752
  152.9825  135.5710  154.5133 H   0  0  0  0  0  0  0  0  0  0  0  0  # atno 10764 bound_to 10752
  154.4791  135.2862  155.1561 H   0  0  0  0  0  0  0  0  0  0  0  0  # atno 10765 bound_to 10752
  140.2833  134.7732  157.3777 H   0  0  0  0  0  0  0  0  0  0  0  0  # atno 11005 bound_to 11000
  144.9319  140.7984  143.5684 LP  0  0  0  0  0  0  0  0  0  0  0  0  # atno 17320 bound_to 7965
  145.2583  139.2003  143.4905 LP  0  0  0  0  0  0  0  0  0  0  0  0  # atno 17321 bound_to 7965
  139.6403  144.7654  151.2353 LP  0  0  0  0  0  0  0  0  0  0  0  0  # atno 17342 bound_to 10162
  140.7486  143.6328  150.8407 LP  0  0  0  0  0  0  0  0  0  0  0  0  # atno 17343 bound_to 10162
  157.5892  131.0945  150.9146 LP  0  0  0  0  0  0  0  0  0  0  0  0  # atno 17370 bound_to 10713
  156.9326  130.5355  149.5279 LP  0  0  0  0  0  0  0  0  0  0  0  0  # atno 17371 bound_to 10713
  140.1263  134.5154  155.8142 LP  0  0  0  0  0  0  0  0  0  0  0  0  # atno 17394 bound_to 11000
  141.2159  133.6774  156.6958 LP  0  0  0  0  0  0  0  0  0  0  0  0  # atno 17395 bound_to 11000

$$$$
