AV-unprocessed.smi:2486|AV-procd|sdf|9790|dock3
  -GOLD-   2272013423D 1   1.00000     0.00000
 Structure written by MMmdl.
 42 43  0  0  0  0  0  0  0  0  1 V2000
  150.9693  138.3724  154.6575 C   0  0  0  0  0  0  0  0  0  0  0  0
  149.8761  139.3253  154.6658 N   0  0  0  0  0  0  0  0  0  0  0  0
  150.0623  140.5957  155.0949 N   0  0  0  0  0  0  0  0  0  0  0  0
  148.8518  141.1351  154.9490 C   0  0  0  0  0  0  0  0  0  0  0  0
  147.8833  140.3085  154.4548 N   0  0  0  0  0  0  0  0  0  0  0  0
  148.5967  139.1970  154.3026 C   0  0  0  0  0  0  0  0  0  0  0  0
  148.1160  137.9540  153.8107 N   0  0  0  0  0  0  0  0  0  0  0  0
  146.9319  137.3710  154.0630 C   0  0  0  0  0  0  0  0  0  0  0  0
  146.0434  137.8432  154.7726 O   0  0  0  0  0  0  0  0  0  0  0  0
  146.8282  136.1915  153.4376 N   0  0  0  0  0  0  0  0  0  0  0  0
  145.6608  135.3181  153.5108 C   0  0  0  0  0  0  0  0  0  0  0  0
  145.1308  134.9026  152.1117 C   0  0  0  0  0  0  0  0  0  0  0  0
  144.6152  136.1621  151.3777 C   0  0  0  0  0  0  0  0  0  0  0  0
  146.3138  134.3269  151.2863 C   0  0  0  0  0  0  0  0  0  0  0  0
  146.6949  132.8608  151.5645 C   0  0  0  0  0  0  0  0  0  0  0  0
  145.9241  131.8664  150.6800 C   0  0  0  0  0  0  0  0  0  0  0  0
  144.4427  131.6986  151.0467 C   0  0  0  0  0  0  0  0  0  0  0  0
  143.6332  133.0068  151.0644 C   0  0  0  0  0  0  0  0  0  0  0  0
  143.9589  133.8941  152.2805 C   0  0  0  0  0  0  0  0  0  0  0  0
  151.1097  137.9857  153.6478 H   0  0  0  0  0  0  0  0  0  0  0  0
  150.7383  137.5445  155.3286 H   0  0  0  0  0  0  0  0  0  0  0  0
  151.8952  138.8470  154.9857 H   0  0  0  0  0  0  0  0  0  0  0  0
  148.6588  142.1653  155.2098 H   0  0  0  0  0  0  0  0  0  0  0  0
  148.7457  137.4532  153.2015 H   0  0  0  0  0  0  0  0  0  0  0  0
  147.6022  135.8745  152.8726 H   0  0  0  0  0  0  0  0  0  0  0  0
  145.9240  134.4315  154.0908 H   0  0  0  0  0  0  0  0  0  0  0  0
  144.8814  135.8337  154.0736 H   0  0  0  0  0  0  0  0  0  0  0  0
  144.2543  135.9228  150.3772 H   0  0  0  0  0  0  0  0  0  0  0  0
  145.4051  136.9064  151.2690 H   0  0  0  0  0  0  0  0  0  0  0  0
  143.7905  136.6387  151.9084 H   0  0  0  0  0  0  0  0  0  0  0  0
  146.1125  134.4328  150.2194 H   0  0  0  0  0  0  0  0  0  0  0  0
  147.1926  134.9502  151.4569 H   0  0  0  0  0  0  0  0  0  0  0  0
  147.7557  132.7428  151.3405 H   0  0  0  0  0  0  0  0  0  0  0  0
  146.5872  132.6113  152.6202 H   0  0  0  0  0  0  0  0  0  0  0  0
  146.0114  132.1610  149.6334 H   0  0  0  0  0  0  0  0  0  0  0  0
  146.4052  130.8905  150.7514 H   0  0  0  0  0  0  0  0  0  0  0  0
  143.9892  131.0169  150.3264 H   0  0  0  0  0  0  0  0  0  0  0  0
  144.3590  131.2008  152.0135 H   0  0  0  0  0  0  0  0  0  0  0  0
  143.7458  133.5533  150.1279 H   0  0  0  0  0  0  0  0  0  0  0  0
  142.5783  132.7365  151.1219 H   0  0  0  0  0  0  0  0  0  0  0  0
  144.1475  133.2470  153.1384 H   0  0  0  0  0  0  0  0  0  0  0  0
  143.0575  134.4465  152.5494 H   0  0  0  0  0  0  0  0  0  0  0  0
  1  2  1  0  0  0  0
  1 20  1  0  0  0  0
  1 21  1  0  0  0  0
  1 22  1  0  0  0  0
  2  6  1  0  0  0  0
  2  3  1  0  0  0  0
  3  4  2  0  0  0  0
  4  5  1  0  0  0  0
  4 23  1  0  0  0  0
  5  6  2  0  0  0  0
  6  7  1  0  0  0  0
  7  8  1  0  0  0  0
  7 24  1  0  0  0  0
  8  9  2  0  0  0  0
  8 10  1  0  0  0  0
 10 11  1  0  0  0  0
 10 25  1  0  0  0  0
 11 12  1  0  0  0  0
 11 26  1  0  0  0  0
 11 27  1  0  0  0  0
 12 19  1  0  0  0  0
 12 13  1  0  0  0  0
 12 14  1  0  0  0  0
 13 28  1  0  0  0  0
 13 29  1  0  0  0  0
 13 30  1  0  0  0  0
 14 15  1  0  0  0  0
 14 31  1  0  0  0  0
 14 32  1  0  0  0  0
 15 16  1  0  0  0  0
 15 33  1  0  0  0  0
 15 34  1  0  0  0  0
 16 17  1  0  0  0  0
 16 35  1  0  0  0  0
 16 36  1  0  0  0  0
 17 18  1  0  0  0  0
 17 37  1  0  0  0  0
 17 38  1  0  0  0  0
 18 19  1  0  0  0  0
 18 39  1  0  0  0  0
 18 40  1  0  0  0  0
 19 41  1  0  0  0  0
 19 42  1  0  0  0  0
M  END
> <s_m_source_file>
AV-unprocessed.smi

> <i_m_source_file_index>
2486

> <i_lp_mmshare_version>
43012

> <i_f3d_flags>
0

> <s_epik_input>
W0NIM11uMW5bY0hdbmMxW05IXUMoPU8pW05IXVtDSDJdQzIoW0NIM10pW0NIMl1bQ0gyXVtDSDJdW0NIMl1bQ0gyXVtDSDJdMg==

> <s_epik_cmdline>
J2VwaWtfcHl0aG9uJywgJy1waCcsICc3LjAnLCAnLXRuJywgJzgnLCAnLW1hJywgJzIwMCcsICctbWV0YWxfYmluZGluZycsICctaW1hZScsICc8aW5maWxlLm1hZT4nLCAnLW9tYWUnLCAnPG91dGZpbGUubWFlPic=

> <r_lp_tautomer_probability>
1

> <r_epik_Ionization_Penalty>
2.33289e-05

> <r_epik_Ionization_Penalty_Charging>
0

> <r_epik_Ionization_Penalty_Neutral>
2.33289e-05

> <r_epik_State_Penalty>
-0

> <r_epik_Charging_Adjusted_Penalty>
0

> <i_epik_Tot_Q>
0

> <i_epik_Tot_abs_Q>
0

> <r_epik_Metal_State_Penalty>
-0

> <b_epik_Metal_Only>
0

> <s_lp_Force_Field>
OPLS_2005

> <r_lp_Energy>
21.4414

> <b_lp_Chiralities_Consistent>
1

> <s_lp_Variant>
AV-unprocessed.smi:2486-1

> <Gold.Version>
5.8.1

> <Gold.Id.Protein>
6NUR|6NUR_protein|mol2

> <Gold.PLP.Fitness>
41.5727

> <Gold.PLP.PLP>
-32.0549

> <Gold.PLP.part.hbond>
-3.0000

> <Gold.PLP.part.metal>
0.0000

> <Gold.PLP.part.buried>
-2.1334

> <Gold.PLP.part.nonpolar>
-27.0777

> <Gold.PLP.part.repulsive>
0.3262

> <Gold.PLP.ligand.clash>
0.0000

> <Gold.PLP.ligand.torsion>
0.3582

> <Gold.PLP.Chemscore.Hbond>
2.4488

> <Gold.PLP.Chemscore.CHOScore>
0.9599

> <Gold.PLP.Chemscore.Metal>
0.0000

> <Gold.Chemscore.Hbonds>
donor molecule, donor type, donor heavy atom, donor atom, acceptor molecule, acceptor atom, score
      L1  H     7    24       P1  7948  0.98
      L1  H    10    25       P1  7948  1.00
      P1  H  7989  7998       L1     3  0.20
      L1  C     4    23       P1  8028  0.84

> <Gold.PLP.Chemscore.Internal.Correction>
0.0080

> <Gold.Rescore>
     Score         DG    S(hbond)    S(metal)    S(lipo)     H(rot)  DE(clash)    DE(int)     intcor
     14.20     -15.05       1.95        0.00      55.58       1.35       0.29       0.56       ----

> <Gold.Chemscore.Fitness>
14.1955

> <Gold.Chemscore.DG>
-15.0526

> <Gold.Chemscore.ZeroCoef>
-5.4800

> <Gold.Chemscore.Hbond>
1.9504

> <Gold.Chemscore.Metal>
0.0000

> <Gold.Chemscore.Lipo>
55.5778

> <Gold.Chemscore.Internal_Hbond>
0.0000

> <Gold.Chemscore.DEClash>
0.2946

> <Gold.Chemscore.DEInternal>
0.5625

> <Gold.Chemscore.Rot>
1.3454

> <Gold.Chemscore.Internal.Correction>
   9.000000E+99

> <Gold.Chemscore.Hbonds>
donor molecule, donor type, donor heavy atom, donor atom, acceptor molecule, acceptor atom, score
      L1  H     7    24       P1  7948  0.93
      L1  H    10    25       P1  7948  0.95
      P1  H  7989  7998       L1     3  0.01

> <Gold.Chemscore.Hbond.Weighted>
-6.5142

> <Gold.Chemscore.Metal.Weighted>
-0.0000

> <Gold.Chemscore.Lipo.Weighted>
-6.5026

> <Gold.Chemscore.Internal_Hbond.Weighted>
0.0000

> <Gold.Chemscore.DEClash.Weighted>
0.2946

> <Gold.Chemscore.DEInternal.Weighted>
0.5625

> <Gold.Chemscore.Rot.Weighted>
3.4442

> <Gold.Chemscore.Internal.Correction.Weighted>
   9.000000E+99

> <Gold.Protein.RotatedTorsions>
[ 6907 6896 6895 6894 ] final  -57.69 input  -60.11 | X-H torsion
[ 7974 7965 7964 7962 ] final -169.66 input  175.53 | X-H torsion
[ 8008 7997 7996 7995 ] final   -6.82 input   59.86 | X-H torsion
[ 10167 10162 10161 10158 ] final   23.25 input  -65.29 | X-H torsion
[ 10718 10713 10712 10709 ] final   -5.81 input   66.30 | X-H torsion
[ 10763 10752 10751 10750 ] final  105.30 input  -60.55 | X-H torsion
[ 11005 11000 10999 10996 ] final  -51.49 input  -57.11 | X-H torsion

> <Gold.Protein.ActiveResidues>
 VAL166  LYS551  ARG553  GLY616  TRP617  ASP618  TYR619  PRO620  LYS621  CYS622 
 ASP623  PHE694  ASN695  SER759  ASP760  ASP761  ALA762  ILE779  LEU786  VAL792 
 PHE793  MET794  SER795  GLU796  ALA797  LYS798  CYS799  TRP800  GLU811  SER814 

> <Gold.Protein.RotatedAtoms>
  150.8066  134.7194  159.6649 H   0  0  0  0  0  0  0  0  0  0  0  0  # atno 6907 bound_to 6896
  152.4185  134.5995  160.0006 H   0  0  0  0  0  0  0  0  0  0  0  0  # atno 6908 bound_to 6896
  151.6217  133.3301  159.3125 H   0  0  0  0  0  0  0  0  0  0  0  0  # atno 6909 bound_to 6896
  144.7182  140.2188  143.6318 H   0  0  0  0  0  0  0  0  0  0  0  0  # atno 7974 bound_to 7965
  154.5899  140.2423  155.7935 H   0  0  0  0  0  0  0  0  0  0  0  0  # atno 8008 bound_to 7997
  156.2239  140.2988  155.9975 H   0  0  0  0  0  0  0  0  0  0  0  0  # atno 8009 bound_to 7997
  155.2392  140.0406  157.2963 H   0  0  0  0  0  0  0  0  0  0  0  0  # atno 8010 bound_to 7997
  140.5284  143.9884  150.6452 H   0  0  0  0  0  0  0  0  0  0  0  0  # atno 10167 bound_to 10162
  156.7411  130.5210  149.5824 H   0  0  0  0  0  0  0  0  0  0  0  0  # atno 10718 bound_to 10713
  153.3776  135.3914  155.1833 H   0  0  0  0  0  0  0  0  0  0  0  0  # atno 10763 bound_to 10752
  154.8703  135.3717  154.4898 H   0  0  0  0  0  0  0  0  0  0  0  0  # atno 10764 bound_to 10752
  153.5372  135.7085  153.5715 H   0  0  0  0  0  0  0  0  0  0  0  0  # atno 10765 bound_to 10752
  141.0874  133.6639  156.3885 H   0  0  0  0  0  0  0  0  0  0  0  0  # atno 11005 bound_to 11000
  145.8520  139.2180  143.1766 LP  0  0  0  0  0  0  0  0  0  0  0  0  # atno 17320 bound_to 7965
  146.0252  140.8311  142.9903 LP  0  0  0  0  0  0  0  0  0  0  0  0  # atno 17321 bound_to 7965
  140.3252  143.3112  152.0744 LP  0  0  0  0  0  0  0  0  0  0  0  0  # atno 17342 bound_to 10162
  139.4946  144.6547  151.6599 LP  0  0  0  0  0  0  0  0  0  0  0  0  # atno 17343 bound_to 10162
  156.1464  130.6280  151.0537 LP  0  0  0  0  0  0  0  0  0  0  0  0  # atno 17370 bound_to 10713
  157.6818  131.0836  150.7349 LP  0  0  0  0  0  0  0  0  0  0  0  0  # atno 17371 bound_to 10713
  140.5332  134.6192  157.5356 LP  0  0  0  0  0  0  0  0  0  0  0  0  # atno 17394 bound_to 11000
  139.9694  134.7318  156.0072 LP  0  0  0  0  0  0  0  0  0  0  0  0  # atno 17395 bound_to 11000

$$$$
