AV-unprocessed.smi:3101|AV-procd|sdf|11808|dock3
  -GOLD-   2272017183D 1   1.00000     0.00000
 Structure written by MMmdl.
 28 29  0  0  0  0  0  0  0  0  1 V2000
  152.0338  144.5748  158.8927 C   0  0  0  0  0  0  0  0  0  0  0  0
  152.0145  143.2466  159.6660 C   0  0  2  0  0  0  0  0  0  0  0  0
  152.7902  143.2923  160.9678 C   0  0  0  0  0  0  0  0  0  0  0  0
  153.0616  141.8160  161.2527 C   0  0  0  0  0  0  0  0  0  0  0  0
  152.9777  141.1417  159.9996 O   0  0  0  0  0  0  0  0  0  0  0  0
  152.7105  142.0759  158.9573 C   0  0  1  0  0  0  0  0  0  0  0  0
  151.9047  141.3882  157.8457 C   0  0  0  0  0  0  0  0  0  0  0  0
  150.8143  141.8408  157.4955 O   0  0  0  0  0  0  0  0  0  0  0  0
  152.4828  140.2991  157.3055 N   0  0  0  0  0  0  0  0  0  0  0  0
  151.9907  139.4693  156.2641 C   0  0  0  0  0  0  0  0  0  0  0  0
  152.4468  138.1300  156.2785 C   0  0  0  0  0  0  0  0  0  0  0  0
  152.0696  137.2208  155.3521 N   0  0  0  0  0  0  0  0  0  0  0  0
  151.2220  137.6514  154.3936 C   0  0  0  0  0  0  0  0  0  0  0  0
  150.7565  138.9813  154.3637 C   0  0  0  0  0  0  0  0  0  0  0  0
  151.1385  139.8848  155.2923 N   0  0  0  0  0  0  0  0  0  0  0  0
  153.0524  144.8794  158.6510 H   0  0  0  0  0  0  0  0  0  0  0  0
  151.5787  145.3724  159.4803 H   0  0  0  0  0  0  0  0  0  0  0  0
  151.4797  144.4991  157.9574 H   0  0  0  0  0  0  0  0  0  0  0  0
  150.9806  142.9769  159.8893 H   0  0  0  0  0  0  0  0  0  0  0  0
  153.7351  143.8194  160.8268 H   0  0  0  0  0  0  0  0  0  0  0  0
  152.2450  143.7857  161.7731 H   0  0  0  0  0  0  0  0  0  0  0  0
  154.0364  141.6640  161.7168 H   0  0  0  0  0  0  0  0  0  0  0  0
  152.3023  141.4048  161.9184 H   0  0  0  0  0  0  0  0  0  0  0  0
  153.6670  142.4064  158.5485 H   0  0  0  0  0  0  0  0  0  0  0  0
  153.3777  140.0336  157.6904 H   0  0  0  0  0  0  0  0  0  0  0  0
  153.1248  137.7804  157.0435 H   0  0  0  0  0  0  0  0  0  0  0  0
  150.9139  136.9336  153.6480 H   0  0  0  0  0  0  0  0  0  0  0  0
  150.0778  139.3203  153.5951 H   0  0  0  0  0  0  0  0  0  0  0  0
  1  2  1  0  0  0  0
  1 16  1  0  0  0  0
  1 17  1  0  0  0  0
  1 18  1  0  0  0  0
  2  6  1  0  0  0  0
  2  3  1  0  0  0  0
  2 19  1  0  0  0  0
  3  4  1  0  0  0  0
  3 20  1  0  0  0  0
  3 21  1  0  0  0  0
  4  5  1  0  0  0  0
  4 22  1  0  0  0  0
  4 23  1  0  0  0  0
  5  6  1  0  0  0  0
  6  7  1  0  0  0  0
  6 24  1  0  0  0  0
  7  8  2  0  0  0  0
  7  9  1  0  0  0  0
  9 10  1  0  0  0  0
  9 25  1  0  0  0  0
 10 15  1  0  0  0  0
 10 11  2  0  0  0  0
 11 12  1  0  0  0  0
 11 26  1  0  0  0  0
 12 13  2  0  0  0  0
 13 14  1  0  0  0  0
 13 27  1  0  0  0  0
 14 15  2  0  0  0  0
 14 28  1  0  0  0  0
M  END
> <s_m_source_file>
AV-unprocessed.smi

> <i_m_source_file_index>
3101

> <i_lp_mmshare_version>
43012

> <i_f3d_flags>
0

> <s_epik_input>
W0NIM11bQ0BASF0xW0NIMl1bQ0gyXU9bQ0BIXTFDKD1PKVtOSF1jMltjSF1uW2NIXVtjSF1uMg==

> <s_epik_cmdline>
J2VwaWtfcHl0aG9uJywgJy1waCcsICc3LjAnLCAnLXRuJywgJzgnLCAnLW1hJywgJzIwMCcsICctbWV0YWxfYmluZGluZycsICctaW1hZScsICc8aW5maWxlLm1hZT4nLCAnLW9tYWUnLCAnPG91dGZpbGUubWFlPic=

> <r_lp_tautomer_probability>
1

> <r_epik_Ionization_Penalty>
2.83174e-06

> <r_epik_Ionization_Penalty_Charging>
0

> <r_epik_Ionization_Penalty_Neutral>
2.83174e-06

> <r_epik_State_Penalty>
-0

> <r_epik_Charging_Adjusted_Penalty>
0

> <i_epik_Tot_Q>
0

> <i_epik_Tot_abs_Q>
0

> <r_epik_Metal_State_Penalty>
-0

> <b_epik_Metal_Only>
0

> <s_lp_Force_Field>
OPLS_2005

> <r_lp_Energy>
26.5454

> <b_lp_Chiralities_Consistent>
1

> <s_lp_Variant>
AV-unprocessed.smi:3101-1

> <Gold.Version>
5.8.1

> <Gold.Id.Protein>
6NUR|6NUR_protein|mol2

> <Gold.PLP.Fitness>
40.2211

> <Gold.PLP.PLP>
-31.6869

> <Gold.PLP.part.hbond>
-1.9428

> <Gold.PLP.part.metal>
0.0000

> <Gold.PLP.part.buried>
-3.9082

> <Gold.PLP.part.nonpolar>
-26.8290

> <Gold.PLP.part.repulsive>
1.4481

> <Gold.PLP.ligand.clash>
0.0000

> <Gold.PLP.ligand.torsion>
0.1892

> <Gold.PLP.Chemscore.Hbond>
0.8960

> <Gold.PLP.Chemscore.CHOScore>
2.0728

> <Gold.PLP.Chemscore.Metal>
0.0000

> <Gold.Chemscore.Hbonds>
donor molecule, donor type, donor heavy atom, donor atom, acceptor molecule, acceptor atom, score
      P1  H 10752 10765       L1    12  0.88
      L1  C    13    27       P1  7948  0.14
      L1  C    13    27       P1  7949  0.95
      L1  C    14    28       P1  7957  0.89

> <Gold.PLP.Chemscore.Internal.Correction>
0.0061

> <Gold.Rescore>
     Score         DG    S(hbond)    S(metal)    S(lipo)     H(rot)  DE(clash)    DE(int)     intcor
     13.33     -14.78       0.88        0.00      76.33       1.00       0.03       1.42       ----

> <Gold.Chemscore.Fitness>
13.3325

> <Gold.Chemscore.DG>
-14.7832

> <Gold.Chemscore.ZeroCoef>
-5.4800

> <Gold.Chemscore.Hbond>
0.8781

> <Gold.Chemscore.Metal>
0.0000

> <Gold.Chemscore.Lipo>
76.3281

> <Gold.Chemscore.Internal_Hbond>
0.0000

> <Gold.Chemscore.DEClash>
0.0348

> <Gold.Chemscore.DEInternal>
1.4159

> <Gold.Chemscore.Rot>
1.0000

> <Gold.Chemscore.Internal.Correction>
   9.000000E+99

> <Gold.Chemscore.Hbonds>
donor molecule, donor type, donor heavy atom, donor atom, acceptor molecule, acceptor atom, score
      P1  H 10752 10765       L1    12  0.46

> <Gold.Chemscore.Hbond.Weighted>
-2.9328

> <Gold.Chemscore.Metal.Weighted>
-0.0000

> <Gold.Chemscore.Lipo.Weighted>
-8.9304

> <Gold.Chemscore.Internal_Hbond.Weighted>
0.0000

> <Gold.Chemscore.DEClash.Weighted>
0.0348

> <Gold.Chemscore.DEInternal.Weighted>
1.4159

> <Gold.Chemscore.Rot.Weighted>
2.5600

> <Gold.Chemscore.Internal.Correction.Weighted>
   9.000000E+99

> <Gold.Protein.RotatedTorsions>
[ 6907 6896 6895 6894 ] final  165.52 input  -60.11 | X-H torsion
[ 7974 7965 7964 7962 ] final   80.52 input  175.53 | X-H torsion
[ 8008 7997 7996 7995 ] final  156.69 input   59.86 | X-H torsion
[ 10167 10162 10161 10158 ] final -143.90 input  -65.29 | X-H torsion
[ 10718 10713 10712 10709 ] final  -71.76 input   66.30 | X-H torsion
[ 10763 10752 10751 10750 ] final  179.16 input  -60.55 | X-H torsion
[ 11005 11000 10999 10996 ] final -174.42 input  -57.11 | X-H torsion

> <Gold.Protein.ActiveResidues>
 VAL166  LYS551  ARG553  GLY616  TRP617  ASP618  TYR619  PRO620  LYS621  CYS622 
 ASP623  PHE694  ASN695  SER759  ASP760  ASP761  ALA762  ILE779  LEU786  VAL792 
 PHE793  MET794  SER795  GLU796  ALA797  LYS798  CYS799  TRP800  GLU811  SER814 

> <Gold.Protein.RotatedAtoms>
  151.8932  133.3521  159.3805 H   0  0  0  0  0  0  0  0  0  0  0  0  # atno 6907 bound_to 6896
  150.7098  134.4903  159.5521 H   0  0  0  0  0  0  0  0  0  0  0  0  # atno 6908 bound_to 6896
  152.2477  134.8165  160.0502 H   0  0  0  0  0  0  0  0  0  0  0  0  # atno 6909 bound_to 6896
  145.6501  139.2445  143.1982 H   0  0  0  0  0  0  0  0  0  0  0  0  # atno 7974 bound_to 7965
  156.2408  140.1905  156.6994 H   0  0  0  0  0  0  0  0  0  0  0  0  # atno 8008 bound_to 7997
  154.6193  140.0611  156.9621 H   0  0  0  0  0  0  0  0  0  0  0  0  # atno 8009 bound_to 7997
  155.1888  140.3282  155.4365 H   0  0  0  0  0  0  0  0  0  0  0  0  # atno 8010 bound_to 7997
  139.7950  143.7913  152.2653 H   0  0  0  0  0  0  0  0  0  0  0  0  # atno 10167 bound_to 10162
  156.0349  130.4358  150.2492 H   0  0  0  0  0  0  0  0  0  0  0  0  # atno 10718 bound_to 10713
  154.5171  135.2792  155.1294 H   0  0  0  0  0  0  0  0  0  0  0  0  # atno 10763 bound_to 10752
  154.2866  135.6275  153.5372 H   0  0  0  0  0  0  0  0  0  0  0  0  # atno 10764 bound_to 10752
  152.9929  135.5664  154.5651 H   0  0  0  0  0  0  0  0  0  0  0  0  # atno 10765 bound_to 10752
  140.4747  134.6132  157.4896 H   0  0  0  0  0  0  0  0  0  0  0  0  # atno 11005 bound_to 11000
  146.1211  140.7308  142.9457 LP  0  0  0  0  0  0  0  0  0  0  0  0  # atno 17320 bound_to 7965
  144.7126  140.4093  143.7069 LP  0  0  0  0  0  0  0  0  0  0  0  0  # atno 17321 bound_to 7965
  139.8016  144.7372  150.9817 LP  0  0  0  0  0  0  0  0  0  0  0  0  # atno 17342 bound_to 10162
  140.7820  143.4339  151.0652 LP  0  0  0  0  0  0  0  0  0  0  0  0  # atno 17343 bound_to 10162
  157.0592  131.0085  151.3228 LP  0  0  0  0  0  0  0  0  0  0  0  0  # atno 17370 bound_to 10713
  157.5083  130.7923  149.7678 LP  0  0  0  0  0  0  0  0  0  0  0  0  # atno 17371 bound_to 10713
  139.9863  134.7056  155.9768 LP  0  0  0  0  0  0  0  0  0  0  0  0  # atno 17394 bound_to 11000
  141.1560  133.6543  156.4163 LP  0  0  0  0  0  0  0  0  0  0  0  0  # atno 17395 bound_to 11000

$$$$
