AV-unprocessed.smi:1412|AV-procd|sdf|5742|dock9
  -GOLD-   22720 5373D 1   1.00000     0.00000
 Structure written by MMmdl.
 42 43  0  0  0  0  0  0  0  0  2 V2000
  149.3169  140.3545  155.0040 C   0  0  0  0  0  0  0  0  0  0  0  0
  148.9592  138.8929  154.6801 C   0  0  0  0  0  0  0  0  0  0  0  0
  150.0851  137.8472  154.9475 C   0  0  1  0  0  0  0  0  0  0  0  0
  151.3024  138.2484  154.0725 C   0  0  0  0  0  0  0  0  0  0  0  0
  150.5109  137.8928  156.4487 C   0  0  0  0  0  0  0  0  0  0  0  0
  149.3858  137.8322  157.3823 N   0  0  0  0  0  0  0  0  0  0  0  0
  149.3208  137.0554  158.4741 C   0  0  0  0  0  0  0  0  0  0  0  0
  150.2211  136.2879  158.8141 O   0  0  0  0  0  0  0  0  0  0  0  0
  148.1556  137.2240  159.1238 N   0  0  0  0  0  0  0  0  0  0  0  0
  147.6986  136.5639  160.2951 C   0  0  0  0  0  0  0  0  0  0  0  0
  146.9531  137.1566  161.2411 N   0  0  0  0  0  0  0  0  0  0  0  0
  146.6466  136.2887  162.2812 N   0  0  0  0  0  0  0  0  0  0  0  0
  147.1728  135.0774  162.0797 C   0  0  0  0  0  0  0  0  0  0  0  0
  148.0939  134.8782  160.5989 S   0  0  0  0  0  0  0  0  0  0  0  0
  149.6000  136.4680  154.5745 N   0  3  0  0  0  0  0  0  0  0  0  0
  150.5922  135.3636  154.7057 C   0  0  0  0  0  0  0  0  0  0  0  0
  150.0307  134.0607  154.1103 C   0  0  0  0  0  0  0  0  0  0  0  0
  148.8064  133.7249  154.7478 O   0  0  0  0  0  0  0  0  0  0  0  0
  147.8210  134.7299  154.5548 C   0  0  0  0  0  0  0  0  0  0  0  0
  148.3049  136.0469  155.1818 C   0  0  0  0  0  0  0  0  0  0  0  0
  148.4663  141.0060  154.8026 H   0  0  0  0  0  0  0  0  0  0  0  0
  150.1488  140.7138  154.3984 H   0  0  0  0  0  0  0  0  0  0  0  0
  149.5813  140.4850  156.0529 H   0  0  0  0  0  0  0  0  0  0  0  0
  148.0770  138.6390  155.2684 H   0  0  0  0  0  0  0  0  0  0  0  0
  148.6208  138.8331  153.6460 H   0  0  0  0  0  0  0  0  0  0  0  0
  151.5285  139.3118  154.1581 H   0  0  0  0  0  0  0  0  0  0  0  0
  151.1288  138.0425  153.0163 H   0  0  0  0  0  0  0  0  0  0  0  0
  152.2100  137.7200  154.3655 H   0  0  0  0  0  0  0  0  0  0  0  0
  151.2150  137.0941  156.6823 H   0  0  0  0  0  0  0  0  0  0  0  0
  151.0383  138.8217  156.6639 H   0  0  0  0  0  0  0  0  0  0  0  0
  148.5988  138.4321  157.1814 H   0  0  0  0  0  0  0  0  0  0  0  0
  147.5141  137.8955  158.7287 H   0  0  0  0  0  0  0  0  0  0  0  0
  147.0177  134.2959  162.8088 H   0  0  0  0  0  0  0  0  0  0  0  0
  151.5181  135.5900  154.1803 H   0  0  0  0  0  0  0  0  0  0  0  0
  150.8455  135.2064  155.7543 H   0  0  0  0  0  0  0  0  0  0  0  0
  149.8788  134.1588  153.0340 H   0  0  0  0  0  0  0  0  0  0  0  0
  150.7390  133.2451  154.2576 H   0  0  0  0  0  0  0  0  0  0  0  0
  147.6101  134.8566  153.4917 H   0  0  0  0  0  0  0  0  0  0  0  0
  146.8932  134.4074  155.0277 H   0  0  0  0  0  0  0  0  0  0  0  0
  148.4161  135.9051  156.2568 H   0  0  0  0  0  0  0  0  0  0  0  0
  147.5299  136.7964  155.0356 H   0  0  0  0  0  0  0  0  0  0  0  0
  149.4151  136.5316  153.5834 H   0  0  0  0  0  0  0  0  0  0  0  0
  1  2  1  0  0  0  0
  1 21  1  0  0  0  0
  1 22  1  0  0  0  0
  1 23  1  0  0  0  0
  2  3  1  0  0  0  0
  2 24  1  0  0  0  0
  2 25  1  0  0  0  0
  3  4  1  0  0  0  0
  3  5  1  0  0  0  0
  3 15  1  0  0  0  0
  4 26  1  0  0  0  0
  4 27  1  0  0  0  0
  4 28  1  0  0  0  0
  5  6  1  0  0  0  0
  5 29  1  0  0  0  0
  5 30  1  0  0  0  0
  6  7  1  0  0  0  0
  6 31  1  0  0  0  0
  7  8  2  0  0  0  0
  7  9  1  0  0  0  0
  9 10  1  0  0  0  0
  9 32  1  0  0  0  0
 10 14  1  0  0  0  0
 10 11  2  0  0  0  0
 11 12  1  0  0  0  0
 12 13  2  0  0  0  0
 13 14  1  0  0  0  0
 13 33  1  0  0  0  0
 15 20  1  0  0  0  0
 15 16  1  0  0  0  0
 15 42  1  0  0  0  0
 16 17  1  0  0  0  0
 16 34  1  0  0  0  0
 16 35  1  0  0  0  0
 17 18  1  0  0  0  0
 17 36  1  0  0  0  0
 17 37  1  0  0  0  0
 18 19  1  0  0  0  0
 19 20  1  0  0  0  0
 19 38  1  0  0  0  0
 19 39  1  0  0  0  0
 20 40  1  0  0  0  0
 20 41  1  0  0  0  0
M  CHG  1  15   1
M  END
> <s_m_source_file>
AV-unprocessed.smi

> <i_m_source_file_index>
1412

> <i_lp_mmshare_version>
43012

> <i_f3d_flags>
0

> <s_epik_input>
W0NIMl0xW0NIMl1PW0NIMl1bQ0gyXU4xW0NAQF0oW0NIM10pKFtDSDJdW0NIM10pW0NIMl1bTkhdQyg9TylbTkhdYzJubltjSF1zMg==

> <s_epik_cmdline>
J2VwaWtfcHl0aG9uJywgJy1waCcsICc3LjAnLCAnLXRuJywgJzgnLCAnLW1hJywgJzIwMCcsICctbWV0YWxfYmluZGluZycsICctaW1hZScsICc8aW5maWxlLm1hZT4nLCAnLW9tYWUnLCAnPG91dGZpbGUubWFlPic=

> <r_lp_tautomer_probability>
1

> <r_epik_Ionization_Penalty>
0.554649

> <r_epik_Ionization_Penalty_Charging>
0.553838

> <r_epik_Ionization_Penalty_Neutral>
0.000811527

> <r_epik_State_Penalty>
0.564424

> <r_epik_Charging_Adjusted_Penalty>
1.11826

> <i_epik_Tot_Q>
1

> <i_epik_Tot_abs_Q>
1

> <r_epik_Metal_State_Penalty>
0.786249

> <b_epik_Metal_Only>
0

> <s_lp_Force_Field>
OPLS_2005

> <r_lp_Energy>
27.1522

> <b_lp_Chiralities_Consistent>
1

> <s_lp_Variant>
AV-unprocessed.smi:1412-3

> <Gold.Version>
5.8.1

> <Gold.Id.Protein>
6NUR|6NUR_protein|mol2

> <Gold.PLP.Fitness>
40.3254

> <Gold.PLP.PLP>
-27.7259

> <Gold.PLP.part.hbond>
-3.7475

> <Gold.PLP.part.metal>
0.0000

> <Gold.PLP.part.buried>
-3.6667

> <Gold.PLP.part.nonpolar>
-20.0618

> <Gold.PLP.part.repulsive>
0.3232

> <Gold.PLP.ligand.clash>
0.0000

> <Gold.PLP.ligand.torsion>
0.4980

> <Gold.PLP.Chemscore.Hbond>
4.4873

> <Gold.PLP.Chemscore.CHOScore>
0.0000

> <Gold.PLP.Chemscore.Metal>
0.0000

> <Gold.Chemscore.Hbonds>
donor molecule, donor type, donor heavy atom, donor atom, acceptor molecule, acceptor atom, score
      L1  H    15    42       P1  7948  2.00
      P1  H  6896  6909       L1     8  1.00
      P1  H  6934  6947       L1    11  1.00

> <Gold.PLP.Chemscore.Internal.Correction>
0.1337

> <Gold.Rescore>
     Score         DG    S(hbond)    S(metal)    S(lipo)     H(rot)  DE(clash)    DE(int)     intcor
     15.41     -16.86       2.74        0.00      60.90       1.91       0.16       1.30       ----

> <Gold.Chemscore.Fitness>
15.4093

> <Gold.Chemscore.DG>
-16.8604

> <Gold.Chemscore.ZeroCoef>
-5.4800

> <Gold.Chemscore.Hbond>
2.7409

> <Gold.Chemscore.Metal>
0.0000

> <Gold.Chemscore.Lipo>
60.9031

> <Gold.Chemscore.Internal_Hbond>
0.0000

> <Gold.Chemscore.DEClash>
0.1553

> <Gold.Chemscore.DEInternal>
1.2958

> <Gold.Chemscore.Rot>
1.9140

> <Gold.Chemscore.Internal.Correction>
   9.000000E+99

> <Gold.Chemscore.Hbonds>
donor molecule, donor type, donor heavy atom, donor atom, acceptor molecule, acceptor atom, score
      L1  H    15    42       P1  7948  0.85
      P1  H  6896  6909       L1     8  0.94
      P1  H  6934  6947       L1    11  0.50

> <Gold.Chemscore.Hbond.Weighted>
-9.1545

> <Gold.Chemscore.Metal.Weighted>
-0.0000

> <Gold.Chemscore.Lipo.Weighted>
-7.1257

> <Gold.Chemscore.Internal_Hbond.Weighted>
0.0000

> <Gold.Chemscore.DEClash.Weighted>
0.1553

> <Gold.Chemscore.DEInternal.Weighted>
1.2958

> <Gold.Chemscore.Rot.Weighted>
4.8998

> <Gold.Chemscore.Internal.Correction.Weighted>
   9.000000E+99

> <Gold.Protein.RotatedTorsions>
[ 6907 6896 6895 6894 ] final   61.64 input  -60.11 | X-H torsion
[ 7974 7965 7964 7962 ] final  -54.10 input  175.53 | X-H torsion
[ 8008 7997 7996 7995 ] final   82.58 input   59.86 | X-H torsion
[ 10167 10162 10161 10158 ] final  -17.68 input  -65.29 | X-H torsion
[ 10718 10713 10712 10709 ] final   67.27 input   66.30 | X-H torsion
[ 10763 10752 10751 10750 ] final  166.45 input  -60.55 | X-H torsion
[ 11005 11000 10999 10996 ] final   67.26 input  -57.11 | X-H torsion

> <Gold.Protein.ActiveResidues>
 VAL166  LYS551  ARG553  GLY616  TRP617  ASP618  TYR619  PRO620  LYS621  CYS622 
 ASP623  PHE694  ASN695  SER759  ASP760  ASP761  ALA762  ILE779  LEU786  VAL792 
 PHE793  MET794  SER795  GLU796  ALA797  LYS798  CYS799  TRP800  GLU811  SER814 

> <Gold.Protein.RotatedAtoms>
  152.4106  134.6131  160.0030 H   0  0  0  0  0  0  0  0  0  0  0  0  # atno 6907 bound_to 6896
  151.6309  133.3326  159.3116 H   0  0  0  0  0  0  0  0  0  0  0  0  # atno 6908 bound_to 6896
  150.7997  134.7123  159.6655 H   0  0  0  0  0  0  0  0  0  0  0  0  # atno 6909 bound_to 6896
  145.8894  140.8083  142.9799 H   0  0  0  0  0  0  0  0  0  0  0  0  # atno 7974 bound_to 7965
  155.9126  140.3426  155.6110 H   0  0  0  0  0  0  0  0  0  0  0  0  # atno 8008 bound_to 7997
  155.7370  140.0802  157.2282 H   0  0  0  0  0  0  0  0  0  0  0  0  # atno 8009 bound_to 7997
  154.4058  140.1578  156.2560 H   0  0  0  0  0  0  0  0  0  0  0  0  # atno 8010 bound_to 7997
  140.7250  143.4991  150.9892 H   0  0  0  0  0  0  0  0  0  0  0  0  # atno 10167 bound_to 10162
  157.6220  130.9312  150.0220 H   0  0  0  0  0  0  0  0  0  0  0  0  # atno 10718 bound_to 10713
  154.3391  135.2754  155.2432 H   0  0  0  0  0  0  0  0  0  0  0  0  # atno 10763 bound_to 10752
  154.4710  135.5883  153.6325 H   0  0  0  0  0  0  0  0  0  0  0  0  # atno 10764 bound_to 10752
  152.9859  135.6088  154.3590 H   0  0  0  0  0  0  0  0  0  0  0  0  # atno 10765 bound_to 10752
  139.9781  134.6788  156.0314 H   0  0  0  0  0  0  0  0  0  0  0  0  # atno 11005 bound_to 11000
  144.6730  140.1506  143.7430 LP  0  0  0  0  0  0  0  0  0  0  0  0  # atno 17320 bound_to 7965
  145.8927  139.2385  143.1540 LP  0  0  0  0  0  0  0  0  0  0  0  0  # atno 17321 bound_to 7965
  139.8700  143.7205  152.3167 LP  0  0  0  0  0  0  0  0  0  0  0  0  # atno 17342 bound_to 10162
  139.7450  144.7549  151.0594 LP  0  0  0  0  0  0  0  0  0  0  0  0  # atno 17343 bound_to 10162
  156.1371  130.3642  149.9640 LP  0  0  0  0  0  0  0  0  0  0  0  0  # atno 17370 bound_to 10713
  156.7689  130.9179  151.3644 LP  0  0  0  0  0  0  0  0  0  0  0  0  # atno 17371 bound_to 10713
  141.1456  133.6556  156.3859 LP  0  0  0  0  0  0  0  0  0  0  0  0  # atno 17394 bound_to 11000
  140.5152  134.6357  157.5298 LP  0  0  0  0  0  0  0  0  0  0  0  0  # atno 17395 bound_to 11000

$$$$
