AV-unprocessed.smi:3013|AV-procd|sdf|11464|dock4
  -GOLD-   2272016403D 1   1.00000     0.00000
 Structure written by MMmdl.
 45 46  0  0  0  0  0  0  0  0  2 V2000
  145.3628  134.1401  155.3327 C   0  0  0  0  0  0  0  0  0  0  0  0
  146.0475  133.0238  154.5152 C   0  0  2  0  0  0  0  0  0  0  0  0
  147.4897  133.3881  154.0998 C   0  0  0  0  0  0  0  0  0  0  0  0
  148.2121  134.3090  155.1021 C   0  0  0  0  0  0  0  0  0  0  0  0
  148.7372  135.5064  154.4550 N   0  0  0  0  0  0  0  0  0  0  0  0
  148.9557  136.6773  155.0714 C   0  0  0  0  0  0  0  0  0  0  0  0
  148.7509  136.8583  156.2722 O   0  0  0  0  0  0  0  0  0  0  0  0
  149.4173  137.6047  154.2152 N   0  0  0  0  0  0  0  0  0  0  0  0
  149.7685  138.9520  154.4999 C   0  0  0  0  0  0  0  0  0  0  0  0
  148.9383  139.9902  154.5172 N   0  0  0  0  0  0  0  0  0  0  0  0
  149.8192  140.9812  154.8459 C   0  0  0  0  0  0  0  0  0  0  0  0
  151.0856  140.6032  155.0207 N   0  0  0  0  0  0  0  0  0  0  0  0
  151.0336  139.2702  154.7897 N   0  0  0  0  0  0  0  0  0  0  0  0
  152.2268  138.4509  154.8785 C   0  0  0  0  0  0  0  0  0  0  0  0
  145.2488  132.5992  153.3276 N   0  3  0  0  0  0  0  0  0  0  0  0
  145.8121  131.4552  152.5581 C   0  0  0  0  0  0  0  0  0  0  0  0
  144.8045  130.9508  151.5118 C   0  0  0  0  0  0  0  0  0  0  0  0
  144.3784  132.0849  150.5697 C   0  0  0  0  0  0  0  0  0  0  0  0
  143.8379  133.2682  151.3835 C   0  0  0  0  0  0  0  0  0  0  0  0
  144.8599  133.7266  152.4379 C   0  0  0  0  0  0  0  0  0  0  0  0
  145.8870  134.3184  156.2712 H   0  0  0  0  0  0  0  0  0  0  0  0
  144.3370  133.8794  155.5925 H   0  0  0  0  0  0  0  0  0  0  0  0
  145.3410  135.0856  154.7905 H   0  0  0  0  0  0  0  0  0  0  0  0
  146.1289  132.1486  155.1615 H   0  0  0  0  0  0  0  0  0  0  0  0
  148.0636  132.4660  153.9973 H   0  0  0  0  0  0  0  0  0  0  0  0
  147.4939  133.8577  153.1157 H   0  0  0  0  0  0  0  0  0  0  0  0
  147.5262  134.6322  155.8846 H   0  0  0  0  0  0  0  0  0  0  0  0
  149.0224  133.7740  155.6004 H   0  0  0  0  0  0  0  0  0  0  0  0
  148.9318  135.4427  153.4663 H   0  0  0  0  0  0  0  0  0  0  0  0
  149.5260  137.3204  153.2528 H   0  0  0  0  0  0  0  0  0  0  0  0
  149.5177  142.0118  154.9611 H   0  0  0  0  0  0  0  0  0  0  0  0
  152.3476  137.8765  153.9597 H   0  0  0  0  0  0  0  0  0  0  0  0
  152.1369  137.7641  155.7202 H   0  0  0  0  0  0  0  0  0  0  0  0
  153.1101  139.0744  155.0226 H   0  0  0  0  0  0  0  0  0  0  0  0
  146.7335  131.7578  152.0587 H   0  0  0  0  0  0  0  0  0  0  0  0
  146.0678  130.6346  153.2275 H   0  0  0  0  0  0  0  0  0  0  0  0
  145.2416  130.1340  150.9368 H   0  0  0  0  0  0  0  0  0  0  0  0
  143.9274  130.5410  152.0146 H   0  0  0  0  0  0  0  0  0  0  0  0
  145.2314  132.4077  149.9713 H   0  0  0  0  0  0  0  0  0  0  0  0
  143.6213  131.7303  149.8697 H   0  0  0  0  0  0  0  0  0  0  0  0
  143.5910  134.0960  150.7180 H   0  0  0  0  0  0  0  0  0  0  0  0
  142.9081  132.9796  151.8758 H   0  0  0  0  0  0  0  0  0  0  0  0
  144.4230  134.5334  153.0273 H   0  0  0  0  0  0  0  0  0  0  0  0
  145.7431  134.1349  151.9456 H   0  0  0  0  0  0  0  0  0  0  0  0
  144.3771  132.2639  153.7124 H   0  0  0  0  0  0  0  0  0  0  0  0
  1  2  1  0  0  0  0
  1 21  1  0  0  0  0
  1 22  1  0  0  0  0
  1 23  1  0  0  0  0
  2  3  1  0  0  0  0
  2 15  1  0  0  0  0
  2 24  1  0  0  0  0
  3  4  1  0  0  0  0
  3 25  1  0  0  0  0
  3 26  1  0  0  0  0
  4  5  1  0  0  0  0
  4 27  1  0  0  0  0
  4 28  1  0  0  0  0
  5  6  1  0  0  0  0
  5 29  1  0  0  0  0
  6  7  2  0  0  0  0
  6  8  1  0  0  0  0
  8  9  1  0  0  0  0
  8 30  1  0  0  0  0
  9 13  1  0  0  0  0
  9 10  2  0  0  0  0
 10 11  1  0  0  0  0
 11 12  2  0  0  0  0
 11 31  1  0  0  0  0
 12 13  1  0  0  0  0
 13 14  1  0  0  0  0
 14 32  1  0  0  0  0
 14 33  1  0  0  0  0
 14 34  1  0  0  0  0
 15 20  1  0  0  0  0
 15 16  1  0  0  0  0
 15 45  1  0  0  0  0
 16 17  1  0  0  0  0
 16 35  1  0  0  0  0
 16 36  1  0  0  0  0
 17 18  1  0  0  0  0
 17 37  1  0  0  0  0
 17 38  1  0  0  0  0
 18 19  1  0  0  0  0
 18 39  1  0  0  0  0
 18 40  1  0  0  0  0
 19 20  1  0  0  0  0
 19 41  1  0  0  0  0
 19 42  1  0  0  0  0
 20 43  1  0  0  0  0
 20 44  1  0  0  0  0
M  CHG  1  15   1
M  END
> <s_m_source_file>
AV-unprocessed.smi

> <i_m_source_file_index>
3013

> <i_lp_mmshare_version>
43012

> <i_f3d_flags>
0

> <s_epik_input>
W0NIMl0xW0NIMl1bQ0gyXVtDSDJdW0NIMl1OMVtDQEhdKFtDSDNdKVtDSDJdW0NIMl1bTkhdQyg9TylbTkhdYzJuW2NIXW5uMltDSDNd

> <s_epik_cmdline>
J2VwaWtfcHl0aG9uJywgJy1waCcsICc3LjAnLCAnLXRuJywgJzgnLCAnLW1hJywgJzIwMCcsICctbWV0YWxfYmluZGluZycsICctaW1hZScsICc8aW5maWxlLm1hZT4nLCAnLW9tYWUnLCAnPG91dGZpbGUubWFlPic=

> <r_lp_tautomer_probability>
1

> <r_epik_Ionization_Penalty>
0.000375855

> <r_epik_Ionization_Penalty_Charging>
0.000355659

> <r_epik_Ionization_Penalty_Neutral>
2.01955e-05

> <r_epik_State_Penalty>
0.000216264

> <r_epik_Charging_Adjusted_Penalty>
0.000571923

> <i_epik_Tot_Q>
1

> <i_epik_Tot_abs_Q>
1

> <r_epik_Metal_State_Penalty>
-0

> <b_epik_Metal_Only>
0

> <s_lp_Force_Field>
OPLS_2005

> <r_lp_Energy>
21.7492

> <b_lp_Chiralities_Consistent>
1

> <s_lp_Variant>
AV-unprocessed.smi:3013-1

> <Gold.Version>
5.8.1

> <Gold.Id.Protein>
6NUR|6NUR_protein|mol2

> <Gold.PLP.Fitness>
41.0957

> <Gold.PLP.PLP>
-29.6699

> <Gold.PLP.part.hbond>
-3.9649

> <Gold.PLP.part.metal>
0.0000

> <Gold.PLP.part.buried>
-3.6249

> <Gold.PLP.part.nonpolar>
-23.0055

> <Gold.PLP.part.repulsive>
0.1825

> <Gold.PLP.ligand.clash>
0.0000

> <Gold.PLP.ligand.torsion>
1.6443

> <Gold.PLP.Chemscore.Hbond>
4.2012

> <Gold.PLP.Chemscore.CHOScore>
0.6490

> <Gold.PLP.Chemscore.Metal>
0.0000

> <Gold.Chemscore.Hbonds>
donor molecule, donor type, donor heavy atom, donor atom, acceptor molecule, acceptor atom, score
      L1  H     5    29       P1  7948  1.00
      L1  H     8    30       P1  7948  0.99
      L1  H    15    45       P1 10957  1.57
      P1  H  7989  7998       L1    12  0.54
      L1  C    11    31       P1  8028  0.18

> <Gold.PLP.Chemscore.Internal.Correction>
0.1637

> <Gold.Rescore>
     Score         DG    S(hbond)    S(metal)    S(lipo)     H(rot)  DE(clash)    DE(int)     intcor
     13.50     -15.07       2.71        0.00      48.53       2.01       0.00       1.56       ----

> <Gold.Chemscore.Fitness>
13.5011

> <Gold.Chemscore.DG>
-15.0685

> <Gold.Chemscore.ZeroCoef>
-5.4800

> <Gold.Chemscore.Hbond>
2.7150

> <Gold.Chemscore.Metal>
0.0000

> <Gold.Chemscore.Lipo>
48.5326

> <Gold.Chemscore.Internal_Hbond>
0.0000

> <Gold.Chemscore.DEClash>
0.0030

> <Gold.Chemscore.DEInternal>
1.5643

> <Gold.Chemscore.Rot>
2.0148

> <Gold.Chemscore.Internal.Correction>
   9.000000E+99

> <Gold.Chemscore.Hbonds>
donor molecule, donor type, donor heavy atom, donor atom, acceptor molecule, acceptor atom, score
      L1  H     5    29       P1  7948  0.70
      L1  H     8    30       P1  7948  0.80
      L1  H    15    45       P1 10957  0.13
      P1  H  7989  7998       L1    12  0.01

> <Gold.Chemscore.Hbond.Weighted>
-9.0680

> <Gold.Chemscore.Metal.Weighted>
-0.0000

> <Gold.Chemscore.Lipo.Weighted>
-5.6783

> <Gold.Chemscore.Internal_Hbond.Weighted>
0.0000

> <Gold.Chemscore.DEClash.Weighted>
0.0030

> <Gold.Chemscore.DEInternal.Weighted>
1.5643

> <Gold.Chemscore.Rot.Weighted>
5.1579

> <Gold.Chemscore.Internal.Correction.Weighted>
   9.000000E+99

> <Gold.Protein.RotatedTorsions>
[ 6907 6896 6895 6894 ] final -130.48 input  -60.11 | X-H torsion
[ 7974 7965 7964 7962 ] final   67.55 input  175.53 | X-H torsion
[ 8008 7997 7996 7995 ] final -114.61 input   59.86 | X-H torsion
[ 10167 10162 10161 10158 ] final -167.08 input  -65.29 | X-H torsion
[ 10718 10713 10712 10709 ] final -117.90 input   66.30 | X-H torsion
[ 10763 10752 10751 10750 ] final  -94.85 input  -60.55 | X-H torsion
[ 11005 11000 10999 10996 ] final    9.52 input  -57.11 | X-H torsion

> <Gold.Protein.ActiveResidues>
 VAL166  LYS551  ARG553  GLY616  TRP617  ASP618  TYR619  PRO620  LYS621  CYS622 
 ASP623  PHE694  ASN695  SER759  ASP760  ASP761  ALA762  ILE779  LEU786  VAL792 
 PHE793  MET794  SER795  GLU796  ALA797  LYS798  CYS799  TRP800  GLU811  SER814 

> <Gold.Protein.RotatedAtoms>
  150.9402  133.6665  159.2792 H   0  0  0  0  0  0  0  0  0  0  0  0  # atno 6907 bound_to 6896
  151.4057  135.0976  159.9579 H   0  0  0  0  0  0  0  0  0  0  0  0  # atno 6908 bound_to 6896
  152.5066  133.8886  159.7437 H   0  0  0  0  0  0  0  0  0  0  0  0  # atno 6909 bound_to 6896
  145.8133  139.3044  143.1086 H   0  0  0  0  0  0  0  0  0  0  0  0  # atno 7974 bound_to 7965
  155.0391  140.0392  157.2502 H   0  0  0  0  0  0  0  0  0  0  0  0  # atno 8008 bound_to 7997
  154.7232  140.2716  155.6499 H   0  0  0  0  0  0  0  0  0  0  0  0  # atno 8009 bound_to 7997
  156.2822  140.2699  156.1910 H   0  0  0  0  0  0  0  0  0  0  0  0  # atno 8010 bound_to 7997
  139.6073  144.0887  152.1806 H   0  0  0  0  0  0  0  0  0  0  0  0  # atno 10167 bound_to 10162
  156.1067  130.6216  150.9222 H   0  0  0  0  0  0  0  0  0  0  0  0  # atno 10718 bound_to 10713
  154.7093  135.5142  153.8643 H   0  0  0  0  0  0  0  0  0  0  0  0  # atno 10763 bound_to 10752
  153.0767  135.6619  154.0139 H   0  0  0  0  0  0  0  0  0  0  0  0  # atno 10764 bound_to 10752
  153.9984  135.3013  155.3384 H   0  0  0  0  0  0  0  0  0  0  0  0  # atno 10765 bound_to 10752
  140.5249  134.0523  155.7855 H   0  0  0  0  0  0  0  0  0  0  0  0  # atno 11005 bound_to 11000
  145.9754  140.8726  143.0141 LP  0  0  0  0  0  0  0  0  0  0  0  0  # atno 17320 bound_to 7965
  144.6755  140.2004  143.7387 LP  0  0  0  0  0  0  0  0  0  0  0  0  # atno 17321 bound_to 7965
  140.0497  144.5942  150.7346 LP  0  0  0  0  0  0  0  0  0  0  0  0  # atno 17342 bound_to 10162
  140.7294  143.2672  151.4006 LP  0  0  0  0  0  0  0  0  0  0  0  0  # atno 17343 bound_to 10162
  157.6244  131.0927  150.8561 LP  0  0  0  0  0  0  0  0  0  0  0  0  # atno 17370 bound_to 10713
  156.8679  130.5136  149.5299 LP  0  0  0  0  0  0  0  0  0  0  0  0  # atno 17371 bound_to 10713
  141.1314  133.9296  157.2528 LP  0  0  0  0  0  0  0  0  0  0  0  0  # atno 17394 bound_to 11000
  139.9586  135.0160  156.9197 LP  0  0  0  0  0  0  0  0  0  0  0  0  # atno 17395 bound_to 11000

$$$$
