AV-unprocessed.smi:2355|AV-procd|sdf|9388|dock8
  -GOLD-   2272013 23D 1   1.00000     0.00000
 Structure written by MMmdl.
 48 49  0  0  0  0  0  0  0  0  1 V2000
  144.1069  133.3721  149.4405 C   0  0  0  0  0  0  0  0  0  0  0  0
  144.9984  132.7353  150.4857 C   0  0  0  0  0  0  0  0  0  0  0  0
  144.9300  131.3541  150.7511 C   0  0  0  0  0  0  0  0  0  0  0  0
  145.7867  130.8235  151.7353 C   0  0  0  0  0  0  0  0  0  0  0  0
  145.7693  129.3467  152.0696 C   0  0  0  0  0  0  0  0  0  0  0  0
  146.6650  131.5764  152.4316 N   0  0  0  0  0  0  0  0  0  0  0  0
  146.7388  132.9081  152.1853 C   0  0  0  0  0  0  0  0  0  0  0  0
  147.6234  133.7873  152.8645 N   0  0  0  0  0  0  0  0  0  0  0  0
  148.0604  133.7096  154.1338 C   0  0  0  0  0  0  0  0  0  0  0  0
  147.7720  132.8177  154.9325 O   0  0  0  0  0  0  0  0  0  0  0  0
  148.8621  134.7425  154.4316 N   0  0  0  0  0  0  0  0  0  0  0  0
  149.4830  134.9976  155.7315 C   0  0  1  0  0  0  0  0  0  0  0  0
  150.9698  134.6016  155.6833 C   0  0  0  0  0  0  0  0  0  0  0  0
  149.2150  136.4655  156.1913 C   0  0  1  0  0  0  0  0  0  0  0  0
  149.6873  136.6530  157.6567 C   0  0  0  0  0  0  0  0  0  0  0  0
  149.7780  137.4908  155.2761 N   0  0  0  0  0  0  0  0  0  0  0  0
  149.2111  138.8286  155.4885 C   0  0  0  0  0  0  0  0  0  0  0  0
  149.8159  139.8895  154.5532 C   0  0  0  0  0  0  0  0  0  0  0  0
  151.2261  139.9270  154.7197 O   0  0  0  0  0  0  0  0  0  0  0  0
  151.8274  138.6697  154.4445 C   0  0  0  0  0  0  0  0  0  0  0  0
  151.2383  137.5970  155.3768 C   0  0  0  0  0  0  0  0  0  0  0  0
  145.9158  133.5198  151.2134 C   0  0  0  0  0  0  0  0  0  0  0  0
  143.4376  132.6393  148.9888 H   0  0  0  0  0  0  0  0  0  0  0  0
  144.7113  133.8160  148.6493 H   0  0  0  0  0  0  0  0  0  0  0  0
  143.4987  134.1571  149.8905 H   0  0  0  0  0  0  0  0  0  0  0  0
  144.2402  130.7187  150.2150 H   0  0  0  0  0  0  0  0  0  0  0  0
  144.9604  128.8329  151.5493 H   0  0  0  0  0  0  0  0  0  0  0  0
  145.6310  129.2001  153.1413 H   0  0  0  0  0  0  0  0  0  0  0  0
  146.7117  128.8829  151.7775 H   0  0  0  0  0  0  0  0  0  0  0  0
  147.9505  134.5752  152.3254 H   0  0  0  0  0  0  0  0  0  0  0  0
  149.0381  135.4261  153.7102 H   0  0  0  0  0  0  0  0  0  0  0  0
  149.0656  134.3264  156.4805 H   0  0  0  0  0  0  0  0  0  0  0  0
  151.4788  134.8684  156.6098 H   0  0  0  0  0  0  0  0  0  0  0  0
  151.5005  135.0725  154.8564 H   0  0  0  0  0  0  0  0  0  0  0  0
  151.0744  133.5239  155.5528 H   0  0  0  0  0  0  0  0  0  0  0  0
  148.1312  136.5917  156.1970 H   0  0  0  0  0  0  0  0  0  0  0  0
  149.2999  135.8817  158.3193 H   0  0  0  0  0  0  0  0  0  0  0  0
  149.3338  137.5887  158.0869 H   0  0  0  0  0  0  0  0  0  0  0  0
  150.7750  136.6394  157.7330 H   0  0  0  0  0  0  0  0  0  0  0  0
  148.1392  138.8282  155.3022 H   0  0  0  0  0  0  0  0  0  0  0  0
  149.3556  139.1326  156.5262 H   0  0  0  0  0  0  0  0  0  0  0  0
  149.5690  139.6723  153.5127 H   0  0  0  0  0  0  0  0  0  0  0  0
  149.4043  140.8729  154.7804 H   0  0  0  0  0  0  0  0  0  0  0  0
  151.6695  138.4023  153.3984 H   0  0  0  0  0  0  0  0  0  0  0  0
  152.9041  138.7514  154.5945 H   0  0  0  0  0  0  0  0  0  0  0  0
  151.5226  137.8174  156.4069 H   0  0  0  0  0  0  0  0  0  0  0  0
  151.7119  136.6536  155.1123 H   0  0  0  0  0  0  0  0  0  0  0  0
  145.9843  134.5819  151.0262 H   0  0  0  0  0  0  0  0  0  0  0  0
  1  2  1  0  0  0  0
  1 23  1  0  0  0  0
  1 24  1  0  0  0  0
  1 25  1  0  0  0  0
  2 22  1  0  0  0  0
  2  3  2  0  0  0  0
  3  4  1  0  0  0  0
  3 26  1  0  0  0  0
  4  5  1  0  0  0  0
  4  6  2  0  0  0  0
  5 27  1  0  0  0  0
  5 28  1  0  0  0  0
  5 29  1  0  0  0  0
  6  7  1  0  0  0  0
  7  8  1  0  0  0  0
  7 22  2  0  0  0  0
  8  9  1  0  0  0  0
  8 30  1  0  0  0  0
  9 10  2  0  0  0  0
  9 11  1  0  0  0  0
 11 12  1  0  0  0  0
 11 31  1  0  0  0  0
 12 13  1  0  0  0  0
 12 14  1  0  0  0  0
 12 32  1  0  0  0  0
 13 33  1  0  0  0  0
 13 34  1  0  0  0  0
 13 35  1  0  0  0  0
 14 15  1  0  0  0  0
 14 16  1  0  0  0  0
 14 36  1  0  0  0  0
 15 37  1  0  0  0  0
 15 38  1  0  0  0  0
 15 39  1  0  0  0  0
 16 21  1  0  0  0  0
 16 17  1  0  0  0  0
 17 18  1  0  0  0  0
 17 40  1  0  0  0  0
 17 41  1  0  0  0  0
 18 19  1  0  0  0  0
 18 42  1  0  0  0  0
 18 43  1  0  0  0  0
 19 20  1  0  0  0  0
 20 21  1  0  0  0  0
 20 44  1  0  0  0  0
 20 45  1  0  0  0  0
 21 46  1  0  0  0  0
 21 47  1  0  0  0  0
 22 48  1  0  0  0  0
M  END
> <s_m_source_file>
AV-unprocessed.smi

> <i_m_source_file_index>
2355

> <i_lp_mmshare_version>
43012

> <i_f3d_flags>
0

> <s_epik_input>
W0NIM11jMVtjSF1jKFtDSDNdKW5jKFtjSF0xKVtOSF1DKD1PKVtOSF1bQ0BIXShbQ0gzXSlbQ0BIXShbQ0gzXSlOMltDSDJdW0NIMl1PW0NIMl1bQ0gyXTI=

> <s_epik_cmdline>
J2VwaWtfcHl0aG9uJywgJy1waCcsICc3LjAnLCAnLXRuJywgJzgnLCAnLW1hJywgJzIwMCcsICctbWV0YWxfYmluZGluZycsICctaW1hZScsICc8aW5maWxlLm1hZT4nLCAnLW9tYWUnLCAnPG91dGZpbGUubWFlPic=

> <r_epik_Ionization_Penalty>
0.266238

> <r_epik_Ionization_Penalty_Charging>
0

> <r_epik_Ionization_Penalty_Neutral>
0.266238

> <r_epik_State_Penalty>
0.257924

> <r_epik_Charging_Adjusted_Penalty>
0.257924

> <i_epik_Tot_Q>
0

> <i_epik_Tot_abs_Q>
0

> <r_epik_Metal_State_Penalty>
0.257904

> <b_epik_Metal_Only>
0

> <s_lp_Force_Field>
OPLS_2005

> <r_lp_Energy>
36.8304

> <b_lp_Chiralities_Consistent>
1

> <s_lp_Variant>
AV-unprocessed.smi:2355-4

> <Gold.Version>
5.8.1

> <Gold.Id.Protein>
6NUR|6NUR_protein|mol2

> <Gold.PLP.Fitness>
42.9162

> <Gold.PLP.PLP>
-34.9165

> <Gold.PLP.part.hbond>
-3.0000

> <Gold.PLP.part.metal>
0.0000

> <Gold.PLP.part.buried>
-5.1025

> <Gold.PLP.part.nonpolar>
-25.7535

> <Gold.PLP.part.repulsive>
0.3337

> <Gold.PLP.ligand.clash>
0.0000

> <Gold.PLP.ligand.torsion>
0.5464

> <Gold.PLP.Chemscore.Hbond>
3.0000

> <Gold.PLP.Chemscore.CHOScore>
0.0000

> <Gold.PLP.Chemscore.Metal>
0.0000

> <Gold.Chemscore.Hbonds>
donor molecule, donor type, donor heavy atom, donor atom, acceptor molecule, acceptor atom, score
      L1  H     8    30       P1  7948  1.00
      L1  H    11    31       P1  7948  1.00
      P1  H  7989  7998       L1    19  1.00

> <Gold.PLP.Chemscore.Internal.Correction>
0.0926

> <Gold.Rescore>
     Score         DG    S(hbond)    S(metal)    S(lipo)     H(rot)  DE(clash)    DE(int)     intcor
     15.65     -17.55       1.46        0.00      92.10       1.40       0.21       1.69       ----

> <Gold.Chemscore.Fitness>
15.6499

> <Gold.Chemscore.DG>
-17.5462

> <Gold.Chemscore.ZeroCoef>
-5.4800

> <Gold.Chemscore.Hbond>
1.4604

> <Gold.Chemscore.Metal>
0.0000

> <Gold.Chemscore.Lipo>
92.1043

> <Gold.Chemscore.Internal_Hbond>
0.0000

> <Gold.Chemscore.DEClash>
0.2075

> <Gold.Chemscore.DEInternal>
1.6888

> <Gold.Chemscore.Rot>
1.4015

> <Gold.Chemscore.Internal.Correction>
   9.000000E+99

> <Gold.Chemscore.Hbonds>
donor molecule, donor type, donor heavy atom, donor atom, acceptor molecule, acceptor atom, score
      L1  H     8    30       P1  7948  0.44
      L1  H    11    31       P1  7948  0.67
      P1  H  7989  7998       L1    19  0.15

> <Gold.Chemscore.Hbond.Weighted>
-4.8778

> <Gold.Chemscore.Metal.Weighted>
-0.0000

> <Gold.Chemscore.Lipo.Weighted>
-10.7762

> <Gold.Chemscore.Internal_Hbond.Weighted>
0.0000

> <Gold.Chemscore.DEClash.Weighted>
0.2075

> <Gold.Chemscore.DEInternal.Weighted>
1.6888

> <Gold.Chemscore.Rot.Weighted>
3.5878

> <Gold.Chemscore.Internal.Correction.Weighted>
   9.000000E+99

> <Gold.Protein.RotatedTorsions>
[ 6907 6896 6895 6894 ] final  -55.27 input  -60.11 | X-H torsion
[ 7974 7965 7964 7962 ] final -177.79 input  175.53 | X-H torsion
[ 8008 7997 7996 7995 ] final   48.22 input   59.86 | X-H torsion
[ 10167 10162 10161 10158 ] final -125.17 input  -65.29 | X-H torsion
[ 10718 10713 10712 10709 ] final  -95.24 input   66.30 | X-H torsion
[ 10763 10752 10751 10750 ] final  101.29 input  -60.55 | X-H torsion
[ 11005 11000 10999 10996 ] final   24.16 input  -57.11 | X-H torsion

> <Gold.Protein.ActiveResidues>
 VAL166  LYS551  ARG553  GLY616  TRP617  ASP618  TYR619  PRO620  LYS621  CYS622 
 ASP623  PHE694  ASN695  SER759  ASP760  ASP761  ALA762  ILE779  LEU786  VAL792 
 PHE793  MET794  SER795  GLU796  ALA797  LYS798  CYS799  TRP800  GLU811  SER814 

> <Gold.Protein.RotatedAtoms>
  150.8266  134.7500  159.6817 H   0  0  0  0  0  0  0  0  0  0  0  0  # atno 6907 bound_to 6896
  152.4376  134.5652  159.9915 H   0  0  0  0  0  0  0  0  0  0  0  0  # atno 6908 bound_to 6896
  151.5822  133.3339  159.3047 H   0  0  0  0  0  0  0  0  0  0  0  0  # atno 6909 bound_to 6896
  144.7128  140.0966  143.6418 H   0  0  0  0  0  0  0  0  0  0  0  0  # atno 7974 bound_to 7965
  155.3821  140.3429  155.4247 H   0  0  0  0  0  0  0  0  0  0  0  0  # atno 8008 bound_to 7997
  156.1605  140.1599  156.8654 H   0  0  0  0  0  0  0  0  0  0  0  0  # atno 8009 bound_to 7997
  154.5135  140.0784  156.8017 H   0  0  0  0  0  0  0  0  0  0  0  0  # atno 8010 bound_to 7997
  139.9849  143.5702  152.2364 H   0  0  0  0  0  0  0  0  0  0  0  0  # atno 10167 bound_to 10162
  156.0040  130.5101  150.6047 H   0  0  0  0  0  0  0  0  0  0  0  0  # atno 10718 bound_to 10713
  153.3248  135.4049  155.1447 H   0  0  0  0  0  0  0  0  0  0  0  0  # atno 10763 bound_to 10752
  154.8609  135.3596  154.5548 H   0  0  0  0  0  0  0  0  0  0  0  0  # atno 10764 bound_to 10752
  153.5983  135.7072  153.5454 H   0  0  0  0  0  0  0  0  0  0  0  0  # atno 10765 bound_to 10752
  140.3618  134.2117  155.7672 H   0  0  0  0  0  0  0  0  0  0  0  0  # atno 11005 bound_to 11000
  145.9574  139.2776  143.1176 LP  0  0  0  0  0  0  0  0  0  0  0  0  # atno 17320 bound_to 7965
  145.9257  140.9084  143.0382 LP  0  0  0  0  0  0  0  0  0  0  0  0  # atno 17321 bound_to 7965
  139.6382  144.7652  151.2393 LP  0  0  0  0  0  0  0  0  0  0  0  0  # atno 17342 bound_to 10162
  140.7476  143.6362  150.8377 LP  0  0  0  0  0  0  0  0  0  0  0  0  # atno 17343 bound_to 10162
  157.3890  131.0793  151.1410 LP  0  0  0  0  0  0  0  0  0  0  0  0  # atno 17370 bound_to 10713
  157.2108  130.6437  149.5773 LP  0  0  0  0  0  0  0  0  0  0  0  0  # atno 17371 bound_to 10713
  141.1982  133.8042  157.0594 LP  0  0  0  0  0  0  0  0  0  0  0  0  # atno 17394 bound_to 11000
  140.0621  134.9749  157.1322 LP  0  0  0  0  0  0  0  0  0  0  0  0  # atno 17395 bound_to 11000

$$$$
