AV-unprocessed.smi:912|AV-procd|sdf|4142|dock10
  -GOLD-   22720 2 53D 1   1.00000     0.00000
 Structure written by MMmdl.
 27 27  0  0  0  0  0  0  0  0  2 V2000
  146.8562  138.7338  152.2613 C   0  0  0  0  0  0  0  0  0  0  0  0
  148.2436  138.7730  152.7802 N   0  3  0  0  0  0  0  0  0  0  0  0
  148.4419  138.9873  154.2435 C   0  0  1  0  0  0  0  0  0  0  0  0
  147.7172  140.2835  154.6920 C   0  0  0  0  0  0  0  0  0  0  0  0
  147.8944  137.7407  154.9850 C   0  0  0  0  0  0  0  0  0  0  0  0
  147.7339  136.6140  154.2803 N   0  0  0  0  0  0  0  0  0  0  0  0
  147.6031  137.7913  156.1786 O   0  0  0  0  0  0  0  0  0  0  0  0
  149.9455  139.1240  154.5650 C   0  0  0  0  0  0  0  0  0  0  0  0
  150.9137  138.1929  154.1090 C   0  0  0  0  0  0  0  0  0  0  0  0
  152.2680  138.3933  154.4444 C   0  0  0  0  0  0  0  0  0  0  0  0
  152.7052  139.4326  155.1836 N   0  0  0  0  0  0  0  0  0  0  0  0
  151.7900  140.3220  155.6183 C   0  0  0  0  0  0  0  0  0  0  0  0
  150.4137  140.2140  155.3389 C   0  0  0  0  0  0  0  0  0  0  0  0
  146.8768  138.4713  151.2038 H   0  0  0  0  0  0  0  0  0  0  0  0
  146.3692  139.7051  152.3442 H   0  0  0  0  0  0  0  0  0  0  0  0
  146.2473  137.9894  152.7743 H   0  0  0  0  0  0  0  0  0  0  0  0
  148.6893  137.8991  152.5407 H   0  0  0  0  0  0  0  0  0  0  0  0
  147.8664  140.4891  155.7523 H   0  0  0  0  0  0  0  0  0  0  0  0
  146.6387  140.2359  154.5404 H   0  0  0  0  0  0  0  0  0  0  0  0
  148.0873  141.1490  154.1413 H   0  0  0  0  0  0  0  0  0  0  0  0
  147.3528  135.7871  154.7169 H   0  0  0  0  0  0  0  0  0  0  0  0
  147.9698  136.6039  153.2981 H   0  0  0  0  0  0  0  0  0  0  0  0
  150.6557  137.3315  153.5121 H   0  0  0  0  0  0  0  0  0  0  0  0
  153.0213  137.6962  154.1085 H   0  0  0  0  0  0  0  0  0  0  0  0
  152.1645  141.1452  156.2087 H   0  0  0  0  0  0  0  0  0  0  0  0
  149.7326  140.9599  155.7222 H   0  0  0  0  0  0  0  0  0  0  0  0
  148.7275  139.5154  152.2956 H   0  0  0  0  0  0  0  0  0  0  0  0
  1  2  1  0  0  0  0
  1 14  1  0  0  0  0
  1 15  1  0  0  0  0
  1 16  1  0  0  0  0
  2  3  1  0  0  0  0
  2 17  1  0  0  0  0
  2 27  1  0  0  0  0
  3  4  1  0  0  0  0
  3  5  1  0  0  0  0
  3  8  1  0  0  0  0
  4 18  1  0  0  0  0
  4 19  1  0  0  0  0
  4 20  1  0  0  0  0
  5  6  1  0  0  0  0
  5  7  2  0  0  0  0
  6 21  1  0  0  0  0
  6 22  1  0  0  0  0
  8 13  1  0  0  0  0
  8  9  2  0  0  0  0
  9 10  1  0  0  0  0
  9 23  1  0  0  0  0
 10 11  2  0  0  0  0
 10 24  1  0  0  0  0
 11 12  1  0  0  0  0
 12 13  2  0  0  0  0
 12 25  1  0  0  0  0
 13 26  1  0  0  0  0
M  CHG  1   2   1
M  END
> <s_m_source_file>
AV-unprocessed.smi

> <i_m_source_file_index>
912

> <i_lp_mmshare_version>
43012

> <i_f3d_flags>
0

> <s_epik_input>
W0NIM11bTkhdW0NAQF0oW0NIM10pKEMoPU8pW05IMl0pYzFbY0hdW2NIXW5bY0hdW2NIXTE=

> <s_epik_cmdline>
J2VwaWtfcHl0aG9uJywgJy1waCcsICc3LjAnLCAnLXRuJywgJzgnLCAnLW1hJywgJzIwMCcsICctbWV0YWxfYmluZGluZycsICctaW1hZScsICc8aW5maWxlLm1hZT4nLCAnLW9tYWUnLCAnPG91dGZpbGUubWFlPic=

> <r_epik_Ionization_Penalty>
0.8426

> <r_epik_Ionization_Penalty_Charging>
0.842363

> <r_epik_Ionization_Penalty_Neutral>
0.000236815

> <r_epik_State_Penalty>
0.498415

> <r_epik_Charging_Adjusted_Penalty>
1.34078

> <i_epik_Tot_Q>
1

> <i_epik_Tot_abs_Q>
1

> <r_epik_Metal_State_Penalty>
0.661775

> <b_epik_Metal_Only>
0

> <s_lp_Force_Field>
OPLS_2005

> <r_lp_Energy>
11.5285

> <b_lp_Chiralities_Consistent>
1

> <s_lp_Variant>
AV-unprocessed.smi:912-3

> <Gold.Version>
5.8.1

> <Gold.Id.Protein>
6NUR|6NUR_protein|mol2

> <Gold.PLP.Fitness>
37.6389

> <Gold.PLP.PLP>
-24.7961

> <Gold.PLP.part.hbond>
-4.2090

> <Gold.PLP.part.metal>
0.0000

> <Gold.PLP.part.buried>
-2.1565

> <Gold.PLP.part.nonpolar>
-18.2320

> <Gold.PLP.part.repulsive>
0.0842

> <Gold.PLP.ligand.clash>
0.0000

> <Gold.PLP.ligand.torsion>
1.0710

> <Gold.PLP.Chemscore.Hbond>
4.9913

> <Gold.PLP.Chemscore.CHOScore>
0.0000

> <Gold.PLP.Chemscore.Metal>
0.0000

> <Gold.Chemscore.Hbonds>
donor molecule, donor type, donor heavy atom, donor atom, acceptor molecule, acceptor atom, score
      L1  H     2    17       P1  7948  2.00
      L1  H     2    27       P1  7957  0.98
      L1  H     6    22       P1  7948  1.00
      P1  H  7997  8009       L1    11  1.00

> <Gold.PLP.Chemscore.Internal.Correction>
0.0111

> <Gold.Rescore>
     Score         DG    S(hbond)    S(metal)    S(lipo)     H(rot)  DE(clash)    DE(int)     intcor
     18.73     -20.11       3.85        0.00      55.11       1.83       0.13       1.25       ----

> <Gold.Chemscore.Fitness>
18.7294

> <Gold.Chemscore.DG>
-20.1097

> <Gold.Chemscore.ZeroCoef>
-5.4800

> <Gold.Chemscore.Hbond>
3.8498

> <Gold.Chemscore.Metal>
0.0000

> <Gold.Chemscore.Lipo>
55.1147

> <Gold.Chemscore.Internal_Hbond>
0.0000

> <Gold.Chemscore.DEClash>
0.1326

> <Gold.Chemscore.DEInternal>
1.2477

> <Gold.Chemscore.Rot>
1.8270

> <Gold.Chemscore.Internal.Correction>
   9.000000E+99

> <Gold.Chemscore.Hbonds>
donor molecule, donor type, donor heavy atom, donor atom, acceptor molecule, acceptor atom, score
      L1  H     2    17       P1  7948  1.00
      L1  H     2    27       P1  7957  0.87
      L1  H     6    22       P1  7948  0.99
      P1  H  7997  8009       L1    11  0.28

> <Gold.Chemscore.Hbond.Weighted>
-12.8584

> <Gold.Chemscore.Metal.Weighted>
-0.0000

> <Gold.Chemscore.Lipo.Weighted>
-6.4484

> <Gold.Chemscore.Internal_Hbond.Weighted>
0.0000

> <Gold.Chemscore.DEClash.Weighted>
0.1326

> <Gold.Chemscore.DEInternal.Weighted>
1.2477

> <Gold.Chemscore.Rot.Weighted>
4.6771

> <Gold.Chemscore.Internal.Correction.Weighted>
   9.000000E+99

> <Gold.Protein.RotatedTorsions>
[ 6907 6896 6895 6894 ] final   28.07 input  -60.11 | X-H torsion
[ 7974 7965 7964 7962 ] final -136.94 input  175.53 | X-H torsion
[ 8008 7997 7996 7995 ] final -145.29 input   59.86 | X-H torsion
[ 10167 10162 10161 10158 ] final  126.16 input  -65.29 | X-H torsion
[ 10718 10713 10712 10709 ] final -148.82 input   66.30 | X-H torsion
[ 10763 10752 10751 10750 ] final   25.03 input  -60.55 | X-H torsion
[ 11005 11000 10999 10996 ] final -166.98 input  -57.11 | X-H torsion

> <Gold.Protein.ActiveResidues>
 VAL166  LYS551  ARG553  GLY616  TRP617  ASP618  TYR619  PRO620  LYS621  CYS622 
 ASP623  PHE694  ASN695  SER759  ASP760  ASP761  ALA762  ILE779  LEU786  VAL792 
 PHE793  MET794  SER795  GLU796  ALA797  LYS798  CYS799  TRP800  GLU811  SER814 

> <Gold.Protein.RotatedAtoms>
  152.0116  134.9873  160.0568 H   0  0  0  0  0  0  0  0  0  0  0  0  # atno 6907 bound_to 6896
  152.1423  133.4467  159.4781 H   0  0  0  0  0  0  0  0  0  0  0  0  # atno 6908 bound_to 6896
  150.6866  134.2208  159.4439 H   0  0  0  0  0  0  0  0  0  0  0  0  # atno 6909 bound_to 6896
  144.8884  140.6607  143.5161 H   0  0  0  0  0  0  0  0  0  0  0  0  # atno 7974 bound_to 7965
  155.5407  140.0608  157.2870 H   0  0  0  0  0  0  0  0  0  0  0  0  # atno 8008 bound_to 7997
  154.4453  140.1919  156.0632 H   0  0  0  0  0  0  0  0  0  0  0  0  # atno 8009 bound_to 7997
  156.0586  140.3275  155.7439 H   0  0  0  0  0  0  0  0  0  0  0  0  # atno 8010 bound_to 7997
  139.5646  144.6903  151.3946 H   0  0  0  0  0  0  0  0  0  0  0  0  # atno 10167 bound_to 10162
  156.4252  130.8048  151.2273 H   0  0  0  0  0  0  0  0  0  0  0  0  # atno 10718 bound_to 10713
  153.0721  135.6592  154.0226 H   0  0  0  0  0  0  0  0  0  0  0  0  # atno 10763 bound_to 10752
  153.9869  135.2950  155.3417 H   0  0  0  0  0  0  0  0  0  0  0  0  # atno 10764 bound_to 10752
  154.7098  135.5210  153.8719 H   0  0  0  0  0  0  0  0  0  0  0  0  # atno 10765 bound_to 10752
  140.5584  134.5358  157.5138 H   0  0  0  0  0  0  0  0  0  0  0  0  # atno 11005 bound_to 11000
  145.3827  139.1633  143.4271 LP  0  0  0  0  0  0  0  0  0  0  0  0  # atno 17320 bound_to 7965
  146.3038  140.3910  142.8694 LP  0  0  0  0  0  0  0  0  0  0  0  0  # atno 17321 bound_to 7965
  140.6929  143.7819  150.7282 LP  0  0  0  0  0  0  0  0  0  0  0  0  # atno 17342 bound_to 10162
  140.1307  143.4529  152.2256 LP  0  0  0  0  0  0  0  0  0  0  0  0  # atno 17343 bound_to 10162
  157.7508  131.0215  150.3755 LP  0  0  0  0  0  0  0  0  0  0  0  0  # atno 17370 bound_to 10713
  156.4080  130.3928  149.6911 LP  0  0  0  0  0  0  0  0  0  0  0  0  # atno 17371 bound_to 10713
  139.9420  134.7769  156.0654 LP  0  0  0  0  0  0  0  0  0  0  0  0  # atno 17394 bound_to 11000
  141.1130  133.6637  156.3024 LP  0  0  0  0  0  0  0  0  0  0  0  0  # atno 17395 bound_to 11000

$$$$
