AV-unprocessed.smi:1046|AV-procd|sdf|4555|dock6
  -GOLD-   22720 2593D 1   1.00000     0.00000
 Structure written by MMmdl.
 54 56  0  0  0  0  0  0  0  0  3 V2000
  152.9225  143.4383  161.1268 C   0  0  0  0  0  0  0  0  0  0  0  0
  152.4149  142.7879  159.8520 C   0  0  0  0  0  0  0  0  0  0  0  0
  152.9030  141.5120  159.4905 C   0  0  0  0  0  0  0  0  0  0  0  0
  152.4611  140.8752  158.3104 C   0  0  0  0  0  0  0  0  0  0  0  0
  152.8013  139.6471  157.7700 N   0  0  0  0  0  0  0  0  0  0  0  0
  152.0616  139.6249  156.6656 C   0  0  0  0  0  0  0  0  0  0  0  0
  151.2673  140.6883  156.4346 N   0  0  0  0  0  0  0  0  0  0  0  0
  150.3682  140.8830  155.3119 C   0  0  0  0  0  0  0  0  0  0  0  0
  149.1310  141.7245  155.6836 C   0  0  1  0  0  0  0  0  0  0  0  0
  148.6009  142.2647  154.4906 O   0  0  0  0  0  0  0  0  0  0  0  0
  148.0264  140.9116  156.3954 C   0  0  0  0  0  0  0  0  0  0  0  0
  147.2194  141.7354  157.3319 N   0  3  2  0  0  0  0  0  0  0  0  0
  146.2615  142.6432  156.6502 C   0  0  0  0  0  0  0  0  0  0  0  0
  145.4008  143.4085  157.6710 C   0  0  0  0  0  0  0  0  0  0  0  0
  146.2452  144.1575  158.6339 N   0  3  1  0  0  0  0  0  0  0  0  0
  145.4380  144.9813  159.5706 C   0  0  0  0  0  0  0  0  0  0  0  0
  146.3066  145.8489  160.4980 C   0  0  0  0  0  0  0  0  0  0  0  0
  147.0571  146.7700  159.7350 O   0  0  0  0  0  0  0  0  0  0  0  0
  147.2054  143.2515  159.3143 C   0  0  0  0  0  0  0  0  0  0  0  0
  148.0648  142.4847  158.2934 C   0  0  0  0  0  0  0  0  0  0  0  0
  151.5065  141.5531  157.4972 C   0  0  0  0  0  0  0  0  0  0  0  0
  151.0126  142.8224  157.8464 C   0  0  0  0  0  0  0  0  0  0  0  0
  151.4666  143.4456  159.0277 C   0  0  0  0  0  0  0  0  0  0  0  0
  150.9314  144.8186  159.3942 C   0  0  0  0  0  0  0  0  0  0  0  0
  153.6725  142.8186  161.6191 H   0  0  0  0  0  0  0  0  0  0  0  0
  152.1029  143.5930  161.8288 H   0  0  0  0  0  0  0  0  0  0  0  0
  153.3795  144.4037  160.9083 H   0  0  0  0  0  0  0  0  0  0  0  0
  153.6264  141.0119  160.1176 H   0  0  0  0  0  0  0  0  0  0  0  0
  152.0913  138.7819  155.9907 H   0  0  0  0  0  0  0  0  0  0  0  0
  150.9281  141.3625  154.5077 H   0  0  0  0  0  0  0  0  0  0  0  0
  150.0631  139.9037  154.9395 H   0  0  0  0  0  0  0  0  0  0  0  0
  149.4570  142.5535  156.3101 H   0  0  0  0  0  0  0  0  0  0  0  0
  148.5122  143.2005  154.5959 H   0  0  0  0  0  0  0  0  0  0  0  0
  147.3765  140.4788  155.6332 H   0  0  0  0  0  0  0  0  0  0  0  0
  148.4485  140.0703  156.9465 H   0  0  0  0  0  0  0  0  0  0  0  0
  146.8100  143.3480  156.0232 H   0  0  0  0  0  0  0  0  0  0  0  0
  145.6048  142.0797  155.9886 H   0  0  0  0  0  0  0  0  0  0  0  0
  144.7451  144.1001  157.1404 H   0  0  0  0  0  0  0  0  0  0  0  0
  144.7572  142.7144  158.2142 H   0  0  0  0  0  0  0  0  0  0  0  0
  144.7789  145.6422  159.0050 H   0  0  0  0  0  0  0  0  0  0  0  0
  144.7865  144.3330  160.1583 H   0  0  0  0  0  0  0  0  0  0  0  0
  145.6679  146.4113  161.1796 H   0  0  0  0  0  0  0  0  0  0  0  0
  146.9749  145.2513  161.1170 H   0  0  0  0  0  0  0  0  0  0  0  0
  147.2365  146.3864  158.8889 H   0  0  0  0  0  0  0  0  0  0  0  0
  147.8616  143.8186  159.9737 H   0  0  0  0  0  0  0  0  0  0  0  0
  146.6585  142.5468  159.9432 H   0  0  0  0  0  0  0  0  0  0  0  0
  148.7210  141.7937  158.8241 H   0  0  0  0  0  0  0  0  0  0  0  0
  148.7078  143.1779  157.7482 H   0  0  0  0  0  0  0  0  0  0  0  0
  150.2942  143.3153  157.2084 H   0  0  0  0  0  0  0  0  0  0  0  0
  150.1840  145.1590  158.6770 H   0  0  0  0  0  0  0  0  0  0  0  0
  151.7389  145.5510  159.4088 H   0  0  0  0  0  0  0  0  0  0  0  0
  150.4645  144.7980  160.3791 H   0  0  0  0  0  0  0  0  0  0  0  0
  146.6761  141.0823  157.8794 H   0  0  0  0  0  0  0  0  0  0  0  0
  146.7879  144.8113  158.0866 H   0  0  0  0  0  0  0  0  0  0  0  0
  1  2  1  0  0  0  0
  1 25  1  0  0  0  0
  1 26  1  0  0  0  0
  1 27  1  0  0  0  0
  2 23  1  0  0  0  0
  2  3  2  0  0  0  0
  3  4  1  0  0  0  0
  3 28  1  0  0  0  0
  4 21  2  0  0  0  0
  4  5  1  0  0  0  0
  5  6  2  0  0  0  0
  6  7  1  0  0  0  0
  6 29  1  0  0  0  0
  7  8  1  0  0  0  0
  7 21  1  0  0  0  0
  8  9  1  0  0  0  0
  8 30  1  0  0  0  0
  8 31  1  0  0  0  0
  9 10  1  0  0  0  0
  9 11  1  0  0  0  0
  9 32  1  0  0  0  0
 10 33  1  0  0  0  0
 11 12  1  0  0  0  0
 11 34  1  0  0  0  0
 11 35  1  0  0  0  0
 12 20  1  0  0  0  0
 12 13  1  0  0  0  0
 12 53  1  0  0  0  0
 13 14  1  0  0  0  0
 13 36  1  0  0  0  0
 13 37  1  0  0  0  0
 14 15  1  0  0  0  0
 14 38  1  0  0  0  0
 14 39  1  0  0  0  0
 15 16  1  0  0  0  0
 15 19  1  0  0  0  0
 15 54  1  0  0  0  0
 16 17  1  0  0  0  0
 16 40  1  0  0  0  0
 16 41  1  0  0  0  0
 17 18  1  0  0  0  0
 17 42  1  0  0  0  0
 17 43  1  0  0  0  0
 18 44  1  0  0  0  0
 19 20  1  0  0  0  0
 19 45  1  0  0  0  0
 19 46  1  0  0  0  0
 20 47  1  0  0  0  0
 20 48  1  0  0  0  0
 21 22  1  0  0  0  0
 22 23  2  0  0  0  0
 22 49  1  0  0  0  0
 23 24  1  0  0  0  0
 24 50  1  0  0  0  0
 24 51  1  0  0  0  0
 24 52  1  0  0  0  0
M  CHG  1  12   1
M  CHG  1  15   1
M  END
> <s_m_source_file>
AV-unprocessed.smi

> <i_m_source_file_index>
1046

> <i_lp_mmshare_version>
43012

> <i_f3d_flags>
0

> <s_epik_input>
W0NIM11jKFtjSF0xKWMoW0NIM10pW2NIXWMoYzEyKW4oW2NIXW4yKVtDSDJdW0NASF0oW09IXSlbQ0gyXU4zW0NIMl1bQ0gyXU4oW0NIMl1bQ0gyXTMpW0NIMl1bQ0gyXVtPSF0=

> <s_epik_cmdline>
J2VwaWtfcHl0aG9uJywgJy1waCcsICc3LjAnLCAnLXRuJywgJzgnLCAnLW1hJywgJzIwMCcsICctbWV0YWxfYmluZGluZycsICctaW1hZScsICc8aW5maWxlLm1hZT4nLCAnLW9tYWUnLCAnPG91dGZpbGUubWFlPic=

> <r_epik_Ionization_Penalty>
3.17398

> <r_epik_Ionization_Penalty_Charging>
3.09061

> <r_epik_Ionization_Penalty_Neutral>
0.0833726

> <r_epik_State_Penalty>
2.17606

> <r_epik_Charging_Adjusted_Penalty>
5.26667

> <i_epik_Tot_Q>
2

> <i_epik_Tot_abs_Q>
2

> <r_epik_Metal_State_Penalty>
2.08587

> <b_epik_Metal_Only>
0

> <s_lp_Force_Field>
OPLS_2005

> <r_lp_Energy>
27.7872

> <b_lp_Chiralities_Consistent>
1

> <s_lp_Variant>
AV-unprocessed.smi:1046-8

> <Gold.Version>
5.8.1

> <Gold.Id.Protein>
6NUR|6NUR_protein|mol2

> <Gold.PLP.Fitness>
56.1681

> <Gold.PLP.PLP>
-43.0062

> <Gold.PLP.part.hbond>
-6.4787

> <Gold.PLP.part.metal>
0.0000

> <Gold.PLP.part.buried>
-3.8081

> <Gold.PLP.part.nonpolar>
-32.1685

> <Gold.PLP.part.repulsive>
0.0500

> <Gold.PLP.ligand.clash>
0.0000

> <Gold.PLP.ligand.torsion>
1.0165

> <Gold.PLP.Chemscore.Hbond>
5.0248

> <Gold.PLP.Chemscore.CHOScore>
0.0000

> <Gold.PLP.Chemscore.Metal>
0.0000

> <Gold.Chemscore.Hbonds>
donor molecule, donor type, donor heavy atom, donor atom, acceptor molecule, acceptor atom, score
      L1  H    10    33       P1  8028  0.98
      L1  H    15    54       P1  8029  2.00
      L1  H    18    44       P1  8029  1.00
      P1  H  7997  8008       L1     5  0.99

> <Gold.PLP.Chemscore.Internal.Correction>
0.1207

> <Gold.Rescore>
     Score         DG    S(hbond)    S(metal)    S(lipo)     H(rot)  DE(clash)    DE(int)     intcor
     16.96     -20.19       2.95        0.00     113.28       3.28       2.19       1.04       ----

> <Gold.Chemscore.Fitness>
16.9621

> <Gold.Chemscore.DG>
-20.1921

> <Gold.Chemscore.ZeroCoef>
-5.4800

> <Gold.Chemscore.Hbond>
2.9527

> <Gold.Chemscore.Metal>
0.0000

> <Gold.Chemscore.Lipo>
113.2835

> <Gold.Chemscore.Internal_Hbond>
0.0000

> <Gold.Chemscore.DEClash>
2.1894

> <Gold.Chemscore.DEInternal>
1.0406

> <Gold.Chemscore.Rot>
3.2828

> <Gold.Chemscore.Internal.Correction>
   9.000000E+99

> <Gold.Chemscore.Hbonds>
donor molecule, donor type, donor heavy atom, donor atom, acceptor molecule, acceptor atom, score
      L1  H    10    33       P1  8028  0.93
      L1  H    15    54       P1  8029  0.82
      L1  H    18    44       P1  8029  1.00
      P1  H  7997  8008       L1     5  0.12

> <Gold.Chemscore.Hbond.Weighted>
-9.8619

> <Gold.Chemscore.Metal.Weighted>
-0.0000

> <Gold.Chemscore.Lipo.Weighted>
-13.2542

> <Gold.Chemscore.Internal_Hbond.Weighted>
0.0000

> <Gold.Chemscore.DEClash.Weighted>
2.1894

> <Gold.Chemscore.DEInternal.Weighted>
1.0406

> <Gold.Chemscore.Rot.Weighted>
8.4039

> <Gold.Chemscore.Internal.Correction.Weighted>
   9.000000E+99

> <Gold.Protein.RotatedTorsions>
[ 6907 6896 6895 6894 ] final   24.53 input  -60.11 | X-H torsion
[ 7974 7965 7964 7962 ] final   29.01 input  175.53 | X-H torsion
[ 8008 7997 7996 7995 ] final  -92.79 input   59.86 | X-H torsion
[ 10167 10162 10161 10158 ] final   43.97 input  -65.29 | X-H torsion
[ 10718 10713 10712 10709 ] final   72.70 input   66.30 | X-H torsion
[ 10763 10752 10751 10750 ] final  178.98 input  -60.55 | X-H torsion
[ 11005 11000 10999 10996 ] final   36.20 input  -57.11 | X-H torsion

> <Gold.Protein.ActiveResidues>
 VAL166  LYS551  ARG553  GLY616  TRP617  ASP618  TYR619  PRO620  LYS621  CYS622 
 ASP623  PHE694  ASN695  SER759  ASP760  ASP761  ALA762  ILE779  LEU786  VAL792 
 PHE793  MET794  SER795  GLU796  ALA797  LYS798  CYS799  TRP800  GLU811  SER814 

> <Gold.Protein.RotatedAtoms>
  151.9588  135.0133  160.0546 H   0  0  0  0  0  0  0  0  0  0  0  0  # atno 6907 bound_to 6896
  152.1887  133.4753  159.5004 H   0  0  0  0  0  0  0  0  0  0  0  0  # atno 6908 bound_to 6896
  150.6931  134.1658  159.4236 H   0  0  0  0  0  0  0  0  0  0  0  0  # atno 6909 bound_to 6896
  146.1696  139.6978  142.8977 H   0  0  0  0  0  0  0  0  0  0  0  0  # atno 7974 bound_to 7965
  154.7275  140.0505  157.0696 H   0  0  0  0  0  0  0  0  0  0  0  0  # atno 8008 bound_to 7997
  155.0346  140.3162  155.4727 H   0  0  0  0  0  0  0  0  0  0  0  0  # atno 8009 bound_to 7997
  156.2833  140.2144  156.5468 H   0  0  0  0  0  0  0  0  0  0  0  0  # atno 8010 bound_to 7997
  140.3390  144.2494  150.6158 H   0  0  0  0  0  0  0  0  0  0  0  0  # atno 10167 bound_to 10162
  157.6513  130.9591  150.0965 H   0  0  0  0  0  0  0  0  0  0  0  0  # atno 10718 bound_to 10713
  154.5147  135.2790  155.1313 H   0  0  0  0  0  0  0  0  0  0  0  0  # atno 10763 bound_to 10752
  154.2894  135.6270  153.5383 H   0  0  0  0  0  0  0  0  0  0  0  0  # atno 10764 bound_to 10752
  152.9925  135.5670  154.5621 H   0  0  0  0  0  0  0  0  0  0  0  0  # atno 10765 bound_to 10752
  140.2349  134.3483  155.7949 H   0  0  0  0  0  0  0  0  0  0  0  0  # atno 11005 bound_to 11000
  145.4376  141.0420  143.2875 LP  0  0  0  0  0  0  0  0  0  0  0  0  # atno 17320 bound_to 7965
  144.8143  139.5905  143.7015 LP  0  0  0  0  0  0  0  0  0  0  0  0  # atno 17321 bound_to 7965
  140.5326  143.2240  151.8213 LP  0  0  0  0  0  0  0  0  0  0  0  0  # atno 17342 bound_to 10162
  139.4843  144.4701  151.9436 LP  0  0  0  0  0  0  0  0  0  0  0  0  # atno 17343 bound_to 10162
  156.1899  130.3654  149.8923 LP  0  0  0  0  0  0  0  0  0  0  0  0  # atno 17370 bound_to 10713
  156.6854  130.8875  151.3581 LP  0  0  0  0  0  0  0  0  0  0  0  0  # atno 17371 bound_to 10713
  141.2215  133.7266  156.8792 LP  0  0  0  0  0  0  0  0  0  0  0  0  # atno 17394 bound_to 11000
  140.1712  134.9098  157.2836 LP  0  0  0  0  0  0  0  0  0  0  0  0  # atno 17395 bound_to 11000

$$$$
