AV-unprocessed.smi:235|AV-procd|sdf|1807|dock8
  -GOLD-   2262020383D 1   1.00000     0.00000
 Structure written by MMmdl.
 54 58  0  0  0  0  0  0  0  0  1 V2000
  150.6502  140.9975  158.0150 O   0  0  0  0  0  0  0  0  0  0  0  0
  149.9226  141.6528  157.2677 C   0  0  0  0  0  0  0  0  0  0  0  0
  149.7296  142.9737  157.3955 N   0  0  0  0  0  0  0  0  0  0  0  0
  150.3283  143.8084  158.3857 C   0  0  0  0  0  0  0  0  0  0  0  0
  151.3831  144.7932  157.9284 C   0  0  0  0  0  0  0  0  0  0  0  0
  151.7877  143.5742  158.7110 C   0  0  0  0  0  0  0  0  0  0  0  0
  149.1620  140.9694  156.1225 C   0  0  2  0  0  0  0  0  0  0  0  0
  149.5207  141.5632  154.7544 C   0  0  0  0  0  0  0  0  0  0  0  0
  148.3026  141.2204  153.9056 C   0  0  0  0  0  0  0  0  0  0  0  0
  147.1436  141.3549  154.8937 C   0  0  0  0  0  0  0  0  0  0  0  0
  147.7146  141.1674  156.2247 N   0  0  0  0  0  0  0  0  0  0  0  0
  147.0645  140.2945  157.0256 C   0  0  0  0  0  0  0  0  0  0  0  0
  145.7861  140.5934  157.3614 N   0  0  0  0  0  0  0  0  0  0  0  0
  145.0973  139.7727  158.1608 C   0  0  0  0  0  0  0  0  0  0  0  0
  145.4919  138.6275  158.7230 N   0  0  0  0  0  0  0  0  0  0  0  0
  146.7786  138.3273  158.3846 C   0  0  0  0  0  0  0  0  0  0  0  0
  147.6315  139.0978  157.5465 C   0  0  0  0  0  0  0  0  0  0  0  0
  148.8709  138.4793  157.4308 N   0  0  0  0  0  0  0  0  0  0  0  0
  148.7561  137.4018  158.1590 C   0  0  0  0  0  0  0  0  0  0  0  0
  147.5328  137.2333  158.7673 N   0  0  0  0  0  0  0  0  0  0  0  0
  147.1292  136.1347  159.6258 C   0  0  0  0  0  0  0  0  0  0  0  0
  147.9147  136.1102  160.9511 C   0  0  1  0  0  0  0  0  0  0  0  0
  147.6989  137.3036  161.6810 O   0  0  0  0  0  0  0  0  0  0  0  0
  147.5817  134.8818  161.8212 C   0  0  1  0  0  0  0  0  0  0  0  0
  146.1575  134.8286  162.4014 C   0  0  0  0  0  0  0  0  0  0  0  0
  145.6451  133.4602  161.9829 C   0  0  0  0  0  0  0  0  0  0  0  0
  146.9238  132.6891  161.6799 C   0  0  0  0  0  0  0  0  0  0  0  0
  147.7547  133.6735  161.0882 O   0  0  0  0  0  0  0  0  0  0  0  0
  149.1108  143.4242  156.7370 H   0  0  0  0  0  0  0  0  0  0  0  0
  149.7000  144.1323  159.2142 H   0  0  0  0  0  0  0  0  0  0  0  0
  151.6352  144.8160  156.8698 H   0  0  0  0  0  0  0  0  0  0  0  0
  151.4271  145.7540  158.4376 H   0  0  0  0  0  0  0  0  0  0  0  0
  152.1005  143.7206  159.7428 H   0  0  0  0  0  0  0  0  0  0  0  0
  152.3078  142.7821  158.1754 H   0  0  0  0  0  0  0  0  0  0  0  0
  149.3948  139.9027  156.1165 H   0  0  0  0  0  0  0  0  0  0  0  0
  149.6347  142.6474  154.8124 H   0  0  0  0  0  0  0  0  0  0  0  0
  150.4427  141.1489  154.3451 H   0  0  0  0  0  0  0  0  0  0  0  0
  148.1944  141.8640  153.0322 H   0  0  0  0  0  0  0  0  0  0  0  0
  148.3753  140.1884  153.5597 H   0  0  0  0  0  0  0  0  0  0  0  0
  146.7271  142.3617  154.8494 H   0  0  0  0  0  0  0  0  0  0  0  0
  146.3358  140.6600  154.6575 H   0  0  0  0  0  0  0  0  0  0  0  0
  144.0853  140.0785  158.3822 H   0  0  0  0  0  0  0  0  0  0  0  0
  149.5651  136.6945  158.2708 H   0  0  0  0  0  0  0  0  0  0  0  0
  146.0578  136.2156  159.8137 H   0  0  0  0  0  0  0  0  0  0  0  0
  147.2811  135.2027  159.0802 H   0  0  0  0  0  0  0  0  0  0  0  0
  148.9803  136.0759  160.7202 H   0  0  0  0  0  0  0  0  0  0  0  0
  147.1834  137.0953  162.4453 H   0  0  0  0  0  0  0  0  0  0  0  0
  148.2872  134.8452  162.6532 H   0  0  0  0  0  0  0  0  0  0  0  0
  146.1943  134.9106  163.4885 H   0  0  0  0  0  0  0  0  0  0  0  0
  145.5071  135.6240  162.0366 H   0  0  0  0  0  0  0  0  0  0  0  0
  145.0305  132.9816  162.7457 H   0  0  0  0  0  0  0  0  0  0  0  0
  145.0483  133.5523  161.0746 H   0  0  0  0  0  0  0  0  0  0  0  0
  147.3860  132.3213  162.5973 H   0  0  0  0  0  0  0  0  0  0  0  0
  146.7597  131.8441  161.0109 H   0  0  0  0  0  0  0  0  0  0  0  0
  1  2  2  0  0  0  0
  2  3  1  0  0  0  0
  2  7  1  0  0  0  0
  3  4  1  0  0  0  0
  3 29  1  0  0  0  0
  4  6  1  0  0  0  0
  4  5  1  0  0  0  0
  4 30  1  0  0  0  0
  5  6  1  0  0  0  0
  5 31  1  0  0  0  0
  5 32  1  0  0  0  0
  6 33  1  0  0  0  0
  6 34  1  0  0  0  0
  7 11  1  0  0  0  0
  7  8  1  0  0  0  0
  7 35  1  0  0  0  0
  8  9  1  0  0  0  0
  8 36  1  0  0  0  0
  8 37  1  0  0  0  0
  9 10  1  0  0  0  0
  9 38  1  0  0  0  0
  9 39  1  0  0  0  0
 10 11  1  0  0  0  0
 10 40  1  0  0  0  0
 10 41  1  0  0  0  0
 11 12  1  0  0  0  0
 12 17  1  0  0  0  0
 12 13  2  0  0  0  0
 13 14  1  0  0  0  0
 14 15  2  0  0  0  0
 14 42  1  0  0  0  0
 15 16  1  0  0  0  0
 16 20  1  0  0  0  0
 16 17  2  0  0  0  0
 17 18  1  0  0  0  0
 18 19  2  0  0  0  0
 19 20  1  0  0  0  0
 19 43  1  0  0  0  0
 20 21  1  0  0  0  0
 21 22  1  0  0  0  0
 21 44  1  0  0  0  0
 21 45  1  0  0  0  0
 22 23  1  0  0  0  0
 22 24  1  0  0  0  0
 22 46  1  0  0  0  0
 23 47  1  0  0  0  0
 24 28  1  0  0  0  0
 24 25  1  0  0  0  0
 24 48  1  0  0  0  0
 25 26  1  0  0  0  0
 25 49  1  0  0  0  0
 25 50  1  0  0  0  0
 26 27  1  0  0  0  0
 26 51  1  0  0  0  0
 26 52  1  0  0  0  0
 27 28  1  0  0  0  0
 27 53  1  0  0  0  0
 27 54  1  0  0  0  0
M  END
> <s_m_source_file>
AV-unprocessed.smi

> <i_m_source_file_index>
235

> <i_lp_mmshare_version>
43012

> <i_f3d_flags>
0

> <s_epik_input>
W0NIMl0xW0NIMl1bQ0hdMVtOSF1DKD1PKVtDQEBIXTJbQ0gyXVtDSDJdW0NIMl1OMmMobltjSF1uMyljKGMzNCluW2NIXW40W0NIMl1bQ0BIXShbT0hdKVtDQEBIXTVbQ0gyXVtDSDJdW0NIMl1PNQ==

> <s_epik_cmdline>
J2VwaWtfcHl0aG9uJywgJy1waCcsICc3LjAnLCAnLXRuJywgJzgnLCAnLW1hJywgJzIwMCcsICctbWV0YWxfYmluZGluZycsICctaW1hZScsICc8aW5maWxlLm1hZT4nLCAnLW9tYWUnLCAnPG91dGZpbGUubWFlPic=

> <r_lp_tautomer_probability>
1

> <r_epik_Ionization_Penalty>
0.000526714

> <r_epik_Ionization_Penalty_Charging>
0

> <r_epik_Ionization_Penalty_Neutral>
0.000526714

> <r_epik_State_Penalty>
0.000272704

> <r_epik_Charging_Adjusted_Penalty>
0.000272704

> <i_epik_Tot_Q>
0

> <i_epik_Tot_abs_Q>
0

> <r_epik_Metal_State_Penalty>
-0

> <b_epik_Metal_Only>
0

> <s_lp_Force_Field>
OPLS_2005

> <r_lp_Energy>
60.9584

> <b_lp_Chiralities_Consistent>
1

> <s_lp_Variant>
AV-unprocessed.smi:235-7

> <Gold.Version>
5.8.1

> <Gold.Id.Protein>
6NUR|6NUR_protein|mol2

> <Gold.PLP.Fitness>
48.6115

> <Gold.PLP.PLP>
-41.1672

> <Gold.PLP.part.hbond>
-3.7265

> <Gold.PLP.part.metal>
0.0000

> <Gold.PLP.part.buried>
-3.7672

> <Gold.PLP.part.nonpolar>
-33.5986

> <Gold.PLP.part.repulsive>
0.0859

> <Gold.PLP.ligand.clash>
0.0000

> <Gold.PLP.ligand.torsion>
0.3978

> <Gold.PLP.Chemscore.Hbond>
2.6661

> <Gold.PLP.Chemscore.CHOScore>
0.0000

> <Gold.PLP.Chemscore.Metal>
0.0000

> <Gold.Chemscore.Hbonds>
donor molecule, donor type, donor heavy atom, donor atom, acceptor molecule, acceptor atom, score
      L1  H     3    29       P1  8028  0.93
      P1  H  6931  6943       L1    23  0.96
      P1  H  6934  6947       L1    23  0.69

> <Gold.PLP.Chemscore.Internal.Correction>
0.2416

> <Gold.Rescore>
     Score         DG    S(hbond)    S(metal)    S(lipo)     H(rot)  DE(clash)    DE(int)     intcor
     15.73     -17.63       2.53        0.00      97.29       3.00       0.06       1.85       ----

> <Gold.Chemscore.Fitness>
15.7278

> <Gold.Chemscore.DG>
-17.6291

> <Gold.Chemscore.ZeroCoef>
-5.4800

> <Gold.Chemscore.Hbond>
2.5280

> <Gold.Chemscore.Metal>
0.0000

> <Gold.Chemscore.Lipo>
97.2894

> <Gold.Chemscore.Internal_Hbond>
0.0000

> <Gold.Chemscore.DEClash>
0.0559

> <Gold.Chemscore.DEInternal>
1.8454

> <Gold.Chemscore.Rot>
2.9989

> <Gold.Chemscore.Internal.Correction>
   9.000000E+99

> <Gold.Chemscore.Hbonds>
donor molecule, donor type, donor heavy atom, donor atom, acceptor molecule, acceptor atom, score
      L1  H     3    29       P1  8028  0.84
      P1  H  6931  6943       L1    23  0.80
      P1  H  6934  6947       L1    23  0.54

> <Gold.Chemscore.Hbond.Weighted>
-8.4434

> <Gold.Chemscore.Metal.Weighted>
-0.0000

> <Gold.Chemscore.Lipo.Weighted>
-11.3829

> <Gold.Chemscore.Internal_Hbond.Weighted>
0.0000

> <Gold.Chemscore.DEClash.Weighted>
0.0559

> <Gold.Chemscore.DEInternal.Weighted>
1.8454

> <Gold.Chemscore.Rot.Weighted>
7.6772

> <Gold.Chemscore.Internal.Correction.Weighted>
   9.000000E+99

> <Gold.Protein.RotatedTorsions>
[ 6907 6896 6895 6894 ] final  -56.15 input  -60.11 | X-H torsion
[ 7974 7965 7964 7962 ] final  116.32 input  175.53 | X-H torsion
[ 8008 7997 7996 7995 ] final  133.92 input   59.86 | X-H torsion
[ 10167 10162 10161 10158 ] final  163.81 input  -65.29 | X-H torsion
[ 10718 10713 10712 10709 ] final   39.51 input   66.30 | X-H torsion
[ 10763 10752 10751 10750 ] final -151.07 input  -60.55 | X-H torsion
[ 11005 11000 10999 10996 ] final -152.83 input  -57.11 | X-H torsion

> <Gold.Protein.ActiveResidues>
 VAL166  LYS551  ARG553  GLY616  TRP617  ASP618  TYR619  PRO620  LYS621  CYS622 
 ASP623  PHE694  ASN695  SER759  ASP760  ASP761  ALA762  ILE779  LEU786  VAL792 
 PHE793  MET794  SER795  GLU796  ALA797  LYS798  CYS799  TRP800  GLU811  SER814 

> <Gold.Protein.RotatedAtoms>
  150.8191  134.7389  159.6756 H   0  0  0  0  0  0  0  0  0  0  0  0  # atno 6907 bound_to 6896
  152.4308  134.5778  159.9949 H   0  0  0  0  0  0  0  0  0  0  0  0  # atno 6908 bound_to 6896
  151.5967  133.3323  159.3075 H   0  0  0  0  0  0  0  0  0  0  0  0  # atno 6909 bound_to 6896
  145.1811  139.3049  143.4418 H   0  0  0  0  0  0  0  0  0  0  0  0  # atno 7974 bound_to 7965
  156.2996  140.2509  156.3332 H   0  0  0  0  0  0  0  0  0  0  0  0  # atno 8008 bound_to 7997
  154.9125  140.0403  157.1973 H   0  0  0  0  0  0  0  0  0  0  0  0  # atno 8009 bound_to 7997
  154.8391  140.2888  155.5675 H   0  0  0  0  0  0  0  0  0  0  0  0  # atno 8010 bound_to 7997
  139.4879  144.4299  151.9084 H   0  0  0  0  0  0  0  0  0  0  0  0  # atno 10167 bound_to 10162
  157.3714  130.7703  149.7122 H   0  0  0  0  0  0  0  0  0  0  0  0  # atno 10718 bound_to 10713
  154.8080  135.3269  154.7380 H   0  0  0  0  0  0  0  0  0  0  0  0  # atno 10763 bound_to 10752
  153.8034  135.6901  153.4856 H   0  0  0  0  0  0  0  0  0  0  0  0  # atno 10764 bound_to 10752
  153.1839  135.4576  155.0009 H   0  0  0  0  0  0  0  0  0  0  0  0  # atno 10765 bound_to 10752
  140.7146  134.3794  157.5193 H   0  0  0  0  0  0  0  0  0  0  0  0  # atno 11005 bound_to 11000
  146.3453  140.1990  142.8589 LP  0  0  0  0  0  0  0  0  0  0  0  0  # atno 17320 bound_to 7965
  145.0136  140.8734  143.5209 LP  0  0  0  0  0  0  0  0  0  0  0  0  # atno 17321 bound_to 7965
  140.3746  144.2812  150.5915 LP  0  0  0  0  0  0  0  0  0  0  0  0  # atno 17342 bound_to 10162
  140.5288  143.2248  151.8272 LP  0  0  0  0  0  0  0  0  0  0  0  0  # atno 17343 bound_to 10162
  155.9756  130.4086  150.3835 LP  0  0  0  0  0  0  0  0  0  0  0  0  # atno 17370 bound_to 10713
  157.1927  131.0419  151.2692 LP  0  0  0  0  0  0  0  0  0  0  0  0  # atno 17371 bound_to 10713
  139.8863  134.8913  156.2593 LP  0  0  0  0  0  0  0  0  0  0  0  0  # atno 17394 bound_to 11000
  141.0055  133.7126  156.1028 LP  0  0  0  0  0  0  0  0  0  0  0  0  # atno 17395 bound_to 11000

$$$$
