AV-unprocessed.smi:207|AV-procd|sdf|1602|dock5
  -GOLD-   2262019513D 1   1.00000     0.00000
 Structure written by MMmdl.
 55 58  0  0  0  0  0  0  0  0  1 V2000
  147.5437  141.6893  153.7858 C   0  0  0  0  0  0  0  0  0  0  0  0
  147.2742  140.5774  154.8204 C   0  0  0  0  0  0  0  0  0  0  0  0
  146.0819  141.0526  155.6939 C   0  0  0  0  0  0  0  0  0  0  0  0
  146.8127  139.3436  153.9991 C   0  0  0  0  0  0  0  0  0  0  0  0
  146.5942  138.1745  154.8522 N   0  0  0  0  0  0  0  0  0  0  0  0
  145.9346  137.1137  154.3216 C   0  0  0  0  0  0  0  0  0  0  0  0
  145.4054  136.1629  155.1378 N   0  0  0  0  0  0  0  0  0  0  0  0
  144.7417  135.1239  154.6230 C   0  0  0  0  0  0  0  0  0  0  0  0
  144.4982  134.8420  153.3421 N   0  0  0  0  0  0  0  0  0  0  0  0
  145.0368  135.7833  152.5159 C   0  0  0  0  0  0  0  0  0  0  0  0
  145.7605  136.9416  152.9191 C   0  0  0  0  0  0  0  0  0  0  0  0
  146.1557  137.6644  151.7999 N   0  0  0  0  0  0  0  0  0  0  0  0
  145.6835  136.9797  150.7947 C   0  0  0  0  0  0  0  0  0  0  0  0
  145.0073  135.8283  151.1324 N   0  0  0  0  0  0  0  0  0  0  0  0
  144.3873  134.8851  150.2127 C   0  0  0  0  0  0  0  0  0  0  0  0
  144.8238  133.4179  150.4130 C   0  0  0  0  0  0  0  0  0  0  0  0
  146.2674  133.3402  150.9412 C   0  0  0  0  0  0  0  0  0  0  0  0
  146.6635  132.0025  151.1679 O   0  0  0  0  0  0  0  0  0  0  0  0
  143.8287  132.5154  151.1576 C   0  0  0  0  0  0  0  0  0  0  0  0
  143.8833  131.5092  150.1252 O   0  0  0  0  0  0  0  0  0  0  0  0
  144.5145  132.4659  149.2487 C   0  0  0  0  0  0  0  0  0  0  0  0
  147.7641  137.8248  155.6496 C   0  0  0  0  0  0  0  0  0  0  0  0
  148.2447  139.0456  156.4473 C   0  0  0  0  0  0  0  0  0  0  0  0
  148.4962  140.2129  155.5946 N   0  0  0  0  0  0  0  0  0  0  0  0
  149.1263  141.2988  156.3622 C   0  0  0  0  0  0  0  0  0  0  0  0
  148.3292  141.7765  157.5887 C   0  0  0  0  0  0  0  0  0  0  0  0
  148.7491  143.0761  157.9427 O   0  0  0  0  0  0  0  0  0  0  0  0
  146.6961  141.8176  153.1111 H   0  0  0  0  0  0  0  0  0  0  0  0
  148.4142  141.4605  153.1699 H   0  0  0  0  0  0  0  0  0  0  0  0
  147.7043  142.6562  154.2621 H   0  0  0  0  0  0  0  0  0  0  0  0
  145.2074  141.2572  155.0754 H   0  0  0  0  0  0  0  0  0  0  0  0
  146.3006  141.9739  156.2323 H   0  0  0  0  0  0  0  0  0  0  0  0
  145.7716  140.3097  156.4277 H   0  0  0  0  0  0  0  0  0  0  0  0
  145.8936  139.5782  153.4597 H   0  0  0  0  0  0  0  0  0  0  0  0
  147.5649  139.0945  153.2484 H   0  0  0  0  0  0  0  0  0  0  0  0
  144.3504  134.4175  155.3403 H   0  0  0  0  0  0  0  0  0  0  0  0
  145.8239  137.2952  149.7712 H   0  0  0  0  0  0  0  0  0  0  0  0
  143.3060  134.9805  150.3188 H   0  0  0  0  0  0  0  0  0  0  0  0
  144.6070  135.2098  149.1948 H   0  0  0  0  0  0  0  0  0  0  0  0
  146.9744  133.8145  150.2601 H   0  0  0  0  0  0  0  0  0  0  0  0
  146.3575  133.8765  151.8866 H   0  0  0  0  0  0  0  0  0  0  0  0
  147.4721  131.8451  150.7053 H   0  0  0  0  0  0  0  0  0  0  0  0
  144.1896  132.1533  152.1211 H   0  0  0  0  0  0  0  0  0  0  0  0
  142.8251  132.9330  151.2499 H   0  0  0  0  0  0  0  0  0  0  0  0
  143.8116  132.8717  148.5191 H   0  0  0  0  0  0  0  0  0  0  0  0
  145.3989  132.0626  148.7537 H   0  0  0  0  0  0  0  0  0  0  0  0
  147.5500  137.0067  156.3364 H   0  0  0  0  0  0  0  0  0  0  0  0
  148.5556  137.4792  154.9830 H   0  0  0  0  0  0  0  0  0  0  0  0
  147.5283  139.2906  157.2313 H   0  0  0  0  0  0  0  0  0  0  0  0
  149.1642  138.7644  156.9621 H   0  0  0  0  0  0  0  0  0  0  0  0
  150.1421  141.0362  156.6525 H   0  0  0  0  0  0  0  0  0  0  0  0
  149.2393  142.1726  155.7188 H   0  0  0  0  0  0  0  0  0  0  0  0
  147.2633  141.8025  157.3603 H   0  0  0  0  0  0  0  0  0  0  0  0
  148.4561  141.1319  158.4548 H   0  0  0  0  0  0  0  0  0  0  0  0
  148.8621  143.5812  157.1518 H   0  0  0  0  0  0  0  0  0  0  0  0
  1  2  1  0  0  0  0
  1 28  1  0  0  0  0
  1 29  1  0  0  0  0
  1 30  1  0  0  0  0
  2 24  1  0  0  0  0
  2  3  1  0  0  0  0
  2  4  1  0  0  0  0
  3 31  1  0  0  0  0
  3 32  1  0  0  0  0
  3 33  1  0  0  0  0
  4  5  1  0  0  0  0
  4 34  1  0  0  0  0
  4 35  1  0  0  0  0
  5  6  1  0  0  0  0
  5 22  1  0  0  0  0
  6 11  1  0  0  0  0
  6  7  2  0  0  0  0
  7  8  1  0  0  0  0
  8  9  2  0  0  0  0
  8 36  1  0  0  0  0
  9 10  1  0  0  0  0
 10 14  1  0  0  0  0
 10 11  2  0  0  0  0
 11 12  1  0  0  0  0
 12 13  2  0  0  0  0
 13 14  1  0  0  0  0
 13 37  1  0  0  0  0
 14 15  1  0  0  0  0
 15 16  1  0  0  0  0
 15 38  1  0  0  0  0
 15 39  1  0  0  0  0
 16 21  1  0  0  0  0
 16 17  1  0  0  0  0
 16 19  1  0  0  0  0
 17 18  1  0  0  0  0
 17 40  1  0  0  0  0
 17 41  1  0  0  0  0
 18 42  1  0  0  0  0
 19 20  1  0  0  0  0
 19 43  1  0  0  0  0
 19 44  1  0  0  0  0
 20 21  1  0  0  0  0
 21 45  1  0  0  0  0
 21 46  1  0  0  0  0
 22 23  1  0  0  0  0
 22 47  1  0  0  0  0
 22 48  1  0  0  0  0
 23 24  1  0  0  0  0
 23 49  1  0  0  0  0
 23 50  1  0  0  0  0
 24 25  1  0  0  0  0
 25 26  1  0  0  0  0
 25 51  1  0  0  0  0
 25 52  1  0  0  0  0
 26 27  1  0  0  0  0
 26 53  1  0  0  0  0
 26 54  1  0  0  0  0
 27 55  1  0  0  0  0
M  END
> <s_m_source_file>
AV-unprocessed.smi

> <i_m_source_file_index>
207

> <i_lp_mmshare_version>
43012

> <i_f3d_flags>
0

> <s_epik_input>
W09IXVtDSDJdW0NIMl1OMVtDSDJdW0NIMl1OKFtDSDJdQzEoW0NIM10pW0NIM10pYyhuW2NIXW4yKWMoYzIzKW5bY0hdbjNbQ0gyXUM0KFtDSDJdW09IXSlbQ0gyXU9bQ0gyXTQ=

> <s_epik_cmdline>
J2VwaWtfcHl0aG9uJywgJy1waCcsICc3LjAnLCAnLXRuJywgJzgnLCAnLW1hJywgJzIwMCcsICctbWV0YWxfYmluZGluZycsICctaW1hZScsICc8aW5maWxlLm1hZT4nLCAnLW9tYWUnLCAnPG91dGZpbGUubWFlPic=

> <r_lp_tautomer_probability>
1

> <r_epik_Ionization_Penalty>
0.411763

> <r_epik_Ionization_Penalty_Charging>
0

> <r_epik_Ionization_Penalty_Neutral>
0.411763

> <r_epik_State_Penalty>
0.407012

> <r_epik_Charging_Adjusted_Penalty>
0.407012

> <i_epik_Tot_Q>
0

> <i_epik_Tot_abs_Q>
0

> <r_epik_Metal_State_Penalty>
0.401279

> <b_epik_Metal_Only>
0

> <s_lp_Force_Field>
OPLS_2005

> <r_lp_Energy>
76.2772

> <b_lp_Chiralities_Consistent>
1

> <s_lp_Variant>
AV-unprocessed.smi:207-1

> <Gold.Version>
5.8.1

> <Gold.Id.Protein>
6NUR|6NUR_protein|mol2

> <Gold.PLP.Fitness>
40.5858

> <Gold.PLP.PLP>
-32.9902

> <Gold.PLP.part.hbond>
-3.7287

> <Gold.PLP.part.metal>
0.0000

> <Gold.PLP.part.buried>
-3.1894

> <Gold.PLP.part.nonpolar>
-27.6462

> <Gold.PLP.part.repulsive>
0.9837

> <Gold.PLP.ligand.clash>
0.0000

> <Gold.PLP.ligand.torsion>
1.0309

> <Gold.PLP.Chemscore.Hbond>
2.7114

> <Gold.PLP.Chemscore.CHOScore>
0.2689

> <Gold.PLP.Chemscore.Metal>
0.0000

> <Gold.Chemscore.Hbonds>
donor molecule, donor type, donor heavy atom, donor atom, acceptor molecule, acceptor atom, score
      L1  H    18    42       P1 10747  1.00
      L1  H    27    55       P1  8028  1.00
      P1  H 10785 10796       L1    20  0.71
      L1  C    13    37       P1 10171  0.27

> <Gold.PLP.Chemscore.Internal.Correction>
0.7167

> <Gold.Rescore>
     Score         DG    S(hbond)    S(metal)    S(lipo)     H(rot)  DE(clash)    DE(int)     intcor
      6.58     -12.67       2.27        0.00      78.48       3.74       2.57       3.52       ----

> <Gold.Chemscore.Fitness>
6.5780

> <Gold.Chemscore.DG>
-12.6742

> <Gold.Chemscore.ZeroCoef>
-5.4800

> <Gold.Chemscore.Hbond>
2.2739

> <Gold.Chemscore.Metal>
0.0000

> <Gold.Chemscore.Lipo>
78.4768

> <Gold.Chemscore.Internal_Hbond>
0.0000

> <Gold.Chemscore.DEClash>
2.5726

> <Gold.Chemscore.DEInternal>
3.5236

> <Gold.Chemscore.Rot>
3.7432

> <Gold.Chemscore.Internal.Correction>
   9.000000E+99

> <Gold.Chemscore.Hbonds>
donor molecule, donor type, donor heavy atom, donor atom, acceptor molecule, acceptor atom, score
      L1  H    18    42       P1 10747  0.98
      L1  H    27    55       P1  8028  0.30
      P1  H 10785 10796       L1    20  0.20

> <Gold.Chemscore.Hbond.Weighted>
-7.5949

> <Gold.Chemscore.Metal.Weighted>
-0.0000

> <Gold.Chemscore.Lipo.Weighted>
-9.1818

> <Gold.Chemscore.Internal_Hbond.Weighted>
0.0000

> <Gold.Chemscore.DEClash.Weighted>
2.5726

> <Gold.Chemscore.DEInternal.Weighted>
3.5236

> <Gold.Chemscore.Rot.Weighted>
9.5825

> <Gold.Chemscore.Internal.Correction.Weighted>
   9.000000E+99

> <Gold.Protein.RotatedTorsions>
[ 6907 6896 6895 6894 ] final   -8.69 input  -60.11 | X-H torsion
[ 7974 7965 7964 7962 ] final   17.92 input  175.53 | X-H torsion
[ 8008 7997 7996 7995 ] final  -83.79 input   59.86 | X-H torsion
[ 10167 10162 10161 10158 ] final   28.94 input  -65.29 | X-H torsion
[ 10718 10713 10712 10709 ] final   49.93 input   66.30 | X-H torsion
[ 10763 10752 10751 10750 ] final  174.49 input  -60.55 | X-H torsion
[ 11005 11000 10999 10996 ] final  -44.14 input  -57.11 | X-H torsion

> <Gold.Protein.ActiveResidues>
 VAL166  LYS551  ARG553  GLY616  TRP617  ASP618  TYR619  PRO620  LYS621  CYS622 
 ASP623  PHE694  ASN695  SER759  ASP760  ASP761  ALA762  ILE779  LEU786  VAL792 
 PHE793  MET794  SER795  GLU796  ALA797  LYS798  CYS799  TRP800  GLU811  SER814 

> <Gold.Protein.RotatedAtoms>
  151.4297  135.1008  159.9638 H   0  0  0  0  0  0  0  0  0  0  0  0  # atno 6907 bound_to 6896
  152.4960  133.8629  159.7270 H   0  0  0  0  0  0  0  0  0  0  0  0  # atno 6908 bound_to 6896
  150.9164  133.6876  159.2870 H   0  0  0  0  0  0  0  0  0  0  0  0  # atno 6909 bound_to 6896
  146.2202  139.8532  142.8618 H   0  0  0  0  0  0  0  0  0  0  0  0  # atno 7974 bound_to 7965
  154.6229  140.0614  156.9637 H   0  0  0  0  0  0  0  0  0  0  0  0  # atno 8008 bound_to 7997
  155.1789  140.3297  155.4360 H   0  0  0  0  0  0  0  0  0  0  0  0  # atno 8009 bound_to 7997
  156.2441  140.1901  156.6887 H   0  0  0  0  0  0  0  0  0  0  0  0  # atno 8010 bound_to 7997
  140.4809  144.0618  150.6265 H   0  0  0  0  0  0  0  0  0  0  0  0  # atno 10167 bound_to 10162
  157.4835  130.8330  149.8120 H   0  0  0  0  0  0  0  0  0  0  0  0  # atno 10718 bound_to 10713
  154.4546  135.2766  155.1756 H   0  0  0  0  0  0  0  0  0  0  0  0  # atno 10763 bound_to 10752
  154.3569  135.6138  153.5674 H   0  0  0  0  0  0  0  0  0  0  0  0  # atno 10764 bound_to 10752
  152.9850  135.5825  154.4897 H   0  0  0  0  0  0  0  0  0  0  0  0  # atno 10765 bound_to 10752
  141.0431  133.6772  156.2831 H   0  0  0  0  0  0  0  0  0  0  0  0  # atno 11005 bound_to 11000
  145.2780  141.0130  143.3733 LP  0  0  0  0  0  0  0  0  0  0  0  0  # atno 17320 bound_to 7965
  144.9172  139.4456  143.6559 LP  0  0  0  0  0  0  0  0  0  0  0  0  # atno 17321 bound_to 7965
  140.3859  143.2777  152.0116 LP  0  0  0  0  0  0  0  0  0  0  0  0  # atno 17342 bound_to 10162
  139.4833  144.6117  151.7422 LP  0  0  0  0  0  0  0  0  0  0  0  0  # atno 17343 bound_to 10162
  156.0134  130.3823  150.2189 LP  0  0  0  0  0  0  0  0  0  0  0  0  # atno 17370 bound_to 10713
  157.0375  131.0025  151.3293 LP  0  0  0  0  0  0  0  0  0  0  0  0  # atno 17371 bound_to 10713
  140.6198  134.5373  157.5546 LP  0  0  0  0  0  0  0  0  0  0  0  0  # atno 17394 bound_to 11000
  139.9290  134.7999  156.0984 LP  0  0  0  0  0  0  0  0  0  0  0  0  # atno 17395 bound_to 11000

$$$$
