AV-unprocessed.smi:1482|AV-procd|sdf|5988|dock1
  -GOLD-   22720 6 83D 1   1.00000     0.00000
 Structure written by MMmdl.
 36 37  0  0  0  0  0  0  0  0  1 V2000
  145.3401  143.0740  161.4128 C   0  0  0  0  0  0  0  0  0  0  0  0
  145.7767  142.2980  160.3106 O   0  0  0  0  0  0  0  0  0  0  0  0
  146.1912  143.0973  159.2155 C   0  0  0  0  0  0  0  0  0  0  0  0
  146.0351  142.2940  157.9215 C   0  0  0  0  0  0  0  0  0  0  0  0
  147.3304  141.9222  157.4619 O   0  0  0  0  0  0  0  0  0  0  0  0
  147.5015  141.6213  156.1250 C   0  0  0  0  0  0  0  0  0  0  0  0
  146.4046  141.5912  155.3262 N   0  0  0  0  0  0  0  0  0  0  0  0
  146.5674  141.3090  154.0170 C   0  0  0  0  0  0  0  0  0  0  0  0
  147.8211  141.0422  153.4358 C   0  0  0  0  0  0  0  0  0  0  0  0
  148.9588  141.0710  154.2629 C   0  0  0  0  0  0  0  0  0  0  0  0
  148.8044  141.3635  155.6345 C   0  0  0  0  0  0  0  0  0  0  0  0
  150.0246  141.4045  156.5442 C   0  0  0  0  0  0  0  0  0  0  0  0
  150.3747  142.7561  156.9652 N   0  0  0  0  0  0  0  0  0  0  0  0
  151.3193  143.0576  157.8692 C   0  0  0  0  0  0  0  0  0  0  0  0
  151.9997  142.2030  158.4389 O   0  0  0  0  0  0  0  0  0  0  0  0
  151.4702  144.5221  158.1220 C   0  0  0  0  0  0  0  0  0  0  0  0
  152.4850  144.9547  159.1608 C   0  0  0  0  0  0  0  0  0  0  0  0
  151.0113  145.0557  159.4639 C   0  0  0  0  0  0  0  0  0  0  0  0
  145.0316  142.4159  162.2250 H   0  0  0  0  0  0  0  0  0  0  0  0
  144.4872  143.6983  161.1432 H   0  0  0  0  0  0  0  0  0  0  0  0
  146.1398  143.7154  161.7848 H   0  0  0  0  0  0  0  0  0  0  0  0
  145.5897  144.0063  159.1644 H   0  0  0  0  0  0  0  0  0  0  0  0
  147.2324  143.3966  159.3439 H   0  0  0  0  0  0  0  0  0  0  0  0
  145.4315  141.4047  158.1104 H   0  0  0  0  0  0  0  0  0  0  0  0
  145.5228  142.9005  157.1730 H   0  0  0  0  0  0  0  0  0  0  0  0
  145.6713  141.2966  153.4144 H   0  0  0  0  0  0  0  0  0  0  0  0
  147.9074  140.8222  152.3822 H   0  0  0  0  0  0  0  0  0  0  0  0
  149.9365  140.8720  153.8492 H   0  0  0  0  0  0  0  0  0  0  0  0
  149.8973  140.7676  157.4203 H   0  0  0  0  0  0  0  0  0  0  0  0
  150.8718  140.9924  155.9956 H   0  0  0  0  0  0  0  0  0  0  0  0
  149.8627  143.5157  156.5408 H   0  0  0  0  0  0  0  0  0  0  0  0
  151.3366  145.1801  157.2645 H   0  0  0  0  0  0  0  0  0  0  0  0
  153.0520  144.1881  159.6864 H   0  0  0  0  0  0  0  0  0  0  0  0
  153.0309  145.8750  158.9641 H   0  0  0  0  0  0  0  0  0  0  0  0
  150.5575  146.0445  159.4722 H   0  0  0  0  0  0  0  0  0  0  0  0
  150.6017  144.3564  160.1908 H   0  0  0  0  0  0  0  0  0  0  0  0
  1  2  1  0  0  0  0
  1 19  1  0  0  0  0
  1 20  1  0  0  0  0
  1 21  1  0  0  0  0
  2  3  1  0  0  0  0
  3  4  1  0  0  0  0
  3 22  1  0  0  0  0
  3 23  1  0  0  0  0
  4  5  1  0  0  0  0
  4 24  1  0  0  0  0
  4 25  1  0  0  0  0
  5  6  1  0  0  0  0
  6 11  1  0  0  0  0
  6  7  2  0  0  0  0
  7  8  1  0  0  0  0
  8  9  2  0  0  0  0
  8 26  1  0  0  0  0
  9 10  1  0  0  0  0
  9 27  1  0  0  0  0
 10 11  2  0  0  0  0
 10 28  1  0  0  0  0
 11 12  1  0  0  0  0
 12 13  1  0  0  0  0
 12 29  1  0  0  0  0
 12 30  1  0  0  0  0
 13 14  1  0  0  0  0
 13 31  1  0  0  0  0
 14 15  2  0  0  0  0
 14 16  1  0  0  0  0
 16 18  1  0  0  0  0
 16 17  1  0  0  0  0
 16 32  1  0  0  0  0
 17 18  1  0  0  0  0
 17 33  1  0  0  0  0
 17 34  1  0  0  0  0
 18 35  1  0  0  0  0
 18 36  1  0  0  0  0
M  END
> <s_m_source_file>
AV-unprocessed.smi

> <i_m_source_file_index>
1482

> <i_lp_mmshare_version>
43012

> <i_f3d_flags>
0

> <s_epik_input>
W0NIM11PW0NIMl1bQ0gyXU9jMW5bY0hdW2NIXVtjSF1jMVtDSDJdW05IXUMoPU8pW0NIXTJbQ0gyXVtDSDJdMg==

> <s_epik_cmdline>
J2VwaWtfcHl0aG9uJywgJy1waCcsICc3LjAnLCAnLXRuJywgJzgnLCAnLW1hJywgJzIwMCcsICctbWV0YWxfYmluZGluZycsICctaW1hZScsICc8aW5maWxlLm1hZT4nLCAnLW9tYWUnLCAnPG91dGZpbGUubWFlPic=

> <r_lp_tautomer_probability>
1

> <r_epik_Ionization_Penalty>
6.12052e-05

> <r_epik_Ionization_Penalty_Charging>
0

> <r_epik_Ionization_Penalty_Neutral>
6.12052e-05

> <r_epik_State_Penalty>
-0

> <r_epik_Charging_Adjusted_Penalty>
0

> <i_epik_Tot_Q>
0

> <i_epik_Tot_abs_Q>
0

> <r_epik_Metal_State_Penalty>
-0

> <b_epik_Metal_Only>
0

> <s_lp_Force_Field>
OPLS_2005

> <r_lp_Energy>
6.94905

> <b_lp_Chiralities_Consistent>
1

> <s_lp_Variant>
AV-unprocessed.smi:1482-1

> <Gold.Version>
5.8.1

> <Gold.Id.Protein>
6NUR|6NUR_protein|mol2

> <Gold.PLP.Fitness>
42.9481

> <Gold.PLP.PLP>
-35.4363

> <Gold.PLP.part.hbond>
-2.0000

> <Gold.PLP.part.metal>
0.0000

> <Gold.PLP.part.buried>
-6.3659

> <Gold.PLP.part.nonpolar>
-27.6958

> <Gold.PLP.part.repulsive>
0.2461

> <Gold.PLP.ligand.clash>
0.0000

> <Gold.PLP.ligand.torsion>
0.8665

> <Gold.PLP.Chemscore.Hbond>
2.0000

> <Gold.PLP.Chemscore.CHOScore>
1.0000

> <Gold.PLP.Chemscore.Metal>
0.0000

> <Gold.Chemscore.Hbonds>
donor molecule, donor type, donor heavy atom, donor atom, acceptor molecule, acceptor atom, score
      L1  H    13    31       P1  8028  1.00
      P1  H  6934  6946       L1     2  1.00
      L1  C     8    26       P1 10175  1.00

> <Gold.PLP.Chemscore.Internal.Correction>
0.2447

> <Gold.Rescore>
     Score         DG    S(hbond)    S(metal)    S(lipo)     H(rot)  DE(clash)    DE(int)     intcor
     15.05     -15.88       1.98        0.00      80.93       2.21       0.05       0.78       ----

> <Gold.Chemscore.Fitness>
15.0490

> <Gold.Chemscore.DG>
-15.8797

> <Gold.Chemscore.ZeroCoef>
-5.4800

> <Gold.Chemscore.Hbond>
1.9752

> <Gold.Chemscore.Metal>
0.0000

> <Gold.Chemscore.Lipo>
80.9308

> <Gold.Chemscore.Internal_Hbond>
0.0000

> <Gold.Chemscore.DEClash>
0.0483

> <Gold.Chemscore.DEInternal>
0.7825

> <Gold.Chemscore.Rot>
2.2134

> <Gold.Chemscore.Internal.Correction>
   9.000000E+99

> <Gold.Chemscore.Hbonds>
donor molecule, donor type, donor heavy atom, donor atom, acceptor molecule, acceptor atom, score
      L1  H    13    31       P1  8028  1.00
      P1  H  6934  6946       L1     2  0.86

> <Gold.Chemscore.Hbond.Weighted>
-6.5971

> <Gold.Chemscore.Metal.Weighted>
-0.0000

> <Gold.Chemscore.Lipo.Weighted>
-9.4689

> <Gold.Chemscore.Internal_Hbond.Weighted>
0.0000

> <Gold.Chemscore.DEClash.Weighted>
0.0483

> <Gold.Chemscore.DEInternal.Weighted>
0.7825

> <Gold.Chemscore.Rot.Weighted>
5.6663

> <Gold.Chemscore.Internal.Correction.Weighted>
   9.000000E+99

> <Gold.Protein.RotatedTorsions>
[ 6907 6896 6895 6894 ] final -108.80 input  -60.11 | X-H torsion
[ 7974 7965 7964 7962 ] final -103.42 input  175.53 | X-H torsion
[ 8008 7997 7996 7995 ] final   69.10 input   59.86 | X-H torsion
[ 10167 10162 10161 10158 ] final  -95.81 input  -65.29 | X-H torsion
[ 10718 10713 10712 10709 ] final  -78.93 input   66.30 | X-H torsion
[ 10763 10752 10751 10750 ] final  -48.61 input  -60.55 | X-H torsion
[ 11005 11000 10999 10996 ] final  101.32 input  -57.11 | X-H torsion

> <Gold.Protein.ActiveResidues>
 VAL166  LYS551  ARG553  GLY616  TRP617  ASP618  TYR619  PRO620  LYS621  CYS622 
 ASP623  PHE694  ASN695  SER759  ASP760  ASP761  ALA762  ILE779  LEU786  VAL792 
 PHE793  MET794  SER795  GLU796  ALA797  LYS798  CYS799  TRP800  GLU811  SER814 

> <Gold.Protein.RotatedAtoms>
  150.7523  133.9624  159.3519 H   0  0  0  0  0  0  0  0  0  0  0  0  # atno 6907 bound_to 6896
  151.7551  135.0821  160.0346 H   0  0  0  0  0  0  0  0  0  0  0  0  # atno 6908 bound_to 6896
  152.3441  133.6064  159.5933 H   0  0  0  0  0  0  0  0  0  0  0  0  # atno 6909 bound_to 6896
  145.2561  140.9254  143.3067 H   0  0  0  0  0  0  0  0  0  0  0  0  # atno 7974 bound_to 7965
  155.7184  140.3493  155.5005 H   0  0  0  0  0  0  0  0  0  0  0  0  # atno 8008 bound_to 7997
  155.9292  140.1081  157.1167 H   0  0  0  0  0  0  0  0  0  0  0  0  # atno 8009 bound_to 7997
  154.4082  140.1234  156.4767 H   0  0  0  0  0  0  0  0  0  0  0  0  # atno 8010 bound_to 7997
  140.3003  143.3167  152.0255 H   0  0  0  0  0  0  0  0  0  0  0  0  # atno 10167 bound_to 10162
  156.0105  130.4531  150.3571 H   0  0  0  0  0  0  0  0  0  0  0  0  # atno 10718 bound_to 10713
  154.0806  135.6591  153.4837 H   0  0  0  0  0  0  0  0  0  0  0  0  # atno 10763 bound_to 10752
  153.0357  135.5179  154.7477 H   0  0  0  0  0  0  0  0  0  0  0  0  # atno 10764 bound_to 10752
  154.6571  135.3009  154.9882 H   0  0  0  0  0  0  0  0  0  0  0  0  # atno 10765 bound_to 10752
  139.8773  134.9178  156.4889 H   0  0  0  0  0  0  0  0  0  0  0  0  # atno 11005 bound_to 11000
  144.9460  139.4136  143.6426 LP  0  0  0  0  0  0  0  0  0  0  0  0  # atno 17320 bound_to 7965
  146.3289  139.8443  142.8884 LP  0  0  0  0  0  0  0  0  0  0  0  0  # atno 17321 bound_to 7965
  139.4917  144.6461  151.6775 LP  0  0  0  0  0  0  0  0  0  0  0  0  # atno 17342 bound_to 10162
  140.5657  144.0194  150.6191 LP  0  0  0  0  0  0  0  0  0  0  0  0  # atno 17343 bound_to 10162
  157.1661  131.0357  151.2818 LP  0  0  0  0  0  0  0  0  0  0  0  0  # atno 17370 bound_to 10713
  157.4269  130.7469  149.6958 LP  0  0  0  0  0  0  0  0  0  0  0  0  # atno 17371 bound_to 10713
  140.8673  133.8015  155.9327 LP  0  0  0  0  0  0  0  0  0  0  0  0  # atno 17394 bound_to 11000
  140.8989  134.2403  157.5053 LP  0  0  0  0  0  0  0  0  0  0  0  0  # atno 17395 bound_to 11000

$$$$
