AV-unprocessed.smi:3286|AV-procd|sdf|12589|dock6
  -GOLD-   2272018513D 1   1.00000     0.00000
 Structure written by MMmdl.
 43 44  0  0  0  0  0  0  0  0  2 V2000
  153.0158  142.6129  163.4713 C   0  0  0  0  0  0  0  0  0  0  0  0
  152.5422  142.9540  162.0740 C   0  0  0  0  0  0  0  0  0  0  0  0
  152.7806  142.0788  160.9932 C   0  0  0  0  0  0  0  0  0  0  0  0
  152.3184  142.4489  159.7158 C   0  0  0  0  0  0  0  0  0  0  0  0
  151.6382  143.6755  159.5678 C   0  0  0  0  0  0  0  0  0  0  0  0
  151.1154  144.1186  158.2159 C   0  0  0  0  0  0  0  0  0  0  0  0
  151.4276  143.0970  157.1150 C   0  0  0  0  0  0  0  0  0  0  0  0
  150.1886  142.4902  156.5879 N   0  3  0  0  0  0  0  0  0  0  0  0
  150.3935  141.2859  155.7507 C   0  0  1  0  0  0  0  0  0  0  0  0
  151.1915  140.2574  156.5702 C   0  0  0  0  0  0  0  0  0  0  0  0
  149.0301  140.7415  155.2482 C   0  0  0  0  0  0  0  0  0  0  0  0
  149.1631  139.4157  154.4701 C   0  0  0  0  0  0  0  0  0  0  0  0
  147.8077  138.9560  153.9080 C   0  0  0  0  0  0  0  0  0  0  0  0
  147.2524  139.9707  153.0810 O   0  0  0  0  0  0  0  0  0  0  0  0
  146.9878  141.1727  153.7921 C   0  0  0  0  0  0  0  0  0  0  0  0
  148.3012  141.7540  154.3387 C   0  0  0  0  0  0  0  0  0  0  0  0
  151.4524  144.4781  160.7132 C   0  0  0  0  0  0  0  0  0  0  0  0
  151.8906  144.1303  161.9418 N   0  0  0  0  0  0  0  0  0  0  0  0
  153.5349  141.6542  163.4912 H   0  0  0  0  0  0  0  0  0  0  0  0
  152.1687  142.5555  164.1552 H   0  0  0  0  0  0  0  0  0  0  0  0
  153.7012  143.3783  163.8365 H   0  0  0  0  0  0  0  0  0  0  0  0
  153.3056  141.1457  161.1371 H   0  0  0  0  0  0  0  0  0  0  0  0
  152.4830  141.8008  158.8675 H   0  0  0  0  0  0  0  0  0  0  0  0
  150.0382  144.2762  158.2875 H   0  0  0  0  0  0  0  0  0  0  0  0
  151.5530  145.0863  157.9664 H   0  0  0  0  0  0  0  0  0  0  0  0
  151.9666  143.5821  156.3001 H   0  0  0  0  0  0  0  0  0  0  0  0
  152.0727  142.3092  157.5070 H   0  0  0  0  0  0  0  0  0  0  0  0
  149.6012  142.2378  157.3698 H   0  0  0  0  0  0  0  0  0  0  0  0
  150.9990  141.5515  154.8821 H   0  0  0  0  0  0  0  0  0  0  0  0
  151.4967  139.4044  155.9647 H   0  0  0  0  0  0  0  0  0  0  0  0
  150.6097  139.8815  157.4128 H   0  0  0  0  0  0  0  0  0  0  0  0
  152.1046  140.7005  156.9695 H   0  0  0  0  0  0  0  0  0  0  0  0
  148.3973  140.5536  156.1175 H   0  0  0  0  0  0  0  0  0  0  0  0
  149.8729  139.5354  153.6505 H   0  0  0  0  0  0  0  0  0  0  0  0
  149.5555  138.6273  155.1121 H   0  0  0  0  0  0  0  0  0  0  0  0
  147.9366  138.0513  153.3134 H   0  0  0  0  0  0  0  0  0  0  0  0
  147.1154  138.7094  154.7146 H   0  0  0  0  0  0  0  0  0  0  0  0
  146.5168  141.8853  153.1143 H   0  0  0  0  0  0  0  0  0  0  0  0
  146.2775  140.9847  154.5990 H   0  0  0  0  0  0  0  0  0  0  0  0
  148.0813  142.6738  154.8808 H   0  0  0  0  0  0  0  0  0  0  0  0
  148.9450  142.0319  153.5031 H   0  0  0  0  0  0  0  0  0  0  0  0
  150.9347  145.4236  160.6436 H   0  0  0  0  0  0  0  0  0  0  0  0
  149.7028  143.1812  156.0342 H   0  0  0  0  0  0  0  0  0  0  0  0
  1  2  1  0  0  0  0
  1 19  1  0  0  0  0
  1 20  1  0  0  0  0
  1 21  1  0  0  0  0
  2 18  1  0  0  0  0
  2  3  2  0  0  0  0
  3  4  1  0  0  0  0
  3 22  1  0  0  0  0
  4  5  2  0  0  0  0
  4 23  1  0  0  0  0
  5  6  1  0  0  0  0
  5 17  1  0  0  0  0
  6  7  1  0  0  0  0
  6 24  1  0  0  0  0
  6 25  1  0  0  0  0
  7  8  1  0  0  0  0
  7 26  1  0  0  0  0
  7 27  1  0  0  0  0
  8  9  1  0  0  0  0
  8 28  1  0  0  0  0
  8 43  1  0  0  0  0
  9 10  1  0  0  0  0
  9 11  1  0  0  0  0
  9 29  1  0  0  0  0
 10 30  1  0  0  0  0
 10 31  1  0  0  0  0
 10 32  1  0  0  0  0
 11 16  1  0  0  0  0
 11 12  1  0  0  0  0
 11 33  1  0  0  0  0
 12 13  1  0  0  0  0
 12 34  1  0  0  0  0
 12 35  1  0  0  0  0
 13 14  1  0  0  0  0
 13 36  1  0  0  0  0
 13 37  1  0  0  0  0
 14 15  1  0  0  0  0
 15 16  1  0  0  0  0
 15 38  1  0  0  0  0
 15 39  1  0  0  0  0
 16 40  1  0  0  0  0
 16 41  1  0  0  0  0
 17 18  2  0  0  0  0
 17 42  1  0  0  0  0
M  CHG  1   8   1
M  END
> <s_m_source_file>
AV-unprocessed.smi

> <i_m_source_file_index>
3286

> <i_lp_mmshare_version>
43012

> <i_f3d_flags>
0

> <s_epik_input>
W0NIM11jMVtjSF1bY0hdYyhbY0hdbjEpW0NIMl1bQ0gyXVtOSF1bQ0BIXShbQ0gzXSlbQ0hdMltDSDJdW0NIMl1PW0NIMl1bQ0gyXTI=

> <s_epik_cmdline>
J2VwaWtfcHl0aG9uJywgJy1waCcsICc3LjAnLCAnLXRuJywgJzgnLCAnLW1hJywgJzIwMCcsICctbWV0YWxfYmluZGluZycsICctaW1hZScsICc8aW5maWxlLm1hZT4nLCAnLW9tYWUnLCAnPG91dGZpbGUubWFlPic=

> <r_lp_tautomer_probability>
1

> <r_epik_Ionization_Penalty>
0.00336271

> <r_epik_Ionization_Penalty_Charging>
0.000752246

> <r_epik_Ionization_Penalty_Neutral>
0.00261046

> <r_epik_State_Penalty>
-0

> <r_epik_Charging_Adjusted_Penalty>
0.000752246

> <i_epik_Tot_Q>
1

> <i_epik_Tot_abs_Q>
1

> <r_epik_Metal_State_Penalty>
-0

> <b_epik_Metal_Only>
0

> <s_lp_Force_Field>
OPLS_2005

> <r_lp_Energy>
16.504

> <b_lp_Chiralities_Consistent>
1

> <s_lp_Variant>
AV-unprocessed.smi:3286-2

> <Gold.Version>
5.8.1

> <Gold.Id.Protein>
6NUR|6NUR_protein|mol2

> <Gold.PLP.Fitness>
51.0389

> <Gold.PLP.PLP>
-45.8677

> <Gold.PLP.part.hbond>
-1.0000

> <Gold.PLP.part.metal>
0.0000

> <Gold.PLP.part.buried>
-4.5020

> <Gold.PLP.part.nonpolar>
-40.6891

> <Gold.PLP.part.repulsive>
1.2998

> <Gold.PLP.ligand.clash>
0.0000

> <Gold.PLP.ligand.torsion>
0.4374

> <Gold.PLP.Chemscore.Hbond>
2.0000

> <Gold.PLP.Chemscore.CHOScore>
0.0000

> <Gold.PLP.Chemscore.Metal>
0.0000

> <Gold.Chemscore.Hbonds>
donor molecule, donor type, donor heavy atom, donor atom, acceptor molecule, acceptor atom, score
      L1  H     8    43       P1  8028  2.00

> <Gold.PLP.Chemscore.Internal.Correction>
0.0461

> <Gold.Rescore>
     Score         DG    S(hbond)    S(metal)    S(lipo)     H(rot)  DE(clash)    DE(int)     intcor
     20.53     -21.22       0.99        0.00     137.50       1.43       0.13       0.57       ----

> <Gold.Chemscore.Fitness>
20.5276

> <Gold.Chemscore.DG>
-21.2245

> <Gold.Chemscore.ZeroCoef>
-5.4800

> <Gold.Chemscore.Hbond>
0.9948

> <Gold.Chemscore.Metal>
0.0000

> <Gold.Chemscore.Lipo>
137.4955

> <Gold.Chemscore.Internal_Hbond>
0.0000

> <Gold.Chemscore.DEClash>
0.1262

> <Gold.Chemscore.DEInternal>
0.5707

> <Gold.Chemscore.Rot>
1.4317

> <Gold.Chemscore.Internal.Correction>
   9.000000E+99

> <Gold.Chemscore.Hbonds>
donor molecule, donor type, donor heavy atom, donor atom, acceptor molecule, acceptor atom, score
      L1  H     8    43       P1  8028  0.99

> <Gold.Chemscore.Hbond.Weighted>
-3.3226

> <Gold.Chemscore.Metal.Weighted>
-0.0000

> <Gold.Chemscore.Lipo.Weighted>
-16.0870

> <Gold.Chemscore.Internal_Hbond.Weighted>
0.0000

> <Gold.Chemscore.DEClash.Weighted>
0.1262

> <Gold.Chemscore.DEInternal.Weighted>
0.5707

> <Gold.Chemscore.Rot.Weighted>
3.6651

> <Gold.Chemscore.Internal.Correction.Weighted>
   9.000000E+99

> <Gold.Protein.RotatedTorsions>
[ 6907 6896 6895 6894 ] final  -39.98 input  -60.11 | X-H torsion
[ 7974 7965 7964 7962 ] final   30.90 input  175.53 | X-H torsion
[ 8008 7997 7996 7995 ] final   71.80 input   59.86 | X-H torsion
[ 10167 10162 10161 10158 ] final  124.75 input  -65.29 | X-H torsion
[ 10718 10713 10712 10709 ] final -170.22 input   66.30 | X-H torsion
[ 10763 10752 10751 10750 ] final  -50.93 input  -60.55 | X-H torsion
[ 11005 11000 10999 10996 ] final   -9.30 input  -57.11 | X-H torsion

> <Gold.Protein.ActiveResidues>
 VAL166  LYS551  ARG553  GLY616  TRP617  ASP618  TYR619  PRO620  LYS621  CYS622 
 ASP623  PHE694  ASN695  SER759  ASP760  ASP761  ALA762  ILE779  LEU786  VAL792 
 PHE793  MET794  SER795  GLU796  ALA797  LYS798  CYS799  TRP800  GLU811  SER814 

> <Gold.Protein.RotatedAtoms>
  150.9839  134.9189  159.7860 H   0  0  0  0  0  0  0  0  0  0  0  0  # atno 6907 bound_to 6896
  152.5230  134.3373  159.9214 H   0  0  0  0  0  0  0  0  0  0  0  0  # atno 6908 bound_to 6896
  151.3379  133.3933  159.2703 H   0  0  0  0  0  0  0  0  0  0  0  0  # atno 6909 bound_to 6896
  146.1583  139.6727  142.9051 H   0  0  0  0  0  0  0  0  0  0  0  0  # atno 7974 bound_to 7965
  155.7593  140.3487  155.5190 H   0  0  0  0  0  0  0  0  0  0  0  0  # atno 8008 bound_to 7997
  155.8929  140.1021  157.1426 H   0  0  0  0  0  0  0  0  0  0  0  0  # atno 8009 bound_to 7997
  154.4035  140.1301  156.4326 H   0  0  0  0  0  0  0  0  0  0  0  0  # atno 8010 bound_to 7997
  139.5724  144.6946  151.3743 H   0  0  0  0  0  0  0  0  0  0  0  0  # atno 10167 bound_to 10162
  156.7229  130.9277  151.3099 H   0  0  0  0  0  0  0  0  0  0  0  0  # atno 10718 bound_to 10713
  154.1184  135.6538  153.4898 H   0  0  0  0  0  0  0  0  0  0  0  0  # atno 10763 bound_to 10752
  153.0233  135.5264  154.7121 H   0  0  0  0  0  0  0  0  0  0  0  0  # atno 10764 bound_to 10752
  154.6322  135.2977  155.0173 H   0  0  0  0  0  0  0  0  0  0  0  0  # atno 10765 bound_to 10752
  140.7326  133.8736  155.8905 H   0  0  0  0  0  0  0  0  0  0  0  0  # atno 11005 bound_to 11000
  145.4652  141.0434  143.2729 LP  0  0  0  0  0  0  0  0  0  0  0  0  # atno 17320 bound_to 7965
  144.7993  139.6172  143.7079 LP  0  0  0  0  0  0  0  0  0  0  0  0  # atno 17321 bound_to 7965
  140.7008  143.7636  150.7400 LP  0  0  0  0  0  0  0  0  0  0  0  0  # atno 17342 bound_to 10162
  140.1146  143.4668  152.2350 LP  0  0  0  0  0  0  0  0  0  0  0  0  # atno 17343 bound_to 10162
  157.6890  130.9215  150.0464 LP  0  0  0  0  0  0  0  0  0  0  0  0  # atno 17370 bound_to 10713
  156.1582  130.3643  149.9338 LP  0  0  0  0  0  0  0  0  0  0  0  0  # atno 17371 bound_to 10713
  140.9907  134.1282  157.4410 LP  0  0  0  0  0  0  0  0  0  0  0  0  # atno 17394 bound_to 11000
  139.8823  135.0039  156.6218 LP  0  0  0  0  0  0  0  0  0  0  0  0  # atno 17395 bound_to 11000

$$$$
