AV-unprocessed.smi:573|AV-procd|sdf|2974|dock2
  -GOLD-   2262023483D 1   1.00000     0.00000
 Structure written by MMmdl.
 44 46  0  0  0  0  0  0  0  0  1 V2000
  151.4506  137.8498  154.4510 C   0  0  0  0  0  0  0  0  0  0  0  0
  151.0104  137.2243  155.7809 C   0  0  1  0  0  0  0  0  0  0  0  0
  151.6426  135.9655  155.8817 O   0  0  0  0  0  0  0  0  0  0  0  0
  151.4215  138.0909  156.9843 C   0  0  0  0  0  0  0  0  0  0  0  0
  151.2520  139.5100  156.7270 N   0  0  0  0  0  0  0  0  0  0  0  0
  151.4878  140.6403  157.5009 C   0  0  0  0  0  0  0  0  0  0  0  0
  151.9623  140.6064  158.7446 N   0  0  0  0  0  0  0  0  0  0  0  0
  152.0261  141.9481  159.0710 C   0  0  0  0  0  0  0  0  0  0  0  0
  152.4502  142.5835  160.2600 C   0  0  0  0  0  0  0  0  0  0  0  0
  152.4311  143.9899  160.3639 C   0  0  0  0  0  0  0  0  0  0  0  0
  151.9900  144.7797  159.2825 C   0  0  0  0  0  0  0  0  0  0  0  0
  151.5609  144.1676  158.0890 C   0  0  0  0  0  0  0  0  0  0  0  0
  151.5789  142.7634  157.9907 C   0  0  0  0  0  0  0  0  0  0  0  0
  151.2304  141.8656  156.9858 N   0  0  0  0  0  0  0  0  0  0  0  0
  150.7090  142.1964  155.6669 C   0  0  0  0  0  0  0  0  0  0  0  0
  149.3749  141.4882  155.3803 C   0  0  1  0  0  0  0  0  0  0  0  0
  148.3195  141.7912  156.4606 C   0  0  0  0  0  0  0  0  0  0  0  0
  146.9813  141.1331  156.1065 C   0  0  0  0  0  0  0  0  0  0  0  0
  146.5660  141.5389  154.6884 C   0  0  0  0  0  0  0  0  0  0  0  0
  147.7036  141.2511  153.6960 C   0  0  0  0  0  0  0  0  0  0  0  0
  148.8899  141.9210  154.1101 O   0  0  0  0  0  0  0  0  0  0  0  0
  150.9842  138.8242  154.3032 H   0  0  0  0  0  0  0  0  0  0  0  0
  151.1683  137.2195  153.6069 H   0  0  0  0  0  0  0  0  0  0  0  0
  152.5315  137.9907  154.4156 H   0  0  0  0  0  0  0  0  0  0  0  0
  149.9286  137.0837  155.7644 H   0  0  0  0  0  0  0  0  0  0  0  0
  151.1197  135.4142  156.4447 H   0  0  0  0  0  0  0  0  0  0  0  0
  150.8772  137.8021  157.8844 H   0  0  0  0  0  0  0  0  0  0  0  0
  152.4797  137.9386  157.1984 H   0  0  0  0  0  0  0  0  0  0  0  0
  150.8805  139.7073  155.8091 H   0  0  0  0  0  0  0  0  0  0  0  0
  152.7920  141.9876  161.0933 H   0  0  0  0  0  0  0  0  0  0  0  0
  152.7580  144.4648  161.2773 H   0  0  0  0  0  0  0  0  0  0  0  0
  151.9816  145.8564  159.3692 H   0  0  0  0  0  0  0  0  0  0  0  0
  151.2254  144.7701  157.2579 H   0  0  0  0  0  0  0  0  0  0  0  0
  150.5940  143.2781  155.5912 H   0  0  0  0  0  0  0  0  0  0  0  0
  151.4521  141.9166  154.9194 H   0  0  0  0  0  0  0  0  0  0  0  0
  149.5515  140.4116  155.3418 H   0  0  0  0  0  0  0  0  0  0  0  0
  148.6613  141.4381  157.4339 H   0  0  0  0  0  0  0  0  0  0  0  0
  148.1823  142.8697  156.5490 H   0  0  0  0  0  0  0  0  0  0  0  0
  147.0780  140.0482  156.1652 H   0  0  0  0  0  0  0  0  0  0  0  0
  146.2137  141.4196  156.8259 H   0  0  0  0  0  0  0  0  0  0  0  0
  145.6615  141.0069  154.3923 H   0  0  0  0  0  0  0  0  0  0  0  0
  146.3254  142.6026  154.6672 H   0  0  0  0  0  0  0  0  0  0  0  0
  147.8881  140.1787  153.6149 H   0  0  0  0  0  0  0  0  0  0  0  0
  147.4303  141.6029  152.7012 H   0  0  0  0  0  0  0  0  0  0  0  0
  1  2  1  0  0  0  0
  1 22  1  0  0  0  0
  1 23  1  0  0  0  0
  1 24  1  0  0  0  0
  2  3  1  0  0  0  0
  2  4  1  0  0  0  0
  2 25  1  0  0  0  0
  3 26  1  0  0  0  0
  4  5  1  0  0  0  0
  4 27  1  0  0  0  0
  4 28  1  0  0  0  0
  5  6  1  0  0  0  0
  5 29  1  0  0  0  0
  6 14  1  0  0  0  0
  6  7  2  0  0  0  0
  7  8  1  0  0  0  0
  8 13  2  0  0  0  0
  8  9  1  0  0  0  0
  9 10  2  0  0  0  0
  9 30  1  0  0  0  0
 10 11  1  0  0  0  0
 10 31  1  0  0  0  0
 11 12  2  0  0  0  0
 11 32  1  0  0  0  0
 12 13  1  0  0  0  0
 12 33  1  0  0  0  0
 13 14  1  0  0  0  0
 14 15  1  0  0  0  0
 15 16  1  0  0  0  0
 15 34  1  0  0  0  0
 15 35  1  0  0  0  0
 16 21  1  0  0  0  0
 16 17  1  0  0  0  0
 16 36  1  0  0  0  0
 17 18  1  0  0  0  0
 17 37  1  0  0  0  0
 17 38  1  0  0  0  0
 18 19  1  0  0  0  0
 18 39  1  0  0  0  0
 18 40  1  0  0  0  0
 19 20  1  0  0  0  0
 19 41  1  0  0  0  0
 19 42  1  0  0  0  0
 20 21  1  0  0  0  0
 20 43  1  0  0  0  0
 20 44  1  0  0  0  0
M  END
> <s_m_source_file>
AV-unprocessed.smi

> <i_m_source_file_index>
573

> <i_lp_mmshare_version>
43012

> <i_f3d_flags>
0

> <s_epik_input>
W0NIM11bQ0BIXShbT0hdKVtDSDJdW05IXWMobjEpbihjKGMxMilbY0hdW2NIXVtjSF1bY0hdMilbQ0gyXVtDQEBIXTNbQ0gyXVtDSDJdW0NIMl1bQ0gyXU8z

> <s_epik_cmdline>
J2VwaWtfcHl0aG9uJywgJy1waCcsICc3LjAnLCAnLXRuJywgJzgnLCAnLW1hJywgJzIwMCcsICctbWV0YWxfYmluZGluZycsICctaW1hZScsICc8aW5maWxlLm1hZT4nLCAnLW9tYWUnLCAnPG91dGZpbGUubWFlPic=

> <r_epik_Ionization_Penalty>
1.30635

> <r_epik_Ionization_Penalty_Charging>
0

> <r_epik_Ionization_Penalty_Neutral>
1.30635

> <r_epik_State_Penalty>
1.38073

> <r_epik_Charging_Adjusted_Penalty>
1.38073

> <i_epik_Tot_Q>
0

> <i_epik_Tot_abs_Q>
0

> <r_epik_Metal_State_Penalty>
0.00547412

> <b_epik_Metal_Only>
0

> <s_lp_Force_Field>
OPLS_2005

> <r_lp_Energy>
9.01344

> <b_lp_Chiralities_Consistent>
1

> <s_lp_Variant>
AV-unprocessed.smi:573-8

> <Gold.Version>
5.8.1

> <Gold.Id.Protein>
6NUR|6NUR_protein|mol2

> <Gold.PLP.Fitness>
44.6006

> <Gold.PLP.PLP>
-40.5153

> <Gold.PLP.part.hbond>
-2.0306

> <Gold.PLP.part.metal>
0.0000

> <Gold.PLP.part.buried>
-4.7425

> <Gold.PLP.part.nonpolar>
-33.3378

> <Gold.PLP.part.repulsive>
0.2697

> <Gold.PLP.ligand.clash>
0.0000

> <Gold.PLP.ligand.torsion>
0.2342

> <Gold.PLP.Chemscore.Hbond>
1.5075

> <Gold.PLP.Chemscore.CHOScore>
0.0000

> <Gold.PLP.Chemscore.Metal>
0.0000

> <Gold.Chemscore.Hbonds>
donor molecule, donor type, donor heavy atom, donor atom, acceptor molecule, acceptor atom, score
      P1  H  8011  8017       L1    21  0.43
      P1  H 10752 10763       L1     3  1.00

> <Gold.PLP.Chemscore.Internal.Correction>
0.0311

> <Gold.Rescore>
     Score         DG    S(hbond)    S(metal)    S(lipo)     H(rot)  DE(clash)    DE(int)     intcor
     17.44     -19.04       1.45        0.00     118.69       2.02       1.28       0.31       ----

> <Gold.Chemscore.Fitness>
17.4432

> <Gold.Chemscore.DG>
-19.0374

> <Gold.Chemscore.ZeroCoef>
-5.4800

> <Gold.Chemscore.Hbond>
1.4513

> <Gold.Chemscore.Metal>
0.0000

> <Gold.Chemscore.Lipo>
118.6948

> <Gold.Chemscore.Internal_Hbond>
0.0000

> <Gold.Chemscore.DEClash>
1.2842

> <Gold.Chemscore.DEInternal>
0.3099

> <Gold.Chemscore.Rot>
2.0224

> <Gold.Chemscore.Internal.Correction>
   9.000000E+99

> <Gold.Chemscore.Hbonds>
donor molecule, donor type, donor heavy atom, donor atom, acceptor molecule, acceptor atom, score
      P1  H  8011  8017       L1    21  0.18
      P1  H 10752 10763       L1     3  1.00

> <Gold.Chemscore.Hbond.Weighted>
-4.8474

> <Gold.Chemscore.Metal.Weighted>
-0.0000

> <Gold.Chemscore.Lipo.Weighted>
-13.8873

> <Gold.Chemscore.Internal_Hbond.Weighted>
0.0000

> <Gold.Chemscore.DEClash.Weighted>
1.2842

> <Gold.Chemscore.DEInternal.Weighted>
0.3099

> <Gold.Chemscore.Rot.Weighted>
5.1773

> <Gold.Chemscore.Internal.Correction.Weighted>
   9.000000E+99

> <Gold.Protein.RotatedTorsions>
[ 6907 6896 6895 6894 ] final   -6.11 input  -60.11 | X-H torsion
[ 7974 7965 7964 7962 ] final  -15.27 input  175.53 | X-H torsion
[ 8008 7997 7996 7995 ] final  -50.51 input   59.86 | X-H torsion
[ 10167 10162 10161 10158 ] final  111.00 input  -65.29 | X-H torsion
[ 10718 10713 10712 10709 ] final   53.56 input   66.30 | X-H torsion
[ 10763 10752 10751 10750 ] final   87.21 input  -60.55 | X-H torsion
[ 11005 11000 10999 10996 ] final   -5.45 input  -57.11 | X-H torsion

> <Gold.Protein.ActiveResidues>
 VAL166  LYS551  ARG553  GLY616  TRP617  ASP618  TYR619  PRO620  LYS621  CYS622 
 ASP623  PHE694  ASN695  SER759  ASP760  ASP761  ALA762  ILE779  LEU786  VAL792 
 PHE793  MET794  SER795  GLU796  ALA797  LYS798  CYS799  TRP800  GLU811  SER814 

> <Gold.Protein.RotatedAtoms>
  151.4707  135.1045  159.9750 H   0  0  0  0  0  0  0  0  0  0  0  0  # atno 6907 bound_to 6896
  152.4817  133.8267  159.7092 H   0  0  0  0  0  0  0  0  0  0  0  0  # atno 6908 bound_to 6896
  150.8894  133.7202  159.2935 H   0  0  0  0  0  0  0  0  0  0  0  0  # atno 6909 bound_to 6896
  146.2039  140.3469  142.8414 H   0  0  0  0  0  0  0  0  0  0  0  0  # atno 7974 bound_to 7965
  154.4063  140.1270  156.4678 H   0  0  0  0  0  0  0  0  0  0  0  0  # atno 8008 bound_to 7997
  155.7209  140.3492  155.4996 H   0  0  0  0  0  0  0  0  0  0  0  0  # atno 8009 bound_to 7997
  155.9215  140.1053  157.1193 H   0  0  0  0  0  0  0  0  0  0  0  0  # atno 8010 bound_to 7997
  139.6645  144.7128  151.1803 H   0  0  0  0  0  0  0  0  0  0  0  0  # atno 10167 bound_to 10162
  157.5178  130.8544  149.8519 H   0  0  0  0  0  0  0  0  0  0  0  0  # atno 10718 bound_to 10713
  153.1646  135.4552  154.9819 H   0  0  0  0  0  0  0  0  0  0  0  0  # atno 10763 bound_to 10752
  154.7922  135.3224  154.7753 H   0  0  0  0  0  0  0  0  0  0  0  0  # atno 10764 bound_to 10752
  153.8238  135.6944  153.4878 H   0  0  0  0  0  0  0  0  0  0  0  0  # atno 10765 bound_to 10752
  140.6913  133.9069  155.8620 H   0  0  0  0  0  0  0  0  0  0  0  0  # atno 11005 bound_to 11000
  144.8746  140.7319  143.6025 LP  0  0  0  0  0  0  0  0  0  0  0  0  # atno 17320 bound_to 7965
  145.3388  139.1738  143.4497 LP  0  0  0  0  0  0  0  0  0  0  0  0  # atno 17321 bound_to 7965
  140.7594  143.5941  150.8766 LP  0  0  0  0  0  0  0  0  0  0  0  0  # atno 17342 bound_to 10162
  139.9601  143.6173  152.3004 LP  0  0  0  0  0  0  0  0  0  0  0  0  # atno 17343 bound_to 10162
  156.0332  130.3758  150.1630 LP  0  0  0  0  0  0  0  0  0  0  0  0  # atno 17370 bound_to 10713
  156.9818  130.9866  151.3435 LP  0  0  0  0  0  0  0  0  0  0  0  0  # atno 17371 bound_to 10713
  141.0239  134.0851  157.4090 LP  0  0  0  0  0  0  0  0  0  0  0  0  # atno 17394 bound_to 11000
  139.8923  135.0123  156.6836 LP  0  0  0  0  0  0  0  0  0  0  0  0  # atno 17395 bound_to 11000

$$$$
