AV-unprocessed.smi:878|AV-procd|sdf|4032|dock2
  -GOLD-   22720 1523D 1   1.00000     0.00000
 Structure written by MMmdl.
 32 33  0  0  0  0  0  0  0  0  2 V2000
  151.8334  145.7195  159.9167 C   0  0  0  0  0  0  0  0  0  0  0  0
  152.6686  144.1687  160.3480 S   0  0  0  0  0  0  0  0  0  0  0  0
  152.2756  142.9673  159.1090 C   0  0  0  0  0  0  0  0  0  0  0  0
  152.7093  141.6288  159.2137 C   0  0  0  0  0  0  0  0  0  0  0  0
  152.3820  140.6982  158.2078 C   0  0  0  0  0  0  0  0  0  0  0  0
  151.6138  141.0939  157.0842 C   0  0  0  0  0  0  0  0  0  0  0  0
  151.2462  140.2502  156.0592 O   0  0  0  0  0  0  0  0  0  0  0  0
  151.8753  138.9792  155.9699 C   0  0  0  0  0  0  0  0  0  0  0  0
  150.8022  137.8802  155.9106 C   0  0  0  0  0  0  0  0  0  0  0  0
  150.1976  137.6359  157.2281 N   0  0  0  0  0  0  0  0  0  0  0  0
  148.8183  137.8701  157.3584 C   0  0  0  0  0  0  0  0  0  0  0  0
  148.1673  137.6840  158.5230 C   0  0  0  0  0  0  0  0  0  0  0  0
  146.4706  137.9833  158.6534 Cl  0  0  0  0  0  0  0  0  0  0  0  0
  148.9405  137.2238  159.6747 C   0  0  0  0  0  0  0  0  0  0  0  0
  148.3770  137.0406  160.7528 O   0  0  0  0  0  0  0  0  0  0  0  0
  150.2779  137.0150  159.4975 N   0  5  0  0  0  0  0  0  0  0  0  0
  150.9226  137.2116  158.3059 C   0  0  0  0  0  0  0  0  0  0  0  0
  152.1314  137.0188  158.1745 O   0  0  0  0  0  0  0  0  0  0  0  0
  151.1855  142.4334  156.9918 C   0  0  0  0  0  0  0  0  0  0  0  0
  151.5151  143.3660  157.9935 C   0  0  0  0  0  0  0  0  0  0  0  0
  152.1070  146.4993  160.6274 H   0  0  0  0  0  0  0  0  0  0  0  0
  150.7509  145.5962  159.9464 H   0  0  0  0  0  0  0  0  0  0  0  0
  152.1258  146.0460  158.9186 H   0  0  0  0  0  0  0  0  0  0  0  0
  153.2965  141.2970  160.0553 H   0  0  0  0  0  0  0  0  0  0  0  0
  152.7311  139.6834  158.3229 H   0  0  0  0  0  0  0  0  0  0  0  0
  152.5150  138.9267  155.0871 H   0  0  0  0  0  0  0  0  0  0  0  0
  152.5017  138.8177  156.8482 H   0  0  0  0  0  0  0  0  0  0  0  0
  150.0209  138.1817  155.2115 H   0  0  0  0  0  0  0  0  0  0  0  0
  151.2224  136.9680  155.4847 H   0  0  0  0  0  0  0  0  0  0  0  0
  148.3273  138.2125  156.4590 H   0  0  0  0  0  0  0  0  0  0  0  0
  150.6003  142.7495  156.1406 H   0  0  0  0  0  0  0  0  0  0  0  0
  151.1802  144.3889  157.9028 H   0  0  0  0  0  0  0  0  0  0  0  0
  1  2  1  0  0  0  0
  1 21  1  0  0  0  0
  1 22  1  0  0  0  0
  1 23  1  0  0  0  0
  2  3  1  0  0  0  0
  3 20  1  0  0  0  0
  3  4  2  0  0  0  0
  4  5  1  0  0  0  0
  4 24  1  0  0  0  0
  5  6  2  0  0  0  0
  5 25  1  0  0  0  0
  6  7  1  0  0  0  0
  6 19  1  0  0  0  0
  7  8  1  0  0  0  0
  8  9  1  0  0  0  0
  8 26  1  0  0  0  0
  8 27  1  0  0  0  0
  9 10  1  0  0  0  0
  9 28  1  0  0  0  0
  9 29  1  0  0  0  0
 10 17  1  0  0  0  0
 10 11  1  0  0  0  0
 11 12  2  0  0  0  0
 11 30  1  0  0  0  0
 12 13  1  0  0  0  0
 12 14  1  0  0  0  0
 14 15  2  0  0  0  0
 14 16  1  0  0  0  0
 16 17  1  0  0  0  0
 17 18  2  0  0  0  0
 19 20  2  0  0  0  0
 19 31  1  0  0  0  0
 20 32  1  0  0  0  0
M  CHG  1  16  -1
M  END
> <s_m_source_file>
AV-unprocessed.smi

> <i_m_source_file_index>
878

> <i_lp_mmshare_version>
43012

> <i_f3d_flags>
0

> <s_epik_input>
W0NIM11TYzFbY0hdW2NIXWMoW2NIXVtjSF0xKU9bQ0gyXVtDSDJdbjJbY0hdYyhDbCljKD1PKVtuSF1jMj1P

> <s_epik_cmdline>
J2VwaWtfcHl0aG9uJywgJy1waCcsICc3LjAnLCAnLXRuJywgJzgnLCAnLW1hJywgJzIwMCcsICctbWV0YWxfYmluZGluZycsICctaW1hZScsICc8aW5maWxlLm1hZT4nLCAnLW9tYWUnLCAnPG91dGZpbGUubWFlPic=

> <r_lp_tautomer_probability>
1

> <r_epik_Ionization_Penalty>
1.65349

> <r_epik_Ionization_Penalty_Charging>
1.22116e-08

> <r_epik_Ionization_Penalty_Neutral>
1.65349

> <r_epik_State_Penalty>
1.75578

> <r_epik_Charging_Adjusted_Penalty>
1.75578

> <i_epik_Tot_Q>
-1

> <i_epik_Tot_abs_Q>
1

> <r_epik_Metal_State_Penalty>
0.0107816

> <b_epik_Metal_Only>
0

> <s_lp_Force_Field>
OPLS_2005

> <r_lp_Energy>
23.8138

> <b_lp_Chiralities_Consistent>
1

> <s_lp_Variant>
AV-unprocessed.smi:878-2

> <Gold.Version>
5.8.1

> <Gold.Id.Protein>
6NUR|6NUR_protein|mol2

> <Gold.PLP.Fitness>
41.0094

> <Gold.PLP.PLP>
-33.3240

> <Gold.PLP.part.hbond>
-2.0000

> <Gold.PLP.part.metal>
0.0000

> <Gold.PLP.part.buried>
-5.9825

> <Gold.PLP.part.nonpolar>
-25.2748

> <Gold.PLP.part.repulsive>
0.0000

> <Gold.PLP.ligand.clash>
0.0000

> <Gold.PLP.ligand.torsion>
0.5881

> <Gold.PLP.Chemscore.Hbond>
2.9440

> <Gold.PLP.Chemscore.CHOScore>
0.0000

> <Gold.PLP.Chemscore.Metal>
0.0000

> <Gold.Chemscore.Hbonds>
donor molecule, donor type, donor heavy atom, donor atom, acceptor molecule, acceptor atom, score
      P1  H  6896  6908       L1    16  1.14
      P1  H  6931  6943       L1    15  0.91
      P1  H  6934  6947       L1    15  0.18

> <Gold.PLP.Chemscore.Internal.Correction>
0.0296

> <Gold.Rescore>
     Score         DG    S(hbond)    S(metal)    S(lipo)     H(rot)  DE(clash)    DE(int)     intcor
     14.92     -15.69       1.27        0.00      92.63       1.91       0.12       0.65       ----

> <Gold.Chemscore.Fitness>
14.9214

> <Gold.Chemscore.DG>
-15.6903

> <Gold.Chemscore.ZeroCoef>
-5.4800

> <Gold.Chemscore.Hbond>
1.2741

> <Gold.Chemscore.Metal>
0.0000

> <Gold.Chemscore.Lipo>
92.6267

> <Gold.Chemscore.Internal_Hbond>
0.0000

> <Gold.Chemscore.DEClash>
0.1214

> <Gold.Chemscore.DEInternal>
0.6474

> <Gold.Chemscore.Rot>
1.9073

> <Gold.Chemscore.Internal.Correction>
   9.000000E+99

> <Gold.Chemscore.Hbonds>
donor molecule, donor type, donor heavy atom, donor atom, acceptor molecule, acceptor atom, score
      P1  H  6896  6908       L1    16  0.08
      P1  H  6931  6943       L1    15  0.49
      P1  H  6934  6947       L1    15  0.05

> <Gold.Chemscore.Hbond.Weighted>
-4.2556

> <Gold.Chemscore.Metal.Weighted>
-0.0000

> <Gold.Chemscore.Lipo.Weighted>
-10.8373

> <Gold.Chemscore.Internal_Hbond.Weighted>
0.0000

> <Gold.Chemscore.DEClash.Weighted>
0.1214

> <Gold.Chemscore.DEInternal.Weighted>
0.6474

> <Gold.Chemscore.Rot.Weighted>
4.8826

> <Gold.Chemscore.Internal.Correction.Weighted>
   9.000000E+99

> <Gold.Protein.RotatedTorsions>
[ 6907 6896 6895 6894 ] final -156.51 input  -60.11 | X-H torsion
[ 7974 7965 7964 7962 ] final   64.41 input  175.53 | X-H torsion
[ 8008 7997 7996 7995 ] final   12.33 input   59.86 | X-H torsion
[ 10167 10162 10161 10158 ] final  -47.55 input  -65.29 | X-H torsion
[ 10718 10713 10712 10709 ] final  115.48 input   66.30 | X-H torsion
[ 10763 10752 10751 10750 ] final  -36.95 input  -60.55 | X-H torsion
[ 11005 11000 10999 10996 ] final -104.14 input  -57.11 | X-H torsion

> <Gold.Protein.ActiveResidues>
 VAL166  LYS551  ARG553  GLY616  TRP617  ASP618  TYR619  PRO620  LYS621  CYS622 
 ASP623  PHE694  ASN695  SER759  ASP760  ASP761  ALA762  ILE779  LEU786  VAL792 
 PHE793  MET794  SER795  GLU796  ALA797  LYS798  CYS799  TRP800  GLU811  SER814 

> <Gold.Protein.RotatedAtoms>
  151.2887  133.4175  159.2631 H   0  0  0  0  0  0  0  0  0  0  0  0  # atno 6907 bound_to 6896
  151.0296  134.9530  159.8114 H   0  0  0  0  0  0  0  0  0  0  0  0  # atno 6908 bound_to 6896
  152.5343  134.2848  159.9073 H   0  0  0  0  0  0  0  0  0  0  0  0  # atno 6909 bound_to 6896
  145.8505  139.3251  143.0878 H   0  0  0  0  0  0  0  0  0  0  0  0  # atno 7974 bound_to 7965
  154.8192  140.2881  155.5799 H   0  0  0  0  0  0  0  0  0  0  0  0  # atno 8008 bound_to 7997
  156.2996  140.2553  156.3026 H   0  0  0  0  0  0  0  0  0  0  0  0  # atno 8009 bound_to 7997
  154.9358  140.0382  157.2061 H   0  0  0  0  0  0  0  0  0  0  0  0  # atno 8010 bound_to 7997
  140.6770  143.2779  151.3943 H   0  0  0  0  0  0  0  0  0  0  0  0  # atno 10167 bound_to 10162
  157.6219  131.1013  150.7336 H   0  0  0  0  0  0  0  0  0  0  0  0  # atno 10718 bound_to 10713
  153.8882  135.6815  153.4762 H   0  0  0  0  0  0  0  0  0  0  0  0  # atno 10763 bound_to 10752
  153.1196  135.4746  154.9170 H   0  0  0  0  0  0  0  0  0  0  0  0  # atno 10764 bound_to 10752
  154.7635  135.3217  154.8284 H   0  0  0  0  0  0  0  0  0  0  0  0  # atno 10765 bound_to 10752
  141.1114  133.8699  157.1574 H   0  0  0  0  0  0  0  0  0  0  0  0  # atno 11005 bound_to 11000
  145.9363  140.9012  143.0330 LP  0  0  0  0  0  0  0  0  0  0  0  0  # atno 17320 bound_to 7965
  144.6729  140.1487  143.7431 LP  0  0  0  0  0  0  0  0  0  0  0  0  # atno 17321 bound_to 7965
  139.6068  144.1180  152.2257 LP  0  0  0  0  0  0  0  0  0  0  0  0  # atno 17342 bound_to 10162
  140.0582  144.5878  150.7283 LP  0  0  0  0  0  0  0  0  0  0  0  0  # atno 17343 bound_to 10162
  156.7692  130.4823  149.5421 LP  0  0  0  0  0  0  0  0  0  0  0  0  # atno 17370 bound_to 10713
  156.1369  130.6217  151.0413 LP  0  0  0  0  0  0  0  0  0  0  0  0  # atno 17371 bound_to 10713
  140.0010  135.0028  157.0189 LP  0  0  0  0  0  0  0  0  0  0  0  0  # atno 17394 bound_to 11000
  140.4765  134.1333  155.7210 LP  0  0  0  0  0  0  0  0  0  0  0  0  # atno 17395 bound_to 11000

$$$$
