AV-unprocessed.smi:2355|AV-procd|sdf|9385|dock9
  -GOLD-   2272013 13D 1   1.00000     0.00000
 Structure written by MMmdl.
 48 49  0  0  0  0  0  0  0  0  1 V2000
  151.2759  145.5437  159.6116 C   0  0  0  0  0  0  0  0  0  0  0  0
  151.6722  144.1046  159.3571 C   0  0  0  0  0  0  0  0  0  0  0  0
  150.9132  143.2859  158.4990 C   0  0  0  0  0  0  0  0  0  0  0  0
  151.3349  141.9559  158.3046 C   0  0  0  0  0  0  0  0  0  0  0  0
  150.5643  141.0185  157.3989 C   0  0  0  0  0  0  0  0  0  0  0  0
  152.4286  141.4352  158.9007 N   0  0  0  0  0  0  0  0  0  0  0  0
  153.1682  142.2148  159.7280 C   0  0  0  0  0  0  0  0  0  0  0  0
  154.3370  141.7657  160.3983 N   0  0  0  0  0  0  0  0  0  0  0  0
  155.0293  140.6317  160.1917 C   0  0  0  0  0  0  0  0  0  0  0  0
  154.7341  139.7558  159.3778 O   0  0  0  0  0  0  0  0  0  0  0  0
  156.1038  140.5705  160.9918 N   0  0  0  0  0  0  0  0  0  0  0  0
  157.1029  139.5017  161.0022 C   0  0  2  0  0  0  0  0  0  0  0  0
  156.7718  138.4918  162.1159 C   0  0  0  0  0  0  0  0  0  0  0  0
  158.5449  140.0963  161.0696 C   0  0  2  0  0  0  0  0  0  0  0  0
  158.8327  140.6214  162.5003 C   0  0  0  0  0  0  0  0  0  0  0  0
  158.8211  141.1143  160.0237 N   0  0  0  0  0  0  0  0  0  0  0  0
  160.2309  141.5205  159.9886 C   0  0  0  0  0  0  0  0  0  0  0  0
  160.5266  142.5641  158.8973 C   0  0  0  0  0  0  0  0  0  0  0  0
  160.1321  142.0581  157.6298 O   0  0  0  0  0  0  0  0  0  0  0  0
  158.7511  141.7272  157.5957 C   0  0  0  0  0  0  0  0  0  0  0  0
  158.4432  140.6749  158.6745 C   0  0  0  0  0  0  0  0  0  0  0  0
  152.8138  143.5594  159.9786 C   0  0  0  0  0  0  0  0  0  0  0  0
  150.3880  145.8184  159.0412 H   0  0  0  0  0  0  0  0  0  0  0  0
  152.0860  146.2147  159.3251 H   0  0  0  0  0  0  0  0  0  0  0  0
  151.0618  145.6942  160.6700 H   0  0  0  0  0  0  0  0  0  0  0  0
  150.0317  143.6661  158.0038 H   0  0  0  0  0  0  0  0  0  0  0  0
  149.7643  141.5428  156.8754 H   0  0  0  0  0  0  0  0  0  0  0  0
  150.1192  140.2118  157.9818 H   0  0  0  0  0  0  0  0  0  0  0  0
  151.2273  140.5784  156.6532 H   0  0  0  0  0  0  0  0  0  0  0  0
  154.6977  142.3886  161.1056 H   0  0  0  0  0  0  0  0  0  0  0  0
  156.2641  141.3391  161.6261 H   0  0  0  0  0  0  0  0  0  0  0  0
  157.0242  138.9105  160.0912 H   0  0  0  0  0  0  0  0  0  0  0  0
  157.5527  137.7366  162.2077 H   0  0  0  0  0  0  0  0  0  0  0  0
  155.8394  137.9710  161.8952 H   0  0  0  0  0  0  0  0  0  0  0  0
  156.6444  138.9690  163.0871 H   0  0  0  0  0  0  0  0  0  0  0  0
  159.2283  139.2622  160.9026 H   0  0  0  0  0  0  0  0  0  0  0  0
  158.6025  139.8838  163.2665 H   0  0  0  0  0  0  0  0  0  0  0  0
  158.2562  141.5200  162.7219 H   0  0  0  0  0  0  0  0  0  0  0  0
  159.8856  140.8541  162.6503 H   0  0  0  0  0  0  0  0  0  0  0  0
  160.5280  141.9626  160.9374 H   0  0  0  0  0  0  0  0  0  0  0  0
  160.8639  140.6455  159.8335 H   0  0  0  0  0  0  0  0  0  0  0  0
  160.0040  143.4990  159.1046 H   0  0  0  0  0  0  0  0  0  0  0  0
  161.5922  142.7925  158.8719 H   0  0  0  0  0  0  0  0  0  0  0  0
  158.1490  142.6243  157.7490 H   0  0  0  0  0  0  0  0  0  0  0  0
  158.5020  141.3403  156.6075 H   0  0  0  0  0  0  0  0  0  0  0  0
  158.9544  139.7423  158.4308 H   0  0  0  0  0  0  0  0  0  0  0  0
  157.3748  140.4775  158.6169 H   0  0  0  0  0  0  0  0  0  0  0  0
  153.4112  144.1703  160.6403 H   0  0  0  0  0  0  0  0  0  0  0  0
  1  2  1  0  0  0  0
  1 23  1  0  0  0  0
  1 24  1  0  0  0  0
  1 25  1  0  0  0  0
  2 22  1  0  0  0  0
  2  3  2  0  0  0  0
  3  4  1  0  0  0  0
  3 26  1  0  0  0  0
  4  5  1  0  0  0  0
  4  6  2  0  0  0  0
  5 27  1  0  0  0  0
  5 28  1  0  0  0  0
  5 29  1  0  0  0  0
  6  7  1  0  0  0  0
  7  8  1  0  0  0  0
  7 22  2  0  0  0  0
  8  9  1  0  0  0  0
  8 30  1  0  0  0  0
  9 10  2  0  0  0  0
  9 11  1  0  0  0  0
 11 12  1  0  0  0  0
 11 31  1  0  0  0  0
 12 13  1  0  0  0  0
 12 14  1  0  0  0  0
 12 32  1  0  0  0  0
 13 33  1  0  0  0  0
 13 34  1  0  0  0  0
 13 35  1  0  0  0  0
 14 15  1  0  0  0  0
 14 16  1  0  0  0  0
 14 36  1  0  0  0  0
 15 37  1  0  0  0  0
 15 38  1  0  0  0  0
 15 39  1  0  0  0  0
 16 21  1  0  0  0  0
 16 17  1  0  0  0  0
 17 18  1  0  0  0  0
 17 40  1  0  0  0  0
 17 41  1  0  0  0  0
 18 19  1  0  0  0  0
 18 42  1  0  0  0  0
 18 43  1  0  0  0  0
 19 20  1  0  0  0  0
 20 21  1  0  0  0  0
 20 44  1  0  0  0  0
 20 45  1  0  0  0  0
 21 46  1  0  0  0  0
 21 47  1  0  0  0  0
 22 48  1  0  0  0  0
M  END
> <s_m_source_file>
AV-unprocessed.smi

> <i_m_source_file_index>
2355

> <i_lp_mmshare_version>
43012

> <i_f3d_flags>
0

> <s_epik_input>
W0NIM11jMVtjSF1jKFtDSDNdKW5jKFtjSF0xKVtOSF1DKD1PKVtOSF1bQ0BIXShbQ0gzXSlbQ0BIXShbQ0gzXSlOMltDSDJdW0NIMl1PW0NIMl1bQ0gyXTI=

> <s_epik_cmdline>
J2VwaWtfcHl0aG9uJywgJy1waCcsICc3LjAnLCAnLXRuJywgJzgnLCAnLW1hJywgJzIwMCcsICctbWV0YWxfYmluZGluZycsICctaW1hZScsICc8aW5maWxlLm1hZT4nLCAnLW9tYWUnLCAnPG91dGZpbGUubWFlPic=

> <r_epik_Ionization_Penalty>
0.266238

> <r_epik_Ionization_Penalty_Charging>
0

> <r_epik_Ionization_Penalty_Neutral>
0.266238

> <r_epik_State_Penalty>
0.257924

> <r_epik_Charging_Adjusted_Penalty>
0.257924

> <i_epik_Tot_Q>
0

> <i_epik_Tot_abs_Q>
0

> <r_epik_Metal_State_Penalty>
0.257904

> <b_epik_Metal_Only>
0

> <s_lp_Force_Field>
OPLS_2005

> <r_lp_Energy>
36.7742

> <b_lp_Chiralities_Consistent>
1

> <s_lp_Variant>
AV-unprocessed.smi:2355-1

> <Gold.Version>
5.8.1

> <Gold.Id.Protein>
6NUR|6NUR_protein|mol2

> <Gold.PLP.Fitness>
43.1018

> <Gold.PLP.PLP>
-40.8863

> <Gold.PLP.part.hbond>
-3.8725

> <Gold.PLP.part.metal>
0.0000

> <Gold.PLP.part.buried>
-3.1666

> <Gold.PLP.part.nonpolar>
-32.9509

> <Gold.PLP.part.repulsive>
0.2582

> <Gold.PLP.ligand.clash>
0.0000

> <Gold.PLP.ligand.torsion>
0.4391

> <Gold.PLP.Chemscore.Hbond>
1.0000

> <Gold.PLP.Chemscore.CHOScore>
0.0000

> <Gold.PLP.Chemscore.Metal>
0.0000

> <Gold.Chemscore.Hbonds>
donor molecule, donor type, donor heavy atom, donor atom, acceptor molecule, acceptor atom, score
      P1  H  7997  8010       L1    10  0.83

> <Gold.PLP.Chemscore.Internal.Correction>
0.0937

> <Gold.Rescore>
     Score         DG    S(hbond)    S(metal)    S(lipo)     H(rot)  DE(clash)    DE(int)     intcor
     15.02     -17.23       0.94        0.00     104.15       1.40       0.40       1.81       ----

> <Gold.Chemscore.Fitness>
15.0155

> <Gold.Chemscore.DG>
-17.2295

> <Gold.Chemscore.ZeroCoef>
-5.4800

> <Gold.Chemscore.Hbond>
0.9436

> <Gold.Chemscore.Metal>
0.0000

> <Gold.Chemscore.Lipo>
104.1512

> <Gold.Chemscore.Internal_Hbond>
0.0000

> <Gold.Chemscore.DEClash>
0.3990

> <Gold.Chemscore.DEInternal>
1.8149

> <Gold.Chemscore.Rot>
1.4015

> <Gold.Chemscore.Internal.Correction>
   9.000000E+99

> <Gold.Chemscore.Hbonds>
donor molecule, donor type, donor heavy atom, donor atom, acceptor molecule, acceptor atom, score
      P1  H  7997  8010       L1    10  0.78

> <Gold.Chemscore.Hbond.Weighted>
-3.1515

> <Gold.Chemscore.Metal.Weighted>
-0.0000

> <Gold.Chemscore.Lipo.Weighted>
-12.1857

> <Gold.Chemscore.Internal_Hbond.Weighted>
0.0000

> <Gold.Chemscore.DEClash.Weighted>
0.3990

> <Gold.Chemscore.DEInternal.Weighted>
1.8149

> <Gold.Chemscore.Rot.Weighted>
3.5878

> <Gold.Chemscore.Internal.Correction.Weighted>
   9.000000E+99

> <Gold.Protein.RotatedTorsions>
[ 6907 6896 6895 6894 ] final  -37.24 input  -60.11 | X-H torsion
[ 7974 7965 7964 7962 ] final  -78.28 input  175.53 | X-H torsion
[ 8008 7997 7996 7995 ] final   -9.52 input   59.86 | X-H torsion
[ 10167 10162 10161 10158 ] final  -59.12 input  -65.29 | X-H torsion
[ 10718 10713 10712 10709 ] final   78.81 input   66.30 | X-H torsion
[ 10763 10752 10751 10750 ] final  -66.09 input  -60.55 | X-H torsion
[ 11005 11000 10999 10996 ] final   -7.85 input  -57.11 | X-H torsion

> <Gold.Protein.ActiveResidues>
 VAL166  LYS551  ARG553  GLY616  TRP617  ASP618  TYR619  PRO620  LYS621  CYS622 
 ASP623  PHE694  ASN695  SER759  ASP760  ASP761  ALA762  ILE779  LEU786  VAL792 
 PHE793  MET794  SER795  GLU796  ALA797  LYS798  CYS799  TRP800  GLU811  SER814 

> <Gold.Protein.RotatedAtoms>
  151.0172  134.9441  159.8039 H   0  0  0  0  0  0  0  0  0  0  0  0  # atno 6907 bound_to 6896
  152.5316  134.2951  159.9067 H   0  0  0  0  0  0  0  0  0  0  0  0  # atno 6908 bound_to 6896
  151.2958  133.4102  159.2670 H   0  0  0  0  0  0  0  0  0  0  0  0  # atno 6909 bound_to 6896
  145.5885  140.9434  143.1305 H   0  0  0  0  0  0  0  0  0  0  0  0  # atno 7974 bound_to 7965
  154.5639  140.2353  155.8294 H   0  0  0  0  0  0  0  0  0  0  0  0  # atno 8008 bound_to 7997
  156.2052  140.3041  155.9570 H   0  0  0  0  0  0  0  0  0  0  0  0  # atno 8009 bound_to 7997
  155.2838  140.0423  157.3008 H   0  0  0  0  0  0  0  0  0  0  0  0  # atno 8010 bound_to 7997
  140.6155  143.2401  151.5607 H   0  0  0  0  0  0  0  0  0  0  0  0  # atno 10167 bound_to 10162
  157.6757  130.9885  150.1841 H   0  0  0  0  0  0  0  0  0  0  0  0  # atno 10718 bound_to 10713
  154.3547  135.6129  153.5660 H   0  0  0  0  0  0  0  0  0  0  0  0  # atno 10763 bound_to 10752
  152.9796  135.5801  154.4702 H   0  0  0  0  0  0  0  0  0  0  0  0  # atno 10764 bound_to 10752
  154.4429  135.2850  155.1812 H   0  0  0  0  0  0  0  0  0  0  0  0  # atno 10765 bound_to 10752
  140.7172  133.8859  155.8794 H   0  0  0  0  0  0  0  0  0  0  0  0  # atno 11005 bound_to 11000
  144.7362  139.7580  143.7328 LP  0  0  0  0  0  0  0  0  0  0  0  0  # atno 17320 bound_to 7965
  146.1664  139.4797  142.9955 LP  0  0  0  0  0  0  0  0  0  0  0  0  # atno 17321 bound_to 7965
  139.5395  144.2687  152.1322 LP  0  0  0  0  0  0  0  0  0  0  0  0  # atno 17342 bound_to 10162
  140.1895  144.4766  150.6486 LP  0  0  0  0  0  0  0  0  0  0  0  0  # atno 17343 bound_to 10162
  156.2567  130.3706  149.8174 LP  0  0  0  0  0  0  0  0  0  0  0  0  # atno 17370 bound_to 10713
  156.5932  130.8515  151.3413 LP  0  0  0  0  0  0  0  0  0  0  0  0  # atno 17371 bound_to 10713
  141.0034  134.1119  157.4294 LP  0  0  0  0  0  0  0  0  0  0  0  0  # atno 17394 bound_to 11000
  139.8857  135.0074  156.6451 LP  0  0  0  0  0  0  0  0  0  0  0  0  # atno 17395 bound_to 11000

$$$$
