AV-unprocessed.smi:54|AV-procd|sdf|529|dock6
  -GOLD-   2262016403D 1   1.00000     0.00000
 Structure written by MMmdl.
 44 46  0  0  0  0  0  0  0  0  1 V2000
  150.4363  144.2852  159.8280 C   0  0  0  0  0  0  0  0  0  0  0  0
  151.9291  144.2392  159.4639 C   0  0  0  0  0  0  0  0  0  0  0  0
  152.3025  145.3718  158.4935 C   0  0  0  0  0  0  0  0  0  0  0  0
  152.2987  142.8768  158.8671 C   0  0  0  0  0  0  0  0  0  0  0  0
  153.1354  142.1407  159.3899 O   0  0  0  0  0  0  0  0  0  0  0  0
  151.6071  142.5238  157.6420 N   0  0  0  0  0  0  0  0  0  0  0  0
  151.7316  141.3769  156.9360 C   0  0  0  0  0  0  0  0  0  0  0  0
  150.9461  141.0669  155.9139 N   0  0  0  0  0  0  0  0  0  0  0  0
  151.2480  139.8810  155.2999 C   0  0  0  0  0  0  0  0  0  0  0  0
  152.2645  139.0152  155.6515 C   0  0  0  0  0  0  0  0  0  0  0  0
  152.2721  137.9114  154.8072 N   0  0  0  0  0  0  0  0  0  0  0  0
  151.2884  138.1380  153.9834 C   0  0  0  0  0  0  0  0  0  0  0  0
  150.6134  139.3128  154.2106 N   0  0  0  0  0  0  0  0  0  0  0  0
  149.4495  139.8512  153.4422 C   0  0  2  0  0  0  0  0  0  0  0  0
  149.1324  141.1101  153.9520 O   0  0  0  0  0  0  0  0  0  0  0  0
  147.7209  141.2361  154.0815 C   0  0  2  0  0  0  0  0  0  0  0  0
  147.3912  142.2842  155.1559 C   0  0  0  0  0  0  0  0  0  0  0  0
  148.2578  142.1369  156.2605 O   0  0  0  0  0  0  0  0  0  0  0  0
  147.2923  139.8151  154.4522 C   0  0  1  0  0  0  0  0  0  0  0  0
  145.9187  139.5729  154.2108 O   0  0  0  0  0  0  0  0  0  0  0  0
  148.2191  138.9453  153.6078 C   0  0  1  0  0  0  0  0  0  0  0  0
  147.6565  138.6247  152.3482 O   0  0  0  0  0  0  0  0  0  0  0  0
  153.1211  139.3370  156.7561 C   0  0  0  0  0  0  0  0  0  0  0  0
  154.0641  138.6878  157.2035 O   0  0  0  0  0  0  0  0  0  0  0  0
  152.7828  140.5596  157.3481 N   0  0  0  0  0  0  0  0  0  0  0  0
  149.8067  139.9265  152.4139 H   0  0  0  0  0  0  0  0  0  0  0  0
  147.2920  141.5069  153.1145 H   0  0  0  0  0  0  0  0  0  0  0  0
  147.4964  139.6293  155.5054 H   0  0  0  0  0  0  0  0  0  0  0  0
  148.4783  138.0172  154.1196 H   0  0  0  0  0  0  0  0  0  0  0  0
  150.1697  143.4787  160.5123 H   0  0  0  0  0  0  0  0  0  0  0  0
  149.8039  144.1943  158.9439 H   0  0  0  0  0  0  0  0  0  0  0  0
  150.1841  145.2259  160.3185 H   0  0  0  0  0  0  0  0  0  0  0  0
  152.5043  144.3770  160.3806 H   0  0  0  0  0  0  0  0  0  0  0  0
  153.3601  145.3348  158.2287 H   0  0  0  0  0  0  0  0  0  0  0  0
  152.1126  146.3472  158.9423 H   0  0  0  0  0  0  0  0  0  0  0  0
  151.7257  145.3162  157.5690 H   0  0  0  0  0  0  0  0  0  0  0  0
  150.9949  143.2293  157.2595 H   0  0  0  0  0  0  0  0  0  0  0  0
  151.0278  137.4539  153.1888 H   0  0  0  0  0  0  0  0  0  0  0  0
  147.5341  143.2897  154.7589 H   0  0  0  0  0  0  0  0  0  0  0  0
  146.3530  142.2079  155.4796 H   0  0  0  0  0  0  0  0  0  0  0  0
  148.5918  142.9890  156.4955 H   0  0  0  0  0  0  0  0  0  0  0  0
  145.5203  140.3788  153.9196 H   0  0  0  0  0  0  0  0  0  0  0  0
  148.0434  139.1894  151.6963 H   0  0  0  0  0  0  0  0  0  0  0  0
  153.3498  140.8539  158.1298 H   0  0  0  0  0  0  0  0  0  0  0  0
  1  2  1  0  0  0  0
  1 30  1  0  0  0  0
  1 31  1  0  0  0  0
  1 32  1  0  0  0  0
  2  3  1  0  0  0  0
  2  4  1  0  0  0  0
  2 33  1  0  0  0  0
  3 34  1  0  0  0  0
  3 35  1  0  0  0  0
  3 36  1  0  0  0  0
  4  5  2  0  0  0  0
  4  6  1  0  0  0  0
  6 37  1  0  0  0  0
  6  7  1  0  0  0  0
  7 25  1  0  0  0  0
  7  8  2  0  0  0  0
  8  9  1  0  0  0  0
  9 13  1  0  0  0  0
  9 10  2  0  0  0  0
 10 11  1  0  0  0  0
 10 23  1  0  0  0  0
 11 12  2  0  0  0  0
 12 13  1  0  0  0  0
 12 38  1  0  0  0  0
 13 14  1  0  0  0  0
 14 26  1  0  0  0  0
 14 21  1  0  0  0  0
 14 15  1  0  0  0  0
 15 16  1  0  0  0  0
 16 27  1  0  0  0  0
 16 17  1  0  0  0  0
 16 19  1  0  0  0  0
 17 18  1  0  0  0  0
 17 39  1  0  0  0  0
 17 40  1  0  0  0  0
 18 41  1  0  0  0  0
 19 28  1  0  0  0  0
 19 20  1  0  0  0  0
 19 21  1  0  0  0  0
 20 42  1  0  0  0  0
 21 29  1  0  0  0  0
 21 22  1  0  0  0  0
 22 43  1  0  0  0  0
 23 24  2  0  0  0  0
 23 25  1  0  0  0  0
 25 44  1  0  0  0  0
M  END
> <s_m_source_file>
AV-unprocessed.smi

> <i_m_source_file_index>
54

> <i_lp_mmshare_version>
43012

> <i_f3d_flags>
0

> <s_epik_input>
W0NIM11bQ0hdKFtDSDNdKUMoPU8pW05IXWMobjEpW25IXWMoPU8pYyhjMTIpbltjSF1uMltDQEBIXTNPW0NASF0oW0NIMl1bT0hdKVtDQEBIXShbT0hdKVtDQEhdM1tPSF0=

> <s_epik_cmdline>
J2VwaWtfcHl0aG9uJywgJy1waCcsICc3LjAnLCAnLXRuJywgJzgnLCAnLW1hJywgJzIwMCcsICctbWV0YWxfYmluZGluZycsICctaW1hZScsICc8aW5maWxlLm1hZT4nLCAnLW9tYWUnLCAnPG91dGZpbGUubWFlPic=

> <r_lp_tautomer_probability>
0.85571

> <r_epik_Ionization_Penalty>
0.0316551

> <r_epik_Ionization_Penalty_Charging>
0.0316043

> <r_epik_Ionization_Penalty_Neutral>
5.07097e-05

> <r_epik_State_Penalty>
3.15494e-07

> <r_epik_Charging_Adjusted_Penalty>
0.0316047

> <i_epik_Tot_Q>
0

> <i_epik_Tot_abs_Q>
0

> <r_epik_Metal_State_Penalty>
0.421206

> <b_epik_Metal_Only>
0

> <s_epik_Chemistry_Notes>
This compound contains an acetal/aminal-like group ( X-CH(R)-Y where X, Y are N, S, or O) that may be acid/base labile, releasing an aldehyde.

> <s_lp_Force_Field>
OPLS_2005

> <r_lp_Energy>
41.8927

> <b_lp_Chiralities_Consistent>
1

> <s_lp_Variant>
AV-unprocessed.smi:54-1

> <Gold.Version>
5.8.1

> <Gold.Id.Protein>
6NUR|6NUR_protein|mol2

> <Gold.PLP.Fitness>
50.3535

> <Gold.PLP.PLP>
-38.4147

> <Gold.PLP.part.hbond>
-7.2733

> <Gold.PLP.part.metal>
0.0000

> <Gold.PLP.part.buried>
2.2793

> <Gold.PLP.part.nonpolar>
-35.0572

> <Gold.PLP.part.repulsive>
2.3008

> <Gold.PLP.ligand.clash>
0.0000

> <Gold.PLP.ligand.torsion>
0.1962

> <Gold.PLP.Chemscore.Hbond>
3.0044

> <Gold.PLP.Chemscore.CHOScore>
1.0969

> <Gold.PLP.Chemscore.Metal>
0.0000

> <Gold.Chemscore.Hbonds>
donor molecule, donor type, donor heavy atom, donor atom, acceptor molecule, acceptor atom, score
      L1  H    18    41       P1  8028  0.77
      L1  H    20    42       P1 10175  0.11
      L1  H    22    43       P1  7957  0.93
      P1  H  7997  8008       L1    24  0.26
      P1  H  8011  8017       L1    15  0.54
      P1  H 10752 10765       L1    11  0.05
      L1  C    12    38       P1  7948  0.05
      L1  C    12    38       P1  7949  1.00

> <Gold.PLP.Chemscore.Internal.Correction>
0.0272

> <Gold.Rescore>
     Score         DG    S(hbond)    S(metal)    S(lipo)     H(rot)  DE(clash)    DE(int)     intcor
      4.65     -10.18       2.29        0.00      63.53       4.05       3.63       1.90       ----

> <Gold.Chemscore.Fitness>
4.6492

> <Gold.Chemscore.DG>
-10.1796

> <Gold.Chemscore.ZeroCoef>
-5.4800

> <Gold.Chemscore.Hbond>
2.2852

> <Gold.Chemscore.Metal>
0.0000

> <Gold.Chemscore.Lipo>
63.5324

> <Gold.Chemscore.Internal_Hbond>
0.0000

> <Gold.Chemscore.DEClash>
3.6288

> <Gold.Chemscore.DEInternal>
1.9016

> <Gold.Chemscore.Rot>
4.0493

> <Gold.Chemscore.Internal.Correction>
   9.000000E+99

> <Gold.Chemscore.Hbonds>
donor molecule, donor type, donor heavy atom, donor atom, acceptor molecule, acceptor atom, score
      L1  H    18    41       P1  8028  0.68
      L1  H    20    42       P1 10175  0.12
      L1  H    22    43       P1  7957  0.87
      P1  H  7997  8008       L1    24  0.02
      P1  H  8011  8017       L1    15  0.12
      P1  H 10752 10765       L1    11  0.05

> <Gold.Chemscore.Hbond.Weighted>
-7.6326

> <Gold.Chemscore.Metal.Weighted>
-0.0000

> <Gold.Chemscore.Lipo.Weighted>
-7.4333

> <Gold.Chemscore.Internal_Hbond.Weighted>
0.0000

> <Gold.Chemscore.DEClash.Weighted>
3.6288

> <Gold.Chemscore.DEInternal.Weighted>
1.9016

> <Gold.Chemscore.Rot.Weighted>
10.3662

> <Gold.Chemscore.Internal.Correction.Weighted>
   9.000000E+99

> <Gold.Protein.RotatedTorsions>
[ 6907 6896 6895 6894 ] final  -18.12 input  -60.11 | X-H torsion
[ 7974 7965 7964 7962 ] final  -51.53 input  175.53 | X-H torsion
[ 8008 7997 7996 7995 ] final -117.63 input   59.86 | X-H torsion
[ 10167 10162 10161 10158 ] final  124.35 input  -65.29 | X-H torsion
[ 10718 10713 10712 10709 ] final  174.49 input   66.30 | X-H torsion
[ 10763 10752 10751 10750 ] final -179.20 input  -60.55 | X-H torsion
[ 11005 11000 10999 10996 ] final  108.25 input  -57.11 | X-H torsion

> <Gold.Protein.ActiveResidues>
 VAL166  LYS551  ARG553  GLY616  TRP617  ASP618  TYR619  PRO620  LYS621  CYS622 
 ASP623  PHE694  ASN695  SER759  ASP760  ASP761  ALA762  ILE779  LEU786  VAL792 
 PHE793  MET794  SER795  GLU796  ALA797  LYS798  CYS799  TRP800  GLU811  SER814 

> <Gold.Protein.RotatedAtoms>
  151.2830  135.0719  159.9176 H   0  0  0  0  0  0  0  0  0  0  0  0  # atno 6907 bound_to 6896
  152.5330  134.0011  159.7905 H   0  0  0  0  0  0  0  0  0  0  0  0  # atno 6908 bound_to 6896
  151.0268  133.5776  159.2696 H   0  0  0  0  0  0  0  0  0  0  0  0  # atno 6909 bound_to 6896
  145.9180  140.7858  142.9662 H   0  0  0  0  0  0  0  0  0  0  0  0  # atno 7974 bound_to 7965
  155.0867  140.0394  157.2656 H   0  0  0  0  0  0  0  0  0  0  0  0  # atno 8008 bound_to 7997
  154.6864  140.2644  155.6831 H   0  0  0  0  0  0  0  0  0  0  0  0  # atno 8009 bound_to 7997
  156.2713  140.2768  156.1426 H   0  0  0  0  0  0  0  0  0  0  0  0  # atno 8010 bound_to 7997
  139.5746  144.6957  151.3686 H   0  0  0  0  0  0  0  0  0  0  0  0  # atno 10167 bound_to 10162
  156.9488  131.0024  151.2953 H   0  0  0  0  0  0  0  0  0  0  0  0  # atno 10718 bound_to 10713
  154.5380  135.2804  155.1121 H   0  0  0  0  0  0  0  0  0  0  0  0  # atno 10763 bound_to 10752
  154.2614  135.6321  153.5280 H   0  0  0  0  0  0  0  0  0  0  0  0  # atno 10764 bound_to 10752
  152.9972  135.5606  154.5912 H   0  0  0  0  0  0  0  0  0  0  0  0  # atno 10765 bound_to 10752
  139.8841  134.9425  156.5944 H   0  0  0  0  0  0  0  0  0  0  0  0  # atno 11005 bound_to 11000
  144.6750  140.1930  143.7395 LP  0  0  0  0  0  0  0  0  0  0  0  0  # atno 17320 bound_to 7965
  145.8587  139.2212  143.1729 LP  0  0  0  0  0  0  0  0  0  0  0  0  # atno 17321 bound_to 7965
  140.7030  143.7585  150.7434 LP  0  0  0  0  0  0  0  0  0  0  0  0  # atno 17342 bound_to 10162
  140.1101  143.4707  152.2375 LP  0  0  0  0  0  0  0  0  0  0  0  0  # atno 17343 bound_to 10162
  157.5736  130.8327  149.8425 LP  0  0  0  0  0  0  0  0  0  0  0  0  # atno 17370 bound_to 10713
  156.0372  130.3748  150.1530 LP  0  0  0  0  0  0  0  0  0  0  0  0  # atno 17371 bound_to 10713
  140.7931  133.8566  155.8662 LP  0  0  0  0  0  0  0  0  0  0  0  0  # atno 17394 bound_to 11000
  140.9660  134.1594  157.4616 LP  0  0  0  0  0  0  0  0  0  0  0  0  # atno 17395 bound_to 11000

$$$$
