AV-unprocessed.smi:444|AV-procd|sdf|2587|dock1
  -GOLD-   2262022573D 1   1.00000     0.00000
 Structure written by MMmdl.
 45 46  0  0  0  0  0  0  0  0  1 V2000
  151.9450  144.3680  158.6580 C   0  0  0  0  0  0  0  0  0  0  0  0
  152.3741  142.9658  159.0385 C   0  0  0  0  0  0  0  0  0  0  0  0
  153.1507  142.7493  160.1929 C   0  0  0  0  0  0  0  0  0  0  0  0
  153.5432  141.4443  160.5406 C   0  0  0  0  0  0  0  0  0  0  0  0
  153.1622  140.3489  159.7379 C   0  0  0  0  0  0  0  0  0  0  0  0
  153.5946  138.9479  160.1280 C   0  0  0  0  0  0  0  0  0  0  0  0
  152.3817  140.5517  158.5761 C   0  0  0  0  0  0  0  0  0  0  0  0
  152.0432  139.4374  157.8357 O   0  0  0  0  0  0  0  0  0  0  0  0
  151.3738  139.6225  156.5953 C   0  0  0  0  0  0  0  0  0  0  0  0
  152.0989  138.8038  155.5131 C   0  0  2  0  0  0  0  0  0  0  0  0
  153.0549  139.6620  154.9214 O   0  0  0  0  0  0  0  0  0  0  0  0
  151.1317  138.3253  154.4071 C   0  0  0  0  0  0  0  0  0  0  0  0
  150.1456  137.3650  154.9188 N   0  0  0  0  0  0  0  0  0  0  0  0
  148.8330  137.7586  154.7416 N   0  0  0  0  0  0  0  0  0  0  0  0
  147.8491  137.0223  155.1422 C   0  0  0  0  0  0  0  0  0  0  0  0
  146.4627  137.5542  154.8969 C   0  0  0  0  0  0  0  0  0  0  0  0
  148.1209  135.7455  155.7945 C   0  0  0  0  0  0  0  0  0  0  0  0
  146.9235  134.9180  156.2413 C   0  0  0  0  0  0  0  0  0  0  0  0
  149.4138  135.3744  155.9704 C   0  0  0  0  0  0  0  0  0  0  0  0
  149.7760  134.1473  156.6034 C   0  0  0  0  0  0  0  0  0  0  0  0
  150.0890  133.1591  157.1188 N   0  0  0  0  0  0  0  0  0  0  0  0
  150.5333  136.2070  155.5248 C   0  0  0  0  0  0  0  0  0  0  0  0
  151.7169  135.9036  155.6805 O   0  0  0  0  0  0  0  0  0  0  0  0
  151.9910  141.8722  158.2359 C   0  0  0  0  0  0  0  0  0  0  0  0
  152.5322  145.1188  159.1878 H   0  0  0  0  0  0  0  0  0  0  0  0
  150.8936  144.5191  158.9032 H   0  0  0  0  0  0  0  0  0  0  0  0
  152.0758  144.5307  157.5879 H   0  0  0  0  0  0  0  0  0  0  0  0
  153.4478  143.5810  160.8150 H   0  0  0  0  0  0  0  0  0  0  0  0
  154.1390  141.2881  161.4280 H   0  0  0  0  0  0  0  0  0  0  0  0
  154.1767  138.4936  159.3255 H   0  0  0  0  0  0  0  0  0  0  0  0
  152.7217  138.3222  160.3169 H   0  0  0  0  0  0  0  0  0  0  0  0
  154.2084  138.9546  161.0295 H   0  0  0  0  0  0  0  0  0  0  0  0
  150.3522  139.2561  156.7072 H   0  0  0  0  0  0  0  0  0  0  0  0
  151.3218  140.6765  156.3157 H   0  0  0  0  0  0  0  0  0  0  0  0
  152.5958  137.9493  155.9751 H   0  0  0  0  0  0  0  0  0  0  0  0
  153.4198  139.2302  154.1639 H   0  0  0  0  0  0  0  0  0  0  0  0
  150.5786  139.1807  154.0147 H   0  0  0  0  0  0  0  0  0  0  0  0
  151.6780  137.9357  153.5456 H   0  0  0  0  0  0  0  0  0  0  0  0
  145.8978  137.6097  155.8278 H   0  0  0  0  0  0  0  0  0  0  0  0
  145.9180  136.9088  154.2075 H   0  0  0  0  0  0  0  0  0  0  0  0
  146.4818  138.5562  154.4649 H   0  0  0  0  0  0  0  0  0  0  0  0
  147.2185  133.9509  156.6477 H   0  0  0  0  0  0  0  0  0  0  0  0
  146.2527  134.7265  155.4030 H   0  0  0  0  0  0  0  0  0  0  0  0
  146.3651  135.4444  157.0161 H   0  0  0  0  0  0  0  0  0  0  0  0
  151.3934  142.0725  157.3597 H   0  0  0  0  0  0  0  0  0  0  0  0
  1  2  1  0  0  0  0
  1 25  1  0  0  0  0
  1 26  1  0  0  0  0
  1 27  1  0  0  0  0
  2 24  1  0  0  0  0
  2  3  2  0  0  0  0
  3  4  1  0  0  0  0
  3 28  1  0  0  0  0
  4  5  2  0  0  0  0
  4 29  1  0  0  0  0
  5  6  1  0  0  0  0
  5  7  1  0  0  0  0
  6 30  1  0  0  0  0
  6 31  1  0  0  0  0
  6 32  1  0  0  0  0
  7  8  1  0  0  0  0
  7 24  2  0  0  0  0
  8  9  1  0  0  0  0
  9 10  1  0  0  0  0
  9 33  1  0  0  0  0
  9 34  1  0  0  0  0
 10 11  1  0  0  0  0
 10 12  1  0  0  0  0
 10 35  1  0  0  0  0
 11 36  1  0  0  0  0
 12 13  1  0  0  0  0
 12 37  1  0  0  0  0
 12 38  1  0  0  0  0
 13 22  1  0  0  0  0
 13 14  1  0  0  0  0
 14 15  2  0  0  0  0
 15 16  1  0  0  0  0
 15 17  1  0  0  0  0
 16 39  1  0  0  0  0
 16 40  1  0  0  0  0
 16 41  1  0  0  0  0
 17 18  1  0  0  0  0
 17 19  2  0  0  0  0
 18 42  1  0  0  0  0
 18 43  1  0  0  0  0
 18 44  1  0  0  0  0
 19 20  1  0  0  0  0
 19 22  1  0  0  0  0
 20 21  3  0  0  0  0
 22 23  2  0  0  0  0
 24 45  1  0  0  0  0
M  END
> <s_m_source_file>
AV-unprocessed.smi

> <i_m_source_file_index>
444

> <i_lp_mmshare_version>
43012

> <i_f3d_flags>
0

> <s_epik_input>
W0NIM11jMVtjSF1bY0hdYyhbQ0gzXSljKFtjSF0xKU9bQ0gyXVtDQEhdKFtPSF0pW0NIMl1uMm5jKFtDSDNdKWMoW0NIM10pYyhDI04pYzI9Tw==

> <s_epik_cmdline>
J2VwaWtfcHl0aG9uJywgJy1waCcsICc3LjAnLCAnLXRuJywgJzgnLCAnLW1hJywgJzIwMCcsICctbWV0YWxfYmluZGluZycsICctaW1hZScsICc8aW5maWxlLm1hZT4nLCAnLW9tYWUnLCAnPG91dGZpbGUubWFlPic=

> <r_lp_tautomer_probability>
1

> <r_epik_Ionization_Penalty>
1.17331e-07

> <r_epik_Ionization_Penalty_Charging>
1.57223e-10

> <r_epik_Ionization_Penalty_Neutral>
1.17174e-07

> <r_epik_State_Penalty>
-0

> <r_epik_Charging_Adjusted_Penalty>
1.57223e-10

> <i_epik_Tot_Q>
0

> <i_epik_Tot_abs_Q>
0

> <r_epik_Metal_State_Penalty>
-0

> <b_epik_Metal_Only>
0

> <s_lp_Force_Field>
OPLS_2005

> <r_lp_Energy>
32.4723

> <b_lp_Chiralities_Consistent>
1

> <s_lp_Variant>
AV-unprocessed.smi:444-1

> <Gold.Version>
5.8.1

> <Gold.Id.Protein>
6NUR|6NUR_protein|mol2

> <Gold.PLP.Fitness>
48.7648

> <Gold.PLP.PLP>
-40.9957

> <Gold.PLP.part.hbond>
-4.0000

> <Gold.PLP.part.metal>
0.0000

> <Gold.PLP.part.buried>
-5.9861

> <Gold.PLP.part.nonpolar>
-32.5085

> <Gold.PLP.part.repulsive>
0.2096

> <Gold.PLP.ligand.clash>
0.0000

> <Gold.PLP.ligand.torsion>
0.7981

> <Gold.PLP.Chemscore.Hbond>
3.0879

> <Gold.PLP.Chemscore.CHOScore>
0.0000

> <Gold.PLP.Chemscore.Metal>
0.0000

> <Gold.Chemscore.Hbonds>
donor molecule, donor type, donor heavy atom, donor atom, acceptor molecule, acceptor atom, score
      P1  H  6896  6908       L1    21  0.31
      P1  H  7989  7998       L1    11  0.05
      P1  H  7997  8008       L1    11  1.00
      P1  H 10752 10764       L1    23  1.00

> <Gold.PLP.Chemscore.Internal.Correction>
0.1017

> <Gold.Rescore>
     Score         DG    S(hbond)    S(metal)    S(lipo)     H(rot)  DE(clash)    DE(int)     intcor
     19.48     -21.82       2.94        0.00     105.87       2.29       0.04       2.30       ----

> <Gold.Chemscore.Fitness>
19.4842

> <Gold.Chemscore.DG>
-21.8220

> <Gold.Chemscore.ZeroCoef>
-5.4800

> <Gold.Chemscore.Hbond>
2.9397

> <Gold.Chemscore.Metal>
0.0000

> <Gold.Chemscore.Lipo>
105.8703

> <Gold.Chemscore.Internal_Hbond>
0.0000

> <Gold.Chemscore.DEClash>
0.0354

> <Gold.Chemscore.DEInternal>
2.3024

> <Gold.Chemscore.Rot>
2.2905

> <Gold.Chemscore.Internal.Correction>
   9.000000E+99

> <Gold.Chemscore.Hbonds>
donor molecule, donor type, donor heavy atom, donor atom, acceptor molecule, acceptor atom, score
      P1  H  6896  6908       L1    21  0.20
      P1  H  7997  8008       L1    11  0.39
      P1  H 10752 10764       L1    23  0.98

> <Gold.Chemscore.Hbond.Weighted>
-9.8187

> <Gold.Chemscore.Metal.Weighted>
-0.0000

> <Gold.Chemscore.Lipo.Weighted>
-12.3868

> <Gold.Chemscore.Internal_Hbond.Weighted>
0.0000

> <Gold.Chemscore.DEClash.Weighted>
0.0354

> <Gold.Chemscore.DEInternal.Weighted>
2.3024

> <Gold.Chemscore.Rot.Weighted>
5.8636

> <Gold.Chemscore.Internal.Correction.Weighted>
   9.000000E+99

> <Gold.Protein.RotatedTorsions>
[ 6907 6896 6895 6894 ] final  110.49 input  -60.11 | X-H torsion
[ 7974 7965 7964 7962 ] final  -22.26 input  175.53 | X-H torsion
[ 8008 7997 7996 7995 ] final   -9.24 input   59.86 | X-H torsion
[ 10167 10162 10161 10158 ] final   53.37 input  -65.29 | X-H torsion
[ 10718 10713 10712 10709 ] final -101.47 input   66.30 | X-H torsion
[ 10763 10752 10751 10750 ] final  -45.44 input  -60.55 | X-H torsion
[ 11005 11000 10999 10996 ] final  107.93 input  -57.11 | X-H torsion

> <Gold.Protein.ActiveResidues>
 VAL166  LYS551  ARG553  GLY616  TRP617  ASP618  TYR619  PRO620  LYS621  CYS622 
 ASP623  PHE694  ASN695  SER759  ASP760  ASP761  ALA762  ILE779  LEU786  VAL792 
 PHE793  MET794  SER795  GLU796  ALA797  LYS798  CYS799  TRP800  GLU811  SER814 

> <Gold.Protein.RotatedAtoms>
  152.5017  133.8792  159.7337 H   0  0  0  0  0  0  0  0  0  0  0  0  # atno 6907 bound_to 6896
  150.9259  133.6816  159.2828 H   0  0  0  0  0  0  0  0  0  0  0  0  # atno 6908 bound_to 6896
  151.4177  135.0998  159.9657 H   0  0  0  0  0  0  0  0  0  0  0  0  # atno 6909 bound_to 6896
  146.1686  140.4454  142.8542 H   0  0  0  0  0  0  0  0  0  0  0  0  # atno 7974 bound_to 7965
  154.5665  140.2360  155.8255 H   0  0  0  0  0  0  0  0  0  0  0  0  # atno 8008 bound_to 7997
  156.2073  140.3036  155.9613 H   0  0  0  0  0  0  0  0  0  0  0  0  # atno 8009 bound_to 7997
  155.2791  140.0421  157.3004 H   0  0  0  0  0  0  0  0  0  0  0  0  # atno 8010 bound_to 7997
  140.2415  144.3578  150.6378 H   0  0  0  0  0  0  0  0  0  0  0  0  # atno 10167 bound_to 10162
  156.0196  130.5375  150.6968 H   0  0  0  0  0  0  0  0  0  0  0  0  # atno 10718 bound_to 10713
  154.0286  135.6659  153.4778 H   0  0  0  0  0  0  0  0  0  0  0  0  # atno 10763 bound_to 10752
  153.0550  135.5062  154.7954 H   0  0  0  0  0  0  0  0  0  0  0  0  # atno 10764 bound_to 10752
  154.6892  135.3058  154.9468 H   0  0  0  0  0  0  0  0  0  0  0  0  # atno 10765 bound_to 10752
  139.8836  134.9415  156.5894 H   0  0  0  0  0  0  0  0  0  0  0  0  # atno 11005 bound_to 11000
  144.8129  140.6417  143.6403 LP  0  0  0  0  0  0  0  0  0  0  0  0  # atno 17320 bound_to 7965
  145.4401  139.1537  143.3975 LP  0  0  0  0  0  0  0  0  0  0  0  0  # atno 17321 bound_to 7965
  140.6110  143.2169  151.6887 LP  0  0  0  0  0  0  0  0  0  0  0  0  # atno 17342 bound_to 10162
  139.5076  144.3642  152.0533 LP  0  0  0  0  0  0  0  0  0  0  0  0  # atno 17343 bound_to 10162
  157.4637  131.0886  151.0717 LP  0  0  0  0  0  0  0  0  0  0  0  0  # atno 17370 bound_to 10713
  157.1198  130.6057  149.5502 LP  0  0  0  0  0  0  0  0  0  0  0  0  # atno 17371 bound_to 10713
  140.7967  133.8539  155.8691 LP  0  0  0  0  0  0  0  0  0  0  0  0  # atno 17394 bound_to 11000
  140.9629  134.1631  157.4639 LP  0  0  0  0  0  0  0  0  0  0  0  0  # atno 17395 bound_to 11000

$$$$
