AV-unprocessed.smi:33|AV-procd|sdf|207|dock8
  -GOLD-   2262015493D 1   1.00000     0.00000
 Structure written by MMmdl.
 67 72  0  0  0  0  0  0  0  0  1 V2000
  152.0270  144.0652  157.6159 O   0  0  0  0  0  0  0  0  0  0  0  0
  151.9497  142.9362  158.1052 C   0  0  0  0  0  0  0  0  0  0  0  0
  151.3100  141.9088  157.5124 O   0  0  0  0  0  0  0  0  0  0  0  0
  150.8851  142.0197  156.1638 C   0  0  0  0  0  0  0  0  0  0  0  0
  149.4728  141.4285  156.0198 C   0  0  2  0  0  0  0  0  0  0  0  0
  149.3608  140.2779  156.8518 O   0  0  0  0  0  0  0  0  0  0  0  0
  149.7766  139.1457  156.1485 C   0  0  1  0  0  0  0  0  0  0  0  0
  148.8615  138.0091  156.4880 N   0  0  0  0  0  0  0  0  0  0  0  0
  147.5069  137.9284  156.2502 C   0  0  0  0  0  0  0  0  0  0  0  0
  146.9326  136.8236  156.6427 N   0  0  0  0  0  0  0  0  0  0  0  0
  147.9700  136.0858  157.1974 C   0  0  0  0  0  0  0  0  0  0  0  0
  148.0552  134.8053  157.8089 C   0  0  0  0  0  0  0  0  0  0  0  0
  146.9847  133.9912  157.9726 N   0  0  0  0  0  0  0  0  0  0  0  0
  146.7938  132.9234  156.9796 C   0  0  0  0  0  0  0  0  0  0  0  0
  146.1565  131.9139  157.2862 O   0  0  0  0  0  0  0  0  0  0  0  0
  147.4091  133.0350  155.6129 C   0  0  0  0  0  0  0  0  0  0  0  0
  148.7754  132.7311  155.4259 C   0  0  0  0  0  0  0  0  0  0  0  0
  149.3539  132.8200  154.1449 C   0  0  0  0  0  0  0  0  0  0  0  0
  148.5663  133.1964  153.0403 C   0  0  0  0  0  0  0  0  0  0  0  0
  147.1973  133.4740  153.2148 C   0  0  0  0  0  0  0  0  0  0  0  0
  146.6178  133.3842  154.4951 C   0  0  0  0  0  0  0  0  0  0  0  0
  146.1019  134.2580  159.1182 C   0  0  0  0  0  0  0  0  0  0  0  0
  144.9166  133.9249  159.0618 O   0  0  0  0  0  0  0  0  0  0  0  0
  146.6201  134.9853  160.3271 C   0  0  0  0  0  0  0  0  0  0  0  0
  145.7885  135.8969  161.0140 C   0  0  0  0  0  0  0  0  0  0  0  0
  146.2634  136.5697  162.1566 C   0  0  0  0  0  0  0  0  0  0  0  0
  147.5655  136.3211  162.6309 C   0  0  0  0  0  0  0  0  0  0  0  0
  148.3900  135.3928  161.9672 C   0  0  0  0  0  0  0  0  0  0  0  0
  147.9163  134.7208  160.8240 C   0  0  0  0  0  0  0  0  0  0  0  0
  149.2718  134.3888  158.2472 N   0  0  0  0  0  0  0  0  0  0  0  0
  150.3388  135.1778  158.0940 C   0  0  0  0  0  0  0  0  0  0  0  0
  150.4066  136.3919  157.5437 N   0  0  0  0  0  0  0  0  0  0  0  0
  149.1869  136.8165  157.1033 C   0  0  0  0  0  0  0  0  0  0  0  0
  149.7775  139.4990  154.6464 C   0  0  1  0  0  0  0  0  0  0  0  0
  149.1005  138.5909  153.7961 O   0  0  0  0  0  0  0  0  0  0  0  0
  149.1636  140.8920  154.6201 C   0  0  1  0  0  0  0  0  0  0  0  0
  147.8378  140.8357  154.4811 F   0  0  0  0  0  0  0  0  0  0  0  0
  152.5572  142.5630  159.4150 C   0  0  0  0  0  0  0  0  0  0  0  0
  153.3041  141.3661  159.5170 C   0  0  0  0  0  0  0  0  0  0  0  0
  153.8876  140.9868  160.7415 C   0  0  0  0  0  0  0  0  0  0  0  0
  153.7332  141.8011  161.8784 C   0  0  0  0  0  0  0  0  0  0  0  0
  152.9949  142.9956  161.7893 C   0  0  0  0  0  0  0  0  0  0  0  0
  152.4089  143.3756  160.5661 C   0  0  0  0  0  0  0  0  0  0  0  0
  150.9066  143.0629  155.8465 H   0  0  0  0  0  0  0  0  0  0  0  0
  151.5782  141.4702  155.5252 H   0  0  0  0  0  0  0  0  0  0  0  0
  148.7387  142.1720  156.3327 H   0  0  0  0  0  0  0  0  0  0  0  0
  150.7561  138.8205  156.5017 H   0  0  0  0  0  0  0  0  0  0  0  0
  146.9520  138.7235  155.7739 H   0  0  0  0  0  0  0  0  0  0  0  0
  149.3893  132.4413  156.2665 H   0  0  0  0  0  0  0  0  0  0  0  0
  150.4024  132.5986  154.0098 H   0  0  0  0  0  0  0  0  0  0  0  0
  149.0104  133.2653  152.0582 H   0  0  0  0  0  0  0  0  0  0  0  0
  146.5904  133.7542  152.3664 H   0  0  0  0  0  0  0  0  0  0  0  0
  145.5645  133.5940  154.6161 H   0  0  0  0  0  0  0  0  0  0  0  0
  144.7872  136.0948  160.6596 H   0  0  0  0  0  0  0  0  0  0  0  0
  145.6279  137.2759  162.6702 H   0  0  0  0  0  0  0  0  0  0  0  0
  147.9290  136.8372  163.5073 H   0  0  0  0  0  0  0  0  0  0  0  0
  149.3855  135.1949  162.3360 H   0  0  0  0  0  0  0  0  0  0  0  0
  148.5564  134.0064  160.3262 H   0  0  0  0  0  0  0  0  0  0  0  0
  151.2717  134.7799  158.4648 H   0  0  0  0  0  0  0  0  0  0  0  0
  150.8190  139.5588  154.3283 H   0  0  0  0  0  0  0  0  0  0  0  0
  149.0273  138.9861  152.9401 H   0  0  0  0  0  0  0  0  0  0  0  0
  149.5456  141.5191  153.8138 H   0  0  0  0  0  0  0  0  0  0  0  0
  153.4359  140.7243  158.6576 H   0  0  0  0  0  0  0  0  0  0  0  0
  154.4539  140.0696  160.8083 H   0  0  0  0  0  0  0  0  0  0  0  0
  154.1805  141.5103  162.8174 H   0  0  0  0  0  0  0  0  0  0  0  0
  152.8773  143.6228  162.6609 H   0  0  0  0  0  0  0  0  0  0  0  0
  151.8494  144.2990  160.5328 H   0  0  0  0  0  0  0  0  0  0  0  0
  1  2  2  0  0  0  0
  2  3  1  0  0  0  0
  2 38  1  0  0  0  0
  3  4  1  0  0  0  0
  4  5  1  0  0  0  0
  4 44  1  0  0  0  0
  4 45  1  0  0  0  0
  5 36  1  0  0  0  0
  5  6  1  0  0  0  0
  5 46  1  0  0  0  0
  6  7  1  0  0  0  0
  7  8  1  0  0  0  0
  7 34  1  0  0  0  0
  7 47  1  0  0  0  0
  8 33  1  0  0  0  0
  8  9  1  0  0  0  0
  9 10  2  0  0  0  0
  9 48  1  0  0  0  0
 10 11  1  0  0  0  0
 11 33  2  0  0  0  0
 11 12  1  0  0  0  0
 12 13  1  0  0  0  0
 12 30  2  0  0  0  0
 13 14  1  0  0  0  0
 13 22  1  0  0  0  0
 14 15  2  0  0  0  0
 14 16  1  0  0  0  0
 16 21  1  0  0  0  0
 16 17  2  0  0  0  0
 17 18  1  0  0  0  0
 17 49  1  0  0  0  0
 18 19  2  0  0  0  0
 18 50  1  0  0  0  0
 19 20  1  0  0  0  0
 19 51  1  0  0  0  0
 20 21  2  0  0  0  0
 20 52  1  0  0  0  0
 21 53  1  0  0  0  0
 22 23  2  0  0  0  0
 22 24  1  0  0  0  0
 24 29  1  0  0  0  0
 24 25  2  0  0  0  0
 25 26  1  0  0  0  0
 25 54  1  0  0  0  0
 26 27  2  0  0  0  0
 26 55  1  0  0  0  0
 27 28  1  0  0  0  0
 27 56  1  0  0  0  0
 28 29  2  0  0  0  0
 28 57  1  0  0  0  0
 29 58  1  0  0  0  0
 30 31  1  0  0  0  0
 31 32  2  0  0  0  0
 31 59  1  0  0  0  0
 32 33  1  0  0  0  0
 34 35  1  0  0  0  0
 34 36  1  0  0  0  0
 34 60  1  0  0  0  0
 35 61  1  0  0  0  0
 36 37  1  0  0  0  0
 36 62  1  0  0  0  0
 38 43  1  0  0  0  0
 38 39  2  0  0  0  0
 39 40  1  0  0  0  0
 39 63  1  0  0  0  0
 40 41  2  0  0  0  0
 40 64  1  0  0  0  0
 41 42  1  0  0  0  0
 41 65  1  0  0  0  0
 42 43  2  0  0  0  0
 42 66  1  0  0  0  0
 43 67  1  0  0  0  0
M  END
> <s_m_source_file>
AV-unprocessed.smi

> <i_m_source_file_index>
33

> <i_lp_mmshare_version>
43012

> <i_f3d_flags>
0

> <s_epik_input>
W2NIXTFbY0hdW2NIXVtjSF1bY0hdYzFDKD1PKU9bQ0gyXVtDQEBIXTJPW0NASF0oW0NAQEhdKFtPSF0pW0NAQEhdMkYpbihbY0hdbjMpYyhjMzQpbltjSF1uYzROKEMoPU8pYzVbY0hdW2NIXVtjSF1bY0hdW2NIXTUpQyg9TyljNltjSF1bY0hdW2NIXVtjSF1bY0hdNg==

> <s_epik_cmdline>
J2VwaWtfcHl0aG9uJywgJy1waCcsICc3LjAnLCAnLXRuJywgJzgnLCAnLW1hJywgJzIwMCcsICctbWV0YWxfYmluZGluZycsICctaW1hZScsICc8aW5maWxlLm1hZT4nLCAnLW9tYWUnLCAnPG91dGZpbGUubWFlPic=

> <r_lp_tautomer_probability>
1

> <r_epik_Ionization_Penalty>
0.00067664

> <r_epik_Ionization_Penalty_Charging>
0

> <r_epik_Ionization_Penalty_Neutral>
0.00067664

> <r_epik_State_Penalty>
0.000428095

> <r_epik_Charging_Adjusted_Penalty>
0.000428095

> <i_epik_Tot_Q>
0

> <i_epik_Tot_abs_Q>
0

> <r_epik_Metal_State_Penalty>
-0

> <b_epik_Metal_Only>
0

> <s_epik_Chemistry_Notes>
This compound has an ester and may undergo hydrolysis at high or low pH. This compound contains an acetal/aminal-like group ( X-CH(R)-Y where X, Y are N, S, or O) that may be acid/base labile, releasing an aldehyde.

> <s_lp_Force_Field>
OPLS_2005

> <r_lp_Energy>
79.5237

> <b_lp_Chiralities_Consistent>
1

> <s_lp_Variant>
AV-unprocessed.smi:33-9

> <Gold.Version>
5.8.1

> <Gold.Id.Protein>
6NUR|6NUR_protein|mol2

> <Gold.PLP.Fitness>
55.7173

> <Gold.PLP.PLP>
-59.1841

> <Gold.PLP.part.hbond>
-2.4097

> <Gold.PLP.part.metal>
0.0000

> <Gold.PLP.part.buried>
-0.2853

> <Gold.PLP.part.nonpolar>
-54.0441

> <Gold.PLP.part.repulsive>
0.2358

> <Gold.PLP.ligand.clash>
0.0000

> <Gold.PLP.ligand.torsion>
5.4609

> <Gold.PLP.Chemscore.Hbond>
0.9913

> <Gold.PLP.Chemscore.CHOScore>
0.0000

> <Gold.PLP.Chemscore.Metal>
0.0000

> <Gold.Chemscore.Hbonds>
donor molecule, donor type, donor heavy atom, donor atom, acceptor molecule, acceptor atom, score
      L1  H    35    61       P1  7957  0.73

> <Gold.PLP.Chemscore.Internal.Correction>
4.4811

> <Gold.Rescore>
     Score         DG    S(hbond)    S(metal)    S(lipo)     H(rot)  DE(clash)    DE(int)     intcor
      9.77     -20.99       0.76        0.00     166.09       2.52       3.43       7.79       ----

> <Gold.Chemscore.Fitness>
9.7692

> <Gold.Chemscore.DG>
-20.9905

> <Gold.Chemscore.ZeroCoef>
-5.4800

> <Gold.Chemscore.Hbond>
0.7607

> <Gold.Chemscore.Metal>
0.0000

> <Gold.Chemscore.Lipo>
166.0935

> <Gold.Chemscore.Internal_Hbond>
0.0000

> <Gold.Chemscore.DEClash>
3.4301

> <Gold.Chemscore.DEInternal>
7.7912

> <Gold.Chemscore.Rot>
2.5247

> <Gold.Chemscore.Internal.Correction>
   9.000000E+99

> <Gold.Chemscore.Hbonds>
donor molecule, donor type, donor heavy atom, donor atom, acceptor molecule, acceptor atom, score
      L1  H    35    61       P1  7957  0.72

> <Gold.Chemscore.Hbond.Weighted>
-2.5408

> <Gold.Chemscore.Metal.Weighted>
-0.0000

> <Gold.Chemscore.Lipo.Weighted>
-19.4329

> <Gold.Chemscore.Internal_Hbond.Weighted>
0.0000

> <Gold.Chemscore.DEClash.Weighted>
3.4301

> <Gold.Chemscore.DEInternal.Weighted>
7.7912

> <Gold.Chemscore.Rot.Weighted>
6.4633

> <Gold.Chemscore.Internal.Correction.Weighted>
   9.000000E+99

> <Gold.Protein.RotatedTorsions>
[ 6907 6896 6895 6894 ] final  136.49 input  -60.11 | X-H torsion
[ 7974 7965 7964 7962 ] final   33.71 input  175.53 | X-H torsion
[ 8008 7997 7996 7995 ] final  160.53 input   59.86 | X-H torsion
[ 10167 10162 10161 10158 ] final  -47.67 input  -65.29 | X-H torsion
[ 10718 10713 10712 10709 ] final  127.77 input   66.30 | X-H torsion
[ 10763 10752 10751 10750 ] final  -42.62 input  -60.55 | X-H torsion
[ 11005 11000 10999 10996 ] final -136.80 input  -57.11 | X-H torsion

> <Gold.Protein.ActiveResidues>
 VAL166  LYS551  ARG553  GLY616  TRP617  ASP618  TYR619  PRO620  LYS621  CYS622 
 ASP623  PHE694  ASN695  SER759  ASP760  ASP761  ALA762  ILE779  LEU786  VAL792 
 PHE793  MET794  SER795  GLU796  ALA797  LYS798  CYS799  TRP800  GLU811  SER814 

> <Gold.Protein.RotatedAtoms>
  152.2887  133.5540  159.5543 H   0  0  0  0  0  0  0  0  0  0  0  0  # atno 6907 bound_to 6896
  150.7226  134.0460  159.3791 H   0  0  0  0  0  0  0  0  0  0  0  0  # atno 6908 bound_to 6896
  151.8367  135.0604  160.0494 H   0  0  0  0  0  0  0  0  0  0  0  0  # atno 6909 bound_to 6896
  146.1402  139.6362  142.9168 H   0  0  0  0  0  0  0  0  0  0  0  0  # atno 7974 bound_to 7965
  156.2166  140.1802  156.7575 H   0  0  0  0  0  0  0  0  0  0  0  0  # atno 8008 bound_to 7997
  154.5800  140.0668  156.9120 H   0  0  0  0  0  0  0  0  0  0  0  0  # atno 8009 bound_to 7997
  155.2518  140.3329  155.4284 H   0  0  0  0  0  0  0  0  0  0  0  0  # atno 8010 bound_to 7997
  140.6765  143.2774  151.3960 H   0  0  0  0  0  0  0  0  0  0  0  0  # atno 10167 bound_to 10162
  157.5304  131.1098  150.9018 H   0  0  0  0  0  0  0  0  0  0  0  0  # atno 10718 bound_to 10713
  153.9820  135.6716  153.4750 H   0  0  0  0  0  0  0  0  0  0  0  0  # atno 10763 bound_to 10752
  153.0744  135.4956  154.8370 H   0  0  0  0  0  0  0  0  0  0  0  0  # atno 10764 bound_to 10752
  154.7159  135.3107  154.9086 H   0  0  0  0  0  0  0  0  0  0  0  0  # atno 10765 bound_to 10752
  140.8771  134.1978  157.4615 H   0  0  0  0  0  0  0  0  0  0  0  0  # atno 11005 bound_to 11000
  145.5064  141.0436  143.2512 LP  0  0  0  0  0  0  0  0  0  0  0  0  # atno 17320 bound_to 7965
  144.7784  139.6579  143.7165 LP  0  0  0  0  0  0  0  0  0  0  0  0  # atno 17321 bound_to 7965
  139.6060  144.1195  152.2250 LP  0  0  0  0  0  0  0  0  0  0  0  0  # atno 17342 bound_to 10162
  140.0595  144.5868  150.7274 LP  0  0  0  0  0  0  0  0  0  0  0  0  # atno 17343 bound_to 10162
  156.9601  130.5452  149.5285 LP  0  0  0  0  0  0  0  0  0  0  0  0  # atno 17370 bound_to 10713
  156.0418  130.5500  150.8789 LP  0  0  0  0  0  0  0  0  0  0  0  0  # atno 17371 bound_to 10713
  139.8716  134.9800  156.5061 LP  0  0  0  0  0  0  0  0  0  0  0  0  # atno 17394 bound_to 11000
  140.8505  133.8136  155.9164 LP  0  0  0  0  0  0  0  0  0  0  0  0  # atno 17395 bound_to 11000

$$$$
