AV-unprocessed.smi:2344|AV-procd|sdf|9358|dock1
  -GOLD-   2272012583D 1   1.00000     0.00000
 Structure written by MMmdl.
 35 36  0  0  0  0  0  0  0  0  1 V2000
  146.1861  138.6068  152.1113 C   0  0  0  0  0  0  0  0  0  0  0  0
  147.1155  139.4683  152.9399 C   0  0  0  0  0  0  0  0  0  0  0  0
  146.8610  140.8400  153.1272 C   0  0  0  0  0  0  0  0  0  0  0  0
  147.7570  141.5960  153.9073 C   0  0  0  0  0  0  0  0  0  0  0  0
  148.8831  140.9648  154.4822 C   0  0  0  0  0  0  0  0  0  0  0  0
  149.7237  141.8164  155.2473 N   0  0  0  0  0  0  0  0  0  0  0  0
  150.8532  141.4995  155.9043 C   0  0  0  0  0  0  0  0  0  0  0  0
  151.3602  140.3784  155.9532 O   0  0  0  0  0  0  0  0  0  0  0  0
  151.3735  142.5722  156.5175 N   0  0  0  0  0  0  0  0  0  0  0  0
  152.5867  142.5633  157.3267 C   0  0  1  0  0  0  0  0  0  0  0  0
  152.8442  143.9273  157.9052 C   0  0  0  0  0  0  0  0  0  0  0  0
  152.8732  143.9246  159.2359 C   0  0  0  0  0  0  0  0  0  0  0  0
  152.6165  142.5627  159.8257 C   0  0  2  0  0  0  0  0  0  0  0  0
  153.7370  142.1288  160.7846 C   0  0  0  0  0  0  0  0  0  0  0  0
  153.5338  142.6949  162.0619 O   0  0  0  0  0  0  0  0  0  0  0  0
  152.4678  141.6534  158.5775 C   0  0  0  0  0  0  0  0  0  0  0  0
  149.1179  139.6416  154.2984 N   0  0  0  0  0  0  0  0  0  0  0  0
  148.2588  138.9178  153.5506 C   0  0  0  0  0  0  0  0  0  0  0  0
  153.4455  142.2765  156.7171 H   0  0  0  0  0  0  0  0  0  0  0  0
  151.6694  142.6139  160.3644 H   0  0  0  0  0  0  0  0  0  0  0  0
  145.6231  139.2114  151.3996 H   0  0  0  0  0  0  0  0  0  0  0  0
  145.4781  138.0878  152.7579 H   0  0  0  0  0  0  0  0  0  0  0  0
  146.7505  137.8615  151.5500 H   0  0  0  0  0  0  0  0  0  0  0  0
  145.9955  141.3086  152.6821 H   0  0  0  0  0  0  0  0  0  0  0  0
  147.5771  142.6503  154.0596 H   0  0  0  0  0  0  0  0  0  0  0  0
  149.4300  142.7802  155.3013 H   0  0  0  0  0  0  0  0  0  0  0  0
  150.8928  143.4550  156.4272 H   0  0  0  0  0  0  0  0  0  0  0  0
  152.9969  144.7967  157.2828 H   0  0  0  0  0  0  0  0  0  0  0  0
  153.0428  144.7941  159.8537 H   0  0  0  0  0  0  0  0  0  0  0  0
  153.7784  141.0425  160.8720 H   0  0  0  0  0  0  0  0  0  0  0  0
  154.7065  142.4608  160.4116 H   0  0  0  0  0  0  0  0  0  0  0  0
  153.2617  142.0106  162.6541 H   0  0  0  0  0  0  0  0  0  0  0  0
  151.5172  141.1191  158.6087 H   0  0  0  0  0  0  0  0  0  0  0  0
  153.2484  140.8924  158.5500 H   0  0  0  0  0  0  0  0  0  0  0  0
  148.4927  137.8694  153.4378 H   0  0  0  0  0  0  0  0  0  0  0  0
  1  2  1  0  0  0  0
  1 21  1  0  0  0  0
  1 22  1  0  0  0  0
  1 23  1  0  0  0  0
  2 18  1  0  0  0  0
  2  3  2  0  0  0  0
  3  4  1  0  0  0  0
  3 24  1  0  0  0  0
  4  5  2  0  0  0  0
  4 25  1  0  0  0  0
  5  6  1  0  0  0  0
  5 17  1  0  0  0  0
  6  7  1  0  0  0  0
  6 26  1  0  0  0  0
  7  8  2  0  0  0  0
  7  9  1  0  0  0  0
  9 10  1  0  0  0  0
  9 27  1  0  0  0  0
 10 19  1  0  0  0  0
 10 16  1  0  0  0  0
 10 11  1  0  0  0  0
 11 12  2  0  0  0  0
 11 28  1  0  0  0  0
 12 13  1  0  0  0  0
 12 29  1  0  0  0  0
 13 20  1  0  0  0  0
 13 14  1  0  0  0  0
 13 16  1  0  0  0  0
 14 15  1  0  0  0  0
 14 30  1  0  0  0  0
 14 31  1  0  0  0  0
 15 32  1  0  0  0  0
 16 33  1  0  0  0  0
 16 34  1  0  0  0  0
 17 18  2  0  0  0  0
 18 35  1  0  0  0  0
M  END
> <s_m_source_file>
AV-unprocessed.smi

> <i_m_source_file_index>
2344

> <i_lp_mmshare_version>
43012

> <i_f3d_flags>
0

> <s_epik_input>
W0NIM11jMVtjSF1bY0hdYyhuW2NIXTEpW05IXUMoPU8pW05IXVtDQEBIXTJbQ0hdPVtDSF1bQ0BASF0oW0NIMl0yKVtDSDJdW09IXQ==

> <s_epik_cmdline>
J2VwaWtfcHl0aG9uJywgJy1waCcsICc3LjAnLCAnLXRuJywgJzgnLCAnLW1hJywgJzIwMCcsICctbWV0YWxfYmluZGluZycsICctaW1hZScsICc8aW5maWxlLm1hZT4nLCAnLW9tYWUnLCAnPG91dGZpbGUubWFlPic=

> <r_lp_tautomer_probability>
1

> <r_epik_Ionization_Penalty>
5.7643e-05

> <r_epik_Ionization_Penalty_Charging>
0

> <r_epik_Ionization_Penalty_Neutral>
5.7643e-05

> <r_epik_State_Penalty>
-0

> <r_epik_Charging_Adjusted_Penalty>
0

> <i_epik_Tot_Q>
0

> <i_epik_Tot_abs_Q>
0

> <r_epik_Metal_State_Penalty>
-0

> <b_epik_Metal_Only>
0

> <s_lp_Force_Field>
OPLS_2005

> <r_lp_Energy>
17.6743

> <b_lp_Chiralities_Consistent>
1

> <s_lp_Variant>
AV-unprocessed.smi:2344-2

> <Gold.Version>
5.8.1

> <Gold.Id.Protein>
6NUR|6NUR_protein|mol2

> <Gold.PLP.Fitness>
51.0966

> <Gold.PLP.PLP>
-43.2129

> <Gold.PLP.part.hbond>
-2.9348

> <Gold.PLP.part.metal>
0.0000

> <Gold.PLP.part.buried>
-3.7641

> <Gold.PLP.part.nonpolar>
-37.5516

> <Gold.PLP.part.repulsive>
0.3239

> <Gold.PLP.ligand.clash>
0.0000

> <Gold.PLP.ligand.torsion>
0.2085

> <Gold.PLP.Chemscore.Hbond>
1.8882

> <Gold.PLP.Chemscore.CHOScore>
0.8719

> <Gold.PLP.Chemscore.Metal>
0.0000

> <Gold.Chemscore.Hbonds>
donor molecule, donor type, donor heavy atom, donor atom, acceptor molecule, acceptor atom, score
      L1  H     6    26       P1  8028  0.98
      L1  C    18    35       P1  7948  1.00

> <Gold.PLP.Chemscore.Internal.Correction>
0.0205

> <Gold.Rescore>
     Score         DG    S(hbond)    S(metal)    S(lipo)     H(rot)  DE(clash)    DE(int)     intcor
     16.63     -19.13       1.82        0.00     104.33       1.82       0.07       2.43       ----

> <Gold.Chemscore.Fitness>
16.6285

> <Gold.Chemscore.DG>
-19.1262

> <Gold.Chemscore.ZeroCoef>
-5.4800

> <Gold.Chemscore.Hbond>
1.8249

> <Gold.Chemscore.Metal>
0.0000

> <Gold.Chemscore.Lipo>
104.3263

> <Gold.Chemscore.Internal_Hbond>
0.0000

> <Gold.Chemscore.DEClash>
0.0712

> <Gold.Chemscore.DEInternal>
2.4265

> <Gold.Chemscore.Rot>
1.8184

> <Gold.Chemscore.Internal.Correction>
   9.000000E+99

> <Gold.Chemscore.Hbonds>
donor molecule, donor type, donor heavy atom, donor atom, acceptor molecule, acceptor atom, score
      L1  H     6    26       P1  8028  0.91
      L1  H     9    27       P1  8028  0.02

> <Gold.Chemscore.Hbond.Weighted>
-6.0951

> <Gold.Chemscore.Metal.Weighted>
-0.0000

> <Gold.Chemscore.Lipo.Weighted>
-12.2062

> <Gold.Chemscore.Internal_Hbond.Weighted>
0.0000

> <Gold.Chemscore.DEClash.Weighted>
0.0712

> <Gold.Chemscore.DEInternal.Weighted>
2.4265

> <Gold.Chemscore.Rot.Weighted>
4.6551

> <Gold.Chemscore.Internal.Correction.Weighted>
   9.000000E+99

> <Gold.Protein.RotatedTorsions>
[ 6907 6896 6895 6894 ] final  -55.37 input  -60.11 | X-H torsion
[ 7974 7965 7964 7962 ] final  -64.33 input  175.53 | X-H torsion
[ 8008 7997 7996 7995 ] final -165.76 input   59.86 | X-H torsion
[ 10167 10162 10161 10158 ] final  118.19 input  -65.29 | X-H torsion
[ 10718 10713 10712 10709 ] final   38.09 input   66.30 | X-H torsion
[ 10763 10752 10751 10750 ] final -130.85 input  -60.55 | X-H torsion
[ 11005 11000 10999 10996 ] final  113.85 input  -57.11 | X-H torsion

> <Gold.Protein.ActiveResidues>
 VAL166  LYS551  ARG553  GLY616  TRP617  ASP618  TYR619  PRO620  LYS621  CYS622 
 ASP623  PHE694  ASN695  SER759  ASP760  ASP761  ALA762  ILE779  LEU786  VAL792 
 PHE793  MET794  SER795  GLU796  ALA797  LYS798  CYS799  TRP800  GLU811  SER814 

> <Gold.Protein.RotatedAtoms>
  150.8257  134.7487  159.6810 H   0  0  0  0  0  0  0  0  0  0  0  0  # atno 6907 bound_to 6896
  152.4368  134.5667  159.9919 H   0  0  0  0  0  0  0  0  0  0  0  0  # atno 6908 bound_to 6896
  151.5840  133.3337  159.3050 H   0  0  0  0  0  0  0  0  0  0  0  0  # atno 6909 bound_to 6896
  145.7681  140.8827  143.0394 H   0  0  0  0  0  0  0  0  0  0  0  0  # atno 7974 bound_to 7965
  155.8543  140.0968  157.1655 H   0  0  0  0  0  0  0  0  0  0  0  0  # atno 8008 bound_to 7997
  154.3987  140.1377  156.3944 H   0  0  0  0  0  0  0  0  0  0  0  0  # atno 8009 bound_to 7997
  155.7927  140.3455  155.5361 H   0  0  0  0  0  0  0  0  0  0  0  0  # atno 8010 bound_to 7997
  139.6128  144.7085  151.2806 H   0  0  0  0  0  0  0  0  0  0  0  0  # atno 10167 bound_to 10162
  157.3546  130.7617  149.7003 H   0  0  0  0  0  0  0  0  0  0  0  0  # atno 10718 bound_to 10713
  154.8754  135.3849  154.4151 H   0  0  0  0  0  0  0  0  0  0  0  0  # atno 10763 bound_to 10752
  153.4861  135.7030  153.5916 H   0  0  0  0  0  0  0  0  0  0  0  0  # atno 10764 bound_to 10752
  153.4310  135.3878  155.2138 H   0  0  0  0  0  0  0  0  0  0  0  0  # atno 10765 bound_to 10752
  139.8964  134.9557  156.6803 H   0  0  0  0  0  0  0  0  0  0  0  0  # atno 11005 bound_to 11000
  144.6818  139.9817  143.7483 LP  0  0  0  0  0  0  0  0  0  0  0  0  # atno 17320 bound_to 7965
  146.0197  139.3240  143.0820 LP  0  0  0  0  0  0  0  0  0  0  0  0  # atno 17321 bound_to 7965
  140.7331  143.6805  150.8005 LP  0  0  0  0  0  0  0  0  0  0  0  0  # atno 17342 bound_to 10162
  140.0403  143.5353  152.2721 LP  0  0  0  0  0  0  0  0  0  0  0  0  # atno 17343 bound_to 10162
  155.9727  130.4131  150.4064 LP  0  0  0  0  0  0  0  0  0  0  0  0  # atno 17370 bound_to 10713
  157.2132  131.0465  151.2588 LP  0  0  0  0  0  0  0  0  0  0  0  0  # atno 17371 bound_to 10713
  140.7305  133.9063  155.8208 LP  0  0  0  0  0  0  0  0  0  0  0  0  # atno 17394 bound_to 11000
  141.0157  134.0959  157.4174 LP  0  0  0  0  0  0  0  0  0  0  0  0  # atno 17395 bound_to 11000

$$$$
