AV-unprocessed.smi:470|AV-procd|sdf|2655|dock7
  -GOLD-   2262023 63D 1   1.00000     0.00000
 Structure written by MMmdl.
 33 34  0  0  0  0  0  0  0  0  1 V2000
  145.3730  137.8778  152.1469 N   0  0  0  0  0  0  0  0  0  0  0  0
  146.6013  138.3903  152.0316 C   0  0  0  0  0  0  0  0  0  0  0  0
  147.0553  138.7748  150.9560 O   0  0  0  0  0  0  0  0  0  0  0  0
  147.4428  138.4819  153.3058 C   0  0  0  0  0  0  0  0  0  0  0  0
  147.5619  139.9108  153.7486 C   0  0  0  0  0  0  0  0  0  0  0  0
  146.8772  140.9917  153.2481 C   0  0  0  0  0  0  0  0  0  0  0  0
  147.3093  142.4728  154.0603 S   0  0  0  0  0  0  0  0  0  0  0  0
  148.4462  141.5601  155.0402 C   0  0  0  0  0  0  0  0  0  0  0  0
  149.2086  142.1709  156.0706 N   0  0  0  0  0  0  0  0  0  0  0  0
  150.0568  141.6317  156.9706 C   0  0  0  0  0  0  0  0  0  0  0  0
  150.2455  140.4163  156.9723 O   0  0  0  0  0  0  0  0  0  0  0  0
  150.7869  142.5020  158.0150 C   0  0  1  0  0  0  0  0  0  0  0  0
  151.7381  141.6675  158.9075 C   0  0  0  0  0  0  0  0  0  0  0  0
  152.6126  142.5481  159.7829 C   0  0  0  0  0  0  0  0  0  0  0  0
  152.8020  143.8592  159.5544 C   0  0  0  0  0  0  0  0  0  0  0  0
  152.1671  144.6045  158.3934 C   0  0  0  0  0  0  0  0  0  0  0  0
  151.5724  143.6473  157.3435 C   0  0  0  0  0  0  0  0  0  0  0  0
  148.4463  140.2496  154.7773 N   0  0  0  0  0  0  0  0  0  0  0  0
  144.7810  137.8069  151.3322 H   0  0  0  0  0  0  0  0  0  0  0  0
  145.0376  137.5709  153.0487 H   0  0  0  0  0  0  0  0  0  0  0  0
  146.9898  137.8683  154.0861 H   0  0  0  0  0  0  0  0  0  0  0  0
  148.4288  138.0567  153.1155 H   0  0  0  0  0  0  0  0  0  0  0  0
  146.1392  141.0032  152.4598 H   0  0  0  0  0  0  0  0  0  0  0  0
  149.0780  143.1686  156.1547 H   0  0  0  0  0  0  0  0  0  0  0  0
  150.0528  142.9291  158.6965 H   0  0  0  0  0  0  0  0  0  0  0  0
  151.1567  141.0052  159.5497 H   0  0  0  0  0  0  0  0  0  0  0  0
  152.4000  141.0355  158.3142 H   0  0  0  0  0  0  0  0  0  0  0  0
  153.1067  142.0703  160.6162 H   0  0  0  0  0  0  0  0  0  0  0  0
  153.4262  144.4358  160.2212 H   0  0  0  0  0  0  0  0  0  0  0  0
  151.3871  145.2529  158.7942 H   0  0  0  0  0  0  0  0  0  0  0  0
  152.9116  145.2510  157.9285 H   0  0  0  0  0  0  0  0  0  0  0  0
  152.3802  143.2264  156.7425 H   0  0  0  0  0  0  0  0  0  0  0  0
  150.9426  144.2088  156.6527 H   0  0  0  0  0  0  0  0  0  0  0  0
  1  2  1  0  0  0  0
  1 19  1  0  0  0  0
  1 20  1  0  0  0  0
  2  3  2  0  0  0  0
  2  4  1  0  0  0  0
  4  5  1  0  0  0  0
  4 21  1  0  0  0  0
  4 22  1  0  0  0  0
  5 18  1  0  0  0  0
  5  6  2  0  0  0  0
  6  7  1  0  0  0  0
  6 23  1  0  0  0  0
  7  8  1  0  0  0  0
  8  9  1  0  0  0  0
  8 18  2  0  0  0  0
  9 10  1  0  0  0  0
  9 24  1  0  0  0  0
 10 11  2  0  0  0  0
 10 12  1  0  0  0  0
 12 17  1  0  0  0  0
 12 13  1  0  0  0  0
 12 25  1  0  0  0  0
 13 14  1  0  0  0  0
 13 26  1  0  0  0  0
 13 27  1  0  0  0  0
 14 15  2  0  0  0  0
 14 28  1  0  0  0  0
 15 16  1  0  0  0  0
 15 29  1  0  0  0  0
 16 17  1  0  0  0  0
 16 30  1  0  0  0  0
 16 31  1  0  0  0  0
 17 32  1  0  0  0  0
 17 33  1  0  0  0  0
M  END
> <s_m_source_file>
AV-unprocessed.smi

> <i_m_source_file_index>
470

> <i_lp_mmshare_version>
43012

> <i_f3d_flags>
0

> <s_epik_input>
W05IMl1DKD1PKVtDSDJdYzFbY0hdc2MobjEpW05IXUMoPU8pW0NAQEhdMltDSDJdW0NIXT1bQ0hdW0NIMl1bQ0gyXTI=

> <s_epik_cmdline>
J2VwaWtfcHl0aG9uJywgJy1waCcsICc3LjAnLCAnLXRuJywgJzgnLCAnLW1hJywgJzIwMCcsICctbWV0YWxfYmluZGluZycsICctaW1hZScsICc8aW5maWxlLm1hZT4nLCAnLW9tYWUnLCAnPG91dGZpbGUubWFlPic=

> <r_lp_tautomer_probability>
1

> <r_epik_Ionization_Penalty>
0.00025496

> <r_epik_Ionization_Penalty_Charging>
0

> <r_epik_Ionization_Penalty_Neutral>
0.00025496

> <r_epik_State_Penalty>
-0

> <r_epik_Charging_Adjusted_Penalty>
0

> <i_epik_Tot_Q>
0

> <i_epik_Tot_abs_Q>
0

> <r_epik_Metal_State_Penalty>
0.149391

> <b_epik_Metal_Only>
0

> <s_lp_Force_Field>
OPLS_2005

> <r_lp_Energy>
12.0987

> <b_lp_Chiralities_Consistent>
1

> <s_lp_Variant>
AV-unprocessed.smi:470-2

> <Gold.Version>
5.8.1

> <Gold.Id.Protein>
6NUR|6NUR_protein|mol2

> <Gold.PLP.Fitness>
49.1384

> <Gold.PLP.PLP>
-38.3643

> <Gold.PLP.part.hbond>
-4.0000

> <Gold.PLP.part.metal>
0.0000

> <Gold.PLP.part.buried>
-4.0284

> <Gold.PLP.part.nonpolar>
-32.5151

> <Gold.PLP.part.repulsive>
1.5669

> <Gold.PLP.ligand.clash>
0.0000

> <Gold.PLP.ligand.torsion>
0.2592

> <Gold.PLP.Chemscore.Hbond>
2.9760

> <Gold.PLP.Chemscore.CHOScore>
0.7816

> <Gold.PLP.Chemscore.Metal>
0.0000

> <Gold.Chemscore.Hbonds>
donor molecule, donor type, donor heavy atom, donor atom, acceptor molecule, acceptor atom, score
      L1  H     1    19       P1 10171  1.00
      L1  H     9    24       P1  8028  1.00
      P1  H  7954  7966       L1     3  0.88
      L1  C     6    23       P1 10175  0.75

> <Gold.PLP.Chemscore.Internal.Correction>
0.0196

> <Gold.Rescore>
     Score         DG    S(hbond)    S(metal)    S(lipo)     H(rot)  DE(clash)    DE(int)     intcor
     18.71     -20.85       2.84        0.00      91.70       1.90       0.41       1.73       ----

> <Gold.Chemscore.Fitness>
18.7137

> <Gold.Chemscore.DG>
-20.8503

> <Gold.Chemscore.ZeroCoef>
-5.4800

> <Gold.Chemscore.Hbond>
2.8434

> <Gold.Chemscore.Metal>
0.0000

> <Gold.Chemscore.Lipo>
91.7024

> <Gold.Chemscore.Internal_Hbond>
0.0000

> <Gold.Chemscore.DEClash>
0.4112

> <Gold.Chemscore.DEInternal>
1.7254

> <Gold.Chemscore.Rot>
1.8968

> <Gold.Chemscore.Internal.Correction>
   9.000000E+99

> <Gold.Chemscore.Hbonds>
donor molecule, donor type, donor heavy atom, donor atom, acceptor molecule, acceptor atom, score
      L1  H     1    19       P1 10171  0.96
      L1  H     9    24       P1  8028  0.99
      P1  H  7954  7966       L1     3  0.86

> <Gold.Chemscore.Hbond.Weighted>
-9.4969

> <Gold.Chemscore.Metal.Weighted>
-0.0000

> <Gold.Chemscore.Lipo.Weighted>
-10.7292

> <Gold.Chemscore.Internal_Hbond.Weighted>
0.0000

> <Gold.Chemscore.DEClash.Weighted>
0.4112

> <Gold.Chemscore.DEInternal.Weighted>
1.7254

> <Gold.Chemscore.Rot.Weighted>
4.8558

> <Gold.Chemscore.Internal.Correction.Weighted>
   9.000000E+99

> <Gold.Protein.RotatedTorsions>
[ 6907 6896 6895 6894 ] final  -26.72 input  -60.11 | X-H torsion
[ 7974 7965 7964 7962 ] final  119.68 input  175.53 | X-H torsion
[ 8008 7997 7996 7995 ] final  -88.63 input   59.86 | X-H torsion
[ 10167 10162 10161 10158 ] final  143.63 input  -65.29 | X-H torsion
[ 10718 10713 10712 10709 ] final   98.89 input   66.30 | X-H torsion
[ 10763 10752 10751 10750 ] final  -26.13 input  -60.55 | X-H torsion
[ 11005 11000 10999 10996 ] final -127.17 input  -57.11 | X-H torsion

> <Gold.Protein.ActiveResidues>
 VAL166  LYS551  ARG553  GLY616  TRP617  ASP618  TYR619  PRO620  LYS621  CYS622 
 ASP623  PHE694  ASN695  SER759  ASP760  ASP761  ALA762  ILE779  LEU786  VAL792 
 PHE793  MET794  SER795  GLU796  ALA797  LYS798  CYS799  TRP800  GLU811  SER814 

> <Gold.Protein.RotatedAtoms>
  151.1570  135.0255  159.8693 H   0  0  0  0  0  0  0  0  0  0  0  0  # atno 6907 bound_to 6896
  152.5452  134.1322  159.8454 H   0  0  0  0  0  0  0  0  0  0  0  0  # atno 6908 bound_to 6896
  151.1414  133.4923  159.2629 H   0  0  0  0  0  0  0  0  0  0  0  0  # atno 6909 bound_to 6896
  145.1402  139.3272  143.4620 H   0  0  0  0  0  0  0  0  0  0  0  0  # atno 7974 bound_to 7965
  154.6770  140.0551  157.0226 H   0  0  0  0  0  0  0  0  0  0  0  0  # atno 8008 bound_to 7997
  155.1006  140.3228  155.4529 H   0  0  0  0  0  0  0  0  0  0  0  0  # atno 8009 bound_to 7997
  156.2680  140.2032  156.6132 H   0  0  0  0  0  0  0  0  0  0  0  0  # atno 8010 bound_to 7997
  139.4965  144.6027  151.6446 H   0  0  0  0  0  0  0  0  0  0  0  0  # atno 10167 bound_to 10162
  157.6887  131.0653  150.4865 H   0  0  0  0  0  0  0  0  0  0  0  0  # atno 10718 bound_to 10713
  153.7110  135.6950  153.5037 H   0  0  0  0  0  0  0  0  0  0  0  0  # atno 10763 bound_to 10752
  153.2273  135.4349  155.0555 H   0  0  0  0  0  0  0  0  0  0  0  0  # atno 10764 bound_to 10752
  154.8315  135.3475  154.6647 H   0  0  0  0  0  0  0  0  0  0  0  0  # atno 10765 bound_to 10752
  140.9622  134.0921  157.3957 H   0  0  0  0  0  0  0  0  0  0  0  0  # atno 11005 bound_to 11000
  146.3506  140.1436  142.8594 LP  0  0  0  0  0  0  0  0  0  0  0  0  # atno 17320 bound_to 7965
  145.0540  140.9039  143.4978 LP  0  0  0  0  0  0  0  0  0  0  0  0  # atno 17321 bound_to 7965
  140.5681  144.0156  150.6202 LP  0  0  0  0  0  0  0  0  0  0  0  0  # atno 17342 bound_to 10162
  140.3264  143.3105  152.0732 LP  0  0  0  0  0  0  0  0  0  0  0  0  # atno 17343 bound_to 10162
  156.5194  130.4158  149.6259 LP  0  0  0  0  0  0  0  0  0  0  0  0  # atno 17370 bound_to 10713
  156.3168  130.7259  151.2163 LP  0  0  0  0  0  0  0  0  0  0  0  0  # atno 17371 bound_to 10713
  139.8882  135.0095  156.6605 LP  0  0  0  0  0  0  0  0  0  0  0  0  # atno 17394 bound_to 11000
  140.7451  133.8944  155.8306 LP  0  0  0  0  0  0  0  0  0  0  0  0  # atno 17395 bound_to 11000

$$$$
