AV-unprocessed.smi:644|AV-procd|sdf|3157|dock9
  -GOLD-   22720 0 83D 1   1.00000     0.00000
 Structure written by MMmdl.
 38 40  0  0  0  0  0  0  0  0  2 V2000
  152.2123  145.0311  160.7036 C   0  0  0  0  0  0  0  0  0  0  0  0
  151.9886  143.8683  159.7519 C   0  0  0  0  0  0  0  0  0  0  0  0
  151.2568  144.0997  158.5650 C   0  0  0  0  0  0  0  0  0  0  0  0
  151.0687  143.0165  157.7149 C   0  0  0  0  0  0  0  0  0  0  0  0
  150.4058  142.9185  156.4894 N   0  3  0  0  0  0  0  0  0  0  0  0
  150.4905  141.6399  156.0283 C   0  0  0  0  0  0  0  0  0  0  0  0
  151.1975  140.9211  156.9418 N   0  0  0  0  0  0  0  0  0  0  0  0
  151.5826  139.5038  156.9330 C   0  0  0  0  0  0  0  0  0  0  0  0
  152.5551  139.1550  155.7897 C   0  0  2  0  0  0  0  0  0  0  0  0
  151.8507  139.1291  154.5627 O   0  0  0  0  0  0  0  0  0  0  0  0
  153.2343  137.7944  156.0112 C   0  0  0  0  0  0  0  0  0  0  0  0
  152.5950  136.9454  157.4882 S   0  0  0  0  0  0  0  0  0  0  0  0
  153.3575  137.9085  158.7549 C   0  0  0  0  0  0  0  0  0  0  0  0
  154.1461  138.9731  158.5482 N   0  0  0  0  0  0  0  0  0  0  0  0
  154.6021  139.5315  159.7345 N   0  0  0  0  0  0  0  0  0  0  0  0
  154.1405  138.8670  160.7963 C   0  0  0  0  0  0  0  0  0  0  0  0
  153.1074  137.4939  160.4467 S   0  0  0  0  0  0  0  0  0  0  0  0
  151.5790  141.7378  158.0108 C   0  0  0  0  0  0  0  0  0  0  0  0
  152.3020  141.4917  159.1751 C   0  0  0  0  0  0  0  0  0  0  0  0
  152.5041  142.5808  160.0530 C   0  0  0  0  0  0  0  0  0  0  0  0
  153.2879  142.3437  161.3326 C   0  0  0  0  0  0  0  0  0  0  0  0
  151.7743  145.9523  160.3181 H   0  0  0  0  0  0  0  0  0  0  0  0
  153.2780  145.2068  160.8520 H   0  0  0  0  0  0  0  0  0  0  0  0
  151.7562  144.8252  161.6724 H   0  0  0  0  0  0  0  0  0  0  0  0
  150.8611  145.0769  158.3294 H   0  0  0  0  0  0  0  0  0  0  0  0
  150.0772  141.2643  155.1032 H   0  0  0  0  0  0  0  0  0  0  0  0
  152.0129  139.2559  157.9040 H   0  0  0  0  0  0  0  0  0  0  0  0
  150.6666  138.9182  156.8419 H   0  0  0  0  0  0  0  0  0  0  0  0
  153.3211  139.9284  155.7210 H   0  0  0  0  0  0  0  0  0  0  0  0
  150.9391  138.9587  154.7459 H   0  0  0  0  0  0  0  0  0  0  0  0
  153.0596  137.1536  155.1460 H   0  0  0  0  0  0  0  0  0  0  0  0
  154.3135  137.9239  156.1046 H   0  0  0  0  0  0  0  0  0  0  0  0
  154.4113  139.1868  161.7917 H   0  0  0  0  0  0  0  0  0  0  0  0
  152.6946  140.5115  159.4018 H   0  0  0  0  0  0  0  0  0  0  0  0
  153.6073  141.3046  161.4182 H   0  0  0  0  0  0  0  0  0  0  0  0
  152.6763  142.5765  162.2048 H   0  0  0  0  0  0  0  0  0  0  0  0
  154.1804  142.9695  161.3572 H   0  0  0  0  0  0  0  0  0  0  0  0
  149.9320  143.6671  156.0002 H   0  0  0  0  0  0  0  0  0  0  0  0
  1  2  1  0  0  0  0
  1 22  1  0  0  0  0
  1 23  1  0  0  0  0
  1 24  1  0  0  0  0
  2 20  1  0  0  0  0
  2  3  2  0  0  0  0
  3  4  1  0  0  0  0
  3 25  1  0  0  0  0
  4 18  2  0  0  0  0
  4  5  1  0  0  0  0
  5  6  2  0  0  0  0
  5 38  1  0  0  0  0
  6  7  1  0  0  0  0
  6 26  1  0  0  0  0
  7  8  1  0  0  0  0
  7 18  1  0  0  0  0
  8  9  1  0  0  0  0
  8 27  1  0  0  0  0
  8 28  1  0  0  0  0
  9 10  1  0  0  0  0
  9 11  1  0  0  0  0
  9 29  1  0  0  0  0
 10 30  1  0  0  0  0
 11 12  1  0  0  0  0
 11 31  1  0  0  0  0
 11 32  1  0  0  0  0
 12 13  1  0  0  0  0
 13 17  1  0  0  0  0
 13 14  2  0  0  0  0
 14 15  1  0  0  0  0
 15 16  2  0  0  0  0
 16 17  1  0  0  0  0
 16 33  1  0  0  0  0
 18 19  1  0  0  0  0
 19 20  2  0  0  0  0
 19 34  1  0  0  0  0
 20 21  1  0  0  0  0
 21 35  1  0  0  0  0
 21 36  1  0  0  0  0
 21 37  1  0  0  0  0
M  CHG  1   5   1
M  END
> <s_m_source_file>
AV-unprocessed.smi

> <i_m_source_file_index>
644

> <i_lp_mmshare_version>
43012

> <i_f3d_flags>
0

> <s_epik_input>
W0NIM11jKFtjSF0xKWMoW0NIM10pW2NIXWMoYzEyKW4oW2NIXW4yKVtDSDJdW0NASF0oW09IXSlbQ0gyXVNjM25uW2NIXXMz

> <s_epik_cmdline>
J2VwaWtfcHl0aG9uJywgJy1waCcsICc3LjAnLCAnLXRuJywgJzgnLCAnLW1hJywgJzIwMCcsICctbWV0YWxfYmluZGluZycsICctaW1hZScsICc8aW5maWxlLm1hZT4nLCAnLW9tYWUnLCAnPG91dGZpbGUubWFlPic=

> <r_lp_tautomer_probability>
1

> <r_epik_Ionization_Penalty>
1.07492

> <r_epik_Ionization_Penalty_Charging>
1.07491

> <r_epik_Ionization_Penalty_Neutral>
3.80549e-06

> <r_epik_State_Penalty>
1.12982

> <r_epik_Charging_Adjusted_Penalty>
2.20473

> <i_epik_Tot_Q>
1

> <i_epik_Tot_abs_Q>
1

> <r_epik_Metal_State_Penalty>
1.2206

> <b_epik_Metal_Only>
0

> <s_lp_Force_Field>
OPLS_2005

> <r_lp_Energy>
11.8761

> <b_lp_Chiralities_Consistent>
1

> <s_lp_Variant>
AV-unprocessed.smi:644-3

> <Gold.Version>
5.8.1

> <Gold.Id.Protein>
6NUR|6NUR_protein|mol2

> <Gold.PLP.Fitness>
51.3945

> <Gold.PLP.PLP>
-41.4565

> <Gold.PLP.part.hbond>
-2.8819

> <Gold.PLP.part.metal>
0.0000

> <Gold.PLP.part.buried>
-3.5574

> <Gold.PLP.part.nonpolar>
-35.1343

> <Gold.PLP.part.repulsive>
0.0779

> <Gold.PLP.ligand.clash>
0.0000

> <Gold.PLP.ligand.torsion>
0.9245

> <Gold.PLP.Chemscore.Hbond>
3.9175

> <Gold.PLP.Chemscore.CHOScore>
0.0000

> <Gold.PLP.Chemscore.Metal>
0.0000

> <Gold.Chemscore.Hbonds>
donor molecule, donor type, donor heavy atom, donor atom, acceptor molecule, acceptor atom, score
      L1  H     5    38       P1  8028  1.95
      P1  H  7989  7998       L1    10  0.97
      P1  H  7997  8009       L1    14  1.00

> <Gold.PLP.Chemscore.Internal.Correction>
0.0346

> <Gold.Rescore>
     Score         DG    S(hbond)    S(metal)    S(lipo)     H(rot)  DE(clash)    DE(int)     intcor
     17.99     -19.33       1.77        0.00     123.21       2.53       0.28       1.06       ----

> <Gold.Chemscore.Fitness>
17.9949

> <Gold.Chemscore.DG>
-19.3280

> <Gold.Chemscore.ZeroCoef>
-5.4800

> <Gold.Chemscore.Hbond>
1.7704

> <Gold.Chemscore.Metal>
0.0000

> <Gold.Chemscore.Lipo>
123.2078

> <Gold.Chemscore.Internal_Hbond>
0.0000

> <Gold.Chemscore.DEClash>
0.2759

> <Gold.Chemscore.DEInternal>
1.0572

> <Gold.Chemscore.Rot>
2.5315

> <Gold.Chemscore.Internal.Correction>
   9.000000E+99

> <Gold.Chemscore.Hbonds>
donor molecule, donor type, donor heavy atom, donor atom, acceptor molecule, acceptor atom, score
      L1  H     5    38       P1  8028  0.91
      P1  H  7989  7998       L1    10  0.21
      P1  H  7997  8009       L1    14  0.30

> <Gold.Chemscore.Hbond.Weighted>
-5.9132

> <Gold.Chemscore.Metal.Weighted>
-0.0000

> <Gold.Chemscore.Lipo.Weighted>
-14.4153

> <Gold.Chemscore.Internal_Hbond.Weighted>
0.0000

> <Gold.Chemscore.DEClash.Weighted>
0.2759

> <Gold.Chemscore.DEInternal.Weighted>
1.0572

> <Gold.Chemscore.Rot.Weighted>
6.4805

> <Gold.Chemscore.Internal.Correction.Weighted>
   9.000000E+99

> <Gold.Protein.RotatedTorsions>
[ 6907 6896 6895 6894 ] final   33.20 input  -60.11 | X-H torsion
[ 7974 7965 7964 7962 ] final  125.78 input  175.53 | X-H torsion
[ 8008 7997 7996 7995 ] final  124.07 input   59.86 | X-H torsion
[ 10167 10162 10161 10158 ] final   98.85 input  -65.29 | X-H torsion
[ 10718 10713 10712 10709 ] final   63.65 input   66.30 | X-H torsion
[ 10763 10752 10751 10750 ] final  -33.75 input  -60.55 | X-H torsion
[ 11005 11000 10999 10996 ] final  129.91 input  -57.11 | X-H torsion

> <Gold.Protein.ActiveResidues>
 VAL166  LYS551  ARG553  GLY616  TRP617  ASP618  TYR619  PRO620  LYS621  CYS622 
 ASP623  PHE694  ASN695  SER759  ASP760  ASP761  ALA762  ILE779  LEU786  VAL792 
 PHE793  MET794  SER795  GLU796  ALA797  LYS798  CYS799  TRP800  GLU811  SER814 

> <Gold.Protein.RotatedAtoms>
  152.0851  134.9445  160.0572 H   0  0  0  0  0  0  0  0  0  0  0  0  # atno 6907 bound_to 6896
  152.0718  133.4105  159.4471 H   0  0  0  0  0  0  0  0  0  0  0  0  # atno 6908 bound_to 6896
  150.6836  134.3003  159.4747 H   0  0  0  0  0  0  0  0  0  0  0  0  # atno 6909 bound_to 6896
  145.0691  139.3744  143.4967 H   0  0  0  0  0  0  0  0  0  0  0  0  # atno 7974 bound_to 7965
  156.2788  140.2748  156.1729 H   0  0  0  0  0  0  0  0  0  0  0  0  # atno 8008 bound_to 7997
  155.0636  140.0387  157.2603 H   0  0  0  0  0  0  0  0  0  0  0  0  # atno 8009 bound_to 7997
  154.7097  140.2666  155.6646 H   0  0  0  0  0  0  0  0  0  0  0  0  # atno 8010 bound_to 7997
  139.7671  144.6935  151.0209 H   0  0  0  0  0  0  0  0  0  0  0  0  # atno 10167 bound_to 10162
  157.5986  130.9117  149.9743 H   0  0  0  0  0  0  0  0  0  0  0  0  # atno 10718 bound_to 10713
  153.8354  135.6862  153.4809 H   0  0  0  0  0  0  0  0  0  0  0  0  # atno 10763 bound_to 10752
  153.1486  135.4627  154.9601 H   0  0  0  0  0  0  0  0  0  0  0  0  # atno 10764 bound_to 10752
  154.7868  135.3287  154.7813 H   0  0  0  0  0  0  0  0  0  0  0  0  # atno 10765 bound_to 10752
  139.9642  134.9595  156.9217 H   0  0  0  0  0  0  0  0  0  0  0  0  # atno 11005 bound_to 11000
  146.3528  140.0427  142.8641 LP  0  0  0  0  0  0  0  0  0  0  0  0  # atno 17320 bound_to 7965
  145.1314  140.9520  143.4542 LP  0  0  0  0  0  0  0  0  0  0  0  0  # atno 17321 bound_to 7965
  140.7811  143.4631  151.0250 LP  0  0  0  0  0  0  0  0  0  0  0  0  # atno 17342 bound_to 10162
  139.8315  143.7684  152.3180 LP  0  0  0  0  0  0  0  0  0  0  0  0  # atno 17343 bound_to 10162
  156.1053  130.3653  150.0144 LP  0  0  0  0  0  0  0  0  0  0  0  0  # atno 17370 bound_to 10713
  156.8252  130.9373  151.3639 LP  0  0  0  0  0  0  0  0  0  0  0  0  # atno 17371 bound_to 10713
  140.5433  134.0699  155.7348 LP  0  0  0  0  0  0  0  0  0  0  0  0  # atno 17394 bound_to 11000
  141.1321  133.9284  157.2513 LP  0  0  0  0  0  0  0  0  0  0  0  0  # atno 17395 bound_to 11000

$$$$
