AV-unprocessed.smi:2520|AV-procd|sdf|9909|dock6
  -GOLD-   2272013543D 1   1.00000     0.00000
 Structure written by MMmdl.
 41 44  0  0  0  0  0  0  0  0  1 V2000
  145.5859  138.2139  153.6404 O   0  0  0  0  0  0  0  0  0  0  0  0
  146.5231  137.5215  153.2478 C   0  0  0  0  0  0  0  0  0  0  0  0
  147.7943  137.9732  153.3036 N   0  0  0  0  0  0  0  0  0  0  0  0
  148.3367  139.2073  153.7692 C   0  0  0  0  0  0  0  0  0  0  0  0
  147.4446  140.2999  153.7211 C   0  0  0  0  0  0  0  0  0  0  0  0
  147.8967  141.5543  154.1650 C   0  0  0  0  0  0  0  0  0  0  0  0
  149.2194  141.6330  154.6327 C   0  0  0  0  0  0  0  0  0  0  0  0
  150.0405  140.5617  154.6654 N   0  0  0  0  0  0  0  0  0  0  0  0
  149.6017  139.3723  154.2407 N   0  0  0  0  0  0  0  0  0  0  0  0
  146.3567  136.2901  152.7432 N   0  0  0  0  0  0  0  0  0  0  0  0
  145.0861  135.5792  152.6078 C   0  0  2  0  0  0  0  0  0  0  0  0
  144.6691  134.8489  153.9052 C   0  0  2  0  0  0  0  0  0  0  0  0
  145.3416  135.0966  155.2345 C   0  0  0  0  0  0  0  0  0  0  0  0
  146.3604  133.9560  155.3189 C   0  0  0  0  0  0  0  0  0  0  0  0
  146.5412  133.5249  153.9716 O   0  0  0  0  0  0  0  0  0  0  0  0
  145.2749  133.5833  153.3189 C   0  0  2  0  0  0  0  0  0  0  0  0
  145.2595  134.2102  151.9091 C   0  0  0  0  0  0  0  0  0  0  0  0
  146.4647  133.9502  151.0041 C   0  0  0  0  0  0  0  0  0  0  0  0
  146.1598  132.6772  150.2122 C   0  0  0  0  0  0  0  0  0  0  0  0
  144.6324  132.5688  150.1823 C   0  0  0  0  0  0  0  0  0  0  0  0
  144.1152  133.7520  151.0067 C   0  0  0  0  0  0  0  0  0  0  0  0
  148.4794  137.3331  152.9294 H   0  0  0  0  0  0  0  0  0  0  0  0
  146.4359  140.1828  153.3519 H   0  0  0  0  0  0  0  0  0  0  0  0
  147.2543  142.4222  154.1477 H   0  0  0  0  0  0  0  0  0  0  0  0
  149.6260  142.5685  154.9870 H   0  0  0  0  0  0  0  0  0  0  0  0
  147.1825  135.7934  152.4390 H   0  0  0  0  0  0  0  0  0  0  0  0
  144.2762  136.1742  152.1828 H   0  0  0  0  0  0  0  0  0  0  0  0
  143.5830  134.7681  153.9704 H   0  0  0  0  0  0  0  0  0  0  0  0
  145.8326  136.0689  155.2731 H   0  0  0  0  0  0  0  0  0  0  0  0
  144.6381  135.0563  156.0664 H   0  0  0  0  0  0  0  0  0  0  0  0
  147.3038  134.2664  155.7687 H   0  0  0  0  0  0  0  0  0  0  0  0
  145.9584  133.1277  155.9041 H   0  0  0  0  0  0  0  0  0  0  0  0
  144.6667  132.6886  153.4600 H   0  0  0  0  0  0  0  0  0  0  0  0
  146.5936  134.7825  150.3107 H   0  0  0  0  0  0  0  0  0  0  0  0
  147.3995  133.8576  151.5578 H   0  0  0  0  0  0  0  0  0  0  0  0
  146.5916  132.7127  149.2114 H   0  0  0  0  0  0  0  0  0  0  0  0
  146.5808  131.8099  150.7223 H   0  0  0  0  0  0  0  0  0  0  0  0
  144.2414  132.5941  149.1646 H   0  0  0  0  0  0  0  0  0  0  0  0
  144.3183  131.6259  150.6316 H   0  0  0  0  0  0  0  0  0  0  0  0
  143.2199  133.4839  151.5688 H   0  0  0  0  0  0  0  0  0  0  0  0
  143.8299  134.5608  150.3322 H   0  0  0  0  0  0  0  0  0  0  0  0
  1  2  2  0  0  0  0
  2  3  1  0  0  0  0
  2 10  1  0  0  0  0
  3  4  1  0  0  0  0
  3 22  1  0  0  0  0
  4  9  1  0  0  0  0
  4  5  2  0  0  0  0
  5  6  1  0  0  0  0
  5 23  1  0  0  0  0
  6  7  2  0  0  0  0
  6 24  1  0  0  0  0
  7  8  1  0  0  0  0
  7 25  1  0  0  0  0
  8  9  2  0  0  0  0
 10 11  1  0  0  0  0
 10 26  1  0  0  0  0
 11 17  1  0  0  0  0
 11 12  1  0  0  0  0
 11 27  1  0  0  0  0
 12 16  1  0  0  0  0
 12 13  1  0  0  0  0
 12 28  1  0  0  0  0
 13 14  1  0  0  0  0
 13 29  1  0  0  0  0
 13 30  1  0  0  0  0
 14 15  1  0  0  0  0
 14 31  1  0  0  0  0
 14 32  1  0  0  0  0
 15 16  1  0  0  0  0
 16 17  1  0  0  0  0
 16 33  1  0  0  0  0
 17 21  1  0  0  0  0
 17 18  1  0  0  0  0
 18 19  1  0  0  0  0
 18 34  1  0  0  0  0
 18 35  1  0  0  0  0
 19 20  1  0  0  0  0
 19 36  1  0  0  0  0
 19 37  1  0  0  0  0
 20 21  1  0  0  0  0
 20 38  1  0  0  0  0
 20 39  1  0  0  0  0
 21 40  1  0  0  0  0
 21 41  1  0  0  0  0
M  END
> <s_m_source_file>
AV-unprocessed.smi

> <i_m_source_file_index>
2520

> <i_lp_mmshare_version>
43012

> <i_f3d_flags>
0

> <s_epik_input>
bjFuW2NIXVtjSF1bY0hdYzFbTkhdQyg9TylbTkhdW0NAQEhdMltDQEBIXShbQ0gyXVtDSDJdTzMpW0NASF0zQzI0W0NIMl1bQ0gyXVtDSDJdW0NIMl00

> <s_epik_cmdline>
J2VwaWtfcHl0aG9uJywgJy1waCcsICc3LjAnLCAnLXRuJywgJzgnLCAnLW1hJywgJzIwMCcsICctbWV0YWxfYmluZGluZycsICctaW1hZScsICc8aW5maWxlLm1hZT4nLCAnLW9tYWUnLCAnPG91dGZpbGUubWFlPic=

> <r_lp_tautomer_probability>
1

> <r_epik_Ionization_Penalty>
0.00552561

> <r_epik_Ionization_Penalty_Charging>
0

> <r_epik_Ionization_Penalty_Neutral>
0.00552561

> <r_epik_State_Penalty>
-0

> <r_epik_Charging_Adjusted_Penalty>
0

> <i_epik_Tot_Q>
0

> <i_epik_Tot_abs_Q>
0

> <r_epik_Metal_State_Penalty>
-0

> <b_epik_Metal_Only>
0

> <s_lp_Force_Field>
OPLS_2005

> <r_lp_Energy>
62.4196

> <b_lp_Chiralities_Consistent>
1

> <s_lp_Variant>
AV-unprocessed.smi:2520-3

> <Gold.Version>
5.8.1

> <Gold.Id.Protein>
6NUR|6NUR_protein|mol2

> <Gold.PLP.Fitness>
38.9292

> <Gold.PLP.PLP>
-28.3738

> <Gold.PLP.part.hbond>
-3.0000

> <Gold.PLP.part.metal>
0.0000

> <Gold.PLP.part.buried>
-3.7191

> <Gold.PLP.part.nonpolar>
-21.6544

> <Gold.PLP.part.repulsive>
0.5614

> <Gold.PLP.ligand.clash>
0.0000

> <Gold.PLP.ligand.torsion>
0.3194

> <Gold.PLP.Chemscore.Hbond>
2.6640

> <Gold.PLP.Chemscore.CHOScore>
1.0000

> <Gold.PLP.Chemscore.Metal>
0.0000

> <Gold.Chemscore.Hbonds>
donor molecule, donor type, donor heavy atom, donor atom, acceptor molecule, acceptor atom, score
      L1  H     3    22       P1  7948  1.00
      L1  H    10    26       P1  7948  0.77
      P1  H  7989  7998       L1     8  0.88
      L1  C     7    25       P1  8028  1.00

> <Gold.PLP.Chemscore.Internal.Correction>
0.2022

> <Gold.Rescore>
     Score         DG    S(hbond)    S(metal)    S(lipo)     H(rot)  DE(clash)    DE(int)     intcor
     15.57     -17.63       2.04        0.00      67.49       1.00       0.34       1.72       ----

> <Gold.Chemscore.Fitness>
15.5706

> <Gold.Chemscore.DG>
-17.6281

> <Gold.Chemscore.ZeroCoef>
-5.4800

> <Gold.Chemscore.Hbond>
2.0396

> <Gold.Chemscore.Metal>
0.0000

> <Gold.Chemscore.Lipo>
67.4860

> <Gold.Chemscore.Internal_Hbond>
0.0000

> <Gold.Chemscore.DEClash>
0.3405

> <Gold.Chemscore.DEInternal>
1.7170

> <Gold.Chemscore.Rot>
1.0000

> <Gold.Chemscore.Internal.Correction>
   9.000000E+99

> <Gold.Chemscore.Hbonds>
donor molecule, donor type, donor heavy atom, donor atom, acceptor molecule, acceptor atom, score
      L1  H     3    22       P1  7948  0.95
      L1  H    10    26       P1  7948  0.76
      P1  H  7989  7998       L1     8  0.23

> <Gold.Chemscore.Hbond.Weighted>
-6.8122

> <Gold.Chemscore.Metal.Weighted>
-0.0000

> <Gold.Chemscore.Lipo.Weighted>
-7.8959

> <Gold.Chemscore.Internal_Hbond.Weighted>
0.0000

> <Gold.Chemscore.DEClash.Weighted>
0.3405

> <Gold.Chemscore.DEInternal.Weighted>
1.7170

> <Gold.Chemscore.Rot.Weighted>
2.5600

> <Gold.Chemscore.Internal.Correction.Weighted>
   9.000000E+99

> <Gold.Protein.RotatedTorsions>
[ 6907 6896 6895 6894 ] final  -75.89 input  -60.11 | X-H torsion
[ 7974 7965 7964 7962 ] final  164.06 input  175.53 | X-H torsion
[ 8008 7997 7996 7995 ] final  -97.78 input   59.86 | X-H torsion
[ 10167 10162 10161 10158 ] final -173.72 input  -65.29 | X-H torsion
[ 10718 10713 10712 10709 ] final  -91.58 input   66.30 | X-H torsion
[ 10763 10752 10751 10750 ] final  165.59 input  -60.55 | X-H torsion
[ 11005 11000 10999 10996 ] final  -70.42 input  -57.11 | X-H torsion

> <Gold.Protein.ActiveResidues>
 VAL166  LYS551  ARG553  GLY616  TRP617  ASP618  TYR619  PRO620  LYS621  CYS622 
 ASP623  PHE694  ASN695  SER759  ASP760  ASP761  ALA762  ILE779  LEU786  VAL792 
 PHE793  MET794  SER795  GLU796  ALA797  LYS798  CYS799  TRP800  GLU811  SER814 

> <Gold.Protein.RotatedAtoms>
  150.7044  134.4653  159.5399 H   0  0  0  0  0  0  0  0  0  0  0  0  # atno 6907 bound_to 6896
  152.2320  134.8310  160.0481 H   0  0  0  0  0  0  0  0  0  0  0  0  # atno 6908 bound_to 6896
  151.9122  133.3529  159.3904 H   0  0  0  0  0  0  0  0  0  0  0  0  # atno 6909 bound_to 6896
  144.7562  139.8272  143.6349 H   0  0  0  0  0  0  0  0  0  0  0  0  # atno 7974 bound_to 7965
  154.7923  140.0460  157.1210 H   0  0  0  0  0  0  0  0  0  0  0  0  # atno 8008 bound_to 7997
  154.9576  140.3073  155.5026 H   0  0  0  0  0  0  0  0  0  0  0  0  # atno 8009 bound_to 7997
  156.2951  140.2276  156.4658 H   0  0  0  0  0  0  0  0  0  0  0  0  # atno 8010 bound_to 7997
  139.5673  144.1726  152.1331 H   0  0  0  0  0  0  0  0  0  0  0  0  # atno 10167 bound_to 10162
  155.9995  130.4953  150.5496 H   0  0  0  0  0  0  0  0  0  0  0  0  # atno 10718 bound_to 10713
  154.3262  135.2755  155.2495 H   0  0  0  0  0  0  0  0  0  0  0  0  # atno 10763 bound_to 10752
  154.4826  135.5854  153.6404 H   0  0  0  0  0  0  0  0  0  0  0  0  # atno 10764 bound_to 10752
  152.9871  135.6115  154.3451 H   0  0  0  0  0  0  0  0  0  0  0  0  # atno 10765 bound_to 10752
  141.1573  133.6789  156.6750 H   0  0  0  0  0  0  0  0  0  0  0  0  # atno 11005 bound_to 11000
  146.1574  139.4676  143.0010 LP  0  0  0  0  0  0  0  0  0  0  0  0  # atno 17320 bound_to 7965
  145.6773  141.0201  143.1625 LP  0  0  0  0  0  0  0  0  0  0  0  0  # atno 17321 bound_to 7965
  140.1251  144.5338  150.6838 LP  0  0  0  0  0  0  0  0  0  0  0  0  # atno 17342 bound_to 10162
  140.6956  143.2402  151.5009 LP  0  0  0  0  0  0  0  0  0  0  0  0  # atno 17343 bound_to 10162
  157.3421  131.0718  151.1780 LP  0  0  0  0  0  0  0  0  0  0  0  0  # atno 17370 bound_to 10713
  157.2625  130.6665  149.5981 LP  0  0  0  0  0  0  0  0  0  0  0  0  # atno 17371 bound_to 10713
  140.3146  134.8058  157.4204 LP  0  0  0  0  0  0  0  0  0  0  0  0  # atno 17394 bound_to 11000
  140.1149  134.5296  155.8234 LP  0  0  0  0  0  0  0  0  0  0  0  0  # atno 17395 bound_to 11000

$$$$
