AV-unprocessed.smi:956|AV-procd|sdf|4263|dock9
  -GOLD-   22720 2173D 1   1.00000     0.00000
 Structure written by MMmdl.
 42 43  0  0  0  0  0  0  0  0  1 V2000
  149.7887  136.6925  159.0201 C   0  0  0  0  0  0  0  0  0  0  0  0
  150.0211  138.1125  157.8490 S   0  0  2  0  0  0  0  0  0  0  0  0
  148.6278  138.5669  157.4102 O   0  0  0  0  0  0  0  0  0  0  0  0
  150.6240  137.0910  156.4580 C   0  0  0  0  0  0  0  0  0  0  0  0
  151.4277  136.0334  156.6050 N   0  0  0  0  0  0  0  0  0  0  0  0
  151.6444  135.5688  155.3217 N   0  0  0  0  0  0  0  0  0  0  0  0
  150.9429  136.3923  154.5405 C   0  0  0  0  0  0  0  0  0  0  0  0
  150.2830  137.3683  155.1852 N   0  0  0  0  0  0  0  0  0  0  0  0
  149.4630  138.4310  154.6261 C   0  0  0  0  0  0  0  0  0  0  0  0
  150.0347  139.7922  155.0169 C   0  0  0  0  0  0  0  0  0  0  0  0
  151.1150  140.1579  154.5557 O   0  0  0  0  0  0  0  0  0  0  0  0
  149.3244  140.5006  155.9089 N   0  0  0  0  0  0  0  0  0  0  0  0
  149.8048  141.6755  156.6285 C   0  0  0  0  0  0  0  0  0  0  0  0
  150.7068  141.2729  157.8129 C   0  0  0  0  0  0  0  0  0  0  0  0
  151.6073  142.3972  158.3761 C   0  0  0  0  0  0  0  0  0  0  0  0
  152.4271  141.9031  159.5845 C   0  0  0  0  0  0  0  0  0  0  0  0
  153.3691  142.9991  160.1078 C   0  0  0  0  0  0  0  0  0  0  0  0
  152.5890  144.2701  160.4765 C   0  0  0  0  0  0  0  0  0  0  0  0
  151.7462  144.7674  159.2921 C   0  0  0  0  0  0  0  0  0  0  0  0
  150.8153  143.6635  158.7640 C   0  0  0  0  0  0  0  0  0  0  0  0
  150.3582  135.8197  158.7058 H   0  0  0  0  0  0  0  0  0  0  0  0
  148.7359  136.4153  159.0713 H   0  0  0  0  0  0  0  0  0  0  0  0
  150.1209  136.9745  160.0188 H   0  0  0  0  0  0  0  0  0  0  0  0
  150.9206  136.2883  153.4655 H   0  0  0  0  0  0  0  0  0  0  0  0
  149.4487  138.3282  153.5403 H   0  0  0  0  0  0  0  0  0  0  0  0
  148.4338  138.3348  154.9716 H   0  0  0  0  0  0  0  0  0  0  0  0
  148.4357  140.1247  156.2057 H   0  0  0  0  0  0  0  0  0  0  0  0
  150.3333  142.3651  155.9692 H   0  0  0  0  0  0  0  0  0  0  0  0
  148.9386  142.2229  157.0007 H   0  0  0  0  0  0  0  0  0  0  0  0
  150.0861  140.8680  158.6129 H   0  0  0  0  0  0  0  0  0  0  0  0
  151.3415  140.4480  157.4866 H   0  0  0  0  0  0  0  0  0  0  0  0
  152.3267  142.6784  157.6076 H   0  0  0  0  0  0  0  0  0  0  0  0
  151.7547  141.5869  160.3832 H   0  0  0  0  0  0  0  0  0  0  0  0
  153.0126  141.0253  159.3096 H   0  0  0  0  0  0  0  0  0  0  0  0
  153.9178  142.6346  160.9767 H   0  0  0  0  0  0  0  0  0  0  0  0
  154.1150  143.2342  159.3469 H   0  0  0  0  0  0  0  0  0  0  0  0
  151.9374  144.0639  161.3265 H   0  0  0  0  0  0  0  0  0  0  0  0
  153.2792  145.0509  160.7967 H   0  0  0  0  0  0  0  0  0  0  0  0
  151.1594  145.6359  159.5927 H   0  0  0  0  0  0  0  0  0  0  0  0
  152.4052  145.1028  158.4902 H   0  0  0  0  0  0  0  0  0  0  0  0
  150.2640  144.0483  157.9068 H   0  0  0  0  0  0  0  0  0  0  0  0
  150.0717  143.4166  159.5228 H   0  0  0  0  0  0  0  0  0  0  0  0
  1  2  1  0  0  0  0
  1 21  1  0  0  0  0
  1 22  1  0  0  0  0
  1 23  1  0  0  0  0
  2  3  2  0  0  0  0
  2  4  1  0  0  0  0
  4  8  1  0  0  0  0
  4  5  2  0  0  0  0
  5  6  1  0  0  0  0
  6  7  2  0  0  0  0
  7  8  1  0  0  0  0
  7 24  1  0  0  0  0
  8  9  1  0  0  0  0
  9 10  1  0  0  0  0
  9 25  1  0  0  0  0
  9 26  1  0  0  0  0
 10 11  2  0  0  0  0
 10 12  1  0  0  0  0
 12 13  1  0  0  0  0
 12 27  1  0  0  0  0
 13 14  1  0  0  0  0
 13 28  1  0  0  0  0
 13 29  1  0  0  0  0
 14 15  1  0  0  0  0
 14 30  1  0  0  0  0
 14 31  1  0  0  0  0
 15 20  1  0  0  0  0
 15 16  1  0  0  0  0
 15 32  1  0  0  0  0
 16 17  1  0  0  0  0
 16 33  1  0  0  0  0
 16 34  1  0  0  0  0
 17 18  1  0  0  0  0
 17 35  1  0  0  0  0
 17 36  1  0  0  0  0
 18 19  1  0  0  0  0
 18 37  1  0  0  0  0
 18 38  1  0  0  0  0
 19 20  1  0  0  0  0
 19 39  1  0  0  0  0
 19 40  1  0  0  0  0
 20 41  1  0  0  0  0
 20 42  1  0  0  0  0
M  END
> <s_m_source_file>
AV-unprocessed.smi

> <i_m_source_file_index>
956

> <i_lp_mmshare_version>
43012

> <i_f3d_flags>
0

> <s_epik_input>
W0NIM11bU0BdKD1PKWMxbm5bY0hdbjFbQ0gyXUMoPU8pW05IXVtDSDJdW0NIMl1bQ0hdMltDSDJdW0NIMl1bQ0gyXVtDSDJdW0NIMl0y

> <s_epik_cmdline>
J2VwaWtfcHl0aG9uJywgJy1waCcsICc3LjAnLCAnLXRuJywgJzgnLCAnLW1hJywgJzIwMCcsICctbWV0YWxfYmluZGluZycsICctaW1hZScsICc8aW5maWxlLm1hZT4nLCAnLW9tYWUnLCAnPG91dGZpbGUubWFlPic=

> <r_lp_tautomer_probability>
1

> <r_epik_Ionization_Penalty>
7.32521e-08

> <r_epik_Ionization_Penalty_Charging>
0

> <r_epik_Ionization_Penalty_Neutral>
7.32521e-08

> <r_epik_State_Penalty>
-0

> <r_epik_Charging_Adjusted_Penalty>
0

> <i_epik_Tot_Q>
0

> <i_epik_Tot_abs_Q>
0

> <r_epik_Metal_State_Penalty>
-0

> <b_epik_Metal_Only>
0

> <s_lp_Force_Field>
OPLS_2005

> <r_lp_Energy>
8.17766

> <b_lp_Chiralities_Consistent>
1

> <s_lp_Variant>
AV-unprocessed.smi:956-1

> <Gold.Version>
5.8.1

> <Gold.Id.Protein>
6NUR|6NUR_protein|mol2

> <Gold.PLP.Fitness>
41.5136

> <Gold.PLP.PLP>
-33.4369

> <Gold.PLP.part.hbond>
-1.9011

> <Gold.PLP.part.metal>
0.0000

> <Gold.PLP.part.buried>
-4.9135

> <Gold.PLP.part.nonpolar>
-27.3301

> <Gold.PLP.part.repulsive>
0.1748

> <Gold.PLP.ligand.clash>
0.0000

> <Gold.PLP.ligand.torsion>
0.8115

> <Gold.PLP.Chemscore.Hbond>
1.8588

> <Gold.PLP.Chemscore.CHOScore>
1.0000

> <Gold.PLP.Chemscore.Metal>
0.0000

> <Gold.Chemscore.Hbonds>
donor molecule, donor type, donor heavy atom, donor atom, acceptor molecule, acceptor atom, score
      P1  H  7989  7998       L1    11  0.62
      P1  H 10752 10763       L1     6  0.74
      L1  C     7    24       P1  7949  0.80

> <Gold.PLP.Chemscore.Internal.Correction>
1.1234

> <Gold.Rescore>
     Score         DG    S(hbond)    S(metal)    S(lipo)     H(rot)  DE(clash)    DE(int)     intcor
     14.94     -15.89       1.89        0.00      84.46       2.26       0.01       0.94       ----

> <Gold.Chemscore.Fitness>
14.9425

> <Gold.Chemscore.DG>
-15.8915

> <Gold.Chemscore.ZeroCoef>
-5.4800

> <Gold.Chemscore.Hbond>
1.8874

> <Gold.Chemscore.Metal>
0.0000

> <Gold.Chemscore.Lipo>
84.4557

> <Gold.Chemscore.Internal_Hbond>
0.0000

> <Gold.Chemscore.DEClash>
0.0089

> <Gold.Chemscore.DEInternal>
0.9401

> <Gold.Chemscore.Rot>
2.2554

> <Gold.Chemscore.Internal.Correction>
   9.000000E+99

> <Gold.Chemscore.Hbonds>
donor molecule, donor type, donor heavy atom, donor atom, acceptor molecule, acceptor atom, score
      P1  H  7989  7998       L1    11  0.60
      P1  H 10752 10763       L1     6  0.46

> <Gold.Chemscore.Hbond.Weighted>
-6.3040

> <Gold.Chemscore.Metal.Weighted>
-0.0000

> <Gold.Chemscore.Lipo.Weighted>
-9.8813

> <Gold.Chemscore.Internal_Hbond.Weighted>
0.0000

> <Gold.Chemscore.DEClash.Weighted>
0.0089

> <Gold.Chemscore.DEInternal.Weighted>
0.9401

> <Gold.Chemscore.Rot.Weighted>
5.7738

> <Gold.Chemscore.Internal.Correction.Weighted>
   9.000000E+99

> <Gold.Protein.RotatedTorsions>
[ 6907 6896 6895 6894 ] final -166.27 input  -60.11 | X-H torsion
[ 7974 7965 7964 7962 ] final   77.52 input  175.53 | X-H torsion
[ 8008 7997 7996 7995 ] final  -36.40 input   59.86 | X-H torsion
[ 10167 10162 10161 10158 ] final -158.75 input  -65.29 | X-H torsion
[ 10718 10713 10712 10709 ] final  -86.84 input   66.30 | X-H torsion
[ 10763 10752 10751 10750 ] final   96.90 input  -60.55 | X-H torsion
[ 11005 11000 10999 10996 ] final   89.91 input  -57.11 | X-H torsion

> <Gold.Protein.ActiveResidues>
 VAL166  LYS551  ARG553  GLY616  TRP617  ASP618  TYR619  PRO620  LYS621  CYS622 
 ASP623  PHE694  ASN695  SER759  ASP760  ASP761  ALA762  ILE779  LEU786  VAL792 
 PHE793  MET794  SER795  GLU796  ALA797  LYS798  CYS799  TRP800  GLU811  SER814 

> <Gold.Protein.RotatedAtoms>
  151.4410  133.3643  159.2781 H   0  0  0  0  0  0  0  0  0  0  0  0  # atno 6907 bound_to 6896
  150.9158  134.8577  159.7466 H   0  0  0  0  0  0  0  0  0  0  0  0  # atno 6908 bound_to 6896
  152.4956  134.4343  159.9574 H   0  0  0  0  0  0  0  0  0  0  0  0  # atno 6909 bound_to 6896
  145.6889  139.2546  143.1771 H   0  0  0  0  0  0  0  0  0  0  0  0  # atno 7974 bound_to 7965
  154.4074  140.1631  156.2368 H   0  0  0  0  0  0  0  0  0  0  0  0  # atno 8008 bound_to 7997
  155.9236  140.3419  155.6169 H   0  0  0  0  0  0  0  0  0  0  0  0  # atno 8009 bound_to 7997
  155.7193  140.0766  157.2328 H   0  0  0  0  0  0  0  0  0  0  0  0  # atno 8010 bound_to 7997
  139.6668  143.9815  152.2260 H   0  0  0  0  0  0  0  0  0  0  0  0  # atno 10167 bound_to 10162
  155.9988  130.4779  150.4776 H   0  0  0  0  0  0  0  0  0  0  0  0  # atno 10718 bound_to 10713
  153.2704  135.4202  155.0982 H   0  0  0  0  0  0  0  0  0  0  0  0  # atno 10763 bound_to 10752
  154.8454  135.3471  154.6252 H   0  0  0  0  0  0  0  0  0  0  0  0  # atno 10764 bound_to 10752
  153.6672  135.7045  153.5216 H   0  0  0  0  0  0  0  0  0  0  0  0  # atno 10765 bound_to 10752
  139.8866  134.8581  156.3210 H   0  0  0  0  0  0  0  0  0  0  0  0  # atno 11005 bound_to 11000
  146.0899  140.7668  142.9600 LP  0  0  0  0  0  0  0  0  0  0  0  0  # atno 17320 bound_to 7965
  144.7003  140.3621  143.7162 LP  0  0  0  0  0  0  0  0  0  0  0  0  # atno 17321 bound_to 7965
  139.9569  144.6584  150.8117 LP  0  0  0  0  0  0  0  0  0  0  0  0  # atno 17342 bound_to 10162
  140.7602  143.3147  151.2762 LP  0  0  0  0  0  0  0  0  0  0  0  0  # atno 17343 bound_to 10162
  157.2785  131.0602  151.2213 LP  0  0  0  0  0  0  0  0  0  0  0  0  # atno 17370 bound_to 10713
  157.3269  130.6965  149.6301 LP  0  0  0  0  0  0  0  0  0  0  0  0  # atno 17371 bound_to 10713
  140.9787  133.7281  156.0640 LP  0  0  0  0  0  0  0  0  0  0  0  0  # atno 17394 bound_to 11000
  140.7777  134.3760  157.5494 LP  0  0  0  0  0  0  0  0  0  0  0  0  # atno 17395 bound_to 11000

$$$$
