AV-unprocessed.smi:1385|AV-procd|sdf|5628|dock1
  -GOLD-   22720 5243D 1   1.00000     0.00000
 Structure written by MMmdl.
 38 39  0  0  0  0  0  0  0  0  1 V2000
  152.3332  137.2558  158.3065 C   0  0  0  0  0  0  0  0  0  0  0  0
  151.2262  136.6703  157.4984 C   0  0  0  0  0  0  0  0  0  0  0  0
  150.2615  135.9117  158.0328 N   0  0  0  0  0  0  0  0  0  0  0  0
  149.3399  135.4882  157.0852 N   0  0  0  0  0  0  0  0  0  0  0  0
  149.6380  135.9426  155.8602 C   0  0  0  0  0  0  0  0  0  0  0  0
  148.8627  135.6635  154.7039 N   0  0  0  0  0  0  0  0  0  0  0  0
  147.8798  134.7576  154.5582 C   0  0  0  0  0  0  0  0  0  0  0  0
  147.4789  133.9941  155.4370 O   0  0  0  0  0  0  0  0  0  0  0  0
  147.3784  134.7817  153.3147 N   0  0  0  0  0  0  0  0  0  0  0  0
  146.3037  133.9230  152.8253 C   0  0  0  0  0  0  0  0  0  0  0  0
  146.8223  132.9465  151.7570 C   0  0  0  0  0  0  0  0  0  0  0  0
  145.6722  132.1323  151.1380 C   0  0  0  0  0  0  0  0  0  0  0  0
  144.6605  133.0253  150.5530 N   0  0  0  0  0  0  0  0  0  0  0  0
  143.5650  132.2810  149.8884 C   0  0  0  0  0  0  0  0  0  0  0  0
  143.2526  132.7373  148.4584 C   0  0  0  0  0  0  0  0  0  0  0  0
  142.0628  132.3955  147.9572 N   0  0  0  0  0  0  0  0  0  0  0  0
  144.0772  133.3826  147.8150 O   0  0  0  0  0  0  0  0  0  0  0  0
  144.0921  133.8940  151.5891 C   0  0  0  0  0  0  0  0  0  0  0  0
  145.1849  134.7783  152.2149 C   0  0  0  0  0  0  0  0  0  0  0  0
  151.0837  136.9334  155.7648 S   0  0  0  0  0  0  0  0  0  0  0  0
  152.4656  136.6995  159.2349 H   0  0  0  0  0  0  0  0  0  0  0  0
  152.1062  138.2941  158.5488 H   0  0  0  0  0  0  0  0  0  0  0  0
  153.2668  137.2225  157.7447 H   0  0  0  0  0  0  0  0  0  0  0  0
  149.0842  136.2189  153.8907 H   0  0  0  0  0  0  0  0  0  0  0  0
  147.7686  135.4402  152.6564 H   0  0  0  0  0  0  0  0  0  0  0  0
  145.8863  133.3549  153.6592 H   0  0  0  0  0  0  0  0  0  0  0  0
  147.3406  133.4957  150.9695 H   0  0  0  0  0  0  0  0  0  0  0  0
  147.5564  132.2679  152.1931 H   0  0  0  0  0  0  0  0  0  0  0  0
  146.0969  131.4737  150.3805 H   0  0  0  0  0  0  0  0  0  0  0  0
  145.2152  131.4902  151.8930 H   0  0  0  0  0  0  0  0  0  0  0  0
  143.7993  131.2147  149.8759 H   0  0  0  0  0  0  0  0  0  0  0  0
  142.6474  132.3889  150.4686 H   0  0  0  0  0  0  0  0  0  0  0  0
  141.8183  132.6676  147.0161 H   0  0  0  0  0  0  0  0  0  0  0  0
  141.4170  131.8595  148.5185 H   0  0  0  0  0  0  0  0  0  0  0  0
  143.3265  134.5377  151.1537 H   0  0  0  0  0  0  0  0  0  0  0  0
  143.6019  133.2965  152.3601 H   0  0  0  0  0  0  0  0  0  0  0  0
  144.7453  135.4198  152.9794 H   0  0  0  0  0  0  0  0  0  0  0  0
  145.5942  135.4420  151.4516 H   0  0  0  0  0  0  0  0  0  0  0  0
  1  2  1  0  0  0  0
  1 21  1  0  0  0  0
  1 22  1  0  0  0  0
  1 23  1  0  0  0  0
  2 20  1  0  0  0  0
  2  3  2  0  0  0  0
  3  4  1  0  0  0  0
  4  5  2  0  0  0  0
  5  6  1  0  0  0  0
  5 20  1  0  0  0  0
  6  7  1  0  0  0  0
  6 24  1  0  0  0  0
  7  8  2  0  0  0  0
  7  9  1  0  0  0  0
  9 10  1  0  0  0  0
  9 25  1  0  0  0  0
 10 19  1  0  0  0  0
 10 11  1  0  0  0  0
 10 26  1  0  0  0  0
 11 12  1  0  0  0  0
 11 27  1  0  0  0  0
 11 28  1  0  0  0  0
 12 13  1  0  0  0  0
 12 29  1  0  0  0  0
 12 30  1  0  0  0  0
 13 14  1  0  0  0  0
 13 18  1  0  0  0  0
 14 15  1  0  0  0  0
 14 31  1  0  0  0  0
 14 32  1  0  0  0  0
 15 16  1  0  0  0  0
 15 17  2  0  0  0  0
 16 33  1  0  0  0  0
 16 34  1  0  0  0  0
 18 19  1  0  0  0  0
 18 35  1  0  0  0  0
 18 36  1  0  0  0  0
 19 37  1  0  0  0  0
 19 38  1  0  0  0  0
M  END
> <s_m_source_file>
AV-unprocessed.smi

> <i_m_source_file_index>
1385

> <i_lp_mmshare_version>
43012

> <i_f3d_flags>
0

> <s_epik_input>
W0NIM11jMW5uYyhzMSlbTkhdQyg9TylbTkhdW0NIXTJbQ0gyXVtDSDJdTihbQ0gyXVtDSDJdMilbQ0gyXUMoPU8pW05IMl0=

> <s_epik_cmdline>
J2VwaWtfcHl0aG9uJywgJy1waCcsICc3LjAnLCAnLXRuJywgJzgnLCAnLW1hJywgJzIwMCcsICctbWV0YWxfYmluZGluZycsICctaW1hZScsICc8aW5maWxlLm1hZT4nLCAnLW9tYWUnLCAnPG91dGZpbGUubWFlPic=

> <r_lp_tautomer_probability>
1

> <r_epik_Ionization_Penalty>
0.159363

> <r_epik_Ionization_Penalty_Charging>
0

> <r_epik_Ionization_Penalty_Neutral>
0.159363

> <r_epik_State_Penalty>
0.146692

> <r_epik_Charging_Adjusted_Penalty>
0.146692

> <i_epik_Tot_Q>
0

> <i_epik_Tot_abs_Q>
0

> <r_epik_Metal_State_Penalty>
0.501772

> <b_epik_Metal_Only>
0

> <s_lp_Force_Field>
OPLS_2005

> <r_lp_Energy>
10.053

> <b_lp_Chiralities_Consistent>
1

> <s_lp_Variant>
AV-unprocessed.smi:1385-1

> <Gold.Version>
5.8.1

> <Gold.Id.Protein>
6NUR|6NUR_protein|mol2

> <Gold.PLP.Fitness>
40.6275

> <Gold.PLP.PLP>
-26.8185

> <Gold.PLP.part.hbond>
-7.0000

> <Gold.PLP.part.metal>
0.0000

> <Gold.PLP.part.buried>
-4.9252

> <Gold.PLP.part.nonpolar>
-20.4233

> <Gold.PLP.part.repulsive>
4.7183

> <Gold.PLP.ligand.clash>
0.0000

> <Gold.PLP.ligand.torsion>
1.0346

> <Gold.PLP.Chemscore.Hbond>
5.2880

> <Gold.PLP.Chemscore.CHOScore>
0.0000

> <Gold.PLP.Chemscore.Metal>
0.0000

> <Gold.Chemscore.Hbonds>
donor molecule, donor type, donor heavy atom, donor atom, acceptor molecule, acceptor atom, score
      L1  H     6    24       P1  7948  0.85
      L1  H     9    25       P1  7948  1.00
      L1  H    16    33       P1 10195  1.00
      L1  H    16    34       P1 10952  1.00
      P1  H  6896  6908       L1     3  0.78
      P1  H  7918  7932       L1    17  0.60

> <Gold.PLP.Chemscore.Internal.Correction>
0.0142

> <Gold.Rescore>
     Score         DG    S(hbond)    S(metal)    S(lipo)     H(rot)  DE(clash)    DE(int)     intcor
     19.08     -23.09       5.05        0.00      51.03       2.04       1.70       2.31       ----

> <Gold.Chemscore.Fitness>
19.0788

> <Gold.Chemscore.DG>
-23.0926

> <Gold.Chemscore.ZeroCoef>
-5.4800

> <Gold.Chemscore.Hbond>
5.0497

> <Gold.Chemscore.Metal>
0.0000

> <Gold.Chemscore.Lipo>
51.0326

> <Gold.Chemscore.Internal_Hbond>
0.0000

> <Gold.Chemscore.DEClash>
1.7004

> <Gold.Chemscore.DEInternal>
2.3134

> <Gold.Chemscore.Rot>
2.0407

> <Gold.Chemscore.Internal.Correction>
   9.000000E+99

> <Gold.Chemscore.Hbonds>
donor molecule, donor type, donor heavy atom, donor atom, acceptor molecule, acceptor atom, score
      L1  H     6    24       P1  7948  0.78
      L1  H     9    25       P1  7948  0.97
      L1  H    16    33       P1 10195  0.92
      L1  H    16    34       P1 10952  0.99
      P1  H  6896  6908       L1     3  0.68
      P1  H  7918  7932       L1    17  0.58

> <Gold.Chemscore.Hbond.Weighted>
-16.8661

> <Gold.Chemscore.Metal.Weighted>
-0.0000

> <Gold.Chemscore.Lipo.Weighted>
-5.9708

> <Gold.Chemscore.Internal_Hbond.Weighted>
0.0000

> <Gold.Chemscore.DEClash.Weighted>
1.7004

> <Gold.Chemscore.DEInternal.Weighted>
2.3134

> <Gold.Chemscore.Rot.Weighted>
5.2243

> <Gold.Chemscore.Internal.Correction.Weighted>
   9.000000E+99

> <Gold.Protein.RotatedTorsions>
[ 6907 6896 6895 6894 ] final  173.61 input  -60.11 | X-H torsion
[ 7974 7965 7964 7962 ] final   78.05 input  175.53 | X-H torsion
[ 8008 7997 7996 7995 ] final  132.14 input   59.86 | X-H torsion
[ 10167 10162 10161 10158 ] final  -54.27 input  -65.29 | X-H torsion
[ 10718 10713 10712 10709 ] final  107.91 input   66.30 | X-H torsion
[ 10763 10752 10751 10750 ] final   15.22 input  -60.55 | X-H torsion
[ 11005 11000 10999 10996 ] final  -70.88 input  -57.11 | X-H torsion

> <Gold.Protein.ActiveResidues>
 VAL166  LYS551  ARG553  GLY616  TRP617  ASP618  TYR619  PRO620  LYS621  CYS622 
 ASP623  PHE694  ASN695  SER759  ASP760  ASP761  ALA762  ILE779  LEU786  VAL792 
 PHE793  MET794  SER795  GLU796  ALA797  LYS798  CYS799  TRP800  GLU811  SER814 

> <Gold.Protein.RotatedAtoms>
  151.7656  133.3337  159.3429 H   0  0  0  0  0  0  0  0  0  0  0  0  # atno 6907 bound_to 6896
  150.7481  134.6065  159.6073 H   0  0  0  0  0  0  0  0  0  0  0  0  # atno 6908 bound_to 6896
  152.3376  134.7179  160.0324 H   0  0  0  0  0  0  0  0  0  0  0  0  # atno 6909 bound_to 6896
  145.6821  139.2527  143.1808 H   0  0  0  0  0  0  0  0  0  0  0  0  # atno 7974 bound_to 7965
  156.2979  140.2554  156.3041 H   0  0  0  0  0  0  0  0  0  0  0  0  # atno 8008 bound_to 7997
  154.9389  140.0396  157.2105 H   0  0  0  0  0  0  0  0  0  0  0  0  # atno 8009 bound_to 7997
  154.8145  140.2850  155.5834 H   0  0  0  0  0  0  0  0  0  0  0  0  # atno 8010 bound_to 7997
  140.6440  143.2524  151.4912 H   0  0  0  0  0  0  0  0  0  0  0  0  # atno 10167 bound_to 10162
  157.6609  131.0882  150.6227 H   0  0  0  0  0  0  0  0  0  0  0  0  # atno 10718 bound_to 10713
  153.1546  135.6785  153.8831 H   0  0  0  0  0  0  0  0  0  0  0  0  # atno 10763 bound_to 10752
  153.8246  135.3125  155.3414 H   0  0  0  0  0  0  0  0  0  0  0  0  # atno 10764 bound_to 10752
  154.7888  135.4846  154.0093 H   0  0  0  0  0  0  0  0  0  0  0  0  # atno 10765 bound_to 10752
  141.1582  133.6802  156.6821 H   0  0  0  0  0  0  0  0  0  0  0  0  # atno 11005 bound_to 11000
  146.0955  140.7605  142.9574 LP  0  0  0  0  0  0  0  0  0  0  0  0  # atno 17320 bound_to 7965
  144.7023  140.3705  143.7146 LP  0  0  0  0  0  0  0  0  0  0  0  0  # atno 17321 bound_to 7965
  139.5650  144.2065  152.1750 LP  0  0  0  0  0  0  0  0  0  0  0  0  # atno 17342 bound_to 10162
  140.1344  144.5259  150.6782 LP  0  0  0  0  0  0  0  0  0  0  0  0  # atno 17343 bound_to 10162
  156.6530  130.4490  149.5713 LP  0  0  0  0  0  0  0  0  0  0  0  0  # atno 17370 bound_to 10713
  156.2124  130.6687  151.1283 LP  0  0  0  0  0  0  0  0  0  0  0  0  # atno 17371 bound_to 10713
  140.3095  134.8098  157.4164 LP  0  0  0  0  0  0  0  0  0  0  0  0  # atno 17394 bound_to 11000
  140.1191  134.5243  155.8199 LP  0  0  0  0  0  0  0  0  0  0  0  0  # atno 17395 bound_to 11000

$$$$
