AV-unprocessed.smi:2445|AV-procd|sdf|9638|dock2
  -GOLD-   2272013273D 1   1.00000     0.00000
 Structure written by MMmdl.
 40 41  0  0  0  0  0  0  0  0  1 V2000
  151.4329  141.9472  158.6109 C   0  0  0  0  0  0  0  0  0  0  0  0
  151.0330  141.2724  157.3429 C   0  0  0  0  0  0  0  0  0  0  0  0
  150.7341  141.8578  156.1376 C   0  0  0  0  0  0  0  0  0  0  0  0
  150.3958  140.9460  155.1357 N   0  0  0  0  0  0  0  0  0  0  0  0
  150.4331  139.6801  155.5607 C   0  0  0  0  0  0  0  0  0  0  0  0
  150.0894  138.5073  154.6916 C   0  0  1  0  0  0  0  0  0  0  0  0
  151.2791  137.5518  154.5214 C   0  0  0  0  0  0  0  0  0  0  0  0
  148.8107  137.7737  155.1540 C   0  0  0  0  0  0  0  0  0  0  0  0
  148.3192  136.8159  154.1672 N   0  0  0  0  0  0  0  0  0  0  0  0
  147.3490  135.9188  154.3867 C   0  0  0  0  0  0  0  0  0  0  0  0
  146.7224  135.8250  155.4421 O   0  0  0  0  0  0  0  0  0  0  0  0
  147.1516  135.1318  153.3201 N   0  0  0  0  0  0  0  0  0  0  0  0
  146.1982  134.0242  153.2507 C   0  0  2  0  0  0  0  0  0  0  0  0
  146.9277  132.7042  153.0074 C   0  0  0  0  0  0  0  0  0  0  0  0
  146.1468  132.0529  151.8716 C   0  0  0  0  0  0  0  0  0  0  0  0
  145.6728  133.1620  151.1290 O   0  0  0  0  0  0  0  0  0  0  0  0
  145.2094  134.1246  152.0651 C   0  0  2  0  0  0  0  0  0  0  0  0
  145.0532  135.4922  151.3813 C   0  0  0  0  0  0  0  0  0  0  0  0
  150.8934  139.5362  157.2552 S   0  0  0  0  0  0  0  0  0  0  0  0
  151.5001  143.0272  158.4776 H   0  0  0  0  0  0  0  0  0  0  0  0
  152.4054  141.5892  158.9489 H   0  0  0  0  0  0  0  0  0  0  0  0
  150.7070  141.7504  159.4000 H   0  0  0  0  0  0  0  0  0  0  0  0
  150.7372  142.9124  155.9045 H   0  0  0  0  0  0  0  0  0  0  0  0
  149.8811  138.9084  153.6983 H   0  0  0  0  0  0  0  0  0  0  0  0
  152.1461  138.0736  154.1150 H   0  0  0  0  0  0  0  0  0  0  0  0
  151.0335  136.7392  153.8371 H   0  0  0  0  0  0  0  0  0  0  0  0
  151.5731  137.1069  155.4723 H   0  0  0  0  0  0  0  0  0  0  0  0
  148.9794  137.2738  156.1091 H   0  0  0  0  0  0  0  0  0  0  0  0
  148.0140  138.4984  155.3239 H   0  0  0  0  0  0  0  0  0  0  0  0
  148.7732  136.8164  153.2655 H   0  0  0  0  0  0  0  0  0  0  0  0
  147.7151  135.2953  152.4988 H   0  0  0  0  0  0  0  0  0  0  0  0
  145.6323  133.9563  154.1819 H   0  0  0  0  0  0  0  0  0  0  0  0
  147.9540  132.8794  152.6804 H   0  0  0  0  0  0  0  0  0  0  0  0
  146.9681  132.0743  153.8965 H   0  0  0  0  0  0  0  0  0  0  0  0
  146.7611  131.3900  151.2622 H   0  0  0  0  0  0  0  0  0  0  0  0
  145.3006  131.4816  152.2570 H   0  0  0  0  0  0  0  0  0  0  0  0
  144.2271  133.7951  152.4086 H   0  0  0  0  0  0  0  0  0  0  0  0
  144.7007  136.2452  152.0863 H   0  0  0  0  0  0  0  0  0  0  0  0
  144.3274  135.4358  150.5700 H   0  0  0  0  0  0  0  0  0  0  0  0
  145.9943  135.8402  150.9546 H   0  0  0  0  0  0  0  0  0  0  0  0
  1  2  1  0  0  0  0
  1 20  1  0  0  0  0
  1 21  1  0  0  0  0
  1 22  1  0  0  0  0
  2 19  1  0  0  0  0
  2  3  2  0  0  0  0
  3  4  1  0  0  0  0
  3 23  1  0  0  0  0
  4  5  2  0  0  0  0
  5  6  1  0  0  0  0
  5 19  1  0  0  0  0
  6  7  1  0  0  0  0
  6  8  1  0  0  0  0
  6 24  1  0  0  0  0
  7 25  1  0  0  0  0
  7 26  1  0  0  0  0
  7 27  1  0  0  0  0
  8  9  1  0  0  0  0
  8 28  1  0  0  0  0
  8 29  1  0  0  0  0
  9 10  1  0  0  0  0
  9 30  1  0  0  0  0
 10 11  2  0  0  0  0
 10 12  1  0  0  0  0
 12 13  1  0  0  0  0
 12 31  1  0  0  0  0
 13 17  1  0  0  0  0
 13 14  1  0  0  0  0
 13 32  1  0  0  0  0
 14 15  1  0  0  0  0
 14 33  1  0  0  0  0
 14 34  1  0  0  0  0
 15 16  1  0  0  0  0
 15 35  1  0  0  0  0
 15 36  1  0  0  0  0
 16 17  1  0  0  0  0
 17 18  1  0  0  0  0
 17 37  1  0  0  0  0
 18 38  1  0  0  0  0
 18 39  1  0  0  0  0
 18 40  1  0  0  0  0
M  END
> <s_m_source_file>
AV-unprocessed.smi

> <i_m_source_file_index>
2445

> <i_lp_mmshare_version>
43012

> <i_f3d_flags>
0

> <s_epik_input>
W0NIM11jMVtjSF1uYyhzMSlbQ0BIXShbQ0gzXSlbQ0gyXVtOSF1DKD1PKVtOSF1bQ0BASF0yW0NIMl1bQ0gyXU9bQ0BIXTJbQ0gzXQ==

> <s_epik_cmdline>
J2VwaWtfcHl0aG9uJywgJy1waCcsICc3LjAnLCAnLXRuJywgJzgnLCAnLW1hJywgJzIwMCcsICctbWV0YWxfYmluZGluZycsICctaW1hZScsICc8aW5maWxlLm1hZT4nLCAnLW9tYWUnLCAnPG91dGZpbGUubWFlPic=

> <r_epik_Ionization_Penalty>
0.000649483

> <r_epik_Ionization_Penalty_Charging>
0

> <r_epik_Ionization_Penalty_Neutral>
0.000649483

> <r_epik_State_Penalty>
0.000379895

> <r_epik_Charging_Adjusted_Penalty>
0.000379895

> <i_epik_Tot_Q>
0

> <i_epik_Tot_abs_Q>
0

> <r_epik_Metal_State_Penalty>
-0

> <b_epik_Metal_Only>
0

> <s_lp_Force_Field>
OPLS_2005

> <r_lp_Energy>
6.13351

> <b_lp_Chiralities_Consistent>
1

> <s_lp_Variant>
AV-unprocessed.smi:2445-6

> <Gold.Version>
5.8.1

> <Gold.Id.Protein>
6NUR|6NUR_protein|mol2

> <Gold.PLP.Fitness>
37.7040

> <Gold.PLP.PLP>
-26.9191

> <Gold.PLP.part.hbond>
-2.7859

> <Gold.PLP.part.metal>
0.0000

> <Gold.PLP.part.buried>
-3.5681

> <Gold.PLP.part.nonpolar>
-21.2180

> <Gold.PLP.part.repulsive>
0.2599

> <Gold.PLP.ligand.clash>
0.0000

> <Gold.PLP.ligand.torsion>
0.1395

> <Gold.PLP.Chemscore.Hbond>
2.6576

> <Gold.PLP.Chemscore.CHOScore>
0.9974

> <Gold.PLP.Chemscore.Metal>
0.0000

> <Gold.Chemscore.Hbonds>
donor molecule, donor type, donor heavy atom, donor atom, acceptor molecule, acceptor atom, score
      L1  H     9    30       P1  7948  0.98
      L1  H    12    31       P1  7948  0.91
      P1  H  7989  7998       L1     4  0.73
      L1  C     3    23       P1  8028  0.85

> <Gold.PLP.Chemscore.Internal.Correction>
0.0991

> <Gold.Rescore>
     Score         DG    S(hbond)    S(metal)    S(lipo)     H(rot)  DE(clash)    DE(int)     intcor
     18.15     -18.56       2.67        0.00      68.99       1.53       0.26       0.14       ----

> <Gold.Chemscore.Fitness>
18.1546

> <Gold.Chemscore.DG>
-18.5583

> <Gold.Chemscore.ZeroCoef>
-5.4800

> <Gold.Chemscore.Hbond>
2.6738

> <Gold.Chemscore.Metal>
0.0000

> <Gold.Chemscore.Lipo>
68.9858

> <Gold.Chemscore.Internal_Hbond>
0.0000

> <Gold.Chemscore.DEClash>
0.2617

> <Gold.Chemscore.DEInternal>
0.1421

> <Gold.Chemscore.Rot>
1.5325

> <Gold.Chemscore.Internal.Correction>
   9.000000E+99

> <Gold.Chemscore.Hbonds>
donor molecule, donor type, donor heavy atom, donor atom, acceptor molecule, acceptor atom, score
      L1  H     9    30       P1  7948  0.89
      L1  H    12    31       P1  7948  0.89
      P1  H  7989  7998       L1     4  0.25

> <Gold.Chemscore.Hbond.Weighted>
-8.9303

> <Gold.Chemscore.Metal.Weighted>
-0.0000

> <Gold.Chemscore.Lipo.Weighted>
-8.0713

> <Gold.Chemscore.Internal_Hbond.Weighted>
0.0000

> <Gold.Chemscore.DEClash.Weighted>
0.2617

> <Gold.Chemscore.DEInternal.Weighted>
0.1421

> <Gold.Chemscore.Rot.Weighted>
3.9233

> <Gold.Chemscore.Internal.Correction.Weighted>
   9.000000E+99

> <Gold.Protein.RotatedTorsions>
[ 6907 6896 6895 6894 ] final -116.83 input  -60.11 | X-H torsion
[ 7974 7965 7964 7962 ] final -142.17 input  175.53 | X-H torsion
[ 8008 7997 7996 7995 ] final -132.73 input   59.86 | X-H torsion
[ 10167 10162 10161 10158 ] final -143.32 input  -65.29 | X-H torsion
[ 10718 10713 10712 10709 ] final -166.81 input   66.30 | X-H torsion
[ 10763 10752 10751 10750 ] final   63.79 input  -60.55 | X-H torsion
[ 11005 11000 10999 10996 ] final   -1.31 input  -57.11 | X-H torsion

> <Gold.Protein.ActiveResidues>
 VAL166  LYS551  ARG553  GLY616  TRP617  ASP618  TYR619  PRO620  LYS621  CYS622 
 ASP623  PHE694  ASN695  SER759  ASP760  ASP761  ALA762  ILE779  LEU786  VAL792 
 PHE793  MET794  SER795  GLU796  ALA797  LYS798  CYS799  TRP800  GLU811  SER814 

> <Gold.Protein.RotatedAtoms>
  150.8087  133.8462  159.3192 H   0  0  0  0  0  0  0  0  0  0  0  0  # atno 6907 bound_to 6896
  151.6254  135.1026  160.0120 H   0  0  0  0  0  0  0  0  0  0  0  0  # atno 6908 bound_to 6896
  152.4178  133.7027  159.6490 H   0  0  0  0  0  0  0  0  0  0  0  0  # atno 6909 bound_to 6896
  144.8464  140.5991  143.5419 H   0  0  0  0  0  0  0  0  0  0  0  0  # atno 7974 bound_to 7965
  155.3337  140.0468  157.3043 H   0  0  0  0  0  0  0  0  0  0  0  0  # atno 8008 bound_to 7997
  154.5314  140.2258  155.8763 H   0  0  0  0  0  0  0  0  0  0  0  0  # atno 8009 bound_to 7997
  156.1792  140.3078  155.9123 H   0  0  0  0  0  0  0  0  0  0  0  0  # atno 8010 bound_to 7997
  139.8005  143.7841  152.2657 H   0  0  0  0  0  0  0  0  0  0  0  0  # atno 10167 bound_to 10162
  156.6732  130.9092  151.3046 H   0  0  0  0  0  0  0  0  0  0  0  0  # atno 10718 bound_to 10713
  153.0031  135.5416  154.6407 H   0  0  0  0  0  0  0  0  0  0  0  0  # atno 10763 bound_to 10752
  154.5663  135.2838  155.0873 H   0  0  0  0  0  0  0  0  0  0  0  0  # atno 10764 bound_to 10752
  154.2056  135.6476  153.5152 H   0  0  0  0  0  0  0  0  0  0  0  0  # atno 10765 bound_to 10752
  140.6460  133.9447  155.8353 H   0  0  0  0  0  0  0  0  0  0  0  0  # atno 11005 bound_to 11000
  145.4589  139.1515  143.3877 LP  0  0  0  0  0  0  0  0  0  0  0  0  # atno 17320 bound_to 7965
  146.2747  140.4718  142.8800 LP  0  0  0  0  0  0  0  0  0  0  0  0  # atno 17321 bound_to 7965
  139.7959  144.7393  150.9891 LP  0  0  0  0  0  0  0  0  0  0  0  0  # atno 17342 bound_to 10162
  140.7820  143.4394  151.0574 LP  0  0  0  0  0  0  0  0  0  0  0  0  # atno 17343 bound_to 10162
  157.7070  130.9396  150.0962 LP  0  0  0  0  0  0  0  0  0  0  0  0  # atno 17370 bound_to 10713
  156.1923  130.3655  149.8894 LP  0  0  0  0  0  0  0  0  0  0  0  0  # atno 17371 bound_to 10713
  141.0572  134.0399  157.3707 LP  0  0  0  0  0  0  0  0  0  0  0  0  # atno 17394 bound_to 11000
  139.9063  135.0180  156.7499 LP  0  0  0  0  0  0  0  0  0  0  0  0  # atno 17395 bound_to 11000

$$$$
