AV-unprocessed.smi:1671|AV-procd|sdf|6697|dock1
  -GOLD-   22720 7433D 1   1.00000     0.00000
 Structure written by MMmdl.
 44 45  0  0  0  0  0  0  0  0  1 V2000
  148.5476  132.3332  154.9171 C   0  0  0  0  0  0  0  0  0  0  0  0
  149.1640  133.7759  154.0065 S   0  0  0  0  0  0  0  0  0  0  0  0
  149.1537  135.0446  155.3088 C   0  0  2  0  0  0  0  0  0  0  0  0
  147.8291  135.8243  155.2818 C   0  0  0  0  0  0  0  0  0  0  0  0
  150.3591  135.9862  155.1949 C   0  0  0  0  0  0  0  0  0  0  0  0
  151.3241  135.8573  155.9490 O   0  0  0  0  0  0  0  0  0  0  0  0
  150.2792  136.9445  154.2579 N   0  0  0  0  0  0  0  0  0  0  0  0
  151.2753  137.9830  154.0135 C   0  0  0  0  0  0  0  0  0  0  0  0
  151.4402  138.9454  155.1796 C   0  0  0  0  0  0  0  0  0  0  0  0
  150.5393  140.0135  155.3585 C   0  0  0  0  0  0  0  0  0  0  0  0
  150.7187  140.8858  156.4489 C   0  0  0  0  0  0  0  0  0  0  0  0
  151.8028  140.6725  157.3336 C   0  0  0  0  0  0  0  0  0  0  0  0
  152.0006  141.5319  158.4366 N   0  0  0  0  0  0  0  0  0  0  0  0
  152.9589  141.1229  159.4617 C   0  0  0  0  0  0  0  0  0  0  0  0
  152.8257  142.0163  160.7058 C   0  0  0  0  0  0  0  0  0  0  0  0
  152.9650  143.3825  160.3314 O   0  0  0  0  0  0  0  0  0  0  0  0
  151.9518  143.7946  159.4181 C   0  0  1  0  0  0  0  0  0  0  0  0
  152.1273  145.2928  159.1490 C   0  0  0  0  0  0  0  0  0  0  0  0
  152.0592  142.9585  158.1278 C   0  0  0  0  0  0  0  0  0  0  0  0
  152.6693  139.6446  157.1564 N   0  0  0  0  0  0  0  0  0  0  0  0
  152.4941  138.8129  156.1083 C   0  0  0  0  0  0  0  0  0  0  0  0
  148.4480  131.4817  154.2440 H   0  0  0  0  0  0  0  0  0  0  0  0
  147.5709  132.5450  155.3518 H   0  0  0  0  0  0  0  0  0  0  0  0
  149.2337  132.0561  155.7166 H   0  0  0  0  0  0  0  0  0  0  0  0
  149.2065  134.5254  156.2670 H   0  0  0  0  0  0  0  0  0  0  0  0
  147.8083  136.6005  156.0479 H   0  0  0  0  0  0  0  0  0  0  0  0
  146.9850  135.1597  155.4678 H   0  0  0  0  0  0  0  0  0  0  0  0
  147.6632  136.3034  154.3160 H   0  0  0  0  0  0  0  0  0  0  0  0
  149.4484  136.9720  153.6849 H   0  0  0  0  0  0  0  0  0  0  0  0
  152.2478  137.5502  153.7740 H   0  0  0  0  0  0  0  0  0  0  0  0
  150.9635  138.5366  153.1274 H   0  0  0  0  0  0  0  0  0  0  0  0
  149.7146  140.1617  154.6767 H   0  0  0  0  0  0  0  0  0  0  0  0
  150.0172  141.6921  156.6018 H   0  0  0  0  0  0  0  0  0  0  0  0
  152.7908  140.0831  159.7446 H   0  0  0  0  0  0  0  0  0  0  0  0
  153.9703  141.1932  159.0588 H   0  0  0  0  0  0  0  0  0  0  0  0
  151.8647  141.8582  161.1982 H   0  0  0  0  0  0  0  0  0  0  0  0
  153.5994  141.7662  161.4317 H   0  0  0  0  0  0  0  0  0  0  0  0
  150.9733  143.6375  159.8757 H   0  0  0  0  0  0  0  0  0  0  0  0
  151.3632  145.6601  158.4637 H   0  0  0  0  0  0  0  0  0  0  0  0
  153.1022  145.5030  158.7084 H   0  0  0  0  0  0  0  0  0  0  0  0
  152.0485  145.8664  160.0727 H   0  0  0  0  0  0  0  0  0  0  0  0
  153.0028  143.1671  157.6218 H   0  0  0  0  0  0  0  0  0  0  0  0
  151.2634  143.2556  157.4463 H   0  0  0  0  0  0  0  0  0  0  0  0
  153.2194  138.0185  156.0156 H   0  0  0  0  0  0  0  0  0  0  0  0
  1  2  1  0  0  0  0
  1 22  1  0  0  0  0
  1 23  1  0  0  0  0
  1 24  1  0  0  0  0
  2  3  1  0  0  0  0
  3  4  1  0  0  0  0
  3  5  1  0  0  0  0
  3 25  1  0  0  0  0
  4 26  1  0  0  0  0
  4 27  1  0  0  0  0
  4 28  1  0  0  0  0
  5  6  2  0  0  0  0
  5  7  1  0  0  0  0
  7  8  1  0  0  0  0
  7 29  1  0  0  0  0
  8  9  1  0  0  0  0
  8 30  1  0  0  0  0
  8 31  1  0  0  0  0
  9 21  1  0  0  0  0
  9 10  2  0  0  0  0
 10 11  1  0  0  0  0
 10 32  1  0  0  0  0
 11 12  2  0  0  0  0
 11 33  1  0  0  0  0
 12 13  1  0  0  0  0
 12 20  1  0  0  0  0
 13 19  1  0  0  0  0
 13 14  1  0  0  0  0
 14 15  1  0  0  0  0
 14 34  1  0  0  0  0
 14 35  1  0  0  0  0
 15 16  1  0  0  0  0
 15 36  1  0  0  0  0
 15 37  1  0  0  0  0
 16 17  1  0  0  0  0
 17 18  1  0  0  0  0
 17 19  1  0  0  0  0
 17 38  1  0  0  0  0
 18 39  1  0  0  0  0
 18 40  1  0  0  0  0
 18 41  1  0  0  0  0
 19 42  1  0  0  0  0
 19 43  1  0  0  0  0
 20 21  2  0  0  0  0
 21 44  1  0  0  0  0
M  END
> <s_m_source_file>
AV-unprocessed.smi

> <i_m_source_file_index>
1671

> <i_lp_mmshare_version>
43012

> <i_f3d_flags>
0

> <s_epik_input>
W0NIM11TW0NASF0oW0NIM10pQyg9TylbTkhdW0NIMl1jMVtjSF1bY0hdYyhuW2NIXTEpTjJbQ0gyXVtDSDJdT1tDQEBIXShbQ0gzXSlbQ0gyXTI=

> <s_epik_cmdline>
J2VwaWtfcHl0aG9uJywgJy1waCcsICc3LjAnLCAnLXRuJywgJzgnLCAnLW1hJywgJzIwMCcsICctbWV0YWxfYmluZGluZycsICctaW1hZScsICc8aW5maWxlLm1hZT4nLCAnLW9tYWUnLCAnPG91dGZpbGUubWFlPic=

> <r_lp_tautomer_probability>
1

> <r_epik_Ionization_Penalty>
0.00480033

> <r_epik_Ionization_Penalty_Charging>
0

> <r_epik_Ionization_Penalty_Neutral>
0.00480033

> <r_epik_State_Penalty>
0.00347981

> <r_epik_Charging_Adjusted_Penalty>
0.00347981

> <i_epik_Tot_Q>
0

> <i_epik_Tot_abs_Q>
0

> <r_epik_Metal_State_Penalty>
-0

> <b_epik_Metal_Only>
0

> <s_lp_Force_Field>
OPLS_2005

> <r_lp_Energy>
16.3373

> <b_lp_Chiralities_Consistent>
1

> <s_lp_Variant>
AV-unprocessed.smi:1671-1

> <Gold.Version>
5.8.1

> <Gold.Id.Protein>
6NUR|6NUR_protein|mol2

> <Gold.PLP.Fitness>
49.0131

> <Gold.PLP.PLP>
-43.3750

> <Gold.PLP.part.hbond>
-4.0000

> <Gold.PLP.part.metal>
0.0000

> <Gold.PLP.part.buried>
-4.4985

> <Gold.PLP.part.nonpolar>
-35.9023

> <Gold.PLP.part.repulsive>
0.1019

> <Gold.PLP.ligand.clash>
0.0000

> <Gold.PLP.ligand.torsion>
1.3821

> <Gold.PLP.Chemscore.Hbond>
2.6640

> <Gold.PLP.Chemscore.CHOScore>
0.0000

> <Gold.PLP.Chemscore.Metal>
0.0000

> <Gold.Chemscore.Hbonds>
donor molecule, donor type, donor heavy atom, donor atom, acceptor molecule, acceptor atom, score
      L1  H     7    29       P1  7948  0.66
      P1  H  7997  8008       L1    20  0.88
      P1  H 10752 10764       L1     6  0.98

> <Gold.PLP.Chemscore.Internal.Correction>
0.4104

> <Gold.Rescore>
     Score         DG    S(hbond)    S(metal)    S(lipo)     H(rot)  DE(clash)    DE(int)     intcor
     19.00     -20.76       1.98        0.00     109.61       1.63       0.25       1.51       ----

> <Gold.Chemscore.Fitness>
18.9968

> <Gold.Chemscore.DG>
-20.7573

> <Gold.Chemscore.ZeroCoef>
-5.4800

> <Gold.Chemscore.Hbond>
1.9817

> <Gold.Chemscore.Metal>
0.0000

> <Gold.Chemscore.Lipo>
109.6081

> <Gold.Chemscore.Internal_Hbond>
0.0000

> <Gold.Chemscore.DEClash>
0.2463

> <Gold.Chemscore.DEInternal>
1.5142

> <Gold.Chemscore.Rot>
1.6272

> <Gold.Chemscore.Internal.Correction>
   9.000000E+99

> <Gold.Chemscore.Hbonds>
donor molecule, donor type, donor heavy atom, donor atom, acceptor molecule, acceptor atom, score
      L1  H     7    29       P1  7948  0.59
      P1  H  7997  8008       L1    20  0.25
      P1  H 10752 10764       L1     6  0.79

> <Gold.Chemscore.Hbond.Weighted>
-6.6189

> <Gold.Chemscore.Metal.Weighted>
-0.0000

> <Gold.Chemscore.Lipo.Weighted>
-12.8241

> <Gold.Chemscore.Internal_Hbond.Weighted>
0.0000

> <Gold.Chemscore.DEClash.Weighted>
0.2463

> <Gold.Chemscore.DEInternal.Weighted>
1.5142

> <Gold.Chemscore.Rot.Weighted>
4.1657

> <Gold.Chemscore.Internal.Correction.Weighted>
   9.000000E+99

> <Gold.Protein.RotatedTorsions>
[ 6907 6896 6895 6894 ] final  -84.01 input  -60.11 | X-H torsion
[ 7974 7965 7964 7962 ] final  -59.20 input  175.53 | X-H torsion
[ 8008 7997 7996 7995 ] final  -85.85 input   59.86 | X-H torsion
[ 10167 10162 10161 10158 ] final  -69.90 input  -65.29 | X-H torsion
[ 10718 10713 10712 10709 ] final  -13.03 input   66.30 | X-H torsion
[ 10763 10752 10751 10750 ] final  -36.22 input  -60.55 | X-H torsion
[ 11005 11000 10999 10996 ] final   59.85 input  -57.11 | X-H torsion

> <Gold.Protein.ActiveResidues>
 VAL166  LYS551  ARG553  GLY616  TRP617  ASP618  TYR619  PRO620  LYS621  CYS622 
 ASP623  PHE694  ASN695  SER759  ASP760  ASP761  ALA762  ILE779  LEU786  VAL792 
 PHE793  MET794  SER795  GLU796  ALA797  LYS798  CYS799  TRP800  GLU811  SER814 

> <Gold.Protein.RotatedAtoms>
  150.6880  134.3424  159.4873 H   0  0  0  0  0  0  0  0  0  0  0  0  # atno 6907 bound_to 6896
  152.1276  134.9156  160.0569 H   0  0  0  0  0  0  0  0  0  0  0  0  # atno 6908 bound_to 6896
  152.0339  133.3914  159.4345 H   0  0  0  0  0  0  0  0  0  0  0  0  # atno 6909 bound_to 6896
  145.8303  140.8484  143.0087 H   0  0  0  0  0  0  0  0  0  0  0  0  # atno 7974 bound_to 7965
  154.6453  140.0586  156.9893 H   0  0  0  0  0  0  0  0  0  0  0  0  # atno 8008 bound_to 7997
  155.1455  140.3269  155.4424 H   0  0  0  0  0  0  0  0  0  0  0  0  # atno 8009 bound_to 7997
  156.2550  140.1956  156.6569 H   0  0  0  0  0  0  0  0  0  0  0  0  # atno 8010 bound_to 7997
  140.5395  143.2316  151.7116 H   0  0  0  0  0  0  0  0  0  0  0  0  # atno 10167 bound_to 10162
  156.6361  130.4915  149.6111 H   0  0  0  0  0  0  0  0  0  0  0  0  # atno 10718 bound_to 10713
  153.8762  135.6826  153.4770 H   0  0  0  0  0  0  0  0  0  0  0  0  # atno 10763 bound_to 10752
  153.1259  135.4719  154.9270 H   0  0  0  0  0  0  0  0  0  0  0  0  # atno 10764 bound_to 10752
  154.7691  135.3233  154.8178 H   0  0  0  0  0  0  0  0  0  0  0  0  # atno 10765 bound_to 10752
  140.0274  134.6062  155.9554 H   0  0  0  0  0  0  0  0  0  0  0  0  # atno 11005 bound_to 11000
  144.6740  140.0663  143.7474 LP  0  0  0  0  0  0  0  0  0  0  0  0  # atno 17320 bound_to 7965
  145.9578  139.2779  143.1174 LP  0  0  0  0  0  0  0  0  0  0  0  0  # atno 17321 bound_to 7965
  139.4983  144.3991  152.0200 LP  0  0  0  0  0  0  0  0  0  0  0  0  # atno 17342 bound_to 10162
  140.3099  144.3550  150.6037 LP  0  0  0  0  0  0  0  0  0  0  0  0  # atno 17343 bound_to 10162
  156.2196  130.6729  151.1354 LP  0  0  0  0  0  0  0  0  0  0  0  0  # atno 17370 bound_to 10713
  157.7185  131.0695  150.6231 LP  0  0  0  0  0  0  0  0  0  0  0  0  # atno 17371 bound_to 10713
  141.1811  133.6547  156.5024 LP  0  0  0  0  0  0  0  0  0  0  0  0  # atno 17394 bound_to 11000
  140.4283  134.7125  157.4928 LP  0  0  0  0  0  0  0  0  0  0  0  0  # atno 17395 bound_to 11000

$$$$
