AV-unprocessed.smi:3076|AV-procd|sdf|11728|dock7
  -GOLD-   2272017123D 1   1.00000     0.00000
 Structure written by MMmdl.
 20 20  0  0  0  0  0  0  0  0  1 V2000
  147.5970  138.4139  151.4922 N   0  0  0  0  0  0  0  0  0  0  0  0
  146.7923  138.8223  152.6538 C   0  0  0  0  0  0  0  0  0  0  0  0
  147.1520  140.2282  153.1652 C   0  0  1  0  0  0  0  0  0  0  0  0
  146.0203  140.7679  153.8192 O   0  0  0  0  0  0  0  0  0  0  0  0
  148.3529  140.1762  154.0961 C   0  0  0  0  0  0  0  0  0  0  0  0
  148.8251  141.3339  154.7523 C   0  0  0  0  0  0  0  0  0  0  0  0
  149.9339  141.2243  155.6133 C   0  0  0  0  0  0  0  0  0  0  0  0
  150.5265  139.9578  155.7855 C   0  0  0  0  0  0  0  0  0  0  0  0
  150.0837  138.8425  155.1667 N   0  0  0  0  0  0  0  0  0  0  0  0
  149.0196  138.9563  154.3428 C   0  0  0  0  0  0  0  0  0  0  0  0
  148.2769  139.1357  151.2581 H   0  0  0  0  0  0  0  0  0  0  0  0
  148.1208  137.5656  151.7025 H   0  0  0  0  0  0  0  0  0  0  0  0
  145.7284  138.7623  152.4217 H   0  0  0  0  0  0  0  0  0  0  0  0
  146.9667  138.1055  153.4570 H   0  0  0  0  0  0  0  0  0  0  0  0
  147.3940  140.8758  152.3210 H   0  0  0  0  0  0  0  0  0  0  0  0
  145.4135  141.0763  153.1639 H   0  0  0  0  0  0  0  0  0  0  0  0
  148.3454  142.2902  154.6021 H   0  0  0  0  0  0  0  0  0  0  0  0
  150.3199  142.0900  156.1308 H   0  0  0  0  0  0  0  0  0  0  0  0
  151.3775  139.8374  156.4393 H   0  0  0  0  0  0  0  0  0  0  0  0
  148.6907  138.0432  153.8688 H   0  0  0  0  0  0  0  0  0  0  0  0
  1  2  1  0  0  0  0
  1 11  1  0  0  0  0
  1 12  1  0  0  0  0
  2  3  1  0  0  0  0
  2 13  1  0  0  0  0
  2 14  1  0  0  0  0
  3  4  1  0  0  0  0
  3  5  1  0  0  0  0
  3 15  1  0  0  0  0
  4 16  1  0  0  0  0
  5 10  1  0  0  0  0
  5  6  2  0  0  0  0
  6  7  1  0  0  0  0
  6 17  1  0  0  0  0
  7  8  2  0  0  0  0
  7 18  1  0  0  0  0
  8  9  1  0  0  0  0
  8 19  1  0  0  0  0
  9 10  2  0  0  0  0
 10 20  1  0  0  0  0
M  END
> <s_m_source_file>
AV-unprocessed.smi

> <i_m_source_file_index>
3076

> <i_lp_mmshare_version>
43012

> <i_f3d_flags>
0

> <s_epik_input>
W05IMl1bQ0gyXVtDQEhdKFtPSF0pYzFbY0hdW2NIXVtjSF1uW2NIXTE=

> <s_epik_cmdline>
J2VwaWtfcHl0aG9uJywgJy1waCcsICc3LjAnLCAnLXRuJywgJzgnLCAnLW1hJywgJzIwMCcsICctbWV0YWxfYmluZGluZycsICctaW1hZScsICc8aW5maWxlLm1hZT4nLCAnLW9tYWUnLCAnPG91dGZpbGUubWFlPic=

> <r_epik_Ionization_Penalty>
2.22627

> <r_epik_Ionization_Penalty_Charging>
0

> <r_epik_Ionization_Penalty_Neutral>
2.22627

> <r_epik_State_Penalty>
2.36938

> <r_epik_Charging_Adjusted_Penalty>
2.36938

> <i_epik_Tot_Q>
0

> <i_epik_Tot_abs_Q>
0

> <r_epik_Metal_State_Penalty>
2.36785

> <b_epik_Metal_Only>
0

> <s_lp_Force_Field>
OPLS_2005

> <r_lp_Energy>
11.5599

> <b_lp_Chiralities_Consistent>
1

> <s_lp_Variant>
AV-unprocessed.smi:3076-4

> <Gold.Version>
5.8.1

> <Gold.Id.Protein>
6NUR|6NUR_protein|mol2

> <Gold.PLP.Fitness>
34.0979

> <Gold.PLP.PLP>
-22.7056

> <Gold.PLP.part.hbond>
-4.0000

> <Gold.PLP.part.metal>
0.0000

> <Gold.PLP.part.buried>
0.7904

> <Gold.PLP.part.nonpolar>
-18.0605

> <Gold.PLP.part.repulsive>
0.1274

> <Gold.PLP.ligand.clash>
0.0000

> <Gold.PLP.ligand.torsion>
0.2971

> <Gold.PLP.Chemscore.Hbond>
3.0000

> <Gold.PLP.Chemscore.CHOScore>
0.9946

> <Gold.PLP.Chemscore.Metal>
0.0000

> <Gold.Chemscore.Hbonds>
donor molecule, donor type, donor heavy atom, donor atom, acceptor molecule, acceptor atom, score
      L1  H     1    11       P1  7957  1.00
      L1  H     1    12       P1  7948  1.00
      L1  H     4    16       P1 10175  0.74
      L1  C    10    20       P1  7948  0.57

> <Gold.PLP.Chemscore.Internal.Correction>
0.0027

> <Gold.Rescore>
     Score         DG    S(hbond)    S(metal)    S(lipo)     H(rot)  DE(clash)    DE(int)     intcor
     15.77     -15.95       2.86        0.00      48.06       1.85       0.01       0.16       ----

> <Gold.Chemscore.Fitness>
15.7703

> <Gold.Chemscore.DG>
-15.9456

> <Gold.Chemscore.ZeroCoef>
-5.4800

> <Gold.Chemscore.Hbond>
2.8644

> <Gold.Chemscore.Metal>
0.0000

> <Gold.Chemscore.Lipo>
48.0587

> <Gold.Chemscore.Internal_Hbond>
0.0000

> <Gold.Chemscore.DEClash>
0.0149

> <Gold.Chemscore.DEInternal>
0.1604

> <Gold.Chemscore.Rot>
1.8455

> <Gold.Chemscore.Internal.Correction>
   9.000000E+99

> <Gold.Chemscore.Hbonds>
donor molecule, donor type, donor heavy atom, donor atom, acceptor molecule, acceptor atom, score
      L1  H     1    11       P1  7957  0.53
      L1  H     1    12       P1  7948  0.94
      L1  H     4    16       P1 10175  0.22

> <Gold.Chemscore.Hbond.Weighted>
-9.5672

> <Gold.Chemscore.Metal.Weighted>
-0.0000

> <Gold.Chemscore.Lipo.Weighted>
-5.6229

> <Gold.Chemscore.Internal_Hbond.Weighted>
0.0000

> <Gold.Chemscore.DEClash.Weighted>
0.0149

> <Gold.Chemscore.DEInternal.Weighted>
0.1604

> <Gold.Chemscore.Rot.Weighted>
4.7245

> <Gold.Chemscore.Internal.Correction.Weighted>
   9.000000E+99

> <Gold.Protein.RotatedTorsions>
[ 6907 6896 6895 6894 ] final   27.92 input  -60.11 | X-H torsion
[ 7974 7965 7964 7962 ] final  -54.97 input  175.53 | X-H torsion
[ 8008 7997 7996 7995 ] final  158.17 input   59.86 | X-H torsion
[ 10167 10162 10161 10158 ] final -155.40 input  -65.29 | X-H torsion
[ 10718 10713 10712 10709 ] final  -70.55 input   66.30 | X-H torsion
[ 10763 10752 10751 10750 ] final   37.79 input  -60.55 | X-H torsion
[ 11005 11000 10999 10996 ] final  -85.23 input  -57.11 | X-H torsion

> <Gold.Protein.ActiveResidues>
 VAL166  LYS551  ARG553  GLY616  TRP617  ASP618  TYR619  PRO620  LYS621  CYS622 
 ASP623  PHE694  ASN695  SER759  ASP760  ASP761  ALA762  ILE779  LEU786  VAL792 
 PHE793  MET794  SER795  GLU796  ALA797  LYS798  CYS799  TRP800  GLU811  SER814 

> <Gold.Protein.RotatedAtoms>
  152.0093  134.9885  160.0567 H   0  0  0  0  0  0  0  0  0  0  0  0  # atno 6907 bound_to 6896
  152.1444  133.4479  159.4791 H   0  0  0  0  0  0  0  0  0  0  0  0  # atno 6908 bound_to 6896
  150.6868  134.2184  159.4430 H   0  0  0  0  0  0  0  0  0  0  0  0  # atno 6909 bound_to 6896
  145.8795  140.8155  142.9847 H   0  0  0  0  0  0  0  0  0  0  0  0  # atno 7974 bound_to 7965
  156.2319  140.1865  156.7220 H   0  0  0  0  0  0  0  0  0  0  0  0  # atno 8008 bound_to 7997
  154.6038  140.0632  156.9431 H   0  0  0  0  0  0  0  0  0  0  0  0  # atno 8009 bound_to 7997
  155.2130  140.3301  155.4328 H   0  0  0  0  0  0  0  0  0  0  0  0  # atno 8010 bound_to 7997
  139.6934  143.9382  152.2396 H   0  0  0  0  0  0  0  0  0  0  0  0  # atno 10167 bound_to 10162
  156.0403  130.4334  150.2312 H   0  0  0  0  0  0  0  0  0  0  0  0  # atno 10718 bound_to 10713
  153.0024  135.6268  154.2200 H   0  0  0  0  0  0  0  0  0  0  0  0  # atno 10763 bound_to 10752
  154.1943  135.2807  155.3013 H   0  0  0  0  0  0  0  0  0  0  0  0  # atno 10764 bound_to 10752
  154.5734  135.5669  153.7176 H   0  0  0  0  0  0  0  0  0  0  0  0  # atno 10765 bound_to 10752
  141.1643  133.7388  156.8984 H   0  0  0  0  0  0  0  0  0  0  0  0  # atno 11005 bound_to 11000
  144.6727  140.1362  143.7440 LP  0  0  0  0  0  0  0  0  0  0  0  0  # atno 17320 bound_to 7965
  145.9041  139.2447  143.1476 LP  0  0  0  0  0  0  0  0  0  0  0  0  # atno 17321 bound_to 7965
  139.9205  144.6802  150.8467 LP  0  0  0  0  0  0  0  0  0  0  0  0  # atno 17342 bound_to 10162
  140.7689  143.3378  151.2271 LP  0  0  0  0  0  0  0  0  0  0  0  0  # atno 17343 bound_to 10162
  157.0408  131.0034  151.3284 LP  0  0  0  0  0  0  0  0  0  0  0  0  # atno 17370 bound_to 10713
  157.5211  130.7998  149.7810 LP  0  0  0  0  0  0  0  0  0  0  0  0  # atno 17371 bound_to 10713
  140.1599  134.9172  157.2702 LP  0  0  0  0  0  0  0  0  0  0  0  0  # atno 17394 bound_to 11000
  140.2623  134.3557  155.7402 LP  0  0  0  0  0  0  0  0  0  0  0  0  # atno 17395 bound_to 11000

$$$$
