AV-unprocessed.smi:2007|AV-procd|sdf|8138|dock7
  -GOLD-   2272010373D 1   1.00000     0.00000
 Structure written by MMmdl.
 35 36  0  0  0  0  0  0  0  0  2 V2000
  146.6774  141.1822  154.6251 C   0  0  0  0  0  0  0  0  0  0  0  0
  147.9850  141.1582  155.4278 C   0  0  1  0  0  0  0  0  0  0  0  0
  149.2044  141.4113  154.5158 C   0  0  0  0  0  0  0  0  0  0  0  0
  150.3552  140.5325  154.7314 N   0  0  0  0  0  0  0  0  0  0  0  0
  150.8702  140.5960  156.0972 C   0  0  0  0  0  0  0  0  0  0  0  0
  152.0701  139.6545  156.2993 C   0  0  0  0  0  0  0  0  0  0  0  0
  151.6968  138.3230  155.9589 O   0  0  0  0  0  0  0  0  0  0  0  0
  151.2304  138.2115  154.6181 C   0  0  0  0  0  0  0  0  0  0  0  0
  150.0276  139.1480  154.4110 C   0  0  0  0  0  0  0  0  0  0  0  0
  147.9183  142.1761  156.4766 N   0  0  0  0  0  0  0  0  0  0  0  0
  147.5431  141.9940  157.7516 C   0  0  0  0  0  0  0  0  0  0  0  0
  147.1892  140.8792  158.1418 O   0  0  0  0  0  0  0  0  0  0  0  0
  147.6052  143.1194  158.4998 N   0  5  0  0  0  0  0  0  0  0  0  0
  146.8748  143.2210  159.6220 C   0  0  0  0  0  0  0  0  0  0  0  0
  145.8947  142.3651  159.9336 N   0  0  0  0  0  0  0  0  0  0  0  0
  145.2622  142.6613  161.1424 C   0  0  0  0  0  0  0  0  0  0  0  0
  145.7670  143.7737  161.7619 C   0  0  0  0  0  0  0  0  0  0  0  0
  147.0585  144.4879  160.8390 S   0  0  0  0  0  0  0  0  0  0  0  0
  146.6840  140.4231  153.8426 H   0  0  0  0  0  0  0  0  0  0  0  0
  146.5201  142.1508  154.1489 H   0  0  0  0  0  0  0  0  0  0  0  0
  145.8192  140.9842  155.2684 H   0  0  0  0  0  0  0  0  0  0  0  0
  148.0627  140.1616  155.8631 H   0  0  0  0  0  0  0  0  0  0  0  0
  148.8924  141.3477  153.4723 H   0  0  0  0  0  0  0  0  0  0  0  0
  149.5204  142.4446  154.6670 H   0  0  0  0  0  0  0  0  0  0  0  0
  151.1828  141.6106  156.3392 H   0  0  0  0  0  0  0  0  0  0  0  0
  150.0810  140.3346  156.8035 H   0  0  0  0  0  0  0  0  0  0  0  0
  152.9152  139.9714  155.6860 H   0  0  0  0  0  0  0  0  0  0  0  0
  152.4010  139.6785  157.3375 H   0  0  0  0  0  0  0  0  0  0  0  0
  152.0352  138.4575  153.9236 H   0  0  0  0  0  0  0  0  0  0  0  0
  150.9436  137.1778  154.4248 H   0  0  0  0  0  0  0  0  0  0  0  0
  149.1967  138.8107  155.0323 H   0  0  0  0  0  0  0  0  0  0  0  0
  149.6923  139.0775  153.3755 H   0  0  0  0  0  0  0  0  0  0  0  0
  148.2012  143.1090  156.2157 H   0  0  0  0  0  0  0  0  0  0  0  0
  144.4597  142.0253  161.4856 H   0  0  0  0  0  0  0  0  0  0  0  0
  145.4598  144.2155  162.6976 H   0  0  0  0  0  0  0  0  0  0  0  0
  1  2  1  0  0  0  0
  1 19  1  0  0  0  0
  1 20  1  0  0  0  0
  1 21  1  0  0  0  0
  2  3  1  0  0  0  0
  2 10  1  0  0  0  0
  2 22  1  0  0  0  0
  3  4  1  0  0  0  0
  3 23  1  0  0  0  0
  3 24  1  0  0  0  0
  4  9  1  0  0  0  0
  4  5  1  0  0  0  0
  5  6  1  0  0  0  0
  5 25  1  0  0  0  0
  5 26  1  0  0  0  0
  6  7  1  0  0  0  0
  6 27  1  0  0  0  0
  6 28  1  0  0  0  0
  7  8  1  0  0  0  0
  8  9  1  0  0  0  0
  8 29  1  0  0  0  0
  8 30  1  0  0  0  0
  9 31  1  0  0  0  0
  9 32  1  0  0  0  0
 10 11  1  0  0  0  0
 10 33  1  0  0  0  0
 11 12  2  0  0  0  0
 11 13  1  0  0  0  0
 13 14  1  0  0  0  0
 14 18  1  0  0  0  0
 14 15  2  0  0  0  0
 15 16  1  0  0  0  0
 16 17  2  0  0  0  0
 16 34  1  0  0  0  0
 17 18  1  0  0  0  0
 17 35  1  0  0  0  0
M  CHG  1  13  -1
M  END
> <s_m_source_file>
AV-unprocessed.smi

> <i_m_source_file_index>
2007

> <i_lp_mmshare_version>
43012

> <i_f3d_flags>
0

> <s_epik_input>
W0NIMl0xW0NIMl1PW0NIMl1bQ0gyXU4xW0NIMl1bQ0BASF0oW0NIM10pW05IXUMoPU8pW05IXWMybltjSF1bY0hdczI=

> <s_epik_cmdline>
J2VwaWtfcHl0aG9uJywgJy1waCcsICc3LjAnLCAnLXRuJywgJzgnLCAnLW1hJywgJzIwMCcsICctbWV0YWxfYmluZGluZycsICctaW1hZScsICc8aW5maWxlLm1hZT4nLCAnLW9tYWUnLCAnPG91dGZpbGUubWFlPic=

> <r_lp_tautomer_probability>
0.999

> <r_epik_Ionization_Penalty>
7.09127

> <r_epik_Ionization_Penalty_Charging>
5.74083

> <r_epik_Ionization_Penalty_Neutral>
1.35044

> <r_epik_State_Penalty>
5.95014

> <r_epik_Charging_Adjusted_Penalty>
11.691

> <i_epik_Tot_Q>
-1

> <i_epik_Tot_abs_Q>
1

> <r_epik_Metal_State_Penalty>
1.93831

> <b_epik_Metal_Only>
1

> <s_lp_Force_Field>
OPLS_2005

> <r_lp_Energy>
21.094

> <b_lp_Chiralities_Consistent>
1

> <s_lp_Variant>
AV-unprocessed.smi:2007-6

> <Gold.Version>
5.8.1

> <Gold.Id.Protein>
6NUR|6NUR_protein|mol2

> <Gold.PLP.Fitness>
38.8054

> <Gold.PLP.PLP>
-33.0324

> <Gold.PLP.part.hbond>
-4.0000

> <Gold.PLP.part.metal>
0.0000

> <Gold.PLP.part.buried>
-5.7830

> <Gold.PLP.part.nonpolar>
-24.9171

> <Gold.PLP.part.repulsive>
0.5898

> <Gold.PLP.ligand.clash>
0.0000

> <Gold.PLP.ligand.torsion>
1.1060

> <Gold.PLP.Chemscore.Hbond>
2.6260

> <Gold.PLP.Chemscore.CHOScore>
0.0000

> <Gold.PLP.Chemscore.Metal>
0.0000

> <Gold.Chemscore.Hbonds>
donor molecule, donor type, donor heavy atom, donor atom, acceptor molecule, acceptor atom, score
      L1  H    10    33       P1  8028  1.00
      P1  H  6934  6946       L1    15  0.65
      P1  H  7989  7998       L1     4  0.96

> <Gold.PLP.Chemscore.Internal.Correction>
0.1070

> <Gold.Rescore>
     Score         DG    S(hbond)    S(metal)    S(lipo)     H(rot)  DE(clash)    DE(int)     intcor
      9.94     -12.64       1.13        0.00      62.94       1.55       0.00       2.70       ----

> <Gold.Chemscore.Fitness>
9.9409

> <Gold.Chemscore.DG>
-12.6439

> <Gold.Chemscore.ZeroCoef>
-5.4800

> <Gold.Chemscore.Hbond>
1.1288

> <Gold.Chemscore.Metal>
0.0000

> <Gold.Chemscore.Lipo>
62.9441

> <Gold.Chemscore.Internal_Hbond>
0.0000

> <Gold.Chemscore.DEClash>
0.0015

> <Gold.Chemscore.DEInternal>
2.7016

> <Gold.Chemscore.Rot>
1.5510

> <Gold.Chemscore.Internal.Correction>
   9.000000E+99

> <Gold.Chemscore.Hbonds>
donor molecule, donor type, donor heavy atom, donor atom, acceptor molecule, acceptor atom, score
      L1  H    10    33       P1  8028  0.65
      P1  H  6934  6946       L1    15  0.02
      P1  H  7989  7998       L1     4  0.17

> <Gold.Chemscore.Hbond.Weighted>
-3.7700

> <Gold.Chemscore.Metal.Weighted>
-0.0000

> <Gold.Chemscore.Lipo.Weighted>
-7.3645

> <Gold.Chemscore.Internal_Hbond.Weighted>
0.0000

> <Gold.Chemscore.DEClash.Weighted>
0.0015

> <Gold.Chemscore.DEInternal.Weighted>
2.7016

> <Gold.Chemscore.Rot.Weighted>
3.9706

> <Gold.Chemscore.Internal.Correction.Weighted>
   9.000000E+99

> <Gold.Protein.RotatedTorsions>
[ 6907 6896 6895 6894 ] final   16.75 input  -60.11 | X-H torsion
[ 7974 7965 7964 7962 ] final  -88.41 input  175.53 | X-H torsion
[ 8008 7997 7996 7995 ] final   58.79 input   59.86 | X-H torsion
[ 10167 10162 10161 10158 ] final  148.05 input  -65.29 | X-H torsion
[ 10718 10713 10712 10709 ] final  120.69 input   66.30 | X-H torsion
[ 10763 10752 10751 10750 ] final   19.92 input  -60.55 | X-H torsion
[ 11005 11000 10999 10996 ] final  -77.68 input  -57.11 | X-H torsion

> <Gold.Protein.ActiveResidues>
 VAL166  LYS551  ARG553  GLY616  TRP617  ASP618  TYR619  PRO620  LYS621  CYS622 
 ASP623  PHE694  ASN695  SER759  ASP760  ASP761  ALA762  ILE779  LEU786  VAL792 
 PHE793  MET794  SER795  GLU796  ALA797  LYS798  CYS799  TRP800  GLU811  SER814 

> <Gold.Protein.RotatedAtoms>
  151.8388  135.0597  160.0445 H   0  0  0  0  0  0  0  0  0  0  0  0  # atno 6907 bound_to 6896
  152.2825  133.5479  159.5515 H   0  0  0  0  0  0  0  0  0  0  0  0  # atno 6908 bound_to 6896
  150.7195  134.0460  159.3824 H   0  0  0  0  0  0  0  0  0  0  0  0  # atno 6909 bound_to 6896
  145.4535  140.9561  143.2009 H   0  0  0  0  0  0  0  0  0  0  0  0  # atno 7974 bound_to 7965
  155.5556  140.3487  155.4479 H   0  0  0  0  0  0  0  0  0  0  0  0  # atno 8008 bound_to 7997
  156.0551  140.1327  157.0031 H   0  0  0  0  0  0  0  0  0  0  0  0  # atno 8009 bound_to 7997
  154.4453  140.0996  156.6419 H   0  0  0  0  0  0  0  0  0  0  0  0  # atno 8010 bound_to 7997
  139.4880  144.5709  151.7057 H   0  0  0  0  0  0  0  0  0  0  0  0  # atno 10167 bound_to 10162
  157.5872  131.1068  150.8071 H   0  0  0  0  0  0  0  0  0  0  0  0  # atno 10718 bound_to 10713
  153.1121  135.6699  153.9483 H   0  0  0  0  0  0  0  0  0  0  0  0  # atno 10763 bound_to 10752
  153.9023  135.3034  155.3450 H   0  0  0  0  0  0  0  0  0  0  0  0  # atno 10764 bound_to 10752
  154.7540  135.5021  153.9417 H   0  0  0  0  0  0  0  0  0  0  0  0  # atno 10765 bound_to 10752
  141.1661  133.7032  156.7857 H   0  0  0  0  0  0  0  0  0  0  0  0  # atno 11005 bound_to 11000
  144.8047  139.6074  143.7056 LP  0  0  0  0  0  0  0  0  0  0  0  0  # atno 17320 bound_to 7965
  146.2491  139.6161  142.9439 LP  0  0  0  0  0  0  0  0  0  0  0  0  # atno 17321 bound_to 7965
  140.5295  144.0752  150.6049 LP  0  0  0  0  0  0  0  0  0  0  0  0  # atno 17342 bound_to 10162
  140.3737  143.2840  152.0249 LP  0  0  0  0  0  0  0  0  0  0  0  0  # atno 17343 bound_to 10162
  156.8502  130.5078  149.5312 LP  0  0  0  0  0  0  0  0  0  0  0  0  # atno 17370 bound_to 10713
  156.0922  130.5905  150.9753 LP  0  0  0  0  0  0  0  0  0  0  0  0  # atno 17371 bound_to 10713
  140.2362  134.8648  157.3527 LP  0  0  0  0  0  0  0  0  0  0  0  0  # atno 17394 bound_to 11000
  140.1841  134.4452  155.7754 LP  0  0  0  0  0  0  0  0  0  0  0  0  # atno 17395 bound_to 11000

$$$$
