AV-unprocessed.smi:3057|AV-procd|sdf|11662|dock6
  -GOLD-   2272017 63D 1   1.00000     0.00000
 Structure written by MMmdl.
 40 42  0  0  0  0  0  0  0  0  1 V2000
  150.5672  136.2269  156.1334 C   0  0  0  0  0  0  0  0  0  0  0  0
  151.0042  137.6833  156.3943 C   0  0  2  0  0  0  0  0  0  0  0  0
  150.9086  138.5319  155.1162 C   0  0  0  0  0  0  0  0  0  0  0  0
  152.3018  138.4040  154.4808 C   0  0  0  0  0  0  0  0  0  0  0  0
  153.1792  138.0623  155.6765 C   0  0  0  0  0  0  0  0  0  0  0  0
  154.4070  138.1344  155.6539 O   0  0  0  0  0  0  0  0  0  0  0  0
  152.4135  137.7483  156.7337 N   0  0  0  0  0  0  0  0  0  0  0  0
  152.7557  137.6982  158.1636 C   0  0  1  0  0  0  0  0  0  0  0  0
  153.6185  138.8837  158.6361 C   0  0  0  0  0  0  0  0  0  0  0  0
  154.7997  138.9703  158.2981 O   0  0  0  0  0  0  0  0  0  0  0  0
  153.0049  139.8027  159.3952 N   0  0  0  0  0  0  0  0  0  0  0  0
  153.6507  140.9965  159.9226 C   0  0  0  0  0  0  0  0  0  0  0  0
  152.6706  141.8069  160.7821 C   0  0  0  0  0  0  0  0  0  0  0  0
  152.1316  143.0211  160.0495 C   0  0  0  0  0  0  0  0  0  0  0  0
  152.1085  144.2870  160.6734 C   0  0  0  0  0  0  0  0  0  0  0  0
  151.5907  145.3806  159.9525 C   0  0  0  0  0  0  0  0  0  0  0  0
  151.1171  145.1673  158.6436 C   0  0  0  0  0  0  0  0  0  0  0  0
  151.1826  143.8641  158.1113 C   0  0  0  0  0  0  0  0  0  0  0  0
  151.6772  142.8087  158.7938 N   0  0  0  0  0  0  0  0  0  0  0  0
  151.4193  137.6194  158.9338 C   0  0  0  0  0  0  0  0  0  0  0  0
  150.1767  138.3673  157.8447 S   0  0  0  0  0  0  0  0  0  0  0  0
  151.1073  135.7908  155.2926 H   0  0  0  0  0  0  0  0  0  0  0  0
  149.5034  136.1765  155.9001 H   0  0  0  0  0  0  0  0  0  0  0  0
  150.7432  135.5868  156.9976 H   0  0  0  0  0  0  0  0  0  0  0  0
  150.1130  138.2005  154.4479 H   0  0  0  0  0  0  0  0  0  0  0  0
  150.7160  139.5772  155.3631 H   0  0  0  0  0  0  0  0  0  0  0  0
  152.3395  137.5873  153.7593 H   0  0  0  0  0  0  0  0  0  0  0  0
  152.6201  139.3248  153.9913 H   0  0  0  0  0  0  0  0  0  0  0  0
  153.3163  136.7778  158.3361 H   0  0  0  0  0  0  0  0  0  0  0  0
  152.0318  139.6636  159.6259 H   0  0  0  0  0  0  0  0  0  0  0  0
  154.5201  140.7055  160.5150 H   0  0  0  0  0  0  0  0  0  0  0  0
  154.0130  141.6068  159.0936 H   0  0  0  0  0  0  0  0  0  0  0  0
  151.8355  141.1765  161.0914 H   0  0  0  0  0  0  0  0  0  0  0  0
  153.1617  142.1364  161.6991 H   0  0  0  0  0  0  0  0  0  0  0  0
  152.4758  144.4184  161.6806 H   0  0  0  0  0  0  0  0  0  0  0  0
  151.5563  146.3645  160.3965 H   0  0  0  0  0  0  0  0  0  0  0  0
  150.7129  145.9823  158.0616 H   0  0  0  0  0  0  0  0  0  0  0  0
  150.8277  143.6639  157.1111 H   0  0  0  0  0  0  0  0  0  0  0  0
  151.1465  136.5791  159.1123 H   0  0  0  0  0  0  0  0  0  0  0  0
  151.4427  138.1209  159.9022 H   0  0  0  0  0  0  0  0  0  0  0  0
  1  2  1  0  0  0  0
  1 22  1  0  0  0  0
  1 23  1  0  0  0  0
  1 24  1  0  0  0  0
  2  7  1  0  0  0  0
  2 21  1  0  0  0  0
  2  3  1  0  0  0  0
  3  4  1  0  0  0  0
  3 25  1  0  0  0  0
  3 26  1  0  0  0  0
  4  5  1  0  0  0  0
  4 27  1  0  0  0  0
  4 28  1  0  0  0  0
  5  6  2  0  0  0  0
  5  7  1  0  0  0  0
  7  8  1  0  0  0  0
  8  9  1  0  0  0  0
  8 20  1  0  0  0  0
  8 29  1  0  0  0  0
  9 10  2  0  0  0  0
  9 11  1  0  0  0  0
 11 12  1  0  0  0  0
 11 30  1  0  0  0  0
 12 13  1  0  0  0  0
 12 31  1  0  0  0  0
 12 32  1  0  0  0  0
 13 14  1  0  0  0  0
 13 33  1  0  0  0  0
 13 34  1  0  0  0  0
 14 19  1  0  0  0  0
 14 15  2  0  0  0  0
 15 16  1  0  0  0  0
 15 35  1  0  0  0  0
 16 17  2  0  0  0  0
 16 36  1  0  0  0  0
 17 18  1  0  0  0  0
 17 37  1  0  0  0  0
 18 19  2  0  0  0  0
 18 38  1  0  0  0  0
 20 21  1  0  0  0  0
 20 39  1  0  0  0  0
 20 40  1  0  0  0  0
M  END
> <s_m_source_file>
AV-unprocessed.smi

> <i_m_source_file_index>
3057

> <i_lp_mmshare_version>
43012

> <i_f3d_flags>
0

> <s_epik_input>
W0NIMl0xW0NIMl1DKD1PKU4oW0NAQF0xMltDSDNdKVtDQEhdKFtDSDJdUzIpQyg9TylbTkhdW0NIMl1bQ0gyXWMzW2NIXVtjSF1bY0hdW2NIXW4z

> <s_epik_cmdline>
J2VwaWtfcHl0aG9uJywgJy1waCcsICc3LjAnLCAnLXRuJywgJzgnLCAnLW1hJywgJzIwMCcsICctbWV0YWxfYmluZGluZycsICctaW1hZScsICc8aW5maWxlLm1hZT4nLCAnLW9tYWUnLCAnPG91dGZpbGUubWFlPic=

> <r_epik_Ionization_Penalty>
0.0249631

> <r_epik_Ionization_Penalty_Charging>
0

> <r_epik_Ionization_Penalty_Neutral>
0.0249631

> <r_epik_State_Penalty>
0.0202943

> <r_epik_Charging_Adjusted_Penalty>
0.0202943

> <i_epik_Tot_Q>
0

> <i_epik_Tot_abs_Q>
0

> <r_epik_Metal_State_Penalty>
0.0194661

> <b_epik_Metal_Only>
0

> <s_lp_Force_Field>
OPLS_2005

> <r_lp_Energy>
25.2027

> <b_lp_Chiralities_Consistent>
1

> <s_lp_Variant>
AV-unprocessed.smi:3057-2

> <Gold.Version>
5.8.1

> <Gold.Id.Protein>
6NUR|6NUR_protein|mol2

> <Gold.PLP.Fitness>
45.6102

> <Gold.PLP.PLP>
-41.7999

> <Gold.PLP.part.hbond>
-2.3454

> <Gold.PLP.part.metal>
0.0000

> <Gold.PLP.part.buried>
-6.4030

> <Gold.PLP.part.nonpolar>
-33.1060

> <Gold.PLP.part.repulsive>
0.1288

> <Gold.PLP.ligand.clash>
0.4527

> <Gold.PLP.ligand.torsion>
0.7196

> <Gold.PLP.Chemscore.Hbond>
1.0358

> <Gold.PLP.Chemscore.CHOScore>
0.8624

> <Gold.PLP.Chemscore.Metal>
0.0000

> <Gold.Chemscore.Hbonds>
donor molecule, donor type, donor heavy atom, donor atom, acceptor molecule, acceptor atom, score
      P1  H  7997  8008       L1    10  0.92
      P1  H  7997  8009       L1     6  0.05
      L1  C    18    38       P1  8028  0.76

> <Gold.PLP.Chemscore.Internal.Correction>
0.0074

> <Gold.Rescore>
     Score         DG    S(hbond)    S(metal)    S(lipo)     H(rot)  DE(clash)    DE(int)     intcor
     15.64     -17.52       1.00        0.00     108.04       1.53       0.00       1.88       ----

> <Gold.Chemscore.Fitness>
15.6427

> <Gold.Chemscore.DG>
-17.5204

> <Gold.Chemscore.ZeroCoef>
-5.4800

> <Gold.Chemscore.Hbond>
0.9959

> <Gold.Chemscore.Metal>
0.0000

> <Gold.Chemscore.Lipo>
108.0406

> <Gold.Chemscore.Internal_Hbond>
0.0000

> <Gold.Chemscore.DEClash>
0.0000

> <Gold.Chemscore.DEInternal>
1.8777

> <Gold.Chemscore.Rot>
1.5339

> <Gold.Chemscore.Internal.Correction>
   9.000000E+99

> <Gold.Chemscore.Hbonds>
donor molecule, donor type, donor heavy atom, donor atom, acceptor molecule, acceptor atom, score
      P1  H  7997  8008       L1    10  0.38
      P1  H  7997  8009       L1     6  0.04

> <Gold.Chemscore.Hbond.Weighted>
-3.3264

> <Gold.Chemscore.Metal.Weighted>
-0.0000

> <Gold.Chemscore.Lipo.Weighted>
-12.6407

> <Gold.Chemscore.Internal_Hbond.Weighted>
0.0000

> <Gold.Chemscore.DEClash.Weighted>
0.0000

> <Gold.Chemscore.DEInternal.Weighted>
1.8777

> <Gold.Chemscore.Rot.Weighted>
3.9267

> <Gold.Chemscore.Internal.Correction.Weighted>
   9.000000E+99

> <Gold.Protein.RotatedTorsions>
[ 6907 6896 6895 6894 ] final  -51.68 input  -60.11 | X-H torsion
[ 7974 7965 7964 7962 ] final  -96.41 input  175.53 | X-H torsion
[ 8008 7997 7996 7995 ] final  -98.25 input   59.86 | X-H torsion
[ 10167 10162 10161 10158 ] final  -80.79 input  -65.29 | X-H torsion
[ 10718 10713 10712 10709 ] final  -45.15 input   66.30 | X-H torsion
[ 10763 10752 10751 10750 ] final  129.84 input  -60.55 | X-H torsion
[ 11005 11000 10999 10996 ] final   92.49 input  -57.11 | X-H torsion

> <Gold.Protein.ActiveResidues>
 VAL166  LYS551  ARG553  GLY616  TRP617  ASP618  TYR619  PRO620  LYS621  CYS622 
 ASP623  PHE694  ASN695  SER759  ASP760  ASP761  ALA762  ILE779  LEU786  VAL792 
 PHE793  MET794  SER795  GLU796  ALA797  LYS798  CYS799  TRP800  GLU811  SER814 

> <Gold.Protein.RotatedAtoms>
  150.8588  134.7934  159.7066 H   0  0  0  0  0  0  0  0  0  0  0  0  # atno 6907 bound_to 6896
  152.4631  134.5134  159.9770 H   0  0  0  0  0  0  0  0  0  0  0  0  # atno 6908 bound_to 6896
  151.5242  133.3423  159.2942 H   0  0  0  0  0  0  0  0  0  0  0  0  # atno 6909 bound_to 6896
  145.3472  140.9470  143.2575 H   0  0  0  0  0  0  0  0  0  0  0  0  # atno 7974 bound_to 7965
  154.7987  140.0456  157.1256 H   0  0  0  0  0  0  0  0  0  0  0  0  # atno 8008 bound_to 7997
  154.9504  140.3064  155.5058 H   0  0  0  0  0  0  0  0  0  0  0  0  # atno 8009 bound_to 7997
  156.2959  140.2289  156.4581 H   0  0  0  0  0  0  0  0  0  0  0  0  # atno 8010 bound_to 7997
  140.4471  143.2495  151.8542 H   0  0  0  0  0  0  0  0  0  0  0  0  # atno 10167 bound_to 10162
  156.2312  130.4173  149.8872 H   0  0  0  0  0  0  0  0  0  0  0  0  # atno 10718 bound_to 10713
  153.7483  135.3214  155.3316 H   0  0  0  0  0  0  0  0  0  0  0  0  # atno 10763 bound_to 10752
  154.8272  135.4561  154.0957 H   0  0  0  0  0  0  0  0  0  0  0  0  # atno 10764 bound_to 10752
  153.2152  135.6941  153.8148 H   0  0  0  0  0  0  0  0  0  0  0  0  # atno 10765 bound_to 10752
  139.8823  134.8736  156.3580 H   0  0  0  0  0  0  0  0  0  0  0  0  # atno 11005 bound_to 11000
  144.8745  139.4990  143.6752 LP  0  0  0  0  0  0  0  0  0  0  0  0  # atno 17320 bound_to 7965
  146.2983  139.7346  142.9110 LP  0  0  0  0  0  0  0  0  0  0  0  0  # atno 17321 bound_to 7965
  139.4793  144.5162  151.8864 LP  0  0  0  0  0  0  0  0  0  0  0  0  # atno 17342 bound_to 10162
  140.4250  144.2192  150.5887 LP  0  0  0  0  0  0  0  0  0  0  0  0  # atno 17343 bound_to 10162
  156.6485  130.8734  151.3527 LP  0  0  0  0  0  0  0  0  0  0  0  0  # atno 17370 bound_to 10713
  157.7134  130.9467  150.1168 LP  0  0  0  0  0  0  0  0  0  0  0  0  # atno 17371 bound_to 10713
  140.9549  133.7426  156.0322 LP  0  0  0  0  0  0  0  0  0  0  0  0  # atno 17394 bound_to 11000
  140.8061  134.3453  157.5425 LP  0  0  0  0  0  0  0  0  0  0  0  0  # atno 17395 bound_to 11000

$$$$
