AV-unprocessed.smi:639|AV-procd|sdf|3149|dock4
  -GOLD-   22720 0 73D 1   1.00000     0.00000
 Structure written by MMmdl.
 23 24  0  0  0  0  0  0  0  0  2 V2000
  152.3666  145.0092  159.8832 C   0  0  0  0  0  0  0  0  0  0  0  0
  152.1019  143.8952  158.9984 N   0  0  0  0  0  0  0  0  0  0  0  0
  152.6046  142.6137  159.0543 C   0  0  0  0  0  0  0  0  0  0  0  0
  152.0699  141.9087  158.0096 C   0  0  0  0  0  0  0  0  0  0  0  0
  152.2826  140.4578  157.6136 C   0  0  2  0  0  0  0  0  0  0  0  0
  153.3026  139.7719  158.5434 C   0  0  0  0  0  0  0  0  0  0  0  0
  152.7003  140.3060  156.2268 N   0  5  0  0  0  0  0  0  0  0  0  0
  151.7422  139.6254  155.5538 C   0  0  0  0  0  0  0  0  0  0  0  0
  151.7335  139.3162  154.3645 O   0  0  0  0  0  0  0  0  0  0  0  0
  150.7361  139.2971  156.3698 N   0  0  0  0  0  0  0  0  0  0  0  0
  150.9509  139.7201  157.6118 C   0  0  0  0  0  0  0  0  0  0  0  0
  150.2230  139.5522  158.5901 O   0  0  0  0  0  0  0  0  0  0  0  0
  151.2363  142.8737  157.3696 C   0  0  0  0  0  0  0  0  0  0  0  0
  151.2591  144.0578  157.9594 N   0  0  0  0  0  0  0  0  0  0  0  0
  153.0753  144.7118  160.6567 H   0  0  0  0  0  0  0  0  0  0  0  0
  151.4392  145.3316  160.3575 H   0  0  0  0  0  0  0  0  0  0  0  0
  152.7884  145.8395  159.3162 H   0  0  0  0  0  0  0  0  0  0  0  0
  153.2954  142.3081  159.8264 H   0  0  0  0  0  0  0  0  0  0  0  0
  152.9806  139.8057  159.5848 H   0  0  0  0  0  0  0  0  0  0  0  0
  154.2757  140.2613  158.4864 H   0  0  0  0  0  0  0  0  0  0  0  0
  153.4477  138.7230  158.2804 H   0  0  0  0  0  0  0  0  0  0  0  0
  149.9202  138.7791  156.0802 H   0  0  0  0  0  0  0  0  0  0  0  0
  150.6182  142.7453  156.4933 H   0  0  0  0  0  0  0  0  0  0  0  0
  1  2  1  0  0  0  0
  1 15  1  0  0  0  0
  1 16  1  0  0  0  0
  1 17  1  0  0  0  0
  2 14  1  0  0  0  0
  2  3  1  0  0  0  0
  3  4  2  0  0  0  0
  3 18  1  0  0  0  0
  4  5  1  0  0  0  0
  4 13  1  0  0  0  0
  5 11  1  0  0  0  0
  5  6  1  0  0  0  0
  5  7  1  0  0  0  0
  6 19  1  0  0  0  0
  6 20  1  0  0  0  0
  6 21  1  0  0  0  0
  7  8  1  0  0  0  0
  8  9  2  0  0  0  0
  8 10  1  0  0  0  0
 10 11  1  0  0  0  0
 10 22  1  0  0  0  0
 11 12  2  0  0  0  0
 13 14  2  0  0  0  0
 13 23  1  0  0  0  0
M  CHG  1   7  -1
M  END
> <s_m_source_file>
AV-unprocessed.smi

> <i_m_source_file_index>
639

> <i_lp_mmshare_version>
43012

> <i_f3d_flags>
0

> <s_epik_input>
W0NIM11uMVtjSF1jKFtjSF1uMSlbQ0BAXTIoW0NIM10pW05IXUMoPU8pW05IXUMyPU8=

> <s_epik_cmdline>
J2VwaWtfcHl0aG9uJywgJy1waCcsICc3LjAnLCAnLXRuJywgJzgnLCAnLW1hJywgJzIwMCcsICctbWV0YWxfYmluZGluZycsICctaW1hZScsICc8aW5maWxlLm1hZT4nLCAnLW9tYWUnLCAnPG91dGZpbGUubWFlPic=

> <r_lp_tautomer_probability>
1

> <r_epik_Ionization_Penalty>
4.83415

> <r_epik_Ionization_Penalty_Charging>
4.8337

> <r_epik_Ionization_Penalty_Neutral>
0.000449923

> <r_epik_State_Penalty>
4.85653

> <r_epik_Charging_Adjusted_Penalty>
9.69023

> <i_epik_Tot_Q>
-1

> <i_epik_Tot_abs_Q>
1

> <r_epik_Metal_State_Penalty>
1.31841

> <b_epik_Metal_Only>
1

> <s_lp_Force_Field>
OPLS_2005

> <r_lp_Energy>
8.78459

> <b_lp_Chiralities_Consistent>
1

> <s_lp_Variant>
AV-unprocessed.smi:639-6

> <Gold.Version>
5.8.1

> <Gold.Id.Protein>
6NUR|6NUR_protein|mol2

> <Gold.PLP.Fitness>
35.0286

> <Gold.PLP.PLP>
-23.8083

> <Gold.PLP.part.hbond>
-2.2241

> <Gold.PLP.part.metal>
0.0000

> <Gold.PLP.part.buried>
-0.7091

> <Gold.PLP.part.nonpolar>
-20.1295

> <Gold.PLP.part.repulsive>
0.3085

> <Gold.PLP.ligand.clash>
0.0000

> <Gold.PLP.ligand.torsion>
0.0427

> <Gold.PLP.Chemscore.Hbond>
3.0000

> <Gold.PLP.Chemscore.CHOScore>
0.7493

> <Gold.PLP.Chemscore.Metal>
0.0000

> <Gold.Chemscore.Hbonds>
donor molecule, donor type, donor heavy atom, donor atom, acceptor molecule, acceptor atom, score
      P1  H  7989  7998       L1     9  1.00
      P1  H  7997  8010       L1     7  2.00
      L1  C    13    23       P1  8028  0.37

> <Gold.PLP.Chemscore.Internal.Correction>
0.0578

> <Gold.Rescore>
     Score         DG    S(hbond)    S(metal)    S(lipo)     H(rot)  DE(clash)    DE(int)     intcor
     13.33     -13.37       1.32        0.00      51.78       1.00       0.01       0.03       ----

> <Gold.Chemscore.Fitness>
13.3301

> <Gold.Chemscore.DG>
-13.3732

> <Gold.Chemscore.ZeroCoef>
-5.4800

> <Gold.Chemscore.Hbond>
1.3159

> <Gold.Chemscore.Metal>
0.0000

> <Gold.Chemscore.Lipo>
51.7786

> <Gold.Chemscore.Internal_Hbond>
0.0000

> <Gold.Chemscore.DEClash>
0.0131

> <Gold.Chemscore.DEInternal>
0.0301

> <Gold.Chemscore.Rot>
1.0000

> <Gold.Chemscore.Internal.Correction>
   9.000000E+99

> <Gold.Chemscore.Hbonds>
donor molecule, donor type, donor heavy atom, donor atom, acceptor molecule, acceptor atom, score
      P1  H  7989  7998       L1     9  0.48
      P1  H  7997  8010       L1     7  0.62

> <Gold.Chemscore.Hbond.Weighted>
-4.3951

> <Gold.Chemscore.Metal.Weighted>
-0.0000

> <Gold.Chemscore.Lipo.Weighted>
-6.0581

> <Gold.Chemscore.Internal_Hbond.Weighted>
0.0000

> <Gold.Chemscore.DEClash.Weighted>
0.0131

> <Gold.Chemscore.DEInternal.Weighted>
0.0301

> <Gold.Chemscore.Rot.Weighted>
2.5600

> <Gold.Chemscore.Internal.Correction.Weighted>
   9.000000E+99

> <Gold.Protein.RotatedTorsions>
[ 6907 6896 6895 6894 ] final   30.10 input  -60.11 | X-H torsion
[ 7974 7965 7964 7962 ] final  117.53 input  175.53 | X-H torsion
[ 8008 7997 7996 7995 ] final   86.58 input   59.86 | X-H torsion
[ 10167 10162 10161 10158 ] final   59.43 input  -65.29 | X-H torsion
[ 10718 10713 10712 10709 ] final -159.55 input   66.30 | X-H torsion
[ 10763 10752 10751 10750 ] final   99.21 input  -60.55 | X-H torsion
[ 11005 11000 10999 10996 ] final   61.27 input  -57.11 | X-H torsion

> <Gold.Protein.ActiveResidues>
 VAL166  LYS551  ARG553  GLY616  TRP617  ASP618  TYR619  PRO620  LYS621  CYS622 
 ASP623  PHE694  ASN695  SER759  ASP760  ASP761  ALA762  ILE779  LEU786  VAL792 
 PHE793  MET794  SER795  GLU796  ALA797  LYS798  CYS799  TRP800  GLU811  SER814 

> <Gold.Protein.RotatedAtoms>
  152.0411  134.9711  160.0573 H   0  0  0  0  0  0  0  0  0  0  0  0  # atno 6907 bound_to 6896
  152.1149  133.4316  159.4656 H   0  0  0  0  0  0  0  0  0  0  0  0  # atno 6908 bound_to 6896
  150.6845  134.2523  159.4559 H   0  0  0  0  0  0  0  0  0  0  0  0  # atno 6909 bound_to 6896
  145.1662  139.3127  143.4491 H   0  0  0  0  0  0  0  0  0  0  0  0  # atno 7974 bound_to 7965
  155.9645  140.3390  155.6520 H   0  0  0  0  0  0  0  0  0  0  0  0  # atno 8008 bound_to 7997
  155.6754  140.0731  157.2522 H   0  0  0  0  0  0  0  0  0  0  0  0  # atno 8009 bound_to 7997
  154.4151  140.1684  156.1912 H   0  0  0  0  0  0  0  0  0  0  0  0  # atno 8010 bound_to 7997
  140.1765  144.4224  150.6635 H   0  0  0  0  0  0  0  0  0  0  0  0  # atno 10167 bound_to 10162
  156.5697  130.8683  151.2834 H   0  0  0  0  0  0  0  0  0  0  0  0  # atno 10718 bound_to 10713
  153.2986  135.4121  155.1232 H   0  0  0  0  0  0  0  0  0  0  0  0  # atno 10763 bound_to 10752
  154.8542  135.3536  154.5883 H   0  0  0  0  0  0  0  0  0  0  0  0  # atno 10764 bound_to 10752
  153.6308  135.7061  153.5334 H   0  0  0  0  0  0  0  0  0  0  0  0  # atno 10765 bound_to 10752
  140.0173  134.6206  155.9691 H   0  0  0  0  0  0  0  0  0  0  0  0  # atno 11005 bound_to 11000
  146.3475  140.1791  142.8589 LP  0  0  0  0  0  0  0  0  0  0  0  0  # atno 17320 bound_to 7965
  145.0280  140.8847  143.5127 LP  0  0  0  0  0  0  0  0  0  0  0  0  # atno 17321 bound_to 7965
  140.6548  143.2234  151.5995 LP  0  0  0  0  0  0  0  0  0  0  0  0  # atno 17342 bound_to 10162
  139.5315  144.2904  152.1157 LP  0  0  0  0  0  0  0  0  0  0  0  0  # atno 17343 bound_to 10162
  157.7351  130.9756  150.2062 LP  0  0  0  0  0  0  0  0  0  0  0  0  # atno 17370 bound_to 10713
  156.2725  130.3723  149.8017 LP  0  0  0  0  0  0  0  0  0  0  0  0  # atno 17371 bound_to 10713
  141.1751  133.6540  156.4797 LP  0  0  0  0  0  0  0  0  0  0  0  0  # atno 17394 bound_to 11000
  140.4449  134.6981  157.5010 LP  0  0  0  0  0  0  0  0  0  0  0  0  # atno 17395 bound_to 11000

$$$$
