AV-unprocessed.smi:2353|AV-procd|sdf|9381|dock6
  -GOLD-   2272013 13D 1   1.00000     0.00000
 Structure written by MMmdl.
 45 47  0  0  0  0  0  0  0  0  1 V2000
  146.4017  132.7730  159.3853 C   0  0  0  0  0  0  0  0  0  0  0  0
  146.5613  134.0240  160.2247 C   0  0  0  0  0  0  0  0  0  0  0  0
  145.8708  134.1543  161.4449 C   0  0  0  0  0  0  0  0  0  0  0  0
  146.0227  135.3200  162.2165 C   0  0  0  0  0  0  0  0  0  0  0  0
  146.8643  136.3617  161.7742 C   0  0  0  0  0  0  0  0  0  0  0  0
  147.0174  137.6109  162.6212 C   0  0  0  0  0  0  0  0  0  0  0  0
  147.5642  136.2442  160.5508 C   0  0  0  0  0  0  0  0  0  0  0  0
  148.3721  137.2988  160.1778 O   0  0  0  0  0  0  0  0  0  0  0  0
  149.1473  137.1770  158.9925 C   0  0  0  0  0  0  0  0  0  0  0  0
  150.4433  137.9879  159.1650 C   0  0  1  0  0  0  0  0  0  0  0  0
  151.2372  137.2956  160.1088 O   0  0  0  0  0  0  0  0  0  0  0  0
  151.2412  138.0893  157.8458 C   0  0  0  0  0  0  0  0  0  0  0  0
  151.0166  139.3718  157.1670 N   0  0  0  0  0  0  0  0  0  0  0  0
  151.4133  140.4769  157.9016 N   0  0  0  0  0  0  0  0  0  0  0  0
  151.2865  141.6712  157.4195 C   0  0  0  0  0  0  0  0  0  0  0  0
  151.6799  142.8701  158.1320 N   0  0  0  0  0  0  0  0  0  0  0  0
  151.5962  144.1073  157.4962 C   0  0  0  0  0  0  0  0  0  0  0  0
  152.0338  145.0347  158.4160 C   0  0  0  0  0  0  0  0  0  0  0  0
  152.3848  144.3966  159.6054 N   0  0  0  0  0  0  0  0  0  0  0  0
  152.1488  143.1129  159.3647 C   0  0  0  0  0  0  0  0  0  0  0  0
  150.7229  141.8643  156.0943 C   0  0  0  0  0  0  0  0  0  0  0  0
  150.3398  140.7806  155.3854 C   0  0  0  0  0  0  0  0  0  0  0  0
  150.4780  139.4240  155.9128 C   0  0  0  0  0  0  0  0  0  0  0  0
  150.1449  138.4210  155.2826 O   0  0  0  0  0  0  0  0  0  0  0  0
  147.4019  135.0645  159.7800 C   0  0  0  0  0  0  0  0  0  0  0  0
  145.9173  131.9756  159.9498 H   0  0  0  0  0  0  0  0  0  0  0  0
  147.3749  132.4093  159.0544 H   0  0  0  0  0  0  0  0  0  0  0  0
  145.7963  132.9863  158.5043 H   0  0  0  0  0  0  0  0  0  0  0  0
  145.2228  133.3636  161.7936 H   0  0  0  0  0  0  0  0  0  0  0  0
  145.4900  135.4108  163.1517 H   0  0  0  0  0  0  0  0  0  0  0  0
  148.0420  137.6964  162.9836 H   0  0  0  0  0  0  0  0  0  0  0  0
  146.3519  137.5924  163.4849 H   0  0  0  0  0  0  0  0  0  0  0  0
  146.7842  138.4996  162.0342 H   0  0  0  0  0  0  0  0  0  0  0  0
  149.3703  136.1343  158.7581 H   0  0  0  0  0  0  0  0  0  0  0  0
  148.5655  137.5880  158.1658 H   0  0  0  0  0  0  0  0  0  0  0  0
  150.2026  138.9855  159.5359 H   0  0  0  0  0  0  0  0  0  0  0  0
  152.1274  137.2697  159.7918 H   0  0  0  0  0  0  0  0  0  0  0  0
  152.3025  137.8921  158.0104 H   0  0  0  0  0  0  0  0  0  0  0  0
  150.9172  137.2993  157.1658 H   0  0  0  0  0  0  0  0  0  0  0  0
  151.2489  144.2409  156.4816 H   0  0  0  0  0  0  0  0  0  0  0  0
  152.1232  146.1062  158.3141 H   0  0  0  0  0  0  0  0  0  0  0  0
  152.3240  142.3458  160.1043 H   0  0  0  0  0  0  0  0  0  0  0  0
  150.6082  142.8524  155.6758 H   0  0  0  0  0  0  0  0  0  0  0  0
  149.9203  140.9177  154.3995 H   0  0  0  0  0  0  0  0  0  0  0  0
  147.9146  134.9339  158.8393 H   0  0  0  0  0  0  0  0  0  0  0  0
  1  2  1  0  0  0  0
  1 26  1  0  0  0  0
  1 27  1  0  0  0  0
  1 28  1  0  0  0  0
  2 25  1  0  0  0  0
  2  3  2  0  0  0  0
  3  4  1  0  0  0  0
  3 29  1  0  0  0  0
  4  5  2  0  0  0  0
  4 30  1  0  0  0  0
  5  6  1  0  0  0  0
  5  7  1  0  0  0  0
  6 31  1  0  0  0  0
  6 32  1  0  0  0  0
  6 33  1  0  0  0  0
  7  8  1  0  0  0  0
  7 25  2  0  0  0  0
  8  9  1  0  0  0  0
  9 10  1  0  0  0  0
  9 34  1  0  0  0  0
  9 35  1  0  0  0  0
 10 11  1  0  0  0  0
 10 12  1  0  0  0  0
 10 36  1  0  0  0  0
 11 37  1  0  0  0  0
 12 13  1  0  0  0  0
 12 38  1  0  0  0  0
 12 39  1  0  0  0  0
 13 23  1  0  0  0  0
 13 14  1  0  0  0  0
 14 15  2  0  0  0  0
 15 16  1  0  0  0  0
 15 21  1  0  0  0  0
 16 20  1  0  0  0  0
 16 17  1  0  0  0  0
 17 18  2  0  0  0  0
 17 40  1  0  0  0  0
 18 19  1  0  0  0  0
 18 41  1  0  0  0  0
 19 20  2  0  0  0  0
 20 42  1  0  0  0  0
 21 22  2  0  0  0  0
 21 43  1  0  0  0  0
 22 23  1  0  0  0  0
 22 44  1  0  0  0  0
 23 24  2  0  0  0  0
 25 45  1  0  0  0  0
M  END
> <s_m_source_file>
AV-unprocessed.smi

> <i_m_source_file_index>
2353

> <i_lp_mmshare_version>
43012

> <i_f3d_flags>
0

> <s_epik_input>
W0NIM11jMVtjSF1bY0hdYyhbQ0gzXSljKFtjSF0xKU9bQ0gyXVtDQEhdKFtPSF0pW0NIMl1uMm5jKFtjSF1bY0hdYzI9TyktbjNbY0hdW2NIXW5bY0hdMw==

> <s_epik_cmdline>
J2VwaWtfcHl0aG9uJywgJy1waCcsICc3LjAnLCAnLXRuJywgJzgnLCAnLW1hJywgJzIwMCcsICctbWV0YWxfYmluZGluZycsICctaW1hZScsICc8aW5maWxlLm1hZT4nLCAnLW9tYWUnLCAnPG91dGZpbGUubWFlPic=

> <r_lp_tautomer_probability>
1

> <r_epik_Ionization_Penalty>
0.03707

> <r_epik_Ionization_Penalty_Charging>
0.0370699

> <r_epik_Ionization_Penalty_Neutral>
1.17174e-07

> <r_epik_State_Penalty>
0.0310055

> <r_epik_Charging_Adjusted_Penalty>
0.0680754

> <i_epik_Tot_Q>
0

> <i_epik_Tot_abs_Q>
0

> <r_epik_Metal_State_Penalty>
0.0291724

> <b_epik_Metal_Only>
0

> <s_lp_Force_Field>
OPLS_2005

> <r_lp_Energy>
35.5456

> <b_lp_Chiralities_Consistent>
1

> <s_lp_Variant>
AV-unprocessed.smi:2353-2

> <Gold.Version>
5.8.1

> <Gold.Id.Protein>
6NUR|6NUR_protein|mol2

> <Gold.PLP.Fitness>
56.6188

> <Gold.PLP.PLP>
-50.1137

> <Gold.PLP.part.hbond>
-2.0000

> <Gold.PLP.part.metal>
0.0000

> <Gold.PLP.part.buried>
-3.6717

> <Gold.PLP.part.nonpolar>
-44.9146

> <Gold.PLP.part.repulsive>
0.0876

> <Gold.PLP.ligand.clash>
0.0000

> <Gold.PLP.ligand.torsion>
0.7988

> <Gold.PLP.Chemscore.Hbond>
1.6560

> <Gold.PLP.Chemscore.CHOScore>
1.0000

> <Gold.PLP.Chemscore.Metal>
0.0000

> <Gold.Chemscore.Hbonds>
donor molecule, donor type, donor heavy atom, donor atom, acceptor molecule, acceptor atom, score
      P1  H  6896  6909       L1    11  0.11
      P1  H  6931  6943       L1     8  0.54
      P1  H  6934  6947       L1     8  0.31
      L1  C    17    40       P1  8028  0.98

> <Gold.PLP.Chemscore.Internal.Correction>
0.1347

> <Gold.Rescore>
     Score         DG    S(hbond)    S(metal)    S(lipo)     H(rot)  DE(clash)    DE(int)     intcor
     12.05     -12.92       0.95        0.00      93.36       2.60       0.19       0.68       ----

> <Gold.Chemscore.Fitness>
12.0494

> <Gold.Chemscore.DG>
-12.9241

> <Gold.Chemscore.ZeroCoef>
-5.4800

> <Gold.Chemscore.Hbond>
0.9501

> <Gold.Chemscore.Metal>
0.0000

> <Gold.Chemscore.Lipo>
93.3592

> <Gold.Chemscore.Internal_Hbond>
0.0000

> <Gold.Chemscore.DEClash>
0.1920

> <Gold.Chemscore.DEInternal>
0.6826

> <Gold.Chemscore.Rot>
2.5986

> <Gold.Chemscore.Internal.Correction>
   9.000000E+99

> <Gold.Chemscore.Hbonds>
donor molecule, donor type, donor heavy atom, donor atom, acceptor molecule, acceptor atom, score
      P1  H  6931  6943       L1     8  0.35
      P1  H  6934  6947       L1     8  0.11

> <Gold.Chemscore.Hbond.Weighted>
-3.1734

> <Gold.Chemscore.Metal.Weighted>
-0.0000

> <Gold.Chemscore.Lipo.Weighted>
-10.9230

> <Gold.Chemscore.Internal_Hbond.Weighted>
0.0000

> <Gold.Chemscore.DEClash.Weighted>
0.1920

> <Gold.Chemscore.DEInternal.Weighted>
0.6826

> <Gold.Chemscore.Rot.Weighted>
6.6524

> <Gold.Chemscore.Internal.Correction.Weighted>
   9.000000E+99

> <Gold.Protein.RotatedTorsions>
[ 6907 6896 6895 6894 ] final  110.84 input  -60.11 | X-H torsion
[ 7974 7965 7964 7962 ] final  -56.16 input  175.53 | X-H torsion
[ 8008 7997 7996 7995 ] final -101.60 input   59.86 | X-H torsion
[ 10167 10162 10161 10158 ] final -170.52 input  -65.29 | X-H torsion
[ 10718 10713 10712 10709 ] final -129.05 input   66.30 | X-H torsion
[ 10763 10752 10751 10750 ] final  105.51 input  -60.55 | X-H torsion
[ 11005 11000 10999 10996 ] final  105.28 input  -57.11 | X-H torsion

> <Gold.Protein.ActiveResidues>
 VAL166  LYS551  ARG553  GLY616  TRP617  ASP618  TYR619  PRO620  LYS621  CYS622 
 ASP623  PHE694  ASN695  SER759  ASP760  ASP761  ALA762  ILE779  LEU786  VAL792 
 PHE793  MET794  SER795  GLU796  ALA797  LYS798  CYS799  TRP800  GLU811  SER814 

> <Gold.Protein.RotatedAtoms>
  152.5000  133.8743  159.7313 H   0  0  0  0  0  0  0  0  0  0  0  0  # atno 6907 bound_to 6896
  150.9221  133.6858  159.2836 H   0  0  0  0  0  0  0  0  0  0  0  0  # atno 6908 bound_to 6896
  151.4232  135.1005  159.9672 H   0  0  0  0  0  0  0  0  0  0  0  0  # atno 6909 bound_to 6896
  145.8658  140.8252  142.9913 H   0  0  0  0  0  0  0  0  0  0  0  0  # atno 7974 bound_to 7965
  154.8449  140.0433  157.1566 H   0  0  0  0  0  0  0  0  0  0  0  0  # atno 8008 bound_to 7997
  154.9006  140.2999  155.5299 H   0  0  0  0  0  0  0  0  0  0  0  0  # atno 8009 bound_to 7997
  156.2994  140.2376  156.4034 H   0  0  0  0  0  0  0  0  0  0  0  0  # atno 8010 bound_to 7997
  139.5857  144.1324  152.1572 H   0  0  0  0  0  0  0  0  0  0  0  0  # atno 10167 bound_to 10162
  156.2009  130.6857  151.0538 H   0  0  0  0  0  0  0  0  0  0  0  0  # atno 10718 bound_to 10713
  153.3803  135.3907  155.1852 H   0  0  0  0  0  0  0  0  0  0  0  0  # atno 10763 bound_to 10752
  154.8707  135.3724  154.4865 H   0  0  0  0  0  0  0  0  0  0  0  0  # atno 10764 bound_to 10752
  153.5341  135.7085  153.5730 H   0  0  0  0  0  0  0  0  0  0  0  0  # atno 10765 bound_to 10752
  139.8800  134.9330  156.5489 H   0  0  0  0  0  0  0  0  0  0  0  0  # atno 11005 bound_to 11000
  144.6726  140.1164  143.7452 LP  0  0  0  0  0  0  0  0  0  0  0  0  # atno 17320 bound_to 7965
  145.9195  139.2536  143.1390 LP  0  0  0  0  0  0  0  0  0  0  0  0  # atno 17321 bound_to 7965
  140.0887  144.5639  150.7070 LP  0  0  0  0  0  0  0  0  0  0  0  0  # atno 17342 bound_to 10162
  140.7129  143.2520  151.4525 LP  0  0  0  0  0  0  0  0  0  0  0  0  # atno 17343 bound_to 10162
  157.6985  131.0785  150.6894 LP  0  0  0  0  0  0  0  0  0  0  0  0  # atno 17370 bound_to 10713
  156.6951  130.4607  149.5588 LP  0  0  0  0  0  0  0  0  0  0  0  0  # atno 17371 bound_to 10713
  140.8255  133.8320  155.8935 LP  0  0  0  0  0  0  0  0  0  0  0  0  # atno 17394 bound_to 11000
  140.9378  134.1939  157.4819 LP  0  0  0  0  0  0  0  0  0  0  0  0  # atno 17395 bound_to 11000

$$$$
