AV-unprocessed.smi:2540|AV-procd|sdf|9988|dock9
  -GOLD-   2272014 33D 1   1.00000     0.00000
 Structure written by MMmdl.
 27 28  0  0  0  0  0  0  0  0  1 V2000
  150.4313  139.1326  154.4405 C   0  0  0  0  0  0  0  0  0  0  0  0
  150.5786  140.5167  154.7019 O   0  0  0  0  0  0  0  0  0  0  0  0
  151.3169  140.7734  155.8858 C   0  0  0  0  0  0  0  0  0  0  0  0
  150.5392  141.7513  156.7776 C   0  0  0  0  0  0  0  0  0  0  0  0
  151.3681  142.2989  157.8425 N   0  0  0  0  0  0  0  0  0  0  0  0
  151.5214  143.5942  158.2058 C   0  0  0  0  0  0  0  0  0  0  0  0
  150.8370  144.5901  157.5246 N   0  0  0  0  0  0  0  0  0  0  0  0
  152.3454  143.8354  159.2223 N   0  0  0  0  0  0  0  0  0  0  0  0
  152.7807  142.5652  159.5525 C   0  0  0  0  0  0  0  0  0  0  0  0
  153.6806  142.1357  160.5541 C   0  0  0  0  0  0  0  0  0  0  0  0
  153.9826  140.7661  160.7031 C   0  0  0  0  0  0  0  0  0  0  0  0
  153.3899  139.8076  159.8556 C   0  0  0  0  0  0  0  0  0  0  0  0
  152.4884  140.2128  158.8525 C   0  0  0  0  0  0  0  0  0  0  0  0
  152.1896  141.5809  158.7072 C   0  0  0  0  0  0  0  0  0  0  0  0
  149.8561  138.9929  153.5255 H   0  0  0  0  0  0  0  0  0  0  0  0
  149.9018  138.6311  155.2517 H   0  0  0  0  0  0  0  0  0  0  0  0
  151.4012  138.6523  154.3047 H   0  0  0  0  0  0  0  0  0  0  0  0
  151.4987  139.8409  156.4226 H   0  0  0  0  0  0  0  0  0  0  0  0
  152.2890  141.1996  155.6337 H   0  0  0  0  0  0  0  0  0  0  0  0
  150.1316  142.5686  156.1820 H   0  0  0  0  0  0  0  0  0  0  0  0
  149.6840  141.2459  157.2272 H   0  0  0  0  0  0  0  0  0  0  0  0
  150.2201  144.3709  156.7556 H   0  0  0  0  0  0  0  0  0  0  0  0
  150.9338  145.5640  157.7730 H   0  0  0  0  0  0  0  0  0  0  0  0
  154.1410  142.8620  161.2073 H   0  0  0  0  0  0  0  0  0  0  0  0
  154.6737  140.4497  161.4704 H   0  0  0  0  0  0  0  0  0  0  0  0
  153.6281  138.7609  159.9753 H   0  0  0  0  0  0  0  0  0  0  0  0
  152.0354  139.4817  158.1996 H   0  0  0  0  0  0  0  0  0  0  0  0
  1  2  1  0  0  0  0
  1 15  1  0  0  0  0
  1 16  1  0  0  0  0
  1 17  1  0  0  0  0
  2  3  1  0  0  0  0
  3  4  1  0  0  0  0
  3 18  1  0  0  0  0
  3 19  1  0  0  0  0
  4  5  1  0  0  0  0
  4 20  1  0  0  0  0
  4 21  1  0  0  0  0
  5 14  1  0  0  0  0
  5  6  1  0  0  0  0
  6  7  1  0  0  0  0
  6  8  2  0  0  0  0
  7 22  1  0  0  0  0
  7 23  1  0  0  0  0
  8  9  1  0  0  0  0
  9 14  2  0  0  0  0
  9 10  1  0  0  0  0
 10 11  2  0  0  0  0
 10 24  1  0  0  0  0
 11 12  1  0  0  0  0
 11 25  1  0  0  0  0
 12 13  2  0  0  0  0
 12 26  1  0  0  0  0
 13 14  1  0  0  0  0
 13 27  1  0  0  0  0
M  END
> <s_m_source_file>
AV-unprocessed.smi

> <i_m_source_file_index>
2540

> <i_lp_mmshare_version>
43012

> <i_f3d_flags>
0

> <s_epik_input>
W0NIM11PW0NIMl1bQ0gyXW4oYyhuMSlbTkgyXSljKGMxMilbY0hdW2NIXVtjSF1bY0hdMg==

> <s_epik_cmdline>
J2VwaWtfcHl0aG9uJywgJy1waCcsICc3LjAnLCAnLXRuJywgJzgnLCAnLW1hJywgJzIwMCcsICctbWV0YWxfYmluZGluZycsICctaW1hZScsICc8aW5maWxlLm1hZT4nLCAnLW9tYWUnLCAnPG91dGZpbGUubWFlPic=

> <r_epik_Ionization_Penalty>
0.602407

> <r_epik_Ionization_Penalty_Charging>
0

> <r_epik_Ionization_Penalty_Neutral>
0.602407

> <r_epik_State_Penalty>
0.616889

> <r_epik_Charging_Adjusted_Penalty>
0.616889

> <i_epik_Tot_Q>
0

> <i_epik_Tot_abs_Q>
0

> <r_epik_Metal_State_Penalty>
0.00108478

> <b_epik_Metal_Only>
0

> <s_lp_Force_Field>
OPLS_2005

> <r_lp_Energy>
6.7443

> <b_lp_Chiralities_Consistent>
1

> <s_lp_Variant>
AV-unprocessed.smi:2540-2

> <Gold.Version>
5.8.1

> <Gold.Id.Protein>
6NUR|6NUR_protein|mol2

> <Gold.PLP.Fitness>
38.8608

> <Gold.PLP.PLP>
-33.8865

> <Gold.PLP.part.hbond>
-2.3225

> <Gold.PLP.part.metal>
0.0000

> <Gold.PLP.part.buried>
-3.5268

> <Gold.PLP.part.nonpolar>
-27.0002

> <Gold.PLP.part.repulsive>
0.1792

> <Gold.PLP.ligand.clash>
0.0000

> <Gold.PLP.ligand.torsion>
0.5133

> <Gold.PLP.Chemscore.Hbond>
2.0000

> <Gold.PLP.Chemscore.CHOScore>
0.0000

> <Gold.PLP.Chemscore.Metal>
0.0000

> <Gold.Chemscore.Hbonds>
donor molecule, donor type, donor heavy atom, donor atom, acceptor molecule, acceptor atom, score
      L1  H     7    22       P1  8028  1.00
      P1  H  7989  7998       L1     2  0.95

> <Gold.PLP.Chemscore.Internal.Correction>
0.0009

> <Gold.Rescore>
     Score         DG    S(hbond)    S(metal)    S(lipo)     H(rot)  DE(clash)    DE(int)     intcor
     15.38     -16.21       1.74        0.00      73.89       1.46       0.14       0.69       ----

> <Gold.Chemscore.Fitness>
15.3836

> <Gold.Chemscore.DG>
-16.2096

> <Gold.Chemscore.ZeroCoef>
-5.4800

> <Gold.Chemscore.Hbond>
1.7432

> <Gold.Chemscore.Metal>
0.0000

> <Gold.Chemscore.Lipo>
73.8850

> <Gold.Chemscore.Internal_Hbond>
0.0000

> <Gold.Chemscore.DEClash>
0.1394

> <Gold.Chemscore.DEInternal>
0.6867

> <Gold.Chemscore.Rot>
1.4598

> <Gold.Chemscore.Internal.Correction>
   9.000000E+99

> <Gold.Chemscore.Hbonds>
donor molecule, donor type, donor heavy atom, donor atom, acceptor molecule, acceptor atom, score
      L1  H     7    22       P1  8028  0.91
      P1  H  7989  7998       L1     2  0.09

> <Gold.Chemscore.Hbond.Weighted>
-5.8222

> <Gold.Chemscore.Metal.Weighted>
-0.0000

> <Gold.Chemscore.Lipo.Weighted>
-8.6445

> <Gold.Chemscore.Internal_Hbond.Weighted>
0.0000

> <Gold.Chemscore.DEClash.Weighted>
0.1394

> <Gold.Chemscore.DEInternal.Weighted>
0.6867

> <Gold.Chemscore.Rot.Weighted>
3.7371

> <Gold.Chemscore.Internal.Correction.Weighted>
   9.000000E+99

> <Gold.Protein.RotatedTorsions>
[ 6907 6896 6895 6894 ] final   19.55 input  -60.11 | X-H torsion
[ 7974 7965 7964 7962 ] final    3.01 input  175.53 | X-H torsion
[ 8008 7997 7996 7995 ] final  103.11 input   59.86 | X-H torsion
[ 10167 10162 10161 10158 ] final   25.35 input  -65.29 | X-H torsion
[ 10718 10713 10712 10709 ] final   71.49 input   66.30 | X-H torsion
[ 10763 10752 10751 10750 ] final  127.94 input  -60.55 | X-H torsion
[ 11005 11000 10999 10996 ] final  116.87 input  -57.11 | X-H torsion

> <Gold.Protein.ActiveResidues>
 VAL166  LYS551  ARG553  GLY616  TRP617  ASP618  TYR619  PRO620  LYS621  CYS622 
 ASP623  PHE694  ASN695  SER759  ASP760  ASP761  ALA762  ILE779  LEU786  VAL792 
 PHE793  MET794  SER795  GLU796  ALA797  LYS798  CYS799  TRP800  GLU811  SER814 

> <Gold.Protein.RotatedAtoms>
  151.8826  135.0447  160.0489 H   0  0  0  0  0  0  0  0  0  0  0  0  # atno 6907 bound_to 6896
  152.2500  133.5202  159.5328 H   0  0  0  0  0  0  0  0  0  0  0  0  # atno 6908 bound_to 6896
  150.7081  134.0889  159.3967 H   0  0  0  0  0  0  0  0  0  0  0  0  # atno 6909 bound_to 6896
  146.2445  140.0749  142.8360 H   0  0  0  0  0  0  0  0  0  0  0  0  # atno 7974 bound_to 7965
  156.1454  140.3170  155.8562 H   0  0  0  0  0  0  0  0  0  0  0  0  # atno 8008 bound_to 7997
  155.4074  140.0503  157.3050 H   0  0  0  0  0  0  0  0  0  0  0  0  # atno 8009 bound_to 7997
  154.5012  140.2130  155.9356 H   0  0  0  0  0  0  0  0  0  0  0  0  # atno 8010 bound_to 7997
  140.5113  144.0155  150.6374 H   0  0  0  0  0  0  0  0  0  0  0  0  # atno 10167 bound_to 10162
  157.6454  130.9531  150.0796 H   0  0  0  0  0  0  0  0  0  0  0  0  # atno 10718 bound_to 10713
  153.7175  135.3258  155.3259 H   0  0  0  0  0  0  0  0  0  0  0  0  # atno 10763 bound_to 10752
  154.8366  135.4491  154.1251 H   0  0  0  0  0  0  0  0  0  0  0  0  # atno 10764 bound_to 10752
  153.2362  135.6966  153.7913 H   0  0  0  0  0  0  0  0  0  0  0  0  # atno 10765 bound_to 10752
  139.9055  134.9603  156.7264 H   0  0  0  0  0  0  0  0  0  0  0  0  # atno 11005 bound_to 11000
  145.0783  140.9203  143.4840 LP  0  0  0  0  0  0  0  0  0  0  0  0  # atno 17320 bound_to 7965
  145.0897  139.2899  143.5741 LP  0  0  0  0  0  0  0  0  0  0  0  0  # atno 17321 bound_to 7965
  140.3479  143.2980  152.0519 LP  0  0  0  0  0  0  0  0  0  0  0  0  # atno 17342 bound_to 10162
  139.4897  144.6395  151.6906 LP  0  0  0  0  0  0  0  0  0  0  0  0  # atno 17343 bound_to 10162
  156.1776  130.3649  149.9079 LP  0  0  0  0  0  0  0  0  0  0  0  0  # atno 17370 bound_to 10713
  156.7039  130.8944  151.3602 LP  0  0  0  0  0  0  0  0  0  0  0  0  # atno 17371 bound_to 10713
  140.6960  133.9348  155.7995 LP  0  0  0  0  0  0  0  0  0  0  0  0  # atno 17394 bound_to 11000
  141.0407  134.0625  157.3905 LP  0  0  0  0  0  0  0  0  0  0  0  0  # atno 17395 bound_to 11000

$$$$
