AV-unprocessed.smi:419|AV-procd|sdf|2531|dock8
  -GOLD-   2262022493D 1   1.00000     0.00000
 Structure written by MMmdl.
 44 46  0  0  0  0  0  0  0  0  1 V2000
  143.4268  145.0518  154.5559 C   0  0  0  0  0  0  0  0  0  0  0  0
  143.7468  144.0514  155.5119 O   0  0  0  0  0  0  0  0  0  0  0  0
  144.9410  143.3778  155.3706 C   0  0  0  0  0  0  0  0  0  0  0  0
  145.6855  142.8390  156.4486 C   0  0  0  0  0  0  0  0  0  0  0  0
  146.8996  142.1664  156.2101 C   0  0  0  0  0  0  0  0  0  0  0  0
  147.3993  142.0133  154.9019 C   0  0  0  0  0  0  0  0  0  0  0  0
  148.5956  141.3427  154.7614 O   0  0  0  0  0  0  0  0  0  0  0  0
  148.9182  140.3356  155.7116 C   0  0  0  0  0  0  0  0  0  0  0  0
  150.4128  140.4354  156.0607 C   0  0  1  0  0  0  0  0  0  0  0  0
  151.1394  140.0004  154.9281 O   0  0  0  0  0  0  0  0  0  0  0  0
  150.8336  141.8894  156.3587 C   0  0  0  0  0  0  0  0  0  0  0  0
  151.6101  141.9882  157.5939 N   0  0  0  0  0  0  0  0  0  0  0  0
  152.4689  141.0618  158.0818 C   0  0  0  0  0  0  0  0  0  0  0  0
  152.7391  139.9816  157.5567 O   0  0  0  0  0  0  0  0  0  0  0  0
  152.9793  141.5333  159.2433 N   0  0  0  0  0  0  0  0  0  0  0  0
  153.9447  140.8693  160.1103 C   0  0  0  0  0  0  0  0  0  0  0  0
  152.4434  142.8019  159.4992 C   0  0  0  0  0  0  0  0  0  0  0  0
  152.6632  143.6996  160.5579 C   0  0  0  0  0  0  0  0  0  0  0  0
  151.9585  144.9257  160.5219 C   0  0  0  0  0  0  0  0  0  0  0  0
  151.0712  145.2229  159.4549 C   0  0  0  0  0  0  0  0  0  0  0  0
  150.8696  144.3007  158.4013 C   0  0  0  0  0  0  0  0  0  0  0  0
  151.5810  143.0894  158.4622 C   0  0  0  0  0  0  0  0  0  0  0  0
  146.6541  142.5510  153.8240 C   0  0  0  0  0  0  0  0  0  0  0  0
  145.4406  143.2244  154.0624 C   0  0  0  0  0  0  0  0  0  0  0  0
  142.4570  145.4855  154.7998 H   0  0  0  0  0  0  0  0  0  0  0  0
  143.3574  144.6347  153.5504 H   0  0  0  0  0  0  0  0  0  0  0  0
  144.1604  145.8589  154.5636 H   0  0  0  0  0  0  0  0  0  0  0  0
  145.3470  142.9283  157.4695 H   0  0  0  0  0  0  0  0  0  0  0  0
  147.4552  141.7624  157.0437 H   0  0  0  0  0  0  0  0  0  0  0  0
  148.3021  140.4162  156.6094 H   0  0  0  0  0  0  0  0  0  0  0  0
  148.7192  139.3640  155.2564 H   0  0  0  0  0  0  0  0  0  0  0  0
  150.6313  139.7944  156.9161 H   0  0  0  0  0  0  0  0  0  0  0  0
  151.9868  139.6956  155.2135 H   0  0  0  0  0  0  0  0  0  0  0  0
  151.3765  142.3249  155.5191 H   0  0  0  0  0  0  0  0  0  0  0  0
  149.9452  142.5108  156.4823 H   0  0  0  0  0  0  0  0  0  0  0  0
  153.6216  140.9227  161.1502 H   0  0  0  0  0  0  0  0  0  0  0  0
  154.9177  141.3542  160.0287 H   0  0  0  0  0  0  0  0  0  0  0  0
  154.0665  139.8158  159.8544 H   0  0  0  0  0  0  0  0  0  0  0  0
  153.3415  143.4666  161.3654 H   0  0  0  0  0  0  0  0  0  0  0  0
  152.0988  145.6447  161.3156 H   0  0  0  0  0  0  0  0  0  0  0  0
  150.5443  146.1658  159.4458 H   0  0  0  0  0  0  0  0  0  0  0  0
  150.1988  144.5244  157.5854 H   0  0  0  0  0  0  0  0  0  0  0  0
  146.9912  142.4629  152.8025 H   0  0  0  0  0  0  0  0  0  0  0  0
  144.8868  143.6298  153.2284 H   0  0  0  0  0  0  0  0  0  0  0  0
  1  2  1  0  0  0  0
  1 25  1  0  0  0  0
  1 26  1  0  0  0  0
  1 27  1  0  0  0  0
  2  3  1  0  0  0  0
  3 24  1  0  0  0  0
  3  4  2  0  0  0  0
  4  5  1  0  0  0  0
  4 28  1  0  0  0  0
  5  6  2  0  0  0  0
  5 29  1  0  0  0  0
  6  7  1  0  0  0  0
  6 23  1  0  0  0  0
  7  8  1  0  0  0  0
  8  9  1  0  0  0  0
  8 30  1  0  0  0  0
  8 31  1  0  0  0  0
  9 10  1  0  0  0  0
  9 11  1  0  0  0  0
  9 32  1  0  0  0  0
 10 33  1  0  0  0  0
 11 12  1  0  0  0  0
 11 34  1  0  0  0  0
 11 35  1  0  0  0  0
 12 22  1  0  0  0  0
 12 13  1  0  0  0  0
 13 14  2  0  0  0  0
 13 15  1  0  0  0  0
 15 16  1  0  0  0  0
 15 17  1  0  0  0  0
 16 36  1  0  0  0  0
 16 37  1  0  0  0  0
 16 38  1  0  0  0  0
 17 22  2  0  0  0  0
 17 18  1  0  0  0  0
 18 19  2  0  0  0  0
 18 39  1  0  0  0  0
 19 20  1  0  0  0  0
 19 40  1  0  0  0  0
 20 21  2  0  0  0  0
 20 41  1  0  0  0  0
 21 22  1  0  0  0  0
 21 42  1  0  0  0  0
 23 24  2  0  0  0  0
 23 43  1  0  0  0  0
 24 44  1  0  0  0  0
M  END
> <s_m_source_file>
AV-unprocessed.smi

> <i_m_source_file_index>
419

> <i_lp_mmshare_version>
43012

> <i_f3d_flags>
0

> <s_epik_input>
W0NIM11PYzFbY0hdW2NIXWMoW2NIXVtjSF0xKU9bQ0gyXVtDQEhdKFtPSF0pW0NIMl1uKGMoPU8pbjJbQ0gzXSljKGMyMylbY0hdW2NIXVtjSF1bY0hdMw==

> <s_epik_cmdline>
J2VwaWtfcHl0aG9uJywgJy1waCcsICc3LjAnLCAnLXRuJywgJzgnLCAnLW1hJywgJzIwMCcsICctbWV0YWxfYmluZGluZycsICctaW1hZScsICc8aW5maWxlLm1hZT4nLCAnLW9tYWUnLCAnPG91dGZpbGUubWFlPic=

> <r_lp_tautomer_probability>
1

> <r_epik_Ionization_Penalty>
2.40131e-06

> <r_epik_Ionization_Penalty_Charging>
2.01037e-09

> <r_epik_Ionization_Penalty_Neutral>
2.3993e-06

> <r_epik_State_Penalty>
-0

> <r_epik_Charging_Adjusted_Penalty>
2.01037e-09

> <i_epik_Tot_Q>
0

> <i_epik_Tot_abs_Q>
0

> <r_epik_Metal_State_Penalty>
-0

> <b_epik_Metal_Only>
0

> <s_lp_Force_Field>
OPLS_2005

> <r_lp_Energy>
50.9462

> <b_lp_Chiralities_Consistent>
1

> <s_lp_Variant>
AV-unprocessed.smi:419-2

> <Gold.Version>
5.8.1

> <Gold.Id.Protein>
6NUR|6NUR_protein|mol2

> <Gold.PLP.Fitness>
54.3484

> <Gold.PLP.PLP>
-52.5724

> <Gold.PLP.part.hbond>
-2.0000

> <Gold.PLP.part.metal>
0.0000

> <Gold.PLP.part.buried>
-7.9162

> <Gold.PLP.part.nonpolar>
-43.1470

> <Gold.PLP.part.repulsive>
0.2399

> <Gold.PLP.ligand.clash>
0.0000

> <Gold.PLP.ligand.torsion>
2.1626

> <Gold.PLP.Chemscore.Hbond>
2.0000

> <Gold.PLP.Chemscore.CHOScore>
0.0000

> <Gold.PLP.Chemscore.Metal>
0.0000

> <Gold.Chemscore.Hbonds>
donor molecule, donor type, donor heavy atom, donor atom, acceptor molecule, acceptor atom, score
      P1  H  7989  7998       L1    10  0.95
      P1  H  7997  8010       L1    14  1.00

> <Gold.PLP.Chemscore.Internal.Correction>
0.1011

> <Gold.Rescore>
     Score         DG    S(hbond)    S(metal)    S(lipo)     H(rot)  DE(clash)    DE(int)     intcor
     15.95     -20.26       1.66        0.00     131.21       2.40       0.09       4.22       ----

> <Gold.Chemscore.Fitness>
15.9540

> <Gold.Chemscore.DG>
-20.2604

> <Gold.Chemscore.ZeroCoef>
-5.4800

> <Gold.Chemscore.Hbond>
1.6650

> <Gold.Chemscore.Metal>
0.0000

> <Gold.Chemscore.Lipo>
131.2059

> <Gold.Chemscore.Internal_Hbond>
0.0000

> <Gold.Chemscore.DEClash>
0.0862

> <Gold.Chemscore.DEInternal>
4.2202

> <Gold.Chemscore.Rot>
2.3952

> <Gold.Chemscore.Internal.Correction>
   9.000000E+99

> <Gold.Chemscore.Hbonds>
donor molecule, donor type, donor heavy atom, donor atom, acceptor molecule, acceptor atom, score
      P1  H  7989  7998       L1    10  0.22
      P1  H  7997  8010       L1    14  0.63

> <Gold.Chemscore.Hbond.Weighted>
-5.5610

> <Gold.Chemscore.Metal.Weighted>
-0.0000

> <Gold.Chemscore.Lipo.Weighted>
-15.3511

> <Gold.Chemscore.Internal_Hbond.Weighted>
0.0000

> <Gold.Chemscore.DEClash.Weighted>
0.0862

> <Gold.Chemscore.DEInternal.Weighted>
4.2202

> <Gold.Chemscore.Rot.Weighted>
6.1316

> <Gold.Chemscore.Internal.Correction.Weighted>
   9.000000E+99

> <Gold.Protein.RotatedTorsions>
[ 6907 6896 6895 6894 ] final -159.13 input  -60.11 | X-H torsion
[ 7974 7965 7964 7962 ] final  161.21 input  175.53 | X-H torsion
[ 8008 7997 7996 7995 ] final   42.16 input   59.86 | X-H torsion
[ 10167 10162 10161 10158 ] final -163.29 input  -65.29 | X-H torsion
[ 10718 10713 10712 10709 ] final   92.78 input   66.30 | X-H torsion
[ 10763 10752 10751 10750 ] final -177.03 input  -60.55 | X-H torsion
[ 11005 11000 10999 10996 ] final  -24.46 input  -57.11 | X-H torsion

> <Gold.Protein.ActiveResidues>
 VAL166  LYS551  ARG553  GLY616  TRP617  ASP618  TYR619  PRO620  LYS621  CYS622 
 ASP623  PHE694  ASN695  SER759  ASP760  ASP761  ALA762  ILE779  LEU786  VAL792 
 PHE793  MET794  SER795  GLU796  ALA797  LYS798  CYS799  TRP800  GLU811  SER814 

> <Gold.Protein.RotatedAtoms>
  151.3289  133.4009  159.2660 H   0  0  0  0  0  0  0  0  0  0  0  0  # atno 6907 bound_to 6896
  150.9972  134.9294  159.7944 H   0  0  0  0  0  0  0  0  0  0  0  0  # atno 6908 bound_to 6896
  152.5265  134.3254  159.9216 H   0  0  0  0  0  0  0  0  0  0  0  0  # atno 6909 bound_to 6896
  144.7697  139.7866  143.6302 H   0  0  0  0  0  0  0  0  0  0  0  0  # atno 7974 bound_to 7965
  155.2816  140.3373  155.4258 H   0  0  0  0  0  0  0  0  0  0  0  0  # atno 8008 bound_to 7997
  156.2087  140.1761  156.7784 H   0  0  0  0  0  0  0  0  0  0  0  0  # atno 8009 bound_to 7997
  154.5656  140.0679  156.8871 H   0  0  0  0  0  0  0  0  0  0  0  0  # atno 8010 bound_to 7997
  139.6331  144.0401  152.2032 H   0  0  0  0  0  0  0  0  0  0  0  0  # atno 10167 bound_to 10162
  157.6957  131.0455  150.3934 H   0  0  0  0  0  0  0  0  0  0  0  0  # atno 10718 bound_to 10713
  154.5652  135.2823  155.0881 H   0  0  0  0  0  0  0  0  0  0  0  0  # atno 10763 bound_to 10752
  154.2275  135.6380  153.5168 H   0  0  0  0  0  0  0  0  0  0  0  0  # atno 10764 bound_to 10752
  153.0041  135.5529  154.6258 H   0  0  0  0  0  0  0  0  0  0  0  0  # atno 10765 bound_to 10752
  140.8847  133.7629  156.0346 H   0  0  0  0  0  0  0  0  0  0  0  0  # atno 11005 bound_to 11000
  146.1834  139.5037  142.9852 LP  0  0  0  0  0  0  0  0  0  0  0  0  # atno 17320 bound_to 7965
  145.6361  141.0294  143.1837 LP  0  0  0  0  0  0  0  0  0  0  0  0  # atno 17321 bound_to 7965
  140.0071  144.6251  150.7679 LP  0  0  0  0  0  0  0  0  0  0  0  0  # atno 17342 bound_to 10162
  140.7450  143.2869  151.3437 LP  0  0  0  0  0  0  0  0  0  0  0  0  # atno 17343 bound_to 10162
  156.4335  130.3977  149.6745 LP  0  0  0  0  0  0  0  0  0  0  0  0  # atno 17370 bound_to 10713
  156.3954  130.7648  151.2652 LP  0  0  0  0  0  0  0  0  0  0  0  0  # atno 17371 bound_to 10713
  140.8419  134.3057  157.5310 LP  0  0  0  0  0  0  0  0  0  0  0  0  # atno 17394 bound_to 11000
  139.8723  134.9420  156.3814 LP  0  0  0  0  0  0  0  0  0  0  0  0  # atno 17395 bound_to 11000

$$$$
