AV-unprocessed.smi:1317|AV-procd|sdf|5456|dock7
  -GOLD-   22720 5 23D 1   1.00000     0.00000
 Structure written by MMmdl.
 31 32  0  0  0  0  0  0  0  0  1 V2000
  152.6543  143.7867  162.0063 C   0  0  0  0  0  0  0  0  0  0  0  0
  152.0210  143.7885  160.6572 C   0  0  0  0  0  0  0  0  0  0  0  0
  151.6027  142.6834  160.0348 N   0  0  0  0  0  0  0  0  0  0  0  0
  151.0505  142.9496  158.7778 C   0  0  0  0  0  0  0  0  0  0  0  0
  150.5333  141.8257  157.9319 C   0  0  0  0  0  0  0  0  0  0  0  0
  150.9520  141.9674  156.4591 C   0  0  0  0  0  0  0  0  0  0  0  0
  149.7954  142.0360  155.5734 N   0  0  0  0  0  0  0  0  0  0  0  0
  149.4774  141.1230  154.6439 C   0  0  0  0  0  0  0  0  0  0  0  0
  150.1474  140.1106  154.4358 O   0  0  0  0  0  0  0  0  0  0  0  0
  148.2075  141.4075  153.8308 C   0  0  0  0  0  0  0  0  0  0  0  0
  147.3711  142.5891  154.3516 C   0  0  0  0  0  0  0  0  0  0  0  0
  146.1148  141.7375  154.1472 C   0  0  0  0  0  0  0  0  0  0  0  0
  147.0112  140.4958  154.1579 C   0  0  0  0  0  0  0  0  0  0  0  0
  151.0562  144.2843  158.4565 C   0  0  0  0  0  0  0  0  0  0  0  0
  151.7572  145.2549  159.7218 S   0  0  0  0  0  0  0  0  0  0  0  0
  152.4993  142.8279  162.5022 H   0  0  0  0  0  0  0  0  0  0  0  0
  152.2202  144.5730  162.6239 H   0  0  0  0  0  0  0  0  0  0  0  0
  153.7258  143.9643  161.9137 H   0  0  0  0  0  0  0  0  0  0  0  0
  150.8895  140.8732  158.3268 H   0  0  0  0  0  0  0  0  0  0  0  0
  149.4451  141.7862  157.9962 H   0  0  0  0  0  0  0  0  0  0  0  0
  151.5289  142.8830  156.3256 H   0  0  0  0  0  0  0  0  0  0  0  0
  151.6038  141.1435  156.1632 H   0  0  0  0  0  0  0  0  0  0  0  0
  149.1900  142.8376  155.6760 H   0  0  0  0  0  0  0  0  0  0  0  0
  148.3851  141.4761  152.7557 H   0  0  0  0  0  0  0  0  0  0  0  0
  147.5470  142.8356  155.4003 H   0  0  0  0  0  0  0  0  0  0  0  0
  147.4109  143.4789  153.7228 H   0  0  0  0  0  0  0  0  0  0  0  0
  145.3945  141.7857  154.9642 H   0  0  0  0  0  0  0  0  0  0  0  0
  145.6425  141.9084  153.1786 H   0  0  0  0  0  0  0  0  0  0  0  0
  146.7728  139.7717  153.3784 H   0  0  0  0  0  0  0  0  0  0  0  0
  147.0593  140.0208  155.1392 H   0  0  0  0  0  0  0  0  0  0  0  0
  150.6930  144.7537  157.5542 H   0  0  0  0  0  0  0  0  0  0  0  0
  1  2  1  0  0  0  0
  1 16  1  0  0  0  0
  1 17  1  0  0  0  0
  1 18  1  0  0  0  0
  2 15  1  0  0  0  0
  2  3  2  0  0  0  0
  3  4  1  0  0  0  0
  4  5  1  0  0  0  0
  4 14  2  0  0  0  0
  5  6  1  0  0  0  0
  5 19  1  0  0  0  0
  5 20  1  0  0  0  0
  6  7  1  0  0  0  0
  6 21  1  0  0  0  0
  6 22  1  0  0  0  0
  7  8  1  0  0  0  0
  7 23  1  0  0  0  0
  8  9  2  0  0  0  0
  8 10  1  0  0  0  0
 10 13  1  0  0  0  0
 10 11  1  0  0  0  0
 10 24  1  0  0  0  0
 11 12  1  0  0  0  0
 11 25  1  0  0  0  0
 11 26  1  0  0  0  0
 12 13  1  0  0  0  0
 12 27  1  0  0  0  0
 12 28  1  0  0  0  0
 13 29  1  0  0  0  0
 13 30  1  0  0  0  0
 14 15  1  0  0  0  0
 14 31  1  0  0  0  0
M  END
> <s_m_source_file>
AV-unprocessed.smi

> <i_m_source_file_index>
1317

> <i_lp_mmshare_version>
43012

> <i_f3d_flags>
0

> <s_epik_input>
W0NIM11jMW5jKFtjSF1zMSlbQ0gyXVtDSDJdW05IXUMoPU8pW0NIXTJbQ0gyXVtDSDJdW0NIMl0y

> <s_epik_cmdline>
J2VwaWtfcHl0aG9uJywgJy1waCcsICc3LjAnLCAnLXRuJywgJzgnLCAnLW1hJywgJzIwMCcsICctbWV0YWxfYmluZGluZycsICctaW1hZScsICc8aW5maWxlLm1hZT4nLCAnLW9tYWUnLCAnPG91dGZpbGUubWFlPic=

> <r_epik_Ionization_Penalty>
0.00109666

> <r_epik_Ionization_Penalty_Charging>
0

> <r_epik_Ionization_Penalty_Neutral>
0.00109666

> <r_epik_State_Penalty>
0.000719322

> <r_epik_Charging_Adjusted_Penalty>
0.000719322

> <i_epik_Tot_Q>
0

> <i_epik_Tot_abs_Q>
0

> <r_epik_Metal_State_Penalty>
-0

> <b_epik_Metal_Only>
0

> <s_lp_Force_Field>
OPLS_2005

> <r_lp_Energy>
5.86325

> <b_lp_Chiralities_Consistent>
1

> <s_lp_Variant>
AV-unprocessed.smi:1317-1

> <Gold.Version>
5.8.1

> <Gold.Id.Protein>
6NUR|6NUR_protein|mol2

> <Gold.PLP.Fitness>
44.0825

> <Gold.PLP.PLP>
-36.3085

> <Gold.PLP.part.hbond>
-2.6870

> <Gold.PLP.part.metal>
0.0000

> <Gold.PLP.part.buried>
-1.1858

> <Gold.PLP.part.nonpolar>
-31.6184

> <Gold.PLP.part.repulsive>
0.2858

> <Gold.PLP.ligand.clash>
0.0000

> <Gold.PLP.ligand.torsion>
0.8048

> <Gold.PLP.Chemscore.Hbond>
2.0000

> <Gold.PLP.Chemscore.CHOScore>
0.9937

> <Gold.PLP.Chemscore.Metal>
0.0000

> <Gold.Chemscore.Hbonds>
donor molecule, donor type, donor heavy atom, donor atom, acceptor molecule, acceptor atom, score
      L1  H     7    23       P1  8028  1.00
      P1  H  7989  7998       L1     9  1.00
      L1  C    14    31       P1  8028  0.88

> <Gold.PLP.Chemscore.Internal.Correction>
0.4024

> <Gold.Rescore>
     Score         DG    S(hbond)    S(metal)    S(lipo)     H(rot)  DE(clash)    DE(int)     intcor
     16.35     -18.05       1.58        0.00      93.70       1.44       0.97       0.74       ----

> <Gold.Chemscore.Fitness>
16.3486

> <Gold.Chemscore.DG>
-18.0533

> <Gold.Chemscore.ZeroCoef>
-5.4800

> <Gold.Chemscore.Hbond>
1.5845

> <Gold.Chemscore.Metal>
0.0000

> <Gold.Chemscore.Lipo>
93.7012

> <Gold.Chemscore.Internal_Hbond>
0.0000

> <Gold.Chemscore.DEClash>
0.9658

> <Gold.Chemscore.DEInternal>
0.7388

> <Gold.Chemscore.Rot>
1.4383

> <Gold.Chemscore.Internal.Correction>
   9.000000E+99

> <Gold.Chemscore.Hbonds>
donor molecule, donor type, donor heavy atom, donor atom, acceptor molecule, acceptor atom, score
      L1  H     7    23       P1  8028  0.96
      P1  H  7989  7998       L1     9  0.25

> <Gold.Chemscore.Hbond.Weighted>
-5.2923

> <Gold.Chemscore.Metal.Weighted>
-0.0000

> <Gold.Chemscore.Lipo.Weighted>
-10.9630

> <Gold.Chemscore.Internal_Hbond.Weighted>
0.0000

> <Gold.Chemscore.DEClash.Weighted>
0.9658

> <Gold.Chemscore.DEInternal.Weighted>
0.7388

> <Gold.Chemscore.Rot.Weighted>
3.6820

> <Gold.Chemscore.Internal.Correction.Weighted>
   9.000000E+99

> <Gold.Protein.RotatedTorsions>
[ 6907 6896 6895 6894 ] final  -58.28 input  -60.11 | X-H torsion
[ 7974 7965 7964 7962 ] final   97.47 input  175.53 | X-H torsion
[ 8008 7997 7996 7995 ] final  -24.09 input   59.86 | X-H torsion
[ 10167 10162 10161 10158 ] final  -41.19 input  -65.29 | X-H torsion
[ 10718 10713 10712 10709 ] final   -2.31 input   66.30 | X-H torsion
[ 10763 10752 10751 10750 ] final  111.91 input  -60.55 | X-H torsion
[ 11005 11000 10999 10996 ] final  -65.74 input  -57.11 | X-H torsion

> <Gold.Protein.ActiveResidues>
 VAL166  LYS551  ARG553  GLY616  TRP617  ASP618  TYR619  PRO620  LYS621  CYS622 
 ASP623  PHE694  ASN695  SER759  ASP760  ASP761  ALA762  ILE779  LEU786  VAL792 
 PHE793  MET794  SER795  GLU796  ALA797  LYS798  CYS799  TRP800  GLU811  SER814 

> <Gold.Protein.RotatedAtoms>
  150.8019  134.7119  159.6608 H   0  0  0  0  0  0  0  0  0  0  0  0  # atno 6907 bound_to 6896
  152.4137  134.6077  160.0027 H   0  0  0  0  0  0  0  0  0  0  0  0  # atno 6908 bound_to 6896
  151.6312  133.3295  159.3145 H   0  0  0  0  0  0  0  0  0  0  0  0  # atno 6909 bound_to 6896
  145.4251  139.2317  143.3175 H   0  0  0  0  0  0  0  0  0  0  0  0  # atno 7974 bound_to 7965
  154.4549  140.1963  156.0410 H   0  0  0  0  0  0  0  0  0  0  0  0  # atno 8008 bound_to 7997
  156.0725  140.3282  155.7565 H   0  0  0  0  0  0  0  0  0  0  0  0  # atno 8009 bound_to 7997
  155.5241  140.0572  157.2892 H   0  0  0  0  0  0  0  0  0  0  0  0  # atno 8010 bound_to 7997
  140.7010  143.3109  151.3031 H   0  0  0  0  0  0  0  0  0  0  0  0  # atno 10167 bound_to 10162
  156.7927  130.5367  149.5733 H   0  0  0  0  0  0  0  0  0  0  0  0  # atno 10718 bound_to 10713
  153.4702  135.3702  155.2386 H   0  0  0  0  0  0  0  0  0  0  0  0  # atno 10763 bound_to 10752
  154.8757  135.3929  154.3821 H   0  0  0  0  0  0  0  0  0  0  0  0  # atno 10764 bound_to 10752
  153.4408  135.7084  153.6235 H   0  0  0  0  0  0  0  0  0  0  0  0  # atno 10765 bound_to 10752
  141.1463  133.6687  156.6032 H   0  0  0  0  0  0  0  0  0  0  0  0  # atno 11005 bound_to 11000
  146.2636  140.4981  142.8843 LP  0  0  0  0  0  0  0  0  0  0  0  0  # atno 17320 bound_to 7965
  144.8219  140.6565  143.6347 LP  0  0  0  0  0  0  0  0  0  0  0  0  # atno 17321 bound_to 7965
  139.6531  144.0325  152.2640 LP  0  0  0  0  0  0  0  0  0  0  0  0  # atno 17342 bound_to 10162
  139.9868  144.6389  150.7850 LP  0  0  0  0  0  0  0  0  0  0  0  0  # atno 17343 bound_to 10162
  156.1149  130.6068  151.0105 LP  0  0  0  0  0  0  0  0  0  0  0  0  # atno 17370 bound_to 10713
  157.6593  131.0884  150.7876 LP  0  0  0  0  0  0  0  0  0  0  0  0  # atno 17371 bound_to 10713
  140.3672  134.7636  157.4574 LP  0  0  0  0  0  0  0  0  0  0  0  0  # atno 17394 bound_to 11000
  140.0738  134.5825  155.8613 LP  0  0  0  0  0  0  0  0  0  0  0  0  # atno 17395 bound_to 11000

$$$$
