AV-unprocessed.smi:2822|AV-procd|sdf|10860|dock8
  -GOLD-   2272015303D 1   1.00000     0.00000
 Structure written by MMmdl.
 41 43  0  0  0  0  0  0  0  0  3 V2000
  151.9420  125.1661  149.4738 Cl  0  0  0  0  0  0  0  0  0  0  0  0
  150.3033  124.6207  149.3937 C   0  0  0  0  0  0  0  0  0  0  0  0
  149.9480  123.6446  148.4400 C   0  0  0  0  0  0  0  0  0  0  0  0
  148.6733  123.2075  148.3635 N   0  3  0  0  0  0  0  0  0  0  0  0
  147.6951  123.6675  149.1717 C   0  0  0  0  0  0  0  0  0  0  0  0
  147.9881  124.6443  150.1452 C   0  0  0  0  0  0  0  0  0  0  0  0
  149.3125  125.1351  150.2664 C   0  0  0  0  0  0  0  0  0  0  0  0
  149.6718  126.1031  151.2173 N   0  0  0  0  0  0  0  0  0  0  0  0
  148.7735  126.4668  152.3030 C   0  0  0  0  0  0  0  0  0  0  0  0
  148.1554  127.8552  152.0822 C   0  0  2  0  0  0  0  0  0  0  0  0
  148.8602  128.9340  152.9253 C   0  0  0  0  0  0  0  0  0  0  0  0
  148.2004  130.2487  152.7481 N   0  3  2  0  0  0  0  0  0  0  0  0
  148.8730  131.3286  153.5141 C   0  0  0  0  0  0  0  0  0  0  0  0
  148.2227  132.6933  153.2346 C   0  0  0  0  0  0  0  0  0  0  0  0
  146.7195  132.6547  153.5380 C   0  0  0  0  0  0  0  0  0  0  0  0
  146.0544  131.5136  152.7567 C   0  0  0  0  0  0  0  0  0  0  0  0
  146.7438  130.1642  153.0413 C   0  0  1  0  0  0  0  0  0  0  0  0
  146.1068  129.0249  152.2216 C   0  0  0  0  0  0  0  0  0  0  0  0
  146.7887  127.8036  152.4774 O   0  0  0  0  0  0  0  0  0  0  0  0
  150.6421  123.2030  147.7399 H   0  0  0  0  0  0  0  0  0  0  0  0
  146.7137  123.2431  149.0173 H   0  0  0  0  0  0  0  0  0  0  0  0
  147.1920  124.9978  150.7832 H   0  0  0  0  0  0  0  0  0  0  0  0
  150.4711  126.6944  151.0355 H   0  0  0  0  0  0  0  0  0  0  0  0
  147.9882  125.7161  152.4008 H   0  0  0  0  0  0  0  0  0  0  0  0
  149.3407  126.4691  153.2346 H   0  0  0  0  0  0  0  0  0  0  0  0
  148.2268  128.1160  151.0240 H   0  0  0  0  0  0  0  0  0  0  0  0
  148.8447  128.6574  153.9808 H   0  0  0  0  0  0  0  0  0  0  0  0
  149.9074  129.0112  152.6298 H   0  0  0  0  0  0  0  0  0  0  0  0
  148.8263  131.1039  154.5808 H   0  0  0  0  0  0  0  0  0  0  0  0
  149.9289  131.3657  153.2436 H   0  0  0  0  0  0  0  0  0  0  0  0
  148.7042  133.4660  153.8348 H   0  0  0  0  0  0  0  0  0  0  0  0
  148.3799  132.9685  152.1908 H   0  0  0  0  0  0  0  0  0  0  0  0
  146.5623  132.5109  154.6079 H   0  0  0  0  0  0  0  0  0  0  0  0
  146.2576  133.6081  153.2797 H   0  0  0  0  0  0  0  0  0  0  0  0
  144.9971  131.4570  153.0188 H   0  0  0  0  0  0  0  0  0  0  0  0
  146.0960  131.7329  151.6888 H   0  0  0  0  0  0  0  0  0  0  0  0
  146.6262  129.9294  154.1009 H   0  0  0  0  0  0  0  0  0  0  0  0
  145.0592  128.9029  152.4984 H   0  0  0  0  0  0  0  0  0  0  0  0
  146.1282  129.2476  151.1532 H   0  0  0  0  0  0  0  0  0  0  0  0
  148.2864  130.4886  151.7706 H   0  0  0  0  0  0  0  0  0  0  0  0
  148.4399  122.5003  147.6659 H   0  0  0  0  0  0  0  0  0  0  0  0
  1  2  1  0  0  0  0
  2  7  1  0  0  0  0
  2  3  2  0  0  0  0
  3  4  1  0  0  0  0
  3 20  1  0  0  0  0
  4  5  2  0  0  0  0
  4 41  1  0  0  0  0
  5  6  1  0  0  0  0
  5 21  1  0  0  0  0
  6  7  2  0  0  0  0
  6 22  1  0  0  0  0
  7  8  1  0  0  0  0
  8  9  1  0  0  0  0
  8 23  1  0  0  0  0
  9 10  1  0  0  0  0
  9 24  1  0  0  0  0
  9 25  1  0  0  0  0
 10 19  1  0  0  0  0
 10 11  1  0  0  0  0
 10 26  1  0  0  0  0
 11 12  1  0  0  0  0
 11 27  1  0  0  0  0
 11 28  1  0  0  0  0
 12 17  1  0  0  0  0
 12 13  1  0  0  0  0
 12 40  1  0  0  0  0
 13 14  1  0  0  0  0
 13 29  1  0  0  0  0
 13 30  1  0  0  0  0
 14 15  1  0  0  0  0
 14 31  1  0  0  0  0
 14 32  1  0  0  0  0
 15 16  1  0  0  0  0
 15 33  1  0  0  0  0
 15 34  1  0  0  0  0
 16 17  1  0  0  0  0
 16 35  1  0  0  0  0
 16 36  1  0  0  0  0
 17 18  1  0  0  0  0
 17 37  1  0  0  0  0
 18 19  1  0  0  0  0
 18 38  1  0  0  0  0
 18 39  1  0  0  0  0
M  CHG  1   4   1
M  CHG  1  12   1
M  END
> <s_m_source_file>
AV-unprocessed.smi

> <i_m_source_file_index>
2822

> <i_lp_mmshare_version>
43012

> <i_f3d_flags>
0

> <s_epik_input>
Q2xjMVtjSF1uW2NIXVtjSF1jMVtOSF1bQ0gyXVtDQEhdKFtDSDJdMilPW0NIMl1bQ0BASF0oTjIzKVtDSDJdW0NIMl1bQ0gyXVtDSDJdMw==

> <s_epik_cmdline>
J2VwaWtfcHl0aG9uJywgJy1waCcsICc3LjAnLCAnLXRuJywgJzgnLCAnLW1hJywgJzIwMCcsICctbWV0YWxfYmluZGluZycsICctaW1hZScsICc8aW5maWxlLm1hZT4nLCAnLW9tYWUnLCAnPG91dGZpbGUubWFlPic=

> <r_lp_tautomer_probability>
1

> <r_epik_Ionization_Penalty>
0.254999

> <r_epik_Ionization_Penalty_Charging>
0.254956

> <r_epik_Ionization_Penalty_Neutral>
4.33524e-05

> <r_epik_State_Penalty>
0.230978

> <r_epik_Charging_Adjusted_Penalty>
0.485934

> <i_epik_Tot_Q>
2

> <i_epik_Tot_abs_Q>
2

> <r_epik_Metal_State_Penalty>
3.47007

> <b_epik_Metal_Only>
0

> <s_lp_Force_Field>
OPLS_2005

> <r_lp_Energy>
36.8988

> <b_lp_Chiralities_Consistent>
1

> <s_lp_Variant>
AV-unprocessed.smi:2822-1

> <Gold.Version>
5.8.1

> <Gold.Id.Protein>
6NUR|6NUR_protein|mol2

> <Gold.PLP.Fitness>
39.9462

> <Gold.PLP.PLP>
-35.3782

> <Gold.PLP.part.hbond>
-2.0000

> <Gold.PLP.part.metal>
0.0000

> <Gold.PLP.part.buried>
-5.1362

> <Gold.PLP.part.nonpolar>
-27.8644

> <Gold.PLP.part.repulsive>
0.2009

> <Gold.PLP.ligand.clash>
0.0000

> <Gold.PLP.ligand.torsion>
0.6804

> <Gold.PLP.Chemscore.Hbond>
1.9760

> <Gold.PLP.Chemscore.CHOScore>
0.0000

> <Gold.PLP.Chemscore.Metal>
0.0000

> <Gold.Chemscore.Hbonds>
donor molecule, donor type, donor heavy atom, donor atom, acceptor molecule, acceptor atom, score
      L1  H     8    23       P1 10737  1.00
      L1  H    12    40       P1 10747  1.00

> <Gold.PLP.Chemscore.Internal.Correction>
0.0008

> <Gold.Rescore>
     Score         DG    S(hbond)    S(metal)    S(lipo)     H(rot)  DE(clash)    DE(int)     intcor
     18.93     -19.68       1.96        0.00      91.52       1.20       0.01       0.74       ----

> <Gold.Chemscore.Fitness>
18.9308

> <Gold.Chemscore.DG>
-19.6831

> <Gold.Chemscore.ZeroCoef>
-5.4800

> <Gold.Chemscore.Hbond>
1.9633

> <Gold.Chemscore.Metal>
0.0000

> <Gold.Chemscore.Lipo>
91.5195

> <Gold.Chemscore.Internal_Hbond>
0.0000

> <Gold.Chemscore.DEClash>
0.0089

> <Gold.Chemscore.DEInternal>
0.7434

> <Gold.Chemscore.Rot>
1.1962

> <Gold.Chemscore.Internal.Correction>
   9.000000E+99

> <Gold.Chemscore.Hbonds>
donor molecule, donor type, donor heavy atom, donor atom, acceptor molecule, acceptor atom, score
      L1  H     8    23       P1 10737  0.94
      L1  H    12    40       P1 10747  0.97

> <Gold.Chemscore.Hbond.Weighted>
-6.5576

> <Gold.Chemscore.Metal.Weighted>
-0.0000

> <Gold.Chemscore.Lipo.Weighted>
-10.7078

> <Gold.Chemscore.Internal_Hbond.Weighted>
0.0000

> <Gold.Chemscore.DEClash.Weighted>
0.0089

> <Gold.Chemscore.DEInternal.Weighted>
0.7434

> <Gold.Chemscore.Rot.Weighted>
3.0623

> <Gold.Chemscore.Internal.Correction.Weighted>
   9.000000E+99

> <Gold.Protein.RotatedTorsions>
[ 6907 6896 6895 6894 ] final  134.18 input  -60.11 | X-H torsion
[ 7974 7965 7964 7962 ] final   11.27 input  175.53 | X-H torsion
[ 8008 7997 7996 7995 ] final  137.77 input   59.86 | X-H torsion
[ 10167 10162 10161 10158 ] final  166.24 input  -65.29 | X-H torsion
[ 10718 10713 10712 10709 ] final  122.78 input   66.30 | X-H torsion
[ 10763 10752 10751 10750 ] final  130.52 input  -60.55 | X-H torsion
[ 11005 11000 10999 10996 ] final  -65.78 input  -57.11 | X-H torsion

> <Gold.Protein.ActiveResidues>
 VAL166  LYS551  ARG553  GLY616  TRP617  ASP618  TYR619  PRO620  LYS621  CYS622 
 ASP623  PHE694  ASN695  SER759  ASP760  ASP761  ALA762  ILE779  LEU786  VAL792 
 PHE793  MET794  SER795  GLU796  ALA797  LYS798  CYS799  TRP800  GLU811  SER814 

> <Gold.Protein.RotatedAtoms>
  152.3140  133.5783  159.5699 H   0  0  0  0  0  0  0  0  0  0  0  0  # atno 6907 bound_to 6896
  150.7337  134.0109  159.3678 H   0  0  0  0  0  0  0  0  0  0  0  0  # atno 6908 bound_to 6896
  151.8000  135.0712  160.0450 H   0  0  0  0  0  0  0  0  0  0  0  0  # atno 6909 bound_to 6896
  146.2374  139.9510  142.8470 H   0  0  0  0  0  0  0  0  0  0  0  0  # atno 7974 bound_to 7965
  156.3001  140.2411  156.3964 H   0  0  0  0  0  0  0  0  0  0  0  0  # atno 8008 bound_to 7997
  154.8567  140.0421  157.1659 H   0  0  0  0  0  0  0  0  0  0  0  0  # atno 8009 bound_to 7997
  154.8940  140.2967  155.5358 H   0  0  0  0  0  0  0  0  0  0  0  0  # atno 8010 bound_to 7997
  139.4921  144.4048  151.9368 H   0  0  0  0  0  0  0  0  0  0  0  0  # atno 10167 bound_to 10162
  157.5716  131.1083  150.8356 H   0  0  0  0  0  0  0  0  0  0  0  0  # atno 10718 bound_to 10713
  153.7594  135.3198  155.3334 H   0  0  0  0  0  0  0  0  0  0  0  0  # atno 10763 bound_to 10752
  154.8235  135.4586  154.0852 H   0  0  0  0  0  0  0  0  0  0  0  0  # atno 10764 bound_to 10752
  153.2079  135.6931  153.8233 H   0  0  0  0  0  0  0  0  0  0  0  0  # atno 10765 bound_to 10752
  141.1464  133.6687  156.6039 H   0  0  0  0  0  0  0  0  0  0  0  0  # atno 11005 bound_to 11000
  145.1861  140.9790  143.4238 LP  0  0  0  0  0  0  0  0  0  0  0  0  # atno 17320 bound_to 7965
  144.9898  139.3700  143.6220 LP  0  0  0  0  0  0  0  0  0  0  0  0  # atno 17321 bound_to 7965
  140.3488  144.3114  150.5953 LP  0  0  0  0  0  0  0  0  0  0  0  0  # atno 17342 bound_to 10162
  140.5503  143.2207  151.7938 LP  0  0  0  0  0  0  0  0  0  0  0  0  # atno 17343 bound_to 10162
  156.8826  130.5185  149.5290 LP  0  0  0  0  0  0  0  0  0  0  0  0  # atno 17370 bound_to 10713
  156.0761  130.5783  150.9476 LP  0  0  0  0  0  0  0  0  0  0  0  0  # atno 17371 bound_to 10713
  140.3667  134.7641  157.4571 LP  0  0  0  0  0  0  0  0  0  0  0  0  # atno 17394 bound_to 11000
  140.0743  134.5820  155.8608 LP  0  0  0  0  0  0  0  0  0  0  0  0  # atno 17395 bound_to 11000

$$$$
