AV-unprocessed.smi:1829|AV-procd|sdf|7431|dock1
  -GOLD-   22720 9113D 1   1.00000     0.00000
 Structure written by MMmdl.
 46 48  0  0  0  0  0  0  0  0  2 V2000
  148.7675  132.5843  153.1741 C   0  0  0  0  0  0  0  0  0  0  0  0
  149.9302  132.8364  154.1464 C   0  0  0  0  0  0  0  0  0  0  0  0
  149.9942  131.7645  155.2463 C   0  0  0  0  0  0  0  0  0  0  0  0
  149.8730  134.2431  154.7280 C   0  0  0  0  0  0  0  0  0  0  0  0
  148.7737  135.0810  154.4444 C   0  0  0  0  0  0  0  0  0  0  0  0
  148.7052  136.3761  154.9930 C   0  0  0  0  0  0  0  0  0  0  0  0
  149.7380  136.8501  155.8308 C   0  0  0  0  0  0  0  0  0  0  0  0
  149.6548  138.2288  156.4720 C   0  0  1  0  0  0  0  0  0  0  0  0
  149.3470  138.1684  157.8493 O   0  0  0  0  0  0  0  0  0  0  0  0
  150.9558  139.0404  156.3000 C   0  0  0  0  0  0  0  0  0  0  0  0
  150.7514  140.4855  156.4959 N   0  0  0  0  0  0  0  0  0  0  0  0
  149.9450  141.3557  155.8217 C   0  0  0  0  0  0  0  0  0  0  0  0
  149.0255  141.0386  154.6887 C   0  0  0  0  0  0  0  0  0  0  0  0
  149.5708  141.4034  153.4405 O   0  0  0  0  0  0  0  0  0  0  0  0
  150.1238  142.5864  156.3781 N   0  3  0  0  0  0  0  0  0  0  0  0
  151.0537  142.5065  157.4150 C   0  0  0  0  0  0  0  0  0  0  0  0
  151.5585  143.4883  158.2619 C   0  0  0  0  0  0  0  0  0  0  0  0
  152.5085  143.0727  159.2176 C   0  0  0  0  0  0  0  0  0  0  0  0
  152.9188  141.7270  159.3070 C   0  0  0  0  0  0  0  0  0  0  0  0
  152.3949  140.7398  158.4471 C   0  0  0  0  0  0  0  0  0  0  0  0
  151.4591  141.1585  157.5007 C   0  0  0  0  0  0  0  0  0  0  0  0
  150.8421  136.0163  156.1062 C   0  0  0  0  0  0  0  0  0  0  0  0
  150.9077  134.7200  155.5617 C   0  0  0  0  0  0  0  0  0  0  0  0
  148.7653  133.3187  152.3680 H   0  0  0  0  0  0  0  0  0  0  0  0
  147.8022  132.6395  153.6781 H   0  0  0  0  0  0  0  0  0  0  0  0
  148.8459  131.5967  152.7184 H   0  0  0  0  0  0  0  0  0  0  0  0
  150.8528  132.7548  153.5700 H   0  0  0  0  0  0  0  0  0  0  0  0
  150.8529  131.9251  155.8989 H   0  0  0  0  0  0  0  0  0  0  0  0
  150.0919  130.7675  154.8156 H   0  0  0  0  0  0  0  0  0  0  0  0
  149.0980  131.7668  155.8671 H   0  0  0  0  0  0  0  0  0  0  0  0
  147.9721  134.7319  153.8100 H   0  0  0  0  0  0  0  0  0  0  0  0
  147.8483  136.9973  154.7772 H   0  0  0  0  0  0  0  0  0  0  0  0
  148.8327  138.7719  156.0040 H   0  0  0  0  0  0  0  0  0  0  0  0
  149.9150  137.5332  158.2575 H   0  0  0  0  0  0  0  0  0  0  0  0
  151.6912  138.7249  157.0413 H   0  0  0  0  0  0  0  0  0  0  0  0
  151.4147  138.8621  155.3274 H   0  0  0  0  0  0  0  0  0  0  0  0
  148.8126  139.9693  154.6852 H   0  0  0  0  0  0  0  0  0  0  0  0
  148.0744  141.5528  154.8261 H   0  0  0  0  0  0  0  0  0  0  0  0
  149.3212  140.7533  152.8014 H   0  0  0  0  0  0  0  0  0  0  0  0
  151.2457  144.5201  158.1949 H   0  0  0  0  0  0  0  0  0  0  0  0
  152.9310  143.8004  159.8953 H   0  0  0  0  0  0  0  0  0  0  0  0
  153.6510  141.4451  160.0496 H   0  0  0  0  0  0  0  0  0  0  0  0
  152.7219  139.7140  158.5253 H   0  0  0  0  0  0  0  0  0  0  0  0
  151.6355  136.3620  156.7526 H   0  0  0  0  0  0  0  0  0  0  0  0
  151.7545  134.0910  155.7933 H   0  0  0  0  0  0  0  0  0  0  0  0
  149.6400  143.4195  156.0687 H   0  0  0  0  0  0  0  0  0  0  0  0
  1  2  1  0  0  0  0
  1 24  1  0  0  0  0
  1 25  1  0  0  0  0
  1 26  1  0  0  0  0
  2  3  1  0  0  0  0
  2  4  1  0  0  0  0
  2 27  1  0  0  0  0
  3 28  1  0  0  0  0
  3 29  1  0  0  0  0
  3 30  1  0  0  0  0
  4 23  1  0  0  0  0
  4  5  2  0  0  0  0
  5  6  1  0  0  0  0
  5 31  1  0  0  0  0
  6  7  2  0  0  0  0
  6 32  1  0  0  0  0
  7  8  1  0  0  0  0
  7 22  1  0  0  0  0
  8  9  1  0  0  0  0
  8 10  1  0  0  0  0
  8 33  1  0  0  0  0
  9 34  1  0  0  0  0
 10 11  1  0  0  0  0
 10 35  1  0  0  0  0
 10 36  1  0  0  0  0
 11 21  1  0  0  0  0
 11 12  1  0  0  0  0
 12 13  1  0  0  0  0
 12 15  2  0  0  0  0
 13 14  1  0  0  0  0
 13 37  1  0  0  0  0
 13 38  1  0  0  0  0
 14 39  1  0  0  0  0
 15 16  1  0  0  0  0
 15 46  1  0  0  0  0
 16 21  2  0  0  0  0
 16 17  1  0  0  0  0
 17 18  2  0  0  0  0
 17 40  1  0  0  0  0
 18 19  1  0  0  0  0
 18 41  1  0  0  0  0
 19 20  2  0  0  0  0
 19 42  1  0  0  0  0
 20 21  1  0  0  0  0
 20 43  1  0  0  0  0
 22 23  2  0  0  0  0
 22 44  1  0  0  0  0
 23 45  1  0  0  0  0
M  CHG  1  15   1
M  END
> <s_m_source_file>
AV-unprocessed.smi

> <i_m_source_file_index>
1829

> <i_lp_mmshare_version>
43012

> <i_f3d_flags>
0

> <s_epik_input>
W0NIM11bQ0hdKFtDSDNdKWMxW2NIXVtjSF1jKFtjSF1bY0hdMSlbQ0BIXShbT0hdKVtDSDJdbihjKG4yKVtDSDJdW09IXSljKGMyMylbY0hdW2NIXVtjSF1bY0hdMw==

> <s_epik_cmdline>
J2VwaWtfcHl0aG9uJywgJy1waCcsICc3LjAnLCAnLXRuJywgJzgnLCAnLW1hJywgJzIwMCcsICctbWV0YWxfYmluZGluZycsICctaW1hZScsICc8aW5maWxlLm1hZT4nLCAnLW9tYWUnLCAnPG91dGZpbGUubWFlPic=

> <r_epik_Ionization_Penalty>
1.35642

> <r_epik_Ionization_Penalty_Charging>
1.35557

> <r_epik_Ionization_Penalty_Neutral>
0.000856322

> <r_epik_State_Penalty>
1.43401

> <r_epik_Charging_Adjusted_Penalty>
2.78958

> <i_epik_Tot_Q>
1

> <i_epik_Tot_abs_Q>
1

> <r_epik_Metal_State_Penalty>
5.47166

> <b_epik_Metal_Only>
0

> <s_lp_Force_Field>
OPLS_2005

> <r_lp_Energy>
15.3906

> <b_lp_Chiralities_Consistent>
1

> <s_lp_Variant>
AV-unprocessed.smi:1829-4

> <Gold.Version>
5.8.1

> <Gold.Id.Protein>
6NUR|6NUR_protein|mol2

> <Gold.PLP.Fitness>
52.6236

> <Gold.PLP.PLP>
-42.5556

> <Gold.PLP.part.hbond>
-3.3672

> <Gold.PLP.part.metal>
0.0000

> <Gold.PLP.part.buried>
-4.7321

> <Gold.PLP.part.nonpolar>
-34.4990

> <Gold.PLP.part.repulsive>
0.1227

> <Gold.PLP.ligand.clash>
0.0000

> <Gold.PLP.ligand.torsion>
0.7021

> <Gold.PLP.Chemscore.Hbond>
3.7867

> <Gold.PLP.Chemscore.CHOScore>
0.0000

> <Gold.PLP.Chemscore.Metal>
0.0000

> <Gold.Chemscore.Hbonds>
donor molecule, donor type, donor heavy atom, donor atom, acceptor molecule, acceptor atom, score
      L1  H    14    39       P1  7957  0.93
      L1  H    15    46       P1  8028  2.00
      P1  H  7989  7998       L1    14  0.06
      P1  H  8011  8017       L1    14  0.44

> <Gold.PLP.Chemscore.Internal.Correction>
0.1122

> <Gold.Rescore>
     Score         DG    S(hbond)    S(metal)    S(lipo)     H(rot)  DE(clash)    DE(int)     intcor
     18.83     -19.35       2.44        0.00     109.22       2.75       0.01       0.51       ----

> <Gold.Chemscore.Fitness>
18.8319

> <Gold.Chemscore.DG>
-19.3536

> <Gold.Chemscore.ZeroCoef>
-5.4800

> <Gold.Chemscore.Hbond>
2.4393

> <Gold.Chemscore.Metal>
0.0000

> <Gold.Chemscore.Lipo>
109.2238

> <Gold.Chemscore.Internal_Hbond>
0.0000

> <Gold.Chemscore.DEClash>
0.0147

> <Gold.Chemscore.DEInternal>
0.5071

> <Gold.Chemscore.Rot>
2.7550

> <Gold.Chemscore.Internal.Correction>
   9.000000E+99

> <Gold.Chemscore.Hbonds>
donor molecule, donor type, donor heavy atom, donor atom, acceptor molecule, acceptor atom, score
      L1  H    14    39       P1  7957  0.91
      L1  H    15    46       P1  8028  0.96
      P1  H  7989  7998       L1    14  0.01
      P1  H  8011  8017       L1    14  0.02

> <Gold.Chemscore.Hbond.Weighted>
-8.1472

> <Gold.Chemscore.Metal.Weighted>
-0.0000

> <Gold.Chemscore.Lipo.Weighted>
-12.7792

> <Gold.Chemscore.Internal_Hbond.Weighted>
0.0000

> <Gold.Chemscore.DEClash.Weighted>
0.0147

> <Gold.Chemscore.DEInternal.Weighted>
0.5071

> <Gold.Chemscore.Rot.Weighted>
7.0527

> <Gold.Chemscore.Internal.Correction.Weighted>
   9.000000E+99

> <Gold.Protein.RotatedTorsions>
[ 6907 6896 6895 6894 ] final  -67.74 input  -60.11 | X-H torsion
[ 7974 7965 7964 7962 ] final    1.74 input  175.53 | X-H torsion
[ 8008 7997 7996 7995 ] final   49.79 input   59.86 | X-H torsion
[ 10167 10162 10161 10158 ] final   43.69 input  -65.29 | X-H torsion
[ 10718 10713 10712 10709 ] final  -15.20 input   66.30 | X-H torsion
[ 10763 10752 10751 10750 ] final   82.61 input  -60.55 | X-H torsion
[ 11005 11000 10999 10996 ] final -131.39 input  -57.11 | X-H torsion

> <Gold.Protein.ActiveResidues>
 VAL166  LYS551  ARG553  GLY616  TRP617  ASP618  TYR619  PRO620  LYS621  CYS622 
 ASP623  PHE694  ASN695  SER759  ASP760  ASP761  ALA762  ILE779  LEU786  VAL792 
 PHE793  MET794  SER795  GLU796  ALA797  LYS798  CYS799  TRP800  GLU811  SER814 

> <Gold.Protein.RotatedAtoms>
  150.7393  134.5837  159.5951 H   0  0  0  0  0  0  0  0  0  0  0  0  # atno 6907 bound_to 6896
  152.3244  134.7336  160.0314 H   0  0  0  0  0  0  0  0  0  0  0  0  # atno 6908 bound_to 6896
  151.7841  133.3317  159.3516 H   0  0  0  0  0  0  0  0  0  0  0  0  # atno 6909 bound_to 6896
  146.2441  140.0942  142.8350 H   0  0  0  0  0  0  0  0  0  0  0  0  # atno 7974 bound_to 7965
  155.4080  140.3441  155.4261 H   0  0  0  0  0  0  0  0  0  0  0  0  # atno 8008 bound_to 7997
  156.1465  140.1558  156.8870 H   0  0  0  0  0  0  0  0  0  0  0  0  # atno 8009 bound_to 7997
  154.5015  140.0813  156.7789 H   0  0  0  0  0  0  0  0  0  0  0  0  # atno 8010 bound_to 7997
  140.3418  144.2460  150.6155 H   0  0  0  0  0  0  0  0  0  0  0  0  # atno 10167 bound_to 10162
  156.6051  130.4834  149.6224 H   0  0  0  0  0  0  0  0  0  0  0  0  # atno 10718 bound_to 10713
  153.1218  135.4722  154.9207 H   0  0  0  0  0  0  0  0  0  0  0  0  # atno 10763 bound_to 10752
  154.7582  135.3124  154.8431 H   0  0  0  0  0  0  0  0  0  0  0  0  # atno 10764 bound_to 10752
  153.8994  135.6876  153.4810 H   0  0  0  0  0  0  0  0  0  0  0  0  # atno 10765 bound_to 10752
  140.9262  134.1379  157.4273 H   0  0  0  0  0  0  0  0  0  0  0  0  # atno 11005 bound_to 11000
  145.0624  140.9097  143.4930 LP  0  0  0  0  0  0  0  0  0  0  0  0  # atno 17320 bound_to 7965
  145.1060  139.2790  143.5662 LP  0  0  0  0  0  0  0  0  0  0  0  0  # atno 17321 bound_to 7965
  140.5302  143.2245  151.8251 LP  0  0  0  0  0  0  0  0  0  0  0  0  # atno 17342 bound_to 10162
  139.4839  144.4730  151.9402 LP  0  0  0  0  0  0  0  0  0  0  0  0  # atno 17343 bound_to 10162
  156.2437  130.6866  151.1579 LP  0  0  0  0  0  0  0  0  0  0  0  0  # atno 17370 bound_to 10713
  157.7269  131.0643  150.5888 LP  0  0  0  0  0  0  0  0  0  0  0  0  # atno 17371 bound_to 10713
  139.8786  134.9989  156.5926 LP  0  0  0  0  0  0  0  0  0  0  0  0  # atno 17394 bound_to 11000
  140.7923  133.8573  155.8656 LP  0  0  0  0  0  0  0  0  0  0  0  0  # atno 17395 bound_to 11000

$$$$
