AV-unprocessed.smi:2753|AV-procd|sdf|10613|dock9
  -GOLD-   2272015 63D 1   1.00000     0.00000
 Structure written by MMmdl.
 27 28  0  0  0  0  0  0  0  0  3 V2000
  152.4981  142.9234  159.5489 F   0  0  0  0  0  0  0  0  0  0  0  0
  151.7205  143.4480  158.6018 C   0  0  0  0  0  0  0  0  0  0  0  0
  150.6661  144.0225  159.1802 F   0  0  0  0  0  0  0  0  0  0  0  0
  152.4083  144.3779  157.9393 F   0  0  0  0  0  0  0  0  0  0  0  0
  151.2633  142.3631  157.6468 C   0  0  0  0  0  0  0  0  0  0  0  0
  151.6733  141.0157  157.8719 C   0  0  0  0  0  0  0  0  0  0  0  0
  151.1181  140.3103  156.8804 N   0  5  0  0  0  0  0  0  0  0  0  0
  150.4086  141.1311  156.0775 C   0  0  0  0  0  0  0  0  0  0  0  0
  149.6322  140.6991  154.8506 C   0  0  2  0  0  0  0  0  0  0  0  0
  148.1246  140.9775  154.9903 C   0  0  0  0  0  0  0  0  0  0  0  0
  147.3749  140.5050  153.7351 C   0  0  0  0  0  0  0  0  0  0  0  0
  147.6934  139.0321  153.4264 C   0  0  0  0  0  0  0  0  0  0  0  0
  149.1520  138.8300  153.2842 N   0  3  0  0  0  0  0  0  0  0  0  0
  149.9103  139.2283  154.4899 C   0  0  0  0  0  0  0  0  0  0  0  0
  150.4914  142.3916  156.5433 N   0  0  0  0  0  0  0  0  0  0  0  0
  152.2868  140.5424  158.6283 H   0  0  0  0  0  0  0  0  0  0  0  0
  150.0001  141.3116  154.0255 H   0  0  0  0  0  0  0  0  0  0  0  0
  147.7318  140.4580  155.8655 H   0  0  0  0  0  0  0  0  0  0  0  0
  147.9499  142.0416  155.1539 H   0  0  0  0  0  0  0  0  0  0  0  0
  146.3011  140.6350  153.8719 H   0  0  0  0  0  0  0  0  0  0  0  0
  147.6563  141.1272  152.8845 H   0  0  0  0  0  0  0  0  0  0  0  0
  147.3171  138.3874  154.2218 H   0  0  0  0  0  0  0  0  0  0  0  0
  147.1999  138.7236  152.5045 H   0  0  0  0  0  0  0  0  0  0  0  0
  149.3332  137.8552  153.0925 H   0  0  0  0  0  0  0  0  0  0  0  0
  150.9742  139.0766  154.3058 H   0  0  0  0  0  0  0  0  0  0  0  0
  149.6327  138.5733  155.3171 H   0  0  0  0  0  0  0  0  0  0  0  0
  149.4789  139.3834  152.5052 H   0  0  0  0  0  0  0  0  0  0  0  0
  1  2  1  0  0  0  0
  2  3  1  0  0  0  0
  2  4  1  0  0  0  0
  2  5  1  0  0  0  0
  5 15  1  0  0  0  0
  5  6  2  0  0  0  0
  6  7  1  0  0  0  0
  6 16  1  0  0  0  0
  7  8  1  0  0  0  0
  8  9  1  0  0  0  0
  8 15  2  0  0  0  0
  9 14  1  0  0  0  0
  9 10  1  0  0  0  0
  9 17  1  0  0  0  0
 10 11  1  0  0  0  0
 10 18  1  0  0  0  0
 10 19  1  0  0  0  0
 11 12  1  0  0  0  0
 11 20  1  0  0  0  0
 11 21  1  0  0  0  0
 12 13  1  0  0  0  0
 12 22  1  0  0  0  0
 12 23  1  0  0  0  0
 13 14  1  0  0  0  0
 13 24  1  0  0  0  0
 13 27  1  0  0  0  0
 14 25  1  0  0  0  0
 14 26  1  0  0  0  0
M  CHG  1   7  -1
M  CHG  1  13   1
M  END
> <s_m_source_file>
AV-unprocessed.smi

> <i_m_source_file_index>
2753

> <i_lp_mmshare_version>
43012

> <i_f3d_flags>
0

> <s_epik_input>
RkMoRikoRiljMVtjSF1bbkhdYyhuMSlbQ0BASF0yW0NIMl1bQ0gyXVtDSDJdW05IXVtDSDJdMg==

> <s_epik_cmdline>
J2VwaWtfcHl0aG9uJywgJy1waCcsICc3LjAnLCAnLXRuJywgJzgnLCAnLW1hJywgJzIwMCcsICctbWV0YWxfYmluZGluZycsICctaW1hZScsICc8aW5maWxlLm1hZT4nLCAnLW9tYWUnLCAnPG91dGZpbGUubWFlPic=

> <r_lp_tautomer_probability>
0.5

> <r_epik_Ionization_Penalty>
6.42345

> <r_epik_Ionization_Penalty_Charging>
5.19935

> <r_epik_Ionization_Penalty_Neutral>
1.22411

> <r_epik_State_Penalty>
5.30226

> <r_epik_Charging_Adjusted_Penalty>
10.5016

> <i_epik_Tot_Q>
0

> <i_epik_Tot_abs_Q>
2

> <r_epik_Metal_State_Penalty>
1.35744

> <b_epik_Metal_Only>
1

> <s_lp_Force_Field>
OPLS_2005

> <r_lp_Energy>
18.3827

> <b_lp_Chiralities_Consistent>
1

> <s_lp_Variant>
AV-unprocessed.smi:2753-5

> <Gold.Version>
5.8.1

> <Gold.Id.Protein>
6NUR|6NUR_protein|mol2

> <Gold.PLP.Fitness>
38.8399

> <Gold.PLP.PLP>
-33.4404

> <Gold.PLP.part.hbond>
-1.8147

> <Gold.PLP.part.metal>
0.0000

> <Gold.PLP.part.buried>
-4.4127

> <Gold.PLP.part.nonpolar>
-29.3205

> <Gold.PLP.part.repulsive>
1.2470

> <Gold.PLP.ligand.clash>
2.8448

> <Gold.PLP.ligand.torsion>
0.0708

> <Gold.PLP.Chemscore.Hbond>
2.7815

> <Gold.PLP.Chemscore.CHOScore>
0.0000

> <Gold.PLP.Chemscore.Metal>
0.0000

> <Gold.Chemscore.Hbonds>
donor molecule, donor type, donor heavy atom, donor atom, acceptor molecule, acceptor atom, score
      L1  H    13    24       P1  7948  1.84
      L1  H    13    27       P1  7957  0.91

> <Gold.PLP.Chemscore.Internal.Correction>
0.0414

> <Gold.Rescore>
     Score         DG    S(hbond)    S(metal)    S(lipo)     H(rot)  DE(clash)    DE(int)     intcor
     15.18     -15.73       1.77        0.00      59.02       1.00       0.51       0.05       ----

> <Gold.Chemscore.Fitness>
15.1753

> <Gold.Chemscore.DG>
-15.7297

> <Gold.Chemscore.ZeroCoef>
-5.4800

> <Gold.Chemscore.Hbond>
1.7680

> <Gold.Chemscore.Metal>
0.0000

> <Gold.Chemscore.Lipo>
59.0150

> <Gold.Chemscore.Internal_Hbond>
0.0000

> <Gold.Chemscore.DEClash>
0.5089

> <Gold.Chemscore.DEInternal>
0.0456

> <Gold.Chemscore.Rot>
1.0000

> <Gold.Chemscore.Internal.Correction>
   9.000000E+99

> <Gold.Chemscore.Hbonds>
donor molecule, donor type, donor heavy atom, donor atom, acceptor molecule, acceptor atom, score
      L1  H    13    24       P1  7948  0.80
      L1  H    13    27       P1  7957  0.88

> <Gold.Chemscore.Hbond.Weighted>
-5.9050

> <Gold.Chemscore.Metal.Weighted>
-0.0000

> <Gold.Chemscore.Lipo.Weighted>
-6.9048

> <Gold.Chemscore.Internal_Hbond.Weighted>
0.0000

> <Gold.Chemscore.DEClash.Weighted>
0.5089

> <Gold.Chemscore.DEInternal.Weighted>
0.0456

> <Gold.Chemscore.Rot.Weighted>
2.5600

> <Gold.Chemscore.Internal.Correction.Weighted>
   9.000000E+99

> <Gold.Protein.RotatedTorsions>
[ 6907 6896 6895 6894 ] final   16.76 input  -60.11 | X-H torsion
[ 7974 7965 7964 7962 ] final -170.58 input  175.53 | X-H torsion
[ 8008 7997 7996 7995 ] final -136.41 input   59.86 | X-H torsion
[ 10167 10162 10161 10158 ] final -120.87 input  -65.29 | X-H torsion
[ 10718 10713 10712 10709 ] final -110.81 input   66.30 | X-H torsion
[ 10763 10752 10751 10750 ] final   21.16 input  -60.55 | X-H torsion
[ 11005 11000 10999 10996 ] final  105.01 input  -57.11 | X-H torsion

> <Gold.Protein.ActiveResidues>
 VAL166  LYS551  ARG553  GLY616  TRP617  ASP618  TYR619  PRO620  LYS621  CYS622 
 ASP623  PHE694  ASN695  SER759  ASP760  ASP761  ALA762  ILE779  LEU786  VAL792 
 PHE793  MET794  SER795  GLU796  ALA797  LYS798  CYS799  TRP800  GLU811  SER814 

> <Gold.Protein.RotatedAtoms>
  151.8389  135.0597  160.0445 H   0  0  0  0  0  0  0  0  0  0  0  0  # atno 6907 bound_to 6896
  152.2824  133.5478  159.5514 H   0  0  0  0  0  0  0  0  0  0  0  0  # atno 6908 bound_to 6896
  150.7195  134.0461  159.3824 H   0  0  0  0  0  0  0  0  0  0  0  0  # atno 6909 bound_to 6896
  144.7168  140.2050  143.6334 H   0  0  0  0  0  0  0  0  0  0  0  0  # atno 7974 bound_to 7965
  155.3947  140.0502  157.3039 H   0  0  0  0  0  0  0  0  0  0  0  0  # atno 8008 bound_to 7997
  154.5019  140.2160  155.9290 H   0  0  0  0  0  0  0  0  0  0  0  0  # atno 8009 bound_to 7997
  156.1478  140.3142  155.8603 H   0  0  0  0  0  0  0  0  0  0  0  0  # atno 8010 bound_to 7997
  140.0312  143.5246  152.2175 H   0  0  0  0  0  0  0  0  0  0  0  0  # atno 10167 bound_to 10162
  156.0611  130.5834  150.8287 H   0  0  0  0  0  0  0  0  0  0  0  0  # atno 10718 bound_to 10713
  153.1018  135.6674  153.9659 H   0  0  0  0  0  0  0  0  0  0  0  0  # atno 10763 bound_to 10752
  153.9227  135.3012  155.3449 H   0  0  0  0  0  0  0  0  0  0  0  0  # atno 10764 bound_to 10752
  154.7439  135.5067  153.9245 H   0  0  0  0  0  0  0  0  0  0  0  0  # atno 10765 bound_to 10752
  139.8797  134.9320  156.5448 H   0  0  0  0  0  0  0  0  0  0  0  0  # atno 11005 bound_to 11000
  145.8644  139.2239  143.1698 LP  0  0  0  0  0  0  0  0  0  0  0  0  # atno 17320 bound_to 7965
  146.0144  140.8406  142.9955 LP  0  0  0  0  0  0  0  0  0  0  0  0  # atno 17321 bound_to 7965
  139.6075  144.7600  151.3029 LP  0  0  0  0  0  0  0  0  0  0  0  0  # atno 17342 bound_to 10162
  140.7301  143.6889  150.7938 LP  0  0  0  0  0  0  0  0  0  0  0  0  # atno 17343 bound_to 10162
  157.5620  131.0946  150.9544 LP  0  0  0  0  0  0  0  0  0  0  0  0  # atno 17370 bound_to 10713
  156.9780  130.5516  149.5294 LP  0  0  0  0  0  0  0  0  0  0  0  0  # atno 17371 bound_to 10713
  140.8284  133.8298  155.8960 LP  0  0  0  0  0  0  0  0  0  0  0  0  # atno 17394 bound_to 11000
  140.9352  134.1971  157.4836 LP  0  0  0  0  0  0  0  0  0  0  0  0  # atno 17395 bound_to 11000

$$$$
