AV-unprocessed.smi:203|AV-procd|sdf|1595|dock9
  -GOLD-   2262019503D 1   1.00000     0.00000
 Structure written by MMmdl.
 57 61  0  0  0  0  0  0  0  0  1 V2000
  153.7526  136.1484  157.1382 O   0  0  0  0  0  0  0  0  0  0  0  0
  153.4355  136.9166  158.0432 C   0  0  0  0  0  0  0  0  0  0  0  0
  152.0583  137.5461  158.1657 C   0  0  0  0  0  0  0  0  0  0  0  0
  152.2350  138.5932  159.2829 C   0  0  2  0  0  0  0  0  0  0  0  0
  152.1548  140.0720  158.7850 C   0  0  2  0  0  0  0  0  0  0  0  0
  152.8713  141.0657  159.7374 C   0  0  0  0  0  0  0  0  0  0  0  0
  152.7770  142.5104  159.2295 C   0  0  0  0  0  0  0  0  0  0  0  0
  151.3087  142.8937  159.0197 C   0  0  0  0  0  0  0  0  0  0  0  0
  150.6306  141.9013  158.0661 C   0  0  0  0  0  0  0  0  0  0  0  0
  150.7730  140.5246  158.5395 N   0  0  0  0  0  0  0  0  0  0  0  0
  149.9919  139.6962  157.8107 C   0  0  0  0  0  0  0  0  0  0  0  0
  149.2423  138.7941  158.4905 N   0  0  0  0  0  0  0  0  0  0  0  0
  148.4604  137.9395  157.8237 C   0  0  0  0  0  0  0  0  0  0  0  0
  148.2835  137.8230  156.5055 N   0  0  0  0  0  0  0  0  0  0  0  0
  149.0305  138.7365  155.8216 C   0  0  0  0  0  0  0  0  0  0  0  0
  149.9045  139.7049  156.3900 C   0  0  0  0  0  0  0  0  0  0  0  0
  150.4943  140.4612  155.3842 N   0  0  0  0  0  0  0  0  0  0  0  0
  150.0006  139.9649  154.2828 C   0  0  0  0  0  0  0  0  0  0  0  0
  149.1164  138.9241  154.4535 N   0  0  0  0  0  0  0  0  0  0  0  0
  148.4287  138.1923  153.4040 C   0  0  0  0  0  0  0  0  0  0  0  0
  147.2074  138.9607  152.8548 C   0  0  1  0  0  0  0  0  0  0  0  0
  147.6803  139.9815  151.9965 O   0  0  0  0  0  0  0  0  0  0  0  0
  146.2453  138.0705  152.0428 C   0  0  1  0  0  0  0  0  0  0  0  0
  146.8800  137.3654  150.8422 C   0  0  0  0  0  0  0  0  0  0  0  0
  145.9842  136.1581  150.6205 C   0  0  0  0  0  0  0  0  0  0  0  0
  145.2436  136.0033  151.9507 C   0  0  0  0  0  0  0  0  0  0  0  0
  145.8422  136.9533  152.8218 O   0  0  0  0  0  0  0  0  0  0  0  0
  153.5780  138.2312  159.9565 C   0  0  0  0  0  0  0  0  0  0  0  0
  154.2233  137.3105  159.0413 N   0  0  0  0  0  0  0  0  0  0  0  0
  151.7210  137.9713  157.2204 H   0  0  0  0  0  0  0  0  0  0  0  0
  151.3447  136.7758  158.4601 H   0  0  0  0  0  0  0  0  0  0  0  0
  151.4330  138.4172  160.0005 H   0  0  0  0  0  0  0  0  0  0  0  0
  152.6776  140.1197  157.8293 H   0  0  0  0  0  0  0  0  0  0  0  0
  152.4341  141.0168  160.7347 H   0  0  0  0  0  0  0  0  0  0  0  0
  153.9226  140.8040  159.8528 H   0  0  0  0  0  0  0  0  0  0  0  0
  153.2463  143.1913  159.9404 H   0  0  0  0  0  0  0  0  0  0  0  0
  153.3242  142.6098  158.2912 H   0  0  0  0  0  0  0  0  0  0  0  0
  150.7875  142.8984  159.9780 H   0  0  0  0  0  0  0  0  0  0  0  0
  151.2369  143.9054  158.6198 H   0  0  0  0  0  0  0  0  0  0  0  0
  149.5736  142.1550  157.9708 H   0  0  0  0  0  0  0  0  0  0  0  0
  151.0694  141.9903  157.0713 H   0  0  0  0  0  0  0  0  0  0  0  0
  147.8967  137.2489  158.4335 H   0  0  0  0  0  0  0  0  0  0  0  0
  150.2719  140.3444  153.3084 H   0  0  0  0  0  0  0  0  0  0  0  0
  149.1359  137.9746  152.6026 H   0  0  0  0  0  0  0  0  0  0  0  0
  148.1249  137.2311  153.8190 H   0  0  0  0  0  0  0  0  0  0  0  0
  146.6689  139.4198  153.6849 H   0  0  0  0  0  0  0  0  0  0  0  0
  148.5225  139.7214  151.6559 H   0  0  0  0  0  0  0  0  0  0  0  0
  145.3678  138.6335  151.7171 H   0  0  0  0  0  0  0  0  0  0  0  0
  146.9488  138.0053  149.9620 H   0  0  0  0  0  0  0  0  0  0  0  0
  147.8865  137.0280  151.0941 H   0  0  0  0  0  0  0  0  0  0  0  0
  145.2766  136.3352  149.8097 H   0  0  0  0  0  0  0  0  0  0  0  0
  146.5690  135.2722  150.3702 H   0  0  0  0  0  0  0  0  0  0  0  0
  144.1856  136.2404  151.8311 H   0  0  0  0  0  0  0  0  0  0  0  0
  145.3242  134.9958  152.3595 H   0  0  0  0  0  0  0  0  0  0  0  0
  154.2111  139.0969  160.1515 H   0  0  0  0  0  0  0  0  0  0  0  0
  153.4104  137.7251  160.9078 H   0  0  0  0  0  0  0  0  0  0  0  0
  155.1813  137.0130  159.1561 H   0  0  0  0  0  0  0  0  0  0  0  0
  1  2  2  0  0  0  0
  2 29  1  0  0  0  0
  2  3  1  0  0  0  0
  3  4  1  0  0  0  0
  3 30  1  0  0  0  0
  3 31  1  0  0  0  0
  4  5  1  0  0  0  0
  4 28  1  0  0  0  0
  4 32  1  0  0  0  0
  5 10  1  0  0  0  0
  5  6  1  0  0  0  0
  5 33  1  0  0  0  0
  6  7  1  0  0  0  0
  6 34  1  0  0  0  0
  6 35  1  0  0  0  0
  7  8  1  0  0  0  0
  7 36  1  0  0  0  0
  7 37  1  0  0  0  0
  8  9  1  0  0  0  0
  8 38  1  0  0  0  0
  8 39  1  0  0  0  0
  9 10  1  0  0  0  0
  9 40  1  0  0  0  0
  9 41  1  0  0  0  0
 10 11  1  0  0  0  0
 11 16  1  0  0  0  0
 11 12  2  0  0  0  0
 12 13  1  0  0  0  0
 13 14  2  0  0  0  0
 13 42  1  0  0  0  0
 14 15  1  0  0  0  0
 15 19  1  0  0  0  0
 15 16  2  0  0  0  0
 16 17  1  0  0  0  0
 17 18  2  0  0  0  0
 18 19  1  0  0  0  0
 18 43  1  0  0  0  0
 19 20  1  0  0  0  0
 20 21  1  0  0  0  0
 20 44  1  0  0  0  0
 20 45  1  0  0  0  0
 21 22  1  0  0  0  0
 21 23  1  0  0  0  0
 21 46  1  0  0  0  0
 22 47  1  0  0  0  0
 23 27  1  0  0  0  0
 23 24  1  0  0  0  0
 23 48  1  0  0  0  0
 24 25  1  0  0  0  0
 24 49  1  0  0  0  0
 24 50  1  0  0  0  0
 25 26  1  0  0  0  0
 25 51  1  0  0  0  0
 25 52  1  0  0  0  0
 26 27  1  0  0  0  0
 26 53  1  0  0  0  0
 26 54  1  0  0  0  0
 28 29  1  0  0  0  0
 28 55  1  0  0  0  0
 28 56  1  0  0  0  0
 29 57  1  0  0  0  0
M  END
> <s_m_source_file>
AV-unprocessed.smi

> <i_m_source_file_index>
203

> <i_lp_mmshare_version>
43012

> <i_f3d_flags>
0

> <s_epik_input>
Tz1DMVtDSDJdW0NASF0oW0NIMl1bTkhdMSlbQ0BASF0yW0NIMl1bQ0gyXVtDSDJdW0NIMl1OMmMobltjSF1uMyljKGMzNCluW2NIXW40W0NIMl1bQ0BIXShbT0hdKVtDQEBIXTVbQ0gyXVtDSDJdW0NIMl1PNQ==

> <s_epik_cmdline>
J2VwaWtfcHl0aG9uJywgJy1waCcsICc3LjAnLCAnLXRuJywgJzgnLCAnLW1hJywgJzIwMCcsICctbWV0YWxfYmluZGluZycsICctaW1hZScsICc8aW5maWxlLm1hZT4nLCAnLW9tYWUnLCAnPG91dGZpbGUubWFlPic=

> <r_lp_tautomer_probability>
1

> <r_epik_Ionization_Penalty>
0.00175146

> <r_epik_Ionization_Penalty_Charging>
0

> <r_epik_Ionization_Penalty_Neutral>
0.00175146

> <r_epik_State_Penalty>
0.00109045

> <r_epik_Charging_Adjusted_Penalty>
0.00109045

> <i_epik_Tot_Q>
0

> <i_epik_Tot_abs_Q>
0

> <r_epik_Metal_State_Penalty>
-0

> <b_epik_Metal_Only>
0

> <s_lp_Force_Field>
OPLS_2005

> <r_lp_Energy>
56.5765

> <b_lp_Chiralities_Consistent>
1

> <s_lp_Variant>
AV-unprocessed.smi:203-14

> <Gold.Version>
5.8.1

> <Gold.Id.Protein>
6NUR|6NUR_protein|mol2

> <Gold.PLP.Fitness>
40.1576

> <Gold.PLP.PLP>
-33.5492

> <Gold.PLP.part.hbond>
-2.4941

> <Gold.PLP.part.metal>
0.0000

> <Gold.PLP.part.buried>
2.8544

> <Gold.PLP.part.nonpolar>
-33.6456

> <Gold.PLP.part.repulsive>
0.2974

> <Gold.PLP.ligand.clash>
0.0000

> <Gold.PLP.ligand.torsion>
1.3413

> <Gold.PLP.Chemscore.Hbond>
2.0000

> <Gold.PLP.Chemscore.CHOScore>
1.0000

> <Gold.PLP.Chemscore.Metal>
0.0000

> <Gold.Chemscore.Hbonds>
donor molecule, donor type, donor heavy atom, donor atom, acceptor molecule, acceptor atom, score
      L1  H    22    47       P1  7957  0.19
      P1  H 10752 10765       L1     1  1.00
      L1  C    18    43       P1  7957  1.00

> <Gold.PLP.Chemscore.Internal.Correction>
0.2910

> <Gold.Rescore>
     Score         DG    S(hbond)    S(metal)    S(lipo)     H(rot)  DE(clash)    DE(int)     intcor
     12.72     -16.35       1.96        0.00      96.36       2.72       1.68       1.94       ----

> <Gold.Chemscore.Fitness>
12.7220

> <Gold.Chemscore.DG>
-16.3455

> <Gold.Chemscore.ZeroCoef>
-5.4800

> <Gold.Chemscore.Hbond>
1.9602

> <Gold.Chemscore.Metal>
0.0000

> <Gold.Chemscore.Lipo>
96.3592

> <Gold.Chemscore.Internal_Hbond>
0.0000

> <Gold.Chemscore.DEClash>
1.6843

> <Gold.Chemscore.DEInternal>
1.9391

> <Gold.Chemscore.Rot>
2.7171

> <Gold.Chemscore.Internal.Correction>
   9.000000E+99

> <Gold.Chemscore.Hbonds>
donor molecule, donor type, donor heavy atom, donor atom, acceptor molecule, acceptor atom, score
      L1  H    22    47       P1  7957  0.20
      P1  H 10752 10765       L1     1  0.97

> <Gold.Chemscore.Hbond.Weighted>
-6.5471

> <Gold.Chemscore.Metal.Weighted>
-0.0000

> <Gold.Chemscore.Lipo.Weighted>
-11.2740

> <Gold.Chemscore.Internal_Hbond.Weighted>
0.0000

> <Gold.Chemscore.DEClash.Weighted>
1.6843

> <Gold.Chemscore.DEInternal.Weighted>
1.9391

> <Gold.Chemscore.Rot.Weighted>
6.9557

> <Gold.Chemscore.Internal.Correction.Weighted>
   9.000000E+99

> <Gold.Protein.RotatedTorsions>
[ 6907 6896 6895 6894 ] final   16.68 input  -60.11 | X-H torsion
[ 7974 7965 7964 7962 ] final -112.40 input  175.53 | X-H torsion
[ 8008 7997 7996 7995 ] final  -61.22 input   59.86 | X-H torsion
[ 10167 10162 10161 10158 ] final  -28.79 input  -65.29 | X-H torsion
[ 10718 10713 10712 10709 ] final  103.00 input   66.30 | X-H torsion
[ 10763 10752 10751 10750 ] final  -91.55 input  -60.55 | X-H torsion
[ 11005 11000 10999 10996 ] final   53.28 input  -57.11 | X-H torsion

> <Gold.Protein.ActiveResidues>
 VAL166  LYS551  ARG553  GLY616  TRP617  ASP618  TYR619  PRO620  LYS621  CYS622 
 ASP623  PHE694  ASN695  SER759  ASP760  ASP761  ALA762  ILE779  LEU786  VAL792 
 PHE793  MET794  SER795  GLU796  ALA797  LYS798  CYS799  TRP800  GLU811  SER814 

> <Gold.Protein.RotatedAtoms>
  151.8377  135.0600  160.0444 H   0  0  0  0  0  0  0  0  0  0  0  0  # atno 6907 bound_to 6896
  152.2833  133.5486  159.5519 H   0  0  0  0  0  0  0  0  0  0  0  0  # atno 6908 bound_to 6896
  150.7198  134.0449  159.3821 H   0  0  0  0  0  0  0  0  0  0  0  0  # atno 6909 bound_to 6896
  145.1445  140.8796  143.3683 H   0  0  0  0  0  0  0  0  0  0  0  0  # atno 7974 bound_to 7965
  154.4437  140.1022  156.6396 H   0  0  0  0  0  0  0  0  0  0  0  0  # atno 8008 bound_to 7997
  155.5516  140.3485  155.4451 H   0  0  0  0  0  0  0  0  0  0  0  0  # atno 8009 bound_to 7997
  156.0525  140.1307  157.0023 H   0  0  0  0  0  0  0  0  0  0  0  0  # atno 8010 bound_to 7997
  140.7266  143.3981  151.1312 H   0  0  0  0  0  0  0  0  0  0  0  0  # atno 10167 bound_to 10162
  157.6786  131.0767  150.5489 H   0  0  0  0  0  0  0  0  0  0  0  0  # atno 10718 bound_to 10713
  154.6771  135.5264  153.8214 H   0  0  0  0  0  0  0  0  0  0  0  0  # atno 10763 bound_to 10752
  153.0540  135.6543  154.0633 H   0  0  0  0  0  0  0  0  0  0  0  0  # atno 10764 bound_to 10752
  154.0525  135.2968  155.3318 H   0  0  0  0  0  0  0  0  0  0  0  0  # atno 10765 bound_to 10752
  140.0780  134.5377  155.8976 H   0  0  0  0  0  0  0  0  0  0  0  0  # atno 11005 bound_to 11000
  145.0497  139.3192  143.5935 LP  0  0  0  0  0  0  0  0  0  0  0  0  # atno 17320 bound_to 7965
  146.3501  139.9900  142.8686 LP  0  0  0  0  0  0  0  0  0  0  0  0  # atno 17321 bound_to 7965
  139.7596  143.8655  152.3097 LP  0  0  0  0  0  0  0  0  0  0  0  0  # atno 17342 bound_to 10162
  139.8536  144.7152  150.9184 LP  0  0  0  0  0  0  0  0  0  0  0  0  # atno 17343 bound_to 10162
  156.5794  130.4300  149.5984 LP  0  0  0  0  0  0  0  0  0  0  0  0  # atno 17370 bound_to 10713
  156.2674  130.6997  151.1784 LP  0  0  0  0  0  0  0  0  0  0  0  0  # atno 17371 bound_to 10713
  141.2036  133.6633  156.6075 LP  0  0  0  0  0  0  0  0  0  0  0  0  # atno 17394 bound_to 11000
  140.3529  134.7753  157.4480 LP  0  0  0  0  0  0  0  0  0  0  0  0  # atno 17395 bound_to 11000

$$$$
