AV-unprocessed.smi:1003|AV-procd|sdf|4360|dock7
  -GOLD-   22720 2263D 1   1.00000     0.00000
 Structure written by MMmdl.
 43 44  0  0  0  0  0  0  0  0  1 V2000
  154.7085  132.7312  160.1718 C   0  0  0  0  0  0  0  0  0  0  0  0
  154.8207  132.8683  161.6943 C   0  0  0  0  0  0  0  0  0  0  0  0
  154.5276  134.2635  162.1622 C   0  0  0  0  0  0  0  0  0  0  0  0
  154.2542  135.2589  161.2192 N   0  0  0  0  0  0  0  0  0  0  0  0
  154.0096  136.4456  161.7781 C   0  0  0  0  0  0  0  0  0  0  0  0
  153.7203  137.6818  160.9959 C   0  0  0  0  0  0  0  0  0  0  0  0
  154.9308  138.6263  160.9249 C   0  0  0  0  0  0  0  0  0  0  0  0
  154.5245  140.0249  160.9914 N   0  0  0  0  0  0  0  0  0  0  0  0
  153.8757  140.6853  160.0198 C   0  0  0  0  0  0  0  0  0  0  0  0
  153.5494  140.1639  158.9527 O   0  0  0  0  0  0  0  0  0  0  0  0
  153.5488  142.1597  160.2931 C   0  0  0  0  0  0  0  0  0  0  0  0
  152.8214  142.3242  161.6450 C   0  0  0  0  0  0  0  0  0  0  0  0
  152.4755  143.7971  161.9190 C   0  0  0  0  0  0  0  0  0  0  0  0
  151.6397  144.3944  160.7759 C   0  0  0  0  0  0  0  0  0  0  0  0
  152.3510  144.2299  159.4236 C   0  0  0  0  0  0  0  0  0  0  0  0
  152.6971  142.7567  159.1521 C   0  0  0  0  0  0  0  0  0  0  0  0
  154.1342  136.4223  163.5311 S   0  0  0  0  0  0  0  0  0  0  0  0
  154.5084  134.7194  163.4601 C   0  0  0  0  0  0  0  0  0  0  0  0
  154.7645  133.9425  164.7086 C   0  0  0  0  0  0  0  0  0  0  0  0
  154.9259  131.7108  159.8561 H   0  0  0  0  0  0  0  0  0  0  0  0
  155.4108  133.3939  159.6653 H   0  0  0  0  0  0  0  0  0  0  0  0
  153.7043  132.9795  159.8270 H   0  0  0  0  0  0  0  0  0  0  0  0
  154.1342  132.1652  162.1671 H   0  0  0  0  0  0  0  0  0  0  0  0
  155.8188  132.5638  162.0103 H   0  0  0  0  0  0  0  0  0  0  0  0
  153.4072  137.3958  159.9908 H   0  0  0  0  0  0  0  0  0  0  0  0
  152.8694  138.1863  161.4551 H   0  0  0  0  0  0  0  0  0  0  0  0
  155.6382  138.4036  161.7256 H   0  0  0  0  0  0  0  0  0  0  0  0
  155.4658  138.4738  159.9870 H   0  0  0  0  0  0  0  0  0  0  0  0
  154.7537  140.5278  161.8366 H   0  0  0  0  0  0  0  0  0  0  0  0
  154.4870  142.7159  160.3433 H   0  0  0  0  0  0  0  0  0  0  0  0
  151.9033  141.7340  161.6533 H   0  0  0  0  0  0  0  0  0  0  0  0
  153.4419  141.9390  162.4553 H   0  0  0  0  0  0  0  0  0  0  0  0
  151.9318  143.8821  162.8602 H   0  0  0  0  0  0  0  0  0  0  0  0
  153.3941  144.3725  162.0394 H   0  0  0  0  0  0  0  0  0  0  0  0
  150.6670  143.9020  160.7392 H   0  0  0  0  0  0  0  0  0  0  0  0
  151.4450  145.4498  160.9689 H   0  0  0  0  0  0  0  0  0  0  0  0
  151.7206  144.6174  158.6228 H   0  0  0  0  0  0  0  0  0  0  0  0
  153.2636  144.8273  159.4154 H   0  0  0  0  0  0  0  0  0  0  0  0
  153.2303  142.6772  158.2039 H   0  0  0  0  0  0  0  0  0  0  0  0
  151.7733  142.1878  159.0335 H   0  0  0  0  0  0  0  0  0  0  0  0
  155.6472  133.3120  164.5999 H   0  0  0  0  0  0  0  0  0  0  0  0
  153.9161  133.2998  164.9434 H   0  0  0  0  0  0  0  0  0  0  0  0
  154.9308  134.6049  165.5586 H   0  0  0  0  0  0  0  0  0  0  0  0
  1  2  1  0  0  0  0
  1 20  1  0  0  0  0
  1 21  1  0  0  0  0
  1 22  1  0  0  0  0
  2  3  1  0  0  0  0
  2 23  1  0  0  0  0
  2 24  1  0  0  0  0
  3 18  2  0  0  0  0
  3  4  1  0  0  0  0
  4  5  2  0  0  0  0
  5  6  1  0  0  0  0
  5 17  1  0  0  0  0
  6  7  1  0  0  0  0
  6 25  1  0  0  0  0
  6 26  1  0  0  0  0
  7  8  1  0  0  0  0
  7 27  1  0  0  0  0
  7 28  1  0  0  0  0
  8  9  1  0  0  0  0
  8 29  1  0  0  0  0
  9 10  2  0  0  0  0
  9 11  1  0  0  0  0
 11 16  1  0  0  0  0
 11 12  1  0  0  0  0
 11 30  1  0  0  0  0
 12 13  1  0  0  0  0
 12 31  1  0  0  0  0
 12 32  1  0  0  0  0
 13 14  1  0  0  0  0
 13 33  1  0  0  0  0
 13 34  1  0  0  0  0
 14 15  1  0  0  0  0
 14 35  1  0  0  0  0
 14 36  1  0  0  0  0
 15 16  1  0  0  0  0
 15 37  1  0  0  0  0
 15 38  1  0  0  0  0
 16 39  1  0  0  0  0
 16 40  1  0  0  0  0
 17 18  1  0  0  0  0
 18 19  1  0  0  0  0
 19 41  1  0  0  0  0
 19 42  1  0  0  0  0
 19 43  1  0  0  0  0
M  END
> <s_m_source_file>
AV-unprocessed.smi

> <i_m_source_file_index>
1003

> <i_lp_mmshare_version>
43012

> <i_f3d_flags>
0

> <s_epik_input>
W0NIM11bQ0gyXWMxbmMoc2MxW0NIM10pW0NIMl1bQ0gyXVtOSF1DKD1PKVtDSF0yW0NIMl1bQ0gyXVtDSDJdW0NIMl1bQ0gyXTI=

> <s_epik_cmdline>
J2VwaWtfcHl0aG9uJywgJy1waCcsICc3LjAnLCAnLXRuJywgJzgnLCAnLW1hJywgJzIwMCcsICctbWV0YWxfYmluZGluZycsICctaW1hZScsICc8aW5maWxlLm1hZT4nLCAnLW9tYWUnLCAnPG91dGZpbGUubWFlPic=

> <r_epik_Ionization_Penalty>
0.00242092

> <r_epik_Ionization_Penalty_Charging>
0

> <r_epik_Ionization_Penalty_Neutral>
0.00242092

> <r_epik_State_Penalty>
0.00167523

> <r_epik_Charging_Adjusted_Penalty>
0.00167523

> <i_epik_Tot_Q>
0

> <i_epik_Tot_abs_Q>
0

> <r_epik_Metal_State_Penalty>
-0

> <b_epik_Metal_Only>
0

> <s_lp_Force_Field>
OPLS_2005

> <r_lp_Energy>
0.647585

> <b_lp_Chiralities_Consistent>
1

> <s_lp_Variant>
AV-unprocessed.smi:1003-1

> <Gold.Version>
5.8.1

> <Gold.Id.Protein>
6NUR|6NUR_protein|mol2

> <Gold.PLP.Fitness>
47.4723

> <Gold.PLP.PLP>
-44.5469

> <Gold.PLP.part.hbond>
-1.4615

> <Gold.PLP.part.metal>
0.0000

> <Gold.PLP.part.buried>
-4.1458

> <Gold.PLP.part.nonpolar>
-38.2421

> <Gold.PLP.part.repulsive>
0.0208

> <Gold.PLP.ligand.clash>
0.0000

> <Gold.PLP.ligand.torsion>
0.5983

> <Gold.PLP.Chemscore.Hbond>
1.3665

> <Gold.PLP.Chemscore.CHOScore>
0.0000

> <Gold.PLP.Chemscore.Metal>
0.0000

> <Gold.Chemscore.Hbonds>
donor molecule, donor type, donor heavy atom, donor atom, acceptor molecule, acceptor atom, score
      P1  H  6896  6909       L1     4  0.49
      P1  H  7997  8008       L1    10  0.70

> <Gold.PLP.Chemscore.Internal.Correction>
0.0224

> <Gold.Rescore>
     Score         DG    S(hbond)    S(metal)    S(lipo)     H(rot)  DE(clash)    DE(int)     intcor
     20.28     -21.06       1.29        0.00     127.05       1.40       0.18       0.60       ----

> <Gold.Chemscore.Fitness>
20.2829

> <Gold.Chemscore.DG>
-21.0594

> <Gold.Chemscore.ZeroCoef>
-5.4800

> <Gold.Chemscore.Hbond>
1.2860

> <Gold.Chemscore.Metal>
0.0000

> <Gold.Chemscore.Lipo>
127.0522

> <Gold.Chemscore.Internal_Hbond>
0.0000

> <Gold.Chemscore.DEClash>
0.1809

> <Gold.Chemscore.DEInternal>
0.5957

> <Gold.Chemscore.Rot>
1.3988

> <Gold.Chemscore.Internal.Correction>
   9.000000E+99

> <Gold.Chemscore.Hbonds>
donor molecule, donor type, donor heavy atom, donor atom, acceptor molecule, acceptor atom, score
      P1  H  6896  6909       L1     4  0.21
      P1  H  7997  8008       L1    10  0.65

> <Gold.Chemscore.Hbond.Weighted>
-4.2953

> <Gold.Chemscore.Metal.Weighted>
-0.0000

> <Gold.Chemscore.Lipo.Weighted>
-14.8651

> <Gold.Chemscore.Internal_Hbond.Weighted>
0.0000

> <Gold.Chemscore.DEClash.Weighted>
0.1809

> <Gold.Chemscore.DEInternal.Weighted>
0.5957

> <Gold.Chemscore.Rot.Weighted>
3.5810

> <Gold.Chemscore.Internal.Correction.Weighted>
   9.000000E+99

> <Gold.Protein.RotatedTorsions>
[ 6907 6896 6895 6894 ] final -174.86 input  -60.11 | X-H torsion
[ 7974 7965 7964 7962 ] final  -51.79 input  175.53 | X-H torsion
[ 8008 7997 7996 7995 ] final  -98.44 input   59.86 | X-H torsion
[ 10167 10162 10161 10158 ] final   46.89 input  -65.29 | X-H torsion
[ 10718 10713 10712 10709 ] final  175.49 input   66.30 | X-H torsion
[ 10763 10752 10751 10750 ] final   40.88 input  -60.55 | X-H torsion
[ 11005 11000 10999 10996 ] final -127.47 input  -57.11 | X-H torsion

> <Gold.Protein.ActiveResidues>
 VAL166  LYS551  ARG553  GLY616  TRP617  ASP618  TYR619  PRO620  LYS621  CYS622 
 ASP623  PHE694  ASN695  SER759  ASP760  ASP761  ALA762  ILE779  LEU786  VAL792 
 PHE793  MET794  SER795  GLU796  ALA797  LYS798  CYS799  TRP800  GLU811  SER814 

> <Gold.Protein.RotatedAtoms>
  151.5793  133.3380  159.3004 H   0  0  0  0  0  0  0  0  0  0  0  0  # atno 6907 bound_to 6896
  150.8323  134.7584  159.6875 H   0  0  0  0  0  0  0  0  0  0  0  0  # atno 6908 bound_to 6896
  152.4404  134.5608  159.9945 H   0  0  0  0  0  0  0  0  0  0  0  0  # atno 6909 bound_to 6896
  145.9151  140.7882  142.9675 H   0  0  0  0  0  0  0  0  0  0  0  0  # atno 7974 bound_to 7965
  154.8012  140.0455  157.1274 H   0  0  0  0  0  0  0  0  0  0  0  0  # atno 8008 bound_to 7997
  154.9477  140.3061  155.5070 H   0  0  0  0  0  0  0  0  0  0  0  0  # atno 8009 bound_to 7997
  156.2962  140.2294  156.4552 H   0  0  0  0  0  0  0  0  0  0  0  0  # atno 8010 bound_to 7997
  140.3093  144.2840  150.6203 H   0  0  0  0  0  0  0  0  0  0  0  0  # atno 10167 bound_to 10162
  156.9342  130.9980  151.2981 H   0  0  0  0  0  0  0  0  0  0  0  0  # atno 10718 bound_to 10713
  152.9923  135.6178  154.2698 H   0  0  0  0  0  0  0  0  0  0  0  0  # atno 10763 bound_to 10752
  154.2431  135.2788  155.2848 H   0  0  0  0  0  0  0  0  0  0  0  0  # atno 10764 bound_to 10752
  154.5352  135.5777  153.6850 H   0  0  0  0  0  0  0  0  0  0  0  0  # atno 10765 bound_to 10752
  140.9597  134.0953  157.3981 H   0  0  0  0  0  0  0  0  0  0  0  0  # atno 11005 bound_to 11000
  144.6747  140.1887  143.7399 LP  0  0  0  0  0  0  0  0  0  0  0  0  # atno 17320 bound_to 7965
  145.8622  139.2228  143.1710 LP  0  0  0  0  0  0  0  0  0  0  0  0  # atno 17321 bound_to 7965
  140.5582  143.2196  151.7810 LP  0  0  0  0  0  0  0  0  0  0  0  0  # atno 17342 bound_to 10162
  139.4897  144.4384  151.9792 LP  0  0  0  0  0  0  0  0  0  0  0  0  # atno 17343 bound_to 10162
  157.5827  130.8388  149.8546 LP  0  0  0  0  0  0  0  0  0  0  0  0  # atno 17370 bound_to 10713
  156.0433  130.3733  150.1379 LP  0  0  0  0  0  0  0  0  0  0  0  0  # atno 17371 bound_to 10713
  139.8874  135.0089  156.6557 LP  0  0  0  0  0  0  0  0  0  0  0  0  # atno 17394 bound_to 11000
  140.7485  133.8917  155.8330 LP  0  0  0  0  0  0  0  0  0  0  0  0  # atno 17395 bound_to 11000

$$$$
