AV-unprocessed.smi:2884|AV-procd|sdf|11085|dock9
  -GOLD-   2272015553D 1   1.00000     0.00000
 Structure written by MMmdl.
 41 42  0  0  0  0  0  0  0  0  2 V2000
  147.1010  128.3124  151.4074 C   0  0  0  0  0  0  0  0  0  0  0  0
  145.9627  128.8696  152.2721 C   0  0  0  0  0  0  0  0  0  0  0  0
  145.6298  130.3320  151.9521 C   0  0  0  0  0  0  0  0  0  0  0  0
  146.7483  131.1281  152.3256 O   0  0  0  0  0  0  0  0  0  0  0  0
  146.6377  132.5556  152.3591 C   0  0  0  0  0  0  0  0  0  0  0  0
  148.1096  133.0008  152.5593 C   0  0  0  0  0  0  0  0  0  0  0  0
  148.7294  132.3929  153.7300 N   0  0  0  0  0  0  0  0  0  0  0  0
  149.4527  132.9963  154.7531 C   0  0  0  0  0  0  0  0  0  0  0  0
  149.7006  134.4593  154.8067 C   0  0  0  0  0  0  0  0  0  0  0  0
  150.3574  135.0068  155.7515 N   0  0  0  0  0  0  0  0  0  0  0  0
  150.8995  134.2199  156.8366 N   0  5  0  0  0  0  0  0  0  0  0  0
  150.7099  132.8659  156.8634 C   0  0  0  0  0  0  0  0  0  0  0  0
  151.1500  132.1613  157.7703 O   0  0  0  0  0  0  0  0  0  0  0  0
  149.9543  132.2472  155.7677 C   0  0  0  0  0  0  0  0  0  0  0  0
  149.7062  130.5314  155.8047 Cl  0  0  0  0  0  0  0  0  0  0  0  0
  146.0293  133.1289  151.0486 C   0  0  0  0  0  0  0  0  0  0  0  0
  145.8623  134.6581  151.1018 C   0  0  0  0  0  0  0  0  0  0  0  0
  145.0144  135.0817  152.3124 C   0  0  0  0  0  0  0  0  0  0  0  0
  145.5911  134.5339  153.6280 C   0  0  0  0  0  0  0  0  0  0  0  0
  145.7758  133.0057  153.5677 C   0  0  0  0  0  0  0  0  0  0  0  0
  147.2973  127.2679  151.6502 H   0  0  0  0  0  0  0  0  0  0  0  0
  148.0269  128.8657  151.5641 H   0  0  0  0  0  0  0  0  0  0  0  0
  146.8546  128.3680  150.3469 H   0  0  0  0  0  0  0  0  0  0  0  0
  145.0723  128.2590  152.1204 H   0  0  0  0  0  0  0  0  0  0  0  0
  146.2247  128.7756  153.3265 H   0  0  0  0  0  0  0  0  0  0  0  0
  145.3961  130.4198  150.8924 H   0  0  0  0  0  0  0  0  0  0  0  0
  144.7447  130.6257  152.5150 H   0  0  0  0  0  0  0  0  0  0  0  0
  148.7178  132.7198  151.7013 H   0  0  0  0  0  0  0  0  0  0  0  0
  148.1747  134.0866  152.6136 H   0  0  0  0  0  0  0  0  0  0  0  0
  148.5242  131.4117  153.8508 H   0  0  0  0  0  0  0  0  0  0  0  0
  149.2860  135.0560  153.9918 H   0  0  0  0  0  0  0  0  0  0  0  0
  146.6302  132.8465  150.1839 H   0  0  0  0  0  0  0  0  0  0  0  0
  145.0403  132.7084  150.8734 H   0  0  0  0  0  0  0  0  0  0  0  0
  146.8375  135.1435  151.1423 H   0  0  0  0  0  0  0  0  0  0  0  0
  145.3902  135.0076  150.1834 H   0  0  0  0  0  0  0  0  0  0  0  0
  144.9495  136.1692  152.3589 H   0  0  0  0  0  0  0  0  0  0  0  0
  143.9941  134.7174  152.1850 H   0  0  0  0  0  0  0  0  0  0  0  0
  146.5412  135.0216  153.8460 H   0  0  0  0  0  0  0  0  0  0  0  0
  144.9263  134.7899  154.4535 H   0  0  0  0  0  0  0  0  0  0  0  0
  144.7821  132.5632  153.5089 H   0  0  0  0  0  0  0  0  0  0  0  0
  146.2147  132.6463  154.4991 H   0  0  0  0  0  0  0  0  0  0  0  0
  1  2  1  0  0  0  0
  1 21  1  0  0  0  0
  1 22  1  0  0  0  0
  1 23  1  0  0  0  0
  2  3  1  0  0  0  0
  2 24  1  0  0  0  0
  2 25  1  0  0  0  0
  3  4  1  0  0  0  0
  3 26  1  0  0  0  0
  3 27  1  0  0  0  0
  4  5  1  0  0  0  0
  5 20  1  0  0  0  0
  5  6  1  0  0  0  0
  5 16  1  0  0  0  0
  6  7  1  0  0  0  0
  6 28  1  0  0  0  0
  6 29  1  0  0  0  0
  7  8  1  0  0  0  0
  7 30  1  0  0  0  0
  8 14  2  0  0  0  0
  8  9  1  0  0  0  0
  9 10  2  0  0  0  0
  9 31  1  0  0  0  0
 10 11  1  0  0  0  0
 11 12  1  0  0  0  0
 12 13  2  0  0  0  0
 12 14  1  0  0  0  0
 14 15  1  0  0  0  0
 16 17  1  0  0  0  0
 16 32  1  0  0  0  0
 16 33  1  0  0  0  0
 17 18  1  0  0  0  0
 17 34  1  0  0  0  0
 17 35  1  0  0  0  0
 18 19  1  0  0  0  0
 18 36  1  0  0  0  0
 18 37  1  0  0  0  0
 19 20  1  0  0  0  0
 19 38  1  0  0  0  0
 19 39  1  0  0  0  0
 20 40  1  0  0  0  0
 20 41  1  0  0  0  0
M  CHG  1  11  -1
M  END
> <s_m_source_file>
AV-unprocessed.smi

> <i_m_source_file_index>
2884

> <i_lp_mmshare_version>
43012

> <i_f3d_flags>
0

> <s_epik_input>
W0NIMl0xW0NIMl1bQ0gyXVtDSDJdW0NIMl1DMShPW0NIMl1bQ0gyXVtDSDNdKVtDSDJdW05IXWMyW2NIXW5bbkhdYyg9TyljMkNs

> <s_epik_cmdline>
J2VwaWtfcHl0aG9uJywgJy1waCcsICc3LjAnLCAnLXRuJywgJzgnLCAnLW1hJywgJzIwMCcsICctbWV0YWxfYmluZGluZycsICctaW1hZScsICc8aW5maWxlLm1hZT4nLCAnLW9tYWUnLCAnPG91dGZpbGUubWFlPic=

> <r_lp_tautomer_probability>
0.986175

> <r_epik_Ionization_Penalty>
3.75229

> <r_epik_Ionization_Penalty_Charging>
0.0129106

> <r_epik_Ionization_Penalty_Neutral>
3.73938

> <r_epik_State_Penalty>
3.73863

> <r_epik_Charging_Adjusted_Penalty>
3.75154

> <i_epik_Tot_Q>
-1

> <i_epik_Tot_abs_Q>
1

> <r_epik_Metal_State_Penalty>
0.55642

> <b_epik_Metal_Only>
1

> <s_lp_Force_Field>
OPLS_2005

> <r_lp_Energy>
41.2708

> <b_lp_Chiralities_Consistent>
1

> <s_lp_Variant>
AV-unprocessed.smi:2884-3

> <Gold.Version>
5.8.1

> <Gold.Id.Protein>
6NUR|6NUR_protein|mol2

> <Gold.PLP.Fitness>
39.6853

> <Gold.PLP.PLP>
-34.0512

> <Gold.PLP.part.hbond>
-1.4584

> <Gold.PLP.part.metal>
0.0000

> <Gold.PLP.part.buried>
-5.5479

> <Gold.PLP.part.nonpolar>
-28.1786

> <Gold.PLP.part.repulsive>
1.0233

> <Gold.PLP.ligand.clash>
0.0000

> <Gold.PLP.ligand.torsion>
0.1931

> <Gold.PLP.Chemscore.Hbond>
1.0000

> <Gold.PLP.Chemscore.CHOScore>
1.0000

> <Gold.PLP.Chemscore.Metal>
0.0000

> <Gold.Chemscore.Hbonds>
donor molecule, donor type, donor heavy atom, donor atom, acceptor molecule, acceptor atom, score
      P1  H  6896  6909       L1    13  1.00
      L1  C     9    31       P1  7948  1.00

> <Gold.PLP.Chemscore.Internal.Correction>
0.0202

> <Gold.Rescore>
     Score         DG    S(hbond)    S(metal)    S(lipo)     H(rot)  DE(clash)    DE(int)     intcor
     13.95     -14.07       0.94        0.00      83.79       1.71       0.01       0.10       ----

> <Gold.Chemscore.Fitness>
13.9496

> <Gold.Chemscore.DG>
-14.0671

> <Gold.Chemscore.ZeroCoef>
-5.4800

> <Gold.Chemscore.Hbond>
0.9441

> <Gold.Chemscore.Metal>
0.0000

> <Gold.Chemscore.Lipo>
83.7888

> <Gold.Chemscore.Internal_Hbond>
0.0000

> <Gold.Chemscore.DEClash>
0.0147

> <Gold.Chemscore.DEInternal>
0.1028

> <Gold.Chemscore.Rot>
1.7068

> <Gold.Chemscore.Internal.Correction>
   9.000000E+99

> <Gold.Chemscore.Hbonds>
donor molecule, donor type, donor heavy atom, donor atom, acceptor molecule, acceptor atom, score
      P1  H  6896  6909       L1    13  0.69

> <Gold.Chemscore.Hbond.Weighted>
-3.1532

> <Gold.Chemscore.Metal.Weighted>
-0.0000

> <Gold.Chemscore.Lipo.Weighted>
-9.8033

> <Gold.Chemscore.Internal_Hbond.Weighted>
0.0000

> <Gold.Chemscore.DEClash.Weighted>
0.0147

> <Gold.Chemscore.DEInternal.Weighted>
0.1028

> <Gold.Chemscore.Rot.Weighted>
4.3694

> <Gold.Chemscore.Internal.Correction.Weighted>
   9.000000E+99

> <Gold.Protein.RotatedTorsions>
[ 6907 6896 6895 6894 ] final  -59.60 input  -60.11 | X-H torsion
[ 7974 7965 7964 7962 ] final  130.56 input  175.53 | X-H torsion
[ 8008 7997 7996 7995 ] final -144.65 input   59.86 | X-H torsion
[ 10167 10162 10161 10158 ] final   52.69 input  -65.29 | X-H torsion
[ 10718 10713 10712 10709 ] final -120.69 input   66.30 | X-H torsion
[ 10763 10752 10751 10750 ] final   -0.81 input  -60.55 | X-H torsion
[ 11005 11000 10999 10996 ] final -128.91 input  -57.11 | X-H torsion

> <Gold.Protein.ActiveResidues>
 VAL166  LYS551  ARG553  GLY616  TRP617  ASP618  TYR619  PRO620  LYS621  CYS622 
 ASP623  PHE694  ASN695  SER759  ASP760  ASP761  ALA762  ILE779  LEU786  VAL792 
 PHE793  MET794  SER795  GLU796  ALA797  LYS798  CYS799  TRP800  GLU811  SER814 

> <Gold.Protein.RotatedAtoms>
  150.7918  134.6948  159.6516 H   0  0  0  0  0  0  0  0  0  0  0  0  # atno 6907 bound_to 6896
  152.4025  134.6259  160.0072 H   0  0  0  0  0  0  0  0  0  0  0  0  # atno 6908 bound_to 6896
  151.6526  133.3283  159.3191 H   0  0  0  0  0  0  0  0  0  0  0  0  # atno 6909 bound_to 6896
  145.0166  139.4170  143.5218 H   0  0  0  0  0  0  0  0  0  0  0  0  # atno 7974 bound_to 7965
  155.5304  140.0599  157.2890 H   0  0  0  0  0  0  0  0  0  0  0  0  # atno 8008 bound_to 7997
  154.4486  140.1937  156.0533 H   0  0  0  0  0  0  0  0  0  0  0  0  # atno 8009 bound_to 7997
  156.0656  140.3267  155.7518 H   0  0  0  0  0  0  0  0  0  0  0  0  # atno 8010 bound_to 7997
  140.2486  144.3504  150.6355 H   0  0  0  0  0  0  0  0  0  0  0  0  # atno 10167 bound_to 10162
  156.1278  130.6372  150.9571 H   0  0  0  0  0  0  0  0  0  0  0  0  # atno 10718 bound_to 10713
  153.3367  135.6978  153.6901 H   0  0  0  0  0  0  0  0  0  0  0  0  # atno 10763 bound_to 10752
  153.5683  135.3521  155.2828 H   0  0  0  0  0  0  0  0  0  0  0  0  # atno 10764 bound_to 10752
  154.8629  135.4266  154.2569 H   0  0  0  0  0  0  0  0  0  0  0  0  # atno 10765 bound_to 10752
  140.9476  134.1108  157.4092 H   0  0  0  0  0  0  0  0  0  0  0  0  # atno 11005 bound_to 11000
  146.3479  139.9640  142.8714 LP  0  0  0  0  0  0  0  0  0  0  0  0  # atno 17320 bound_to 7965
  145.1951  140.9829  143.4188 LP  0  0  0  0  0  0  0  0  0  0  0  0  # atno 17321 bound_to 7965
  140.6058  143.2167  151.6984 LP  0  0  0  0  0  0  0  0  0  0  0  0  # atno 17342 bound_to 10162
  139.5053  144.3721  152.0460 LP  0  0  0  0  0  0  0  0  0  0  0  0  # atno 17343 bound_to 10162
  157.6458  131.0904  150.8156 LP  0  0  0  0  0  0  0  0  0  0  0  0  # atno 17370 bound_to 10713
  156.8245  130.4995  149.5339 LP  0  0  0  0  0  0  0  0  0  0  0  0  # atno 17371 bound_to 10713
  139.8838  135.0056  156.6325 LP  0  0  0  0  0  0  0  0  0  0  0  0  # atno 17394 bound_to 11000
  140.7647  133.8788  155.8445 LP  0  0  0  0  0  0  0  0  0  0  0  0  # atno 17395 bound_to 11000

$$$$
