AV-unprocessed.smi:213|AV-procd|sdf|1647|dock2
  -GOLD-   2262020 23D 1   1.00000     0.00000
 Structure written by MMmdl.
 58 61  0  0  0  0  0  0  0  0  1 V2000
  145.4959  136.4113  151.7445 C   0  0  0  0  0  0  0  0  0  0  0  0
  145.3546  137.3822  152.9299 C   0  0  2  0  0  0  0  0  0  0  0  0
  143.9712  138.0700  152.9607 C   0  0  0  0  0  0  0  0  0  0  0  0
  142.9040  137.3082  153.6107 N   0  0  0  0  0  0  0  0  0  0  0  0
  142.7275  136.0074  152.9734 C   0  0  0  0  0  0  0  0  0  0  0  0
  141.6131  135.1852  153.6431 C   0  0  0  0  0  0  0  0  0  0  0  0
  140.3967  135.9244  153.6189 O   0  0  0  0  0  0  0  0  0  0  0  0
  140.5089  137.1861  154.2688 C   0  0  0  0  0  0  0  0  0  0  0  0
  141.6236  138.0142  153.6058 C   0  0  0  0  0  0  0  0  0  0  0  0
  146.4318  138.3759  152.9247 N   0  0  0  0  0  0  0  0  0  0  0  0
  146.4814  139.4337  151.9177 C   0  0  0  0  0  0  0  0  0  0  0  0
  147.3578  138.3910  153.9200 C   0  0  0  0  0  0  0  0  0  0  0  0
  147.5760  137.2416  154.6130 N   0  0  0  0  0  0  0  0  0  0  0  0
  148.4800  137.2020  155.5956 C   0  0  0  0  0  0  0  0  0  0  0  0
  149.2624  138.1822  156.0487 N   0  0  0  0  0  0  0  0  0  0  0  0
  149.0394  139.3447  155.3720 C   0  0  0  0  0  0  0  0  0  0  0  0
  148.1153  139.5377  154.3046 C   0  0  0  0  0  0  0  0  0  0  0  0
  148.1606  140.8637  153.8848 N   0  0  0  0  0  0  0  0  0  0  0  0
  149.0634  141.4157  154.6476 C   0  0  0  0  0  0  0  0  0  0  0  0
  149.6402  140.5755  155.5706 N   0  0  0  0  0  0  0  0  0  0  0  0
  150.6575  140.9286  156.5452 C   0  0  0  0  0  0  0  0  0  0  0  0
  150.2188  142.0916  157.4567 C   0  0  1  0  0  0  0  0  0  0  0  0
  149.4758  141.6085  158.5603 O   0  0  0  0  0  0  0  0  0  0  0  0
  151.4031  142.9589  157.9322 C   0  0  1  0  0  0  0  0  0  0  0  0
  151.0529  144.3085  158.5664 C   0  0  0  0  0  0  0  0  0  0  0  0
  152.2901  144.5747  159.3946 C   0  0  0  0  0  0  0  0  0  0  0  0
  152.6280  143.1764  159.9056 C   0  0  0  0  0  0  0  0  0  0  0  0
  152.2228  142.2762  158.8780 O   0  0  0  0  0  0  0  0  0  0  0  0
  144.7561  135.6127  151.8025 H   0  0  0  0  0  0  0  0  0  0  0  0
  146.4797  135.9419  151.7362 H   0  0  0  0  0  0  0  0  0  0  0  0
  145.3602  136.9162  150.7881 H   0  0  0  0  0  0  0  0  0  0  0  0
  145.4388  136.8030  153.8457 H   0  0  0  0  0  0  0  0  0  0  0  0
  144.0634  139.0422  153.4476 H   0  0  0  0  0  0  0  0  0  0  0  0
  143.6756  138.2817  151.9322 H   0  0  0  0  0  0  0  0  0  0  0  0
  142.4913  136.1416  151.9165 H   0  0  0  0  0  0  0  0  0  0  0  0
  143.6611  135.4452  153.0146 H   0  0  0  0  0  0  0  0  0  0  0  0
  141.4684  134.2422  153.1160 H   0  0  0  0  0  0  0  0  0  0  0  0
  141.8784  134.9403  154.6729 H   0  0  0  0  0  0  0  0  0  0  0  0
  139.5551  137.7095  154.1988 H   0  0  0  0  0  0  0  0  0  0  0  0
  140.7166  137.0395  155.3300 H   0  0  0  0  0  0  0  0  0  0  0  0
  141.7073  138.9630  154.1340 H   0  0  0  0  0  0  0  0  0  0  0  0
  141.3351  138.2511  152.5805 H   0  0  0  0  0  0  0  0  0  0  0  0
  147.5108  139.6422  151.6229 H   0  0  0  0  0  0  0  0  0  0  0  0
  146.0418  140.3515  152.3091 H   0  0  0  0  0  0  0  0  0  0  0  0
  145.9315  139.1529  151.0200 H   0  0  0  0  0  0  0  0  0  0  0  0
  148.5929  136.2481  156.0891 H   0  0  0  0  0  0  0  0  0  0  0  0
  149.3308  142.4588  154.5615 H   0  0  0  0  0  0  0  0  0  0  0  0
  150.8963  140.0440  157.1370 H   0  0  0  0  0  0  0  0  0  0  0  0
  151.5667  141.1962  156.0057 H   0  0  0  0  0  0  0  0  0  0  0  0
  149.5440  142.7357  156.8914 H   0  0  0  0  0  0  0  0  0  0  0  0
  149.0792  140.7857  158.3190 H   0  0  0  0  0  0  0  0  0  0  0  0
  152.0467  143.1552  157.0730 H   0  0  0  0  0  0  0  0  0  0  0  0
  150.8554  145.0869  157.8290 H   0  0  0  0  0  0  0  0  0  0  0  0
  150.1864  144.2346  159.2243 H   0  0  0  0  0  0  0  0  0  0  0  0
  153.0944  144.9485  158.7592 H   0  0  0  0  0  0  0  0  0  0  0  0
  152.1250  145.2937  160.1975 H   0  0  0  0  0  0  0  0  0  0  0  0
  153.6861  143.0621  160.1422 H   0  0  0  0  0  0  0  0  0  0  0  0
  152.0539  142.9527  160.8055 H   0  0  0  0  0  0  0  0  0  0  0  0
  1  2  1  0  0  0  0
  1 29  1  0  0  0  0
  1 30  1  0  0  0  0
  1 31  1  0  0  0  0
  2  3  1  0  0  0  0
  2 10  1  0  0  0  0
  2 32  1  0  0  0  0
  3  4  1  0  0  0  0
  3 33  1  0  0  0  0
  3 34  1  0  0  0  0
  4  9  1  0  0  0  0
  4  5  1  0  0  0  0
  5  6  1  0  0  0  0
  5 35  1  0  0  0  0
  5 36  1  0  0  0  0
  6  7  1  0  0  0  0
  6 37  1  0  0  0  0
  6 38  1  0  0  0  0
  7  8  1  0  0  0  0
  8  9  1  0  0  0  0
  8 39  1  0  0  0  0
  8 40  1  0  0  0  0
  9 41  1  0  0  0  0
  9 42  1  0  0  0  0
 10 11  1  0  0  0  0
 10 12  1  0  0  0  0
 11 43  1  0  0  0  0
 11 44  1  0  0  0  0
 11 45  1  0  0  0  0
 12 17  1  0  0  0  0
 12 13  2  0  0  0  0
 13 14  1  0  0  0  0
 14 15  2  0  0  0  0
 14 46  1  0  0  0  0
 15 16  1  0  0  0  0
 16 20  1  0  0  0  0
 16 17  2  0  0  0  0
 17 18  1  0  0  0  0
 18 19  2  0  0  0  0
 19 20  1  0  0  0  0
 19 47  1  0  0  0  0
 20 21  1  0  0  0  0
 21 22  1  0  0  0  0
 21 48  1  0  0  0  0
 21 49  1  0  0  0  0
 22 23  1  0  0  0  0
 22 24  1  0  0  0  0
 22 50  1  0  0  0  0
 23 51  1  0  0  0  0
 24 28  1  0  0  0  0
 24 25  1  0  0  0  0
 24 52  1  0  0  0  0
 25 26  1  0  0  0  0
 25 53  1  0  0  0  0
 25 54  1  0  0  0  0
 26 27  1  0  0  0  0
 26 55  1  0  0  0  0
 26 56  1  0  0  0  0
 27 28  1  0  0  0  0
 27 57  1  0  0  0  0
 27 58  1  0  0  0  0
M  END
> <s_m_source_file>
AV-unprocessed.smi

> <i_m_source_file_index>
213

> <i_lp_mmshare_version>
43012

> <i_f3d_flags>
0

> <s_epik_input>
W0NIMl0xW0NIMl1PW0NIMl1bQ0gyXU4xW0NIMl1bQ0BASF0oW0NIM10pTihbQ0gzXSljKG5bY0hdbjIpYyhjMjMpbltjSF1uM1tDSDJdW0NASF0oW09IXSlbQ0BASF00W0NIMl1bQ0gyXVtDSDJdTzQ=

> <s_epik_cmdline>
J2VwaWtfcHl0aG9uJywgJy1waCcsICc3LjAnLCAnLXRuJywgJzgnLCAnLW1hJywgJzIwMCcsICctbWV0YWxfYmluZGluZycsICctaW1hZScsICc8aW5maWxlLm1hZT4nLCAnLW9tYWUnLCAnPG91dGZpbGUubWFlPic=

> <r_lp_tautomer_probability>
1

> <r_epik_Ionization_Penalty>
0.423322

> <r_epik_Ionization_Penalty_Charging>
0

> <r_epik_Ionization_Penalty_Neutral>
0.423322

> <r_epik_State_Penalty>
0.569486

> <r_epik_Charging_Adjusted_Penalty>
0.569486

> <i_epik_Tot_Q>
0

> <i_epik_Tot_abs_Q>
0

> <r_epik_Metal_State_Penalty>
0.568671

> <b_epik_Metal_Only>
0

> <s_lp_Force_Field>
OPLS_2005

> <r_lp_Energy>
53.6453

> <b_lp_Chiralities_Consistent>
1

> <s_lp_Variant>
AV-unprocessed.smi:213-15

> <Gold.Version>
5.8.1

> <Gold.Id.Protein>
6NUR|6NUR_protein|mol2

> <Gold.PLP.Fitness>
45.6015

> <Gold.PLP.PLP>
-43.7782

> <Gold.PLP.part.hbond>
0.0000

> <Gold.PLP.part.metal>
0.0000

> <Gold.PLP.part.buried>
0.0048

> <Gold.PLP.part.nonpolar>
-46.7092

> <Gold.PLP.part.repulsive>
2.0670

> <Gold.PLP.ligand.clash>
0.0000

> <Gold.PLP.ligand.torsion>
1.0641

> <Gold.PLP.Chemscore.Hbond>
0.0000

> <Gold.PLP.Chemscore.CHOScore>
0.9875

> <Gold.PLP.Chemscore.Metal>
0.0000

> <Gold.Chemscore.Hbonds>
donor molecule, donor type, donor heavy atom, donor atom, acceptor molecule, acceptor atom, score
      L1  C    19    47       P1  8028  0.98

> <Gold.PLP.Chemscore.Internal.Correction>
0.9889

> <Gold.Rescore>
     Score         DG    S(hbond)    S(metal)    S(lipo)     H(rot)  DE(clash)    DE(int)     intcor
      6.89     -10.77       0.00        0.00     105.01       2.74       1.60       2.27       ----

> <Gold.Chemscore.Fitness>
6.8937

> <Gold.Chemscore.DG>
-10.7653

> <Gold.Chemscore.ZeroCoef>
-5.4800

> <Gold.Chemscore.Hbond>
0.0025

> <Gold.Chemscore.Metal>
0.0000

> <Gold.Chemscore.Lipo>
105.0061

> <Gold.Chemscore.Internal_Hbond>
0.0000

> <Gold.Chemscore.DEClash>
1.6041

> <Gold.Chemscore.DEInternal>
2.2674

> <Gold.Chemscore.Rot>
2.7378

> <Gold.Chemscore.Internal.Correction>
   9.000000E+99

> <Gold.Chemscore.Hbond.Weighted>
-0.0082

> <Gold.Chemscore.Metal.Weighted>
-0.0000

> <Gold.Chemscore.Lipo.Weighted>
-12.2857

> <Gold.Chemscore.Internal_Hbond.Weighted>
0.0000

> <Gold.Chemscore.DEClash.Weighted>
1.6041

> <Gold.Chemscore.DEInternal.Weighted>
2.2674

> <Gold.Chemscore.Rot.Weighted>
7.0087

> <Gold.Chemscore.Internal.Correction.Weighted>
   9.000000E+99

> <Gold.Protein.RotatedTorsions>
[ 6907 6896 6895 6894 ] final   65.73 input  -60.11 | X-H torsion
[ 7974 7965 7964 7962 ] final -155.92 input  175.53 | X-H torsion
[ 8008 7997 7996 7995 ] final -142.36 input   59.86 | X-H torsion
[ 10167 10162 10161 10158 ] final  172.89 input  -65.29 | X-H torsion
[ 10718 10713 10712 10709 ] final -172.35 input   66.30 | X-H torsion
[ 10763 10752 10751 10750 ] final  137.96 input  -60.55 | X-H torsion
[ 11005 11000 10999 10996 ] final   39.56 input  -57.11 | X-H torsion

> <Gold.Protein.ActiveResidues>
 VAL166  LYS551  ARG553  GLY616  TRP617  ASP618  TYR619  PRO620  LYS621  CYS622 
 ASP623  PHE694  ASN695  SER759  ASP760  ASP761  ALA762  ILE779  LEU786  VAL792 
 PHE793  MET794  SER795  GLU796  ALA797  LYS798  CYS799  TRP800  GLU811  SER814 

> <Gold.Protein.RotatedAtoms>
  152.4429  134.5554  159.9878 H   0  0  0  0  0  0  0  0  0  0  0  0  # atno 6907 bound_to 6896
  151.5647  133.3392  159.2986 H   0  0  0  0  0  0  0  0  0  0  0  0  # atno 6908 bound_to 6896
  150.8339  134.7637  159.6940 H   0  0  0  0  0  0  0  0  0  0  0  0  # atno 6909 bound_to 6896
  144.7617  140.4181  143.5972 H   0  0  0  0  0  0  0  0  0  0  0  0  # atno 7974 bound_to 7965
  155.4929  140.0569  157.2951 H   0  0  0  0  0  0  0  0  0  0  0  0  # atno 8008 bound_to 7997
  154.4616  140.1999  156.0180 H   0  0  0  0  0  0  0  0  0  0  0  0  # atno 8009 bound_to 7997
  156.0900  140.3234  155.7808 H   0  0  0  0  0  0  0  0  0  0  0  0  # atno 8010 bound_to 7997
  139.5091  144.3322  152.0100 H   0  0  0  0  0  0  0  0  0  0  0  0  # atno 10167 bound_to 10162
  156.7543  130.9390  151.3116 H   0  0  0  0  0  0  0  0  0  0  0  0  # atno 10718 bound_to 10713
  153.8816  135.3043  155.3445 H   0  0  0  0  0  0  0  0  0  0  0  0  # atno 10763 bound_to 10752
  154.7758  135.4862  153.9745 H   0  0  0  0  0  0  0  0  0  0  0  0  # atno 10764 bound_to 10752
  153.1348  135.6811  153.9218 H   0  0  0  0  0  0  0  0  0  0  0  0  # atno 10765 bound_to 10752
  140.2016  134.3863  155.8093 H   0  0  0  0  0  0  0  0  0  0  0  0  # atno 11005 bound_to 11000
  145.6599  139.1579  143.2814 LP  0  0  0  0  0  0  0  0  0  0  0  0  # atno 17320 bound_to 7965
  146.1686  140.6680  142.9244 LP  0  0  0  0  0  0  0  0  0  0  0  0  # atno 17321 bound_to 7965
  140.2762  144.3910  150.6134 LP  0  0  0  0  0  0  0  0  0  0  0  0  # atno 17342 bound_to 10162
  140.6052  143.2167  151.6995 LP  0  0  0  0  0  0  0  0  0  0  0  0  # atno 17343 bound_to 10162
  157.6763  130.9097  150.0158 LP  0  0  0  0  0  0  0  0  0  0  0  0  # atno 17370 bound_to 10713
  156.1380  130.3642  149.9626 LP  0  0  0  0  0  0  0  0  0  0  0  0  # atno 17371 bound_to 10713
  141.2227  133.7097  156.8268 LP  0  0  0  0  0  0  0  0  0  0  0  0  # atno 17394 bound_to 11000
  140.2047  134.8871  157.3209 LP  0  0  0  0  0  0  0  0  0  0  0  0  # atno 17395 bound_to 11000

$$$$
