AV-unprocessed.smi:672|AV-procd|sdf|3294|dock8
  -GOLD-   22720 0253D 1   1.00000     0.00000
 Structure written by MMmdl.
 35 36  0  0  0  0  0  0  0  0  2 V2000
  145.7771  135.2320  162.5970 C   0  0  0  0  0  0  0  0  0  0  0  0
  145.7117  136.5524  161.8220 C   0  0  0  0  0  0  0  0  0  0  0  0
  146.9209  136.7818  160.9782 C   0  0  0  0  0  0  0  0  0  0  0  0
  147.0238  137.8009  160.1208 N   0  0  0  0  0  0  0  0  0  0  0  0
  148.2279  137.7848  159.4322 N   0  0  0  0  0  0  0  0  0  0  0  0
  149.0062  136.7428  159.7574 C   0  0  0  0  0  0  0  0  0  0  0  0
  150.2128  136.5438  159.2018 N   0  5  0  0  0  0  0  0  0  0  0  0
  150.6816  137.4117  158.2765 C   0  0  0  0  0  0  0  0  0  0  0  0
  150.8173  137.1911  157.0706 O   0  0  0  0  0  0  0  0  0  0  0  0
  151.0128  138.6103  158.7781 N   0  0  0  0  0  0  0  0  0  0  0  0
  151.5463  139.7387  158.0180 C   0  0  1  0  0  0  0  0  0  0  0  0
  150.4282  140.7015  157.5687 C   0  0  0  0  0  0  0  0  0  0  0  0
  150.6248  141.9862  158.3746 C   0  0  0  0  0  0  0  0  0  0  0  0
  152.1296  142.0388  158.6317 C   0  0  1  0  0  0  0  0  0  0  0  0
  152.5842  143.1244  160.0154 S   0  0  0  0  0  0  0  0  0  0  0  0
  152.2392  144.7450  159.2813 C   0  0  0  0  0  0  0  0  0  0  0  0
  152.5082  140.5766  158.8813 C   0  0  0  0  0  0  0  0  0  0  0  0
  148.2988  135.6935  160.9856 S   0  0  0  0  0  0  0  0  0  0  0  0
  144.8832  135.0937  163.2050 H   0  0  0  0  0  0  0  0  0  0  0  0
  146.6404  135.2095  163.2628 H   0  0  0  0  0  0  0  0  0  0  0  0
  145.8547  134.3817  161.9186 H   0  0  0  0  0  0  0  0  0  0  0  0
  144.8276  136.5661  161.1836 H   0  0  0  0  0  0  0  0  0  0  0  0
  145.6077  137.3864  162.5166 H   0  0  0  0  0  0  0  0  0  0  0  0
  150.8832  138.7486  159.7697 H   0  0  0  0  0  0  0  0  0  0  0  0
  152.0811  139.3694  157.1408 H   0  0  0  0  0  0  0  0  0  0  0  0
  150.5490  140.9192  156.5069 H   0  0  0  0  0  0  0  0  0  0  0  0
  149.4248  140.2932  157.6974 H   0  0  0  0  0  0  0  0  0  0  0  0
  150.2534  142.8658  157.8484 H   0  0  0  0  0  0  0  0  0  0  0  0
  150.0861  141.9090  159.3203 H   0  0  0  0  0  0  0  0  0  0  0  0
  152.6375  142.3838  157.7298 H   0  0  0  0  0  0  0  0  0  0  0  0
  152.4983  145.5367  159.9842 H   0  0  0  0  0  0  0  0  0  0  0  0
  151.1821  144.8381  159.0331 H   0  0  0  0  0  0  0  0  0  0  0  0
  152.8255  144.8844  158.3731 H   0  0  0  0  0  0  0  0  0  0  0  0
  152.3698  140.3413  159.9381 H   0  0  0  0  0  0  0  0  0  0  0  0
  153.5537  140.3781  158.6429 H   0  0  0  0  0  0  0  0  0  0  0  0
  1  2  1  0  0  0  0
  1 19  1  0  0  0  0
  1 20  1  0  0  0  0
  1 21  1  0  0  0  0
  2  3  1  0  0  0  0
  2 22  1  0  0  0  0
  2 23  1  0  0  0  0
  3 18  1  0  0  0  0
  3  4  2  0  0  0  0
  4  5  1  0  0  0  0
  5  6  2  0  0  0  0
  6  7  1  0  0  0  0
  6 18  1  0  0  0  0
  7  8  1  0  0  0  0
  8  9  2  0  0  0  0
  8 10  1  0  0  0  0
 10 11  1  0  0  0  0
 10 24  1  0  0  0  0
 11 17  1  0  0  0  0
 11 12  1  0  0  0  0
 11 25  1  0  0  0  0
 12 13  1  0  0  0  0
 12 26  1  0  0  0  0
 12 27  1  0  0  0  0
 13 14  1  0  0  0  0
 13 28  1  0  0  0  0
 13 29  1  0  0  0  0
 14 15  1  0  0  0  0
 14 17  1  0  0  0  0
 14 30  1  0  0  0  0
 15 16  1  0  0  0  0
 16 31  1  0  0  0  0
 16 32  1  0  0  0  0
 16 33  1  0  0  0  0
 17 34  1  0  0  0  0
 17 35  1  0  0  0  0
M  CHG  1   7  -1
M  END
> <s_m_source_file>
AV-unprocessed.smi

> <i_m_source_file_index>
672

> <i_lp_mmshare_version>
43012

> <i_f3d_flags>
0

> <s_epik_input>
W0NIM11bQ0gyXWMxbm5jKHMxKVtOSF1DKD1PKVtOSF1bQ0BASF0yW0NIMl1bQ0gyXVtDQEhdKFtDSDJdMilTW0NIM10=

> <s_epik_cmdline>
J2VwaWtfcHl0aG9uJywgJy1waCcsICc3LjAnLCAnLXRuJywgJzgnLCAnLW1hJywgJzIwMCcsICctbWV0YWxfYmluZGluZycsICctaW1hZScsICc8aW5maWxlLm1hZT4nLCAnLW9tYWUnLCAnPG91dGZpbGUubWFlPic=

> <r_lp_tautomer_probability>
1

> <r_epik_Ionization_Penalty>
4.49964

> <r_epik_Ionization_Penalty_Charging>
4.32991

> <r_epik_Ionization_Penalty_Neutral>
0.169727

> <r_epik_State_Penalty>
4.32952

> <r_epik_Charging_Adjusted_Penalty>
8.65943

> <i_epik_Tot_Q>
-1

> <i_epik_Tot_abs_Q>
1

> <r_epik_Metal_State_Penalty>
0.740482

> <b_epik_Metal_Only>
1

> <s_lp_Force_Field>
OPLS_2005

> <r_lp_Energy>
10.5366

> <b_lp_Chiralities_Consistent>
1

> <s_lp_Variant>
AV-unprocessed.smi:672-6

> <Gold.Version>
5.8.1

> <Gold.Id.Protein>
6NUR|6NUR_protein|mol2

> <Gold.PLP.Fitness>
37.7971

> <Gold.PLP.PLP>
-30.9634

> <Gold.PLP.part.hbond>
-3.2437

> <Gold.PLP.part.metal>
0.0000

> <Gold.PLP.part.buried>
-4.5749

> <Gold.PLP.part.nonpolar>
-23.6396

> <Gold.PLP.part.repulsive>
0.1435

> <Gold.PLP.ligand.clash>
0.0000

> <Gold.PLP.ligand.torsion>
1.1077

> <Gold.PLP.Chemscore.Hbond>
3.0000

> <Gold.PLP.Chemscore.CHOScore>
0.0000

> <Gold.PLP.Chemscore.Metal>
0.0000

> <Gold.Chemscore.Hbonds>
donor molecule, donor type, donor heavy atom, donor atom, acceptor molecule, acceptor atom, score
      P1  H  6896  6907       L1     7  2.00
      P1  H  6934  6947       L1     4  0.83

> <Gold.PLP.Chemscore.Internal.Correction>
0.0491

> <Gold.Rescore>
     Score         DG    S(hbond)    S(metal)    S(lipo)     H(rot)  DE(clash)    DE(int)     intcor
     14.40     -15.45       1.05        0.00      84.60       1.34       0.03       1.01       ----

> <Gold.Chemscore.Fitness>
14.3974

> <Gold.Chemscore.DG>
-15.4452

> <Gold.Chemscore.ZeroCoef>
-5.4800

> <Gold.Chemscore.Hbond>
1.0479

> <Gold.Chemscore.Metal>
0.0000

> <Gold.Chemscore.Lipo>
84.5992

> <Gold.Chemscore.Internal_Hbond>
0.0000

> <Gold.Chemscore.DEClash>
0.0340

> <Gold.Chemscore.DEInternal>
1.0139

> <Gold.Chemscore.Rot>
1.3410

> <Gold.Chemscore.Internal.Correction>
   9.000000E+99

> <Gold.Chemscore.Hbonds>
donor molecule, donor type, donor heavy atom, donor atom, acceptor molecule, acceptor atom, score
      P1  H  6896  6907       L1     7  0.69
      P1  H  6934  6947       L1     4  0.16

> <Gold.Chemscore.Hbond.Weighted>
-3.5000

> <Gold.Chemscore.Metal.Weighted>
-0.0000

> <Gold.Chemscore.Lipo.Weighted>
-9.8981

> <Gold.Chemscore.Internal_Hbond.Weighted>
0.0000

> <Gold.Chemscore.DEClash.Weighted>
0.0340

> <Gold.Chemscore.DEInternal.Weighted>
1.0139

> <Gold.Chemscore.Rot.Weighted>
3.4329

> <Gold.Chemscore.Internal.Correction.Weighted>
   9.000000E+99

> <Gold.Protein.RotatedTorsions>
[ 6907 6896 6895 6894 ] final  -50.81 input  -60.11 | X-H torsion
[ 7974 7965 7964 7962 ] final  101.28 input  175.53 | X-H torsion
[ 8008 7997 7996 7995 ] final   81.70 input   59.86 | X-H torsion
[ 10167 10162 10161 10158 ] final  -30.83 input  -65.29 | X-H torsion
[ 10718 10713 10712 10709 ] final -124.88 input   66.30 | X-H torsion
[ 10763 10752 10751 10750 ] final  -51.10 input  -60.55 | X-H torsion
[ 11005 11000 10999 10996 ] final  -90.99 input  -57.11 | X-H torsion

> <Gold.Protein.ActiveResidues>
 VAL166  LYS551  ARG553  GLY616  TRP617  ASP618  TYR619  PRO620  LYS621  CYS622 
 ASP623  PHE694  ASN695  SER759  ASP760  ASP761  ALA762  ILE779  LEU786  VAL792 
 PHE793  MET794  SER795  GLU796  ALA797  LYS798  CYS799  TRP800  GLU811  SER814 

> <Gold.Protein.RotatedAtoms>
  150.8671  134.8037  159.7126 H   0  0  0  0  0  0  0  0  0  0  0  0  # atno 6907 bound_to 6896
  152.4688  134.5006  159.9733 H   0  0  0  0  0  0  0  0  0  0  0  0  # atno 6908 bound_to 6896
  151.5101  133.3448  159.2919 H   0  0  0  0  0  0  0  0  0  0  0  0  # atno 6909 bound_to 6896
  145.3744  139.2391  143.3437 H   0  0  0  0  0  0  0  0  0  0  0  0  # atno 7974 bound_to 7965
  155.9006  140.3433  155.6024 H   0  0  0  0  0  0  0  0  0  0  0  0  # atno 8008 bound_to 7997
  155.7504  140.0819  157.2223 H   0  0  0  0  0  0  0  0  0  0  0  0  # atno 8009 bound_to 7997
  154.4043  140.1554  156.2705 H   0  0  0  0  0  0  0  0  0  0  0  0  # atno 8010 bound_to 7997
  140.7244  143.3818  151.1587 H   0  0  0  0  0  0  0  0  0  0  0  0  # atno 10167 bound_to 10162
  156.1627  130.6613  151.0071 H   0  0  0  0  0  0  0  0  0  0  0  0  # atno 10718 bound_to 10713
  154.1212  135.6534  153.4903 H   0  0  0  0  0  0  0  0  0  0  0  0  # atno 10763 bound_to 10752
  153.0225  135.5270  154.7095 H   0  0  0  0  0  0  0  0  0  0  0  0  # atno 10764 bound_to 10752
  154.6303  135.2975  155.0194 H   0  0  0  0  0  0  0  0  0  0  0  0  # atno 10765 bound_to 10752
  141.1554  133.7727  156.9816 H   0  0  0  0  0  0  0  0  0  0  0  0  # atno 11005 bound_to 11000
  146.2870  140.4401  142.8754 LP  0  0  0  0  0  0  0  0  0  0  0  0  # atno 17320 bound_to 7965
  144.8552  140.7060  143.6142 LP  0  0  0  0  0  0  0  0  0  0  0  0  # atno 17321 bound_to 7965
  139.7408  143.8927  152.3049 LP  0  0  0  0  0  0  0  0  0  0  0  0  # atno 17342 bound_to 10162
  139.8748  144.7049  150.8946 LP  0  0  0  0  0  0  0  0  0  0  0  0  # atno 17343 bound_to 10162
  157.6744  131.0854  150.7531 LP  0  0  0  0  0  0  0  0  0  0  0  0  # atno 17370 bound_to 10713
  156.7593  130.4793  149.5440 LP  0  0  0  0  0  0  0  0  0  0  0  0  # atno 17371 bound_to 10713
  140.1062  134.9505  157.1997 LP  0  0  0  0  0  0  0  0  0  0  0  0  # atno 17394 bound_to 11000
  140.3253  134.2870  155.7238 LP  0  0  0  0  0  0  0  0  0  0  0  0  # atno 17395 bound_to 11000

$$$$
