AV-unprocessed.smi:3068|AV-procd|sdf|11703|dock2
  -GOLD-   2272017103D 1   1.00000     0.00000
 Structure written by MMmdl.
 40 42  0  0  0  0  0  0  0  0  2 V2000
  152.0736  137.1652  154.2128 N   0  0  0  0  0  0  0  0  0  0  0  0
  151.1446  137.8538  154.2556 C   0  0  0  0  0  0  0  0  0  0  0  0
  149.9743  138.7207  154.3110 C   0  0  0  0  0  0  0  0  0  0  0  0
  150.2073  140.0500  154.4080 N   0  0  0  0  0  0  0  0  0  0  0  0
  149.1322  140.8646  154.4629 C   0  0  0  0  0  0  0  0  0  0  0  0
  147.8196  140.3562  154.4221 C   0  0  0  0  0  0  0  0  0  0  0  0
  147.5775  139.0315  154.3267 N   0  0  0  0  0  0  0  0  0  0  0  0
  148.6492  138.2013  154.2707 C   0  0  0  0  0  0  0  0  0  0  0  0
  148.4132  136.8173  154.1707 N   0  0  0  0  0  0  0  0  0  0  0  0
  147.1825  136.2058  154.6589 C   0  0  0  0  0  0  0  0  0  0  0  0
  146.5956  135.1896  153.6645 C   0  0  1  0  0  0  0  0  0  0  0  0
  145.6730  134.1750  154.3754 C   0  0  0  0  0  0  0  0  0  0  0  0
  145.0075  133.2708  153.4065 N   0  3  2  0  0  0  0  0  0  0  0  0
  145.8981  132.1949  152.8921 C   0  0  0  0  0  0  0  0  0  0  0  0
  145.1420  131.2477  151.9493 C   0  0  0  0  0  0  0  0  0  0  0  0
  144.5178  132.0272  150.7868 C   0  0  0  0  0  0  0  0  0  0  0  0
  143.6012  133.1306  151.3322 C   0  0  0  0  0  0  0  0  0  0  0  0
  144.3189  134.0518  152.3416 C   0  0  2  0  0  0  0  0  0  0  0  0
  145.2895  135.0590  151.6897 C   0  0  0  0  0  0  0  0  0  0  0  0
  145.8316  135.9048  152.6974 O   0  0  0  0  0  0  0  0  0  0  0  0
  149.3205  141.9253  154.5399 H   0  0  0  0  0  0  0  0  0  0  0  0
  146.9629  141.0122  154.4661 H   0  0  0  0  0  0  0  0  0  0  0  0
  149.1536  136.2110  153.8464 H   0  0  0  0  0  0  0  0  0  0  0  0
  147.3722  135.7292  155.6213 H   0  0  0  0  0  0  0  0  0  0  0  0
  146.4572  136.9964  154.8523 H   0  0  0  0  0  0  0  0  0  0  0  0
  147.4094  134.6614  153.1667 H   0  0  0  0  0  0  0  0  0  0  0  0
  146.2304  133.5928  155.1103 H   0  0  0  0  0  0  0  0  0  0  0  0
  144.8999  134.7104  154.9285 H   0  0  0  0  0  0  0  0  0  0  0  0
  146.7543  132.6210  152.3690 H   0  0  0  0  0  0  0  0  0  0  0  0
  146.2973  131.6260  153.7326 H   0  0  0  0  0  0  0  0  0  0  0  0
  145.8195  130.4844  151.5654 H   0  0  0  0  0  0  0  0  0  0  0  0
  144.3629  130.7211  152.5019 H   0  0  0  0  0  0  0  0  0  0  0  0
  145.3015  132.4613  150.1650 H   0  0  0  0  0  0  0  0  0  0  0  0
  143.9501  131.3526  150.1451 H   0  0  0  0  0  0  0  0  0  0  0  0
  143.1892  133.7175  150.5106 H   0  0  0  0  0  0  0  0  0  0  0  0
  142.7476  132.6633  151.8254 H   0  0  0  0  0  0  0  0  0  0  0  0
  143.5437  134.6396  152.8360 H   0  0  0  0  0  0  0  0  0  0  0  0
  146.0921  134.5608  151.1445 H   0  0  0  0  0  0  0  0  0  0  0  0
  144.7578  135.6797  150.9683 H   0  0  0  0  0  0  0  0  0  0  0  0
  144.2811  132.7912  153.9189 H   0  0  0  0  0  0  0  0  0  0  0  0
  1  2  3  0  0  0  0
  2  3  1  0  0  0  0
  3  8  1  0  0  0  0
  3  4  2  0  0  0  0
  4  5  1  0  0  0  0
  5  6  2  0  0  0  0
  5 21  1  0  0  0  0
  6  7  1  0  0  0  0
  6 22  1  0  0  0  0
  7  8  2  0  0  0  0
  8  9  1  0  0  0  0
  9 10  1  0  0  0  0
  9 23  1  0  0  0  0
 10 11  1  0  0  0  0
 10 24  1  0  0  0  0
 10 25  1  0  0  0  0
 11 20  1  0  0  0  0
 11 12  1  0  0  0  0
 11 26  1  0  0  0  0
 12 13  1  0  0  0  0
 12 27  1  0  0  0  0
 12 28  1  0  0  0  0
 13 18  1  0  0  0  0
 13 14  1  0  0  0  0
 13 40  1  0  0  0  0
 14 15  1  0  0  0  0
 14 29  1  0  0  0  0
 14 30  1  0  0  0  0
 15 16  1  0  0  0  0
 15 31  1  0  0  0  0
 15 32  1  0  0  0  0
 16 17  1  0  0  0  0
 16 33  1  0  0  0  0
 16 34  1  0  0  0  0
 17 18  1  0  0  0  0
 17 35  1  0  0  0  0
 17 36  1  0  0  0  0
 18 19  1  0  0  0  0
 18 37  1  0  0  0  0
 19 20  1  0  0  0  0
 19 38  1  0  0  0  0
 19 39  1  0  0  0  0
M  CHG  1  13   1
M  END
> <s_m_source_file>
AV-unprocessed.smi

> <i_m_source_file_index>
3068

> <i_lp_mmshare_version>
43012

> <i_f3d_flags>
0

> <s_epik_input>
TiNDYzFuW2NIXVtjSF1uYzFbTkhdW0NIMl1bQ0BIXShbQ0gyXTIpT1tDSDJdW0NAQEhdKE4yMylbQ0gyXVtDSDJdW0NIMl1bQ0gyXTM=

> <s_epik_cmdline>
J2VwaWtfcHl0aG9uJywgJy1waCcsICc3LjAnLCAnLXRuJywgJzgnLCAnLW1hJywgJzIwMCcsICctbWV0YWxfYmluZGluZycsICctaW1hZScsICc8aW5maWxlLm1hZT4nLCAnLW9tYWUnLCAnPG91dGZpbGUubWFlPic=

> <r_epik_Ionization_Penalty>
0.0804321

> <r_epik_Ionization_Penalty_Charging>
0.0803403

> <r_epik_Ionization_Penalty_Neutral>
9.17277e-05

> <r_epik_State_Penalty>
0.0711481

> <r_epik_Charging_Adjusted_Penalty>
0.151488

> <i_epik_Tot_Q>
1

> <i_epik_Tot_abs_Q>
1

> <r_epik_Metal_State_Penalty>
0.0711481

> <b_epik_Metal_Only>
0

> <s_lp_Force_Field>
OPLS_2005

> <r_lp_Energy>
39.7851

> <b_lp_Chiralities_Consistent>
1

> <s_lp_Variant>
AV-unprocessed.smi:3068-6

> <Gold.Version>
5.8.1

> <Gold.Id.Protein>
6NUR|6NUR_protein|mol2

> <Gold.PLP.Fitness>
41.3675

> <Gold.PLP.PLP>
-29.7576

> <Gold.PLP.part.hbond>
-3.8689

> <Gold.PLP.part.metal>
0.0000

> <Gold.PLP.part.buried>
-6.1036

> <Gold.PLP.part.nonpolar>
-22.0458

> <Gold.PLP.part.repulsive>
0.5287

> <Gold.PLP.ligand.clash>
0.0000

> <Gold.PLP.ligand.torsion>
0.4742

> <Gold.PLP.Chemscore.Hbond>
3.9965

> <Gold.PLP.Chemscore.CHOScore>
0.1868

> <Gold.PLP.Chemscore.Metal>
0.0000

> <Gold.Chemscore.Hbonds>
donor molecule, donor type, donor heavy atom, donor atom, acceptor molecule, acceptor atom, score
      L1  H     9    23       P1  7948  0.10
      L1  H    13    40       P1 10957  1.69
      P1  H  7989  7998       L1     4  1.00
      P1  H 10752 10764       L1     1  0.96

> <Gold.PLP.Chemscore.Internal.Correction>
0.0083

> <Gold.Rescore>
     Score         DG    S(hbond)    S(metal)    S(lipo)     H(rot)  DE(clash)    DE(int)     intcor
     18.11     -18.63       2.80        0.00      61.29       1.32       0.03       0.49       ----

> <Gold.Chemscore.Fitness>
18.1104

> <Gold.Chemscore.DG>
-18.6256

> <Gold.Chemscore.ZeroCoef>
-5.4800

> <Gold.Chemscore.Hbond>
2.7999

> <Gold.Chemscore.Metal>
0.0000

> <Gold.Chemscore.Lipo>
61.2930

> <Gold.Chemscore.Internal_Hbond>
0.0000

> <Gold.Chemscore.DEClash>
0.0279

> <Gold.Chemscore.DEInternal>
0.4873

> <Gold.Chemscore.Rot>
1.3193

> <Gold.Chemscore.Internal.Correction>
   9.000000E+99

> <Gold.Chemscore.Hbonds>
donor molecule, donor type, donor heavy atom, donor atom, acceptor molecule, acceptor atom, score
      L1  H     9    23       P1  7948  0.11
      L1  H    13    40       P1 10957  0.68
      P1  H  7989  7998       L1     4  0.76
      P1  H 10752 10764       L1     1  0.92

> <Gold.Chemscore.Hbond.Weighted>
-9.3517

> <Gold.Chemscore.Metal.Weighted>
-0.0000

> <Gold.Chemscore.Lipo.Weighted>
-7.1713

> <Gold.Chemscore.Internal_Hbond.Weighted>
0.0000

> <Gold.Chemscore.DEClash.Weighted>
0.0279

> <Gold.Chemscore.DEInternal.Weighted>
0.4873

> <Gold.Chemscore.Rot.Weighted>
3.3774

> <Gold.Chemscore.Internal.Correction.Weighted>
   9.000000E+99

> <Gold.Protein.RotatedTorsions>
[ 6907 6896 6895 6894 ] final  172.59 input  -60.11 | X-H torsion
[ 7974 7965 7964 7962 ] final    7.98 input  175.53 | X-H torsion
[ 8008 7997 7996 7995 ] final  163.39 input   59.86 | X-H torsion
[ 10167 10162 10161 10158 ] final  -45.77 input  -65.29 | X-H torsion
[ 10718 10713 10712 10709 ] final  176.77 input   66.30 | X-H torsion
[ 10763 10752 10751 10750 ] final  -82.49 input  -60.55 | X-H torsion
[ 11005 11000 10999 10996 ] final  -30.74 input  -57.11 | X-H torsion

> <Gold.Protein.ActiveResidues>
 VAL166  LYS551  ARG553  GLY616  TRP617  ASP618  TYR619  PRO620  LYS621  CYS622 
 ASP623  PHE694  ASN695  SER759  ASP760  ASP761  ALA762  ILE779  LEU786  VAL792 
 PHE793  MET794  SER795  GLU796  ALA797  LYS798  CYS799  TRP800  GLU811  SER814 

> <Gold.Protein.RotatedAtoms>
  151.7818  133.3350  159.3473 H   0  0  0  0  0  0  0  0  0  0  0  0  # atno 6907 bound_to 6896
  150.7423  134.5924  159.6003 H   0  0  0  0  0  0  0  0  0  0  0  0  # atno 6908 bound_to 6896
  152.3271  134.7308  160.0350 H   0  0  0  0  0  0  0  0  0  0  0  0  # atno 6909 bound_to 6896
  146.2421  140.0002  142.8416 H   0  0  0  0  0  0  0  0  0  0  0  0  # atno 7974 bound_to 7965
  156.1960  140.1725  156.7997 H   0  0  0  0  0  0  0  0  0  0  0  0  # atno 8008 bound_to 7997
  154.5530  140.0714  156.8730 H   0  0  0  0  0  0  0  0  0  0  0  0  # atno 8009 bound_to 7997
  155.2991  140.3360  155.4251 H   0  0  0  0  0  0  0  0  0  0  0  0  # atno 8010 bound_to 7997
  140.6845  143.2863  151.3686 H   0  0  0  0  0  0  0  0  0  0  0  0  # atno 10167 bound_to 10162
  156.9151  130.9922  151.3014 H   0  0  0  0  0  0  0  0  0  0  0  0  # atno 10718 bound_to 10713
  154.5764  135.5589  153.7143 H   0  0  0  0  0  0  0  0  0  0  0  0  # atno 10763 bound_to 10752
  153.0066  135.6309  154.2043 H   0  0  0  0  0  0  0  0  0  0  0  0  # atno 10764 bound_to 10752
  154.1983  135.2879  155.2979 H   0  0  0  0  0  0  0  0  0  0  0  0  # atno 10765 bound_to 10752
  140.9409  133.7279  156.1074 H   0  0  0  0  0  0  0  0  0  0  0  0  # atno 11005 bound_to 11000
  145.1422  140.9577  143.4482 LP  0  0  0  0  0  0  0  0  0  0  0  0  # atno 17320 bound_to 7965
  145.0285  139.3362  143.6036 LP  0  0  0  0  0  0  0  0  0  0  0  0  # atno 17321 bound_to 7965
  139.6192  144.0941  152.2375 LP  0  0  0  0  0  0  0  0  0  0  0  0  # atno 17342 bound_to 10162
  140.0380  144.6029  150.7434 LP  0  0  0  0  0  0  0  0  0  0  0  0  # atno 17343 bound_to 10162
  157.5943  130.8466  149.8705 LP  0  0  0  0  0  0  0  0  0  0  0  0  # atno 17370 bound_to 10713
  156.0517  130.3716  150.1185 LP  0  0  0  0  0  0  0  0  0  0  0  0  # atno 17371 bound_to 10713
  140.7735  134.3805  157.5502 LP  0  0  0  0  0  0  0  0  0  0  0  0  # atno 17394 bound_to 11000
  139.8820  134.9037  156.2861 LP  0  0  0  0  0  0  0  0  0  0  0  0  # atno 17395 bound_to 11000

$$$$
