AV-unprocessed.smi:2156|AV-procd|sdf|8780|dock8
  -GOLD-   2272011563D 1   1.00000     0.00000
 Structure written by MMmdl.
 34 34  0  0  0  0  0  0  0  0  1 V2000
  153.3083  142.6263  162.4451 C   0  0  0  0  0  0  0  0  0  0  0  0
  152.3673  143.1897  161.3749 C   0  0  0  0  0  0  0  0  0  0  0  0
  152.2795  142.2861  160.1326 C   0  0  0  0  0  0  0  0  0  0  0  0
  151.4106  142.8613  158.9961 C   0  0  1  0  0  0  0  0  0  0  0  0
  151.7289  144.3401  158.7360 C   0  0  0  0  0  0  0  0  0  0  0  0
  151.6063  142.1076  157.7586 N   0  0  0  0  0  0  0  0  0  0  0  0
  150.8233  141.1156  157.3059 C   0  0  0  0  0  0  0  0  0  0  0  0
  149.8343  140.7023  157.9129 O   0  0  0  0  0  0  0  0  0  0  0  0
  151.2480  140.4792  155.9749 C   0  0  0  0  0  0  0  0  0  0  0  0
  150.1062  140.0662  155.1461 N   0  0  0  0  0  0  0  0  0  0  0  0
  149.0798  140.9593  154.8726 C   0  0  0  0  0  0  0  0  0  0  0  0
  148.0071  140.6506  154.1059 C   0  0  0  0  0  0  0  0  0  0  0  0
  147.8799  139.3231  153.5142 C   0  0  0  0  0  0  0  0  0  0  0  0
  146.9467  138.9478  152.8079 O   0  0  0  0  0  0  0  0  0  0  0  0
  148.9336  138.4542  153.8102 N   0  0  0  0  0  0  0  0  0  0  0  0
  150.0427  138.7666  154.5980 C   0  0  0  0  0  0  0  0  0  0  0  0
  150.9198  137.9256  154.7923 O   0  0  0  0  0  0  0  0  0  0  0  0
  148.8909  137.5242  153.4197 H   0  0  0  0  0  0  0  0  0  0  0  0
  153.3487  143.2857  163.3123 H   0  0  0  0  0  0  0  0  0  0  0  0
  154.3232  142.5195  162.0611 H   0  0  0  0  0  0  0  0  0  0  0  0
  152.9734  141.6468  162.7871 H   0  0  0  0  0  0  0  0  0  0  0  0
  151.3776  143.3227  161.8122 H   0  0  0  0  0  0  0  0  0  0  0  0
  152.7108  144.1823  161.0813 H   0  0  0  0  0  0  0  0  0  0  0  0
  153.2881  142.1189  159.7523 H   0  0  0  0  0  0  0  0  0  0  0  0
  151.9006  141.3052  160.4232 H   0  0  0  0  0  0  0  0  0  0  0  0
  150.3656  142.8076  159.3069 H   0  0  0  0  0  0  0  0  0  0  0  0
  151.5620  144.9405  159.6306 H   0  0  0  0  0  0  0  0  0  0  0  0
  151.0950  144.7452  157.9466 H   0  0  0  0  0  0  0  0  0  0  0  0
  152.7675  144.4767  158.4327 H   0  0  0  0  0  0  0  0  0  0  0  0
  152.4017  142.3692  157.1942 H   0  0  0  0  0  0  0  0  0  0  0  0
  151.8850  141.1709  155.4197 H   0  0  0  0  0  0  0  0  0  0  0  0
  151.8829  139.6204  156.1980 H   0  0  0  0  0  0  0  0  0  0  0  0
  149.1347  141.9565  155.2860 H   0  0  0  0  0  0  0  0  0  0  0  0
  147.2402  141.3905  153.9281 H   0  0  0  0  0  0  0  0  0  0  0  0
  1  2  1  0  0  0  0
  1 19  1  0  0  0  0
  1 20  1  0  0  0  0
  1 21  1  0  0  0  0
  2  3  1  0  0  0  0
  2 22  1  0  0  0  0
  2 23  1  0  0  0  0
  3  4  1  0  0  0  0
  3 24  1  0  0  0  0
  3 25  1  0  0  0  0
  4  5  1  0  0  0  0
  4  6  1  0  0  0  0
  4 26  1  0  0  0  0
  5 27  1  0  0  0  0
  5 28  1  0  0  0  0
  5 29  1  0  0  0  0
  6  7  1  0  0  0  0
  6 30  1  0  0  0  0
  7  8  2  0  0  0  0
  7  9  1  0  0  0  0
  9 10  1  0  0  0  0
  9 31  1  0  0  0  0
  9 32  1  0  0  0  0
 10 16  1  0  0  0  0
 10 11  1  0  0  0  0
 11 12  2  0  0  0  0
 11 33  1  0  0  0  0
 12 13  1  0  0  0  0
 12 34  1  0  0  0  0
 13 14  2  0  0  0  0
 13 15  1  0  0  0  0
 15 18  1  0  0  0  0
 15 16  1  0  0  0  0
 16 17  2  0  0  0  0
M  END
> <s_m_source_file>
AV-unprocessed.smi

> <i_m_source_file_index>
2156

> <i_lp_mmshare_version>
43012

> <i_f3d_flags>
0

> <s_epik_input>
W0NIM11bQ0gyXVtDSDJdW0NASF0oW0NIM10pW05IXUMoPU8pW0NIMl1uMVtjSF1bY0hdYyg9TylbbkhdYzE9Tw==

> <s_epik_cmdline>
J2VwaWtfcHl0aG9uJywgJy1waCcsICc3LjAnLCAnLXRuJywgJzgnLCAnLW1hJywgJzIwMCcsICctbWV0YWxfYmluZGluZycsICctaW1hZScsICc8aW5maWxlLm1hZT4nLCAnLW9tYWUnLCAnPG91dGZpbGUubWFlPic=

> <r_lp_tautomer_probability>
0.999537

> <r_epik_Ionization_Penalty>
0.00324917

> <r_epik_Ionization_Penalty_Charging>
0.00324916

> <r_epik_Ionization_Penalty_Neutral>
1.93017e-08

> <r_epik_State_Penalty>
0.00229371

> <r_epik_Charging_Adjusted_Penalty>
0.00554286

> <i_epik_Tot_Q>
0

> <i_epik_Tot_abs_Q>
0

> <r_epik_Metal_State_Penalty>
0.364744

> <b_epik_Metal_Only>
0

> <s_lp_Force_Field>
OPLS_2005

> <r_lp_Energy>
3.29576

> <b_lp_Chiralities_Consistent>
1

> <s_lp_Variant>
AV-unprocessed.smi:2156-2

> <Gold.Version>
5.8.1

> <Gold.Id.Protein>
6NUR|6NUR_protein|mol2

> <Gold.PLP.Fitness>
42.0979

> <Gold.PLP.PLP>
-38.1859

> <Gold.PLP.part.hbond>
-1.8307

> <Gold.PLP.part.metal>
0.0000

> <Gold.PLP.part.buried>
-1.4721

> <Gold.PLP.part.nonpolar>
-35.0520

> <Gold.PLP.part.repulsive>
0.8923

> <Gold.PLP.ligand.clash>
0.0000

> <Gold.PLP.ligand.torsion>
0.8194

> <Gold.PLP.Chemscore.Hbond>
0.8450

> <Gold.PLP.Chemscore.CHOScore>
1.0000

> <Gold.PLP.Chemscore.Metal>
0.0000

> <Gold.Chemscore.Hbonds>
donor molecule, donor type, donor heavy atom, donor atom, acceptor molecule, acceptor atom, score
      L1  H    15    18       P1  7948  1.00
      L1  C    11    33       P1  8028  0.34

> <Gold.PLP.Chemscore.Internal.Correction>
0.0157

> <Gold.Rescore>
     Score         DG    S(hbond)    S(metal)    S(lipo)     H(rot)  DE(clash)    DE(int)     intcor
     11.12     -12.07       0.95        0.00      77.30       2.19       0.10       0.84       ----

> <Gold.Chemscore.Fitness>
11.1249

> <Gold.Chemscore.DG>
-12.0741

> <Gold.Chemscore.ZeroCoef>
-5.4800

> <Gold.Chemscore.Hbond>
0.9489

> <Gold.Chemscore.Metal>
0.0000

> <Gold.Chemscore.Lipo>
77.2956

> <Gold.Chemscore.Internal_Hbond>
0.0000

> <Gold.Chemscore.DEClash>
0.1045

> <Gold.Chemscore.DEInternal>
0.8448

> <Gold.Chemscore.Rot>
2.1949

> <Gold.Chemscore.Internal.Correction>
   9.000000E+99

> <Gold.Chemscore.Hbonds>
donor molecule, donor type, donor heavy atom, donor atom, acceptor molecule, acceptor atom, score
      L1  H    15    18       P1  7948  0.91

> <Gold.Chemscore.Hbond.Weighted>
-3.1694

> <Gold.Chemscore.Metal.Weighted>
-0.0000

> <Gold.Chemscore.Lipo.Weighted>
-9.0436

> <Gold.Chemscore.Internal_Hbond.Weighted>
0.0000

> <Gold.Chemscore.DEClash.Weighted>
0.1045

> <Gold.Chemscore.DEInternal.Weighted>
0.8448

> <Gold.Chemscore.Rot.Weighted>
5.6188

> <Gold.Chemscore.Internal.Correction.Weighted>
   9.000000E+99

> <Gold.Protein.RotatedTorsions>
[ 6907 6896 6895 6894 ] final  -75.17 input  -60.11 | X-H torsion
[ 7974 7965 7964 7962 ] final  119.22 input  175.53 | X-H torsion
[ 8008 7997 7996 7995 ] final  -72.11 input   59.86 | X-H torsion
[ 10167 10162 10161 10158 ] final    0.02 input  -65.29 | X-H torsion
[ 10718 10713 10712 10709 ] final  123.62 input   66.30 | X-H torsion
[ 10763 10752 10751 10750 ] final  124.44 input  -60.55 | X-H torsion
[ 11005 11000 10999 10996 ] final  120.95 input  -57.11 | X-H torsion

> <Gold.Protein.ActiveResidues>
 VAL166  LYS551  ARG553  GLY616  TRP617  ASP618  TYR619  PRO620  LYS621  CYS622 
 ASP623  PHE694  ASN695  SER759  ASP760  ASP761  ALA762  ILE779  LEU786  VAL792 
 PHE793  MET794  SER795  GLU796  ALA797  LYS798  CYS799  TRP800  GLU811  SER814 

> <Gold.Protein.RotatedAtoms>
  150.7068  134.4761  159.5447 H   0  0  0  0  0  0  0  0  0  0  0  0  # atno 6907 bound_to 6896
  152.2407  134.8228  160.0470 H   0  0  0  0  0  0  0  0  0  0  0  0  # atno 6908 bound_to 6896
  151.9011  133.3503  159.3868 H   0  0  0  0  0  0  0  0  0  0  0  0  # atno 6909 bound_to 6896
  145.1457  139.3240  143.4592 H   0  0  0  0  0  0  0  0  0  0  0  0  # atno 7974 bound_to 7965
  154.5140  140.0803  156.8046 H   0  0  0  0  0  0  0  0  0  0  0  0  # atno 8008 bound_to 7997
  155.3721  140.3423  155.4225 H   0  0  0  0  0  0  0  0  0  0  0  0  # atno 8009 bound_to 7997
  156.1606  140.1587  156.8605 H   0  0  0  0  0  0  0  0  0  0  0  0  # atno 8010 bound_to 7997
  140.6747  143.6950  150.7997 H   0  0  0  0  0  0  0  0  0  0  0  0  # atno 10167 bound_to 10162
  157.5651  131.1087  150.8470 H   0  0  0  0  0  0  0  0  0  0  0  0  # atno 10718 bound_to 10713
  153.6615  135.3345  155.3128 H   0  0  0  0  0  0  0  0  0  0  0  0  # atno 10763 bound_to 10752
  154.8513  135.4364  154.1800 H   0  0  0  0  0  0  0  0  0  0  0  0  # atno 10764 bound_to 10752
  153.2768  135.7005  153.7501 H   0  0  0  0  0  0  0  0  0  0  0  0  # atno 10765 bound_to 10752
  139.9206  134.9637  156.7884 H   0  0  0  0  0  0  0  0  0  0  0  0  # atno 11005 bound_to 11000
  146.3500  140.1512  142.8592 LP  0  0  0  0  0  0  0  0  0  0  0  0  # atno 17320 bound_to 7965
  145.0484  140.8999  143.5010 LP  0  0  0  0  0  0  0  0  0  0  0  0  # atno 17321 bound_to 7965
  140.0641  143.5126  152.2613 LP  0  0  0  0  0  0  0  0  0  0  0  0  # atno 17342 bound_to 10162
  139.6033  144.7589  151.3121 LP  0  0  0  0  0  0  0  0  0  0  0  0  # atno 17343 bound_to 10162
  156.8957  130.5228  149.5284 LP  0  0  0  0  0  0  0  0  0  0  0  0  # atno 17370 bound_to 10713
  156.0699  130.5734  150.9364 LP  0  0  0  0  0  0  0  0  0  0  0  0  # atno 17371 bound_to 10713
  140.6487  133.9751  155.7744 LP  0  0  0  0  0  0  0  0  0  0  0  0  # atno 17394 bound_to 11000
  141.0723  134.0187  157.3509 LP  0  0  0  0  0  0  0  0  0  0  0  0  # atno 17395 bound_to 11000

$$$$
