AV-unprocessed.smi:830|AV-procd|sdf|3870|dock6
  -GOLD-   22720 1323D 1   1.00000     0.00000
 Structure written by MMmdl.
 52 54  0  0  0  0  0  0  0  0  1 V2000
  151.1592  137.2190  155.2663 C   0  0  0  0  0  0  0  0  0  0  0  0
  149.6259  137.1260  155.3414 C   0  0  2  0  0  0  0  0  0  0  0  0
  149.1301  136.1278  154.3956 N   0  0  0  0  0  0  0  0  0  0  0  0
  148.8536  134.8477  154.6798 C   0  0  0  0  0  0  0  0  0  0  0  0
  148.9757  134.3540  155.8011 O   0  0  0  0  0  0  0  0  0  0  0  0
  148.4536  134.1846  153.5827 N   0  0  0  0  0  0  0  0  0  0  0  0
  148.1712  132.7958  153.4642 C   0  0  0  0  0  0  0  0  0  0  0  0
  148.7750  131.8504  154.3281 C   0  0  0  0  0  0  0  0  0  0  0  0
  148.4144  130.4958  154.2272 C   0  0  0  0  0  0  0  0  0  0  0  0
  147.4477  130.1353  153.2739 C   0  0  0  0  0  0  0  0  0  0  0  0
  146.8546  131.0253  152.4534 N   0  0  0  0  0  0  0  0  0  0  0  0
  147.2025  132.3340  152.5270 C   0  0  0  0  0  0  0  0  0  0  0  0
  146.5603  133.2164  151.6273 N   0  0  0  0  0  0  0  0  0  0  0  0
  145.8136  134.3678  152.1238 C   0  0  0  0  0  0  0  0  0  0  0  0
  144.9641  134.8290  150.9427 C   0  0  0  0  0  0  0  0  0  0  0  0
  144.6136  133.5111  150.2596 C   0  0  0  0  0  0  0  0  0  0  0  0
  145.8609  132.6488  150.4777 C   0  0  0  0  0  0  0  0  0  0  0  0
  148.9217  138.4746  155.1490 C   0  0  0  0  0  0  0  0  0  0  0  0
  147.7149  138.5914  155.3684 O   0  0  0  0  0  0  0  0  0  0  0  0
  149.6915  139.4888  154.7251 N   0  0  0  0  0  0  0  0  0  0  0  0
  149.2276  140.8524  154.4863 C   0  0  0  0  0  0  0  0  0  0  0  0
  148.7353  141.4924  155.7965 C   0  0  0  0  0  0  0  0  0  0  0  0
  147.2107  141.5336  155.6947 C   0  0  0  0  0  0  0  0  0  0  0  0
  146.9441  141.7156  154.2037 C   0  0  0  0  0  0  0  0  0  0  0  0
  148.0268  140.8798  153.5177 C   0  0  0  0  0  0  0  0  0  0  0  0
  151.5474  137.9516  155.9744 H   0  0  0  0  0  0  0  0  0  0  0  0
  151.4896  137.5132  154.2694 H   0  0  0  0  0  0  0  0  0  0  0  0
  151.6248  136.2613  155.5014 H   0  0  0  0  0  0  0  0  0  0  0  0
  149.3639  136.7923  156.3476 H   0  0  0  0  0  0  0  0  0  0  0  0
  148.9923  136.4430  153.4463 H   0  0  0  0  0  0  0  0  0  0  0  0
  148.4907  134.6962  152.7131 H   0  0  0  0  0  0  0  0  0  0  0  0
  149.4906  132.1485  155.0793 H   0  0  0  0  0  0  0  0  0  0  0  0
  148.8589  129.7538  154.8739 H   0  0  0  0  0  0  0  0  0  0  0  0
  147.1376  129.1059  153.1705 H   0  0  0  0  0  0  0  0  0  0  0  0
  145.1604  134.0788  152.9478 H   0  0  0  0  0  0  0  0  0  0  0  0
  146.4819  135.1548  152.4743 H   0  0  0  0  0  0  0  0  0  0  0  0
  144.0872  135.4006  151.2474 H   0  0  0  0  0  0  0  0  0  0  0  0
  145.5603  135.4495  150.2720 H   0  0  0  0  0  0  0  0  0  0  0  0
  143.7598  133.0544  150.7618 H   0  0  0  0  0  0  0  0  0  0  0  0
  144.3593  133.6304  149.2060 H   0  0  0  0  0  0  0  0  0  0  0  0
  146.5117  132.7128  149.6054 H   0  0  0  0  0  0  0  0  0  0  0  0
  145.5988  131.6007  150.6289 H   0  0  0  0  0  0  0  0  0  0  0  0
  150.6713  139.3054  154.5635 H   0  0  0  0  0  0  0  0  0  0  0  0
  150.0481  141.4537  154.0897 H   0  0  0  0  0  0  0  0  0  0  0  0
  149.0750  140.9683  156.6910 H   0  0  0  0  0  0  0  0  0  0  0  0
  149.1153  142.5128  155.8612 H   0  0  0  0  0  0  0  0  0  0  0  0
  146.7932  140.5835  156.0307 H   0  0  0  0  0  0  0  0  0  0  0  0
  146.7708  142.3256  156.3010 H   0  0  0  0  0  0  0  0  0  0  0  0
  145.9363  141.4144  153.9164 H   0  0  0  0  0  0  0  0  0  0  0  0
  147.0667  142.7659  153.9359 H   0  0  0  0  0  0  0  0  0  0  0  0
  148.2965  141.2870  152.5428 H   0  0  0  0  0  0  0  0  0  0  0  0
  147.6439  139.8718  153.3485 H   0  0  0  0  0  0  0  0  0  0  0  0
  1  2  1  0  0  0  0
  1 26  1  0  0  0  0
  1 27  1  0  0  0  0
  1 28  1  0  0  0  0
  2  3  1  0  0  0  0
  2 18  1  0  0  0  0
  2 29  1  0  0  0  0
  3  4  1  0  0  0  0
  3 30  1  0  0  0  0
  4  5  2  0  0  0  0
  4  6  1  0  0  0  0
  6  7  1  0  0  0  0
  6 31  1  0  0  0  0
  7 12  1  0  0  0  0
  7  8  2  0  0  0  0
  8  9  1  0  0  0  0
  8 32  1  0  0  0  0
  9 10  2  0  0  0  0
  9 33  1  0  0  0  0
 10 11  1  0  0  0  0
 10 34  1  0  0  0  0
 11 12  2  0  0  0  0
 12 13  1  0  0  0  0
 13 17  1  0  0  0  0
 13 14  1  0  0  0  0
 14 15  1  0  0  0  0
 14 35  1  0  0  0  0
 14 36  1  0  0  0  0
 15 16  1  0  0  0  0
 15 37  1  0  0  0  0
 15 38  1  0  0  0  0
 16 17  1  0  0  0  0
 16 39  1  0  0  0  0
 16 40  1  0  0  0  0
 17 41  1  0  0  0  0
 17 42  1  0  0  0  0
 18 19  2  0  0  0  0
 18 20  1  0  0  0  0
 20 21  1  0  0  0  0
 20 43  1  0  0  0  0
 21 25  1  0  0  0  0
 21 22  1  0  0  0  0
 21 44  1  0  0  0  0
 22 23  1  0  0  0  0
 22 45  1  0  0  0  0
 22 46  1  0  0  0  0
 23 24  1  0  0  0  0
 23 47  1  0  0  0  0
 23 48  1  0  0  0  0
 24 25  1  0  0  0  0
 24 49  1  0  0  0  0
 24 50  1  0  0  0  0
 25 51  1  0  0  0  0
 25 52  1  0  0  0  0
M  END
> <s_m_source_file>
AV-unprocessed.smi

> <i_m_source_file_index>
830

> <i_lp_mmshare_version>
43012

> <i_f3d_flags>
0

> <s_epik_input>
W0NIMl0xW0NIMl1bQ0gyXVtDSDJdW0NIXTFbTkhdQyg9TylbQ0BIXShbQ0gzXSlbTkhdQyg9TylbTkhdYzJbY0hdW2NIXVtjSF1uYzJOM1tDSDJdW0NIMl1bQ0gyXVtDSDJdMw==

> <s_epik_cmdline>
J2VwaWtfcHl0aG9uJywgJy1waCcsICc3LjAnLCAnLXRuJywgJzgnLCAnLW1hJywgJzIwMCcsICctbWV0YWxfYmluZGluZycsICctaW1hZScsICc8aW5maWxlLm1hZT4nLCAnLW9tYWUnLCAnPG91dGZpbGUubWFlPic=

> <r_lp_tautomer_probability>
1

> <r_epik_Ionization_Penalty>
0.0827694

> <r_epik_Ionization_Penalty_Charging>
0

> <r_epik_Ionization_Penalty_Neutral>
0.0827694

> <r_epik_State_Penalty>
0.0729202

> <r_epik_Charging_Adjusted_Penalty>
0.0729202

> <i_epik_Tot_Q>
0

> <i_epik_Tot_abs_Q>
0

> <r_epik_Metal_State_Penalty>
0.0639723

> <b_epik_Metal_Only>
0

> <s_lp_Force_Field>
OPLS_2005

> <r_lp_Energy>
46.0812

> <b_lp_Chiralities_Consistent>
1

> <s_lp_Variant>
AV-unprocessed.smi:830-1

> <Gold.Version>
5.8.1

> <Gold.Id.Protein>
6NUR|6NUR_protein|mol2

> <Gold.PLP.Fitness>
41.1394

> <Gold.PLP.PLP>
-36.4283

> <Gold.PLP.part.hbond>
-1.9875

> <Gold.PLP.part.metal>
0.0000

> <Gold.PLP.part.buried>
-2.5573

> <Gold.PLP.part.nonpolar>
-33.0862

> <Gold.PLP.part.repulsive>
0.7999

> <Gold.PLP.ligand.clash>
0.0000

> <Gold.PLP.ligand.torsion>
0.8274

> <Gold.PLP.Chemscore.Hbond>
1.9760

> <Gold.PLP.Chemscore.CHOScore>
0.0000

> <Gold.PLP.Chemscore.Metal>
0.0000

> <Gold.Chemscore.Hbonds>
donor molecule, donor type, donor heavy atom, donor atom, acceptor molecule, acceptor atom, score
      L1  H     3    30       P1  7948  1.00
      L1  H     6    31       P1  7948  0.98

> <Gold.PLP.Chemscore.Internal.Correction>
0.4379

> <Gold.Rescore>
     Score         DG    S(hbond)    S(metal)    S(lipo)     H(rot)  DE(clash)    DE(int)     intcor
     12.55     -16.12       1.57        0.00      81.82       1.64       0.06       3.50       ----

> <Gold.Chemscore.Fitness>
12.5541

> <Gold.Chemscore.DG>
-16.1167

> <Gold.Chemscore.ZeroCoef>
-5.4800

> <Gold.Chemscore.Hbond>
1.5740

> <Gold.Chemscore.Metal>
0.0000

> <Gold.Chemscore.Lipo>
81.8214

> <Gold.Chemscore.Internal_Hbond>
0.0000

> <Gold.Chemscore.DEClash>
0.0591

> <Gold.Chemscore.DEInternal>
3.5034

> <Gold.Chemscore.Rot>
1.6382

> <Gold.Chemscore.Internal.Correction>
   9.000000E+99

> <Gold.Chemscore.Hbonds>
donor molecule, donor type, donor heavy atom, donor atom, acceptor molecule, acceptor atom, score
      L1  H     3    30       P1  7948  0.94
      L1  H     6    31       P1  7948  0.24

> <Gold.Chemscore.Hbond.Weighted>
-5.2572

> <Gold.Chemscore.Metal.Weighted>
-0.0000

> <Gold.Chemscore.Lipo.Weighted>
-9.5731

> <Gold.Chemscore.Internal_Hbond.Weighted>
0.0000

> <Gold.Chemscore.DEClash.Weighted>
0.0591

> <Gold.Chemscore.DEInternal.Weighted>
3.5034

> <Gold.Chemscore.Rot.Weighted>
4.1937

> <Gold.Chemscore.Internal.Correction.Weighted>
   9.000000E+99

> <Gold.Protein.RotatedTorsions>
[ 6907 6896 6895 6894 ] final   58.17 input  -60.11 | X-H torsion
[ 7974 7965 7964 7962 ] final -149.75 input  175.53 | X-H torsion
[ 8008 7997 7996 7995 ] final -153.17 input   59.86 | X-H torsion
[ 10167 10162 10161 10158 ] final  -91.43 input  -65.29 | X-H torsion
[ 10718 10713 10712 10709 ] final -166.71 input   66.30 | X-H torsion
[ 10763 10752 10751 10750 ] final   -9.75 input  -60.55 | X-H torsion
[ 11005 11000 10999 10996 ] final -107.93 input  -57.11 | X-H torsion

> <Gold.Protein.ActiveResidues>
 VAL166  LYS551  ARG553  GLY616  TRP617  ASP618  TYR619  PRO620  LYS621  CYS622 
 ASP623  PHE694  ASN695  SER759  ASP760  ASP761  ALA762  ILE779  LEU786  VAL792 
 PHE793  MET794  SER795  GLU796  ALA797  LYS798  CYS799  TRP800  GLU811  SER814 

> <Gold.Protein.RotatedAtoms>
  152.3800  134.6605  160.0146 H   0  0  0  0  0  0  0  0  0  0  0  0  # atno 6907 bound_to 6896
  151.6872  133.3306  159.3242 H   0  0  0  0  0  0  0  0  0  0  0  0  # atno 6908 bound_to 6896
  150.7739  134.6666  159.6413 H   0  0  0  0  0  0  0  0  0  0  0  0  # atno 6909 bound_to 6896
  144.7948  140.5023  143.5747 H   0  0  0  0  0  0  0  0  0  0  0  0  # atno 7974 bound_to 7965
  155.6667  140.0728  157.2535 H   0  0  0  0  0  0  0  0  0  0  0  0  # atno 8008 bound_to 7997
  154.4131  140.1706  156.1885 H   0  0  0  0  0  0  0  0  0  0  0  0  # atno 8009 bound_to 7997
  155.9652  140.3366  155.6529 H   0  0  0  0  0  0  0  0  0  0  0  0  # atno 8010 bound_to 7997
  140.3449  143.2922  151.9792 H   0  0  0  0  0  0  0  0  0  0  0  0  # atno 10167 bound_to 10162
  156.6718  130.9087  151.3045 H   0  0  0  0  0  0  0  0  0  0  0  0  # atno 10718 bound_to 10713
  153.4592  135.7016  153.6061 H   0  0  0  0  0  0  0  0  0  0  0  0  # atno 10763 bound_to 10752
  153.4362  135.3791  155.2201 H   0  0  0  0  0  0  0  0  0  0  0  0  # atno 10764 bound_to 10752
  154.8727  135.3963  154.4015 H   0  0  0  0  0  0  0  0  0  0  0  0  # atno 10765 bound_to 10752
  141.0928  133.9024  157.2034 H   0  0  0  0  0  0  0  0  0  0  0  0  # atno 11005 bound_to 11000
  145.5700  139.1483  143.3293 LP  0  0  0  0  0  0  0  0  0  0  0  0  # atno 17320 bound_to 7965
  146.2213  140.5834  142.9016 LP  0  0  0  0  0  0  0  0  0  0  0  0  # atno 17321 bound_to 7965
  139.4835  144.6125  151.7407 LP  0  0  0  0  0  0  0  0  0  0  0  0  # atno 17342 bound_to 10162
  140.5274  144.0785  150.6042 LP  0  0  0  0  0  0  0  0  0  0  0  0  # atno 17343 bound_to 10162
  157.7074  130.9401  150.0977 LP  0  0  0  0  0  0  0  0  0  0  0  0  # atno 17370 bound_to 10713
  156.1933  130.3656  149.8882 LP  0  0  0  0  0  0  0  0  0  0  0  0  # atno 17371 bound_to 10713
  139.9758  135.0114  156.9627 LP  0  0  0  0  0  0  0  0  0  0  0  0  # atno 17394 bound_to 11000
  140.5211  134.0907  155.7292 LP  0  0  0  0  0  0  0  0  0  0  0  0  # atno 17395 bound_to 11000

$$$$
