AV-unprocessed.smi:101|AV-procd|sdf|917|dock4
  -GOLD-   2262017423D 1   1.00000     0.00000
 Structure written by MMmdl.
 44 46  0  0  0  0  0  0  0  0  1 V2000
  146.7108  138.7583  156.9947 C   0  0  0  0  0  0  0  0  0  0  0  0
  147.5692  137.5537  156.6432 C   0  0  0  0  0  0  0  0  0  0  0  0
  148.8940  137.6612  156.3675 C   0  0  0  0  0  0  0  0  0  0  0  0
  149.7076  136.5810  156.0373 N   0  0  0  0  0  0  0  0  0  0  0  0
  151.1986  136.7261  155.7715 C   0  0  2  0  0  0  0  0  0  0  0  0
  151.8346  137.2031  156.9162 O   0  0  0  0  0  0  0  0  0  0  0  0
  151.8854  138.6210  156.8548 C   0  0  1  0  0  0  0  0  0  0  0  0
  152.8857  139.1466  157.8871 C   0  0  0  0  0  0  0  0  0  0  0  0
  152.3229  140.3079  158.4739 O   0  0  0  0  0  0  0  0  0  0  0  0
  152.9816  140.9752  159.4371 C   0  0  0  0  0  0  0  0  0  0  0  0
  153.8442  140.4649  160.1544 O   0  0  0  0  0  0  0  0  0  0  0  0
  152.5531  142.4000  159.5449 C   0  0  0  0  0  0  0  0  0  0  0  0
  151.9846  143.0405  158.4192 C   0  0  0  0  0  0  0  0  0  0  0  0
  151.5726  144.3853  158.4916 C   0  0  0  0  0  0  0  0  0  0  0  0
  151.7236  145.1062  159.6906 C   0  0  0  0  0  0  0  0  0  0  0  0
  152.2878  144.4807  160.8175 C   0  0  0  0  0  0  0  0  0  0  0  0
  152.7008  143.1360  160.7473 C   0  0  0  0  0  0  0  0  0  0  0  0
  152.2772  138.8534  155.3983 C   0  0  2  0  0  0  0  0  0  0  0  0
  151.8750  140.1425  154.9806 O   0  0  0  0  0  0  0  0  0  0  0  0
  151.4878  137.7696  154.6628 C   0  0  1  0  0  0  0  0  0  0  0  0
  152.2648  137.2225  153.6170 O   0  0  0  0  0  0  0  0  0  0  0  0
  149.1549  135.2828  156.0502 C   0  0  0  0  0  0  0  0  0  0  0  0
  149.8233  134.2727  155.8331 O   0  0  0  0  0  0  0  0  0  0  0  0
  147.7935  135.1721  156.3258 N   0  0  0  0  0  0  0  0  0  0  0  0
  146.9346  136.2334  156.6190 C   0  0  0  0  0  0  0  0  0  0  0  0
  145.7456  136.0098  156.8391 O   0  0  0  0  0  0  0  0  0  0  0  0
  147.3950  134.2444  156.3217 H   0  0  0  0  0  0  0  0  0  0  0  0
  147.2858  139.6851  156.9843 H   0  0  0  0  0  0  0  0  0  0  0  0
  146.2821  138.6430  157.9907 H   0  0  0  0  0  0  0  0  0  0  0  0
  145.8940  138.8656  156.2799 H   0  0  0  0  0  0  0  0  0  0  0  0
  149.3187  138.6521  156.4194 H   0  0  0  0  0  0  0  0  0  0  0  0
  151.5409  135.7134  155.5489 H   0  0  0  0  0  0  0  0  0  0  0  0
  150.8939  139.0387  157.0414 H   0  0  0  0  0  0  0  0  0  0  0  0
  153.0994  138.3878  158.6412 H   0  0  0  0  0  0  0  0  0  0  0  0
  153.8256  139.4117  157.4015 H   0  0  0  0  0  0  0  0  0  0  0  0
  151.8592  142.5074  157.4876 H   0  0  0  0  0  0  0  0  0  0  0  0
  151.1400  144.8639  157.6253 H   0  0  0  0  0  0  0  0  0  0  0  0
  151.4070  146.1372  159.7457 H   0  0  0  0  0  0  0  0  0  0  0  0
  152.4042  145.0325  161.7386 H   0  0  0  0  0  0  0  0  0  0  0  0
  153.1299  142.6869  161.6314 H   0  0  0  0  0  0  0  0  0  0  0  0
  153.3529  138.7209  155.2695 H   0  0  0  0  0  0  0  0  0  0  0  0
  151.8373  140.7040  155.7402 H   0  0  0  0  0  0  0  0  0  0  0  0
  150.5534  138.1664  154.2629 H   0  0  0  0  0  0  0  0  0  0  0  0
  151.6795  136.9217  152.9383 H   0  0  0  0  0  0  0  0  0  0  0  0
  1  2  1  0  0  0  0
  1 28  1  0  0  0  0
  1 29  1  0  0  0  0
  1 30  1  0  0  0  0
  2 25  1  0  0  0  0
  2  3  2  0  0  0  0
  3  4  1  0  0  0  0
  3 31  1  0  0  0  0
  4  5  1  0  0  0  0
  4 22  1  0  0  0  0
  5 20  1  0  0  0  0
  5  6  1  0  0  0  0
  5 32  1  0  0  0  0
  6  7  1  0  0  0  0
  7  8  1  0  0  0  0
  7 18  1  0  0  0  0
  7 33  1  0  0  0  0
  8  9  1  0  0  0  0
  8 34  1  0  0  0  0
  8 35  1  0  0  0  0
  9 10  1  0  0  0  0
 10 11  2  0  0  0  0
 10 12  1  0  0  0  0
 12 17  1  0  0  0  0
 12 13  2  0  0  0  0
 13 14  1  0  0  0  0
 13 36  1  0  0  0  0
 14 15  2  0  0  0  0
 14 37  1  0  0  0  0
 15 16  1  0  0  0  0
 15 38  1  0  0  0  0
 16 17  2  0  0  0  0
 16 39  1  0  0  0  0
 17 40  1  0  0  0  0
 18 19  1  0  0  0  0
 18 20  1  0  0  0  0
 18 41  1  0  0  0  0
 19 42  1  0  0  0  0
 20 21  1  0  0  0  0
 20 43  1  0  0  0  0
 21 44  1  0  0  0  0
 22 23  2  0  0  0  0
 22 24  1  0  0  0  0
 24 27  1  0  0  0  0
 24 25  1  0  0  0  0
 25 26  2  0  0  0  0
M  END
> <s_m_source_file>
AV-unprocessed.smi

> <i_m_source_file_index>
101

> <i_lp_mmshare_version>
43012

> <i_f3d_flags>
0

> <s_epik_input>
Tz1jMVtuSF1jKD1PKW4oW2NIXWMxW0NIM10pW0NAQEhdMk9bQ0BIXShbQ0BASF0oW09IXSlbQ0BIXTJbT0hdKVtDSDJdT0MoPU8pYzNbY0hdW2NIXVtjSF1bY0hdW2NIXTM=

> <s_epik_cmdline>
J2VwaWtfcHl0aG9uJywgJy1waCcsICc3LjAnLCAnLXRuJywgJzgnLCAnLW1hJywgJzIwMCcsICctbWV0YWxfYmluZGluZycsICctaW1hZScsICc8aW5maWxlLm1hZT4nLCAnLW9tYWUnLCAnPG91dGZpbGUubWFlPic=

> <r_lp_tautomer_probability>
0.999537

> <r_epik_Ionization_Penalty>
0.00263537

> <r_epik_Ionization_Penalty_Charging>
0.00263428

> <r_epik_Ionization_Penalty_Neutral>
1.09111e-06

> <r_epik_State_Penalty>
0.00183335

> <r_epik_Charging_Adjusted_Penalty>
0.00446763

> <i_epik_Tot_Q>
0

> <i_epik_Tot_abs_Q>
0

> <r_epik_Metal_State_Penalty>
1.00528

> <b_epik_Metal_Only>
0

> <s_epik_Chemistry_Notes>
This compound has an ester and may undergo hydrolysis at high or low pH. This compound contains an acetal/aminal-like group ( X-CH(R)-Y where X, Y are N, S, or O) that may be acid/base labile, releasing an aldehyde.

> <s_lp_Force_Field>
OPLS_2005

> <r_lp_Energy>
27.5612

> <b_lp_Chiralities_Consistent>
1

> <s_lp_Variant>
AV-unprocessed.smi:101-5

> <Gold.Version>
5.8.1

> <Gold.Id.Protein>
6NUR|6NUR_protein|mol2

> <Gold.PLP.Fitness>
46.3656

> <Gold.PLP.PLP>
-40.2292

> <Gold.PLP.part.hbond>
-3.0000

> <Gold.PLP.part.metal>
0.0000

> <Gold.PLP.part.buried>
-6.6267

> <Gold.PLP.part.nonpolar>
-30.5458

> <Gold.PLP.part.repulsive>
0.0401

> <Gold.PLP.ligand.clash>
0.0000

> <Gold.PLP.ligand.torsion>
1.2836

> <Gold.PLP.Chemscore.Hbond>
2.8800

> <Gold.PLP.Chemscore.CHOScore>
0.0000

> <Gold.PLP.Chemscore.Metal>
0.0000

> <Gold.Chemscore.Hbonds>
donor molecule, donor type, donor heavy atom, donor atom, acceptor molecule, acceptor atom, score
      L1  H    21    44       P1  7949  1.00
      P1  H  7989  7998       L1    19  0.86
      P1  H 10752 10764       L1    21  0.89

> <Gold.PLP.Chemscore.Internal.Correction>
0.0635

> <Gold.Rescore>
     Score         DG    S(hbond)    S(metal)    S(lipo)     H(rot)  DE(clash)    DE(int)     intcor
     15.18     -16.47       2.48        0.00      95.58       3.32       0.00       1.28       ----

> <Gold.Chemscore.Fitness>
15.1837

> <Gold.Chemscore.DG>
-16.4666

> <Gold.Chemscore.ZeroCoef>
-5.4800

> <Gold.Chemscore.Hbond>
2.4837

> <Gold.Chemscore.Metal>
0.0000

> <Gold.Chemscore.Lipo>
95.5829

> <Gold.Chemscore.Internal_Hbond>
0.0000

> <Gold.Chemscore.DEClash>
0.0000

> <Gold.Chemscore.DEInternal>
1.2830

> <Gold.Chemscore.Rot>
3.3172

> <Gold.Chemscore.Internal.Correction>
   9.000000E+99

> <Gold.Chemscore.Hbonds>
donor molecule, donor type, donor heavy atom, donor atom, acceptor molecule, acceptor atom, score
      L1  H    21    44       P1  7949  0.97
      P1  H  7989  7998       L1    19  0.80
      P1  H 10752 10764       L1    21  0.17

> <Gold.Chemscore.Hbond.Weighted>
-8.2954

> <Gold.Chemscore.Metal.Weighted>
-0.0000

> <Gold.Chemscore.Lipo.Weighted>
-11.1832

> <Gold.Chemscore.Internal_Hbond.Weighted>
0.0000

> <Gold.Chemscore.DEClash.Weighted>
0.0000

> <Gold.Chemscore.DEInternal.Weighted>
1.2830

> <Gold.Chemscore.Rot.Weighted>
8.4920

> <Gold.Chemscore.Internal.Correction.Weighted>
   9.000000E+99

> <Gold.Protein.RotatedTorsions>
[ 6907 6896 6895 6894 ] final  130.28 input  -60.11 | X-H torsion
[ 7974 7965 7964 7962 ] final -101.03 input  175.53 | X-H torsion
[ 8008 7997 7996 7995 ] final -105.82 input   59.86 | X-H torsion
[ 10167 10162 10161 10158 ] final  108.14 input  -65.29 | X-H torsion
[ 10718 10713 10712 10709 ] final  177.07 input   66.30 | X-H torsion
[ 10763 10752 10751 10750 ] final -104.46 input  -60.55 | X-H torsion
[ 11005 11000 10999 10996 ] final -118.28 input  -57.11 | X-H torsion

> <Gold.Protein.ActiveResidues>
 VAL166  LYS551  ARG553  GLY616  TRP617  ASP618  TYR619  PRO620  LYS621  CYS622 
 ASP623  PHE694  ASN695  SER759  ASP760  ASP761  ALA762  ILE779  LEU786  VAL792 
 PHE793  MET794  SER795  GLU796  ALA797  LYS798  CYS799  TRP800  GLU811  SER814 

> <Gold.Protein.RotatedAtoms>
  152.3542  133.6216  159.5966 H   0  0  0  0  0  0  0  0  0  0  0  0  # atno 6907 bound_to 6896
  150.7557  133.9527  159.3499 H   0  0  0  0  0  0  0  0  0  0  0  0  # atno 6908 bound_to 6896
  151.7374  135.0862  160.0361 H   0  0  0  0  0  0  0  0  0  0  0  0  # atno 6909 bound_to 6896
  145.2869  140.9342  143.2900 H   0  0  0  0  0  0  0  0  0  0  0  0  # atno 7974 bound_to 7965
  154.9055  140.0411  157.1917 H   0  0  0  0  0  0  0  0  0  0  0  0  # atno 8008 bound_to 7997
  154.8401  140.2913  155.5644 H   0  0  0  0  0  0  0  0  0  0  0  0  # atno 8009 bound_to 7997
  156.2991  140.2484  156.3341 H   0  0  0  0  0  0  0  0  0  0  0  0  # atno 8010 bound_to 7997
  139.6870  144.7112  151.1415 H   0  0  0  0  0  0  0  0  0  0  0  0  # atno 10167 bound_to 10162
  156.9108  130.9909  151.3021 H   0  0  0  0  0  0  0  0  0  0  0  0  # atno 10718 bound_to 10713
  154.7880  135.4785  153.9989 H   0  0  0  0  0  0  0  0  0  0  0  0  # atno 10763 bound_to 10752
  153.1588  135.6805  153.8779 H   0  0  0  0  0  0  0  0  0  0  0  0  # atno 10764 bound_to 10752
  153.8400  135.3180  155.3403 H   0  0  0  0  0  0  0  0  0  0  0  0  # atno 10765 bound_to 10752
  141.0297  134.0000  157.3162 H   0  0  0  0  0  0  0  0  0  0  0  0  # atno 11005 bound_to 11000
  144.9206  139.4417  143.6543 LP  0  0  0  0  0  0  0  0  0  0  0  0  # atno 17320 bound_to 7965
  146.3198  139.8064  142.8955 LP  0  0  0  0  0  0  0  0  0  0  0  0  # atno 17321 bound_to 7965
  140.7671  143.5615  150.9093 LP  0  0  0  0  0  0  0  0  0  0  0  0  # atno 17342 bound_to 10162
  139.9290  143.6515  152.3080 LP  0  0  0  0  0  0  0  0  0  0  0  0  # atno 17343 bound_to 10162
  157.5969  130.8484  149.8742 LP  0  0  0  0  0  0  0  0  0  0  0  0  # atno 17370 bound_to 10713
  156.0537  130.3712  150.1141 LP  0  0  0  0  0  0  0  0  0  0  0  0  # atno 17371 bound_to 10713
  139.9199  135.0200  156.8025 LP  0  0  0  0  0  0  0  0  0  0  0  0  # atno 17394 bound_to 11000
  140.6429  133.9802  155.7716 LP  0  0  0  0  0  0  0  0  0  0  0  0  # atno 17395 bound_to 11000

$$$$
