AV-unprocessed.smi:1502|AV-procd|sdf|6067|dock3
  -GOLD-   22720 6183D 1   1.00000     0.00000
 Structure written by MMmdl.
 40 41  0  0  0  0  0  0  0  0  1 V2000
  149.4572  142.1185  157.6664 O   0  0  0  0  0  0  0  0  0  0  0  0
  150.4582  141.7541  157.0505 C   0  0  0  0  0  0  0  0  0  0  0  0
  150.2987  141.2162  155.6171 C   0  0  0  0  0  0  0  0  0  0  0  0
  150.2678  139.7482  155.5035 N   0  0  0  0  0  0  0  0  0  0  0  0
  151.0150  139.2491  154.4507 N   0  0  0  0  0  0  0  0  0  0  0  0
  151.0503  137.9779  154.2442 C   0  0  0  0  0  0  0  0  0  0  0  0
  150.3329  137.0414  155.0806 C   0  0  0  0  0  0  0  0  0  0  0  0
  150.4173  135.3463  154.7540 Cl  0  0  0  0  0  0  0  0  0  0  0  0
  149.6061  137.5402  156.1120 C   0  0  0  0  0  0  0  0  0  0  0  0
  148.7195  136.4822  157.1551 Cl  0  0  0  0  0  0  0  0  0  0  0  0
  149.5417  138.9841  156.3771 C   0  0  0  0  0  0  0  0  0  0  0  0
  148.8867  139.4763  157.2963 O   0  0  0  0  0  0  0  0  0  0  0  0
  151.6952  141.8027  157.5750 N   0  0  0  0  0  0  0  0  0  0  0  0
  152.0493  142.2956  158.9039 C   0  0  0  0  0  0  0  0  0  0  0  0
  152.6318  143.7232  158.7846 C   0  0  0  0  0  0  0  0  0  0  0  0
  151.9031  144.7914  159.6222 C   0  0  0  0  0  0  0  0  0  0  0  0
  151.5300  144.4281  161.0749 C   0  0  0  0  0  0  0  0  0  0  0  0
  152.6650  143.8788  161.9569 C   0  0  0  0  0  0  0  0  0  0  0  0
  152.8064  142.3408  161.9716 C   0  0  0  0  0  0  0  0  0  0  0  0
  153.7134  141.7555  160.8748 C   0  0  0  0  0  0  0  0  0  0  0  0
  153.0126  141.2940  159.5802 C   0  0  0  0  0  0  0  0  0  0  0  0
  149.3801  141.6375  155.2049 H   0  0  0  0  0  0  0  0  0  0  0  0
  151.1014  141.6251  155.0006 H   0  0  0  0  0  0  0  0  0  0  0  0
  151.6234  137.5398  153.4269 H   0  0  0  0  0  0  0  0  0  0  0  0
  152.4579  141.4799  156.9977 H   0  0  0  0  0  0  0  0  0  0  0  0
  151.1279  142.3301  159.4836 H   0  0  0  0  0  0  0  0  0  0  0  0
  153.6908  143.7295  159.0381 H   0  0  0  0  0  0  0  0  0  0  0  0
  152.6120  144.0542  157.7449 H   0  0  0  0  0  0  0  0  0  0  0  0
  152.5145  145.6943  159.6294 H   0  0  0  0  0  0  0  0  0  0  0  0
  150.9845  145.0674  159.1032 H   0  0  0  0  0  0  0  0  0  0  0  0
  151.1624  145.3440  161.5392 H   0  0  0  0  0  0  0  0  0  0  0  0
  150.6761  143.7516  161.1014 H   0  0  0  0  0  0  0  0  0  0  0  0
  153.6128  144.3637  161.7214 H   0  0  0  0  0  0  0  0  0  0  0  0
  152.4387  144.1804  162.9806 H   0  0  0  0  0  0  0  0  0  0  0  0
  153.2616  142.0788  162.9275 H   0  0  0  0  0  0  0  0  0  0  0  0
  151.8320  141.8509  161.9778 H   0  0  0  0  0  0  0  0  0  0  0  0
  154.5235  142.4494  160.6520 H   0  0  0  0  0  0  0  0  0  0  0  0
  154.2141  140.8791  161.2878 H   0  0  0  0  0  0  0  0  0  0  0  0
  152.4620  140.3769  159.7940 H   0  0  0  0  0  0  0  0  0  0  0  0
  153.7894  141.0087  158.8694 H   0  0  0  0  0  0  0  0  0  0  0  0
  1  2  2  0  0  0  0
  2  3  1  0  0  0  0
  2 13  1  0  0  0  0
  3  4  1  0  0  0  0
  3 22  1  0  0  0  0
  3 23  1  0  0  0  0
  4 11  1  0  0  0  0
  4  5  1  0  0  0  0
  5  6  2  0  0  0  0
  6  7  1  0  0  0  0
  6 24  1  0  0  0  0
  7  8  1  0  0  0  0
  7  9  2  0  0  0  0
  9 10  1  0  0  0  0
  9 11  1  0  0  0  0
 11 12  2  0  0  0  0
 13 14  1  0  0  0  0
 13 25  1  0  0  0  0
 14 21  1  0  0  0  0
 14 15  1  0  0  0  0
 14 26  1  0  0  0  0
 15 16  1  0  0  0  0
 15 27  1  0  0  0  0
 15 28  1  0  0  0  0
 16 17  1  0  0  0  0
 16 29  1  0  0  0  0
 16 30  1  0  0  0  0
 17 18  1  0  0  0  0
 17 31  1  0  0  0  0
 17 32  1  0  0  0  0
 18 19  1  0  0  0  0
 18 33  1  0  0  0  0
 18 34  1  0  0  0  0
 19 20  1  0  0  0  0
 19 35  1  0  0  0  0
 19 36  1  0  0  0  0
 20 21  1  0  0  0  0
 20 37  1  0  0  0  0
 20 38  1  0  0  0  0
 21 39  1  0  0  0  0
 21 40  1  0  0  0  0
M  END
> <s_m_source_file>
AV-unprocessed.smi

> <i_m_source_file_index>
1502

> <i_lp_mmshare_version>
43012

> <i_f3d_flags>
0

> <s_epik_input>
Tz1jMWMoQ2wpYyhDbClbY0hdbm4xW0NIMl1DKD1PKVtOSF1bQ0hdMltDSDJdW0NIMl1bQ0gyXVtDSDJdW0NIMl1bQ0gyXVtDSDJdMg==

> <s_epik_cmdline>
J2VwaWtfcHl0aG9uJywgJy1waCcsICc3LjAnLCAnLXRuJywgJzgnLCAnLW1hJywgJzIwMCcsICctbWV0YWxfYmluZGluZycsICctaW1hZScsICc8aW5maWxlLm1hZT4nLCAnLW9tYWUnLCAnPG91dGZpbGUubWFlPic=

> <r_lp_tautomer_probability>
1

> <r_epik_Ionization_Penalty>
2.0245e-08

> <r_epik_Ionization_Penalty_Charging>
3.01779e-11

> <r_epik_Ionization_Penalty_Neutral>
2.02148e-08

> <r_epik_State_Penalty>
-0

> <r_epik_Charging_Adjusted_Penalty>
3.01779e-11

> <i_epik_Tot_Q>
0

> <i_epik_Tot_abs_Q>
0

> <r_epik_Metal_State_Penalty>
-0

> <b_epik_Metal_Only>
0

> <s_lp_Force_Field>
OPLS_2005

> <r_lp_Energy>
35.729

> <b_lp_Chiralities_Consistent>
1

> <s_lp_Variant>
AV-unprocessed.smi:1502-1

> <Gold.Version>
5.8.1

> <Gold.Id.Protein>
6NUR|6NUR_protein|mol2

> <Gold.PLP.Fitness>
47.4171

> <Gold.PLP.PLP>
-42.8775

> <Gold.PLP.part.hbond>
-1.0000

> <Gold.PLP.part.metal>
0.0000

> <Gold.PLP.part.buried>
-3.4802

> <Gold.PLP.part.nonpolar>
-37.8620

> <Gold.PLP.part.repulsive>
0.3408

> <Gold.PLP.ligand.clash>
0.0000

> <Gold.PLP.ligand.torsion>
0.7405

> <Gold.PLP.Chemscore.Hbond>
1.0000

> <Gold.PLP.Chemscore.CHOScore>
1.0000

> <Gold.PLP.Chemscore.Metal>
0.0000

> <Gold.Chemscore.Hbonds>
donor molecule, donor type, donor heavy atom, donor atom, acceptor molecule, acceptor atom, score
      P1  H  7989  7998       L1     5  1.00
      L1  C     6    24       P1  7949  1.00

> <Gold.PLP.Chemscore.Internal.Correction>
0.0206

> <Gold.Rescore>
     Score         DG    S(hbond)    S(metal)    S(lipo)     H(rot)  DE(clash)    DE(int)     intcor
     15.52     -18.68       0.88        0.00     120.28       1.49       0.02       3.14       ----

> <Gold.Chemscore.Fitness>
15.5190

> <Gold.Chemscore.DG>
-18.6834

> <Gold.Chemscore.ZeroCoef>
-5.4800

> <Gold.Chemscore.Hbond>
0.8791

> <Gold.Chemscore.Metal>
0.0000

> <Gold.Chemscore.Lipo>
120.2817

> <Gold.Chemscore.Internal_Hbond>
0.0000

> <Gold.Chemscore.DEClash>
0.0236

> <Gold.Chemscore.DEInternal>
3.1408

> <Gold.Chemscore.Rot>
1.4866

> <Gold.Chemscore.Internal.Correction>
   9.000000E+99

> <Gold.Chemscore.Hbonds>
donor molecule, donor type, donor heavy atom, donor atom, acceptor molecule, acceptor atom, score
      P1  H  7989  7998       L1     5  0.49

> <Gold.Chemscore.Hbond.Weighted>
-2.9361

> <Gold.Chemscore.Metal.Weighted>
-0.0000

> <Gold.Chemscore.Lipo.Weighted>
-14.0730

> <Gold.Chemscore.Internal_Hbond.Weighted>
0.0000

> <Gold.Chemscore.DEClash.Weighted>
0.0236

> <Gold.Chemscore.DEInternal.Weighted>
3.1408

> <Gold.Chemscore.Rot.Weighted>
3.8057

> <Gold.Chemscore.Internal.Correction.Weighted>
   9.000000E+99

> <Gold.Protein.RotatedTorsions>
[ 6907 6896 6895 6894 ] final -154.52 input  -60.11 | X-H torsion
[ 7974 7965 7964 7962 ] final  -26.91 input  175.53 | X-H torsion
[ 8008 7997 7996 7995 ] final   -0.00 input   59.86 | X-H torsion
[ 10167 10162 10161 10158 ] final  -53.40 input  -65.29 | X-H torsion
[ 10718 10713 10712 10709 ] final  137.37 input   66.30 | X-H torsion
[ 10763 10752 10751 10750 ] final  143.23 input  -60.55 | X-H torsion
[ 11005 11000 10999 10996 ] final -158.22 input  -57.11 | X-H torsion

> <Gold.Protein.ActiveResidues>
 VAL166  LYS551  ARG553  GLY616  TRP617  ASP618  TYR619  PRO620  LYS621  CYS622 
 ASP623  PHE694  ASN695  SER759  ASP760  ASP761  ALA762  ILE779  LEU786  VAL792 
 PHE793  MET794  SER795  GLU796  ALA797  LYS798  CYS799  TRP800  GLU811  SER814 

> <Gold.Protein.RotatedAtoms>
  151.2587  133.4313  159.2614 H   0  0  0  0  0  0  0  0  0  0  0  0  # atno 6907 bound_to 6896
  151.0550  134.9699  159.8241 H   0  0  0  0  0  0  0  0  0  0  0  0  # atno 6908 bound_to 6896
  152.5389  134.2540  159.8962 H   0  0  0  0  0  0  0  0  0  0  0  0  # atno 6909 bound_to 6896
  146.1394  140.5082  142.8659 H   0  0  0  0  0  0  0  0  0  0  0  0  # atno 7974 bound_to 7965
  154.6630  140.2595  155.7088 H   0  0  0  0  0  0  0  0  0  0  0  0  # atno 8008 bound_to 7997
  156.2627  140.2844  156.1031 H   0  0  0  0  0  0  0  0  0  0  0  0  # atno 8009 bound_to 7997
  155.1280  140.0378  157.2757 H   0  0  0  0  0  0  0  0  0  0  0  0  # atno 8010 bound_to 7997
  140.6487  143.2551  151.4787 H   0  0  0  0  0  0  0  0  0  0  0  0  # atno 10167 bound_to 10162
  157.4368  131.1054  151.0189 H   0  0  0  0  0  0  0  0  0  0  0  0  # atno 10718 bound_to 10713
  153.9688  135.2952  155.3429 H   0  0  0  0  0  0  0  0  0  0  0  0  # atno 10763 bound_to 10752
  154.7334  135.5057  153.9004 H   0  0  0  0  0  0  0  0  0  0  0  0  # atno 10764 bound_to 10752
  153.0910  135.6707  153.9966 H   0  0  0  0  0  0  0  0  0  0  0  0  # atno 10765 bound_to 10752
  140.6560  134.4400  157.5235 H   0  0  0  0  0  0  0  0  0  0  0  0  # atno 11005 bound_to 11000
  144.7775  140.5770  143.6628 LP  0  0  0  0  0  0  0  0  0  0  0  0  # atno 17320 bound_to 7965
  145.5083  139.1480  143.3619 LP  0  0  0  0  0  0  0  0  0  0  0  0  # atno 17321 bound_to 7965
  139.5699  144.1953  152.1821 LP  0  0  0  0  0  0  0  0  0  0  0  0  # atno 17342 bound_to 10162
  140.1246  144.5343  150.6841 LP  0  0  0  0  0  0  0  0  0  0  0  0  # atno 17343 bound_to 10162
  157.1066  130.6004  149.5472 LP  0  0  0  0  0  0  0  0  0  0  0  0  # atno 17370 bound_to 10713
  155.9933  130.4994  150.7376 LP  0  0  0  0  0  0  0  0  0  0  0  0  # atno 17371 bound_to 10713
  139.9029  134.8514  156.1821 LP  0  0  0  0  0  0  0  0  0  0  0  0  # atno 17394 bound_to 11000
  141.0501  133.6893  156.1756 LP  0  0  0  0  0  0  0  0  0  0  0  0  # atno 17395 bound_to 11000

$$$$
