AV-unprocessed.smi:3148|AV-procd|sdf|11995|dock10
  -GOLD-   2272017403D 1   1.00000     0.00000
 Structure written by MMmdl.
 35 37  0  0  0  0  0  0  0  0  2 V2000
  153.8229  141.2450  160.6611 C   0  0  0  0  0  0  0  0  0  0  0  0
  153.2116  140.9647  159.4063 O   0  0  0  0  0  0  0  0  0  0  0  0
  152.3653  141.9106  158.8655 C   0  0  0  0  0  0  0  0  0  0  0  0
  152.2153  143.1525  159.5042 C   0  0  0  0  0  0  0  0  0  0  0  0
  151.3400  144.0789  158.9053 C   0  0  0  0  0  0  0  0  0  0  0  0
  151.0980  145.4531  159.4922 C   0  0  0  0  0  0  0  0  0  0  0  0
  150.6843  143.7547  157.7630 N   0  3  0  0  0  0  0  0  0  0  0  0
  150.8723  142.5512  157.2015 C   0  0  0  0  0  0  0  0  0  0  0  0
  150.1860  142.2755  156.0326 N   0  0  0  0  0  0  0  0  0  0  0  0
  150.2851  141.0161  155.3058 C   0  0  2  0  0  0  0  0  0  0  0  0
  149.1946  140.8532  154.2390 C   0  0  0  0  0  0  0  0  0  0  0  0
  148.5369  139.5328  154.6589 C   0  0  1  0  0  0  0  0  0  0  0  0
  149.4587  138.3268  154.4327 C   0  0  0  0  0  0  0  0  0  0  0  0
  150.4849  138.5036  155.5514 C   0  0  0  0  0  0  0  0  0  0  0  0
  150.0114  139.8051  156.2128 C   0  0  2  0  0  0  0  0  0  0  0  0
  148.6080  139.6579  156.0681 O   0  0  0  0  0  0  0  0  0  0  0  0
  151.6920  141.6293  157.7257 N   0  0  0  0  0  0  0  0  0  0  0  0
  154.4503  140.4030  160.9529 H   0  0  0  0  0  0  0  0  0  0  0  0
  153.0778  141.3891  161.4451 H   0  0  0  0  0  0  0  0  0  0  0  0
  154.4601  142.1288  160.6065 H   0  0  0  0  0  0  0  0  0  0  0  0
  152.7517  143.3825  160.4134 H   0  0  0  0  0  0  0  0  0  0  0  0
  151.5884  145.5598  160.4602 H   0  0  0  0  0  0  0  0  0  0  0  0
  150.0304  145.6259  159.6314 H   0  0  0  0  0  0  0  0  0  0  0  0
  151.4878  146.2225  158.8252 H   0  0  0  0  0  0  0  0  0  0  0  0
  149.7029  143.0409  155.5854 H   0  0  0  0  0  0  0  0  0  0  0  0
  151.2824  140.9378  154.8707 H   0  0  0  0  0  0  0  0  0  0  0  0
  148.4655  141.6641  154.2781 H   0  0  0  0  0  0  0  0  0  0  0  0
  149.5996  140.8136  153.2273 H   0  0  0  0  0  0  0  0  0  0  0  0
  147.5271  139.3986  154.2702 H   0  0  0  0  0  0  0  0  0  0  0  0
  148.9140  137.3903  154.5582 H   0  0  0  0  0  0  0  0  0  0  0  0
  149.9083  138.3307  153.4393 H   0  0  0  0  0  0  0  0  0  0  0  0
  150.4303  137.6712  156.2542 H   0  0  0  0  0  0  0  0  0  0  0  0
  151.5087  138.5702  155.1817 H   0  0  0  0  0  0  0  0  0  0  0  0
  150.3543  139.9203  157.2417 H   0  0  0  0  0  0  0  0  0  0  0  0
  150.0550  144.4356  157.3375 H   0  0  0  0  0  0  0  0  0  0  0  0
  1  2  1  0  0  0  0
  1 18  1  0  0  0  0
  1 19  1  0  0  0  0
  1 20  1  0  0  0  0
  2  3  1  0  0  0  0
  3 17  1  0  0  0  0
  3  4  2  0  0  0  0
  4  5  1  0  0  0  0
  4 21  1  0  0  0  0
  5  6  1  0  0  0  0
  5  7  2  0  0  0  0
  6 22  1  0  0  0  0
  6 23  1  0  0  0  0
  6 24  1  0  0  0  0
  7  8  1  0  0  0  0
  7 35  1  0  0  0  0
  8  9  1  0  0  0  0
  8 17  2  0  0  0  0
  9 10  1  0  0  0  0
  9 25  1  0  0  0  0
 10 15  1  0  0  0  0
 10 11  1  0  0  0  0
 10 26  1  0  0  0  0
 11 12  1  0  0  0  0
 11 27  1  0  0  0  0
 11 28  1  0  0  0  0
 12 16  1  0  0  0  0
 12 13  1  0  0  0  0
 12 29  1  0  0  0  0
 13 14  1  0  0  0  0
 13 30  1  0  0  0  0
 13 31  1  0  0  0  0
 14 15  1  0  0  0  0
 14 32  1  0  0  0  0
 14 33  1  0  0  0  0
 15 16  1  0  0  0  0
 15 34  1  0  0  0  0
M  CHG  1   7   1
M  END
> <s_m_source_file>
AV-unprocessed.smi

> <i_m_source_file_index>
3148

> <i_lp_mmshare_version>
43012

> <i_f3d_flags>
0

> <s_epik_input>
W0NIM11PYzFbY0hdYyhbQ0gzXSluYyhuMSlbTkhdW0NASF0oW0NIMl1bQ0BASF0yMylbQ0BASF0oTzMpW0NIMl1bQ0gyXTI=

> <s_epik_cmdline>
J2VwaWtfcHl0aG9uJywgJy1waCcsICc3LjAnLCAnLXRuJywgJzgnLCAnLW1hJywgJzIwMCcsICctbWV0YWxfYmluZGluZycsICctaW1hZScsICc8aW5maWxlLm1hZT4nLCAnLW9tYWUnLCAnPG91dGZpbGUubWFlPic=

> <r_lp_tautomer_probability>
0.999985

> <r_epik_Ionization_Penalty>
1.09461

> <r_epik_Ionization_Penalty_Charging>
1.0946

> <r_epik_Ionization_Penalty_Neutral>
6.69406e-06

> <r_epik_State_Penalty>
1.15119

> <r_epik_Charging_Adjusted_Penalty>
2.24579

> <i_epik_Tot_Q>
1

> <i_epik_Tot_abs_Q>
1

> <r_epik_Metal_State_Penalty>
1.2392

> <b_epik_Metal_Only>
0

> <s_lp_Force_Field>
OPLS_2005

> <r_lp_Energy>
35.8621

> <b_lp_Chiralities_Consistent>
1

> <s_lp_Variant>
AV-unprocessed.smi:3148-5

> <Gold.Version>
5.8.1

> <Gold.Id.Protein>
6NUR|6NUR_protein|mol2

> <Gold.PLP.Fitness>
42.0284

> <Gold.PLP.PLP>
-31.0879

> <Gold.PLP.part.hbond>
-2.0000

> <Gold.PLP.part.metal>
0.0000

> <Gold.PLP.part.buried>
-2.2658

> <Gold.PLP.part.nonpolar>
-27.5837

> <Gold.PLP.part.repulsive>
0.1519

> <Gold.PLP.ligand.clash>
0.0079

> <Gold.PLP.ligand.torsion>
0.1273

> <Gold.PLP.Chemscore.Hbond>
3.7280

> <Gold.PLP.Chemscore.CHOScore>
0.0000

> <Gold.PLP.Chemscore.Metal>
0.0000

> <Gold.Chemscore.Hbonds>
donor molecule, donor type, donor heavy atom, donor atom, acceptor molecule, acceptor atom, score
      L1  H     7    35       P1  8028  1.71
      L1  H     9    25       P1  8028  2.00

> <Gold.PLP.Chemscore.Internal.Correction>
0.0190

> <Gold.Rescore>
     Score         DG    S(hbond)    S(metal)    S(lipo)     H(rot)  DE(clash)    DE(int)     intcor
     16.13     -16.20       1.40        0.00      78.60       1.24       0.04       0.03       ----

> <Gold.Chemscore.Fitness>
16.1349

> <Gold.Chemscore.DG>
-16.1984

> <Gold.Chemscore.ZeroCoef>
-5.4800

> <Gold.Chemscore.Hbond>
1.4043

> <Gold.Chemscore.Metal>
0.0000

> <Gold.Chemscore.Lipo>
78.5999

> <Gold.Chemscore.Internal_Hbond>
0.0000

> <Gold.Chemscore.DEClash>
0.0352

> <Gold.Chemscore.DEInternal>
0.0283

> <Gold.Chemscore.Rot>
1.2376

> <Gold.Chemscore.Internal.Correction>
   9.000000E+99

> <Gold.Chemscore.Hbonds>
donor molecule, donor type, donor heavy atom, donor atom, acceptor molecule, acceptor atom, score
      L1  H     7    35       P1  8028  0.31
      L1  H     9    25       P1  8028  0.95

> <Gold.Chemscore.Hbond.Weighted>
-4.6904

> <Gold.Chemscore.Metal.Weighted>
-0.0000

> <Gold.Chemscore.Lipo.Weighted>
-9.1962

> <Gold.Chemscore.Internal_Hbond.Weighted>
0.0000

> <Gold.Chemscore.DEClash.Weighted>
0.0352

> <Gold.Chemscore.DEInternal.Weighted>
0.0283

> <Gold.Chemscore.Rot.Weighted>
3.1681

> <Gold.Chemscore.Internal.Correction.Weighted>
   9.000000E+99

> <Gold.Protein.RotatedTorsions>
[ 6907 6896 6895 6894 ] final -115.33 input  -60.11 | X-H torsion
[ 7974 7965 7964 7962 ] final  -87.08 input  175.53 | X-H torsion
[ 8008 7997 7996 7995 ] final   64.98 input   59.86 | X-H torsion
[ 10167 10162 10161 10158 ] final -173.25 input  -65.29 | X-H torsion
[ 10718 10713 10712 10709 ] final   82.54 input   66.30 | X-H torsion
[ 10763 10752 10751 10750 ] final   40.43 input  -60.55 | X-H torsion
[ 11005 11000 10999 10996 ] final  -51.91 input  -57.11 | X-H torsion

> <Gold.Protein.ActiveResidues>
 VAL166  LYS551  ARG553  GLY616  TRP617  ASP618  TYR619  PRO620  LYS621  CYS622 
 ASP623  PHE694  ASN695  SER759  ASP760  ASP761  ALA762  ILE779  LEU786  VAL792 
 PHE793  MET794  SER795  GLU796  ALA797  LYS798  CYS799  TRP800  GLU811  SER814 

> <Gold.Protein.RotatedAtoms>
  150.7970  133.8673  159.3248 H   0  0  0  0  0  0  0  0  0  0  0  0  # atno 6907 bound_to 6896
  151.6496  135.1001  160.0167 H   0  0  0  0  0  0  0  0  0  0  0  0  # atno 6908 bound_to 6896
  152.4053  133.6839  159.6386 H   0  0  0  0  0  0  0  0  0  0  0  0  # atno 6909 bound_to 6896
  145.4713  140.9559  143.1915 H   0  0  0  0  0  0  0  0  0  0  0  0  # atno 7974 bound_to 7965
  155.6546  140.3497  155.4760 H   0  0  0  0  0  0  0  0  0  0  0  0  # atno 8008 bound_to 7997
  155.9819  140.1176  157.0741 H   0  0  0  0  0  0  0  0  0  0  0  0  # atno 8009 bound_to 7997
  154.4194  140.1136  156.5433 H   0  0  0  0  0  0  0  0  0  0  0  0  # atno 8010 bound_to 7997
  139.5699  144.1667  152.1368 H   0  0  0  0  0  0  0  0  0  0  0  0  # atno 10167 bound_to 10162
  157.6859  131.0052  150.2390 H   0  0  0  0  0  0  0  0  0  0  0  0  # atno 10718 bound_to 10713
  152.9936  135.6191  154.2625 H   0  0  0  0  0  0  0  0  0  0  0  0  # atno 10763 bound_to 10752
  154.2361  135.2790  155.2873 H   0  0  0  0  0  0  0  0  0  0  0  0  # atno 10764 bound_to 10752
  154.5409  135.5761  153.6896 H   0  0  0  0  0  0  0  0  0  0  0  0  # atno 10765 bound_to 10752
  141.0896  133.6635  156.3947 H   0  0  0  0  0  0  0  0  0  0  0  0  # atno 11005 bound_to 11000
  144.7943  139.6265  143.7099 LP  0  0  0  0  0  0  0  0  0  0  0  0  # atno 17320 bound_to 7965
  146.2395  139.5972  142.9501 LP  0  0  0  0  0  0  0  0  0  0  0  0  # atno 17321 bound_to 7965
  140.1198  144.5384  150.6870 LP  0  0  0  0  0  0  0  0  0  0  0  0  # atno 17342 bound_to 10162
  140.6983  143.2418  151.4937 LP  0  0  0  0  0  0  0  0  0  0  0  0  # atno 17343 bound_to 10162
  156.3008  130.3758  149.7752 LP  0  0  0  0  0  0  0  0  0  0  0  0  # atno 17370 bound_to 10713
  156.5383  130.8288  151.3260 LP  0  0  0  0  0  0  0  0  0  0  0  0  # atno 17371 bound_to 10713
  140.5282  134.6238  157.5341 LP  0  0  0  0  0  0  0  0  0  0  0  0  # atno 17394 bound_to 11000
  139.9720  134.7277  156.0023 LP  0  0  0  0  0  0  0  0  0  0  0  0  # atno 17395 bound_to 11000

$$$$
