AV-unprocessed.smi:1414|AV-procd|sdf|5761|dock2
  -GOLD-   22720 5403D 1   1.00000     0.00000
 Structure written by MMmdl.
 45 46  0  0  0  0  0  0  0  0  1 V2000
  149.2908  140.9119  154.9433 C   0  0  0  0  0  0  0  0  0  0  0  0
  149.8988  139.5053  154.9511 C   0  0  2  0  0  0  0  0  0  0  0  0
  149.6181  138.7611  156.2717 C   0  0  0  0  0  0  0  0  0  0  0  0
  150.3380  137.4774  156.3247 N   0  0  0  0  0  0  0  0  0  0  0  0
  149.4798  135.9897  156.0541 S   0  0  0  0  0  0  0  0  0  0  0  0
  149.3690  135.2911  157.3439 O   0  0  0  0  0  0  0  0  0  0  0  0
  148.2594  136.3028  155.2948 O   0  0  0  0  0  0  0  0  0  0  0  0
  150.6013  135.0127  154.9667 C   0  0  0  0  0  0  0  0  0  0  0  0
  149.8921  133.7559  154.4413 C   0  0  0  0  0  0  0  0  0  0  0  0
  148.8645  134.0881  153.4607 N   0  0  0  0  0  0  0  0  0  0  0  0
  147.9146  133.2478  153.0265 C   0  0  0  0  0  0  0  0  0  0  0  0
  147.8076  132.0862  153.4189 O   0  0  0  0  0  0  0  0  0  0  0  0
  147.1251  133.8380  152.1125 N   0  0  0  0  0  0  0  0  0  0  0  0
  146.0056  133.2970  151.4231 C   0  0  0  0  0  0  0  0  0  0  0  0
  144.8457  134.0336  151.0800 C   0  0  0  0  0  0  0  0  0  0  0  0
  143.8103  133.3843  150.3804 C   0  0  0  0  0  0  0  0  0  0  0  0
  143.9737  132.0266  150.0437 C   0  0  0  0  0  0  0  0  0  0  0  0
  145.0789  131.3160  150.3519 N   0  0  0  0  0  0  0  0  0  0  0  0
  146.0677  131.9455  151.0219 C   0  0  0  0  0  0  0  0  0  0  0  0
  151.7619  137.5782  155.9638 C   0  0  0  0  0  0  0  0  0  0  0  0
  151.9494  138.3684  154.6536 C   0  0  2  0  0  0  0  0  0  0  0  0
  153.4284  138.6174  154.3391 C   0  0  0  0  0  0  0  0  0  0  0  0
  151.3027  139.6296  154.7649 O   0  0  0  0  0  0  0  0  0  0  0  0
  148.2089  140.8722  155.0707 H   0  0  0  0  0  0  0  0  0  0  0  0
  149.4954  141.4190  154.0002 H   0  0  0  0  0  0  0  0  0  0  0  0
  149.7009  141.5245  155.7467 H   0  0  0  0  0  0  0  0  0  0  0  0
  149.4777  138.9522  154.1117 H   0  0  0  0  0  0  0  0  0  0  0  0
  149.9500  139.3703  157.1134 H   0  0  0  0  0  0  0  0  0  0  0  0
  148.5479  138.6042  156.4050 H   0  0  0  0  0  0  0  0  0  0  0  0
  150.9107  135.6482  154.1386 H   0  0  0  0  0  0  0  0  0  0  0  0
  151.4862  134.7414  155.5404 H   0  0  0  0  0  0  0  0  0  0  0  0
  150.6157  133.0958  153.9628 H   0  0  0  0  0  0  0  0  0  0  0  0
  149.4541  133.1905  155.2657 H   0  0  0  0  0  0  0  0  0  0  0  0
  148.8846  135.0229  153.0796 H   0  0  0  0  0  0  0  0  0  0  0  0
  147.3881  134.7735  151.8393 H   0  0  0  0  0  0  0  0  0  0  0  0
  144.7330  135.0782  151.3234 H   0  0  0  0  0  0  0  0  0  0  0  0
  142.9122  133.9170  150.1049 H   0  0  0  0  0  0  0  0  0  0  0  0
  143.1987  131.4995  149.5073 H   0  0  0  0  0  0  0  0  0  0  0  0
  146.9378  131.3466  151.2487 H   0  0  0  0  0  0  0  0  0  0  0  0
  152.2829  138.0857  156.7764 H   0  0  0  0  0  0  0  0  0  0  0  0
  152.2054  136.5861  155.8816 H   0  0  0  0  0  0  0  0  0  0  0  0
  151.5142  137.8191  153.8186 H   0  0  0  0  0  0  0  0  0  0  0  0
  153.9713  137.6776  154.2348 H   0  0  0  0  0  0  0  0  0  0  0  0
  153.9087  139.1962  155.1286 H   0  0  0  0  0  0  0  0  0  0  0  0
  153.5397  139.1706  153.4065 H   0  0  0  0  0  0  0  0  0  0  0  0
  1  2  1  0  0  0  0
  1 24  1  0  0  0  0
  1 25  1  0  0  0  0
  1 26  1  0  0  0  0
  2 23  1  0  0  0  0
  2  3  1  0  0  0  0
  2 27  1  0  0  0  0
  3  4  1  0  0  0  0
  3 28  1  0  0  0  0
  3 29  1  0  0  0  0
  4  5  1  0  0  0  0
  4 20  1  0  0  0  0
  5  6  2  0  0  0  0
  5  7  2  0  0  0  0
  5  8  1  0  0  0  0
  8  9  1  0  0  0  0
  8 30  1  0  0  0  0
  8 31  1  0  0  0  0
  9 10  1  0  0  0  0
  9 32  1  0  0  0  0
  9 33  1  0  0  0  0
 10 11  1  0  0  0  0
 10 34  1  0  0  0  0
 11 12  2  0  0  0  0
 11 13  1  0  0  0  0
 13 14  1  0  0  0  0
 13 35  1  0  0  0  0
 14 19  1  0  0  0  0
 14 15  2  0  0  0  0
 15 16  1  0  0  0  0
 15 36  1  0  0  0  0
 16 17  2  0  0  0  0
 16 37  1  0  0  0  0
 17 18  1  0  0  0  0
 17 38  1  0  0  0  0
 18 19  2  0  0  0  0
 19 39  1  0  0  0  0
 20 21  1  0  0  0  0
 20 40  1  0  0  0  0
 20 41  1  0  0  0  0
 21 22  1  0  0  0  0
 21 23  1  0  0  0  0
 21 42  1  0  0  0  0
 22 43  1  0  0  0  0
 22 44  1  0  0  0  0
 22 45  1  0  0  0  0
M  END
> <s_m_source_file>
AV-unprocessed.smi

> <i_m_source_file_index>
1414

> <i_lp_mmshare_version>
43012

> <i_f3d_flags>
0

> <s_epik_input>
W0NIM11bQ0BASF0xW0NIMl1OKFtDSDJdW0NASF0oTzEpW0NIM10pUyg9TykoPU8pW0NIMl1bQ0gyXVtOSF1DKD1PKVtOSF1jMltjSF1bY0hdW2NIXW5bY0hdMg==

> <s_epik_cmdline>
J2VwaWtfcHl0aG9uJywgJy1waCcsICc3LjAnLCAnLXRuJywgJzgnLCAnLW1hJywgJzIwMCcsICctbWV0YWxfYmluZGluZycsICctaW1hZScsICc8aW5maWxlLm1hZT4nLCAnLW9tYWUnLCAnPG91dGZpbGUubWFlPic=

> <r_epik_Ionization_Penalty>
0.00437531

> <r_epik_Ionization_Penalty_Charging>
0

> <r_epik_Ionization_Penalty_Neutral>
0.00437531

> <r_epik_State_Penalty>
0.00312896

> <r_epik_Charging_Adjusted_Penalty>
0.00312896

> <i_epik_Tot_Q>
0

> <i_epik_Tot_abs_Q>
0

> <r_epik_Metal_State_Penalty>
-0

> <b_epik_Metal_Only>
0

> <s_lp_Force_Field>
OPLS_2005

> <r_lp_Energy>
4.57438

> <b_lp_Chiralities_Consistent>
1

> <s_lp_Variant>
AV-unprocessed.smi:1414-2

> <Gold.Version>
5.8.1

> <Gold.Id.Protein>
6NUR|6NUR_protein|mol2

> <Gold.PLP.Fitness>
48.3700

> <Gold.PLP.PLP>
-35.8142

> <Gold.PLP.part.hbond>
-3.0000

> <Gold.PLP.part.metal>
0.0000

> <Gold.PLP.part.buried>
-4.6814

> <Gold.PLP.part.nonpolar>
-28.3772

> <Gold.PLP.part.repulsive>
0.3592

> <Gold.PLP.ligand.clash>
0.0000

> <Gold.PLP.ligand.torsion>
1.6980

> <Gold.PLP.Chemscore.Hbond>
2.9440

> <Gold.PLP.Chemscore.CHOScore>
1.6488

> <Gold.PLP.Chemscore.Metal>
0.0000

> <Gold.Chemscore.Hbonds>
donor molecule, donor type, donor heavy atom, donor atom, acceptor molecule, acceptor atom, score
      L1  H    10    34       P1  7948  1.00
      L1  H    13    35       P1  7948  0.76
      P1  H  7989  7998       L1    23  1.00
      L1  C    17    38       P1 10952  0.72
      L1  C    19    39       P1 10747  1.00

> <Gold.PLP.Chemscore.Internal.Correction>
2.1733

> <Gold.Rescore>
     Score         DG    S(hbond)    S(metal)    S(lipo)     H(rot)  DE(clash)    DE(int)     intcor
     16.32     -19.33       2.20        0.00      89.86       1.57       0.16       2.85       ----

> <Gold.Chemscore.Fitness>
16.3237

> <Gold.Chemscore.DG>
-19.3330

> <Gold.Chemscore.ZeroCoef>
-5.4800

> <Gold.Chemscore.Hbond>
2.2021

> <Gold.Chemscore.Metal>
0.0000

> <Gold.Chemscore.Lipo>
89.8617

> <Gold.Chemscore.Internal_Hbond>
0.0000

> <Gold.Chemscore.DEClash>
0.1567

> <Gold.Chemscore.DEInternal>
2.8525

> <Gold.Chemscore.Rot>
1.5687

> <Gold.Chemscore.Internal.Correction>
   9.000000E+99

> <Gold.Chemscore.Hbonds>
donor molecule, donor type, donor heavy atom, donor atom, acceptor molecule, acceptor atom, score
      L1  H    10    34       P1  7948  0.25
      L1  H    13    35       P1  7948  0.54
      P1  H  7989  7998       L1    23  0.71

> <Gold.Chemscore.Hbond.Weighted>
-7.3551

> <Gold.Chemscore.Metal.Weighted>
-0.0000

> <Gold.Chemscore.Lipo.Weighted>
-10.5138

> <Gold.Chemscore.Internal_Hbond.Weighted>
0.0000

> <Gold.Chemscore.DEClash.Weighted>
0.1567

> <Gold.Chemscore.DEInternal.Weighted>
2.8525

> <Gold.Chemscore.Rot.Weighted>
4.0160

> <Gold.Chemscore.Internal.Correction.Weighted>
   9.000000E+99

> <Gold.Protein.RotatedTorsions>
[ 6907 6896 6895 6894 ] final  148.67 input  -60.11 | X-H torsion
[ 7974 7965 7964 7962 ] final -159.91 input  175.53 | X-H torsion
[ 8008 7997 7996 7995 ] final  -17.41 input   59.86 | X-H torsion
[ 10167 10162 10161 10158 ] final  108.58 input  -65.29 | X-H torsion
[ 10718 10713 10712 10709 ] final  -26.31 input   66.30 | X-H torsion
[ 10763 10752 10751 10750 ] final   34.06 input  -60.55 | X-H torsion
[ 11005 11000 10999 10996 ] final -144.52 input  -57.11 | X-H torsion

> <Gold.Protein.ActiveResidues>
 VAL166  LYS551  ARG553  GLY616  TRP617  ASP618  TYR619  PRO620  LYS621  CYS622 
 ASP623  PHE694  ASN695  SER759  ASP760  ASP761  ALA762  ILE779  LEU786  VAL792 
 PHE793  MET794  SER795  GLU796  ALA797  LYS798  CYS799  TRP800  GLU811  SER814 

> <Gold.Protein.RotatedAtoms>
  152.1383  133.4448  159.4754 H   0  0  0  0  0  0  0  0  0  0  0  0  # atno 6907 bound_to 6896
  150.6884  134.2336  159.4453 H   0  0  0  0  0  0  0  0  0  0  0  0  # atno 6908 bound_to 6896
  152.0225  134.9814  160.0621 H   0  0  0  0  0  0  0  0  0  0  0  0  # atno 6909 bound_to 6896
  144.7447  140.3618  143.6094 H   0  0  0  0  0  0  0  0  0  0  0  0  # atno 7974 bound_to 7965
  154.4981  140.2143  155.9405 H   0  0  0  0  0  0  0  0  0  0  0  0  # atno 8008 bound_to 7997
  156.1397  140.3182  155.8443 H   0  0  0  0  0  0  0  0  0  0  0  0  # atno 8009 bound_to 7997
  155.4144  140.0492  157.3020 H   0  0  0  0  0  0  0  0  0  0  0  0  # atno 8010 bound_to 7997
  139.6835  144.7116  151.1473 H   0  0  0  0  0  0  0  0  0  0  0  0  # atno 10167 bound_to 10162
  156.4529  130.4487  149.6978 H   0  0  0  0  0  0  0  0  0  0  0  0  # atno 10718 bound_to 10713
  153.0182  135.6370  154.1609 H   0  0  0  0  0  0  0  0  0  0  0  0  # atno 10763 bound_to 10752
  154.1346  135.2838  155.3178 H   0  0  0  0  0  0  0  0  0  0  0  0  # atno 10764 bound_to 10752
  154.6169  135.5538  153.7595 H   0  0  0  0  0  0  0  0  0  0  0  0  # atno 10765 bound_to 10752
  140.8016  134.2850  157.4976 H   0  0  0  0  0  0  0  0  0  0  0  0  # atno 11005 bound_to 11000
  145.7170  139.1699  143.2506 LP  0  0  0  0  0  0  0  0  0  0  0  0  # atno 17320 bound_to 7965
  146.1305  140.7191  142.9414 LP  0  0  0  0  0  0  0  0  0  0  0  0  # atno 17321 bound_to 7965
  140.7660  143.5664  150.9043 LP  0  0  0  0  0  0  0  0  0  0  0  0  # atno 17342 bound_to 10162
  139.9337  143.6463  152.3070 LP  0  0  0  0  0  0  0  0  0  0  0  0  # atno 17343 bound_to 10162
  156.3797  130.7573  151.2564 LP  0  0  0  0  0  0  0  0  0  0  0  0  # atno 17370 bound_to 10713
  157.7502  131.0299  150.4113 LP  0  0  0  0  0  0  0  0  0  0  0  0  # atno 17371 bound_to 10713
  139.8721  134.9432  156.3847 LP  0  0  0  0  0  0  0  0  0  0  0  0  # atno 17394 bound_to 11000
  140.9289  133.7593  156.0000 LP  0  0  0  0  0  0  0  0  0  0  0  0  # atno 17395 bound_to 11000

$$$$
