AV-unprocessed.smi:527|AV-procd|sdf|2822|dock4
  -GOLD-   2262023303D 1   1.00000     0.00000
 Structure written by MMmdl.
 42 43  0  0  0  0  0  0  0  0  1 V2000
  145.9000  132.1527  149.7138 C   0  0  0  0  0  0  0  0  0  0  0  0
  145.9326  133.3111  150.7266 C   0  0  1  0  0  0  0  0  0  0  0  0
  144.9105  134.3910  150.3148 C   0  0  0  0  0  0  0  0  0  0  0  0
  144.9043  135.5823  151.2818 C   0  0  0  0  0  0  0  0  0  0  0  0
  144.6394  135.1187  152.7209 C   0  0  0  0  0  0  0  0  0  0  0  0
  145.6507  134.0457  153.1717 C   0  0  2  0  0  0  0  0  0  0  0  0
  146.9844  134.6257  153.3407 N   0  0  0  0  0  0  0  0  0  0  0  0
  147.6701  134.6845  154.4916 C   0  0  0  0  0  0  0  0  0  0  0  0
  147.2446  134.2342  155.5577 O   0  0  0  0  0  0  0  0  0  0  0  0
  148.8570  135.2956  154.3143 N   0  0  0  0  0  0  0  0  0  0  0  0
  149.6806  135.7823  155.2657 C   0  0  0  0  0  0  0  0  0  0  0  0
  149.4752  135.7290  156.4798 O   0  0  0  0  0  0  0  0  0  0  0  0
  150.9592  136.4483  154.7557 C   0  0  0  0  0  0  0  0  0  0  0  0
  150.8904  137.8896  154.9064 N   0  0  0  0  0  0  0  0  0  0  0  0
  151.3918  138.6485  155.9564 C   0  0  0  0  0  0  0  0  0  0  0  0
  151.0884  139.9610  155.6728 C   0  0  0  0  0  0  0  0  0  0  0  0
  150.4029  140.0328  154.4623 N   0  0  0  0  0  0  0  0  0  0  0  0
  150.3228  138.7686  154.0685 C   0  0  0  0  0  0  0  0  0  0  0  0
  145.6809  132.8461  152.1886 C   0  0  2  0  0  0  0  0  0  0  0  0
  146.6731  131.7635  152.6598 C   0  0  0  0  0  0  0  0  0  0  0  0
  144.9549  131.6110  149.7604 H   0  0  0  0  0  0  0  0  0  0  0  0
  146.7055  131.4397  149.8877 H   0  0  0  0  0  0  0  0  0  0  0  0
  146.0197  132.5216  148.6949 H   0  0  0  0  0  0  0  0  0  0  0  0
  146.9266  133.7578  150.6753 H   0  0  0  0  0  0  0  0  0  0  0  0
  145.1291  134.7471  149.3073 H   0  0  0  0  0  0  0  0  0  0  0  0
  143.9115  133.9545  150.2751 H   0  0  0  0  0  0  0  0  0  0  0  0
  145.8597  136.1057  151.2289 H   0  0  0  0  0  0  0  0  0  0  0  0
  144.1430  136.3015  150.9790 H   0  0  0  0  0  0  0  0  0  0  0  0
  144.6591  135.9734  153.3982 H   0  0  0  0  0  0  0  0  0  0  0  0
  143.6307  134.7089  152.7836 H   0  0  0  0  0  0  0  0  0  0  0  0
  145.3231  133.6657  154.1414 H   0  0  0  0  0  0  0  0  0  0  0  0
  147.4127  135.0137  152.5131 H   0  0  0  0  0  0  0  0  0  0  0  0
  149.1638  135.4085  153.3596 H   0  0  0  0  0  0  0  0  0  0  0  0
  151.8211  136.0749  155.3102 H   0  0  0  0  0  0  0  0  0  0  0  0
  151.1231  136.2056  153.7045 H   0  0  0  0  0  0  0  0  0  0  0  0
  151.9065  138.2044  156.7960 H   0  0  0  0  0  0  0  0  0  0  0  0
  151.3074  140.8517  156.2431 H   0  0  0  0  0  0  0  0  0  0  0  0
  149.8376  138.4744  153.1493 H   0  0  0  0  0  0  0  0  0  0  0  0
  144.6887  132.3926  152.2172 H   0  0  0  0  0  0  0  0  0  0  0  0
  147.7081  132.0861  152.5437 H   0  0  0  0  0  0  0  0  0  0  0  0
  146.5498  130.8352  152.1027 H   0  0  0  0  0  0  0  0  0  0  0  0
  146.5166  131.5235  153.7119 H   0  0  0  0  0  0  0  0  0  0  0  0
  1  2  1  0  0  0  0
  1 21  1  0  0  0  0
  1 22  1  0  0  0  0
  1 23  1  0  0  0  0
  2 19  1  0  0  0  0
  2  3  1  0  0  0  0
  2 24  1  0  0  0  0
  3  4  1  0  0  0  0
  3 25  1  0  0  0  0
  3 26  1  0  0  0  0
  4  5  1  0  0  0  0
  4 27  1  0  0  0  0
  4 28  1  0  0  0  0
  5  6  1  0  0  0  0
  5 29  1  0  0  0  0
  5 30  1  0  0  0  0
  6  7  1  0  0  0  0
  6 19  1  0  0  0  0
  6 31  1  0  0  0  0
  7  8  1  0  0  0  0
  7 32  1  0  0  0  0
  8  9  2  0  0  0  0
  8 10  1  0  0  0  0
 10 11  1  0  0  0  0
 10 33  1  0  0  0  0
 11 12  2  0  0  0  0
 11 13  1  0  0  0  0
 13 14  1  0  0  0  0
 13 34  1  0  0  0  0
 13 35  1  0  0  0  0
 14 18  1  0  0  0  0
 14 15  1  0  0  0  0
 15 16  2  0  0  0  0
 15 36  1  0  0  0  0
 16 17  1  0  0  0  0
 16 37  1  0  0  0  0
 17 18  2  0  0  0  0
 18 38  1  0  0  0  0
 19 20  1  0  0  0  0
 19 39  1  0  0  0  0
 20 40  1  0  0  0  0
 20 41  1  0  0  0  0
 20 42  1  0  0  0  0
M  END
> <s_m_source_file>
AV-unprocessed.smi

> <i_m_source_file_index>
527

> <i_lp_mmshare_version>
43012

> <i_f3d_flags>
0

> <s_epik_input>
W0NIM11bQ0BASF0xW0NIMl1bQ0gyXVtDSDJdW0NASF0oW0NASF0xW0NIM10pW05IXUMoPU8pW05IXUMoPU8pW0NIMl1uMltjSF1bY0hdbltjSF0y

> <s_epik_cmdline>
J2VwaWtfcHl0aG9uJywgJy1waCcsICc3LjAnLCAnLXRuJywgJzgnLCAnLW1hJywgJzIwMCcsICctbWV0YWxfYmluZGluZycsICctaW1hZScsICc8aW5maWxlLm1hZT4nLCAnLW9tYWUnLCAnPG91dGZpbGUubWFlPic=

> <r_lp_tautomer_probability>
1

> <r_epik_Ionization_Penalty>
0.172132

> <r_epik_Ionization_Penalty_Charging>
0.172105

> <r_epik_Ionization_Penalty_Neutral>
2.71747e-05

> <r_epik_State_Penalty>
0.161503

> <r_epik_Charging_Adjusted_Penalty>
0.333607

> <i_epik_Tot_Q>
0

> <i_epik_Tot_abs_Q>
0

> <r_epik_Metal_State_Penalty>
0.124763

> <b_epik_Metal_Only>
0

> <s_lp_Force_Field>
OPLS_2005

> <r_lp_Energy>
14.576

> <b_lp_Chiralities_Consistent>
1

> <s_lp_Variant>
AV-unprocessed.smi:527-8

> <Gold.Version>
5.8.1

> <Gold.Id.Protein>
6NUR|6NUR_protein|mol2

> <Gold.PLP.Fitness>
43.0790

> <Gold.PLP.PLP>
-30.9713

> <Gold.PLP.part.hbond>
-3.0000

> <Gold.PLP.part.metal>
0.0000

> <Gold.PLP.part.buried>
-1.4493

> <Gold.PLP.part.nonpolar>
-26.5404

> <Gold.PLP.part.repulsive>
0.1499

> <Gold.PLP.ligand.clash>
0.0000

> <Gold.PLP.ligand.torsion>
0.5435

> <Gold.PLP.Chemscore.Hbond>
2.8163

> <Gold.PLP.Chemscore.CHOScore>
1.5696

> <Gold.PLP.Chemscore.Metal>
0.0000

> <Gold.Chemscore.Hbonds>
donor molecule, donor type, donor heavy atom, donor atom, acceptor molecule, acceptor atom, score
      L1  H     7    32       P1  7948  0.86
      L1  H    10    33       P1  7948  0.98
      P1  H  7989  7998       L1    17  1.00
      L1  C    18    38       P1  7948  0.61
      L1  C    18    38       P1  7957  0.86

> <Gold.PLP.Chemscore.Internal.Correction>
0.0371

> <Gold.Rescore>
     Score         DG    S(hbond)    S(metal)    S(lipo)     H(rot)  DE(clash)    DE(int)     intcor
     12.72     -14.98       1.87        0.00      64.04       1.66       0.37       1.89       ----

> <Gold.Chemscore.Fitness>
12.7174

> <Gold.Chemscore.DG>
-14.9778

> <Gold.Chemscore.ZeroCoef>
-5.4800

> <Gold.Chemscore.Hbond>
1.8749

> <Gold.Chemscore.Metal>
0.0000

> <Gold.Chemscore.Lipo>
64.0402

> <Gold.Chemscore.Internal_Hbond>
0.0000

> <Gold.Chemscore.DEClash>
0.3720

> <Gold.Chemscore.DEInternal>
1.8884

> <Gold.Chemscore.Rot>
1.6629

> <Gold.Chemscore.Internal.Correction>
   9.000000E+99

> <Gold.Chemscore.Hbonds>
donor molecule, donor type, donor heavy atom, donor atom, acceptor molecule, acceptor atom, score
      L1  H     7    32       P1  7948  0.79
      L1  H    10    33       P1  7948  0.32
      P1  H  7989  7998       L1    17  0.18

> <Gold.Chemscore.Hbond.Weighted>
-6.2620

> <Gold.Chemscore.Metal.Weighted>
-0.0000

> <Gold.Chemscore.Lipo.Weighted>
-7.4927

> <Gold.Chemscore.Internal_Hbond.Weighted>
0.0000

> <Gold.Chemscore.DEClash.Weighted>
0.3720

> <Gold.Chemscore.DEInternal.Weighted>
1.8884

> <Gold.Chemscore.Rot.Weighted>
4.2569

> <Gold.Chemscore.Internal.Correction.Weighted>
   9.000000E+99

> <Gold.Protein.RotatedTorsions>
[ 6907 6896 6895 6894 ] final  -43.34 input  -60.11 | X-H torsion
[ 7974 7965 7964 7962 ] final -147.22 input  175.53 | X-H torsion
[ 8008 7997 7996 7995 ] final  151.51 input   59.86 | X-H torsion
[ 10167 10162 10161 10158 ] final  -93.37 input  -65.29 | X-H torsion
[ 10718 10713 10712 10709 ] final  169.36 input   66.30 | X-H torsion
[ 10763 10752 10751 10750 ] final  128.08 input  -60.55 | X-H torsion
[ 11005 11000 10999 10996 ] final  -20.81 input  -57.11 | X-H torsion

> <Gold.Protein.ActiveResidues>
 VAL166  LYS551  ARG553  GLY616  TRP617  ASP618  TYR619  PRO620  LYS621  CYS622 
 ASP623  PHE694  ASN695  SER759  ASP760  ASP761  ALA762  ILE779  LEU786  VAL792 
 PHE793  MET794  SER795  GLU796  ALA797  LYS798  CYS799  TRP800  GLU811  SER814 

> <Gold.Protein.RotatedAtoms>
  150.9450  134.8856  159.7635 H   0  0  0  0  0  0  0  0  0  0  0  0  # atno 6907 bound_to 6896
  152.5096  134.3888  159.9386 H   0  0  0  0  0  0  0  0  0  0  0  0  # atno 6908 bound_to 6896
  151.3906  133.3750  159.2755 H   0  0  0  0  0  0  0  0  0  0  0  0  # atno 6909 bound_to 6896
  144.8108  140.5355  143.5644 H   0  0  0  0  0  0  0  0  0  0  0  0  # atno 7974 bound_to 7965
  156.2670  140.2046  156.6187 H   0  0  0  0  0  0  0  0  0  0  0  0  # atno 8008 bound_to 7997
  154.6774  140.0543  157.0254 H   0  0  0  0  0  0  0  0  0  0  0  0  # atno 8009 bound_to 7997
  155.1049  140.3210  155.4540 H   0  0  0  0  0  0  0  0  0  0  0  0  # atno 8010 bound_to 7997
  140.3253  143.3025  152.0001 H   0  0  0  0  0  0  0  0  0  0  0  0  # atno 10167 bound_to 10162
  157.0238  131.0239  151.2766 H   0  0  0  0  0  0  0  0  0  0  0  0  # atno 10718 bound_to 10713
  153.7198  135.3255  155.3264 H   0  0  0  0  0  0  0  0  0  0  0  0  # atno 10763 bound_to 10752
  154.8359  135.4497  154.1229 H   0  0  0  0  0  0  0  0  0  0  0  0  # atno 10764 bound_to 10752
  153.2346  135.6964  153.7931 H   0  0  0  0  0  0  0  0  0  0  0  0  # atno 10765 bound_to 10752
  140.8501  133.7863  155.9956 H   0  0  0  0  0  0  0  0  0  0  0  0  # atno 11005 bound_to 11000
  145.5329  139.1475  143.3489 LP  0  0  0  0  0  0  0  0  0  0  0  0  # atno 17320 bound_to 7965
  146.2406  140.5470  142.8936 LP  0  0  0  0  0  0  0  0  0  0  0  0  # atno 17321 bound_to 7965
  139.4866  144.6278  151.7129 LP  0  0  0  0  0  0  0  0  0  0  0  0  # atno 17342 bound_to 10162
  140.5446  144.0523  150.6102 LP  0  0  0  0  0  0  0  0  0  0  0  0  # atno 17343 bound_to 10162
  157.5230  130.8010  149.7830 LP  0  0  0  0  0  0  0  0  0  0  0  0  # atno 17370 bound_to 10713
  156.0093  130.3840  150.2320 LP  0  0  0  0  0  0  0  0  0  0  0  0  # atno 17371 bound_to 10713
  140.8800  134.2623  157.5149 LP  0  0  0  0  0  0  0  0  0  0  0  0  # atno 17394 bound_to 11000
  139.8704  134.9610  156.4382 LP  0  0  0  0  0  0  0  0  0  0  0  0  # atno 17395 bound_to 11000

$$$$
