AV-unprocessed.smi:1643|AV-procd|sdf|6572|dock10
  -GOLD-   22720 7253D 1   1.00000     0.00000
 Structure written by MMmdl.
 54 56  0  0  0  0  0  0  0  0  2 V2000
  144.6798  141.4405  160.3288 C   0  0  0  0  0  0  0  0  0  0  0  0
  145.5592  142.1174  159.2739 C   0  0  0  0  0  0  0  0  0  0  0  0
  146.7083  142.4254  159.5907 O   0  0  0  0  0  0  0  0  0  0  0  0
  145.0555  142.3439  158.0355 N   0  0  0  0  0  0  0  0  0  0  0  0
  143.6487  142.0554  157.7191 C   0  0  0  0  0  0  0  0  0  0  0  0
  143.4799  140.7238  156.9534 C   0  0  0  0  0  0  0  0  0  0  0  0
  144.7708  140.1228  156.3525 C   0  0  0  0  0  0  0  0  0  0  0  0
  145.4241  140.9484  155.2948 N   0  3  2  0  0  0  0  0  0  0  0  0
  146.7825  140.4565  154.9352 C   0  0  0  0  0  0  0  0  0  0  0  0
  147.3655  141.1208  153.6704 C   0  0  2  0  0  0  0  0  0  0  0  0
  147.4656  140.1244  152.6731 O   0  0  0  0  0  0  0  0  0  0  0  0
  148.7547  141.7487  153.9066 C   0  0  0  0  0  0  0  0  0  0  0  0
  149.6537  140.8553  154.6151 N   0  0  0  0  0  0  0  0  0  0  0  0
  149.9320  139.5743  154.3059 C   0  0  0  0  0  0  0  0  0  0  0  0
  150.7870  138.9295  155.0937 N   0  0  0  0  0  0  0  0  0  0  0  0
  151.1028  139.9064  156.0223 C   0  0  0  0  0  0  0  0  0  0  0  0
  151.9646  139.8648  157.1398 C   0  0  0  0  0  0  0  0  0  0  0  0
  152.1361  140.9988  157.9653 C   0  0  0  0  0  0  0  0  0  0  0  0
  153.0717  140.9093  159.1583 C   0  0  0  0  0  0  0  0  0  0  0  0
  151.4392  142.1996  157.6768 C   0  0  0  0  0  0  0  0  0  0  0  0
  151.6079  143.4305  158.5499 C   0  0  0  0  0  0  0  0  0  0  0  0
  150.5745  142.2585  156.5639 C   0  0  0  0  0  0  0  0  0  0  0  0
  150.4116  141.1233  155.7504 C   0  0  0  0  0  0  0  0  0  0  0  0
  145.4005  142.4248  155.5108 C   0  0  0  0  0  0  0  0  0  0  0  0
  145.8501  142.8926  156.9201 C   0  0  0  0  0  0  0  0  0  0  0  0
  144.2178  140.5357  159.9330 H   0  0  0  0  0  0  0  0  0  0  0  0
  143.8978  142.1184  160.6714 H   0  0  0  0  0  0  0  0  0  0  0  0
  145.2753  141.1541  161.1964 H   0  0  0  0  0  0  0  0  0  0  0  0
  143.0220  142.0423  158.6123 H   0  0  0  0  0  0  0  0  0  0  0  0
  143.2404  142.8817  157.1369 H   0  0  0  0  0  0  0  0  0  0  0  0
  143.0681  139.9883  157.6454 H   0  0  0  0  0  0  0  0  0  0  0  0
  142.7257  140.8437  156.1748 H   0  0  0  0  0  0  0  0  0  0  0  0
  145.4845  139.9060  157.1489 H   0  0  0  0  0  0  0  0  0  0  0  0
  144.5139  139.1567  155.9189 H   0  0  0  0  0  0  0  0  0  0  0  0
  147.4712  140.6421  155.7608 H   0  0  0  0  0  0  0  0  0  0  0  0
  146.7446  139.3730  154.8096 H   0  0  0  0  0  0  0  0  0  0  0  0
  146.6799  141.8760  153.2873 H   0  0  0  0  0  0  0  0  0  0  0  0
  148.3626  140.0828  152.3766 H   0  0  0  0  0  0  0  0  0  0  0  0
  149.2211  142.0091  152.9560 H   0  0  0  0  0  0  0  0  0  0  0  0
  148.6659  142.6769  154.4727 H   0  0  0  0  0  0  0  0  0  0  0  0
  149.4790  139.0864  153.4552 H   0  0  0  0  0  0  0  0  0  0  0  0
  152.4946  138.9496  157.3595 H   0  0  0  0  0  0  0  0  0  0  0  0
  153.8766  141.6391  159.0688 H   0  0  0  0  0  0  0  0  0  0  0  0
  153.5238  139.9201  159.2365 H   0  0  0  0  0  0  0  0  0  0  0  0
  152.5294  141.1027  160.0842 H   0  0  0  0  0  0  0  0  0  0  0  0
  150.9887  144.2558  158.1976 H   0  0  0  0  0  0  0  0  0  0  0  0
  152.6457  143.7643  158.5432 H   0  0  0  0  0  0  0  0  0  0  0  0
  151.3200  143.2125  159.5786 H   0  0  0  0  0  0  0  0  0  0  0  0
  150.0364  143.1663  156.3347 H   0  0  0  0  0  0  0  0  0  0  0  0
  146.0247  142.9131  154.7617 H   0  0  0  0  0  0  0  0  0  0  0  0
  144.3989  142.7869  155.2817 H   0  0  0  0  0  0  0  0  0  0  0  0
  145.7992  143.9808  156.9724 H   0  0  0  0  0  0  0  0  0  0  0  0
  146.9032  142.6317  157.0219 H   0  0  0  0  0  0  0  0  0  0  0  0
  144.8675  140.8137  154.4628 H   0  0  0  0  0  0  0  0  0  0  0  0
  1  2  1  0  0  0  0
  1 26  1  0  0  0  0
  1 27  1  0  0  0  0
  1 28  1  0  0  0  0
  2  3  2  0  0  0  0
  2  4  1  0  0  0  0
  4 25  1  0  0  0  0
  4  5  1  0  0  0  0
  5  6  1  0  0  0  0
  5 29  1  0  0  0  0
  5 30  1  0  0  0  0
  6  7  1  0  0  0  0
  6 31  1  0  0  0  0
  6 32  1  0  0  0  0
  7  8  1  0  0  0  0
  7 33  1  0  0  0  0
  7 34  1  0  0  0  0
  8  9  1  0  0  0  0
  8 24  1  0  0  0  0
  8 54  1  0  0  0  0
  9 10  1  0  0  0  0
  9 35  1  0  0  0  0
  9 36  1  0  0  0  0
 10 11  1  0  0  0  0
 10 12  1  0  0  0  0
 10 37  1  0  0  0  0
 11 38  1  0  0  0  0
 12 13  1  0  0  0  0
 12 39  1  0  0  0  0
 12 40  1  0  0  0  0
 13 23  1  0  0  0  0
 13 14  1  0  0  0  0
 14 15  2  0  0  0  0
 14 41  1  0  0  0  0
 15 16  1  0  0  0  0
 16 23  2  0  0  0  0
 16 17  1  0  0  0  0
 17 18  2  0  0  0  0
 17 42  1  0  0  0  0
 18 19  1  0  0  0  0
 18 20  1  0  0  0  0
 19 43  1  0  0  0  0
 19 44  1  0  0  0  0
 19 45  1  0  0  0  0
 20 21  1  0  0  0  0
 20 22  2  0  0  0  0
 21 46  1  0  0  0  0
 21 47  1  0  0  0  0
 21 48  1  0  0  0  0
 22 23  1  0  0  0  0
 22 49  1  0  0  0  0
 24 25  1  0  0  0  0
 24 50  1  0  0  0  0
 24 51  1  0  0  0  0
 25 52  1  0  0  0  0
 25 53  1  0  0  0  0
M  CHG  1   8   1
M  END
> <s_m_source_file>
AV-unprocessed.smi

> <i_m_source_file_index>
1643

> <i_lp_mmshare_version>
43012

> <i_f3d_flags>
0

> <s_epik_input>
W0NIM11DKD1PKU4xW0NIMl1bQ0gyXVtDSDJdTihbQ0gyXVtDSDJdMSlbQ0gyXVtDQEhdKFtPSF0pW0NIMl1uKFtjSF1uMiljKGMyMylbY0hdYyhbQ0gzXSljKFtjSF0zKVtDSDNd

> <s_epik_cmdline>
J2VwaWtfcHl0aG9uJywgJy1waCcsICc3LjAnLCAnLXRuJywgJzgnLCAnLW1hJywgJzIwMCcsICctbWV0YWxfYmluZGluZycsICctaW1hZScsICc8aW5maWxlLm1hZT4nLCAnLW9tYWUnLCAnPG91dGZpbGUubWFlPic=

> <r_epik_Ionization_Penalty>
0.189467

> <r_epik_Ionization_Penalty_Charging>
0.101761

> <r_epik_Ionization_Penalty_Neutral>
0.0877056

> <r_epik_State_Penalty>
0.170758

> <r_epik_Charging_Adjusted_Penalty>
0.272519

> <i_epik_Tot_Q>
1

> <i_epik_Tot_abs_Q>
1

> <r_epik_Metal_State_Penalty>
0.0948013

> <b_epik_Metal_Only>
0

> <s_lp_Force_Field>
OPLS_2005

> <r_lp_Energy>
49.989

> <b_lp_Chiralities_Consistent>
1

> <s_lp_Variant>
AV-unprocessed.smi:1643-1

> <Gold.Version>
5.8.1

> <Gold.Id.Protein>
6NUR|6NUR_protein|mol2

> <Gold.PLP.Fitness>
47.8701

> <Gold.PLP.PLP>
-34.8646

> <Gold.PLP.part.hbond>
-2.9782

> <Gold.PLP.part.metal>
0.0000

> <Gold.PLP.part.buried>
-2.7430

> <Gold.PLP.part.nonpolar>
-29.9377

> <Gold.PLP.part.repulsive>
0.0875

> <Gold.PLP.ligand.clash>
0.0000

> <Gold.PLP.ligand.torsion>
0.9316

> <Gold.PLP.Chemscore.Hbond>
3.9920

> <Gold.PLP.Chemscore.CHOScore>
0.9301

> <Gold.PLP.Chemscore.Metal>
0.0000

> <Gold.Chemscore.Hbonds>
donor molecule, donor type, donor heavy atom, donor atom, acceptor molecule, acceptor atom, score
      L1  H     8    54       P1 10175  0.52
      L1  H    11    38       P1  7957  1.00
      P1  H  6934  6946       L1     3  0.64
      L1  C    14    41       P1  7957  0.85

> <Gold.PLP.Chemscore.Internal.Correction>
0.1023

> <Gold.Rescore>
     Score         DG    S(hbond)    S(metal)    S(lipo)     H(rot)  DE(clash)    DE(int)     intcor
     17.18     -19.80       2.94        0.00      84.77       2.12       0.40       2.22       ----

> <Gold.Chemscore.Fitness>
17.1805

> <Gold.Chemscore.DG>
-19.7998

> <Gold.Chemscore.ZeroCoef>
-5.4800

> <Gold.Chemscore.Hbond>
2.9410

> <Gold.Chemscore.Metal>
0.0000

> <Gold.Chemscore.Lipo>
84.7714

> <Gold.Chemscore.Internal_Hbond>
0.0000

> <Gold.Chemscore.DEClash>
0.4038

> <Gold.Chemscore.DEInternal>
2.2155

> <Gold.Chemscore.Rot>
2.1178

> <Gold.Chemscore.Internal.Correction>
   9.000000E+99

> <Gold.Chemscore.Hbonds>
donor molecule, donor type, donor heavy atom, donor atom, acceptor molecule, acceptor atom, score
      L1  H     8    54       P1 10175  0.27
      L1  H    11    38       P1  7957  0.97
      P1  H  6934  6946       L1     3  0.05

> <Gold.Chemscore.Hbond.Weighted>
-9.8231

> <Gold.Chemscore.Metal.Weighted>
-0.0000

> <Gold.Chemscore.Lipo.Weighted>
-9.9183

> <Gold.Chemscore.Internal_Hbond.Weighted>
0.0000

> <Gold.Chemscore.DEClash.Weighted>
0.4038

> <Gold.Chemscore.DEInternal.Weighted>
2.2155

> <Gold.Chemscore.Rot.Weighted>
5.4215

> <Gold.Chemscore.Internal.Correction.Weighted>
   9.000000E+99

> <Gold.Protein.RotatedTorsions>
[ 6907 6896 6895 6894 ] final -103.30 input  -60.11 | X-H torsion
[ 7974 7965 7964 7962 ] final   16.34 input  175.53 | X-H torsion
[ 8008 7997 7996 7995 ] final   -7.58 input   59.86 | X-H torsion
[ 10167 10162 10161 10158 ] final  -23.18 input  -65.29 | X-H torsion
[ 10718 10713 10712 10709 ] final   11.25 input   66.30 | X-H torsion
[ 10763 10752 10751 10750 ] final  -31.76 input  -60.55 | X-H torsion
[ 11005 11000 10999 10996 ] final -175.69 input  -57.11 | X-H torsion

> <Gold.Protein.ActiveResidues>
 VAL166  LYS551  ARG553  GLY616  TRP617  ASP618  TYR619  PRO620  LYS621  CYS622 
 ASP623  PHE694  ASN695  SER759  ASP760  ASP761  ALA762  ILE779  LEU786  VAL792 
 PHE793  MET794  SER795  GLU796  ALA797  LYS798  CYS799  TRP800  GLU811  SER814 

> <Gold.Protein.RotatedAtoms>
  150.7234  134.0450  159.3778 H   0  0  0  0  0  0  0  0  0  0  0  0  # atno 6907 bound_to 6896
  151.8425  135.0583  160.0459 H   0  0  0  0  0  0  0  0  0  0  0  0  # atno 6908 bound_to 6896
  152.2852  133.5472  159.5559 H   0  0  0  0  0  0  0  0  0  0  0  0  # atno 6909 bound_to 6896
  146.2252  139.8762  142.8579 H   0  0  0  0  0  0  0  0  0  0  0  0  # atno 7974 bound_to 7965
  154.5824  140.2403  155.8035 H   0  0  0  0  0  0  0  0  0  0  0  0  # atno 8008 bound_to 7997
  156.2189  140.3004  155.9860 H   0  0  0  0  0  0  0  0  0  0  0  0  # atno 8009 bound_to 7997
  155.2518  140.0411  157.2978 H   0  0  0  0  0  0  0  0  0  0  0  0  # atno 8010 bound_to 7997
  140.7287  143.4467  151.0576 H   0  0  0  0  0  0  0  0  0  0  0  0  # atno 10167 bound_to 10162
  156.9929  130.6049  149.5688 H   0  0  0  0  0  0  0  0  0  0  0  0  # atno 10718 bound_to 10713
  153.8027  135.6889  153.4853 H   0  0  0  0  0  0  0  0  0  0  0  0  # atno 10763 bound_to 10752
  153.1678  135.4554  154.9859 H   0  0  0  0  0  0  0  0  0  0  0  0  # atno 10764 bound_to 10752
  154.8000  135.3334  154.7514 H   0  0  0  0  0  0  0  0  0  0  0  0  # atno 10765 bound_to 10752
  140.4604  134.6260  157.4840 H   0  0  0  0  0  0  0  0  0  0  0  0  # atno 11005 bound_to 11000
  145.2558  141.0060  143.3854 LP  0  0  0  0  0  0  0  0  0  0  0  0  # atno 17320 bound_to 7965
  144.9338  139.4268  143.6482 LP  0  0  0  0  0  0  0  0  0  0  0  0  # atno 17321 bound_to 7965
  139.8139  143.7912  152.3173 LP  0  0  0  0  0  0  0  0  0  0  0  0  # atno 17342 bound_to 10162
  139.7972  144.7388  150.9874 LP  0  0  0  0  0  0  0  0  0  0  0  0  # atno 17343 bound_to 10162
  156.0200  130.5295  150.8248 LP  0  0  0  0  0  0  0  0  0  0  0  0  # atno 17370 bound_to 10713
  157.5446  131.0942  150.9781 LP  0  0  0  0  0  0  0  0  0  0  0  0  # atno 17371 bound_to 10713
  139.9949  134.6927  155.9627 LP  0  0  0  0  0  0  0  0  0  0  0  0  # atno 17394 bound_to 11000
  141.1624  133.6538  156.4362 LP  0  0  0  0  0  0  0  0  0  0  0  0  # atno 17395 bound_to 11000

$$$$
