AV-unprocessed.smi:264|AV-procd|sdf|2013|dock8
  -GOLD-   2262021213D 1   1.00000     0.00000
 Structure written by MMmdl.
 52 56  0  0  0  0  0  0  0  0  1 V2000
  147.0671  133.3864  152.0274 C   0  0  0  0  0  0  0  0  0  0  0  0
  145.5740  133.0763  152.2233 C   0  0  2  0  0  0  0  0  0  0  0  0
  145.3321  131.6758  152.0909 O   0  0  0  0  0  0  0  0  0  0  0  0
  144.4027  131.4395  151.0437 C   0  0  0  0  0  0  0  0  0  0  0  0
  143.5571  132.7049  151.0057 C   0  0  0  0  0  0  0  0  0  0  0  0
  144.5849  133.7958  151.2745 C   0  0  2  0  0  0  0  0  0  0  0  0
  145.2111  134.1274  150.0451 O   0  0  0  0  0  0  0  0  0  0  0  0
  143.9869  135.0870  151.8828 C   0  0  0  0  0  0  0  0  0  0  0  0
  144.9970  136.0361  152.3254 N   0  0  0  0  0  0  0  0  0  0  0  0
  145.5973  137.0141  151.5649 C   0  0  0  0  0  0  0  0  0  0  0  0
  146.4856  137.7375  152.1897 N   0  0  0  0  0  0  0  0  0  0  0  0
  146.4982  137.2225  153.4808 C   0  0  0  0  0  0  0  0  0  0  0  0
  147.2235  137.5340  154.6661 C   0  0  0  0  0  0  0  0  0  0  0  0
  148.1683  138.5081  154.7140 N   0  0  0  0  0  0  0  0  0  0  0  0
  147.9517  139.6193  153.7957 C   0  0  0  0  0  0  0  0  0  0  0  0
  148.8462  140.8039  154.1859 C   0  0  0  0  0  0  0  0  0  0  0  0
  150.2106  140.3928  154.2589 O   0  0  0  0  0  0  0  0  0  0  0  0
  150.4728  139.3021  155.1511 C   0  0  2  0  0  0  0  0  0  0  0  0
  150.3895  139.7229  156.6160 C   0  0  0  0  0  0  0  0  0  0  0  0
  151.7383  140.3902  156.8357 C   0  0  0  0  0  0  0  0  0  0  0  0
  152.6390  139.5530  156.1290 O   0  0  0  0  0  0  0  0  0  0  0  0
  151.9690  138.9701  155.0132 C   0  0  0  0  0  0  0  0  0  0  0  0
  149.5700  138.1036  154.7857 C   0  0  0  0  0  0  0  0  0  0  0  0
  146.9373  136.8077  155.7803 N   0  0  0  0  0  0  0  0  0  0  0  0
  146.0191  135.8378  155.7387 C   0  0  0  0  0  0  0  0  0  0  0  0
  145.2802  135.4323  154.7045 N   0  0  0  0  0  0  0  0  0  0  0  0
  145.5545  136.1614  153.5858 C   0  0  0  0  0  0  0  0  0  0  0  0
  147.2606  134.4557  152.1158 H   0  0  0  0  0  0  0  0  0  0  0  0
  147.4211  133.0573  151.0502 H   0  0  0  0  0  0  0  0  0  0  0  0
  147.6688  132.8768  152.7802 H   0  0  0  0  0  0  0  0  0  0  0  0
  145.3129  133.3178  153.2544 H   0  0  0  0  0  0  0  0  0  0  0  0
  144.9444  131.3086  150.1059 H   0  0  0  0  0  0  0  0  0  0  0  0
  143.8121  130.5416  151.2258 H   0  0  0  0  0  0  0  0  0  0  0  0
  143.0148  132.8302  150.0676 H   0  0  0  0  0  0  0  0  0  0  0  0
  142.8254  132.6687  151.8138 H   0  0  0  0  0  0  0  0  0  0  0  0
  146.1286  134.2852  150.2075 H   0  0  0  0  0  0  0  0  0  0  0  0
  143.3556  135.5908  151.1496 H   0  0  0  0  0  0  0  0  0  0  0  0
  143.3396  134.8456  152.7270 H   0  0  0  0  0  0  0  0  0  0  0  0
  145.3587  137.1714  150.5231 H   0  0  0  0  0  0  0  0  0  0  0  0
  148.1903  139.2913  152.7829 H   0  0  0  0  0  0  0  0  0  0  0  0
  146.9109  139.9401  153.7852 H   0  0  0  0  0  0  0  0  0  0  0  0
  148.7619  141.5936  153.4391 H   0  0  0  0  0  0  0  0  0  0  0  0
  148.5186  141.2393  155.1291 H   0  0  0  0  0  0  0  0  0  0  0  0
  149.5499  140.3708  156.8614 H   0  0  0  0  0  0  0  0  0  0  0  0
  150.3179  138.8422  157.2558 H   0  0  0  0  0  0  0  0  0  0  0  0
  151.7524  141.3906  156.4002 H   0  0  0  0  0  0  0  0  0  0  0  0
  152.0055  140.4682  157.8900 H   0  0  0  0  0  0  0  0  0  0  0  0
  152.1434  137.8940  155.0439 H   0  0  0  0  0  0  0  0  0  0  0  0
  152.3861  139.3413  154.0762 H   0  0  0  0  0  0  0  0  0  0  0  0
  149.6987  137.3038  155.5165 H   0  0  0  0  0  0  0  0  0  0  0  0
  149.8681  137.7025  153.8158 H   0  0  0  0  0  0  0  0  0  0  0  0
  145.8541  135.3096  156.6663 H   0  0  0  0  0  0  0  0  0  0  0  0
  1  2  1  0  0  0  0
  1 28  1  0  0  0  0
  1 29  1  0  0  0  0
  1 30  1  0  0  0  0
  2  6  1  0  0  0  0
  2  3  1  0  0  0  0
  2 31  1  0  0  0  0
  3  4  1  0  0  0  0
  4  5  1  0  0  0  0
  4 32  1  0  0  0  0
  4 33  1  0  0  0  0
  5  6  1  0  0  0  0
  5 34  1  0  0  0  0
  5 35  1  0  0  0  0
  6  7  1  0  0  0  0
  6  8  1  0  0  0  0
  7 36  1  0  0  0  0
  8  9  1  0  0  0  0
  8 37  1  0  0  0  0
  8 38  1  0  0  0  0
  9 27  1  0  0  0  0
  9 10  1  0  0  0  0
 10 11  2  0  0  0  0
 10 39  1  0  0  0  0
 11 12  1  0  0  0  0
 12 27  2  0  0  0  0
 12 13  1  0  0  0  0
 13 14  1  0  0  0  0
 13 24  2  0  0  0  0
 14 23  1  0  0  0  0
 14 15  1  0  0  0  0
 15 16  1  0  0  0  0
 15 40  1  0  0  0  0
 15 41  1  0  0  0  0
 16 17  1  0  0  0  0
 16 42  1  0  0  0  0
 16 43  1  0  0  0  0
 17 18  1  0  0  0  0
 18 22  1  0  0  0  0
 18 19  1  0  0  0  0
 18 23  1  0  0  0  0
 19 20  1  0  0  0  0
 19 44  1  0  0  0  0
 19 45  1  0  0  0  0
 20 21  1  0  0  0  0
 20 46  1  0  0  0  0
 20 47  1  0  0  0  0
 21 22  1  0  0  0  0
 22 48  1  0  0  0  0
 22 49  1  0  0  0  0
 23 50  1  0  0  0  0
 23 51  1  0  0  0  0
 24 25  1  0  0  0  0
 25 26  2  0  0  0  0
 25 52  1  0  0  0  0
 26 27  1  0  0  0  0
M  END
> <s_m_source_file>
AV-unprocessed.smi

> <i_m_source_file_index>
264

> <i_lp_mmshare_version>
43012

> <i_f3d_flags>
0

> <s_epik_input>
W0NIMl0xW0NIMl1PW0NAQEhdKFtDSDNdKVtDQEBdMShbT0hdKVtDSDJdbihbY0hdbjIpYyhjMjMpbltjSF1uYzNOKFtDSDJdNClbQ0gyXVtDSDJdT1tDQF00NVtDSDJdW0NIMl1PW0NIMl01

> <s_epik_cmdline>
J2VwaWtfcHl0aG9uJywgJy1waCcsICc3LjAnLCAnLXRuJywgJzgnLCAnLW1hJywgJzIwMCcsICctbWV0YWxfYmluZGluZycsICctaW1hZScsICc8aW5maWxlLm1hZT4nLCAnLW9tYWUnLCAnPG91dGZpbGUubWFlPic=

> <r_lp_tautomer_probability>
1

> <r_epik_Ionization_Penalty>
0.00539389

> <r_epik_Ionization_Penalty_Charging>
0

> <r_epik_Ionization_Penalty_Neutral>
0.00539389

> <r_epik_State_Penalty>
0.00375441

> <r_epik_Charging_Adjusted_Penalty>
0.00375441

> <i_epik_Tot_Q>
0

> <i_epik_Tot_abs_Q>
0

> <r_epik_Metal_State_Penalty>
-0

> <b_epik_Metal_Only>
0

> <s_lp_Force_Field>
OPLS_2005

> <r_lp_Energy>
54.0423

> <b_lp_Chiralities_Consistent>
1

> <s_lp_Variant>
AV-unprocessed.smi:264-7

> <Gold.Version>
5.8.1

> <Gold.Id.Protein>
6NUR|6NUR_protein|mol2

> <Gold.PLP.Fitness>
42.7763

> <Gold.PLP.PLP>
-35.6890

> <Gold.PLP.part.hbond>
-3.0000

> <Gold.PLP.part.metal>
0.0000

> <Gold.PLP.part.buried>
-3.7833

> <Gold.PLP.part.nonpolar>
-31.1904

> <Gold.PLP.part.repulsive>
1.7618

> <Gold.PLP.ligand.clash>
0.0000

> <Gold.PLP.ligand.torsion>
0.9396

> <Gold.PLP.Chemscore.Hbond>
1.8960

> <Gold.PLP.Chemscore.CHOScore>
1.0000

> <Gold.PLP.Chemscore.Metal>
0.0000

> <Gold.Chemscore.Hbonds>
donor molecule, donor type, donor heavy atom, donor atom, acceptor molecule, acceptor atom, score
      P1  H  7989  7998       L1    17  0.91
      P1  H  7997  8009       L1    21  1.00
      L1  C    10    39       P1 10171  0.90

> <Gold.PLP.Chemscore.Internal.Correction>
0.2785

> <Gold.Rescore>
     Score         DG    S(hbond)    S(metal)    S(lipo)     H(rot)  DE(clash)    DE(int)     intcor
     11.79     -16.04       1.85        0.00      83.67       2.11       2.12       2.13       ----

> <Gold.Chemscore.Fitness>
11.7947

> <Gold.Chemscore.DG>
-16.0417

> <Gold.Chemscore.ZeroCoef>
-5.4800

> <Gold.Chemscore.Hbond>
1.8455

> <Gold.Chemscore.Metal>
0.0000

> <Gold.Chemscore.Lipo>
83.6740

> <Gold.Chemscore.Internal_Hbond>
0.0000

> <Gold.Chemscore.DEClash>
2.1213

> <Gold.Chemscore.DEInternal>
2.1257

> <Gold.Chemscore.Rot>
2.1063

> <Gold.Chemscore.Internal.Correction>
   9.000000E+99

> <Gold.Chemscore.Hbonds>
donor molecule, donor type, donor heavy atom, donor atom, acceptor molecule, acceptor atom, score
      P1  H  7989  7998       L1    17  0.70
      P1  H  7997  8009       L1    21  0.78

> <Gold.Chemscore.Hbond.Weighted>
-6.1639

> <Gold.Chemscore.Metal.Weighted>
-0.0000

> <Gold.Chemscore.Lipo.Weighted>
-9.7899

> <Gold.Chemscore.Internal_Hbond.Weighted>
0.0000

> <Gold.Chemscore.DEClash.Weighted>
2.1213

> <Gold.Chemscore.DEInternal.Weighted>
2.1257

> <Gold.Chemscore.Rot.Weighted>
5.3921

> <Gold.Chemscore.Internal.Correction.Weighted>
   9.000000E+99

> <Gold.Protein.RotatedTorsions>
[ 6907 6896 6895 6894 ] final  153.23 input  -60.11 | X-H torsion
[ 7974 7965 7964 7962 ] final   33.49 input  175.53 | X-H torsion
[ 8008 7997 7996 7995 ] final -161.94 input   59.86 | X-H torsion
[ 10167 10162 10161 10158 ] final   31.96 input  -65.29 | X-H torsion
[ 10718 10713 10712 10709 ] final  139.51 input   66.30 | X-H torsion
[ 10763 10752 10751 10750 ] final   70.48 input  -60.55 | X-H torsion
[ 11005 11000 10999 10996 ] final   52.73 input  -57.11 | X-H torsion

> <Gold.Protein.ActiveResidues>
 VAL166  LYS551  ARG553  GLY616  TRP617  ASP618  TYR619  PRO620  LYS621  CYS622 
 ASP623  PHE694  ASN695  SER759  ASP760  ASP761  ALA762  ILE779  LEU786  VAL792 
 PHE793  MET794  SER795  GLU796  ALA797  LYS798  CYS799  TRP800  GLU811  SER814 

> <Gold.Protein.RotatedAtoms>
  152.0756  133.4127  159.4478 H   0  0  0  0  0  0  0  0  0  0  0  0  # atno 6907 bound_to 6896
  150.6863  134.3041  159.4728 H   0  0  0  0  0  0  0  0  0  0  0  0  # atno 6908 bound_to 6896
  152.0878  134.9427  160.0623 H   0  0  0  0  0  0  0  0  0  0  0  0  # atno 6909 bound_to 6896
  146.1417  139.6390  142.9159 H   0  0  0  0  0  0  0  0  0  0  0  0  # atno 7974 bound_to 7965
  155.7995  140.0890  157.1965 H   0  0  0  0  0  0  0  0  0  0  0  0  # atno 8008 bound_to 7997
  154.3982  140.1475  156.3316 H   0  0  0  0  0  0  0  0  0  0  0  0  # atno 8009 bound_to 7997
  155.8477  140.3436  155.5675 H   0  0  0  0  0  0  0  0  0  0  0  0  # atno 8010 bound_to 7997
  140.4542  144.1003  150.6198 H   0  0  0  0  0  0  0  0  0  0  0  0  # atno 10167 bound_to 10162
  157.4136  131.1031  151.0428 H   0  0  0  0  0  0  0  0  0  0  0  0  # atno 10718 bound_to 10713
  153.0344  135.5172  154.7448 H   0  0  0  0  0  0  0  0  0  0  0  0  # atno 10763 bound_to 10752
  154.6437  135.2915  155.0075 H   0  0  0  0  0  0  0  0  0  0  0  0  # atno 10764 bound_to 10752
  154.0984  135.6640  153.4916 H   0  0  0  0  0  0  0  0  0  0  0  0  # atno 10765 bound_to 10752
  140.0825  134.5319  155.8932 H   0  0  0  0  0  0  0  0  0  0  0  0  # atno 11005 bound_to 11000
  145.5032  141.0437  143.2529 LP  0  0  0  0  0  0  0  0  0  0  0  0  # atno 17320 bound_to 7965
  144.7800  139.6547  143.7158 LP  0  0  0  0  0  0  0  0  0  0  0  0  # atno 17321 bound_to 7965
  140.4171  143.2629  151.9761 LP  0  0  0  0  0  0  0  0  0  0  0  0  # atno 17342 bound_to 10162
  139.4799  144.5864  151.7846 LP  0  0  0  0  0  0  0  0  0  0  0  0  # atno 17343 bound_to 10162
  157.1384  130.6132  149.5548 LP  0  0  0  0  0  0  0  0  0  0  0  0  # atno 17370 bound_to 10713
  155.9858  130.4890  150.7049 LP  0  0  0  0  0  0  0  0  0  0  0  0  # atno 17371 bound_to 10713
  141.2051  133.6644  156.6162 LP  0  0  0  0  0  0  0  0  0  0  0  0  # atno 17394 bound_to 11000
  140.3468  134.7803  157.4438 LP  0  0  0  0  0  0  0  0  0  0  0  0  # atno 17395 bound_to 11000

$$$$
