AV-unprocessed.smi:153|AV-procd|sdf|1251|dock2
  -GOLD-   2262018483D 1   1.00000     0.00000
 Structure written by MMmdl.
 60 63  0  0  0  0  0  0  0  0  2 V2000
  151.3639  144.9544  158.7805 C   0  0  0  0  0  0  0  0  0  0  0  0
  151.9150  143.5823  158.3602 C   0  0  1  0  0  0  0  0  0  0  0  0
  152.4664  142.9249  159.4952 O   0  0  0  0  0  0  0  0  0  0  0  0
  152.4430  141.5316  159.2454 C   0  0  0  0  0  0  0  0  0  0  0  0
  151.0681  141.3388  158.6242 C   0  0  0  0  0  0  0  0  0  0  0  0
  150.9042  142.5784  157.7392 C   0  0  1  0  0  0  0  0  0  0  0  0
  149.5646  143.0281  157.8518 O   0  0  0  0  0  0  0  0  0  0  0  0
  151.2198  142.3274  156.2407 C   0  0  0  0  0  0  0  0  0  0  0  0
  150.4483  141.2528  155.6317 N   0  0  0  0  0  0  0  0  0  0  0  0
  150.8947  139.9870  155.3307 C   0  0  0  0  0  0  0  0  0  0  0  0
  150.0082  139.2015  154.7850 N   0  0  0  0  0  0  0  0  0  0  0  0
  148.8660  139.9880  154.6721 C   0  0  0  0  0  0  0  0  0  0  0  0
  147.5424  139.7738  154.1779 C   0  0  0  0  0  0  0  0  0  0  0  0
  147.0865  138.6059  153.6460 N   0  0  0  0  0  0  0  0  0  0  0  0
  147.2953  137.3537  154.3619 C   0  0  0  0  0  0  0  0  0  0  0  0
  146.1064  138.6309  152.5576 C   0  0  0  0  0  0  0  0  0  0  0  0
  146.1008  137.3308  151.7279 C   0  0  2  0  0  0  0  0  0  0  0  0
  146.0305  137.7072  150.3672 O   0  0  0  0  0  0  0  0  0  0  0  0
  144.8970  136.4151  152.0452 C   0  0  0  0  0  0  0  0  0  0  0  0
  144.8746  135.1780  151.2247 N   0  3  0  0  0  0  0  0  0  0  0  0
  146.1561  134.4282  151.2477 C   0  0  0  0  0  0  0  0  0  0  0  0
  146.0642  133.1760  150.3592 C   0  0  0  0  0  0  0  0  0  0  0  0
  144.9811  132.3621  150.7908 O   0  0  0  0  0  0  0  0  0  0  0  0
  143.7346  133.0383  150.6867 C   0  0  0  0  0  0  0  0  0  0  0  0
  143.7481  134.2850  151.5872 C   0  0  0  0  0  0  0  0  0  0  0  0
  146.6756  140.8170  154.2681 N   0  0  0  0  0  0  0  0  0  0  0  0
  147.0629  141.9861  154.7838 C   0  0  0  0  0  0  0  0  0  0  0  0
  148.2548  142.3246  155.2742 N   0  0  0  0  0  0  0  0  0  0  0  0
  149.1320  141.2840  155.2036 C   0  0  0  0  0  0  0  0  0  0  0  0
  150.9278  145.4803  157.9307 H   0  0  0  0  0  0  0  0  0  0  0  0
  152.1580  145.5820  159.1849 H   0  0  0  0  0  0  0  0  0  0  0  0
  150.5975  144.8585  159.5501 H   0  0  0  0  0  0  0  0  0  0  0  0
  152.7407  143.7443  157.6650 H   0  0  0  0  0  0  0  0  0  0  0  0
  153.2348  141.2644  158.5438 H   0  0  0  0  0  0  0  0  0  0  0  0
  152.5788  140.9555  160.1609 H   0  0  0  0  0  0  0  0  0  0  0  0
  150.9755  140.3889  158.1005 H   0  0  0  0  0  0  0  0  0  0  0  0
  150.3270  141.3378  159.4256 H   0  0  0  0  0  0  0  0  0  0  0  0
  149.4454  143.7632  157.2705 H   0  0  0  0  0  0  0  0  0  0  0  0
  151.0436  143.2377  155.6657 H   0  0  0  0  0  0  0  0  0  0  0  0
  152.2778  142.0918  156.1157 H   0  0  0  0  0  0  0  0  0  0  0  0
  151.9032  139.6592  155.5373 H   0  0  0  0  0  0  0  0  0  0  0  0
  148.3111  137.2918  154.7536 H   0  0  0  0  0  0  0  0  0  0  0  0
  147.1484  136.5025  153.6965 H   0  0  0  0  0  0  0  0  0  0  0  0
  146.5908  137.2591  155.1884 H   0  0  0  0  0  0  0  0  0  0  0  0
  145.1008  138.8571  152.9128 H   0  0  0  0  0  0  0  0  0  0  0  0
  146.3714  139.4663  151.9082 H   0  0  0  0  0  0  0  0  0  0  0  0
  147.0455  136.8109  151.8813 H   0  0  0  0  0  0  0  0  0  0  0  0
  145.1462  137.9715  150.1665 H   0  0  0  0  0  0  0  0  0  0  0  0
  144.8917  136.1215  153.0944 H   0  0  0  0  0  0  0  0  0  0  0  0
  143.9783  136.9827  151.8879 H   0  0  0  0  0  0  0  0  0  0  0  0
  146.9752  135.0559  150.8983 H   0  0  0  0  0  0  0  0  0  0  0  0
  146.3933  134.1375  152.2726 H   0  0  0  0  0  0  0  0  0  0  0  0
  145.9348  133.4496  149.3107 H   0  0  0  0  0  0  0  0  0  0  0  0
  146.9872  132.5998  150.4261 H   0  0  0  0  0  0  0  0  0  0  0  0
  143.5387  133.3090  149.6478 H   0  0  0  0  0  0  0  0  0  0  0  0
  142.9378  132.3614  150.9948 H   0  0  0  0  0  0  0  0  0  0  0  0
  143.8372  133.9894  152.6338 H   0  0  0  0  0  0  0  0  0  0  0  0
  142.8034  134.8200  151.4839 H   0  0  0  0  0  0  0  0  0  0  0  0
  146.3098  142.7601  154.8081 H   0  0  0  0  0  0  0  0  0  0  0  0
  144.7114  135.4648  150.2701 H   0  0  0  0  0  0  0  0  0  0  0  0
  1  2  1  0  0  0  0
  1 30  1  0  0  0  0
  1 31  1  0  0  0  0
  1 32  1  0  0  0  0
  2  6  1  0  0  0  0
  2  3  1  0  0  0  0
  2 33  1  0  0  0  0
  3  4  1  0  0  0  0
  4  5  1  0  0  0  0
  4 34  1  0  0  0  0
  4 35  1  0  0  0  0
  5  6  1  0  0  0  0
  5 36  1  0  0  0  0
  5 37  1  0  0  0  0
  6  7  1  0  0  0  0
  6  8  1  0  0  0  0
  7 38  1  0  0  0  0
  8  9  1  0  0  0  0
  8 39  1  0  0  0  0
  8 40  1  0  0  0  0
  9 29  1  0  0  0  0
  9 10  1  0  0  0  0
 10 11  2  0  0  0  0
 10 41  1  0  0  0  0
 11 12  1  0  0  0  0
 12 29  2  0  0  0  0
 12 13  1  0  0  0  0
 13 14  1  0  0  0  0
 13 26  2  0  0  0  0
 14 15  1  0  0  0  0
 14 16  1  0  0  0  0
 15 42  1  0  0  0  0
 15 43  1  0  0  0  0
 15 44  1  0  0  0  0
 16 17  1  0  0  0  0
 16 45  1  0  0  0  0
 16 46  1  0  0  0  0
 17 18  1  0  0  0  0
 17 19  1  0  0  0  0
 17 47  1  0  0  0  0
 18 48  1  0  0  0  0
 19 20  1  0  0  0  0
 19 49  1  0  0  0  0
 19 50  1  0  0  0  0
 20 25  1  0  0  0  0
 20 21  1  0  0  0  0
 20 60  1  0  0  0  0
 21 22  1  0  0  0  0
 21 51  1  0  0  0  0
 21 52  1  0  0  0  0
 22 23  1  0  0  0  0
 22 53  1  0  0  0  0
 22 54  1  0  0  0  0
 23 24  1  0  0  0  0
 24 25  1  0  0  0  0
 24 55  1  0  0  0  0
 24 56  1  0  0  0  0
 25 57  1  0  0  0  0
 25 58  1  0  0  0  0
 26 27  1  0  0  0  0
 27 28  2  0  0  0  0
 27 59  1  0  0  0  0
 28 29  1  0  0  0  0
M  CHG  1  20   1
M  END
> <s_m_source_file>
AV-unprocessed.smi

> <i_m_source_file_index>
153

> <i_lp_mmshare_version>
43012

> <i_f3d_flags>
0

> <s_epik_input>
W0NIMl0xW0NIMl1PW0NAQEhdKFtDSDNdKVtDQEBdMShbT0hdKVtDSDJdbihbY0hdbjIpYyhjMjMpbltjSF1uYzNOKFtDSDNdKVtDSDJdW0NASF0oW09IXSlbQ0gyXU40W0NIMl1bQ0gyXU9bQ0gyXVtDSDJdNA==

> <s_epik_cmdline>
J2VwaWtfcHl0aG9uJywgJy1waCcsICc3LjAnLCAnLXRuJywgJzgnLCAnLW1hJywgJzIwMCcsICctbWV0YWxfYmluZGluZycsICctaW1hZScsICc8aW5maWxlLm1hZT4nLCAnLW9tYWUnLCAnPG91dGZpbGUubWFlPic=

> <r_lp_tautomer_probability>
1

> <r_epik_Ionization_Penalty>
0.403509

> <r_epik_Ionization_Penalty_Charging>
0.40072

> <r_epik_Ionization_Penalty_Neutral>
0.00278876

> <r_epik_State_Penalty>
0.400058

> <r_epik_Charging_Adjusted_Penalty>
0.800778

> <i_epik_Tot_Q>
1

> <i_epik_Tot_abs_Q>
1

> <r_epik_Metal_State_Penalty>
0.400321

> <b_epik_Metal_Only>
0

> <s_lp_Force_Field>
OPLS_2005

> <r_lp_Energy>
45.7554

> <b_lp_Chiralities_Consistent>
1

> <s_lp_Variant>
AV-unprocessed.smi:153-2

> <Gold.Version>
5.8.1

> <Gold.Id.Protein>
6NUR|6NUR_protein|mol2

> <Gold.PLP.Fitness>
53.3073

> <Gold.PLP.PLP>
-48.1736

> <Gold.PLP.part.hbond>
-3.1247

> <Gold.PLP.part.metal>
0.0000

> <Gold.PLP.part.buried>
-7.2631

> <Gold.PLP.part.nonpolar>
-41.5226

> <Gold.PLP.part.repulsive>
4.0243

> <Gold.PLP.ligand.clash>
0.0000

> <Gold.PLP.ligand.torsion>
1.8943

> <Gold.PLP.Chemscore.Hbond>
2.7840

> <Gold.PLP.Chemscore.CHOScore>
0.0000

> <Gold.PLP.Chemscore.Metal>
0.0000

> <Gold.Chemscore.Hbonds>
donor molecule, donor type, donor heavy atom, donor atom, acceptor molecule, acceptor atom, score
      L1  H     7    38       P1  8028  1.00
      L1  H    18    48       P1 10171  0.80
      P1  H  7954  7966       L1    18  0.51

> <Gold.PLP.Chemscore.Internal.Correction>
0.5704

> <Gold.Rescore>
     Score         DG    S(hbond)    S(metal)    S(lipo)     H(rot)  DE(clash)    DE(int)     intcor
     11.24     -17.86       2.55        0.00     112.17       3.62       4.57       2.05       ----

> <Gold.Chemscore.Fitness>
11.2449

> <Gold.Chemscore.DG>
-17.8650

> <Gold.Chemscore.ZeroCoef>
-5.4800

> <Gold.Chemscore.Hbond>
2.5519

> <Gold.Chemscore.Metal>
0.0000

> <Gold.Chemscore.Lipo>
112.1707

> <Gold.Chemscore.Internal_Hbond>
0.0000

> <Gold.Chemscore.DEClash>
4.5724

> <Gold.Chemscore.DEInternal>
2.0477

> <Gold.Chemscore.Rot>
3.6182

> <Gold.Chemscore.Internal.Correction>
   9.000000E+99

> <Gold.Chemscore.Hbonds>
donor molecule, donor type, donor heavy atom, donor atom, acceptor molecule, acceptor atom, score
      L1  H     7    38       P1  8028  0.59
      L1  H    18    48       P1 10171  0.79
      P1  H  7954  7966       L1    18  0.15

> <Gold.Chemscore.Hbond.Weighted>
-8.5235

> <Gold.Chemscore.Metal.Weighted>
-0.0000

> <Gold.Chemscore.Lipo.Weighted>
-13.1240

> <Gold.Chemscore.Internal_Hbond.Weighted>
0.0000

> <Gold.Chemscore.DEClash.Weighted>
4.5724

> <Gold.Chemscore.DEInternal.Weighted>
2.0477

> <Gold.Chemscore.Rot.Weighted>
9.2625

> <Gold.Chemscore.Internal.Correction.Weighted>
   9.000000E+99

> <Gold.Protein.RotatedTorsions>
[ 6907 6896 6895 6894 ] final -109.11 input  -60.11 | X-H torsion
[ 7974 7965 7964 7962 ] final  171.76 input  175.53 | X-H torsion
[ 8008 7997 7996 7995 ] final  170.57 input   59.86 | X-H torsion
[ 10167 10162 10161 10158 ] final  -78.30 input  -65.29 | X-H torsion
[ 10718 10713 10712 10709 ] final  178.09 input   66.30 | X-H torsion
[ 10763 10752 10751 10750 ] final  -73.51 input  -60.55 | X-H torsion
[ 11005 11000 10999 10996 ] final  -58.69 input  -57.11 | X-H torsion

> <Gold.Protein.ActiveResidues>
 VAL166  LYS551  ARG553  GLY616  TRP617  ASP618  TYR619  PRO620  LYS621  CYS622 
 ASP623  PHE694  ASN695  SER759  ASP760  ASP761  ALA762  ILE779  LEU786  VAL792 
 PHE793  MET794  SER795  GLU796  ALA797  LYS798  CYS799  TRP800  GLU811  SER814 

> <Gold.Protein.RotatedAtoms>
  150.7542  133.9578  159.3505 H   0  0  0  0  0  0  0  0  0  0  0  0  # atno 6907 bound_to 6896
  151.7501  135.0832  160.0339 H   0  0  0  0  0  0  0  0  0  0  0  0  # atno 6908 bound_to 6896
  152.3472  133.6099  159.5954 H   0  0  0  0  0  0  0  0  0  0  0  0  # atno 6909 bound_to 6896
  144.7286  139.9398  143.6428 H   0  0  0  0  0  0  0  0  0  0  0  0  # atno 7974 bound_to 7965
  156.1353  140.1534  156.9004 H   0  0  0  0  0  0  0  0  0  0  0  0  # atno 8008 bound_to 7997
  154.4942  140.0843  156.7699 H   0  0  0  0  0  0  0  0  0  0  0  0  # atno 8009 bound_to 7997
  155.4181  140.3422  155.4271 H   0  0  0  0  0  0  0  0  0  0  0  0  # atno 8010 bound_to 7997
  140.4694  143.2431  151.8228 H   0  0  0  0  0  0  0  0  0  0  0  0  # atno 10167 bound_to 10162
  156.8957  130.9862  151.3043 H   0  0  0  0  0  0  0  0  0  0  0  0  # atno 10718 bound_to 10713
  154.4604  135.5895  153.6252 H   0  0  0  0  0  0  0  0  0  0  0  0  # atno 10763 bound_to 10752
  152.9822  135.6042  154.3493 H   0  0  0  0  0  0  0  0  0  0  0  0  # atno 10764 bound_to 10752
  154.3364  135.2842  155.2424 H   0  0  0  0  0  0  0  0  0  0  0  0  # atno 10765 bound_to 10752
  141.1218  133.6613  156.4959 H   0  0  0  0  0  0  0  0  0  0  0  0  # atno 11005 bound_to 11000
  146.0794  139.3781  143.0474 LP  0  0  0  0  0  0  0  0  0  0  0  0  # atno 17320 bound_to 7965
  145.7862  140.9835  143.1073 LP  0  0  0  0  0  0  0  0  0  0  0  0  # atno 17321 bound_to 7965
  139.4816  144.4910  151.9184 LP  0  0  0  0  0  0  0  0  0  0  0  0  # atno 17342 bound_to 10162
  140.3996  144.2511  150.5894 LP  0  0  0  0  0  0  0  0  0  0  0  0  # atno 17343 bound_to 10162
  157.6056  130.8545  149.8871 LP  0  0  0  0  0  0  0  0  0  0  0  0  # atno 17370 bound_to 10713
  156.0606  130.3700  150.0990 LP  0  0  0  0  0  0  0  0  0  0  0  0  # atno 17371 bound_to 10713
  140.4485  134.6950  157.5028 LP  0  0  0  0  0  0  0  0  0  0  0  0  # atno 17394 bound_to 11000
  140.0181  134.6588  155.9280 LP  0  0  0  0  0  0  0  0  0  0  0  0  # atno 17395 bound_to 11000

$$$$
