AV-unprocessed.smi:249|AV-procd|sdf|1914|dock9
  -GOLD-   2262021 13D 1   1.00000     0.00000
 Structure written by MMmdl.
 64 67  0  0  0  0  0  0  0  0  2 V2000
  146.3401  133.0250  151.2072 C   0  0  0  0  0  0  0  0  0  0  0  0
  146.3552  133.3116  152.7150 C   0  0  0  0  0  0  0  0  0  0  0  0
  147.6372  133.9141  153.1646 N   0  3  2  0  0  0  0  0  0  0  0  0
  148.8284  133.0760  152.8586 C   0  0  0  0  0  0  0  0  0  0  0  0
  150.1297  133.8342  153.1625 C   0  0  0  0  0  0  0  0  0  0  0  0
  150.1685  134.3006  154.6310 C   0  0  1  0  0  0  0  0  0  0  0  0
  151.4217  134.9655  155.0108 N   0  0  0  0  0  0  0  0  0  0  0  0
  152.6082  134.1301  155.1550 C   0  0  0  0  0  0  0  0  0  0  0  0
  151.3513  135.9852  155.8995 C   0  0  0  0  0  0  0  0  0  0  0  0
  150.7716  135.7304  157.0992 N   0  0  0  0  0  0  0  0  0  0  0  0
  150.6636  136.7007  158.0117 C   0  0  0  0  0  0  0  0  0  0  0  0
  151.0603  137.9720  157.9286 N   0  0  0  0  0  0  0  0  0  0  0  0
  151.6401  138.2338  156.7224 C   0  0  0  0  0  0  0  0  0  0  0  0
  151.8240  137.3069  155.6575 C   0  0  0  0  0  0  0  0  0  0  0  0
  152.4557  137.9336  154.5894 N   0  0  0  0  0  0  0  0  0  0  0  0
  152.6301  139.1610  154.9970 C   0  0  0  0  0  0  0  0  0  0  0  0
  152.1757  139.4264  156.2684 N   0  0  0  0  0  0  0  0  0  0  0  0
  152.2455  140.7010  156.9621 C   0  0  0  0  0  0  0  0  0  0  0  0
  150.9349  141.0642  157.7036 C   0  0  2  0  0  0  0  0  0  0  0  0
  149.7445  141.2836  156.7381 C   0  0  0  0  0  0  0  0  0  0  0  0
  148.5837  141.6905  157.4333 O   0  0  0  0  0  0  0  0  0  0  0  0
  151.1362  142.2607  158.6684 C   0  0  2  0  0  0  0  0  0  0  0  0
  151.1804  143.6219  157.9960 C   0  0  0  0  0  0  0  0  0  0  0  0
  151.8342  144.4887  159.0660 C   0  0  0  0  0  0  0  0  0  0  0  0
  152.7321  143.6299  159.7593 O   0  0  0  0  0  0  0  0  0  0  0  0
  152.4798  142.2735  159.4052 C   0  0  0  0  0  0  0  0  0  0  0  0
  148.9117  135.1499  154.9198 C   0  0  0  0  0  0  0  0  0  0  0  0
  147.6099  134.3942  154.5788 C   0  0  2  0  0  0  0  0  0  0  0  0
  147.2928  133.2796  155.5997 C   0  0  0  0  0  0  0  0  0  0  0  0
  145.3619  132.6555  150.8987 H   0  0  0  0  0  0  0  0  0  0  0  0
  147.0734  132.2703  150.9248 H   0  0  0  0  0  0  0  0  0  0  0  0
  146.5474  133.9282  150.6329 H   0  0  0  0  0  0  0  0  0  0  0  0
  145.5373  134.0012  152.9285 H   0  0  0  0  0  0  0  0  0  0  0  0
  146.1487  132.4008  153.2784 H   0  0  0  0  0  0  0  0  0  0  0  0
  148.7902  132.1445  153.4241 H   0  0  0  0  0  0  0  0  0  0  0  0
  148.8292  132.7962  151.8059 H   0  0  0  0  0  0  0  0  0  0  0  0
  150.9863  133.1933  152.9508 H   0  0  0  0  0  0  0  0  0  0  0  0
  150.2013  134.6869  152.4864 H   0  0  0  0  0  0  0  0  0  0  0  0
  150.1183  133.4058  155.2523 H   0  0  0  0  0  0  0  0  0  0  0  0
  153.4885  134.7343  155.3795 H   0  0  0  0  0  0  0  0  0  0  0  0
  152.8033  133.5945  154.2257 H   0  0  0  0  0  0  0  0  0  0  0  0
  152.4868  133.3940  155.9493 H   0  0  0  0  0  0  0  0  0  0  0  0
  150.1904  136.4188  158.9408 H   0  0  0  0  0  0  0  0  0  0  0  0
  153.1015  139.9115  154.3791 H   0  0  0  0  0  0  0  0  0  0  0  0
  153.0791  140.6447  157.6619 H   0  0  0  0  0  0  0  0  0  0  0  0
  152.5030  141.4787  156.2424 H   0  0  0  0  0  0  0  0  0  0  0  0
  150.6728  140.2011  158.3174 H   0  0  0  0  0  0  0  0  0  0  0  0
  149.9824  142.0347  155.9849 H   0  0  0  0  0  0  0  0  0  0  0  0
  149.5184  140.3706  156.1880 H   0  0  0  0  0  0  0  0  0  0  0  0
  147.9472  141.9976  156.8060 H   0  0  0  0  0  0  0  0  0  0  0  0
  150.3348  142.2722  159.4092 H   0  0  0  0  0  0  0  0  0  0  0  0
  151.8102  143.5883  157.1058 H   0  0  0  0  0  0  0  0  0  0  0  0
  150.1972  143.9934  157.7060 H   0  0  0  0  0  0  0  0  0  0  0  0
  152.3502  145.3529  158.6468 H   0  0  0  0  0  0  0  0  0  0  0  0
  151.0854  144.8501  159.7720 H   0  0  0  0  0  0  0  0  0  0  0  0
  152.4769  141.6343  160.2886 H   0  0  0  0  0  0  0  0  0  0  0  0
  153.2847  141.9386  158.7492 H   0  0  0  0  0  0  0  0  0  0  0  0
  148.8888  135.4638  155.9637 H   0  0  0  0  0  0  0  0  0  0  0  0
  148.9464  136.0660  154.3292 H   0  0  0  0  0  0  0  0  0  0  0  0
  146.8018  135.1238  154.6489 H   0  0  0  0  0  0  0  0  0  0  0  0
  147.2698  133.6822  156.6127 H   0  0  0  0  0  0  0  0  0  0  0  0
  148.0319  132.4793  155.5866 H   0  0  0  0  0  0  0  0  0  0  0  0
  146.3169  132.8302  155.4171 H   0  0  0  0  0  0  0  0  0  0  0  0
  147.7450  134.7522  152.6113 H   0  0  0  0  0  0  0  0  0  0  0  0
  1  2  1  0  0  0  0
  1 30  1  0  0  0  0
  1 31  1  0  0  0  0
  1 32  1  0  0  0  0
  2  3  1  0  0  0  0
  2 33  1  0  0  0  0
  2 34  1  0  0  0  0
  3 28  1  0  0  0  0
  3  4  1  0  0  0  0
  3 64  1  0  0  0  0
  4  5  1  0  0  0  0
  4 35  1  0  0  0  0
  4 36  1  0  0  0  0
  5  6  1  0  0  0  0
  5 37  1  0  0  0  0
  5 38  1  0  0  0  0
  6  7  1  0  0  0  0
  6 27  1  0  0  0  0
  6 39  1  0  0  0  0
  7  8  1  0  0  0  0
  7  9  1  0  0  0  0
  8 40  1  0  0  0  0
  8 41  1  0  0  0  0
  8 42  1  0  0  0  0
  9 14  1  0  0  0  0
  9 10  2  0  0  0  0
 10 11  1  0  0  0  0
 11 12  2  0  0  0  0
 11 43  1  0  0  0  0
 12 13  1  0  0  0  0
 13 17  1  0  0  0  0
 13 14  2  0  0  0  0
 14 15  1  0  0  0  0
 15 16  2  0  0  0  0
 16 17  1  0  0  0  0
 16 44  1  0  0  0  0
 17 18  1  0  0  0  0
 18 19  1  0  0  0  0
 18 45  1  0  0  0  0
 18 46  1  0  0  0  0
 19 20  1  0  0  0  0
 19 22  1  0  0  0  0
 19 47  1  0  0  0  0
 20 21  1  0  0  0  0
 20 48  1  0  0  0  0
 20 49  1  0  0  0  0
 21 50  1  0  0  0  0
 22 26  1  0  0  0  0
 22 23  1  0  0  0  0
 22 51  1  0  0  0  0
 23 24  1  0  0  0  0
 23 52  1  0  0  0  0
 23 53  1  0  0  0  0
 24 25  1  0  0  0  0
 24 54  1  0  0  0  0
 24 55  1  0  0  0  0
 25 26  1  0  0  0  0
 26 56  1  0  0  0  0
 26 57  1  0  0  0  0
 27 28  1  0  0  0  0
 27 58  1  0  0  0  0
 27 59  1  0  0  0  0
 28 29  1  0  0  0  0
 28 60  1  0  0  0  0
 29 61  1  0  0  0  0
 29 62  1  0  0  0  0
 29 63  1  0  0  0  0
M  CHG  1   3   1
M  END
> <s_m_source_file>
AV-unprocessed.smi

> <i_m_source_file_index>
249

> <i_lp_mmshare_version>
43012

> <i_f3d_flags>
0

> <s_epik_input>
W0NIM11bQ0gyXU4xW0NIMl1bQ0gyXVtDQEhdKFtDSDJdW0NASF0xW0NIM10pTihbQ0gzXSljKG5bY0hdbjIpYyhjMjMpbltjSF1uM1tDSDJdW0NASF0oW0NIMl1bT0hdKVtDQEBIXTRbQ0gyXVtDSDJdT1tDSDJdNA==

> <s_epik_cmdline>
J2VwaWtfcHl0aG9uJywgJy1waCcsICc3LjAnLCAnLXRuJywgJzgnLCAnLW1hJywgJzIwMCcsICctbWV0YWxfYmluZGluZycsICctaW1hZScsICc8aW5maWxlLm1hZT4nLCAnLW9tYWUnLCAnPG91dGZpbGUubWFlPic=

> <r_lp_tautomer_probability>
1

> <r_epik_Ionization_Penalty>
0.00294688

> <r_epik_Ionization_Penalty_Charging>
0.00169971

> <r_epik_Ionization_Penalty_Neutral>
0.00124717

> <r_epik_State_Penalty>
-0

> <r_epik_Charging_Adjusted_Penalty>
0.00169971

> <i_epik_Tot_Q>
1

> <i_epik_Tot_abs_Q>
1

> <r_epik_Metal_State_Penalty>
-0

> <b_epik_Metal_Only>
0

> <s_lp_Force_Field>
OPLS_2005

> <r_lp_Energy>
54.2474

> <b_lp_Chiralities_Consistent>
1

> <s_lp_Variant>
AV-unprocessed.smi:249-17

> <Gold.Version>
5.8.1

> <Gold.Id.Protein>
6NUR|6NUR_protein|mol2

> <Gold.PLP.Fitness>
51.2057

> <Gold.PLP.PLP>
-45.0137

> <Gold.PLP.part.hbond>
-2.8297

> <Gold.PLP.part.metal>
0.0000

> <Gold.PLP.part.buried>
-6.5256

> <Gold.PLP.part.nonpolar>
-35.5240

> <Gold.PLP.part.repulsive>
0.0844

> <Gold.PLP.ligand.clash>
0.0000

> <Gold.PLP.ligand.torsion>
1.5734

> <Gold.PLP.Chemscore.Hbond>
2.7680

> <Gold.PLP.Chemscore.CHOScore>
0.0000

> <Gold.PLP.Chemscore.Metal>
0.0000

> <Gold.Chemscore.Hbonds>
donor molecule, donor type, donor heavy atom, donor atom, acceptor molecule, acceptor atom, score
      L1  H     3    64       P1  7948  1.95

> <Gold.PLP.Chemscore.Internal.Correction>
1.0347

> <Gold.Rescore>
     Score         DG    S(hbond)    S(metal)    S(lipo)     H(rot)  DE(clash)    DE(int)     intcor
     11.89     -16.10       1.72        0.00     105.04       2.90       0.12       4.10       ----

> <Gold.Chemscore.Fitness>
11.8854

> <Gold.Chemscore.DG>
-16.1019

> <Gold.Chemscore.ZeroCoef>
-5.4800

> <Gold.Chemscore.Hbond>
1.7239

> <Gold.Chemscore.Metal>
0.0000

> <Gold.Chemscore.Lipo>
105.0390

> <Gold.Chemscore.Internal_Hbond>
0.0000

> <Gold.Chemscore.DEClash>
0.1197

> <Gold.Chemscore.DEInternal>
4.0968

> <Gold.Chemscore.Rot>
2.9006

> <Gold.Chemscore.Internal.Correction>
   9.000000E+99

> <Gold.Chemscore.Hbonds>
donor molecule, donor type, donor heavy atom, donor atom, acceptor molecule, acceptor atom, score
      L1  H     3    64       P1  7948  0.78

> <Gold.Chemscore.Hbond.Weighted>
-5.7579

> <Gold.Chemscore.Metal.Weighted>
-0.0000

> <Gold.Chemscore.Lipo.Weighted>
-12.2896

> <Gold.Chemscore.Internal_Hbond.Weighted>
0.0000

> <Gold.Chemscore.DEClash.Weighted>
0.1197

> <Gold.Chemscore.DEInternal.Weighted>
4.0968

> <Gold.Chemscore.Rot.Weighted>
7.4256

> <Gold.Chemscore.Internal.Correction.Weighted>
   9.000000E+99

> <Gold.Protein.RotatedTorsions>
[ 6907 6896 6895 6894 ] final  -32.88 input  -60.11 | X-H torsion
[ 7974 7965 7964 7962 ] final  145.22 input  175.53 | X-H torsion
[ 8008 7997 7996 7995 ] final  -85.98 input   59.86 | X-H torsion
[ 10167 10162 10161 10158 ] final -110.16 input  -65.29 | X-H torsion
[ 10718 10713 10712 10709 ] final  -71.91 input   66.30 | X-H torsion
[ 10763 10752 10751 10750 ] final  -51.11 input  -60.55 | X-H torsion
[ 11005 11000 10999 10996 ] final -113.67 input  -57.11 | X-H torsion

> <Gold.Protein.ActiveResidues>
 VAL166  LYS551  ARG553  GLY616  TRP617  ASP618  TYR619  PRO620  LYS621  CYS622 
 ASP623  PHE694  ASN695  SER759  ASP760  ASP761  ALA762  ILE779  LEU786  VAL792 
 PHE793  MET794  SER795  GLU796  ALA797  LYS798  CYS799  TRP800  GLU811  SER814 

> <Gold.Protein.RotatedAtoms>
  151.0730  134.9810  159.8317 H   0  0  0  0  0  0  0  0  0  0  0  0  # atno 6907 bound_to 6896
  152.5410  134.2276  159.8822 H   0  0  0  0  0  0  0  0  0  0  0  0  # atno 6908 bound_to 6896
  151.2302  133.4411  159.2637 H   0  0  0  0  0  0  0  0  0  0  0  0  # atno 6909 bound_to 6896
  144.8770  139.5757  143.5860 H   0  0  0  0  0  0  0  0  0  0  0  0  # atno 7974 bound_to 7965
  154.6468  140.0584  156.9909 H   0  0  0  0  0  0  0  0  0  0  0  0  # atno 8008 bound_to 7997
  155.1433  140.3267  155.4429 H   0  0  0  0  0  0  0  0  0  0  0  0  # atno 8009 bound_to 7997
  156.2557  140.1960  156.6547 H   0  0  0  0  0  0  0  0  0  0  0  0  # atno 8010 bound_to 7997
  140.1475  143.4227  152.1518 H   0  0  0  0  0  0  0  0  0  0  0  0  # atno 10167 bound_to 10162
  156.0342  130.4361  150.2515 H   0  0  0  0  0  0  0  0  0  0  0  0  # atno 10718 bound_to 10713
  154.1212  135.6534  153.4903 H   0  0  0  0  0  0  0  0  0  0  0  0  # atno 10763 bound_to 10752
  153.0225  135.5270  154.7095 H   0  0  0  0  0  0  0  0  0  0  0  0  # atno 10764 bound_to 10752
  154.6303  135.2975  155.0194 H   0  0  0  0  0  0  0  0  0  0  0  0  # atno 10765 bound_to 10752
  141.0600  133.9551  157.2684 H   0  0  0  0  0  0  0  0  0  0  0  0  # atno 11005 bound_to 11000
  146.2969  139.7306  142.9120 LP  0  0  0  0  0  0  0  0  0  0  0  0  # atno 17320 bound_to 7965
  145.4024  141.0387  143.3063 LP  0  0  0  0  0  0  0  0  0  0  0  0  # atno 17321 bound_to 7965
  139.5442  144.7283  151.4637 LP  0  0  0  0  0  0  0  0  0  0  0  0  # atno 17342 bound_to 10162
  140.6723  143.8267  150.7014 LP  0  0  0  0  0  0  0  0  0  0  0  0  # atno 17343 bound_to 10162
  157.0615  131.0091  151.3221 LP  0  0  0  0  0  0  0  0  0  0  0  0  # atno 17370 bound_to 10713
  157.5067  130.7913  149.7661 LP  0  0  0  0  0  0  0  0  0  0  0  0  # atno 17371 bound_to 10713
  139.9424  135.0189  156.8749 LP  0  0  0  0  0  0  0  0  0  0  0  0  # atno 17394 bound_to 11000
  140.5888  134.0282  155.7491 LP  0  0  0  0  0  0  0  0  0  0  0  0  # atno 17395 bound_to 11000

$$$$
