AV-unprocessed.smi:2800|AV-procd|sdf|10796|dock2
  -GOLD-   2272015233D 1   1.00000     0.00000
 Structure written by MMmdl.
 52 53  0  0  0  0  0  0  0  0  2 V2000
  151.0461  137.9062  154.4540 C   0  0  0  0  0  0  0  0  0  0  0  0
  150.3329  139.1839  154.8576 C   0  0  0  0  0  0  0  0  0  0  0  0
  151.0187  140.0613  155.6232 N   0  3  0  0  0  0  0  0  0  0  0  0
  150.5159  141.2398  156.0596 C   0  0  0  0  0  0  0  0  0  0  0  0
  151.3313  142.0699  156.8524 N   0  0  0  0  0  0  0  0  0  0  0  0
  151.0524  143.4887  157.0007 C   0  0  0  0  0  0  0  0  0  0  0  0
  152.0377  143.9686  158.0657 C   0  0  0  0  0  0  0  0  0  0  0  0
  152.1984  142.7442  158.9667 C   0  0  0  0  0  0  0  0  0  0  0  0
  152.0534  141.5555  158.0095 C   0  0  0  0  0  0  0  0  0  0  0  0
  149.1987  141.5893  155.6838 C   0  0  0  0  0  0  0  0  0  0  0  0
  148.4420  140.7093  154.8845 C   0  0  0  0  0  0  0  0  0  0  0  0
  149.0035  139.4756  154.4694 C   0  0  0  0  0  0  0  0  0  0  0  0
  148.3171  138.5301  153.6555 N   0  0  0  0  0  0  0  0  0  0  0  0
  147.0021  138.2579  153.5968 C   0  0  0  0  0  0  0  0  0  0  0  0
  146.1292  138.8114  154.2639 O   0  0  0  0  0  0  0  0  0  0  0  0
  146.7548  137.2772  152.7164 N   0  0  0  0  0  0  0  0  0  0  0  0
  145.4320  136.7583  152.3542 C   0  0  1  0  0  0  0  0  0  0  0  0
  145.4340  136.5103  150.8271 C   0  0  0  0  0  0  0  0  0  0  0  0
  146.1304  137.5473  150.1673 O   0  0  0  0  0  0  0  0  0  0  0  0
  145.0706  135.5047  153.2207 C   0  0  0  0  0  0  0  0  0  0  0  0
  143.6275  135.0250  152.9518 C   0  0  0  0  0  0  0  0  0  0  0  0
  145.2228  135.8184  154.7257 C   0  0  0  0  0  0  0  0  0  0  0  0
  146.0369  134.3404  152.9025 C   0  0  0  0  0  0  0  0  0  0  0  0
  144.6691  137.5125  152.5590 H   0  0  0  0  0  0  0  0  0  0  0  0
  150.5096  137.0354  154.8318 H   0  0  0  0  0  0  0  0  0  0  0  0
  152.0622  137.8750  154.8491 H   0  0  0  0  0  0  0  0  0  0  0  0
  151.1046  137.8311  153.3680 H   0  0  0  0  0  0  0  0  0  0  0  0
  151.1837  144.0278  156.0619 H   0  0  0  0  0  0  0  0  0  0  0  0
  150.0241  143.6239  157.3388 H   0  0  0  0  0  0  0  0  0  0  0  0
  152.9946  144.2121  157.6021 H   0  0  0  0  0  0  0  0  0  0  0  0
  151.6877  144.8519  158.6007 H   0  0  0  0  0  0  0  0  0  0  0  0
  153.1432  142.7367  159.5108 H   0  0  0  0  0  0  0  0  0  0  0  0
  151.3903  142.7239  159.6993 H   0  0  0  0  0  0  0  0  0  0  0  0
  151.5341  140.7279  158.4938 H   0  0  0  0  0  0  0  0  0  0  0  0
  153.0317  141.2017  157.6825 H   0  0  0  0  0  0  0  0  0  0  0  0
  148.7579  142.5254  155.9925 H   0  0  0  0  0  0  0  0  0  0  0  0
  147.4475  141.0116  154.5976 H   0  0  0  0  0  0  0  0  0  0  0  0
  148.9104  137.9448  153.0859 H   0  0  0  0  0  0  0  0  0  0  0  0
  147.5400  136.8754  152.2258 H   0  0  0  0  0  0  0  0  0  0  0  0
  145.8818  135.5481  150.5758 H   0  0  0  0  0  0  0  0  0  0  0  0
  144.4273  136.5076  150.4147 H   0  0  0  0  0  0  0  0  0  0  0  0
  145.5099  138.2143  149.9166 H   0  0  0  0  0  0  0  0  0  0  0  0
  143.3894  134.1441  153.5489 H   0  0  0  0  0  0  0  0  0  0  0  0
  143.4774  134.7545  151.9063 H   0  0  0  0  0  0  0  0  0  0  0  0
  142.8935  135.7903  153.2039 H   0  0  0  0  0  0  0  0  0  0  0  0
  144.4782  136.5293  155.0816 H   0  0  0  0  0  0  0  0  0  0  0  0
  146.2084  136.2284  154.9492 H   0  0  0  0  0  0  0  0  0  0  0  0
  145.1019  134.9192  155.3308 H   0  0  0  0  0  0  0  0  0  0  0  0
  145.8570  133.4844  153.5538 H   0  0  0  0  0  0  0  0  0  0  0  0
  147.0767  134.6401  153.0379 H   0  0  0  0  0  0  0  0  0  0  0  0
  145.9280  133.9833  151.8784 H   0  0  0  0  0  0  0  0  0  0  0  0
  151.9735  139.8194  155.8885 H   0  0  0  0  0  0  0  0  0  0  0  0
  1  2  1  0  0  0  0
  1 25  1  0  0  0  0
  1 26  1  0  0  0  0
  1 27  1  0  0  0  0
  2 12  1  0  0  0  0
  2  3  2  0  0  0  0
  3  4  1  0  0  0  0
  3 52  1  0  0  0  0
  4  5  1  0  0  0  0
  4 10  2  0  0  0  0
  5  9  1  0  0  0  0
  5  6  1  0  0  0  0
  6  7  1  0  0  0  0
  6 28  1  0  0  0  0
  6 29  1  0  0  0  0
  7  8  1  0  0  0  0
  7 30  1  0  0  0  0
  7 31  1  0  0  0  0
  8  9  1  0  0  0  0
  8 32  1  0  0  0  0
  8 33  1  0  0  0  0
  9 34  1  0  0  0  0
  9 35  1  0  0  0  0
 10 11  1  0  0  0  0
 10 36  1  0  0  0  0
 11 12  2  0  0  0  0
 11 37  1  0  0  0  0
 12 13  1  0  0  0  0
 13 14  1  0  0  0  0
 13 38  1  0  0  0  0
 14 15  2  0  0  0  0
 14 16  1  0  0  0  0
 16 17  1  0  0  0  0
 16 39  1  0  0  0  0
 17 24  1  0  0  0  0
 17 18  1  0  0  0  0
 17 20  1  0  0  0  0
 18 19  1  0  0  0  0
 18 40  1  0  0  0  0
 18 41  1  0  0  0  0
 19 42  1  0  0  0  0
 20 21  1  0  0  0  0
 20 22  1  0  0  0  0
 20 23  1  0  0  0  0
 21 43  1  0  0  0  0
 21 44  1  0  0  0  0
 21 45  1  0  0  0  0
 22 46  1  0  0  0  0
 22 47  1  0  0  0  0
 22 48  1  0  0  0  0
 23 49  1  0  0  0  0
 23 50  1  0  0  0  0
 23 51  1  0  0  0  0
M  CHG  1   3   1
M  END
> <s_m_source_file>
AV-unprocessed.smi

> <i_m_source_file_index>
2800

> <i_lp_mmshare_version>
43012

> <i_f3d_flags>
0

> <s_epik_input>
W0NIMl0xW0NIMl1bQ0gyXVtDSDJdTjFjKG5jMltDSDNdKVtjSF1bY0hdYzJbTkhdQyg9TylbTkhdW0NASF0oW0NIMl1bT0hdKUMoW0NIM10pKFtDSDNdKVtDSDNd

> <s_epik_cmdline>
J2VwaWtfcHl0aG9uJywgJy1waCcsICc3LjAnLCAnLXRuJywgJzgnLCAnLW1hJywgJzIwMCcsICctbWV0YWxfYmluZGluZycsICctaW1hZScsICc8aW5maWxlLm1hZT4nLCAnLW9tYWUnLCAnPG91dGZpbGUubWFlPic=

> <r_lp_tautomer_probability>
0.999994

> <r_epik_Ionization_Penalty>
0.536494

> <r_epik_Ionization_Penalty_Charging>
0.536474

> <r_epik_Ionization_Penalty_Neutral>
1.97788e-05

> <r_epik_State_Penalty>
0.545692

> <r_epik_Charging_Adjusted_Penalty>
1.08217

> <i_epik_Tot_Q>
1

> <i_epik_Tot_abs_Q>
1

> <r_epik_Metal_State_Penalty>
0.748506

> <b_epik_Metal_Only>
0

> <s_lp_Force_Field>
OPLS_2005

> <r_lp_Energy>
41.3448

> <b_lp_Chiralities_Consistent>
1

> <s_lp_Variant>
AV-unprocessed.smi:2800-4

> <Gold.Version>
5.8.1

> <Gold.Id.Protein>
6NUR|6NUR_protein|mol2

> <Gold.PLP.Fitness>
45.4946

> <Gold.PLP.PLP>
-37.4174

> <Gold.PLP.part.hbond>
-4.4452

> <Gold.PLP.part.metal>
0.0000

> <Gold.PLP.part.buried>
-1.4084

> <Gold.PLP.part.nonpolar>
-33.4489

> <Gold.PLP.part.repulsive>
0.3130

> <Gold.PLP.ligand.clash>
0.0000

> <Gold.PLP.ligand.torsion>
1.2312

> <Gold.PLP.Chemscore.Hbond>
3.4062

> <Gold.PLP.Chemscore.CHOScore>
0.0000

> <Gold.PLP.Chemscore.Metal>
0.0000

> <Gold.Chemscore.Hbonds>
donor molecule, donor type, donor heavy atom, donor atom, acceptor molecule, acceptor atom, score
      L1  H    13    38       P1  7948  0.80
      L1  H    16    39       P1  7948  1.00
      L1  H    19    42       P1 10171  0.91
      P1  H  7954  7966       L1    19  0.65

> <Gold.PLP.Chemscore.Internal.Correction>
0.3209

> <Gold.Rescore>
     Score         DG    S(hbond)    S(metal)    S(lipo)     H(rot)  DE(clash)    DE(int)     intcor
     19.81     -22.74       3.25        0.00      97.51       1.95       1.61       1.32       ----

> <Gold.Chemscore.Fitness>
19.8115

> <Gold.Chemscore.DG>
-22.7361

> <Gold.Chemscore.ZeroCoef>
-5.4800

> <Gold.Chemscore.Hbond>
3.2453

> <Gold.Chemscore.Metal>
0.0000

> <Gold.Chemscore.Lipo>
97.5090

> <Gold.Chemscore.Internal_Hbond>
0.0000

> <Gold.Chemscore.DEClash>
1.6088

> <Gold.Chemscore.DEInternal>
1.3158

> <Gold.Chemscore.Rot>
1.9499

> <Gold.Chemscore.Internal.Correction>
   9.000000E+99

> <Gold.Chemscore.Hbonds>
donor molecule, donor type, donor heavy atom, donor atom, acceptor molecule, acceptor atom, score
      L1  H    13    38       P1  7948  0.77
      L1  H    16    39       P1  7948  0.98
      L1  H    19    42       P1 10171  0.89
      P1  H  7954  7966       L1    19  0.61

> <Gold.Chemscore.Hbond.Weighted>
-10.8392

> <Gold.Chemscore.Metal.Weighted>
-0.0000

> <Gold.Chemscore.Lipo.Weighted>
-11.4086

> <Gold.Chemscore.Internal_Hbond.Weighted>
0.0000

> <Gold.Chemscore.DEClash.Weighted>
1.6088

> <Gold.Chemscore.DEInternal.Weighted>
1.3158

> <Gold.Chemscore.Rot.Weighted>
4.9916

> <Gold.Chemscore.Internal.Correction.Weighted>
   9.000000E+99

> <Gold.Protein.RotatedTorsions>
[ 6907 6896 6895 6894 ] final   92.16 input  -60.11 | X-H torsion
[ 7974 7965 7964 7962 ] final  -99.44 input  175.53 | X-H torsion
[ 8008 7997 7996 7995 ] final  -91.83 input   59.86 | X-H torsion
[ 10167 10162 10161 10158 ] final   59.16 input  -65.29 | X-H torsion
[ 10718 10713 10712 10709 ] final -157.67 input   66.30 | X-H torsion
[ 10763 10752 10751 10750 ] final   57.02 input  -60.55 | X-H torsion
[ 11005 11000 10999 10996 ] final  179.16 input  -57.11 | X-H torsion

> <Gold.Protein.ActiveResidues>
 VAL166  LYS551  ARG553  GLY616  TRP617  ASP618  TYR619  PRO620  LYS621  CYS622 
 ASP623  PHE694  ASN695  SER759  ASP760  ASP761  ALA762  ILE779  LEU786  VAL792 
 PHE793  MET794  SER795  GLU796  ALA797  LYS798  CYS799  TRP800  GLU811  SER814 

> <Gold.Protein.RotatedAtoms>
  152.5452  134.1546  159.8532 H   0  0  0  0  0  0  0  0  0  0  0  0  # atno 6907 bound_to 6896
  151.1569  133.4863  159.2602 H   0  0  0  0  0  0  0  0  0  0  0  0  # atno 6908 bound_to 6896
  151.1413  135.0192  159.8682 H   0  0  0  0  0  0  0  0  0  0  0  0  # atno 6909 bound_to 6896
  145.3076  140.9392  143.2788 H   0  0  0  0  0  0  0  0  0  0  0  0  # atno 7974 bound_to 7965
  154.7156  140.0515  157.0591 H   0  0  0  0  0  0  0  0  0  0  0  0  # atno 8008 bound_to 7997
  155.0496  140.3177  155.4677 H   0  0  0  0  0  0  0  0  0  0  0  0  # atno 8009 bound_to 7997
  156.2802  140.2118  156.5621 H   0  0  0  0  0  0  0  0  0  0  0  0  # atno 8010 bound_to 7997
  140.1794  144.4197  150.6623 H   0  0  0  0  0  0  0  0  0  0  0  0  # atno 10167 bound_to 10162
  156.5435  130.8574  151.2756 H   0  0  0  0  0  0  0  0  0  0  0  0  # atno 10718 bound_to 10713
  152.9842  135.5656  154.5323 H   0  0  0  0  0  0  0  0  0  0  0  0  # atno 10763 bound_to 10752
  154.4792  135.2788  155.1585 H   0  0  0  0  0  0  0  0  0  0  0  0  # atno 10764 bound_to 10752
  154.3101  135.6290  153.5515 H   0  0  0  0  0  0  0  0  0  0  0  0  # atno 10765 bound_to 10752
  140.4031  134.6759  157.4573 H   0  0  0  0  0  0  0  0  0  0  0  0  # atno 11005 bound_to 11000
  144.9042  139.4610  143.6618 LP  0  0  0  0  0  0  0  0  0  0  0  0  # atno 17320 bound_to 7965
  146.3129  139.7814  142.9005 LP  0  0  0  0  0  0  0  0  0  0  0  0  # atno 17321 bound_to 7965
  140.6530  143.2230  151.6034 LP  0  0  0  0  0  0  0  0  0  0  0  0  # atno 17342 bound_to 10162
  139.5303  144.2936  152.1131 LP  0  0  0  0  0  0  0  0  0  0  0  0  # atno 17343 bound_to 10162
  157.7401  130.9844  150.2355 LP  0  0  0  0  0  0  0  0  0  0  0  0  # atno 17370 bound_to 10713
  156.2950  130.3750  149.7805 LP  0  0  0  0  0  0  0  0  0  0  0  0  # atno 17371 bound_to 10713
  140.0322  134.6390  155.9092 LP  0  0  0  0  0  0  0  0  0  0  0  0  # atno 17394 bound_to 11000
  141.1849  133.6554  156.5176 LP  0  0  0  0  0  0  0  0  0  0  0  0  # atno 17395 bound_to 11000

$$$$
