AV-unprocessed.smi:3237|AV-procd|sdf|12371|dock9
  -GOLD-   2272018233D 1   1.00000     0.00000
 Structure written by MMmdl.
 36 38  0  0  0  0  0  0  0  0  3 V2000
  152.5132  143.3157  160.2351 C   0  0  0  0  0  0  0  0  0  0  0  0
  151.7307  142.6912  159.1313 C   0  0  0  0  0  0  0  0  0  0  0  0
  151.0524  143.2090  158.0642 C   0  0  0  0  0  0  0  0  0  0  0  0
  150.5389  142.0530  157.4182 C   0  0  0  0  0  0  0  0  0  0  0  0
  149.7577  142.1710  156.2384 N   0  0  0  0  0  0  0  0  0  0  0  0
  149.5567  141.2630  155.2660 C   0  0  0  0  0  0  0  0  0  0  0  0
  150.0818  140.1455  155.3352 O   0  0  0  0  0  0  0  0  0  0  0  0
  148.7497  141.7379  154.2774 N   0  5  0  0  0  0  0  0  0  0  0  0
  147.3290  141.4168  154.1339 C   0  0  2  0  0  0  0  0  0  0  0  0
  146.6063  141.3713  155.4825 C   0  0  0  0  0  0  0  0  0  0  0  0
  145.4440  140.3932  155.2589 C   0  0  0  0  0  0  0  0  0  0  0  0
  145.7512  139.6428  154.0183 N   0  3  2  0  0  0  0  0  0  0  0  0
  145.5008  138.1879  154.1064 C   0  0  0  0  0  0  0  0  0  0  0  0
  145.5092  137.4912  152.7668 C   0  0  0  0  0  0  0  0  0  0  0  0
  144.1982  137.7602  153.4741 C   0  0  0  0  0  0  0  0  0  0  0  0
  147.1265  139.9952  153.6140 C   0  0  0  0  0  0  0  0  0  0  0  0
  150.8768  140.9302  158.0352 N   0  0  0  0  0  0  0  0  0  0  0  0
  151.6420  141.3335  159.1360 O   0  0  0  0  0  0  0  0  0  0  0  0
  152.3241  144.3879  160.2879 H   0  0  0  0  0  0  0  0  0  0  0  0
  153.5819  143.1677  160.0809 H   0  0  0  0  0  0  0  0  0  0  0  0
  152.2450  142.8778  161.1967 H   0  0  0  0  0  0  0  0  0  0  0  0
  150.9416  144.2480  157.7916 H   0  0  0  0  0  0  0  0  0  0  0  0
  149.2890  143.0559  156.1138 H   0  0  0  0  0  0  0  0  0  0  0  0
  146.8030  142.1055  153.4704 H   0  0  0  0  0  0  0  0  0  0  0  0
  147.2648  140.9746  156.2577 H   0  0  0  0  0  0  0  0  0  0  0  0
  146.2686  142.3559  155.8086 H   0  0  0  0  0  0  0  0  0  0  0  0
  145.3317  139.7306  156.1188 H   0  0  0  0  0  0  0  0  0  0  0  0
  144.4980  140.9210  155.1267 H   0  0  0  0  0  0  0  0  0  0  0  0
  145.8769  137.6835  154.9949 H   0  0  0  0  0  0  0  0  0  0  0  0
  145.7334  138.0818  151.8802 H   0  0  0  0  0  0  0  0  0  0  0  0
  145.8592  136.4611  152.7391 H   0  0  0  0  0  0  0  0  0  0  0  0
  143.6842  136.9069  153.9116 H   0  0  0  0  0  0  0  0  0  0  0  0
  143.5510  138.5305  153.0583 H   0  0  0  0  0  0  0  0  0  0  0  0
  147.2573  139.9208  152.5341 H   0  0  0  0  0  0  0  0  0  0  0  0
  147.8314  139.3094  154.0890 H   0  0  0  0  0  0  0  0  0  0  0  0
  145.1442  140.0188  153.3044 H   0  0  0  0  0  0  0  0  0  0  0  0
  1  2  1  0  0  0  0
  1 19  1  0  0  0  0
  1 20  1  0  0  0  0
  1 21  1  0  0  0  0
  2 18  1  0  0  0  0
  2  3  2  0  0  0  0
  3  4  1  0  0  0  0
  3 22  1  0  0  0  0
  4  5  1  0  0  0  0
  4 17  2  0  0  0  0
  5  6  1  0  0  0  0
  5 23  1  0  0  0  0
  6  7  2  0  0  0  0
  6  8  1  0  0  0  0
  8  9  1  0  0  0  0
  9 16  1  0  0  0  0
  9 10  1  0  0  0  0
  9 24  1  0  0  0  0
 10 11  1  0  0  0  0
 10 25  1  0  0  0  0
 10 26  1  0  0  0  0
 11 12  1  0  0  0  0
 11 27  1  0  0  0  0
 11 28  1  0  0  0  0
 12 13  1  0  0  0  0
 12 16  1  0  0  0  0
 12 36  1  0  0  0  0
 13 15  1  0  0  0  0
 13 14  1  0  0  0  0
 13 29  1  0  0  0  0
 14 15  1  0  0  0  0
 14 30  1  0  0  0  0
 14 31  1  0  0  0  0
 15 32  1  0  0  0  0
 15 33  1  0  0  0  0
 16 34  1  0  0  0  0
 16 35  1  0  0  0  0
 17 18  1  0  0  0  0
M  CHG  1   8  -1
M  CHG  1  12   1
M  END
> <s_m_source_file>
AV-unprocessed.smi

> <i_m_source_file_index>
3237

> <i_lp_mmshare_version>
43012

> <i_f3d_flags>
0

> <s_epik_input>
W0NIM11jMVtjSF1jKG5vMSlbTkhdQyg9TylbTkhdW0NAQEhdMltDSDJdW0NIMl1OKFtDSDJdMilbQ0hdM1tDSDJdW0NIMl0z

> <s_epik_cmdline>
J2VwaWtfcHl0aG9uJywgJy1waCcsICc3LjAnLCAnLXRuJywgJzgnLCAnLW1hJywgJzIwMCcsICctbWV0YWxfYmluZGluZycsICctaW1hZScsICc8aW5maWxlLm1hZT4nLCAnLW9tYWUnLCAnPG91dGZpbGUubWFlPic=

> <r_epik_Ionization_Penalty>
6.76456

> <r_epik_Ionization_Penalty_Charging>
6.76456

> <r_epik_Ionization_Penalty_Neutral>
5.76722e-06

> <r_epik_State_Penalty>
6.78919

> <r_epik_Charging_Adjusted_Penalty>
13.5538

> <i_epik_Tot_Q>
0

> <i_epik_Tot_abs_Q>
2

> <r_epik_Metal_State_Penalty>
2.728

> <b_epik_Metal_Only>
1

> <s_lp_Force_Field>
OPLS_2005

> <r_lp_Energy>
30.701

> <b_lp_Chiralities_Consistent>
1

> <s_lp_Variant>
AV-unprocessed.smi:3237-9

> <Gold.Version>
5.8.1

> <Gold.Id.Protein>
6NUR|6NUR_protein|mol2

> <Gold.PLP.Fitness>
41.4317

> <Gold.PLP.PLP>
-30.2786

> <Gold.PLP.part.hbond>
-4.0000

> <Gold.PLP.part.metal>
0.0000

> <Gold.PLP.part.buried>
-3.6331

> <Gold.PLP.part.nonpolar>
-23.3323

> <Gold.PLP.part.repulsive>
0.4258

> <Gold.PLP.ligand.clash>
0.0000

> <Gold.PLP.ligand.torsion>
1.7404

> <Gold.PLP.Chemscore.Hbond>
4.4480

> <Gold.PLP.Chemscore.CHOScore>
0.0000

> <Gold.PLP.Chemscore.Metal>
0.0000

> <Gold.Chemscore.Hbonds>
donor molecule, donor type, donor heavy atom, donor atom, acceptor molecule, acceptor atom, score
      L1  H     5    23       P1  8028  1.00
      L1  H    12    36       P1 10175  2.00
      P1  H  8011  8017       L1     8  0.17

> <Gold.PLP.Chemscore.Internal.Correction>
1.2898

> <Gold.Rescore>
     Score         DG    S(hbond)    S(metal)    S(lipo)     H(rot)  DE(clash)    DE(int)     intcor
     15.10     -18.37       2.50        0.00      66.11       1.25       0.23       3.04       ----

> <Gold.Chemscore.Fitness>
15.1033

> <Gold.Chemscore.DG>
-18.3740

> <Gold.Chemscore.ZeroCoef>
-5.4800

> <Gold.Chemscore.Hbond>
2.5001

> <Gold.Chemscore.Metal>
0.0000

> <Gold.Chemscore.Lipo>
66.1065

> <Gold.Chemscore.Internal_Hbond>
0.0000

> <Gold.Chemscore.DEClash>
0.2343

> <Gold.Chemscore.DEInternal>
3.0364

> <Gold.Chemscore.Rot>
1.2464

> <Gold.Chemscore.Internal.Correction>
   9.000000E+99

> <Gold.Chemscore.Hbonds>
donor molecule, donor type, donor heavy atom, donor atom, acceptor molecule, acceptor atom, score
      L1  H     5    23       P1  8028  1.00
      L1  H    12    36       P1 10175  1.00
      P1  H  8011  8017       L1     8  0.13

> <Gold.Chemscore.Hbond.Weighted>
-8.3504

> <Gold.Chemscore.Metal.Weighted>
-0.0000

> <Gold.Chemscore.Lipo.Weighted>
-7.7345

> <Gold.Chemscore.Internal_Hbond.Weighted>
0.0000

> <Gold.Chemscore.DEClash.Weighted>
0.2343

> <Gold.Chemscore.DEInternal.Weighted>
3.0364

> <Gold.Chemscore.Rot.Weighted>
3.1909

> <Gold.Chemscore.Internal.Correction.Weighted>
   9.000000E+99

> <Gold.Protein.RotatedTorsions>
[ 6907 6896 6895 6894 ] final   22.75 input  -60.11 | X-H torsion
[ 7974 7965 7964 7962 ] final  137.55 input  175.53 | X-H torsion
[ 8008 7997 7996 7995 ] final   29.84 input   59.86 | X-H torsion
[ 10167 10162 10161 10158 ] final  -37.17 input  -65.29 | X-H torsion
[ 10718 10713 10712 10709 ] final -159.50 input   66.30 | X-H torsion
[ 10763 10752 10751 10750 ] final  156.25 input  -60.55 | X-H torsion
[ 11005 11000 10999 10996 ] final   77.52 input  -57.11 | X-H torsion

> <Gold.Protein.ActiveResidues>
 VAL166  LYS551  ARG553  GLY616  TRP617  ASP618  TYR619  PRO620  LYS621  CYS622 
 ASP623  PHE694  ASN695  SER759  ASP760  ASP761  ALA762  ILE779  LEU786  VAL792 
 PHE793  MET794  SER795  GLU796  ALA797  LYS798  CYS799  TRP800  GLU811  SER814 

> <Gold.Protein.RotatedAtoms>
  151.9319  135.0253  160.0529 H   0  0  0  0  0  0  0  0  0  0  0  0  # atno 6907 bound_to 6896
  152.2111  133.4907  159.5119 H   0  0  0  0  0  0  0  0  0  0  0  0  # atno 6908 bound_to 6896
  150.6976  134.1382  159.4138 H   0  0  0  0  0  0  0  0  0  0  0  0  # atno 6909 bound_to 6896
  144.9457  139.4878  143.5550 H   0  0  0  0  0  0  0  0  0  0  0  0  # atno 7974 bound_to 7965
  155.0809  140.3210  155.4602 H   0  0  0  0  0  0  0  0  0  0  0  0  # atno 8008 bound_to 7997
  156.2767  140.2095  156.5882 H   0  0  0  0  0  0  0  0  0  0  0  0  # atno 8009 bound_to 7997
  154.6979  140.0510  157.0416 H   0  0  0  0  0  0  0  0  0  0  0  0  # atno 8010 bound_to 7997
  140.7125  143.3359  151.2463 H   0  0  0  0  0  0  0  0  0  0  0  0  # atno 10167 bound_to 10162
  156.5690  130.8680  151.2832 H   0  0  0  0  0  0  0  0  0  0  0  0  # atno 10718 bound_to 10713
  154.1814  135.2799  155.3051 H   0  0  0  0  0  0  0  0  0  0  0  0  # atno 10763 bound_to 10752
  154.6000  135.5532  153.7368 H   0  0  0  0  0  0  0  0  0  0  0  0  # atno 10764 bound_to 10752
  153.0137  135.6389  154.1953 H   0  0  0  0  0  0  0  0  0  0  0  0  # atno 10765 bound_to 10752
  139.9251  134.7689  156.1532 H   0  0  0  0  0  0  0  0  0  0  0  0  # atno 11005 bound_to 11000
  146.3302  139.8507  142.8873 LP  0  0  0  0  0  0  0  0  0  0  0  0  # atno 17320 bound_to 7965
  145.2922  141.0170  143.3657 LP  0  0  0  0  0  0  0  0  0  0  0  0  # atno 17321 bound_to 7965
  139.6854  143.9782  152.2831 LP  0  0  0  0  0  0  0  0  0  0  0  0  # atno 17342 bound_to 10162
  139.9426  144.6672  150.8251 LP  0  0  0  0  0  0  0  0  0  0  0  0  # atno 17343 bound_to 10162
  157.7352  130.9759  150.2070 LP  0  0  0  0  0  0  0  0  0  0  0  0  # atno 17370 bound_to 10713
  156.2731  130.3724  149.8011 LP  0  0  0  0  0  0  0  0  0  0  0  0  # atno 17371 bound_to 10713
  141.0802  133.6757  156.2320 LP  0  0  0  0  0  0  0  0  0  0  0  0  # atno 17394 bound_to 11000
  140.6360  134.5215  157.5565 LP  0  0  0  0  0  0  0  0  0  0  0  0  # atno 17395 bound_to 11000

$$$$
