AV-unprocessed.smi:763|AV-procd|sdf|3634|dock3
  -GOLD-   22720 1 23D 1   1.00000     0.00000
 Structure written by MMmdl.
 44 45  0  0  0  0  0  0  0  0  1 V2000
  145.8700  131.7793  149.6915 C   0  0  0  0  0  0  0  0  0  0  0  0
  145.3918  132.6258  150.7249 O   0  0  0  0  0  0  0  0  0  0  0  0
  146.3903  133.4547  151.3033 C   0  0  0  0  0  0  0  0  0  0  0  0
  147.2173  132.7078  152.3601 C   0  0  0  0  0  0  0  0  0  0  0  0
  148.1607  133.6149  152.9222 O   0  0  0  0  0  0  0  0  0  0  0  0
  148.9779  133.1732  153.9452 C   0  0  0  0  0  0  0  0  0  0  0  0
  149.0512  131.8403  154.1881 N   0  0  0  0  0  0  0  0  0  0  0  0
  149.8534  131.4132  155.1857 C   0  0  0  0  0  0  0  0  0  0  0  0
  150.6185  132.2820  155.9862 C   0  0  0  0  0  0  0  0  0  0  0  0
  150.5412  133.6644  155.7356 C   0  0  0  0  0  0  0  0  0  0  0  0
  149.7048  134.1248  154.6958 C   0  0  0  0  0  0  0  0  0  0  0  0
  149.5823  135.4853  154.3999 N   0  0  0  0  0  0  0  0  0  0  0  0
  150.3610  136.8301  155.1678 S   0  0  0  0  0  0  0  0  0  0  0  0
  149.9512  136.7705  156.5794 O   0  0  0  0  0  0  0  0  0  0  0  0
  151.7777  136.7383  154.7826 O   0  0  0  0  0  0  0  0  0  0  0  0
  149.5645  138.2910  154.3442 C   0  0  2  0  0  0  0  0  0  0  0  0
  150.1325  139.5975  154.9359 C   0  0  0  0  0  0  0  0  0  0  0  0
  149.4824  140.8395  154.3084 C   0  0  0  0  0  0  0  0  0  0  0  0
  147.9545  140.7926  154.4505 C   0  0  0  0  0  0  0  0  0  0  0  0
  147.3848  139.5121  153.8230 C   0  0  0  0  0  0  0  0  0  0  0  0
  148.0191  138.2496  154.4359 C   0  0  1  0  0  0  0  0  0  0  0  0
  147.5043  137.1318  153.7423 O   0  0  0  0  0  0  0  0  0  0  0  0
  145.0364  131.2199  149.2672 H   0  0  0  0  0  0  0  0  0  0  0  0
  146.5964  131.0568  150.0631 H   0  0  0  0  0  0  0  0  0  0  0  0
  146.3289  132.3562  148.8878 H   0  0  0  0  0  0  0  0  0  0  0  0
  147.0304  133.8960  150.5376 H   0  0  0  0  0  0  0  0  0  0  0  0
  145.8706  134.2827  151.7858 H   0  0  0  0  0  0  0  0  0  0  0  0
  146.5547  132.3354  153.1432 H   0  0  0  0  0  0  0  0  0  0  0  0
  147.7270  131.8543  151.9108 H   0  0  0  0  0  0  0  0  0  0  0  0
  149.8862  130.3464  155.3504 H   0  0  0  0  0  0  0  0  0  0  0  0
  151.2487  131.8978  156.7746 H   0  0  0  0  0  0  0  0  0  0  0  0
  151.1178  134.3503  156.3383 H   0  0  0  0  0  0  0  0  0  0  0  0
  148.9477  135.7048  153.6459 H   0  0  0  0  0  0  0  0  0  0  0  0
  149.8546  138.2445  153.2936 H   0  0  0  0  0  0  0  0  0  0  0  0
  149.9691  139.6160  156.0140 H   0  0  0  0  0  0  0  0  0  0  0  0
  151.2119  139.6391  154.7879 H   0  0  0  0  0  0  0  0  0  0  0  0
  149.8720  141.7415  154.7809 H   0  0  0  0  0  0  0  0  0  0  0  0
  149.7524  140.9020  153.2535 H   0  0  0  0  0  0  0  0  0  0  0  0
  147.6815  140.8375  155.5056 H   0  0  0  0  0  0  0  0  0  0  0  0
  147.5102  141.6687  153.9769 H   0  0  0  0  0  0  0  0  0  0  0  0
  146.3024  139.4883  153.9547 H   0  0  0  0  0  0  0  0  0  0  0  0
  147.5637  139.5308  152.7467 H   0  0  0  0  0  0  0  0  0  0  0  0
  147.7121  138.1732  155.4793 H   0  0  0  0  0  0  0  0  0  0  0  0
  148.2025  136.7427  153.2368 H   0  0  0  0  0  0  0  0  0  0  0  0
  1  2  1  0  0  0  0
  1 23  1  0  0  0  0
  1 24  1  0  0  0  0
  1 25  1  0  0  0  0
  2  3  1  0  0  0  0
  3  4  1  0  0  0  0
  3 26  1  0  0  0  0
  3 27  1  0  0  0  0
  4  5  1  0  0  0  0
  4 28  1  0  0  0  0
  4 29  1  0  0  0  0
  5  6  1  0  0  0  0
  6 11  1  0  0  0  0
  6  7  2  0  0  0  0
  7  8  1  0  0  0  0
  8  9  2  0  0  0  0
  8 30  1  0  0  0  0
  9 10  1  0  0  0  0
  9 31  1  0  0  0  0
 10 11  2  0  0  0  0
 10 32  1  0  0  0  0
 11 12  1  0  0  0  0
 12 13  1  0  0  0  0
 12 33  1  0  0  0  0
 13 14  2  0  0  0  0
 13 15  2  0  0  0  0
 13 16  1  0  0  0  0
 16 21  1  0  0  0  0
 16 17  1  0  0  0  0
 16 34  1  0  0  0  0
 17 18  1  0  0  0  0
 17 35  1  0  0  0  0
 17 36  1  0  0  0  0
 18 19  1  0  0  0  0
 18 37  1  0  0  0  0
 18 38  1  0  0  0  0
 19 20  1  0  0  0  0
 19 39  1  0  0  0  0
 19 40  1  0  0  0  0
 20 21  1  0  0  0  0
 20 41  1  0  0  0  0
 20 42  1  0  0  0  0
 21 22  1  0  0  0  0
 21 43  1  0  0  0  0
 22 44  1  0  0  0  0
M  END
> <s_m_source_file>
AV-unprocessed.smi

> <i_m_source_file_index>
763

> <i_lp_mmshare_version>
43012

> <i_f3d_flags>
0

> <s_epik_input>
W0NIM11PW0NIMl1bQ0gyXU9jMW5bY0hdW2NIXVtjSF1jMVtOSF1TKD1PKSg9TylbQ0BASF0yW0NIMl1bQ0gyXVtDSDJdW0NIMl1bQ0BIXTJbT0hd

> <s_epik_cmdline>
J2VwaWtfcHl0aG9uJywgJy1waCcsICc3LjAnLCAnLXRuJywgJzgnLCAnLW1hJywgJzIwMCcsICctbWV0YWxfYmluZGluZycsICctaW1hZScsICc8aW5maWxlLm1hZT4nLCAnLW9tYWUnLCAnPG91dGZpbGUubWFlPic=

> <r_epik_Ionization_Penalty>
0.124685

> <r_epik_Ionization_Penalty_Charging>
0

> <r_epik_Ionization_Penalty_Neutral>
0.124685

> <r_epik_State_Penalty>
0.114154

> <r_epik_Charging_Adjusted_Penalty>
0.114154

> <i_epik_Tot_Q>
0

> <i_epik_Tot_abs_Q>
0

> <r_epik_Metal_State_Penalty>
0.443785

> <b_epik_Metal_Only>
0

> <s_lp_Force_Field>
OPLS_2005

> <r_lp_Energy>
9.05246

> <b_lp_Chiralities_Consistent>
1

> <s_lp_Variant>
AV-unprocessed.smi:763-1

> <Gold.Version>
5.8.1

> <Gold.Id.Protein>
6NUR|6NUR_protein|mol2

> <Gold.PLP.Fitness>
42.6675

> <Gold.PLP.PLP>
-34.9828

> <Gold.PLP.part.hbond>
-3.0000

> <Gold.PLP.part.metal>
0.0000

> <Gold.PLP.part.buried>
-3.9932

> <Gold.PLP.part.nonpolar>
-29.9279

> <Gold.PLP.part.repulsive>
2.2264

> <Gold.PLP.ligand.clash>
0.0000

> <Gold.PLP.ligand.torsion>
1.0435

> <Gold.PLP.Chemscore.Hbond>
2.8000

> <Gold.PLP.Chemscore.CHOScore>
0.0000

> <Gold.PLP.Chemscore.Metal>
0.0000

> <Gold.Chemscore.Hbonds>
donor molecule, donor type, donor heavy atom, donor atom, acceptor molecule, acceptor atom, score
      L1  H    12    33       P1  7948  0.80
      L1  H    22    44       P1  7948  1.00
      P1  H 10752 10765       L1    15  1.00

> <Gold.PLP.Chemscore.Internal.Correction>
1.3716

> <Gold.Rescore>
     Score         DG    S(hbond)    S(metal)    S(lipo)     H(rot)  DE(clash)    DE(int)     intcor
     14.92     -17.52       2.67        0.00      79.37       2.41       0.14       2.46       ----

> <Gold.Chemscore.Fitness>
14.9239

> <Gold.Chemscore.DG>
-17.5230

> <Gold.Chemscore.ZeroCoef>
-5.4800

> <Gold.Chemscore.Hbond>
2.6690

> <Gold.Chemscore.Metal>
0.0000

> <Gold.Chemscore.Lipo>
79.3683

> <Gold.Chemscore.Internal_Hbond>
0.0000

> <Gold.Chemscore.DEClash>
0.1372

> <Gold.Chemscore.DEInternal>
2.4620

> <Gold.Chemscore.Rot>
2.4052

> <Gold.Chemscore.Internal.Correction>
   9.000000E+99

> <Gold.Chemscore.Hbonds>
donor molecule, donor type, donor heavy atom, donor atom, acceptor molecule, acceptor atom, score
      L1  H    12    33       P1  7948  0.72
      L1  H    22    44       P1  7948  0.98
      P1  H 10752 10765       L1    15  0.99

> <Gold.Chemscore.Hbond.Weighted>
-8.9143

> <Gold.Chemscore.Metal.Weighted>
-0.0000

> <Gold.Chemscore.Lipo.Weighted>
-9.2861

> <Gold.Chemscore.Internal_Hbond.Weighted>
0.0000

> <Gold.Chemscore.DEClash.Weighted>
0.1372

> <Gold.Chemscore.DEInternal.Weighted>
2.4620

> <Gold.Chemscore.Rot.Weighted>
6.1574

> <Gold.Chemscore.Internal.Correction.Weighted>
   9.000000E+99

> <Gold.Protein.RotatedTorsions>
[ 6907 6896 6895 6894 ] final   32.74 input  -60.11 | X-H torsion
[ 7974 7965 7964 7962 ] final   79.90 input  175.53 | X-H torsion
[ 8008 7997 7996 7995 ] final  124.21 input   59.86 | X-H torsion
[ 10167 10162 10161 10158 ] final    9.35 input  -65.29 | X-H torsion
[ 10718 10713 10712 10709 ] final  119.09 input   66.30 | X-H torsion
[ 10763 10752 10751 10750 ] final  167.01 input  -60.55 | X-H torsion
[ 11005 11000 10999 10996 ] final  163.45 input  -57.11 | X-H torsion

> <Gold.Protein.ActiveResidues>
 VAL166  LYS551  ARG553  GLY616  TRP617  ASP618  TYR619  PRO620  LYS621  CYS622 
 ASP623  PHE694  ASN695  SER759  ASP760  ASP761  ALA762  ILE779  LEU786  VAL792 
 PHE793  MET794  SER795  GLU796  ALA797  LYS798  CYS799  TRP800  GLU811  SER814 

> <Gold.Protein.RotatedAtoms>
  152.0788  134.9485  160.0573 H   0  0  0  0  0  0  0  0  0  0  0  0  # atno 6907 bound_to 6896
  152.0782  133.4135  159.4497 H   0  0  0  0  0  0  0  0  0  0  0  0  # atno 6908 bound_to 6896
  150.6836  134.2933  159.4719 H   0  0  0  0  0  0  0  0  0  0  0  0  # atno 6909 bound_to 6896
  145.6582  139.2464  143.1938 H   0  0  0  0  0  0  0  0  0  0  0  0  # atno 7974 bound_to 7965
  156.2793  140.2745  156.1752 H   0  0  0  0  0  0  0  0  0  0  0  0  # atno 8008 bound_to 7997
  155.0614  140.0386  157.2595 H   0  0  0  0  0  0  0  0  0  0  0  0  # atno 8009 bound_to 7997
  154.7114  140.2669  155.6631 H   0  0  0  0  0  0  0  0  0  0  0  0  # atno 8010 bound_to 7997
  140.6260  143.8099  150.7234 H   0  0  0  0  0  0  0  0  0  0  0  0  # atno 10167 bound_to 10162
  157.5985  131.1054  150.7848 H   0  0  0  0  0  0  0  0  0  0  0  0  # atno 10718 bound_to 10713
  154.3475  135.2753  155.2390 H   0  0  0  0  0  0  0  0  0  0  0  0  # atno 10763 bound_to 10752
  154.4634  135.5901  153.6275 H   0  0  0  0  0  0  0  0  0  0  0  0  # atno 10764 bound_to 10752
  152.9852  135.6070  154.3682 H   0  0  0  0  0  0  0  0  0  0  0  0  # atno 10765 bound_to 10752
  140.2359  134.8088  157.3364 H   0  0  0  0  0  0  0  0  0  0  0  0  # atno 11005 bound_to 11000
  146.1147  140.7384  142.9486 LP  0  0  0  0  0  0  0  0  0  0  0  0  # atno 17320 bound_to 7965
  144.7098  140.3996  143.7089 LP  0  0  0  0  0  0  0  0  0  0  0  0  # atno 17321 bound_to 7965
  140.1700  143.4202  152.2007 LP  0  0  0  0  0  0  0  0  0  0  0  0  # atno 17342 bound_to 10162
  139.5481  144.7315  151.4521 LP  0  0  0  0  0  0  0  0  0  0  0  0  # atno 17343 bound_to 10162
  156.8252  130.4997  149.5338 LP  0  0  0  0  0  0  0  0  0  0  0  0  # atno 17370 bound_to 10713
  156.1053  130.6000  150.9961 LP  0  0  0  0  0  0  0  0  0  0  0  0  # atno 17371 bound_to 10713
  140.1702  134.4618  155.7836 LP  0  0  0  0  0  0  0  0  0  0  0  0  # atno 17394 bound_to 11000
  141.2214  133.6938  156.7694 LP  0  0  0  0  0  0  0  0  0  0  0  0  # atno 17395 bound_to 11000

$$$$
