AV-unprocessed.smi:1832|AV-procd|sdf|7464|dock5
  -GOLD-   22720 9153D 1   1.00000     0.00000
 Structure written by MMmdl.
 35 35  0  0  0  0  0  0  0  0  1 V2000
  152.1871  144.4774  158.8831 C   0  0  0  0  0  0  0  0  0  0  0  0
  150.7897  144.2312  158.3047 C   0  0  0  0  0  0  0  0  0  0  0  0
  150.6017  142.7841  157.8213 C   0  0  0  0  0  0  0  0  0  0  0  0
  149.8582  142.7266  156.5683 N   0  0  0  0  0  0  0  0  0  0  0  0
  149.7413  141.6410  155.7887 C   0  0  0  0  0  0  0  0  0  0  0  0
  150.2755  140.5622  156.0509 O   0  0  0  0  0  0  0  0  0  0  0  0
  148.9082  141.8188  154.5111 C   0  0  0  0  0  0  0  0  0  0  0  0
  147.7353  140.9299  154.4514 N   0  0  0  0  0  0  0  0  0  0  0  0
  147.6487  140.0585  153.3472 C   0  0  0  0  0  0  0  0  0  0  0  0
  146.6221  139.1934  153.1906 C   0  0  0  0  0  0  0  0  0  0  0  0
  146.5083  138.2670  152.0603 C   0  0  0  0  0  0  0  0  0  0  0  0
  147.1416  138.3770  151.0096 O   0  0  0  0  0  0  0  0  0  0  0  0
  145.6383  137.2609  152.2555 N   0  0  0  0  0  0  0  0  0  0  0  0
  145.3472  136.2208  151.2806 C   0  0  0  0  0  0  0  0  0  0  0  0
  145.5921  139.1936  154.2117 C   0  0  0  0  0  0  0  0  0  0  0  0
  145.6722  140.0203  155.2726 C   0  0  0  0  0  0  0  0  0  0  0  0
  146.7917  140.9507  155.4411 C   0  0  0  0  0  0  0  0  0  0  0  0
  146.8758  141.7031  156.4122 O   0  0  0  0  0  0  0  0  0  0  0  0
  152.2927  145.5091  159.2189 H   0  0  0  0  0  0  0  0  0  0  0  0
  152.9597  144.2895  158.1372 H   0  0  0  0  0  0  0  0  0  0  0  0
  152.3797  143.8281  159.7377 H   0  0  0  0  0  0  0  0  0  0  0  0
  150.0412  144.4652  159.0625 H   0  0  0  0  0  0  0  0  0  0  0  0
  150.6200  144.9234  157.4792 H   0  0  0  0  0  0  0  0  0  0  0  0
  151.5677  142.2890  157.7077 H   0  0  0  0  0  0  0  0  0  0  0  0
  150.0475  142.2135  158.5671 H   0  0  0  0  0  0  0  0  0  0  0  0
  149.3921  143.5735  156.2759 H   0  0  0  0  0  0  0  0  0  0  0  0
  148.5965  142.8617  154.4258 H   0  0  0  0  0  0  0  0  0  0  0  0
  149.5604  141.6481  153.6536 H   0  0  0  0  0  0  0  0  0  0  0  0
  148.4778  140.1457  152.6599 H   0  0  0  0  0  0  0  0  0  0  0  0
  145.1452  137.2195  153.1354 H   0  0  0  0  0  0  0  0  0  0  0  0
  144.6003  135.5354  151.6812 H   0  0  0  0  0  0  0  0  0  0  0  0
  146.2446  135.6477  151.0443 H   0  0  0  0  0  0  0  0  0  0  0  0
  144.9547  136.6517  150.3586 H   0  0  0  0  0  0  0  0  0  0  0  0
  144.7454  138.5267  154.1344 H   0  0  0  0  0  0  0  0  0  0  0  0
  144.8918  139.9980  156.0190 H   0  0  0  0  0  0  0  0  0  0  0  0
  1  2  1  0  0  0  0
  1 19  1  0  0  0  0
  1 20  1  0  0  0  0
  1 21  1  0  0  0  0
  2  3  1  0  0  0  0
  2 22  1  0  0  0  0
  2 23  1  0  0  0  0
  3  4  1  0  0  0  0
  3 24  1  0  0  0  0
  3 25  1  0  0  0  0
  4  5  1  0  0  0  0
  4 26  1  0  0  0  0
  5  6  2  0  0  0  0
  5  7  1  0  0  0  0
  7  8  1  0  0  0  0
  7 27  1  0  0  0  0
  7 28  1  0  0  0  0
  8 17  1  0  0  0  0
  8  9  1  0  0  0  0
  9 10  2  0  0  0  0
  9 29  1  0  0  0  0
 10 11  1  0  0  0  0
 10 15  1  0  0  0  0
 11 12  2  0  0  0  0
 11 13  1  0  0  0  0
 13 14  1  0  0  0  0
 13 30  1  0  0  0  0
 14 31  1  0  0  0  0
 14 32  1  0  0  0  0
 14 33  1  0  0  0  0
 15 16  2  0  0  0  0
 15 34  1  0  0  0  0
 16 17  1  0  0  0  0
 16 35  1  0  0  0  0
 17 18  2  0  0  0  0
M  END
> <s_m_source_file>
AV-unprocessed.smi

> <i_m_source_file_index>
1832

> <i_lp_mmshare_version>
43012

> <i_f3d_flags>
0

> <s_epik_input>
W0NIM11bQ0gyXVtDSDJdW05IXUMoPU8pW0NIMl1uMVtjSF1jKEMoPU8pW05IXVtDSDNdKVtjSF1bY0hdYzE9Tw==

> <s_epik_cmdline>
J2VwaWtfcHl0aG9uJywgJy1waCcsICc3LjAnLCAnLXRuJywgJzgnLCAnLW1hJywgJzIwMCcsICctbWV0YWxfYmluZGluZycsICctaW1hZScsICc8aW5maWxlLm1hZT4nLCAnLW9tYWUnLCAnPG91dGZpbGUubWFlPic=

> <r_lp_tautomer_probability>
1

> <r_epik_Ionization_Penalty>
3.67838e-07

> <r_epik_Ionization_Penalty_Charging>
4.72549e-08

> <r_epik_Ionization_Penalty_Neutral>
3.20583e-07

> <r_epik_State_Penalty>
-0

> <r_epik_Charging_Adjusted_Penalty>
4.72549e-08

> <i_epik_Tot_Q>
0

> <i_epik_Tot_abs_Q>
0

> <r_epik_Metal_State_Penalty>
-0

> <b_epik_Metal_Only>
0

> <s_lp_Force_Field>
OPLS_2005

> <r_lp_Energy>
14.7098

> <b_lp_Chiralities_Consistent>
1

> <s_lp_Variant>
AV-unprocessed.smi:1832-1

> <Gold.Version>
5.8.1

> <Gold.Id.Protein>
6NUR|6NUR_protein|mol2

> <Gold.PLP.Fitness>
41.5303

> <Gold.PLP.PLP>
-31.1999

> <Gold.PLP.part.hbond>
-3.7395

> <Gold.PLP.part.metal>
0.0000

> <Gold.PLP.part.buried>
-1.0452

> <Gold.PLP.part.nonpolar>
-27.2817

> <Gold.PLP.part.repulsive>
0.5554

> <Gold.PLP.ligand.clash>
0.0000

> <Gold.PLP.ligand.torsion>
0.4855

> <Gold.PLP.Chemscore.Hbond>
2.8880

> <Gold.PLP.Chemscore.CHOScore>
0.8685

> <Gold.PLP.Chemscore.Metal>
0.0000

> <Gold.Chemscore.Hbonds>
donor molecule, donor type, donor heavy atom, donor atom, acceptor molecule, acceptor atom, score
      L1  H     4    26       P1  8028  0.67
      P1  H  7954  7966       L1    12  1.00
      L1  C     9    29       P1  7957  0.61

> <Gold.PLP.Chemscore.Internal.Correction>
0.0320

> <Gold.Rescore>
     Score         DG    S(hbond)    S(metal)    S(lipo)     H(rot)  DE(clash)    DE(int)     intcor
     11.35     -15.66       2.20        0.00      63.18       1.78       1.41       2.89       ----

> <Gold.Chemscore.Fitness>
11.3536

> <Gold.Chemscore.DG>
-15.6608

> <Gold.Chemscore.ZeroCoef>
-5.4800

> <Gold.Chemscore.Hbond>
2.1981

> <Gold.Chemscore.Metal>
0.0000

> <Gold.Chemscore.Lipo>
63.1803

> <Gold.Chemscore.Internal_Hbond>
0.0000

> <Gold.Chemscore.DEClash>
1.4130

> <Gold.Chemscore.DEInternal>
2.8942

> <Gold.Chemscore.Rot>
1.7785

> <Gold.Chemscore.Internal.Correction>
   9.000000E+99

> <Gold.Chemscore.Hbonds>
donor molecule, donor type, donor heavy atom, donor atom, acceptor molecule, acceptor atom, score
      L1  H     4    26       P1  8028  0.67
      P1  H  7954  7966       L1    12  0.97

> <Gold.Chemscore.Hbond.Weighted>
-7.3417

> <Gold.Chemscore.Metal.Weighted>
-0.0000

> <Gold.Chemscore.Lipo.Weighted>
-7.3921

> <Gold.Chemscore.Internal_Hbond.Weighted>
0.0000

> <Gold.Chemscore.DEClash.Weighted>
1.4130

> <Gold.Chemscore.DEInternal.Weighted>
2.8942

> <Gold.Chemscore.Rot.Weighted>
4.5530

> <Gold.Chemscore.Internal.Correction.Weighted>
   9.000000E+99

> <Gold.Protein.RotatedTorsions>
[ 6907 6896 6895 6894 ] final -171.12 input  -60.11 | X-H torsion
[ 7974 7965 7964 7962 ] final  114.23 input  175.53 | X-H torsion
[ 8008 7997 7996 7995 ] final  124.35 input   59.86 | X-H torsion
[ 10167 10162 10161 10158 ] final   47.77 input  -65.29 | X-H torsion
[ 10718 10713 10712 10709 ] final -157.74 input   66.30 | X-H torsion
[ 10763 10752 10751 10750 ] final  171.15 input  -60.55 | X-H torsion
[ 11005 11000 10999 10996 ] final  -80.62 input  -57.11 | X-H torsion

> <Gold.Protein.ActiveResidues>
 VAL166  LYS551  ARG553  GLY616  TRP617  ASP618  TYR619  PRO620  LYS621  CYS622 
 ASP623  PHE694  ASN695  SER759  ASP760  ASP761  ALA762  ILE779  LEU786  VAL792 
 PHE793  MET794  SER795  GLU796  ALA797  LYS798  CYS799  TRP800  GLU811  SER814 

> <Gold.Protein.RotatedAtoms>
  151.5188  133.3470  159.2897 H   0  0  0  0  0  0  0  0  0  0  0  0  # atno 6907 bound_to 6896
  150.8665  134.8032  159.7134 H   0  0  0  0  0  0  0  0  0  0  0  0  # atno 6908 bound_to 6896
  152.4668  134.5065  159.9792 H   0  0  0  0  0  0  0  0  0  0  0  0  # atno 6909 bound_to 6896
  145.2070  139.2924  143.4288 H   0  0  0  0  0  0  0  0  0  0  0  0  # atno 7974 bound_to 7965
  156.2798  140.2742  156.1774 H   0  0  0  0  0  0  0  0  0  0  0  0  # atno 8008 bound_to 7997
  155.0592  140.0386  157.2588 H   0  0  0  0  0  0  0  0  0  0  0  0  # atno 8009 bound_to 7997
  154.7131  140.2672  155.6616 H   0  0  0  0  0  0  0  0  0  0  0  0  # atno 8010 bound_to 7997
  140.3002  144.2942  150.6220 H   0  0  0  0  0  0  0  0  0  0  0  0  # atno 10167 bound_to 10162
  156.5445  130.8578  151.2760 H   0  0  0  0  0  0  0  0  0  0  0  0  # atno 10718 bound_to 10713
  154.4078  135.2756  155.2056 H   0  0  0  0  0  0  0  0  0  0  0  0  # atno 10763 bound_to 10752
  154.4054  135.6034  153.5925 H   0  0  0  0  0  0  0  0  0  0  0  0  # atno 10764 bound_to 10752
  152.9831  135.5936  154.4355 H   0  0  0  0  0  0  0  0  0  0  0  0  # atno 10765 bound_to 10752
  141.1668  133.7158  156.8300 H   0  0  0  0  0  0  0  0  0  0  0  0  # atno 11005 bound_to 11000
  146.3406  140.2333  142.8594 LP  0  0  0  0  0  0  0  0  0  0  0  0  # atno 17320 bound_to 7965
  144.9892  140.8531  143.5349 LP  0  0  0  0  0  0  0  0  0  0  0  0  # atno 17321 bound_to 7965
  140.5657  143.2186  151.7687 LP  0  0  0  0  0  0  0  0  0  0  0  0  # atno 17342 bound_to 10162
  139.4917  144.4287  151.9897 LP  0  0  0  0  0  0  0  0  0  0  0  0  # atno 17343 bound_to 10162
  157.7399  130.9840  150.2344 LP  0  0  0  0  0  0  0  0  0  0  0  0  # atno 17370 bound_to 10713
  156.2941  130.3749  149.7813 LP  0  0  0  0  0  0  0  0  0  0  0  0  # atno 17371 bound_to 10713
  140.2058  134.8864  157.3219 LP  0  0  0  0  0  0  0  0  0  0  0  0  # atno 17394 bound_to 11000
  140.2139  134.4105  155.7599 LP  0  0  0  0  0  0  0  0  0  0  0  0  # atno 17395 bound_to 11000

$$$$
