AV-unprocessed.smi:158|AV-procd|sdf|1334|dock6
  -GOLD-   2262019 33D 1   1.00000     0.00000
 Structure written by MMmdl.
 31 33  0  0  0  0  0  0  0  0  1 V2000
  150.2012  144.9453  158.8465 N   0  0  0  0  0  0  0  0  0  0  0  0
  150.7013  143.7070  158.7312 C   0  0  0  0  0  0  0  0  0  0  0  0
  151.8742  143.4273  159.3451 N   0  0  0  0  0  0  0  0  0  0  0  0
  152.4093  142.2047  159.2504 C   0  0  0  0  0  0  0  0  0  0  0  0
  153.9045  141.9522  160.0710 Cl  0  0  0  0  0  0  0  0  0  0  0  0
  151.9144  141.1534  158.5905 N   0  0  0  0  0  0  0  0  0  0  0  0
  150.7271  141.4239  157.9738 C   0  0  0  0  0  0  0  0  0  0  0  0
  150.0605  142.6795  157.9960 C   0  0  0  0  0  0  0  0  0  0  0  0
  148.8872  142.6084  157.2597 N   0  0  0  0  0  0  0  0  0  0  0  0
  148.8640  141.3761  156.8296 C   0  0  0  0  0  0  0  0  0  0  0  0
  149.9258  140.5864  157.2169 N   0  0  0  0  0  0  0  0  0  0  0  0
  150.1396  139.1410  156.8614 C   0  0  1  0  0  0  0  0  0  0  0  0
  148.9475  138.6076  156.3601 O   0  0  0  0  0  0  0  0  0  0  0  0
  149.1318  138.1332  155.0246 C   0  0  1  0  0  0  0  0  0  0  0  0
  147.8402  138.2448  154.1941 C   0  0  0  0  0  0  0  0  0  0  0  0
  148.1521  138.4665  152.8348 O   0  0  0  0  0  0  0  0  0  0  0  0
  150.3718  138.8670  154.4917 C   0  0  1  0  0  0  0  0  0  0  0  0
  150.0487  140.1352  153.9512 O   0  0  0  0  0  0  0  0  0  0  0  0
  151.1982  138.9800  155.7592 C   0  0  1  0  0  0  0  0  0  0  0  0
  152.1031  139.9620  155.7446 F   0  0  0  0  0  0  0  0  0  0  0  0
  150.4201  138.6739  157.8060 H   0  0  0  0  0  0  0  0  0  0  0  0
  149.3862  137.0766  155.1250 H   0  0  0  0  0  0  0  0  0  0  0  0
  150.8854  138.2883  153.7232 H   0  0  0  0  0  0  0  0  0  0  0  0
  151.7320  138.0461  155.9384 H   0  0  0  0  0  0  0  0  0  0  0  0
  149.3276  145.1782  158.3961 H   0  0  0  0  0  0  0  0  0  0  0  0
  150.6969  145.6417  159.3839 H   0  0  0  0  0  0  0  0  0  0  0  0
  148.0585  141.0004  156.2154 H   0  0  0  0  0  0  0  0  0  0  0  0
  147.2736  137.3159  154.2658 H   0  0  0  0  0  0  0  0  0  0  0  0
  147.1887  139.0402  154.5551 H   0  0  0  0  0  0  0  0  0  0  0  0
  148.5610  137.6871  152.4902 H   0  0  0  0  0  0  0  0  0  0  0  0
  150.2155  140.1154  153.0212 H   0  0  0  0  0  0  0  0  0  0  0  0
  1  2  1  0  0  0  0
  1 25  1  0  0  0  0
  1 26  1  0  0  0  0
  2  8  1  0  0  0  0
  2  3  2  0  0  0  0
  3  4  1  0  0  0  0
  4  5  1  0  0  0  0
  4  6  2  0  0  0  0
  6  7  1  0  0  0  0
  7 11  1  0  0  0  0
  7  8  2  0  0  0  0
  8  9  1  0  0  0  0
  9 10  2  0  0  0  0
 10 11  1  0  0  0  0
 10 27  1  0  0  0  0
 11 12  1  0  0  0  0
 12 21  1  0  0  0  0
 12 19  1  0  0  0  0
 12 13  1  0  0  0  0
 13 14  1  0  0  0  0
 14 22  1  0  0  0  0
 14 15  1  0  0  0  0
 14 17  1  0  0  0  0
 15 16  1  0  0  0  0
 15 28  1  0  0  0  0
 15 29  1  0  0  0  0
 16 30  1  0  0  0  0
 17 23  1  0  0  0  0
 17 18  1  0  0  0  0
 17 19  1  0  0  0  0
 18 31  1  0  0  0  0
 19 24  1  0  0  0  0
 19 20  1  0  0  0  0
M  END
> <s_m_source_file>
AV-unprocessed.smi

> <i_m_source_file_index>
158

> <i_lp_mmshare_version>
43012

> <i_f3d_flags>
0

> <s_epik_input>
Q2xjKG4xKW5jKFtOSDJdKWMoYzEyKW5bY0hdbjJbQ0BASF0zT1tDQEhdKFtDSDJdW09IXSlbQ0BASF0oW09IXSlbQ0BASF0zRg==

> <s_epik_cmdline>
J2VwaWtfcHl0aG9uJywgJy1waCcsICc3LjAnLCAnLXRuJywgJzgnLCAnLW1hJywgJzIwMCcsICctbWV0YWxfYmluZGluZycsICctaW1hZScsICc8aW5maWxlLm1hZT4nLCAnLW9tYWUnLCAnPG91dGZpbGUubWFlPic=

> <r_lp_tautomer_probability>
1

> <r_epik_Ionization_Penalty>
6.51543e-05

> <r_epik_Ionization_Penalty_Charging>
0

> <r_epik_Ionization_Penalty_Neutral>
6.51543e-05

> <r_epik_State_Penalty>
-0

> <r_epik_Charging_Adjusted_Penalty>
0

> <i_epik_Tot_Q>
0

> <i_epik_Tot_abs_Q>
0

> <r_epik_Metal_State_Penalty>
-0

> <b_epik_Metal_Only>
0

> <s_epik_Chemistry_Notes>
This compound contains an acetal/aminal-like group ( X-CH(R)-Y where X, Y are N, S, or O) that may be acid/base labile, releasing an aldehyde.

> <s_lp_Force_Field>
OPLS_2005

> <r_lp_Energy>
41.2986

> <b_lp_Chiralities_Consistent>
1

> <s_lp_Variant>
AV-unprocessed.smi:158-12

> <Gold.Version>
5.8.1

> <Gold.Id.Protein>
6NUR|6NUR_protein|mol2

> <Gold.PLP.Fitness>
36.7650

> <Gold.PLP.PLP>
-28.5852

> <Gold.PLP.part.hbond>
-4.9145

> <Gold.PLP.part.metal>
0.0000

> <Gold.PLP.part.buried>
-6.0293

> <Gold.PLP.part.nonpolar>
-19.9271

> <Gold.PLP.part.repulsive>
2.3589

> <Gold.PLP.ligand.clash>
0.0015

> <Gold.PLP.ligand.torsion>
0.8042

> <Gold.PLP.Chemscore.Hbond>
3.0000

> <Gold.PLP.Chemscore.CHOScore>
0.0000

> <Gold.PLP.Chemscore.Metal>
0.0000

> <Gold.Chemscore.Hbonds>
donor molecule, donor type, donor heavy atom, donor atom, acceptor molecule, acceptor atom, score
      L1  H     1    25       P1  8029  1.00
      L1  H    16    30       P1  7948  1.00
      L1  H    18    31       P1  7957  1.00

> <Gold.PLP.Chemscore.Internal.Correction>
0.7897

> <Gold.Rescore>
     Score         DG    S(hbond)    S(metal)    S(lipo)     H(rot)  DE(clash)    DE(int)     intcor
      8.98     -11.44       2.89        0.00      36.87       3.12       1.36       1.10       ----

> <Gold.Chemscore.Fitness>
8.9778

> <Gold.Chemscore.DG>
-11.4440

> <Gold.Chemscore.ZeroCoef>
-5.4800

> <Gold.Chemscore.Hbond>
2.8879

> <Gold.Chemscore.Metal>
0.0000

> <Gold.Chemscore.Lipo>
36.8676

> <Gold.Chemscore.Internal_Hbond>
0.0000

> <Gold.Chemscore.DEClash>
1.3625

> <Gold.Chemscore.DEInternal>
1.1037

> <Gold.Chemscore.Rot>
3.1230

> <Gold.Chemscore.Internal.Correction>
   9.000000E+99

> <Gold.Chemscore.Hbonds>
donor molecule, donor type, donor heavy atom, donor atom, acceptor molecule, acceptor atom, score
      L1  H     1    25       P1  8029  0.73
      L1  H    16    30       P1  7948  0.99
      L1  H    18    31       P1  7957  0.96

> <Gold.Chemscore.Hbond.Weighted>
-9.6454

> <Gold.Chemscore.Metal.Weighted>
-0.0000

> <Gold.Chemscore.Lipo.Weighted>
-4.3135

> <Gold.Chemscore.Internal_Hbond.Weighted>
0.0000

> <Gold.Chemscore.DEClash.Weighted>
1.3625

> <Gold.Chemscore.DEInternal.Weighted>
1.1037

> <Gold.Chemscore.Rot.Weighted>
7.9950

> <Gold.Chemscore.Internal.Correction.Weighted>
   9.000000E+99

> <Gold.Protein.RotatedTorsions>
[ 6907 6896 6895 6894 ] final   57.73 input  -60.11 | X-H torsion
[ 7974 7965 7964 7962 ] final  117.96 input  175.53 | X-H torsion
[ 8008 7997 7996 7995 ] final   93.43 input   59.86 | X-H torsion
[ 10167 10162 10161 10158 ] final  -96.62 input  -65.29 | X-H torsion
[ 10718 10713 10712 10709 ] final  -67.39 input   66.30 | X-H torsion
[ 10763 10752 10751 10750 ] final -109.45 input  -60.55 | X-H torsion
[ 11005 11000 10999 10996 ] final  171.56 input  -57.11 | X-H torsion

> <Gold.Protein.ActiveResidues>
 VAL166  LYS551  ARG553  GLY616  TRP617  ASP618  TYR619  PRO620  LYS621  CYS622 
 ASP623  PHE694  ASN695  SER759  ASP760  ASP761  ALA762  ILE779  LEU786  VAL792 
 PHE793  MET794  SER795  GLU796  ALA797  LYS798  CYS799  TRP800  GLU811  SER814 

> <Gold.Protein.RotatedAtoms>
  152.3759  134.6664  160.0159 H   0  0  0  0  0  0  0  0  0  0  0  0  # atno 6907 bound_to 6896
  151.6943  133.3305  159.3258 H   0  0  0  0  0  0  0  0  0  0  0  0  # atno 6908 bound_to 6896
  150.7709  134.6607  159.6383 H   0  0  0  0  0  0  0  0  0  0  0  0  # atno 6909 bound_to 6896
  145.1610  139.3155  143.4517 H   0  0  0  0  0  0  0  0  0  0  0  0  # atno 7974 bound_to 7965
  156.0466  140.3313  155.7304 H   0  0  0  0  0  0  0  0  0  0  0  0  # atno 8008 bound_to 7997
  155.5664  140.0624  157.2834 H   0  0  0  0  0  0  0  0  0  0  0  0  # atno 8009 bound_to 7997
  154.4417  140.1868  156.0823 H   0  0  0  0  0  0  0  0  0  0  0  0  # atno 8010 bound_to 7997
  140.2919  143.3216  152.0337 H   0  0  0  0  0  0  0  0  0  0  0  0  # atno 10167 bound_to 10162
  156.0560  130.4277  150.1847 H   0  0  0  0  0  0  0  0  0  0  0  0  # atno 10718 bound_to 10713
  154.8193  135.4600  154.0734 H   0  0  0  0  0  0  0  0  0  0  0  0  # atno 10763 bound_to 10752
  153.2100  135.6880  153.8132 H   0  0  0  0  0  0  0  0  0  0  0  0  # atno 10764 bound_to 10752
  153.7586  135.3287  155.3310 H   0  0  0  0  0  0  0  0  0  0  0  0  # atno 10765 bound_to 10752
  140.3203  134.7443  157.4059 H   0  0  0  0  0  0  0  0  0  0  0  0  # atno 11005 bound_to 11000
  146.3482  140.1720  142.8589 LP  0  0  0  0  0  0  0  0  0  0  0  0  # atno 17320 bound_to 7965
  145.0331  140.8887  143.5097 LP  0  0  0  0  0  0  0  0  0  0  0  0  # atno 17321 bound_to 7965
  139.4936  144.6519  151.6658 LP  0  0  0  0  0  0  0  0  0  0  0  0  # atno 17342 bound_to 10162
  140.5725  144.0085  150.6224 LP  0  0  0  0  0  0  0  0  0  0  0  0  # atno 17343 bound_to 10162
  156.9923  130.9897  151.3411 LP  0  0  0  0  0  0  0  0  0  0  0  0  # atno 17370 bound_to 10713
  157.5531  130.8195  149.8169 LP  0  0  0  0  0  0  0  0  0  0  0  0  # atno 17371 bound_to 10713
  140.0947  134.5553  155.8410 LP  0  0  0  0  0  0  0  0  0  0  0  0  # atno 17394 bound_to 11000
  141.2088  133.6677  156.6395 LP  0  0  0  0  0  0  0  0  0  0  0  0  # atno 17395 bound_to 11000

$$$$
