AV-unprocessed.smi:1966|AV-procd|sdf|7951|dock2
  -GOLD-   2272010123D 1   1.00000     0.00000
 Structure written by MMmdl.
 53 54  0  0  0  0  0  0  0  0  1 V2000
  149.1088  134.0179  153.5503 C   0  0  0  0  0  0  0  0  0  0  0  0
  147.7716  133.2881  153.6127 C   0  0  0  0  0  0  0  0  0  0  0  0
  147.5818  132.4148  154.4588 O   0  0  0  0  0  0  0  0  0  0  0  0
  146.8522  133.6570  152.7066 N   0  0  0  0  0  0  0  0  0  0  0  0
  145.5014  133.1018  152.5903 C   0  0  1  0  0  0  0  0  0  0  0  0
  144.4985  134.2594  152.4093 C   0  0  0  0  0  0  0  0  0  0  0  0
  144.8475  135.2878  151.8287 O   0  0  0  0  0  0  0  0  0  0  0  0
  143.2703  134.0444  152.9167 N   0  0  0  0  0  0  0  0  0  0  0  0
  142.1300  134.8936  152.9079 C   0  0  0  0  0  0  0  0  0  0  0  0
  142.1102  136.2154  152.4044 C   0  0  0  0  0  0  0  0  0  0  0  0
  140.9050  136.9430  152.4442 C   0  0  0  0  0  0  0  0  0  0  0  0
  139.7438  136.3343  152.9760 C   0  0  0  0  0  0  0  0  0  0  0  0
  138.5262  137.0478  153.0262 N   0  0  0  0  0  0  0  0  0  0  0  0
  137.3691  136.3936  153.6308 C   0  0  0  0  0  0  0  0  0  0  0  0
  136.2607  137.4218  153.9181 C   0  0  2  0  0  0  0  0  0  0  0  0
  134.9804  136.7533  154.4298 C   0  0  0  0  0  0  0  0  0  0  0  0
  135.9417  138.1296  152.7207 O   0  0  0  0  0  0  0  0  0  0  0  0
  137.0442  138.8078  152.1142 C   0  0  1  0  0  0  0  0  0  0  0  0
  137.4858  140.0406  152.9229 C   0  0  0  0  0  0  0  0  0  0  0  0
  138.1911  137.8174  151.8312 C   0  0  0  0  0  0  0  0  0  0  0  0
  139.7656  135.0653  153.4518 N   0  0  0  0  0  0  0  0  0  0  0  0
  140.9222  134.3719  153.4120 C   0  0  0  0  0  0  0  0  0  0  0  0
  145.4509  132.1543  151.3551 C   0  0  0  0  0  0  0  0  0  0  0  0
  146.0841  130.7734  151.6254 C   0  0  0  0  0  0  0  0  0  0  0  0
  146.1270  132.7828  150.1204 C   0  0  0  0  0  0  0  0  0  0  0  0
  148.9611  135.0940  153.6466 H   0  0  0  0  0  0  0  0  0  0  0  0
  149.6056  133.8205  152.6002 H   0  0  0  0  0  0  0  0  0  0  0  0
  149.7674  133.6908  154.3555 H   0  0  0  0  0  0  0  0  0  0  0  0
  147.0974  134.3892  152.0563 H   0  0  0  0  0  0  0  0  0  0  0  0
  145.2598  132.5347  153.4920 H   0  0  0  0  0  0  0  0  0  0  0  0
  143.1516  133.1738  153.4143 H   0  0  0  0  0  0  0  0  0  0  0  0
  142.9830  136.6868  151.9820 H   0  0  0  0  0  0  0  0  0  0  0  0
  140.8898  137.9589  152.0786 H   0  0  0  0  0  0  0  0  0  0  0  0
  137.0014  135.6204  152.9546 H   0  0  0  0  0  0  0  0  0  0  0  0
  137.6555  135.9037  154.5624 H   0  0  0  0  0  0  0  0  0  0  0  0
  136.6013  138.1234  154.6798 H   0  0  0  0  0  0  0  0  0  0  0  0
  135.1669  136.2017  155.3514 H   0  0  0  0  0  0  0  0  0  0  0  0
  134.5799  136.0534  153.6957 H   0  0  0  0  0  0  0  0  0  0  0  0
  134.2095  137.4960  154.6371 H   0  0  0  0  0  0  0  0  0  0  0  0
  136.6816  139.1760  151.1540 H   0  0  0  0  0  0  0  0  0  0  0  0
  138.2377  140.6106  152.3766 H   0  0  0  0  0  0  0  0  0  0  0  0
  137.9224  139.7710  153.8842 H   0  0  0  0  0  0  0  0  0  0  0  0
  136.6421  140.7046  153.1116 H   0  0  0  0  0  0  0  0  0  0  0  0
  139.0488  138.3613  151.4380 H   0  0  0  0  0  0  0  0  0  0  0  0
  137.8842  137.1174  151.0530 H   0  0  0  0  0  0  0  0  0  0  0  0
  140.8800  133.3648  153.8001 H   0  0  0  0  0  0  0  0  0  0  0  0
  144.4052  131.9835  151.0928 H   0  0  0  0  0  0  0  0  0  0  0  0
  147.1212  130.8718  151.9479 H   0  0  0  0  0  0  0  0  0  0  0  0
  146.0752  130.1556  150.7270 H   0  0  0  0  0  0  0  0  0  0  0  0
  145.5467  130.2166  152.3929 H   0  0  0  0  0  0  0  0  0  0  0  0
  147.1729  133.0177  150.3208 H   0  0  0  0  0  0  0  0  0  0  0  0
  145.6332  133.7026  149.8069 H   0  0  0  0  0  0  0  0  0  0  0  0
  146.0982  132.1030  149.2684 H   0  0  0  0  0  0  0  0  0  0  0  0
  1  2  1  0  0  0  0
  1 26  1  0  0  0  0
  1 27  1  0  0  0  0
  1 28  1  0  0  0  0
  2  3  2  0  0  0  0
  2  4  1  0  0  0  0
  4  5  1  0  0  0  0
  4 29  1  0  0  0  0
  5  6  1  0  0  0  0
  5 23  1  0  0  0  0
  5 30  1  0  0  0  0
  6  7  2  0  0  0  0
  6  8  1  0  0  0  0
  8  9  1  0  0  0  0
  8 31  1  0  0  0  0
  9 22  1  0  0  0  0
  9 10  2  0  0  0  0
 10 11  1  0  0  0  0
 10 32  1  0  0  0  0
 11 12  2  0  0  0  0
 11 33  1  0  0  0  0
 12 13  1  0  0  0  0
 12 21  1  0  0  0  0
 13 20  1  0  0  0  0
 13 14  1  0  0  0  0
 14 15  1  0  0  0  0
 14 34  1  0  0  0  0
 14 35  1  0  0  0  0
 15 16  1  0  0  0  0
 15 17  1  0  0  0  0
 15 36  1  0  0  0  0
 16 37  1  0  0  0  0
 16 38  1  0  0  0  0
 16 39  1  0  0  0  0
 17 18  1  0  0  0  0
 18 19  1  0  0  0  0
 18 20  1  0  0  0  0
 18 40  1  0  0  0  0
 19 41  1  0  0  0  0
 19 42  1  0  0  0  0
 19 43  1  0  0  0  0
 20 44  1  0  0  0  0
 20 45  1  0  0  0  0
 21 22  2  0  0  0  0
 22 46  1  0  0  0  0
 23 24  1  0  0  0  0
 23 25  1  0  0  0  0
 23 47  1  0  0  0  0
 24 48  1  0  0  0  0
 24 49  1  0  0  0  0
 24 50  1  0  0  0  0
 25 51  1  0  0  0  0
 25 52  1  0  0  0  0
 25 53  1  0  0  0  0
M  END
> <s_m_source_file>
AV-unprocessed.smi

> <i_m_source_file_index>
1966

> <i_lp_mmshare_version>
43012

> <i_f3d_flags>
0

> <s_epik_input>
W0NIM11DKD1PKVtOSF1bQ0BASF0oW0NIXShbQ0gzXSlbQ0gzXSlDKD1PKVtOSF1jMVtjSF1bY0hdYyhuW2NIXTEpTjJbQ0gyXVtDQEBIXShbQ0gzXSlPW0NAQEhdKFtDSDNdKVtDSDJdMg==

> <s_epik_cmdline>
J2VwaWtfcHl0aG9uJywgJy1waCcsICc3LjAnLCAnLXRuJywgJzgnLCAnLW1hJywgJzIwMCcsICctbWV0YWxfYmluZGluZycsICctaW1hZScsICc8aW5maWxlLm1hZT4nLCAnLW9tYWUnLCAnPG91dGZpbGUubWFlPic=

> <r_lp_tautomer_probability>
1

> <r_epik_Ionization_Penalty>
0.000679699

> <r_epik_Ionization_Penalty_Charging>
0

> <r_epik_Ionization_Penalty_Neutral>
0.000679699

> <r_epik_State_Penalty>
0.000430485

> <r_epik_Charging_Adjusted_Penalty>
0.000430485

> <i_epik_Tot_Q>
0

> <i_epik_Tot_abs_Q>
0

> <r_epik_Metal_State_Penalty>
-0

> <b_epik_Metal_Only>
0

> <s_lp_Force_Field>
OPLS_2005

> <r_lp_Energy>
28.9115

> <b_lp_Chiralities_Consistent>
1

> <s_lp_Variant>
AV-unprocessed.smi:1966-4

> <Gold.Version>
5.8.1

> <Gold.Id.Protein>
6NUR|6NUR_protein|mol2

> <Gold.PLP.Fitness>
45.3444

> <Gold.PLP.PLP>
-40.9121

> <Gold.PLP.part.hbond>
-2.0000

> <Gold.PLP.part.metal>
0.0000

> <Gold.PLP.part.buried>
-3.2869

> <Gold.PLP.part.nonpolar>
-35.6563

> <Gold.PLP.part.repulsive>
0.3946

> <Gold.PLP.ligand.clash>
0.0000

> <Gold.PLP.ligand.torsion>
1.4090

> <Gold.PLP.Chemscore.Hbond>
1.0000

> <Gold.PLP.Chemscore.CHOScore>
1.2847

> <Gold.PLP.Chemscore.Metal>
0.0000

> <Gold.Chemscore.Hbonds>
donor molecule, donor type, donor heavy atom, donor atom, acceptor molecule, acceptor atom, score
      L1  H     8    31       P1 10957  1.00
      L1  C    22    46       P1 10957  0.96

> <Gold.PLP.Chemscore.Internal.Correction>
0.3963

> <Gold.Rescore>
     Score         DG    S(hbond)    S(metal)    S(lipo)     H(rot)  DE(clash)    DE(int)     intcor
     13.15     -15.87       0.97        0.00      97.66       1.68       0.26       2.45       ----

> <Gold.Chemscore.Fitness>
13.1490

> <Gold.Chemscore.DG>
-15.8653

> <Gold.Chemscore.ZeroCoef>
-5.4800

> <Gold.Chemscore.Hbond>
0.9727

> <Gold.Chemscore.Metal>
0.0000

> <Gold.Chemscore.Lipo>
97.6644

> <Gold.Chemscore.Internal_Hbond>
0.0000

> <Gold.Chemscore.DEClash>
0.2642

> <Gold.Chemscore.DEInternal>
2.4520

> <Gold.Chemscore.Rot>
1.6759

> <Gold.Chemscore.Internal.Correction>
   9.000000E+99

> <Gold.Chemscore.Hbonds>
donor molecule, donor type, donor heavy atom, donor atom, acceptor molecule, acceptor atom, score
      L1  H     8    31       P1 10957  0.87

> <Gold.Chemscore.Hbond.Weighted>
-3.2487

> <Gold.Chemscore.Metal.Weighted>
-0.0000

> <Gold.Chemscore.Lipo.Weighted>
-11.4267

> <Gold.Chemscore.Internal_Hbond.Weighted>
0.0000

> <Gold.Chemscore.DEClash.Weighted>
0.2642

> <Gold.Chemscore.DEInternal.Weighted>
2.4520

> <Gold.Chemscore.Rot.Weighted>
4.2902

> <Gold.Chemscore.Internal.Correction.Weighted>
   9.000000E+99

> <Gold.Protein.RotatedTorsions>
[ 6907 6896 6895 6894 ] final   54.18 input  -60.11 | X-H torsion
[ 7974 7965 7964 7962 ] final  -76.47 input  175.53 | X-H torsion
[ 8008 7997 7996 7995 ] final -165.49 input   59.86 | X-H torsion
[ 10167 10162 10161 10158 ] final  -18.22 input  -65.29 | X-H torsion
[ 10718 10713 10712 10709 ] final -164.30 input   66.30 | X-H torsion
[ 10763 10752 10751 10750 ] final   30.16 input  -60.55 | X-H torsion
[ 11005 11000 10999 10996 ] final -168.90 input  -57.11 | X-H torsion

> <Gold.Protein.ActiveResidues>
 VAL166  LYS551  ARG553  GLY616  TRP617  ASP618  TYR619  PRO620  LYS621  CYS622 
 ASP623  PHE694  ASN695  SER759  ASP760  ASP761  ALA762  ILE779  LEU786  VAL792 
 PHE793  MET794  SER795  GLU796  ALA797  LYS798  CYS799  TRP800  GLU811  SER814 

> <Gold.Protein.RotatedAtoms>
  152.3413  134.7131  160.0262 H   0  0  0  0  0  0  0  0  0  0  0  0  # atno 6907 bound_to 6896
  151.7515  133.3322  159.3401 H   0  0  0  0  0  0  0  0  0  0  0  0  # atno 6908 bound_to 6896
  150.7481  134.6120  159.6136 H   0  0  0  0  0  0  0  0  0  0  0  0  # atno 6909 bound_to 6896
  145.6125  140.9383  143.1182 H   0  0  0  0  0  0  0  0  0  0  0  0  # atno 7974 bound_to 7965
  155.8506  140.0962  157.1677 H   0  0  0  0  0  0  0  0  0  0  0  0  # atno 8008 bound_to 7997
  154.3985  140.1384  156.3901 H   0  0  0  0  0  0  0  0  0  0  0  0  # atno 8009 bound_to 7997
  155.7965  140.3454  155.5381 H   0  0  0  0  0  0  0  0  0  0  0  0  # atno 8010 bound_to 7997
  140.7256  143.4938  150.9958 H   0  0  0  0  0  0  0  0  0  0  0  0  # atno 10167 bound_to 10162
  156.6370  130.8953  151.2989 H   0  0  0  0  0  0  0  0  0  0  0  0  # atno 10718 bound_to 10713
  153.0387  135.6471  154.1002 H   0  0  0  0  0  0  0  0  0  0  0  0  # atno 10763 bound_to 10752
  154.0713  135.2880  155.3309 H   0  0  0  0  0  0  0  0  0  0  0  0  # atno 10764 bound_to 10752
  154.6592  135.5397  153.8062 H   0  0  0  0  0  0  0  0  0  0  0  0  # atno 10765 bound_to 10752
  140.5368  134.5561  157.5089 H   0  0  0  0  0  0  0  0  0  0  0  0  # atno 11005 bound_to 11000
  144.7264  139.7862  143.7363 LP  0  0  0  0  0  0  0  0  0  0  0  0  # atno 17320 bound_to 7965
  146.1494  139.4572  143.0058 LP  0  0  0  0  0  0  0  0  0  0  0  0  # atno 17321 bound_to 7965
  139.8643  143.7274  152.3171 LP  0  0  0  0  0  0  0  0  0  0  0  0  # atno 17342 bound_to 10162
  139.7500  144.7537  151.0521 LP  0  0  0  0  0  0  0  0  0  0  0  0  # atno 17343 bound_to 10162
  157.7182  130.9525  150.1337 LP  0  0  0  0  0  0  0  0  0  0  0  0  # atno 17370 bound_to 10713
  156.2189  130.3672  149.8580 LP  0  0  0  0  0  0  0  0  0  0  0  0  # atno 17371 bound_to 10713
  139.9525  134.7593  156.0417 LP  0  0  0  0  0  0  0  0  0  0  0  0  # atno 17394 bound_to 11000
  141.1250  133.6602  156.3312 LP  0  0  0  0  0  0  0  0  0  0  0  0  # atno 17395 bound_to 11000

$$$$
