AV-unprocessed.smi:1360|AV-procd|sdf|5551|dock3
  -GOLD-   22720 5143D 1   1.00000     0.00000
 Structure written by MMmdl.
 36 37  0  0  0  0  0  0  0  0  1 V2000
  151.9495  137.5676  158.1822 C   0  0  0  0  0  0  0  0  0  0  0  0
  150.8926  138.4863  157.5504 C   0  0  2  0  0  0  0  0  0  0  0  0
  151.1341  138.6698  156.0396 C   0  0  0  0  0  0  0  0  0  0  0  0
  150.1244  139.5088  155.4180 N   0  0  0  0  0  0  0  0  0  0  0  0
  149.0156  139.1194  154.6967 C   0  0  0  0  0  0  0  0  0  0  0  0
  148.3572  140.2546  154.3197 C   0  0  0  0  0  0  0  0  0  0  0  0
  149.1510  141.3024  154.8644 C   0  0  0  0  0  0  0  0  0  0  0  0
  150.2088  140.8532  155.5204 N   0  0  0  0  0  0  0  0  0  0  0  0
  150.8989  139.7846  158.2205 N   0  0  0  0  0  0  0  0  0  0  0  0
  151.9745  140.5673  158.3965 C   0  0  0  0  0  0  0  0  0  0  0  0
  153.0976  140.2756  157.9840 O   0  0  0  0  0  0  0  0  0  0  0  0
  151.7462  141.8791  159.1585 C   0  0  2  0  0  0  0  0  0  0  0  0
  151.8336  143.0983  158.2114 C   0  0  0  0  0  0  0  0  0  0  0  0
  151.8732  144.4129  158.9706 C   0  0  0  0  0  0  0  0  0  0  0  0
  152.1408  144.5001  160.2849 C   0  0  0  0  0  0  0  0  0  0  0  0
  152.4395  143.2945  161.1589 C   0  0  0  0  0  0  0  0  0  0  0  0
  152.7388  142.0318  160.3286 C   0  0  0  0  0  0  0  0  0  0  0  0
  151.9457  136.5844  157.7108 H   0  0  0  0  0  0  0  0  0  0  0  0
  151.7603  137.4204  159.2461 H   0  0  0  0  0  0  0  0  0  0  0  0
  152.9517  137.9839  158.0759 H   0  0  0  0  0  0  0  0  0  0  0  0
  149.9153  138.0170  157.6795 H   0  0  0  0  0  0  0  0  0  0  0  0
  152.1213  139.0967  155.8540 H   0  0  0  0  0  0  0  0  0  0  0  0
  151.1159  137.7015  155.5379 H   0  0  0  0  0  0  0  0  0  0  0  0
  148.7896  138.0788  154.5166 H   0  0  0  0  0  0  0  0  0  0  0  0
  147.4466  140.3258  153.7436 H   0  0  0  0  0  0  0  0  0  0  0  0
  148.9908  142.3688  154.8026 H   0  0  0  0  0  0  0  0  0  0  0  0
  150.0188  140.1024  158.6003 H   0  0  0  0  0  0  0  0  0  0  0  0
  150.7406  141.8539  159.5833 H   0  0  0  0  0  0  0  0  0  0  0  0
  152.7214  143.0494  157.5791 H   0  0  0  0  0  0  0  0  0  0  0  0
  150.9703  143.1086  157.5450 H   0  0  0  0  0  0  0  0  0  0  0  0
  151.6853  145.3109  158.4001 H   0  0  0  0  0  0  0  0  0  0  0  0
  152.1403  145.4652  160.7699 H   0  0  0  0  0  0  0  0  0  0  0  0
  153.2855  143.5208  161.8081 H   0  0  0  0  0  0  0  0  0  0  0  0
  151.5784  143.1249  161.8058 H   0  0  0  0  0  0  0  0  0  0  0  0
  152.7136  141.1537  160.9755 H   0  0  0  0  0  0  0  0  0  0  0  0
  153.7555  142.0964  159.9374 H   0  0  0  0  0  0  0  0  0  0  0  0
  1  2  1  0  0  0  0
  1 18  1  0  0  0  0
  1 19  1  0  0  0  0
  1 20  1  0  0  0  0
  2  3  1  0  0  0  0
  2  9  1  0  0  0  0
  2 21  1  0  0  0  0
  3  4  1  0  0  0  0
  3 22  1  0  0  0  0
  3 23  1  0  0  0  0
  4  8  1  0  0  0  0
  4  5  1  0  0  0  0
  5  6  2  0  0  0  0
  5 24  1  0  0  0  0
  6  7  1  0  0  0  0
  6 25  1  0  0  0  0
  7  8  2  0  0  0  0
  7 26  1  0  0  0  0
  9 10  1  0  0  0  0
  9 27  1  0  0  0  0
 10 11  2  0  0  0  0
 10 12  1  0  0  0  0
 12 17  1  0  0  0  0
 12 13  1  0  0  0  0
 12 28  1  0  0  0  0
 13 14  1  0  0  0  0
 13 29  1  0  0  0  0
 13 30  1  0  0  0  0
 14 15  2  0  0  0  0
 14 31  1  0  0  0  0
 15 16  1  0  0  0  0
 15 32  1  0  0  0  0
 16 17  1  0  0  0  0
 16 33  1  0  0  0  0
 16 34  1  0  0  0  0
 17 35  1  0  0  0  0
 17 36  1  0  0  0  0
M  END
> <s_m_source_file>
AV-unprocessed.smi

> <i_m_source_file_index>
1360

> <i_lp_mmshare_version>
43012

> <i_f3d_flags>
0

> <s_epik_input>
bjFbY0hdW2NIXVtjSF1uMVtDSDJdW0NAQEhdKFtDSDNdKVtOSF1DKD1PKVtDQEBIXTJbQ0gyXVtDSF09W0NIXVtDSDJdW0NIMl0y

> <s_epik_cmdline>
J2VwaWtfcHl0aG9uJywgJy1waCcsICc3LjAnLCAnLXRuJywgJzgnLCAnLW1hJywgJzIwMCcsICctbWV0YWxfYmluZGluZycsICctaW1hZScsICc8aW5maWxlLm1hZT4nLCAnLW9tYWUnLCAnPG91dGZpbGUubWFlPic=

> <r_lp_tautomer_probability>
1

> <r_epik_Ionization_Penalty>
0.000315076

> <r_epik_Ionization_Penalty_Charging>
0

> <r_epik_Ionization_Penalty_Neutral>
0.000315076

> <r_epik_State_Penalty>
-0

> <r_epik_Charging_Adjusted_Penalty>
0

> <i_epik_Tot_Q>
0

> <i_epik_Tot_abs_Q>
0

> <r_epik_Metal_State_Penalty>
-0

> <b_epik_Metal_Only>
0

> <s_lp_Force_Field>
OPLS_2005

> <r_lp_Energy>
8.39031

> <b_lp_Chiralities_Consistent>
1

> <s_lp_Variant>
AV-unprocessed.smi:1360-1

> <Gold.Version>
5.8.1

> <Gold.Id.Protein>
6NUR|6NUR_protein|mol2

> <Gold.PLP.Fitness>
40.8523

> <Gold.PLP.PLP>
-35.8612

> <Gold.PLP.part.hbond>
-1.8265

> <Gold.PLP.part.metal>
0.0000

> <Gold.PLP.part.buried>
-1.9726

> <Gold.PLP.part.nonpolar>
-31.6636

> <Gold.PLP.part.repulsive>
0.1961

> <Gold.PLP.ligand.clash>
0.0000

> <Gold.PLP.ligand.torsion>
0.5318

> <Gold.PLP.Chemscore.Hbond>
1.0078

> <Gold.PLP.Chemscore.CHOScore>
1.0000

> <Gold.PLP.Chemscore.Metal>
0.0000

> <Gold.Chemscore.Hbonds>
donor molecule, donor type, donor heavy atom, donor atom, acceptor molecule, acceptor atom, score
      P1  H  7997  8010       L1    11  0.91
      L1  C     7    26       P1  8028  1.00

> <Gold.PLP.Chemscore.Internal.Correction>
0.0313

> <Gold.Rescore>
     Score         DG    S(hbond)    S(metal)    S(lipo)     H(rot)  DE(clash)    DE(int)     intcor
     14.79     -16.81       0.95        0.00     102.55       1.51       0.17       1.85       ----

> <Gold.Chemscore.Fitness>
14.7874

> <Gold.Chemscore.DG>
-16.8094

> <Gold.Chemscore.ZeroCoef>
-5.4800

> <Gold.Chemscore.Hbond>
0.9537

> <Gold.Chemscore.Metal>
0.0000

> <Gold.Chemscore.Lipo>
102.5528

> <Gold.Chemscore.Internal_Hbond>
0.0000

> <Gold.Chemscore.DEClash>
0.1727

> <Gold.Chemscore.DEInternal>
1.8494

> <Gold.Chemscore.Rot>
1.5057

> <Gold.Chemscore.Internal.Correction>
   9.000000E+99

> <Gold.Chemscore.Hbonds>
donor molecule, donor type, donor heavy atom, donor atom, acceptor molecule, acceptor atom, score
      P1  H  7997  8010       L1    11  0.90

> <Gold.Chemscore.Hbond.Weighted>
-3.1854

> <Gold.Chemscore.Metal.Weighted>
-0.0000

> <Gold.Chemscore.Lipo.Weighted>
-11.9987

> <Gold.Chemscore.Internal_Hbond.Weighted>
0.0000

> <Gold.Chemscore.DEClash.Weighted>
0.1727

> <Gold.Chemscore.DEInternal.Weighted>
1.8494

> <Gold.Chemscore.Rot.Weighted>
3.8546

> <Gold.Chemscore.Internal.Correction.Weighted>
   9.000000E+99

> <Gold.Protein.RotatedTorsions>
[ 6907 6896 6895 6894 ] final  -82.82 input  -60.11 | X-H torsion
[ 7974 7965 7964 7962 ] final  127.55 input  175.53 | X-H torsion
[ 8008 7997 7996 7995 ] final   37.92 input   59.86 | X-H torsion
[ 10167 10162 10161 10158 ] final  124.41 input  -65.29 | X-H torsion
[ 10718 10713 10712 10709 ] final -110.83 input   66.30 | X-H torsion
[ 10763 10752 10751 10750 ] final -165.73 input  -60.55 | X-H torsion
[ 11005 11000 10999 10996 ] final -123.72 input  -57.11 | X-H torsion

> <Gold.Protein.ActiveResidues>
 VAL166  LYS551  ARG553  GLY616  TRP617  ASP618  TYR619  PRO620  LYS621  CYS622 
 ASP623  PHE694  ASN695  SER759  ASP760  ASP761  ALA762  ILE779  LEU786  VAL792 
 PHE793  MET794  SER795  GLU796  ALA797  LYS798  CYS799  TRP800  GLU811  SER814 

> <Gold.Protein.RotatedAtoms>
  150.6892  134.3606  159.4948 H   0  0  0  0  0  0  0  0  0  0  0  0  # atno 6907 bound_to 6896
  152.1435  134.9041  160.0561 H   0  0  0  0  0  0  0  0  0  0  0  0  # atno 6908 bound_to 6896
  152.0166  133.3847  159.4278 H   0  0  0  0  0  0  0  0  0  0  0  0  # atno 6909 bound_to 6896
  145.0493  139.3896  143.5062 H   0  0  0  0  0  0  0  0  0  0  0  0  # atno 7974 bound_to 7965
  155.2117  140.3324  155.4328 H   0  0  0  0  0  0  0  0  0  0  0  0  # atno 8008 bound_to 7997
  156.2368  140.1876  156.7147 H   0  0  0  0  0  0  0  0  0  0  0  0  # atno 8009 bound_to 7997
  154.6073  140.0614  156.9434 H   0  0  0  0  0  0  0  0  0  0  0  0  # atno 8010 bound_to 7997
  139.5743  144.6955  151.3695 H   0  0  0  0  0  0  0  0  0  0  0  0  # atno 10167 bound_to 10162
  156.0612  130.5835  150.8290 H   0  0  0  0  0  0  0  0  0  0  0  0  # atno 10718 bound_to 10713
  154.6903  135.2969  154.9488 H   0  0  0  0  0  0  0  0  0  0  0  0  # atno 10763 bound_to 10752
  154.0454  135.6652  153.4798 H   0  0  0  0  0  0  0  0  0  0  0  0  # atno 10764 bound_to 10752
  153.0608  135.5117  154.7992 H   0  0  0  0  0  0  0  0  0  0  0  0  # atno 10765 bound_to 10752
  140.9897  134.0556  157.3669 H   0  0  0  0  0  0  0  0  0  0  0  0  # atno 11005 bound_to 11000
  146.3516  140.0135  142.8665 LP  0  0  0  0  0  0  0  0  0  0  0  0  # atno 17320 bound_to 7965
  145.1547  140.9641  143.4412 LP  0  0  0  0  0  0  0  0  0  0  0  0  # atno 17321 bound_to 7965
  140.7026  143.7593  150.7428 LP  0  0  0  0  0  0  0  0  0  0  0  0  # atno 17342 bound_to 10162
  140.1108  143.4701  152.2371 LP  0  0  0  0  0  0  0  0  0  0  0  0  # atno 17343 bound_to 10162
  157.5622  131.0946  150.9542 LP  0  0  0  0  0  0  0  0  0  0  0  0  # atno 17370 bound_to 10713
  156.9776  130.5515  149.5294 LP  0  0  0  0  0  0  0  0  0  0  0  0  # atno 17371 bound_to 10713
  139.8986  135.0155  156.7159 LP  0  0  0  0  0  0  0  0  0  0  0  0  # atno 17394 bound_to 11000
  140.7059  133.9265  155.8053 LP  0  0  0  0  0  0  0  0  0  0  0  0  # atno 17395 bound_to 11000

$$$$
