AV-unprocessed.smi:1518|AV-procd|sdf|6125|dock2
  -GOLD-   22720 6263D 1   1.00000     0.00000
 Structure written by MMmdl.
 45 47  0  0  0  0  0  0  0  0  1 V2000
  154.3037  141.5357  162.8710 C   0  0  0  0  0  0  0  0  0  0  0  0
  153.4714  142.8160  162.9246 C   0  0  0  0  0  0  0  0  0  0  0  0
  153.4200  143.4410  163.9836 O   0  0  0  0  0  0  0  0  0  0  0  0
  152.7637  143.2424  161.6827 C   0  0  0  0  0  0  0  0  0  0  0  0
  152.1253  144.5028  161.6519 C   0  0  0  0  0  0  0  0  0  0  0  0
  151.4518  144.9328  160.4946 C   0  0  0  0  0  0  0  0  0  0  0  0
  151.4082  144.1071  159.3575 C   0  0  0  0  0  0  0  0  0  0  0  0
  152.0332  142.8448  159.3610 C   0  0  0  0  0  0  0  0  0  0  0  0
  151.9362  142.1011  158.2040 O   0  0  0  0  0  0  0  0  0  0  0  0
  152.4299  140.7677  158.2103 C   0  0  0  0  0  0  0  0  0  0  0  0
  151.5849  139.9193  157.2464 C   0  0  1  0  0  0  0  0  0  0  0  0
  150.3434  139.6389  157.8625 O   0  0  0  0  0  0  0  0  0  0  0  0
  151.3328  140.6485  155.9103 C   0  0  0  0  0  0  0  0  0  0  0  0
  150.4303  139.9222  155.0241 N   0  0  0  0  0  0  0  0  0  0  0  0
  150.5867  138.6825  154.4914 C   0  0  0  0  0  0  0  0  0  0  0  0
  151.7955  137.8355  154.7522 C   0  0  0  0  0  0  0  0  0  0  0  0
  152.1368  137.0116  153.6591 O   0  0  0  0  0  0  0  0  0  0  0  0
  149.5942  138.2588  153.7080 N   0  0  0  0  0  0  0  0  0  0  0  0
  148.7153  139.3234  153.7259 C   0  0  0  0  0  0  0  0  0  0  0  0
  147.4675  139.4941  153.0846 C   0  0  0  0  0  0  0  0  0  0  0  0
  146.7377  140.6893  153.2500 C   0  0  0  0  0  0  0  0  0  0  0  0
  147.2436  141.7282  154.0578 C   0  0  0  0  0  0  0  0  0  0  0  0
  148.4846  141.5780  154.7060 C   0  0  0  0  0  0  0  0  0  0  0  0
  149.2096  140.3828  154.5379 C   0  0  0  0  0  0  0  0  0  0  0  0
  152.7122  142.4187  160.5315 C   0  0  0  0  0  0  0  0  0  0  0  0
  155.0919  141.6238  162.1232 H   0  0  0  0  0  0  0  0  0  0  0  0
  153.6753  140.6805  162.6219 H   0  0  0  0  0  0  0  0  0  0  0  0
  154.7713  141.3444  163.8371 H   0  0  0  0  0  0  0  0  0  0  0  0
  152.1457  145.1539  162.5141 H   0  0  0  0  0  0  0  0  0  0  0  0
  150.9678  145.8984  160.4793 H   0  0  0  0  0  0  0  0  0  0  0  0
  150.8887  144.4458  158.4730 H   0  0  0  0  0  0  0  0  0  0  0  0
  153.4869  140.7264  157.9413 H   0  0  0  0  0  0  0  0  0  0  0  0
  152.3264  140.3706  159.2216 H   0  0  0  0  0  0  0  0  0  0  0  0
  152.0979  138.9779  157.0523 H   0  0  0  0  0  0  0  0  0  0  0  0
  149.7792  140.3891  157.7519 H   0  0  0  0  0  0  0  0  0  0  0  0
  150.9124  141.6376  156.0968 H   0  0  0  0  0  0  0  0  0  0  0  0
  152.2746  140.8226  155.3912 H   0  0  0  0  0  0  0  0  0  0  0  0
  152.6454  138.4831  154.9710 H   0  0  0  0  0  0  0  0  0  0  0  0
  151.6396  137.2237  155.6402 H   0  0  0  0  0  0  0  0  0  0  0  0
  151.4078  136.9937  153.0582 H   0  0  0  0  0  0  0  0  0  0  0  0
  147.0721  138.7040  152.4638 H   0  0  0  0  0  0  0  0  0  0  0  0
  145.7853  140.8093  152.7547 H   0  0  0  0  0  0  0  0  0  0  0  0
  146.6783  142.6404  154.1798 H   0  0  0  0  0  0  0  0  0  0  0  0
  148.8738  142.3714  155.3269 H   0  0  0  0  0  0  0  0  0  0  0  0
  153.1967  141.4554  160.5488 H   0  0  0  0  0  0  0  0  0  0  0  0
  1  2  1  0  0  0  0
  1 26  1  0  0  0  0
  1 27  1  0  0  0  0
  1 28  1  0  0  0  0
  2  3  2  0  0  0  0
  2  4  1  0  0  0  0
  4 25  1  0  0  0  0
  4  5  2  0  0  0  0
  5  6  1  0  0  0  0
  5 29  1  0  0  0  0
  6  7  2  0  0  0  0
  6 30  1  0  0  0  0
  7  8  1  0  0  0  0
  7 31  1  0  0  0  0
  8  9  1  0  0  0  0
  8 25  2  0  0  0  0
  9 10  1  0  0  0  0
 10 11  1  0  0  0  0
 10 32  1  0  0  0  0
 10 33  1  0  0  0  0
 11 12  1  0  0  0  0
 11 13  1  0  0  0  0
 11 34  1  0  0  0  0
 12 35  1  0  0  0  0
 13 14  1  0  0  0  0
 13 36  1  0  0  0  0
 13 37  1  0  0  0  0
 14 24  1  0  0  0  0
 14 15  1  0  0  0  0
 15 16  1  0  0  0  0
 15 18  2  0  0  0  0
 16 17  1  0  0  0  0
 16 38  1  0  0  0  0
 16 39  1  0  0  0  0
 17 40  1  0  0  0  0
 18 19  1  0  0  0  0
 19 24  2  0  0  0  0
 19 20  1  0  0  0  0
 20 21  2  0  0  0  0
 20 41  1  0  0  0  0
 21 22  1  0  0  0  0
 21 42  1  0  0  0  0
 22 23  2  0  0  0  0
 22 43  1  0  0  0  0
 23 24  1  0  0  0  0
 23 44  1  0  0  0  0
 25 45  1  0  0  0  0
M  END
> <s_m_source_file>
AV-unprocessed.smi

> <i_m_source_file_index>
1518

> <i_lp_mmshare_version>
43012

> <i_f3d_flags>
0

> <s_epik_input>
W0NIM11DKD1PKWMxW2NIXVtjSF1bY0hdYyhbY0hdMSlPW0NIMl1bQ0BIXShbT0hdKVtDSDJdbihjKG4yKVtDSDJdW09IXSljKGMyMylbY0hdW2NIXVtjSF1bY0hdMw==

> <s_epik_cmdline>
J2VwaWtfcHl0aG9uJywgJy1waCcsICc3LjAnLCAnLXRuJywgJzgnLCAnLW1hJywgJzIwMCcsICctbWV0YWxfYmluZGluZycsICctaW1hZScsICc8aW5maWxlLm1hZT4nLCAnLW9tYWUnLCAnPG91dGZpbGUubWFlPic=

> <r_lp_tautomer_probability>
0.99995

> <r_epik_Ionization_Penalty>
0.0583159

> <r_epik_Ionization_Penalty_Charging>
0

> <r_epik_Ionization_Penalty_Neutral>
0.0583159

> <r_epik_State_Penalty>
0.0503525

> <r_epik_Charging_Adjusted_Penalty>
0.0503525

> <i_epik_Tot_Q>
0

> <i_epik_Tot_abs_Q>
0

> <r_epik_Metal_State_Penalty>
5.25517e-05

> <b_epik_Metal_Only>
0

> <s_lp_Force_Field>
OPLS_2005

> <r_lp_Energy>
23.8716

> <b_lp_Chiralities_Consistent>
1

> <s_lp_Variant>
AV-unprocessed.smi:1518-2

> <Gold.Version>
5.8.1

> <Gold.Id.Protein>
6NUR|6NUR_protein|mol2

> <Gold.PLP.Fitness>
58.4629

> <Gold.PLP.PLP>
-54.9581

> <Gold.PLP.part.hbond>
-2.4703

> <Gold.PLP.part.metal>
0.0000

> <Gold.PLP.part.buried>
-0.0430

> <Gold.PLP.part.nonpolar>
-53.4939

> <Gold.PLP.part.repulsive>
2.3239

> <Gold.PLP.ligand.clash>
0.0000

> <Gold.PLP.ligand.torsion>
0.7748

> <Gold.PLP.Chemscore.Hbond>
1.5120

> <Gold.PLP.Chemscore.CHOScore>
0.0000

> <Gold.PLP.Chemscore.Metal>
0.0000

> <Gold.Chemscore.Hbonds>
donor molecule, donor type, donor heavy atom, donor atom, acceptor molecule, acceptor atom, score
      L1  H    17    40       P1  7949  0.59
      P1  H 10752 10763       L1    17  0.90

> <Gold.PLP.Chemscore.Internal.Correction>
0.5184

> <Gold.Rescore>
     Score         DG    S(hbond)    S(metal)    S(lipo)     H(rot)  DE(clash)    DE(int)     intcor
     15.22     -18.77       1.40        0.00     144.65       3.25       2.85       0.71       ----

> <Gold.Chemscore.Fitness>
15.2160

> <Gold.Chemscore.DG>
-18.7726

> <Gold.Chemscore.ZeroCoef>
-5.4800

> <Gold.Chemscore.Hbond>
1.4025

> <Gold.Chemscore.Metal>
0.0000

> <Gold.Chemscore.Lipo>
144.6480

> <Gold.Chemscore.Internal_Hbond>
0.0000

> <Gold.Chemscore.DEClash>
2.8464

> <Gold.Chemscore.DEInternal>
0.7103

> <Gold.Chemscore.Rot>
3.2482

> <Gold.Chemscore.Internal.Correction>
   9.000000E+99

> <Gold.Chemscore.Hbonds>
donor molecule, donor type, donor heavy atom, donor atom, acceptor molecule, acceptor atom, score
      L1  H    17    40       P1  7949  0.49
      P1  H 10752 10763       L1    17  0.57

> <Gold.Chemscore.Hbond.Weighted>
-4.6842

> <Gold.Chemscore.Metal.Weighted>
-0.0000

> <Gold.Chemscore.Lipo.Weighted>
-16.9238

> <Gold.Chemscore.Internal_Hbond.Weighted>
0.0000

> <Gold.Chemscore.DEClash.Weighted>
2.8464

> <Gold.Chemscore.DEInternal.Weighted>
0.7103

> <Gold.Chemscore.Rot.Weighted>
8.3155

> <Gold.Chemscore.Internal.Correction.Weighted>
   9.000000E+99

> <Gold.Protein.RotatedTorsions>
[ 6907 6896 6895 6894 ] final  155.95 input  -60.11 | X-H torsion
[ 7974 7965 7964 7962 ] final -124.46 input  175.53 | X-H torsion
[ 8008 7997 7996 7995 ] final   23.34 input   59.86 | X-H torsion
[ 10167 10162 10161 10158 ] final  174.91 input  -65.29 | X-H torsion
[ 10718 10713 10712 10709 ] final  169.73 input   66.30 | X-H torsion
[ 10763 10752 10751 10750 ] final   41.01 input  -60.55 | X-H torsion
[ 11005 11000 10999 10996 ] final -162.91 input  -57.11 | X-H torsion

> <Gold.Protein.ActiveResidues>
 VAL166  LYS551  ARG553  GLY616  TRP617  ASP618  TYR619  PRO620  LYS621  CYS622 
 ASP623  PHE694  ASN695  SER759  ASP760  ASP761  ALA762  ILE779  LEU786  VAL792 
 PHE793  MET794  SER795  GLU796  ALA797  LYS798  CYS799  TRP800  GLU811  SER814 

> <Gold.Protein.RotatedAtoms>
  152.0367  133.3960  159.4319 H   0  0  0  0  0  0  0  0  0  0  0  0  # atno 6907 bound_to 6896
  150.6878  134.3460  159.4898 H   0  0  0  0  0  0  0  0  0  0  0  0  # atno 6908 bound_to 6896
  152.1253  134.9174  160.0612 H   0  0  0  0  0  0  0  0  0  0  0  0  # atno 6909 bound_to 6896
  145.0079  140.7879  143.4457 H   0  0  0  0  0  0  0  0  0  0  0  0  # atno 7974 bound_to 7965
  154.9794  140.3100  155.4953 H   0  0  0  0  0  0  0  0  0  0  0  0  # atno 8008 bound_to 7997
  156.2955  140.2269  156.4831 H   0  0  0  0  0  0  0  0  0  0  0  0  # atno 8009 bound_to 7997
  154.7803  140.0446  157.1110 H   0  0  0  0  0  0  0  0  0  0  0  0  # atno 8010 bound_to 7997
  139.5158  144.3092  152.0307 H   0  0  0  0  0  0  0  0  0  0  0  0  # atno 10167 bound_to 10162
  157.0183  131.0224  151.2782 H   0  0  0  0  0  0  0  0  0  0  0  0  # atno 10718 bound_to 10713
  152.9920  135.6174  154.2719 H   0  0  0  0  0  0  0  0  0  0  0  0  # atno 10763 bound_to 10752
  154.2451  135.2787  155.2840 H   0  0  0  0  0  0  0  0  0  0  0  0  # atno 10764 bound_to 10752
  154.5336  135.5781  153.6837 H   0  0  0  0  0  0  0  0  0  0  0  0  # atno 10765 bound_to 10752
  140.6040  134.4918  157.5208 H   0  0  0  0  0  0  0  0  0  0  0  0  # atno 11005 bound_to 11000
  145.2064  139.2226  143.5166 LP  0  0  0  0  0  0  0  0  0  0  0  0  # atno 17320 bound_to 7965
  146.3464  140.1892  142.8589 LP  0  0  0  0  0  0  0  0  0  0  0  0  # atno 17321 bound_to 7965
  140.2537  144.4141  150.6212 LP  0  0  0  0  0  0  0  0  0  0  0  0  # atno 17342 bound_to 10162
  140.6206  143.2176  151.6701 LP  0  0  0  0  0  0  0  0  0  0  0  0  # atno 17343 bound_to 10162
  157.5268  130.8033  149.7871 LP  0  0  0  0  0  0  0  0  0  0  0  0  # atno 17370 bound_to 10713
  156.0111  130.3833  150.2262 LP  0  0  0  0  0  0  0  0  0  0  0  0  # atno 17371 bound_to 10713
  139.9220  134.8130  156.1182 LP  0  0  0  0  0  0  0  0  0  0  0  0  # atno 17394 bound_to 11000
  141.0853  133.6737  156.2423 LP  0  0  0  0  0  0  0  0  0  0  0  0  # atno 17395 bound_to 11000

$$$$
