AV-unprocessed.smi:845|AV-procd|sdf|3933|dock4
  -GOLD-   22720 1393D 1   1.00000     0.00000
 Structure written by MMmdl.
 41 42  0  0  0  0  0  0  0  0  2 V2000
  147.2394  141.9208  155.4444 C   0  0  0  0  0  0  0  0  0  0  0  0
  148.1629  140.9107  154.7425 C   0  0  0  0  0  0  0  0  0  0  0  0
  147.8232  140.8013  153.2431 C   0  0  0  0  0  0  0  0  0  0  0  0
  148.2850  139.5710  155.5365 C   0  0  2  0  0  0  0  0  0  0  0  0
  148.2714  139.7527  157.0787 C   0  0  0  0  0  0  0  0  0  0  0  0
  149.3167  140.6705  157.5259 N   0  0  0  0  0  0  0  0  0  0  0  0
  150.3884  140.3631  158.2707 C   0  0  0  0  0  0  0  0  0  0  0  0
  150.5595  139.2076  158.6658 O   0  0  0  0  0  0  0  0  0  0  0  0
  151.1992  141.4183  158.5122 N   0  5  0  0  0  0  0  0  0  0  0  0
  152.2191  141.2968  159.3774 C   0  0  0  0  0  0  0  0  0  0  0  0
  152.8202  140.1302  159.6384 N   0  0  0  0  0  0  0  0  0  0  0  0
  153.8594  140.2361  160.5647 C   0  0  0  0  0  0  0  0  0  0  0  0
  154.0609  141.5149  161.0116 C   0  0  0  0  0  0  0  0  0  0  0  0
  152.9439  142.6310  160.2793 S   0  0  0  0  0  0  0  0  0  0  0  0
  149.3167  138.6420  155.0322 N   0  0  0  0  0  0  0  0  0  0  0  0
  150.6883  139.1491  155.0623 C   0  0  0  0  0  0  0  0  0  0  0  0
  151.6749  138.1535  154.4282 C   0  0  0  0  0  0  0  0  0  0  0  0
  151.5818  136.8962  155.0904 O   0  0  0  0  0  0  0  0  0  0  0  0
  150.2680  136.3485  155.0464 C   0  0  0  0  0  0  0  0  0  0  0  0
  149.2756  137.3350  155.6847 C   0  0  0  0  0  0  0  0  0  0  0  0
  146.1991  141.5952  155.4213 H   0  0  0  0  0  0  0  0  0  0  0  0
  147.2896  142.8972  154.9618 H   0  0  0  0  0  0  0  0  0  0  0  0
  147.5240  142.0556  156.4883 H   0  0  0  0  0  0  0  0  0  0  0  0
  149.1544  141.3639  154.7737 H   0  0  0  0  0  0  0  0  0  0  0  0
  146.7705  140.5894  153.0688 H   0  0  0  0  0  0  0  0  0  0  0  0
  148.4155  140.0409  152.7366 H   0  0  0  0  0  0  0  0  0  0  0  0
  148.0317  141.7471  152.7426 H   0  0  0  0  0  0  0  0  0  0  0  0
  147.3336  139.0828  155.3186 H   0  0  0  0  0  0  0  0  0  0  0  0
  147.3249  140.1809  157.4056 H   0  0  0  0  0  0  0  0  0  0  0  0
  148.3491  138.7871  157.5781 H   0  0  0  0  0  0  0  0  0  0  0  0
  149.2270  141.6318  157.2313 H   0  0  0  0  0  0  0  0  0  0  0  0
  154.4045  139.3480  160.8476 H   0  0  0  0  0  0  0  0  0  0  0  0
  154.7940  141.8676  161.7213 H   0  0  0  0  0  0  0  0  0  0  0  0
  150.7667  140.0930  154.5335 H   0  0  0  0  0  0  0  0  0  0  0  0
  150.9958  139.3392  156.0909 H   0  0  0  0  0  0  0  0  0  0  0  0
  151.4659  138.0288  153.3646 H   0  0  0  0  0  0  0  0  0  0  0  0
  152.6958  138.5258  154.5125 H   0  0  0  0  0  0  0  0  0  0  0  0
  149.9899  136.1349  154.0132 H   0  0  0  0  0  0  0  0  0  0  0  0
  150.2586  135.4001  155.5837 H   0  0  0  0  0  0  0  0  0  0  0  0
  149.5111  137.4327  156.7446 H   0  0  0  0  0  0  0  0  0  0  0  0
  148.2696  136.9188  155.6236 H   0  0  0  0  0  0  0  0  0  0  0  0
  1  2  1  0  0  0  0
  1 21  1  0  0  0  0
  1 22  1  0  0  0  0
  1 23  1  0  0  0  0
  2  3  1  0  0  0  0
  2  4  1  0  0  0  0
  2 24  1  0  0  0  0
  3 25  1  0  0  0  0
  3 26  1  0  0  0  0
  3 27  1  0  0  0  0
  4  5  1  0  0  0  0
  4 15  1  0  0  0  0
  4 28  1  0  0  0  0
  5  6  1  0  0  0  0
  5 29  1  0  0  0  0
  5 30  1  0  0  0  0
  6  7  1  0  0  0  0
  6 31  1  0  0  0  0
  7  8  2  0  0  0  0
  7  9  1  0  0  0  0
  9 10  1  0  0  0  0
 10 14  1  0  0  0  0
 10 11  2  0  0  0  0
 11 12  1  0  0  0  0
 12 13  2  0  0  0  0
 12 32  1  0  0  0  0
 13 14  1  0  0  0  0
 13 33  1  0  0  0  0
 15 20  1  0  0  0  0
 15 16  1  0  0  0  0
 16 17  1  0  0  0  0
 16 34  1  0  0  0  0
 16 35  1  0  0  0  0
 17 18  1  0  0  0  0
 17 36  1  0  0  0  0
 17 37  1  0  0  0  0
 18 19  1  0  0  0  0
 19 20  1  0  0  0  0
 19 38  1  0  0  0  0
 19 39  1  0  0  0  0
 20 40  1  0  0  0  0
 20 41  1  0  0  0  0
M  CHG  1   9  -1
M  END
> <s_m_source_file>
AV-unprocessed.smi

> <i_m_source_file_index>
845

> <i_lp_mmshare_version>
43012

> <i_f3d_flags>
0

> <s_epik_input>
W0NIMl0xW0NIMl1PW0NIMl1bQ0gyXU4xW0NASF0oW0NIXShbQ0gzXSlbQ0gzXSlbQ0gyXVtOSF1DKD1PKVtOSF1jMm5bY0hdW2NIXXMy

> <s_epik_cmdline>
J2VwaWtfcHl0aG9uJywgJy1waCcsICc3LjAnLCAnLXRuJywgJzgnLCAnLW1hJywgJzIwMCcsICctbWV0YWxfYmluZGluZycsICctaW1hZScsICc8aW5maWxlLm1hZT4nLCAnLW9tYWUnLCAnPG91dGZpbGUubWFlPic=

> <r_lp_tautomer_probability>
0.999

> <r_epik_Ionization_Penalty>
9.02543

> <r_epik_Ionization_Penalty_Charging>
6.76546

> <r_epik_Ionization_Penalty_Neutral>
2.25997

> <r_epik_State_Penalty>
7.18984

> <r_epik_Charging_Adjusted_Penalty>
13.9553

> <i_epik_Tot_Q>
-1

> <i_epik_Tot_abs_Q>
1

> <r_epik_Metal_State_Penalty>
3.11401

> <b_epik_Metal_Only>
1

> <s_lp_Force_Field>
OPLS_2005

> <r_lp_Energy>
34.1255

> <b_lp_Chiralities_Consistent>
1

> <s_lp_Variant>
AV-unprocessed.smi:845-7

> <Gold.Version>
5.8.1

> <Gold.Id.Protein>
6NUR|6NUR_protein|mol2

> <Gold.PLP.Fitness>
31.7057

> <Gold.PLP.PLP>
-29.3243

> <Gold.PLP.part.hbond>
-1.0000

> <Gold.PLP.part.metal>
0.0000

> <Gold.PLP.part.buried>
-3.6660

> <Gold.PLP.part.nonpolar>
-25.0822

> <Gold.PLP.part.repulsive>
0.3219

> <Gold.PLP.ligand.clash>
0.0000

> <Gold.PLP.ligand.torsion>
0.5544

> <Gold.PLP.Chemscore.Hbond>
1.0000

> <Gold.PLP.Chemscore.CHOScore>
0.0000

> <Gold.PLP.Chemscore.Metal>
0.0000

> <Gold.Chemscore.Hbonds>
donor molecule, donor type, donor heavy atom, donor atom, acceptor molecule, acceptor atom, score
      P1  H 10752 10764       L1    18  1.00

> <Gold.PLP.Chemscore.Internal.Correction>
0.4903

> <Gold.Rescore>
     Score         DG    S(hbond)    S(metal)    S(lipo)     H(rot)  DE(clash)    DE(int)     intcor
     10.01     -12.34       0.78        0.00      73.65       1.71       0.22       2.10       ----

> <Gold.Chemscore.Fitness>
10.0130

> <Gold.Chemscore.DG>
-12.3375

> <Gold.Chemscore.ZeroCoef>
-5.4800

> <Gold.Chemscore.Hbond>
0.7825

> <Gold.Chemscore.Metal>
0.0000

> <Gold.Chemscore.Lipo>
73.6478

> <Gold.Chemscore.Internal_Hbond>
0.0000

> <Gold.Chemscore.DEClash>
0.2215

> <Gold.Chemscore.DEInternal>
2.1030

> <Gold.Chemscore.Rot>
1.7081

> <Gold.Chemscore.Internal.Correction>
   9.000000E+99

> <Gold.Chemscore.Hbonds>
donor molecule, donor type, donor heavy atom, donor atom, acceptor molecule, acceptor atom, score
      P1  H 10752 10764       L1    18  0.69

> <Gold.Chemscore.Hbond.Weighted>
-2.6135

> <Gold.Chemscore.Metal.Weighted>
-0.0000

> <Gold.Chemscore.Lipo.Weighted>
-8.6168

> <Gold.Chemscore.Internal_Hbond.Weighted>
0.0000

> <Gold.Chemscore.DEClash.Weighted>
0.2215

> <Gold.Chemscore.DEInternal.Weighted>
2.1030

> <Gold.Chemscore.Rot.Weighted>
4.3728

> <Gold.Chemscore.Internal.Correction.Weighted>
   9.000000E+99

> <Gold.Protein.RotatedTorsions>
[ 6907 6896 6895 6894 ] final   93.58 input  -60.11 | X-H torsion
[ 7974 7965 7964 7962 ] final   -8.62 input  175.53 | X-H torsion
[ 8008 7997 7996 7995 ] final   74.33 input   59.86 | X-H torsion
[ 10167 10162 10161 10158 ] final  101.29 input  -65.29 | X-H torsion
[ 10718 10713 10712 10709 ] final  107.02 input   66.30 | X-H torsion
[ 10763 10752 10751 10750 ] final  -66.40 input  -60.55 | X-H torsion
[ 11005 11000 10999 10996 ] final   88.33 input  -57.11 | X-H torsion

> <Gold.Protein.ActiveResidues>
 VAL166  LYS551  ARG553  GLY616  TRP617  ASP618  TYR619  PRO620  LYS621  CYS622 
 ASP623  PHE694  ASN695  SER759  ASP760  ASP761  ALA762  ILE779  LEU786  VAL792 
 PHE793  MET794  SER795  GLU796  ALA797  LYS798  CYS799  TRP800  GLU811  SER814 

> <Gold.Protein.RotatedAtoms>
  152.5452  134.1326  159.8445 H   0  0  0  0  0  0  0  0  0  0  0  0  # atno 6907 bound_to 6896
  151.1370  133.4990  159.2605 H   0  0  0  0  0  0  0  0  0  0  0  0  # atno 6908 bound_to 6896
  151.1614  135.0285  159.8766 H   0  0  0  0  0  0  0  0  0  0  0  0  # atno 6909 bound_to 6896
  146.2275  140.2496  142.8347 H   0  0  0  0  0  0  0  0  0  0  0  0  # atno 7974 bound_to 7965
  155.7967  140.3477  155.5380 H   0  0  0  0  0  0  0  0  0  0  0  0  # atno 8008 bound_to 7997
  155.8579  140.0966  157.1653 H   0  0  0  0  0  0  0  0  0  0  0  0  # atno 8009 bound_to 7997
  154.4010  140.1364  156.3912 H   0  0  0  0  0  0  0  0  0  0  0  0  # atno 8010 bound_to 7997
  139.7451  144.7000  151.0516 H   0  0  0  0  0  0  0  0  0  0  0  0  # atno 10167 bound_to 10162
  157.6645  131.0863  150.6094 H   0  0  0  0  0  0  0  0  0  0  0  0  # atno 10718 bound_to 10713
  154.3593  135.6119  153.5682 H   0  0  0  0  0  0  0  0  0  0  0  0  # atno 10763 bound_to 10752
  152.9794  135.5811  154.4652 H   0  0  0  0  0  0  0  0  0  0  0  0  # atno 10764 bound_to 10752
  154.4387  135.2849  155.1840 H   0  0  0  0  0  0  0  0  0  0  0  0  # atno 10765 bound_to 10752
  139.8899  134.8480  156.2985 H   0  0  0  0  0  0  0  0  0  0  0  0  # atno 11005 bound_to 11000
  144.9422  140.8090  143.5623 LP  0  0  0  0  0  0  0  0  0  0  0  0  # atno 17320 bound_to 7965
  145.2448  139.2057  143.4973 LP  0  0  0  0  0  0  0  0  0  0  0  0  # atno 17321 bound_to 7965
  140.7791  143.4877  150.9934 LP  0  0  0  0  0  0  0  0  0  0  0  0  # atno 17342 bound_to 10162
  139.8565  143.7370  152.3175 LP  0  0  0  0  0  0  0  0  0  0  0  0  # atno 17343 bound_to 10162
  156.6395  130.4454  149.5757 LP  0  0  0  0  0  0  0  0  0  0  0  0  # atno 17370 bound_to 10713
  156.2220  130.6743  151.1377 LP  0  0  0  0  0  0  0  0  0  0  0  0  # atno 17371 bound_to 10713
  140.9929  133.7198  156.0841 LP  0  0  0  0  0  0  0  0  0  0  0  0  # atno 17394 bound_to 11000
  140.7601  134.3949  157.5527 LP  0  0  0  0  0  0  0  0  0  0  0  0  # atno 17395 bound_to 11000

$$$$
