AV-unprocessed.smi:1627|AV-procd|sdf|6517|dock2
  -GOLD-   22720 7193D 1   1.00000     0.00000
 Structure written by MMmdl.
 43 44  0  0  0  0  0  0  0  0  1 V2000
  154.6815  135.5575  163.9008 C   0  0  0  0  0  0  0  0  0  0  0  0
  155.1334  135.4661  162.4358 C   0  0  1  0  0  0  0  0  0  0  0  0
  154.7788  134.1703  161.9588 O   0  0  0  0  0  0  0  0  0  0  0  0
  155.5102  133.0861  162.5228 C   0  0  0  0  0  0  0  0  0  0  0  0
  154.7355  131.7818  162.2998 C   0  0  0  0  0  0  0  0  0  0  0  0
  155.5052  130.7496  162.6429 F   0  0  0  0  0  0  0  0  0  0  0  0
  153.6362  131.7638  163.0529 F   0  0  0  0  0  0  0  0  0  0  0  0
  154.4011  131.6583  161.0157 F   0  0  0  0  0  0  0  0  0  0  0  0
  154.4683  136.5551  161.5777 C   0  0  0  0  0  0  0  0  0  0  0  0
  153.8028  136.2322  160.5940 O   0  0  0  0  0  0  0  0  0  0  0  0
  154.7036  137.8241  161.9595 N   0  0  0  0  0  0  0  0  0  0  0  0
  154.2331  139.0307  161.3744 C   0  0  0  0  0  0  0  0  0  0  0  0
  154.5333  140.3245  161.8584 C   0  0  0  0  0  0  0  0  0  0  0  0
  154.0204  141.4453  161.1776 C   0  0  0  0  0  0  0  0  0  0  0  0
  153.2226  141.2520  160.0215 C   0  0  0  0  0  0  0  0  0  0  0  0
  152.6843  142.3340  159.2878 N   0  0  0  0  0  0  0  0  0  0  0  0
  151.5244  142.0315  158.4429 C   0  0  0  0  0  0  0  0  0  0  0  0
  151.3101  143.1168  157.3742 C   0  0  0  0  0  0  0  0  0  0  0  0
  151.2341  144.5117  158.0100 C   0  0  0  0  0  0  0  0  0  0  0  0
  152.4914  144.7694  158.8515 C   0  0  0  0  0  0  0  0  0  0  0  0
  152.6944  143.6636  159.9013 C   0  0  0  0  0  0  0  0  0  0  0  0
  152.9504  140.0089  159.5564 N   0  0  0  0  0  0  0  0  0  0  0  0
  153.4446  138.9381  160.2112 C   0  0  0  0  0  0  0  0  0  0  0  0
  154.9121  136.5345  164.3270 H   0  0  0  0  0  0  0  0  0  0  0  0
  155.1871  134.8065  164.5081 H   0  0  0  0  0  0  0  0  0  0  0  0
  153.6080  135.3919  164.0015 H   0  0  0  0  0  0  0  0  0  0  0  0
  156.2190  135.5787  162.4054 H   0  0  0  0  0  0  0  0  0  0  0  0
  156.4987  133.0033  162.0693 H   0  0  0  0  0  0  0  0  0  0  0  0
  155.6543  133.2508  163.5917 H   0  0  0  0  0  0  0  0  0  0  0  0
  155.3406  137.9400  162.7344 H   0  0  0  0  0  0  0  0  0  0  0  0
  155.1537  140.4831  162.7266 H   0  0  0  0  0  0  0  0  0  0  0  0
  154.2463  142.4285  161.5615 H   0  0  0  0  0  0  0  0  0  0  0  0
  151.6274  141.0692  157.9418 H   0  0  0  0  0  0  0  0  0  0  0  0
  150.6421  141.9584  159.0799 H   0  0  0  0  0  0  0  0  0  0  0  0
  152.1303  143.0867  156.6555 H   0  0  0  0  0  0  0  0  0  0  0  0
  150.3985  142.9112  156.8126 H   0  0  0  0  0  0  0  0  0  0  0  0
  151.1340  145.2743  157.2372 H   0  0  0  0  0  0  0  0  0  0  0  0
  150.3464  144.5835  158.6398 H   0  0  0  0  0  0  0  0  0  0  0  0
  153.3636  144.8151  158.1979 H   0  0  0  0  0  0  0  0  0  0  0  0
  152.4214  145.7402  159.3424 H   0  0  0  0  0  0  0  0  0  0  0  0
  151.9078  143.7144  160.6556 H   0  0  0  0  0  0  0  0  0  0  0  0
  153.6445  143.8387  160.4071 H   0  0  0  0  0  0  0  0  0  0  0  0
  153.1960  137.9738  159.7923 H   0  0  0  0  0  0  0  0  0  0  0  0
  1  2  1  0  0  0  0
  1 24  1  0  0  0  0
  1 25  1  0  0  0  0
  1 26  1  0  0  0  0
  2  3  1  0  0  0  0
  2  9  1  0  0  0  0
  2 27  1  0  0  0  0
  3  4  1  0  0  0  0
  4  5  1  0  0  0  0
  4 28  1  0  0  0  0
  4 29  1  0  0  0  0
  5  6  1  0  0  0  0
  5  7  1  0  0  0  0
  5  8  1  0  0  0  0
  9 10  2  0  0  0  0
  9 11  1  0  0  0  0
 11 12  1  0  0  0  0
 11 30  1  0  0  0  0
 12 23  1  0  0  0  0
 12 13  2  0  0  0  0
 13 14  1  0  0  0  0
 13 31  1  0  0  0  0
 14 15  2  0  0  0  0
 14 32  1  0  0  0  0
 15 16  1  0  0  0  0
 15 22  1  0  0  0  0
 16 21  1  0  0  0  0
 16 17  1  0  0  0  0
 17 18  1  0  0  0  0
 17 33  1  0  0  0  0
 17 34  1  0  0  0  0
 18 19  1  0  0  0  0
 18 35  1  0  0  0  0
 18 36  1  0  0  0  0
 19 20  1  0  0  0  0
 19 37  1  0  0  0  0
 19 38  1  0  0  0  0
 20 21  1  0  0  0  0
 20 39  1  0  0  0  0
 20 40  1  0  0  0  0
 21 41  1  0  0  0  0
 21 42  1  0  0  0  0
 22 23  2  0  0  0  0
 23 43  1  0  0  0  0
M  END
> <s_m_source_file>
AV-unprocessed.smi

> <i_m_source_file_index>
1627

> <i_lp_mmshare_version>
43012

> <i_f3d_flags>
0

> <s_epik_input>
RkMoRikoRilbQ0gyXU9bQ0BASF0oW0NIM10pQyg9TylbTkhdYzFbY0hdW2NIXWMobltjSF0xKU4yW0NIMl1bQ0gyXVtDSDJdW0NIMl1bQ0gyXTI=

> <s_epik_cmdline>
J2VwaWtfcHl0aG9uJywgJy1waCcsICc3LjAnLCAnLXRuJywgJzgnLCAnLW1hJywgJzIwMCcsICctbWV0YWxfYmluZGluZycsICctaW1hZScsICc8aW5maWxlLm1hZT4nLCAnLW9tYWUnLCAnPG91dGZpbGUubWFlPic=

> <r_lp_tautomer_probability>
1

> <r_epik_Ionization_Penalty>
0.0254771

> <r_epik_Ionization_Penalty_Charging>
0

> <r_epik_Ionization_Penalty_Neutral>
0.0254771

> <r_epik_State_Penalty>
0.0187406

> <r_epik_Charging_Adjusted_Penalty>
0.0187406

> <i_epik_Tot_Q>
0

> <i_epik_Tot_abs_Q>
0

> <r_epik_Metal_State_Penalty>
0.017939

> <b_epik_Metal_Only>
0

> <s_lp_Force_Field>
OPLS_2005

> <r_lp_Energy>
25.1621

> <b_lp_Chiralities_Consistent>
1

> <s_lp_Variant>
AV-unprocessed.smi:1627-2

> <Gold.Version>
5.8.1

> <Gold.Id.Protein>
6NUR|6NUR_protein|mol2

> <Gold.PLP.Fitness>
46.7959

> <Gold.PLP.PLP>
-44.2631

> <Gold.PLP.part.hbond>
-0.9773

> <Gold.PLP.part.metal>
0.0000

> <Gold.PLP.part.buried>
-4.9911

> <Gold.PLP.part.nonpolar>
-39.5054

> <Gold.PLP.part.repulsive>
0.0000

> <Gold.PLP.ligand.clash>
0.0000

> <Gold.PLP.ligand.torsion>
0.3555

> <Gold.PLP.Chemscore.Hbond>
0.9750

> <Gold.PLP.Chemscore.CHOScore>
0.0000

> <Gold.PLP.Chemscore.Metal>
0.0000

> <Gold.Chemscore.Hbonds>
donor molecule, donor type, donor heavy atom, donor atom, acceptor molecule, acceptor atom, score
      P1  H  6896  6907       L1    10  0.81

> <Gold.PLP.Chemscore.Internal.Correction>
0.3189

> <Gold.Rescore>
     Score         DG    S(hbond)    S(metal)    S(lipo)     H(rot)  DE(clash)    DE(int)     intcor
     15.98     -17.70       0.99        0.00     111.70       1.63       0.01       1.71       ----

> <Gold.Chemscore.Fitness>
15.9832

> <Gold.Chemscore.DG>
-17.6975

> <Gold.Chemscore.ZeroCoef>
-5.4800

> <Gold.Chemscore.Hbond>
0.9912

> <Gold.Chemscore.Metal>
0.0000

> <Gold.Chemscore.Lipo>
111.7031

> <Gold.Chemscore.Internal_Hbond>
0.0000

> <Gold.Chemscore.DEClash>
0.0051

> <Gold.Chemscore.DEInternal>
1.7092

> <Gold.Chemscore.Rot>
1.6260

> <Gold.Chemscore.Internal.Correction>
   9.000000E+99

> <Gold.Chemscore.Hbonds>
donor molecule, donor type, donor heavy atom, donor atom, acceptor molecule, acceptor atom, score
      P1  H  6896  6907       L1    10  0.80

> <Gold.Chemscore.Hbond.Weighted>
-3.3107

> <Gold.Chemscore.Metal.Weighted>
-0.0000

> <Gold.Chemscore.Lipo.Weighted>
-13.0693

> <Gold.Chemscore.Internal_Hbond.Weighted>
0.0000

> <Gold.Chemscore.DEClash.Weighted>
0.0051

> <Gold.Chemscore.DEInternal.Weighted>
1.7092

> <Gold.Chemscore.Rot.Weighted>
4.1625

> <Gold.Chemscore.Internal.Correction.Weighted>
   9.000000E+99

> <Gold.Protein.RotatedTorsions>
[ 6907 6896 6895 6894 ] final   45.86 input  -60.11 | X-H torsion
[ 7974 7965 7964 7962 ] final  -43.34 input  175.53 | X-H torsion
[ 8008 7997 7996 7995 ] final   47.26 input   59.86 | X-H torsion
[ 10167 10162 10161 10158 ] final  127.51 input  -65.29 | X-H torsion
[ 10718 10713 10712 10709 ] final  128.38 input   66.30 | X-H torsion
[ 10763 10752 10751 10750 ] final  -82.25 input  -60.55 | X-H torsion
[ 11005 11000 10999 10996 ] final  -18.07 input  -57.11 | X-H torsion

> <Gold.Protein.ActiveResidues>
 VAL166  LYS551  ARG553  GLY616  TRP617  ASP618  TYR619  PRO620  LYS621  CYS622 
 ASP623  PHE694  ASN695  SER759  ASP760  ASP761  ALA762  ILE779  LEU786  VAL792 
 PHE793  MET794  SER795  GLU796  ALA797  LYS798  CYS799  TRP800  GLU811  SER814 

> <Gold.Protein.RotatedAtoms>
  152.2496  134.8146  160.0447 H   0  0  0  0  0  0  0  0  0  0  0  0  # atno 6907 bound_to 6896
  151.8831  133.3494  159.3781 H   0  0  0  0  0  0  0  0  0  0  0  0  # atno 6908 bound_to 6896
  150.7079  134.4925  159.5566 H   0  0  0  0  0  0  0  0  0  0  0  0  # atno 6909 bound_to 6896
  146.0028  140.7054  142.9262 H   0  0  0  0  0  0  0  0  0  0  0  0  # atno 7974 bound_to 7965
  155.3662  140.3421  155.4242 H   0  0  0  0  0  0  0  0  0  0  0  0  # atno 8008 bound_to 7997
  156.1687  140.1624  156.8520 H   0  0  0  0  0  0  0  0  0  0  0  0  # atno 8009 bound_to 7997
  154.5211  140.0767  156.8156 H   0  0  0  0  0  0  0  0  0  0  0  0  # atno 8010 bound_to 7997
  139.5575  144.6858  151.4141 H   0  0  0  0  0  0  0  0  0  0  0  0  # atno 10167 bound_to 10162
  157.5250  131.1098  150.9097 H   0  0  0  0  0  0  0  0  0  0  0  0  # atno 10718 bound_to 10713
  154.5735  135.5598  153.7117 H   0  0  0  0  0  0  0  0  0  0  0  0  # atno 10763 bound_to 10752
  153.0056  135.6302  154.2081 H   0  0  0  0  0  0  0  0  0  0  0  0  # atno 10764 bound_to 10752
  154.2021  135.2877  155.2967 H   0  0  0  0  0  0  0  0  0  0  0  0  # atno 10765 bound_to 10752
  140.8232  133.8053  155.9681 H   0  0  0  0  0  0  0  0  0  0  0  0  # atno 11005 bound_to 11000
  144.6925  140.3263  143.7223 LP  0  0  0  0  0  0  0  0  0  0  0  0  # atno 17320 bound_to 7965
  145.7461  139.1779  143.2348 LP  0  0  0  0  0  0  0  0  0  0  0  0  # atno 17321 bound_to 7965
  140.6850  143.7996  150.7173 LP  0  0  0  0  0  0  0  0  0  0  0  0  # atno 17342 bound_to 10162
  140.1460  143.4399  152.2162 LP  0  0  0  0  0  0  0  0  0  0  0  0  # atno 17343 bound_to 10162
  156.9695  130.5486  149.5290 LP  0  0  0  0  0  0  0  0  0  0  0  0  # atno 17370 bound_to 10713
  156.0380  130.5466  150.8702 LP  0  0  0  0  0  0  0  0  0  0  0  0  # atno 17371 bound_to 10713
  140.9077  134.2299  157.5004 LP  0  0  0  0  0  0  0  0  0  0  0  0  # atno 17394 bound_to 11000
  139.8707  134.9736  156.4815 LP  0  0  0  0  0  0  0  0  0  0  0  0  # atno 17395 bound_to 11000

$$$$
