AV-unprocessed.smi:1244|AV-procd|sdf|5224|dock8
  -GOLD-   22720 4323D 1   1.00000     0.00000
 Structure written by MMmdl.
 55 57  0  0  0  0  0  0  0  0  2 V2000
  146.2198  138.1999  152.3849 C   0  0  0  0  0  0  0  0  0  0  0  0
  146.3468  138.7472  153.8178 C   0  0  2  0  0  0  0  0  0  0  0  0
  147.7431  139.3165  154.1383 C   0  0  0  0  0  0  0  0  0  0  0  0
  148.7379  138.2319  154.3150 N   0  3  1  0  0  0  0  0  0  0  0  0
  150.1063  138.7545  154.5539 C   0  0  0  0  0  0  0  0  0  0  0  0
  150.6806  138.3022  155.9105 C   0  0  0  0  0  0  0  0  0  0  0  0
  151.3407  139.4001  156.6066 N   0  0  0  0  0  0  0  0  0  0  0  0
  151.8305  139.3290  157.8523 C   0  0  0  0  0  0  0  0  0  0  0  0
  151.7898  138.3080  158.5390 O   0  0  0  0  0  0  0  0  0  0  0  0
  152.3791  140.4956  158.2292 N   0  0  0  0  0  0  0  0  0  0  0  0
  153.0253  140.8020  159.4601 C   0  0  0  0  0  0  0  0  0  0  0  0
  153.8116  139.8412  160.1419 C   0  0  0  0  0  0  0  0  0  0  0  0
  154.3725  140.1670  161.3885 C   0  0  0  0  0  0  0  0  0  0  0  0
  154.1134  141.4409  161.9207 C   0  0  0  0  0  0  0  0  0  0  0  0
  153.3561  142.3615  161.2916 N   0  0  0  0  0  0  0  0  0  0  0  0
  152.8198  142.0672  160.0815 C   0  0  0  0  0  0  0  0  0  0  0  0
  152.0491  143.0768  159.4610 N   0  0  0  0  0  0  0  0  0  0  0  0
  151.5765  144.2236  160.2296 C   0  0  0  0  0  0  0  0  0  0  0  0
  151.1506  145.2499  159.1843 C   0  0  0  0  0  0  0  0  0  0  0  0
  152.1777  145.0312  158.0776 C   0  0  0  0  0  0  0  0  0  0  0  0
  152.4563  143.5255  158.1324 C   0  0  0  0  0  0  0  0  0  0  0  0
  148.2740  137.2741  155.3473 C   0  0  0  0  0  0  0  0  0  0  0  0
  146.8923  136.7094  154.9708 C   0  0  1  0  0  0  0  0  0  0  0  0
  146.3379  135.7768  156.0533 C   0  0  0  0  0  0  0  0  0  0  0  0
  145.9702  137.7829  154.8010 O   0  0  0  0  0  0  0  0  0  0  0  0
  146.3809  138.9927  151.6538 H   0  0  0  0  0  0  0  0  0  0  0  0
  145.2238  137.7916  152.2119 H   0  0  0  0  0  0  0  0  0  0  0  0
  146.9450  137.4145  152.1743 H   0  0  0  0  0  0  0  0  0  0  0  0
  145.6287  139.5630  153.9059 H   0  0  0  0  0  0  0  0  0  0  0  0
  148.0581  139.9932  153.3428 H   0  0  0  0  0  0  0  0  0  0  0  0
  147.6969  139.9073  155.0548 H   0  0  0  0  0  0  0  0  0  0  0  0
  150.7611  138.3883  153.7617 H   0  0  0  0  0  0  0  0  0  0  0  0
  150.1075  139.8429  154.4758 H   0  0  0  0  0  0  0  0  0  0  0  0
  149.8899  137.9369  156.5645 H   0  0  0  0  0  0  0  0  0  0  0  0
  151.3790  137.4744  155.7742 H   0  0  0  0  0  0  0  0  0  0  0  0
  151.4189  140.2770  156.1118 H   0  0  0  0  0  0  0  0  0  0  0  0
  152.4290  141.2170  157.5245 H   0  0  0  0  0  0  0  0  0  0  0  0
  153.9741  138.8527  159.7404 H   0  0  0  0  0  0  0  0  0  0  0  0
  154.9753  139.4524  161.9290 H   0  0  0  0  0  0  0  0  0  0  0  0
  154.5190  141.7265  162.8799 H   0  0  0  0  0  0  0  0  0  0  0  0
  150.7518  143.9491  160.8882 H   0  0  0  0  0  0  0  0  0  0  0  0
  152.3794  144.6404  160.8392 H   0  0  0  0  0  0  0  0  0  0  0  0
  150.1504  145.0166  158.8167 H   0  0  0  0  0  0  0  0  0  0  0  0
  151.1439  146.2706  159.5678 H   0  0  0  0  0  0  0  0  0  0  0  0
  151.8279  145.3618  157.0995 H   0  0  0  0  0  0  0  0  0  0  0  0
  153.0898  145.5815  158.3118 H   0  0  0  0  0  0  0  0  0  0  0  0
  153.5059  143.3079  157.9284 H   0  0  0  0  0  0  0  0  0  0  0  0
  151.8523  143.0092  157.3857 H   0  0  0  0  0  0  0  0  0  0  0  0
  148.9795  136.4502  155.4472 H   0  0  0  0  0  0  0  0  0  0  0  0
  148.2284  137.7748  156.3160 H   0  0  0  0  0  0  0  0  0  0  0  0
  146.9701  136.1400  154.0444 H   0  0  0  0  0  0  0  0  0  0  0  0
  147.0031  134.9293  156.2200 H   0  0  0  0  0  0  0  0  0  0  0  0
  145.3635  135.3813  155.7650 H   0  0  0  0  0  0  0  0  0  0  0  0
  146.2172  136.2997  157.0025 H   0  0  0  0  0  0  0  0  0  0  0  0
  148.7701  137.7318  153.4379 H   0  0  0  0  0  0  0  0  0  0  0  0
  1  2  1  0  0  0  0
  1 26  1  0  0  0  0
  1 27  1  0  0  0  0
  1 28  1  0  0  0  0
  2 25  1  0  0  0  0
  2  3  1  0  0  0  0
  2 29  1  0  0  0  0
  3  4  1  0  0  0  0
  3 30  1  0  0  0  0
  3 31  1  0  0  0  0
  4  5  1  0  0  0  0
  4 22  1  0  0  0  0
  4 55  1  0  0  0  0
  5  6  1  0  0  0  0
  5 32  1  0  0  0  0
  5 33  1  0  0  0  0
  6  7  1  0  0  0  0
  6 34  1  0  0  0  0
  6 35  1  0  0  0  0
  7  8  1  0  0  0  0
  7 36  1  0  0  0  0
  8  9  2  0  0  0  0
  8 10  1  0  0  0  0
 10 11  1  0  0  0  0
 10 37  1  0  0  0  0
 11 16  1  0  0  0  0
 11 12  2  0  0  0  0
 12 13  1  0  0  0  0
 12 38  1  0  0  0  0
 13 14  2  0  0  0  0
 13 39  1  0  0  0  0
 14 15  1  0  0  0  0
 14 40  1  0  0  0  0
 15 16  2  0  0  0  0
 16 17  1  0  0  0  0
 17 21  1  0  0  0  0
 17 18  1  0  0  0  0
 18 19  1  0  0  0  0
 18 41  1  0  0  0  0
 18 42  1  0  0  0  0
 19 20  1  0  0  0  0
 19 43  1  0  0  0  0
 19 44  1  0  0  0  0
 20 21  1  0  0  0  0
 20 45  1  0  0  0  0
 20 46  1  0  0  0  0
 21 47  1  0  0  0  0
 21 48  1  0  0  0  0
 22 23  1  0  0  0  0
 22 49  1  0  0  0  0
 22 50  1  0  0  0  0
 23 24  1  0  0  0  0
 23 25  1  0  0  0  0
 23 51  1  0  0  0  0
 24 52  1  0  0  0  0
 24 53  1  0  0  0  0
 24 54  1  0  0  0  0
M  CHG  1   4   1
M  END
> <s_m_source_file>
AV-unprocessed.smi

> <i_m_source_file_index>
1244

> <i_lp_mmshare_version>
43012

> <i_f3d_flags>
0

> <s_epik_input>
W0NIM11bQ0BASF0xW0NIMl1OKFtDSDJdW0NASF0oTzEpW0NIM10pW0NIMl1bQ0gyXVtOSF1DKD1PKVtOSF1jMltjSF1bY0hdW2NIXW5jMk4zW0NIMl1bQ0gyXVtDSDJdW0NIMl0z

> <s_epik_cmdline>
J2VwaWtfcHl0aG9uJywgJy1waCcsICc3LjAnLCAnLXRuJywgJzgnLCAnLW1hJywgJzIwMCcsICctbWV0YWxfYmluZGluZycsICctaW1hZScsICc8aW5maWxlLm1hZT4nLCAnLW9tYWUnLCAnPG91dGZpbGUubWFlPic=

> <r_lp_tautomer_probability>
1

> <r_epik_Ionization_Penalty>
0.684913

> <r_epik_Ionization_Penalty_Charging>
0.602531

> <r_epik_Ionization_Penalty_Neutral>
0.0823829

> <r_epik_State_Penalty>
0.678827

> <r_epik_Charging_Adjusted_Penalty>
1.28136

> <i_epik_Tot_Q>
1

> <i_epik_Tot_abs_Q>
1

> <r_epik_Metal_State_Penalty>
0.67806

> <b_epik_Metal_Only>
0

> <s_lp_Force_Field>
OPLS_2005

> <r_lp_Energy>
45.4431

> <b_lp_Chiralities_Consistent>
1

> <s_lp_Variant>
AV-unprocessed.smi:1244-4

> <Gold.Version>
5.8.1

> <Gold.Id.Protein>
6NUR|6NUR_protein|mol2

> <Gold.PLP.Fitness>
42.9762

> <Gold.PLP.PLP>
-42.5681

> <Gold.PLP.part.hbond>
-1.0180

> <Gold.PLP.part.metal>
0.0000

> <Gold.PLP.part.buried>
-5.7254

> <Gold.PLP.part.nonpolar>
-36.3901

> <Gold.PLP.part.repulsive>
0.3361

> <Gold.PLP.ligand.clash>
2.6255

> <Gold.PLP.ligand.torsion>
1.5440

> <Gold.PLP.Chemscore.Hbond>
1.9175

> <Gold.PLP.Chemscore.CHOScore>
0.0000

> <Gold.PLP.Chemscore.Metal>
0.0000

> <Gold.Chemscore.Hbonds>
donor molecule, donor type, donor heavy atom, donor atom, acceptor molecule, acceptor atom, score
      L1  H     4    55       P1  7948  1.33

> <Gold.PLP.Chemscore.Internal.Correction>
0.3690

> <Gold.Rescore>
     Score         DG    S(hbond)    S(metal)    S(lipo)     H(rot)  DE(clash)    DE(int)     intcor
     15.33     -18.11       0.74        0.00     121.78       1.60       0.10       2.68       ----

> <Gold.Chemscore.Fitness>
15.3327

> <Gold.Chemscore.DG>
-18.1067

> <Gold.Chemscore.ZeroCoef>
-5.4800

> <Gold.Chemscore.Hbond>
0.7391

> <Gold.Chemscore.Metal>
0.0000

> <Gold.Chemscore.Lipo>
121.7814

> <Gold.Chemscore.Internal_Hbond>
0.0000

> <Gold.Chemscore.DEClash>
0.0988

> <Gold.Chemscore.DEInternal>
2.6752

> <Gold.Chemscore.Rot>
1.5978

> <Gold.Chemscore.Internal.Correction>
   9.000000E+99

> <Gold.Chemscore.Hbonds>
donor molecule, donor type, donor heavy atom, donor atom, acceptor molecule, acceptor atom, score
      L1  H     4    55       P1  7948  0.67

> <Gold.Chemscore.Hbond.Weighted>
-2.4687

> <Gold.Chemscore.Metal.Weighted>
-0.0000

> <Gold.Chemscore.Lipo.Weighted>
-14.2484

> <Gold.Chemscore.Internal_Hbond.Weighted>
0.0000

> <Gold.Chemscore.DEClash.Weighted>
0.0988

> <Gold.Chemscore.DEInternal.Weighted>
2.6752

> <Gold.Chemscore.Rot.Weighted>
4.0905

> <Gold.Chemscore.Internal.Correction.Weighted>
   9.000000E+99

> <Gold.Protein.RotatedTorsions>
[ 6907 6896 6895 6894 ] final  -54.56 input  -60.11 | X-H torsion
[ 7974 7965 7964 7962 ] final -141.19 input  175.53 | X-H torsion
[ 8008 7997 7996 7995 ] final -133.09 input   59.86 | X-H torsion
[ 10167 10162 10161 10158 ] final  105.50 input  -65.29 | X-H torsion
[ 10718 10713 10712 10709 ] final   97.00 input   66.30 | X-H torsion
[ 10763 10752 10751 10750 ] final   51.08 input  -60.55 | X-H torsion
[ 11005 11000 10999 10996 ] final  104.09 input  -57.11 | X-H torsion

> <Gold.Protein.ActiveResidues>
 VAL166  LYS551  ARG553  GLY616  TRP617  ASP618  TYR619  PRO620  LYS621  CYS622 
 ASP623  PHE694  ASN695  SER759  ASP760  ASP761  ALA762  ILE779  LEU786  VAL792 
 PHE793  MET794  SER795  GLU796  ALA797  LYS798  CYS799  TRP800  GLU811  SER814 

> <Gold.Protein.RotatedAtoms>
  150.8327  134.7587  159.6866 H   0  0  0  0  0  0  0  0  0  0  0  0  # atno 6907 bound_to 6896
  152.4429  134.5551  159.9888 H   0  0  0  0  0  0  0  0  0  0  0  0  # atno 6908 bound_to 6896
  151.5708  133.3352  159.3025 H   0  0  0  0  0  0  0  0  0  0  0  0  # atno 6909 bound_to 6896
  144.8538  140.6109  143.5373 H   0  0  0  0  0  0  0  0  0  0  0  0  # atno 7974 bound_to 7965
  155.3398  140.0471  157.3044 H   0  0  0  0  0  0  0  0  0  0  0  0  # atno 8008 bound_to 7997
  154.5283  140.2248  155.8814 H   0  0  0  0  0  0  0  0  0  0  0  0  # atno 8009 bound_to 7997
  156.1763  140.3084  155.9071 H   0  0  0  0  0  0  0  0  0  0  0  0  # atno 8010 bound_to 7997
  139.7087  144.7081  151.1063 H   0  0  0  0  0  0  0  0  0  0  0  0  # atno 10167 bound_to 10162
  157.6919  131.0596  150.4577 H   0  0  0  0  0  0  0  0  0  0  0  0  # atno 10718 bound_to 10713
  152.9785  135.5858  154.4356 H   0  0  0  0  0  0  0  0  0  0  0  0  # atno 10763 bound_to 10752
  154.3964  135.2768  155.2125 H   0  0  0  0  0  0  0  0  0  0  0  0  # atno 10764 bound_to 10752
  154.3975  135.6111  153.5932 H   0  0  0  0  0  0  0  0  0  0  0  0  # atno 10765 bound_to 10752
  139.8789  134.9287  156.5309 H   0  0  0  0  0  0  0  0  0  0  0  0  # atno 11005 bound_to 11000
  145.4447  139.1531  143.3951 LP  0  0  0  0  0  0  0  0  0  0  0  0  # atno 17320 bound_to 7965
  146.2806  140.4570  142.8778 LP  0  0  0  0  0  0  0  0  0  0  0  0  # atno 17321 bound_to 7965
  140.7728  143.5323  150.9409 LP  0  0  0  0  0  0  0  0  0  0  0  0  # atno 17342 bound_to 10162
  139.9007  143.6840  152.3131 LP  0  0  0  0  0  0  0  0  0  0  0  0  # atno 17343 bound_to 10162
  156.4924  130.4098  149.6399 LP  0  0  0  0  0  0  0  0  0  0  0  0  # atno 17370 bound_to 10713
  156.3405  130.7379  151.2324 LP  0  0  0  0  0  0  0  0  0  0  0  0  # atno 17371 bound_to 10713
  140.8381  133.8226  155.9049 LP  0  0  0  0  0  0  0  0  0  0  0  0  # atno 17394 bound_to 11000
  140.9264  134.2077  157.4893 LP  0  0  0  0  0  0  0  0  0  0  0  0  # atno 17395 bound_to 11000

$$$$
