AV-unprocessed.smi:414|AV-procd|sdf|2515|dock7
  -GOLD-   2262022463D 1   1.00000     0.00000
 Structure written by MMmdl.
 38 39  0  0  0  0  0  0  0  0  1 V2000
  145.5561  144.0679  153.3013 C   0  0  0  0  0  0  0  0  0  0  0  0
  146.0671  142.9728  154.2482 C   0  0  2  0  0  0  0  0  0  0  0  0
  146.4639  141.7010  153.4747 C   0  0  0  0  0  0  0  0  0  0  0  0
  146.9705  140.5977  154.4201 C   0  0  0  0  0  0  0  0  0  0  0  0
  145.9452  140.2597  155.5240 C   0  0  2  0  0  0  0  0  0  0  0  0
  144.7652  139.5911  154.9777 N   0  0  0  0  0  0  0  0  0  0  0  0
  144.1390  138.5386  155.5253 C   0  0  0  0  0  0  0  0  0  0  0  0
  144.5030  138.0108  156.5773 O   0  0  0  0  0  0  0  0  0  0  0  0
  142.9264  138.0069  154.7469 C   0  0  0  0  0  0  0  0  0  0  0  0
  143.2161  136.7945  153.9668 N   0  0  0  0  0  0  0  0  0  0  0  0
  143.7216  136.8989  152.6787 C   0  0  0  0  0  0  0  0  0  0  0  0
  144.0219  135.8282  151.9061 C   0  0  0  0  0  0  0  0  0  0  0  0
  143.8217  134.4741  152.4108 C   0  0  0  0  0  0  0  0  0  0  0  0
  144.0618  133.4423  151.7877 O   0  0  0  0  0  0  0  0  0  0  0  0
  143.3146  134.4105  153.7116 N   0  0  0  0  0  0  0  0  0  0  0  0
  143.0047  135.5100  154.5137 C   0  0  0  0  0  0  0  0  0  0  0  0
  142.5676  135.3416  155.6515 O   0  0  0  0  0  0  0  0  0  0  0  0
  145.5282  141.5336  156.2838 C   0  0  0  0  0  0  0  0  0  0  0  0
  145.0289  142.6406  155.3372 C   0  0  0  0  0  0  0  0  0  0  0  0
  143.1628  133.4930  154.1051 H   0  0  0  0  0  0  0  0  0  0  0  0
  144.6574  143.7479  152.7729 H   0  0  0  0  0  0  0  0  0  0  0  0
  146.3082  144.3235  152.5543 H   0  0  0  0  0  0  0  0  0  0  0  0
  145.3134  144.9788  153.8491 H   0  0  0  0  0  0  0  0  0  0  0  0
  146.9605  143.3572  154.7423 H   0  0  0  0  0  0  0  0  0  0  0  0
  145.6101  141.3318  152.9050 H   0  0  0  0  0  0  0  0  0  0  0  0
  147.2393  141.9364  152.7450 H   0  0  0  0  0  0  0  0  0  0  0  0
  147.2290  139.7063  153.8478 H   0  0  0  0  0  0  0  0  0  0  0  0
  147.8976  140.9310  154.8877 H   0  0  0  0  0  0  0  0  0  0  0  0
  146.4128  139.5808  156.2395 H   0  0  0  0  0  0  0  0  0  0  0  0
  144.3992  139.9583  154.1115 H   0  0  0  0  0  0  0  0  0  0  0  0
  142.1063  137.8265  155.4447 H   0  0  0  0  0  0  0  0  0  0  0  0
  142.5700  138.7975  154.0846 H   0  0  0  0  0  0  0  0  0  0  0  0
  143.8899  137.8833  152.2652 H   0  0  0  0  0  0  0  0  0  0  0  0
  144.4135  135.9745  150.9098 H   0  0  0  0  0  0  0  0  0  0  0  0
  144.7605  141.2990  157.0222 H   0  0  0  0  0  0  0  0  0  0  0  0
  146.3836  141.9085  156.8472 H   0  0  0  0  0  0  0  0  0  0  0  0
  144.7989  143.5359  155.9159 H   0  0  0  0  0  0  0  0  0  0  0  0
  144.0925  142.3302  154.8715 H   0  0  0  0  0  0  0  0  0  0  0  0
  1  2  1  0  0  0  0
  1 21  1  0  0  0  0
  1 22  1  0  0  0  0
  1 23  1  0  0  0  0
  2 19  1  0  0  0  0
  2  3  1  0  0  0  0
  2 24  1  0  0  0  0
  3  4  1  0  0  0  0
  3 25  1  0  0  0  0
  3 26  1  0  0  0  0
  4  5  1  0  0  0  0
  4 27  1  0  0  0  0
  4 28  1  0  0  0  0
  5  6  1  0  0  0  0
  5 18  1  0  0  0  0
  5 29  1  0  0  0  0
  6  7  1  0  0  0  0
  6 30  1  0  0  0  0
  7  8  2  0  0  0  0
  7  9  1  0  0  0  0
  9 10  1  0  0  0  0
  9 31  1  0  0  0  0
  9 32  1  0  0  0  0
 10 16  1  0  0  0  0
 10 11  1  0  0  0  0
 11 12  2  0  0  0  0
 11 33  1  0  0  0  0
 12 13  1  0  0  0  0
 12 34  1  0  0  0  0
 13 14  2  0  0  0  0
 13 15  1  0  0  0  0
 15 20  1  0  0  0  0
 15 16  1  0  0  0  0
 16 17  2  0  0  0  0
 18 19  1  0  0  0  0
 18 35  1  0  0  0  0
 18 36  1  0  0  0  0
 19 37  1  0  0  0  0
 19 38  1  0  0  0  0
M  END
> <s_m_source_file>
AV-unprocessed.smi

> <i_m_source_file_index>
414

> <i_lp_mmshare_version>
43012

> <i_f3d_flags>
0

> <s_epik_input>
W0NIM11bQ0BASF0xW0NIMl1bQ0gyXVtDQEhdKFtDSDJdW0NIMl0xKVtOSF1DKD1PKVtDSDJdbjJbY0hdW2NIXWMoPU8pW25IXWMyPU8=

> <s_epik_cmdline>
J2VwaWtfcHl0aG9uJywgJy1waCcsICc3LjAnLCAnLXRuJywgJzgnLCAnLW1hJywgJzIwMCcsICctbWV0YWxfYmluZGluZycsICctaW1hZScsICc8aW5maWxlLm1hZT4nLCAnLW9tYWUnLCAnPG91dGZpbGUubWFlPic=

> <r_lp_tautomer_probability>
0.999537

> <r_epik_Ionization_Penalty>
0.00309124

> <r_epik_Ionization_Penalty_Charging>
0.00309122

> <r_epik_Ionization_Penalty_Neutral>
1.90469e-08

> <r_epik_State_Penalty>
0.00217484

> <r_epik_Charging_Adjusted_Penalty>
0.00526606

> <i_epik_Tot_Q>
0

> <i_epik_Tot_abs_Q>
0

> <r_epik_Metal_State_Penalty>
0.362537

> <b_epik_Metal_Only>
0

> <s_lp_Force_Field>
OPLS_2005

> <r_lp_Energy>
7.68142

> <b_lp_Chiralities_Consistent>
1

> <s_lp_Variant>
AV-unprocessed.smi:414-2

> <Gold.Version>
5.8.1

> <Gold.Id.Protein>
6NUR|6NUR_protein|mol2

> <Gold.PLP.Fitness>
35.7092

> <Gold.PLP.PLP>
-25.3778

> <Gold.PLP.part.hbond>
-3.0000

> <Gold.PLP.part.metal>
0.0000

> <Gold.PLP.part.buried>
-3.7755

> <Gold.PLP.part.nonpolar>
-18.4138

> <Gold.PLP.part.repulsive>
0.2222

> <Gold.PLP.ligand.clash>
0.0000

> <Gold.PLP.ligand.torsion>
0.8864

> <Gold.PLP.Chemscore.Hbond>
2.0967

> <Gold.PLP.Chemscore.CHOScore>
1.9355

> <Gold.PLP.Chemscore.Metal>
0.0000

> <Gold.Chemscore.Hbonds>
donor molecule, donor type, donor heavy atom, donor atom, acceptor molecule, acceptor atom, score
      L1  H     6    30       P1 10175  1.00
      L1  H    15    20       P1 10957  1.00
      P1  H 11000 11005       L1    17  0.07
      L1  C    11    33       P1 10171  0.94
      L1  C    11    33       P1 10175  0.91

> <Gold.PLP.Chemscore.Internal.Correction>
0.0075

> <Gold.Rescore>
     Score         DG    S(hbond)    S(metal)    S(lipo)     H(rot)  DE(clash)    DE(int)     intcor
     13.44     -14.16       2.35        0.00      44.03       1.69       0.02       0.71       ----

> <Gold.Chemscore.Fitness>
13.4393

> <Gold.Chemscore.DG>
-14.1631

> <Gold.Chemscore.ZeroCoef>
-5.4800

> <Gold.Chemscore.Hbond>
2.3507

> <Gold.Chemscore.Metal>
0.0000

> <Gold.Chemscore.Lipo>
44.0294

> <Gold.Chemscore.Internal_Hbond>
0.0000

> <Gold.Chemscore.DEClash>
0.0155

> <Gold.Chemscore.DEInternal>
0.7082

> <Gold.Chemscore.Rot>
1.6874

> <Gold.Chemscore.Internal.Correction>
   9.000000E+99

> <Gold.Chemscore.Hbonds>
donor molecule, donor type, donor heavy atom, donor atom, acceptor molecule, acceptor atom, score
      L1  H     6    30       P1 10175  1.00
      L1  H    15    20       P1 10957  1.00
      P1  H 11000 11005       L1    17  0.07

> <Gold.Chemscore.Hbond.Weighted>
-7.8514

> <Gold.Chemscore.Metal.Weighted>
-0.0000

> <Gold.Chemscore.Lipo.Weighted>
-5.1514

> <Gold.Chemscore.Internal_Hbond.Weighted>
0.0000

> <Gold.Chemscore.DEClash.Weighted>
0.0155

> <Gold.Chemscore.DEInternal.Weighted>
0.7082

> <Gold.Chemscore.Rot.Weighted>
4.3198

> <Gold.Chemscore.Internal.Correction.Weighted>
   9.000000E+99

> <Gold.Protein.RotatedTorsions>
[ 6907 6896 6895 6894 ] final  -48.49 input  -60.11 | X-H torsion
[ 7974 7965 7964 7962 ] final   -1.93 input  175.53 | X-H torsion
[ 8008 7997 7996 7995 ] final   -1.87 input   59.86 | X-H torsion
[ 10167 10162 10161 10158 ] final   35.45 input  -65.29 | X-H torsion
[ 10718 10713 10712 10709 ] final -117.60 input   66.30 | X-H torsion
[ 10763 10752 10751 10750 ] final -100.45 input  -60.55 | X-H torsion
[ 11005 11000 10999 10996 ] final  -32.61 input  -57.11 | X-H torsion

> <Gold.Protein.ActiveResidues>
 VAL166  LYS551  ARG553  GLY616  TRP617  ASP618  TYR619  PRO620  LYS621  CYS622 
 ASP623  PHE694  ASN695  SER759  ASP760  ASP761  ALA762  ILE779  LEU786  VAL792 
 PHE793  MET794  SER795  GLU796  ALA797  LYS798  CYS799  TRP800  GLU811  SER814 

> <Gold.Protein.RotatedAtoms>
  150.8900  134.8302  159.7286 H   0  0  0  0  0  0  0  0  0  0  0  0  # atno 6907 bound_to 6896
  152.4831  134.4663  159.9631 H   0  0  0  0  0  0  0  0  0  0  0  0  # atno 6908 bound_to 6896
  151.4727  133.3526  159.2861 H   0  0  0  0  0  0  0  0  0  0  0  0  # atno 6909 bound_to 6896
  146.2411  140.1494  142.8334 H   0  0  0  0  0  0  0  0  0  0  0  0  # atno 7974 bound_to 7965
  154.6419  140.2548  155.7312 H   0  0  0  0  0  0  0  0  0  0  0  0  # atno 8008 bound_to 7997
  156.2533  140.2885  156.0737 H   0  0  0  0  0  0  0  0  0  0  0  0  # atno 8009 bound_to 7997
  155.1583  140.0383  157.2827 H   0  0  0  0  0  0  0  0  0  0  0  0  # atno 8010 bound_to 7997
  140.4220  144.1445  150.6149 H   0  0  0  0  0  0  0  0  0  0  0  0  # atno 10167 bound_to 10162
  156.1045  130.6199  150.9184 H   0  0  0  0  0  0  0  0  0  0  0  0  # atno 10718 bound_to 10713
  154.7580  135.4934  153.9411 H   0  0  0  0  0  0  0  0  0  0  0  0  # atno 10763 bound_to 10752
  153.1218  135.6733  153.9331 H   0  0  0  0  0  0  0  0  0  0  0  0  # atno 10764 bound_to 10752
  153.9060  135.3104  155.3427 H   0  0  0  0  0  0  0  0  0  0  0  0  # atno 10765 bound_to 10752
  140.9566  133.7189  156.1303 H   0  0  0  0  0  0  0  0  0  0  0  0  # atno 11005 bound_to 11000
  145.0180  140.8770  143.5184 LP  0  0  0  0  0  0  0  0  0  0  0  0  # atno 17320 bound_to 7965
  145.1538  139.2499  143.5427 LP  0  0  0  0  0  0  0  0  0  0  0  0  # atno 17321 bound_to 7965
  140.4522  143.2482  151.9332 LP  0  0  0  0  0  0  0  0  0  0  0  0  # atno 17342 bound_to 10162
  139.4783  144.5550  151.8327 LP  0  0  0  0  0  0  0  0  0  0  0  0  # atno 17343 bound_to 10162
  157.6220  131.0929  150.8604 LP  0  0  0  0  0  0  0  0  0  0  0  0  # atno 17370 bound_to 10713
  156.8726  130.5151  149.5296 LP  0  0  0  0  0  0  0  0  0  0  0  0  # atno 17371 bound_to 10713
  140.7527  134.4027  157.5539 LP  0  0  0  0  0  0  0  0  0  0  0  0  # atno 17394 bound_to 11000
  139.8864  134.8910  156.2586 LP  0  0  0  0  0  0  0  0  0  0  0  0  # atno 17395 bound_to 11000

$$$$
