AV-unprocessed.smi:1768|AV-procd|sdf|7147|dock3
  -GOLD-   22720 8383D 1   1.00000     0.00000
 Structure written by MMmdl.
 32 33  0  0  0  0  0  0  0  0  2 V2000
  145.2223  135.0060  162.4634 C   0  0  0  0  0  0  0  0  0  0  0  0
  146.4927  135.5005  161.8618 C   0  0  0  0  0  0  0  0  0  0  0  0
  147.4157  136.1594  162.5665 N   0  0  0  0  0  0  0  0  0  0  0  0
  148.5104  136.5142  161.7912 N   0  0  0  0  0  0  0  0  0  0  0  0
  148.4045  136.1125  160.5167 C   0  0  0  0  0  0  0  0  0  0  0  0
  149.3574  136.3600  159.6026 N   0  5  0  0  0  0  0  0  0  0  0  0
  150.1761  137.4266  159.7501 C   0  0  0  0  0  0  0  0  0  0  0  0
  149.8781  138.5081  160.2617 O   0  0  0  0  0  0  0  0  0  0  0  0
  151.4149  137.2194  159.2798 N   0  0  0  0  0  0  0  0  0  0  0  0
  152.5347  138.1601  159.3083 C   0  0  2  0  0  0  0  0  0  0  0  0
  153.0580  138.3614  157.8789 C   0  0  0  0  0  0  0  0  0  0  0  0
  153.6315  137.6389  160.2566 C   0  0  2  0  0  0  0  0  0  0  0  0
  154.7775  138.6180  160.5091 C   0  0  0  0  0  0  0  0  0  0  0  0
  155.8974  137.7083  160.9787 C   0  0  0  0  0  0  0  0  0  0  0  0
  155.5406  136.3460  160.3749 C   0  0  0  0  0  0  0  0  0  0  0  0
  154.3118  136.5330  159.6817 O   0  0  0  0  0  0  0  0  0  0  0  0
  146.8971  135.2649  160.1697 S   0  0  0  0  0  0  0  0  0  0  0  0
  145.4378  134.2675  163.2357 H   0  0  0  0  0  0  0  0  0  0  0  0
  144.5964  134.5420  161.7010 H   0  0  0  0  0  0  0  0  0  0  0  0
  144.6715  135.8335  162.9112 H   0  0  0  0  0  0  0  0  0  0  0  0
  151.6002  136.3143  158.8730 H   0  0  0  0  0  0  0  0  0  0  0  0
  152.2054  139.1316  159.6799 H   0  0  0  0  0  0  0  0  0  0  0  0
  153.8837  139.0732  157.8584 H   0  0  0  0  0  0  0  0  0  0  0  0
  152.2747  138.7493  157.2271 H   0  0  0  0  0  0  0  0  0  0  0  0
  153.4152  137.4245  157.4504 H   0  0  0  0  0  0  0  0  0  0  0  0
  153.1972  137.3286  161.2092 H   0  0  0  0  0  0  0  0  0  0  0  0
  155.0649  139.1087  159.5781 H   0  0  0  0  0  0  0  0  0  0  0  0
  154.5254  139.3915  161.2351 H   0  0  0  0  0  0  0  0  0  0  0  0
  156.8750  138.0662  160.6548 H   0  0  0  0  0  0  0  0  0  0  0  0
  155.9059  137.6442  162.0675 H   0  0  0  0  0  0  0  0  0  0  0  0
  156.3070  135.9862  159.6878 H   0  0  0  0  0  0  0  0  0  0  0  0
  155.4098  135.5988  161.1585 H   0  0  0  0  0  0  0  0  0  0  0  0
  1  2  1  0  0  0  0
  1 18  1  0  0  0  0
  1 19  1  0  0  0  0
  1 20  1  0  0  0  0
  2 17  1  0  0  0  0
  2  3  2  0  0  0  0
  3  4  1  0  0  0  0
  4  5  2  0  0  0  0
  5  6  1  0  0  0  0
  5 17  1  0  0  0  0
  6  7  1  0  0  0  0
  7  8  2  0  0  0  0
  7  9  1  0  0  0  0
  9 10  1  0  0  0  0
  9 21  1  0  0  0  0
 10 11  1  0  0  0  0
 10 12  1  0  0  0  0
 10 22  1  0  0  0  0
 11 23  1  0  0  0  0
 11 24  1  0  0  0  0
 11 25  1  0  0  0  0
 12 16  1  0  0  0  0
 12 13  1  0  0  0  0
 12 26  1  0  0  0  0
 13 14  1  0  0  0  0
 13 27  1  0  0  0  0
 13 28  1  0  0  0  0
 14 15  1  0  0  0  0
 14 29  1  0  0  0  0
 14 30  1  0  0  0  0
 15 16  1  0  0  0  0
 15 31  1  0  0  0  0
 15 32  1  0  0  0  0
M  CHG  1   6  -1
M  END
> <s_m_source_file>
AV-unprocessed.smi

> <i_m_source_file_index>
1768

> <i_lp_mmshare_version>
43012

> <i_f3d_flags>
0

> <s_epik_input>
W0NIM11jMW5uYyhzMSlbTkhdQyg9TylbTkhdW0NASF0oW0NIM10pW0NAQEhdMltDSDJdW0NIMl1bQ0gyXU8y

> <s_epik_cmdline>
J2VwaWtfcHl0aG9uJywgJy1waCcsICc3LjAnLCAnLXRuJywgJzgnLCAnLW1hJywgJzIwMCcsICctbWV0YWxfYmluZGluZycsICctaW1hZScsICc8aW5maWxlLm1hZT4nLCAnLW9tYWUnLCAnPG91dGZpbGUubWFlPic=

> <r_lp_tautomer_probability>
1

> <r_epik_Ionization_Penalty>
4.3376

> <r_epik_Ionization_Penalty_Charging>
4.19392

> <r_epik_Ionization_Penalty_Neutral>
0.143681

> <r_epik_State_Penalty>
4.19342

> <r_epik_Charging_Adjusted_Penalty>
8.38735

> <i_epik_Tot_Q>
-1

> <i_epik_Tot_abs_Q>
1

> <r_epik_Metal_State_Penalty>
0.686065

> <b_epik_Metal_Only>
1

> <s_lp_Force_Field>
OPLS_2005

> <r_lp_Energy>
15.5769

> <b_lp_Chiralities_Consistent>
1

> <s_lp_Variant>
AV-unprocessed.smi:1768-5

> <Gold.Version>
5.8.1

> <Gold.Id.Protein>
6NUR|6NUR_protein|mol2

> <Gold.PLP.Fitness>
39.4414

> <Gold.PLP.PLP>
-28.9788

> <Gold.PLP.part.hbond>
-3.4590

> <Gold.PLP.part.metal>
0.0000

> <Gold.PLP.part.buried>
-5.1693

> <Gold.PLP.part.nonpolar>
-21.0994

> <Gold.PLP.part.repulsive>
0.1492

> <Gold.PLP.ligand.clash>
0.0000

> <Gold.PLP.ligand.torsion>
0.4983

> <Gold.PLP.Chemscore.Hbond>
3.8028

> <Gold.PLP.Chemscore.CHOScore>
0.0000

> <Gold.PLP.Chemscore.Metal>
0.0000

> <Gold.Chemscore.Hbonds>
donor molecule, donor type, donor heavy atom, donor atom, acceptor molecule, acceptor atom, score
      P1  H  6896  6907       L1     6  1.33
      P1  H  6931  6943       L1     4  1.00

> <Gold.PLP.Chemscore.Internal.Correction>
0.0508

> <Gold.Rescore>
     Score         DG    S(hbond)    S(metal)    S(lipo)     H(rot)  DE(clash)    DE(int)     intcor
     14.78     -15.83       1.87        0.00      62.93       1.28       0.00       1.05       ----

> <Gold.Chemscore.Fitness>
14.7825

> <Gold.Chemscore.DG>
-15.8305

> <Gold.Chemscore.ZeroCoef>
-5.4800

> <Gold.Chemscore.Hbond>
1.8737

> <Gold.Chemscore.Metal>
0.0000

> <Gold.Chemscore.Lipo>
62.9323

> <Gold.Chemscore.Internal_Hbond>
0.0000

> <Gold.Chemscore.DEClash>
0.0000

> <Gold.Chemscore.DEInternal>
1.0480

> <Gold.Chemscore.Rot>
1.2776

> <Gold.Chemscore.Internal.Correction>
   9.000000E+99

> <Gold.Chemscore.Hbonds>
donor molecule, donor type, donor heavy atom, donor atom, acceptor molecule, acceptor atom, score
      P1  H  6896  6907       L1     6  0.07
      P1  H  6931  6943       L1     4  0.76

> <Gold.Chemscore.Hbond.Weighted>
-6.2581

> <Gold.Chemscore.Metal.Weighted>
-0.0000

> <Gold.Chemscore.Lipo.Weighted>
-7.3631

> <Gold.Chemscore.Internal_Hbond.Weighted>
0.0000

> <Gold.Chemscore.DEClash.Weighted>
0.0000

> <Gold.Chemscore.DEInternal.Weighted>
1.0480

> <Gold.Chemscore.Rot.Weighted>
3.2706

> <Gold.Chemscore.Internal.Correction.Weighted>
   9.000000E+99

> <Gold.Protein.RotatedTorsions>
[ 6907 6896 6895 6894 ] final  -45.47 input  -60.11 | X-H torsion
[ 7974 7965 7964 7962 ] final    6.25 input  175.53 | X-H torsion
[ 8008 7997 7996 7995 ] final   17.34 input   59.86 | X-H torsion
[ 10167 10162 10161 10158 ] final   87.92 input  -65.29 | X-H torsion
[ 10718 10713 10712 10709 ] final  159.42 input   66.30 | X-H torsion
[ 10763 10752 10751 10750 ] final   25.01 input  -60.55 | X-H torsion
[ 11005 11000 10999 10996 ] final   41.29 input  -57.11 | X-H torsion

> <Gold.Protein.ActiveResidues>
 VAL166  LYS551  ARG553  GLY616  TRP617  ASP618  TYR619  PRO620  LYS621  CYS622 
 ASP623  PHE694  ASN695  SER759  ASP760  ASP761  ALA762  ILE779  LEU786  VAL792 
 PHE793  MET794  SER795  GLU796  ALA797  LYS798  CYS799  TRP800  GLU811  SER814 

> <Gold.Protein.RotatedAtoms>
  150.9216  134.8633  159.7492 H   0  0  0  0  0  0  0  0  0  0  0  0  # atno 6907 bound_to 6896
  152.4995  134.4210  159.9490 H   0  0  0  0  0  0  0  0  0  0  0  0  # atno 6908 bound_to 6896
  151.4244  133.3649  159.2795 H   0  0  0  0  0  0  0  0  0  0  0  0  # atno 6909 bound_to 6896
  146.2436  140.0261  142.8393 H   0  0  0  0  0  0  0  0  0  0  0  0  # atno 7974 bound_to 7965
  154.8900  140.2985  155.5376 H   0  0  0  0  0  0  0  0  0  0  0  0  # atno 8008 bound_to 7997
  156.3021  140.2426  156.3848 H   0  0  0  0  0  0  0  0  0  0  0  0  # atno 8009 bound_to 7997
  154.8629  140.0404  157.1665 H   0  0  0  0  0  0  0  0  0  0  0  0  # atno 8010 bound_to 7997
  139.8725  144.6485  150.8934 H   0  0  0  0  0  0  0  0  0  0  0  0  # atno 10167 bound_to 10162
  157.1645  131.0595  151.2215 H   0  0  0  0  0  0  0  0  0  0  0  0  # atno 10718 bound_to 10713
  153.0722  135.6592  154.0222 H   0  0  0  0  0  0  0  0  0  0  0  0  # atno 10763 bound_to 10752
  153.9865  135.2950  155.3417 H   0  0  0  0  0  0  0  0  0  0  0  0  # atno 10764 bound_to 10752
  154.7100  135.5209  153.8722 H   0  0  0  0  0  0  0  0  0  0  0  0  # atno 10765 bound_to 10752
  140.1849  134.4058  155.8179 H   0  0  0  0  0  0  0  0  0  0  0  0  # atno 11005 bound_to 11000
  145.1197  140.9455  143.4608 LP  0  0  0  0  0  0  0  0  0  0  0  0  # atno 17320 bound_to 7965
  145.0493  139.3194  143.5936 LP  0  0  0  0  0  0  0  0  0  0  0  0  # atno 17321 bound_to 7965
  140.7758  143.3652  151.1752 LP  0  0  0  0  0  0  0  0  0  0  0  0  # atno 17342 bound_to 10162
  139.7271  143.9131  152.3006 LP  0  0  0  0  0  0  0  0  0  0  0  0  # atno 17343 bound_to 10162
  157.4102  130.7381  149.6833 LP  0  0  0  0  0  0  0  0  0  0  0  0  # atno 17370 bound_to 10713
  155.9748  130.4097  150.3894 LP  0  0  0  0  0  0  0  0  0  0  0  0  # atno 17371 bound_to 10713
  141.2224  133.7018  156.7995 LP  0  0  0  0  0  0  0  0  0  0  0  0  # atno 17394 bound_to 11000
  140.2225  134.8746  157.3392 LP  0  0  0  0  0  0  0  0  0  0  0  0  # atno 17395 bound_to 11000

$$$$
