AV-unprocessed.smi:1766|AV-procd|sdf|7138|dock8
  -GOLD-   22720 8373D 1   1.00000     0.00000
 Structure written by MMmdl.
 40 42  0  0  0  0  0  0  0  0  2 V2000
  150.7576  137.2374  156.6904 N   0  0  0  0  0  0  0  0  0  0  0  0
  151.4088  137.5298  155.5618 C   0  0  0  0  0  0  0  0  0  0  0  0
  151.7656  136.6589  154.7700 O   0  0  0  0  0  0  0  0  0  0  0  0
  151.7017  139.0101  155.2951 C   0  0  0  0  0  0  0  0  0  0  0  0
  150.4390  139.8090  155.1834 C   0  0  0  0  0  0  0  0  0  0  0  0
  149.6196  139.8546  154.0945 N   0  3  0  0  0  0  0  0  0  0  0  0
  148.5406  140.7012  154.3488 C   0  0  0  0  0  0  0  0  0  0  0  0
  147.4577  141.0581  153.5512 C   0  0  0  0  0  0  0  0  0  0  0  0
  146.5221  141.9490  154.1161 C   0  0  0  0  0  0  0  0  0  0  0  0
  146.6837  142.4508  155.4234 C   0  0  0  0  0  0  0  0  0  0  0  0
  147.7878  142.0847  156.2203 C   0  0  0  0  0  0  0  0  0  0  0  0
  148.7077  141.1996  155.6571 C   0  0  0  0  0  0  0  0  0  0  0  0
  149.8878  140.6162  156.1369 N   0  0  0  0  0  0  0  0  0  0  0  0
  150.3510  140.9211  157.5012 C   0  0  0  0  0  0  0  0  0  0  0  0
  151.3081  142.1299  157.5485 C   0  0  1  0  0  0  0  0  0  0  0  0
  150.6167  143.2576  157.0534 O   0  0  0  0  0  0  0  0  0  0  0  0
  151.8814  142.3674  158.9387 C   0  0  0  0  0  0  0  0  0  0  0  0
  151.6280  143.5739  159.6283 C   0  0  0  0  0  0  0  0  0  0  0  0
  152.1368  143.7691  160.9271 C   0  0  0  0  0  0  0  0  0  0  0  0
  152.9018  142.7603  161.5434 C   0  0  0  0  0  0  0  0  0  0  0  0
  153.3864  142.9457  162.7939 F   0  0  0  0  0  0  0  0  0  0  0  0
  153.1601  141.5569  160.8597 C   0  0  0  0  0  0  0  0  0  0  0  0
  152.6521  141.3614  159.5609 C   0  0  0  0  0  0  0  0  0  0  0  0
  150.5479  136.2743  156.9113 H   0  0  0  0  0  0  0  0  0  0  0  0
  150.4812  137.9745  157.3231 H   0  0  0  0  0  0  0  0  0  0  0  0
  152.3141  139.4241  156.0973 H   0  0  0  0  0  0  0  0  0  0  0  0
  152.2797  139.0995  154.3755 H   0  0  0  0  0  0  0  0  0  0  0  0
  147.3320  140.6748  152.5493 H   0  0  0  0  0  0  0  0  0  0  0  0
  145.6634  142.2533  153.5351 H   0  0  0  0  0  0  0  0  0  0  0  0
  145.9460  143.1310  155.8240 H   0  0  0  0  0  0  0  0  0  0  0  0
  147.8963  142.4757  157.2208 H   0  0  0  0  0  0  0  0  0  0  0  0
  149.4610  141.1304  158.0962 H   0  0  0  0  0  0  0  0  0  0  0  0
  150.8039  140.0338  157.9434 H   0  0  0  0  0  0  0  0  0  0  0  0
  152.1363  141.9546  156.8612 H   0  0  0  0  0  0  0  0  0  0  0  0
  150.1843  143.0156  156.2486 H   0  0  0  0  0  0  0  0  0  0  0  0
  151.0329  144.3493  159.1683 H   0  0  0  0  0  0  0  0  0  0  0  0
  151.9368  144.6915  161.4519 H   0  0  0  0  0  0  0  0  0  0  0  0
  153.7457  140.7821  161.3322 H   0  0  0  0  0  0  0  0  0  0  0  0
  152.8477  140.4314  159.0476 H   0  0  0  0  0  0  0  0  0  0  0  0
  149.7910  139.3447  153.2375 H   0  0  0  0  0  0  0  0  0  0  0  0
  1  2  1  0  0  0  0
  1 24  1  0  0  0  0
  1 25  1  0  0  0  0
  2  3  2  0  0  0  0
  2  4  1  0  0  0  0
  4  5  1  0  0  0  0
  4 26  1  0  0  0  0
  4 27  1  0  0  0  0
  5 13  1  0  0  0  0
  5  6  2  0  0  0  0
  6  7  1  0  0  0  0
  6 40  1  0  0  0  0
  7 12  2  0  0  0  0
  7  8  1  0  0  0  0
  8  9  2  0  0  0  0
  8 28  1  0  0  0  0
  9 10  1  0  0  0  0
  9 29  1  0  0  0  0
 10 11  2  0  0  0  0
 10 30  1  0  0  0  0
 11 12  1  0  0  0  0
 11 31  1  0  0  0  0
 12 13  1  0  0  0  0
 13 14  1  0  0  0  0
 14 15  1  0  0  0  0
 14 32  1  0  0  0  0
 14 33  1  0  0  0  0
 15 16  1  0  0  0  0
 15 17  1  0  0  0  0
 15 34  1  0  0  0  0
 16 35  1  0  0  0  0
 17 23  1  0  0  0  0
 17 18  2  0  0  0  0
 18 19  1  0  0  0  0
 18 36  1  0  0  0  0
 19 20  2  0  0  0  0
 19 37  1  0  0  0  0
 20 21  1  0  0  0  0
 20 22  1  0  0  0  0
 22 23  2  0  0  0  0
 22 38  1  0  0  0  0
 23 39  1  0  0  0  0
M  CHG  1   6   1
M  END
> <s_m_source_file>
AV-unprocessed.smi

> <i_m_source_file_index>
1766

> <i_lp_mmshare_version>
43012

> <i_f3d_flags>
0

> <s_epik_input>
W2NIXTFbY0hdW2NIXVtjSF1jKGMxMiluKGMobjIpW0NIMl1DKD1PKVtOSDJdKVtDSDJdW0NASF0oW09IXSljM1tjSF1bY0hdYyhGKVtjSF1bY0hdMw==

> <s_epik_cmdline>
J2VwaWtfcHl0aG9uJywgJy1waCcsICc3LjAnLCAnLXRuJywgJzgnLCAnLW1hJywgJzIwMCcsICctbWV0YWxfYmluZGluZycsICctaW1hZScsICc8aW5maWxlLm1hZT4nLCAnLW9tYWUnLCAnPG91dGZpbGUubWFlPic=

> <r_epik_Ionization_Penalty>
1.66646

> <r_epik_Ionization_Penalty_Charging>
1.66645

> <r_epik_Ionization_Penalty_Neutral>
2.12833e-06

> <r_epik_State_Penalty>
1.76975

> <r_epik_Charging_Adjusted_Penalty>
3.43621

> <i_epik_Tot_Q>
1

> <i_epik_Tot_abs_Q>
1

> <r_epik_Metal_State_Penalty>
1.80493

> <b_epik_Metal_Only>
0

> <s_lp_Force_Field>
OPLS_2005

> <r_lp_Energy>
15.5136

> <b_lp_Chiralities_Consistent>
1

> <s_lp_Variant>
AV-unprocessed.smi:1766-4

> <Gold.Version>
5.8.1

> <Gold.Id.Protein>
6NUR|6NUR_protein|mol2

> <Gold.PLP.Fitness>
55.6756

> <Gold.PLP.PLP>
-51.3677

> <Gold.PLP.part.hbond>
-2.9841

> <Gold.PLP.part.metal>
0.0000

> <Gold.PLP.part.buried>
-4.8261

> <Gold.PLP.part.nonpolar>
-44.4344

> <Gold.PLP.part.repulsive>
1.0388

> <Gold.PLP.ligand.clash>
0.0000

> <Gold.PLP.ligand.torsion>
0.6411

> <Gold.PLP.Chemscore.Hbond>
1.8448

> <Gold.PLP.Chemscore.CHOScore>
0.0000

> <Gold.PLP.Chemscore.Metal>
0.0000

> <Gold.Chemscore.Hbonds>
donor molecule, donor type, donor heavy atom, donor atom, acceptor molecule, acceptor atom, score
      L1  H     6    40       P1  7957  0.36
      L1  H    16    35       P1  8028  0.07
      P1  H 10752 10763       L1     3  1.00

> <Gold.PLP.Chemscore.Internal.Correction>
0.0556

> <Gold.Rescore>
     Score         DG    S(hbond)    S(metal)    S(lipo)     H(rot)  DE(clash)    DE(int)     intcor
     16.30     -18.31       2.01        0.00     118.90       3.05       1.36       0.65       ----

> <Gold.Chemscore.Fitness>
16.2961

> <Gold.Chemscore.DG>
-18.3139

> <Gold.Chemscore.ZeroCoef>
-5.4800

> <Gold.Chemscore.Hbond>
2.0130

> <Gold.Chemscore.Metal>
0.0000

> <Gold.Chemscore.Lipo>
118.8970

> <Gold.Chemscore.Internal_Hbond>
0.0000

> <Gold.Chemscore.DEClash>
1.3646

> <Gold.Chemscore.DEInternal>
0.6533

> <Gold.Chemscore.Rot>
3.0470

> <Gold.Chemscore.Internal.Correction>
   9.000000E+99

> <Gold.Chemscore.Hbonds>
donor molecule, donor type, donor heavy atom, donor atom, acceptor molecule, acceptor atom, score
      L1  H     6    40       P1  7957  0.35
      L1  H    16    35       P1  8028  0.08
      P1  H 10752 10763       L1     3  0.98

> <Gold.Chemscore.Hbond.Weighted>
-6.7234

> <Gold.Chemscore.Metal.Weighted>
-0.0000

> <Gold.Chemscore.Lipo.Weighted>
-13.9109

> <Gold.Chemscore.Internal_Hbond.Weighted>
0.0000

> <Gold.Chemscore.DEClash.Weighted>
1.3646

> <Gold.Chemscore.DEInternal.Weighted>
0.6533

> <Gold.Chemscore.Rot.Weighted>
7.8004

> <Gold.Chemscore.Internal.Correction.Weighted>
   9.000000E+99

> <Gold.Protein.RotatedTorsions>
[ 6907 6896 6895 6894 ] final   -7.87 input  -60.11 | X-H torsion
[ 7974 7965 7964 7962 ] final -170.57 input  175.53 | X-H torsion
[ 8008 7997 7996 7995 ] final   34.61 input   59.86 | X-H torsion
[ 10167 10162 10161 10158 ] final  -35.50 input  -65.29 | X-H torsion
[ 10718 10713 10712 10709 ] final  140.73 input   66.30 | X-H torsion
[ 10763 10752 10751 10750 ] final   43.52 input  -60.55 | X-H torsion
[ 11005 11000 10999 10996 ] final  -49.10 input  -57.11 | X-H torsion

> <Gold.Protein.ActiveResidues>
 VAL166  LYS551  ARG553  GLY616  TRP617  ASP618  TYR619  PRO620  LYS621  CYS622 
 ASP623  PHE694  ASN695  SER759  ASP760  ASP761  ALA762  ILE779  LEU786  VAL792 
 PHE793  MET794  SER795  GLU796  ALA797  LYS798  CYS799  TRP800  GLU811  SER814 

> <Gold.Protein.RotatedAtoms>
  151.4428  135.1022  159.9674 H   0  0  0  0  0  0  0  0  0  0  0  0  # atno 6907 bound_to 6896
  152.4916  133.8513  159.7213 H   0  0  0  0  0  0  0  0  0  0  0  0  # atno 6908 bound_to 6896
  150.9076  133.6979  159.2890 H   0  0  0  0  0  0  0  0  0  0  0  0  # atno 6909 bound_to 6896
  144.7168  140.2052  143.6334 H   0  0  0  0  0  0  0  0  0  0  0  0  # atno 7974 bound_to 7965
  155.1577  140.3280  155.4418 H   0  0  0  0  0  0  0  0  0  0  0  0  # atno 8008 bound_to 7997
  156.2553  140.1966  156.6636 H   0  0  0  0  0  0  0  0  0  0  0  0  # atno 8009 bound_to 7997
  154.6428  140.0568  156.9851 H   0  0  0  0  0  0  0  0  0  0  0  0  # atno 8010 bound_to 7997
  140.7163  143.3473  151.2229 H   0  0  0  0  0  0  0  0  0  0  0  0  # atno 10167 bound_to 10162
  157.4000  131.1015  151.0562 H   0  0  0  0  0  0  0  0  0  0  0  0  # atno 10718 bound_to 10713
  152.9859  135.6099  154.3124 H   0  0  0  0  0  0  0  0  0  0  0  0  # atno 10763 bound_to 10752
  154.2839  135.2776  155.2687 H   0  0  0  0  0  0  0  0  0  0  0  0  # atno 10764 bound_to 10752
  154.5013  135.5866  153.6590 H   0  0  0  0  0  0  0  0  0  0  0  0  # atno 10765 bound_to 10752
  141.0739  133.6671  156.3537 H   0  0  0  0  0  0  0  0  0  0  0  0  # atno 11005 bound_to 11000
  145.8642  139.2238  143.1699 LP  0  0  0  0  0  0  0  0  0  0  0  0  # atno 17320 bound_to 7965
  146.0145  140.8405  142.9954 LP  0  0  0  0  0  0  0  0  0  0  0  0  # atno 17321 bound_to 7965
  139.6995  143.9556  152.2899 LP  0  0  0  0  0  0  0  0  0  0  0  0  # atno 17342 bound_to 10162
  139.9245  144.6779  150.8427 LP  0  0  0  0  0  0  0  0  0  0  0  0  # atno 17343 bound_to 10162
  157.1564  130.6206  149.5597 LP  0  0  0  0  0  0  0  0  0  0  0  0  # atno 17370 bound_to 10713
  155.9820  130.4832  150.6860 LP  0  0  0  0  0  0  0  0  0  0  0  0  # atno 17371 bound_to 10713
  140.5614  134.5930  157.5434 LP  0  0  0  0  0  0  0  0  0  0  0  0  # atno 17394 bound_to 11000
  139.9552  134.7547  156.0358 LP  0  0  0  0  0  0  0  0  0  0  0  0  # atno 17395 bound_to 11000

$$$$
