AV-unprocessed.smi:2999|AV-procd|sdf|11427|dock2
  -GOLD-   2272016353D 1   1.00000     0.00000
 Structure written by MMmdl.
 37 39  0  0  0  0  0  0  0  0  3 V2000
  150.7062  134.9532  156.2444 O   0  0  0  0  0  0  0  0  0  0  0  0
  150.4883  135.4646  155.1437 C   0  0  0  0  0  0  0  0  0  0  0  0
  149.3370  135.2136  154.5040 N   0  0  0  0  0  0  0  0  0  0  0  0
  148.2630  134.3397  154.9696 C   0  0  0  0  0  0  0  0  0  0  0  0
  147.1792  134.1089  153.8986 C   0  0  2  0  0  0  0  0  0  0  0  0
  145.8376  133.5778  154.4564 C   0  0  0  0  0  0  0  0  0  0  0  0
  144.8599  133.3253  153.3730 N   0  3  1  0  0  0  0  0  0  0  0  0
  144.2310  134.5583  152.8455 C   0  0  0  0  0  0  0  0  0  0  0  0
  142.7491  134.4189  152.5865 C   0  0  0  0  0  0  0  0  0  0  0  0
  143.7234  134.4180  151.4296 C   0  0  0  0  0  0  0  0  0  0  0  0
  145.4491  132.4656  152.3193 C   0  0  0  0  0  0  0  0  0  0  0  0
  146.7969  133.0255  151.8276 C   0  0  0  0  0  0  0  0  0  0  0  0
  147.6811  133.1931  152.9293 O   0  0  0  0  0  0  0  0  0  0  0  0
  151.3219  136.2789  154.4592 N   0  5  0  0  0  0  0  0  0  0  0  0
  151.4896  137.5523  154.8516 C   0  0  0  0  0  0  0  0  0  0  0  0
  150.5156  138.2754  155.4160 N   0  0  0  0  0  0  0  0  0  0  0  0
  150.9110  139.5715  155.7531 C   0  0  0  0  0  0  0  0  0  0  0  0
  152.2185  139.8386  155.4446 C   0  0  0  0  0  0  0  0  0  0  0  0
  152.9967  138.4625  154.7165 S   0  0  0  0  0  0  0  0  0  0  0  0
  149.2045  135.6569  153.6066 H   0  0  0  0  0  0  0  0  0  0  0  0
  148.6619  133.3830  155.3100 H   0  0  0  0  0  0  0  0  0  0  0  0
  147.8129  134.8040  155.8473 H   0  0  0  0  0  0  0  0  0  0  0  0
  147.0088  135.0677  153.4067 H   0  0  0  0  0  0  0  0  0  0  0  0
  145.9917  132.6313  154.9745 H   0  0  0  0  0  0  0  0  0  0  0  0
  145.4208  134.2691  155.1897 H   0  0  0  0  0  0  0  0  0  0  0  0
  144.6391  135.5064  153.1899 H   0  0  0  0  0  0  0  0  0  0  0  0
  142.2683  133.4757  152.8399 H   0  0  0  0  0  0  0  0  0  0  0  0
  142.1316  135.3051  152.7179 H   0  0  0  0  0  0  0  0  0  0  0  0
  143.7473  135.3033  150.7977 H   0  0  0  0  0  0  0  0  0  0  0  0
  143.8885  133.4737  150.9135 H   0  0  0  0  0  0  0  0  0  0  0  0
  145.6030  131.4692  152.7355 H   0  0  0  0  0  0  0  0  0  0  0  0
  144.7509  132.3515  151.4892 H   0  0  0  0  0  0  0  0  0  0  0  0
  147.2504  132.3340  151.1174 H   0  0  0  0  0  0  0  0  0  0  0  0
  146.6652  133.9725  151.3024 H   0  0  0  0  0  0  0  0  0  0  0  0
  150.1952  140.2373  156.2118 H   0  0  0  0  0  0  0  0  0  0  0  0
  152.7690  140.7541  155.6003 H   0  0  0  0  0  0  0  0  0  0  0  0
  144.1073  132.7948  153.7887 H   0  0  0  0  0  0  0  0  0  0  0  0
  1  2  2  0  0  0  0
  2  3  1  0  0  0  0
  2 14  1  0  0  0  0
  3  4  1  0  0  0  0
  3 20  1  0  0  0  0
  4  5  1  0  0  0  0
  4 21  1  0  0  0  0
  4 22  1  0  0  0  0
  5 13  1  0  0  0  0
  5  6  1  0  0  0  0
  5 23  1  0  0  0  0
  6  7  1  0  0  0  0
  6 24  1  0  0  0  0
  6 25  1  0  0  0  0
  7  8  1  0  0  0  0
  7 11  1  0  0  0  0
  7 37  1  0  0  0  0
  8 10  1  0  0  0  0
  8  9  1  0  0  0  0
  8 26  1  0  0  0  0
  9 10  1  0  0  0  0
  9 27  1  0  0  0  0
  9 28  1  0  0  0  0
 10 29  1  0  0  0  0
 10 30  1  0  0  0  0
 11 12  1  0  0  0  0
 11 31  1  0  0  0  0
 11 32  1  0  0  0  0
 12 13  1  0  0  0  0
 12 33  1  0  0  0  0
 12 34  1  0  0  0  0
 14 15  1  0  0  0  0
 15 19  1  0  0  0  0
 15 16  2  0  0  0  0
 16 17  1  0  0  0  0
 17 18  2  0  0  0  0
 17 35  1  0  0  0  0
 18 19  1  0  0  0  0
 18 36  1  0  0  0  0
M  CHG  1   7   1
M  CHG  1  14  -1
M  END
> <s_m_source_file>
AV-unprocessed.smi

> <i_m_source_file_index>
2999

> <i_lp_mmshare_version>
43012

> <i_f3d_flags>
0

> <s_epik_input>
czFbY0hdW2NIXW5jMVtOSF1DKD1PKVtOSF1bQ0gyXVtDQEBIXTJbQ0gyXU4oW0NIMl1bQ0gyXU8yKVtDSF0zW0NIMl1bQ0gyXTM=

> <s_epik_cmdline>
J2VwaWtfcHl0aG9uJywgJy1waCcsICc3LjAnLCAnLXRuJywgJzgnLCAnLW1hJywgJzIwMCcsICctbWV0YWxfYmluZGluZycsICctaW1hZScsICc8aW5maWxlLm1hZT4nLCAnLW9tYWUnLCAnPG91dGZpbGUubWFlPic=

> <r_lp_tautomer_probability>
0.999

> <r_epik_Ionization_Penalty>
7.79196

> <r_epik_Ionization_Penalty_Charging>
6.93299

> <r_epik_Ionization_Penalty_Neutral>
0.858963

> <r_epik_State_Penalty>
7.05108

> <r_epik_Charging_Adjusted_Penalty>
13.9841

> <i_epik_Tot_Q>
0

> <i_epik_Tot_abs_Q>
2

> <r_epik_Metal_State_Penalty>
3.05936

> <b_epik_Metal_Only>
1

> <s_lp_Force_Field>
OPLS_2005

> <r_lp_Energy>
16.1762

> <b_lp_Chiralities_Consistent>
1

> <s_lp_Variant>
AV-unprocessed.smi:2999-11

> <Gold.Version>
5.8.1

> <Gold.Id.Protein>
6NUR|6NUR_protein|mol2

> <Gold.PLP.Fitness>
39.6847

> <Gold.PLP.PLP>
-27.2893

> <Gold.PLP.part.hbond>
-2.9795

> <Gold.PLP.part.metal>
0.0000

> <Gold.PLP.part.buried>
-4.3082

> <Gold.PLP.part.nonpolar>
-22.0315

> <Gold.PLP.part.repulsive>
0.9977

> <Gold.PLP.ligand.clash>
0.0000

> <Gold.PLP.ligand.torsion>
1.9638

> <Gold.PLP.Chemscore.Hbond>
5.0000

> <Gold.PLP.Chemscore.CHOScore>
0.0000

> <Gold.PLP.Chemscore.Metal>
0.0000

> <Gold.Chemscore.Hbonds>
donor molecule, donor type, donor heavy atom, donor atom, acceptor molecule, acceptor atom, score
      L1  H     3    20       P1  7948  1.00
      L1  H     7    37       P1 10957  2.00
      P1  H 10752 10763       L1    14  2.00

> <Gold.PLP.Chemscore.Internal.Correction>
1.3229

> <Gold.Rescore>
     Score         DG    S(hbond)    S(metal)    S(lipo)     H(rot)  DE(clash)    DE(int)     intcor
     13.98     -16.04       2.45        0.00      54.32       1.55       0.06       2.01       ----

> <Gold.Chemscore.Fitness>
13.9779

> <Gold.Chemscore.DG>
-16.0436

> <Gold.Chemscore.ZeroCoef>
-5.4800

> <Gold.Chemscore.Hbond>
2.4482

> <Gold.Chemscore.Metal>
0.0000

> <Gold.Chemscore.Lipo>
54.3204

> <Gold.Chemscore.Internal_Hbond>
0.0000

> <Gold.Chemscore.DEClash>
0.0605

> <Gold.Chemscore.DEInternal>
2.0052

> <Gold.Chemscore.Rot>
1.5504

> <Gold.Chemscore.Internal.Correction>
   9.000000E+99

> <Gold.Chemscore.Hbonds>
donor molecule, donor type, donor heavy atom, donor atom, acceptor molecule, acceptor atom, score
      L1  H     3    20       P1  7948  0.60
      L1  H     7    37       P1 10957  0.73
      P1  H 10752 10763       L1    14  0.35

> <Gold.Chemscore.Hbond.Weighted>
-8.1771

> <Gold.Chemscore.Metal.Weighted>
-0.0000

> <Gold.Chemscore.Lipo.Weighted>
-6.3555

> <Gold.Chemscore.Internal_Hbond.Weighted>
0.0000

> <Gold.Chemscore.DEClash.Weighted>
0.0605

> <Gold.Chemscore.DEInternal.Weighted>
2.0052

> <Gold.Chemscore.Rot.Weighted>
3.9690

> <Gold.Chemscore.Internal.Correction.Weighted>
   9.000000E+99

> <Gold.Protein.RotatedTorsions>
[ 6907 6896 6895 6894 ] final  -24.96 input  -60.11 | X-H torsion
[ 7974 7965 7964 7962 ] final  -34.00 input  175.53 | X-H torsion
[ 8008 7997 7996 7995 ] final  137.04 input   59.86 | X-H torsion
[ 10167 10162 10161 10158 ] final  -59.42 input  -65.29 | X-H torsion
[ 10718 10713 10712 10709 ] final   72.33 input   66.30 | X-H torsion
[ 10763 10752 10751 10750 ] final   53.54 input  -60.55 | X-H torsion
[ 11005 11000 10999 10996 ] final  160.68 input  -57.11 | X-H torsion

> <Gold.Protein.ActiveResidues>
 VAL166  LYS551  ARG553  GLY616  TRP617  ASP618  TYR619  PRO620  LYS621  CYS622 
 ASP623  PHE694  ASN695  SER759  ASP760  ASP761  ALA762  ILE779  LEU786  VAL792 
 PHE793  MET794  SER795  GLU796  ALA797  LYS798  CYS799  TRP800  GLU811  SER814 

> <Gold.Protein.RotatedAtoms>
  151.1820  135.0365  159.8796 H   0  0  0  0  0  0  0  0  0  0  0  0  # atno 6907 bound_to 6896
  152.5444  134.1052  159.8345 H   0  0  0  0  0  0  0  0  0  0  0  0  # atno 6908 bound_to 6896
  151.1170  133.5085  159.2635 H   0  0  0  0  0  0  0  0  0  0  0  0  # atno 6909 bound_to 6896
  146.0865  140.5986  142.8884 H   0  0  0  0  0  0  0  0  0  0  0  0  # atno 7974 bound_to 7965
  156.3003  140.2429  156.3844 H   0  0  0  0  0  0  0  0  0  0  0  0  # atno 8008 bound_to 7997
  154.8671  140.0417  157.1721 H   0  0  0  0  0  0  0  0  0  0  0  0  # atno 8009 bound_to 7997
  154.8834  140.2952  155.5416 H   0  0  0  0  0  0  0  0  0  0  0  0  # atno 8010 bound_to 7997
  140.6136  143.2395  151.5651 H   0  0  0  0  0  0  0  0  0  0  0  0  # atno 10167 bound_to 10162
  157.6495  130.9573  150.0913 H   0  0  0  0  0  0  0  0  0  0  0  0  # atno 10718 bound_to 10713
  152.9796  135.5775  154.4757 H   0  0  0  0  0  0  0  0  0  0  0  0  # atno 10763 bound_to 10752
  154.4313  135.2773  155.1912 H   0  0  0  0  0  0  0  0  0  0  0  0  # atno 10764 bound_to 10752
  154.3619  135.6187  153.5749 H   0  0  0  0  0  0  0  0  0  0  0  0  # atno 10765 bound_to 10752
  140.2083  134.8286  157.3093 H   0  0  0  0  0  0  0  0  0  0  0  0  # atno 11005 bound_to 11000
  144.7329  140.4725  143.6925 LP  0  0  0  0  0  0  0  0  0  0  0  0  # atno 17320 bound_to 7965
  145.6121  139.1514  143.3070 LP  0  0  0  0  0  0  0  0  0  0  0  0  # atno 17321 bound_to 7965
  139.5380  144.2725  152.1293 LP  0  0  0  0  0  0  0  0  0  0  0  0  # atno 17342 bound_to 10162
  140.1930  144.4733  150.6469 LP  0  0  0  0  0  0  0  0  0  0  0  0  # atno 17343 bound_to 10162
  156.1861  130.3652  149.8971 LP  0  0  0  0  0  0  0  0  0  0  0  0  # atno 17370 bound_to 10713
  156.6911  130.8896  151.3588 LP  0  0  0  0  0  0  0  0  0  0  0  0  # atno 17371 bound_to 10713
  140.1979  134.4291  155.7679 LP  0  0  0  0  0  0  0  0  0  0  0  0  # atno 17394 bound_to 11000
  141.2226  133.7058  156.8135 LP  0  0  0  0  0  0  0  0  0  0  0  0  # atno 17395 bound_to 11000

$$$$
