AV-unprocessed.smi:2923|AV-procd|sdf|11207|dock5
  -GOLD-   2272016103D 1   1.00000     0.00000
 Structure written by MMmdl.
 47 49  0  0  0  0  0  0  0  0  2 V2000
  144.7008  131.5308  151.1712 C   0  0  0  0  0  0  0  0  0  0  0  0
  144.3163  132.7536  150.4749 N   0  0  0  0  0  0  0  0  0  0  0  0
  143.7548  132.6887  149.1320 C   0  0  0  0  0  0  0  0  0  0  0  0
  144.5851  134.0087  151.0626 C   0  0  0  0  0  0  0  0  0  0  0  0
  145.7579  134.2809  151.8082 C   0  0  0  0  0  0  0  0  0  0  0  0
  145.9528  135.5609  152.3660 C   0  0  0  0  0  0  0  0  0  0  0  0
  144.9813  136.5667  152.1803 C   0  0  0  0  0  0  0  0  0  0  0  0
  145.2331  137.8352  152.7729 N   0  0  0  0  0  0  0  0  0  0  0  0
  146.2531  138.2228  153.5586 C   0  0  0  0  0  0  0  0  0  0  0  0
  147.1826  137.5085  153.9321 O   0  0  0  0  0  0  0  0  0  0  0  0
  146.1327  139.5117  153.9031 N   0  0  0  0  0  0  0  0  0  0  0  0
  147.0801  140.2301  154.7492 C   0  0  1  0  0  0  0  0  0  0  0  0
  148.4624  140.3726  154.0938 C   0  0  2  0  0  0  0  0  0  0  0  0
  149.6557  139.6898  154.7053 C   0  0  0  0  0  0  0  0  0  0  0  0
  150.2778  140.7940  155.5645 C   0  0  0  0  0  0  0  0  0  0  0  0
  149.2111  141.7100  155.8007 O   0  0  0  0  0  0  0  0  0  0  0  0
  148.4566  141.8088  154.5953 C   0  0  2  0  0  0  0  0  0  0  0  0
  146.9199  141.7719  154.7349 C   0  0  0  0  0  0  0  0  0  0  0  0
  146.1664  142.3968  153.5521 C   0  0  0  0  0  0  0  0  0  0  0  0
  146.3465  142.4019  156.0051 C   0  0  0  0  0  0  0  0  0  0  0  0
  143.8269  136.2458  151.4261 C   0  0  0  0  0  0  0  0  0  0  0  0
  143.6809  135.0065  150.9096 N   0  3  0  0  0  0  0  0  0  0  0  0
  144.2080  131.4702  152.1420 H   0  0  0  0  0  0  0  0  0  0  0  0
  145.7797  131.5024  151.3270 H   0  0  0  0  0  0  0  0  0  0  0  0
  144.4219  130.6447  150.6010 H   0  0  0  0  0  0  0  0  0  0  0  0
  144.4111  133.1866  148.4174 H   0  0  0  0  0  0  0  0  0  0  0  0
  142.7767  133.1693  149.1018 H   0  0  0  0  0  0  0  0  0  0  0  0
  143.6276  131.6569  148.8044 H   0  0  0  0  0  0  0  0  0  0  0  0
  146.5155  133.5275  151.9632 H   0  0  0  0  0  0  0  0  0  0  0  0
  146.8481  135.7646  152.9350 H   0  0  0  0  0  0  0  0  0  0  0  0
  144.5452  138.5458  152.5709 H   0  0  0  0  0  0  0  0  0  0  0  0
  145.3392  140.0321  153.5590 H   0  0  0  0  0  0  0  0  0  0  0  0
  147.1548  139.8315  155.7637 H   0  0  0  0  0  0  0  0  0  0  0  0
  148.4199  140.3292  153.0040 H   0  0  0  0  0  0  0  0  0  0  0  0
  149.3473  138.8455  155.3225 H   0  0  0  0  0  0  0  0  0  0  0  0
  150.3571  139.3198  153.9570 H   0  0  0  0  0  0  0  0  0  0  0  0
  150.6972  140.4163  156.4972 H   0  0  0  0  0  0  0  0  0  0  0  0
  151.0698  141.3061  155.0160 H   0  0  0  0  0  0  0  0  0  0  0  0
  148.8604  142.5311  153.8842 H   0  0  0  0  0  0  0  0  0  0  0  0
  146.3032  143.4782  153.5215 H   0  0  0  0  0  0  0  0  0  0  0  0
  145.0944  142.2057  153.6095 H   0  0  0  0  0  0  0  0  0  0  0  0
  146.5159  142.0047  152.5966 H   0  0  0  0  0  0  0  0  0  0  0  0
  146.5151  143.4789  156.0286 H   0  0  0  0  0  0  0  0  0  0  0  0
  146.8030  141.9843  156.9029 H   0  0  0  0  0  0  0  0  0  0  0  0
  145.2723  142.2327  156.0859 H   0  0  0  0  0  0  0  0  0  0  0  0
  143.0094  136.9157  151.2103 H   0  0  0  0  0  0  0  0  0  0  0  0
  142.8363  134.8107  150.3724 H   0  0  0  0  0  0  0  0  0  0  0  0
  1  2  1  0  0  0  0
  1 23  1  0  0  0  0
  1 24  1  0  0  0  0
  1 25  1  0  0  0  0
  2  3  1  0  0  0  0
  2  4  1  0  0  0  0
  3 26  1  0  0  0  0
  3 27  1  0  0  0  0
  3 28  1  0  0  0  0
  4 22  1  0  0  0  0
  4  5  2  0  0  0  0
  5  6  1  0  0  0  0
  5 29  1  0  0  0  0
  6  7  2  0  0  0  0
  6 30  1  0  0  0  0
  7  8  1  0  0  0  0
  7 21  1  0  0  0  0
  8  9  1  0  0  0  0
  8 31  1  0  0  0  0
  9 10  2  0  0  0  0
  9 11  1  0  0  0  0
 11 12  1  0  0  0  0
 11 32  1  0  0  0  0
 12 18  1  0  0  0  0
 12 13  1  0  0  0  0
 12 33  1  0  0  0  0
 13 17  1  0  0  0  0
 13 14  1  0  0  0  0
 13 34  1  0  0  0  0
 14 15  1  0  0  0  0
 14 35  1  0  0  0  0
 14 36  1  0  0  0  0
 15 16  1  0  0  0  0
 15 37  1  0  0  0  0
 15 38  1  0  0  0  0
 16 17  1  0  0  0  0
 17 18  1  0  0  0  0
 17 39  1  0  0  0  0
 18 19  1  0  0  0  0
 18 20  1  0  0  0  0
 19 40  1  0  0  0  0
 19 41  1  0  0  0  0
 19 42  1  0  0  0  0
 20 43  1  0  0  0  0
 20 44  1  0  0  0  0
 20 45  1  0  0  0  0
 21 22  2  0  0  0  0
 21 46  1  0  0  0  0
 22 47  1  0  0  0  0
M  CHG  1  22   1
M  END
> <s_m_source_file>
AV-unprocessed.smi

> <i_m_source_file_index>
2923

> <i_lp_mmshare_version>
43012

> <i_f3d_flags>
0

> <s_epik_input>
W0NIM11OKFtDSDNdKWMxW2NIXVtjSF1jKFtjSF1uMSlbTkhdQyg9TylbTkhdW0NASF0yQyhbQ0gzXSkoW0NIM10pW0NAQEhdKFtDQEhdMjMpT1tDSDJdW0NIMl0z

> <s_epik_cmdline>
J2VwaWtfcHl0aG9uJywgJy1waCcsICc3LjAnLCAnLXRuJywgJzgnLCAnLW1hJywgJzIwMCcsICctbWV0YWxfYmluZGluZycsICctaW1hZScsICc8aW5maWxlLm1hZT4nLCAnLW9tYWUnLCAnPG91dGZpbGUubWFlPic=

> <r_lp_tautomer_probability>
0.999994

> <r_epik_Ionization_Penalty>
0.252205

> <r_epik_Ionization_Penalty_Charging>
0.252185

> <r_epik_Ionization_Penalty_Neutral>
1.99479e-05

> <r_epik_State_Penalty>
0.243573

> <r_epik_Charging_Adjusted_Penalty>
0.495758

> <i_epik_Tot_Q>
1

> <i_epik_Tot_abs_Q>
1

> <r_epik_Metal_State_Penalty>
0.534372

> <b_epik_Metal_Only>
0

> <s_lp_Force_Field>
OPLS_2005

> <r_lp_Energy>
44.3361

> <b_lp_Chiralities_Consistent>
1

> <s_lp_Variant>
AV-unprocessed.smi:2923-6

> <Gold.Version>
5.8.1

> <Gold.Id.Protein>
6NUR|6NUR_protein|mol2

> <Gold.PLP.Fitness>
45.2604

> <Gold.PLP.PLP>
-34.9561

> <Gold.PLP.part.hbond>
-2.8607

> <Gold.PLP.part.metal>
0.0000

> <Gold.PLP.part.buried>
-1.6494

> <Gold.PLP.part.nonpolar>
-32.3772

> <Gold.PLP.part.repulsive>
1.6229

> <Gold.PLP.ligand.clash>
0.0000

> <Gold.PLP.ligand.torsion>
0.7065

> <Gold.PLP.Chemscore.Hbond>
3.8450

> <Gold.PLP.Chemscore.CHOScore>
0.0000

> <Gold.PLP.Chemscore.Metal>
0.0000

> <Gold.Chemscore.Hbonds>
donor molecule, donor type, donor heavy atom, donor atom, acceptor molecule, acceptor atom, score
      L1  H     8    31       P1 10175  0.84
      L1  H    11    32       P1 10175  1.00
      L1  H    22    47       P1 10186  2.00

> <Gold.PLP.Chemscore.Internal.Correction>
0.1824

> <Gold.Rescore>
     Score         DG    S(hbond)    S(metal)    S(lipo)     H(rot)  DE(clash)    DE(int)     intcor
     16.88     -20.22       2.21        0.00      84.68       1.00       1.51       1.83       ----

> <Gold.Chemscore.Fitness>
16.8824

> <Gold.Chemscore.DG>
-20.2193

> <Gold.Chemscore.ZeroCoef>
-5.4800

> <Gold.Chemscore.Hbond>
2.2131

> <Gold.Chemscore.Metal>
0.0000

> <Gold.Chemscore.Lipo>
84.6789

> <Gold.Chemscore.Internal_Hbond>
0.0000

> <Gold.Chemscore.DEClash>
1.5068

> <Gold.Chemscore.DEInternal>
1.8301

> <Gold.Chemscore.Rot>
1.0000

> <Gold.Chemscore.Internal.Correction>
   9.000000E+99

> <Gold.Chemscore.Hbonds>
donor molecule, donor type, donor heavy atom, donor atom, acceptor molecule, acceptor atom, score
      L1  H     8    31       P1 10175  0.82
      L1  H    11    32       P1 10175  0.93
      L1  H    22    47       P1 10186  0.24

> <Gold.Chemscore.Hbond.Weighted>
-7.3919

> <Gold.Chemscore.Metal.Weighted>
-0.0000

> <Gold.Chemscore.Lipo.Weighted>
-9.9074

> <Gold.Chemscore.Internal_Hbond.Weighted>
0.0000

> <Gold.Chemscore.DEClash.Weighted>
1.5068

> <Gold.Chemscore.DEInternal.Weighted>
1.8301

> <Gold.Chemscore.Rot.Weighted>
2.5600

> <Gold.Chemscore.Internal.Correction.Weighted>
   9.000000E+99

> <Gold.Protein.RotatedTorsions>
[ 6907 6896 6895 6894 ] final -119.55 input  -60.11 | X-H torsion
[ 7974 7965 7964 7962 ] final   77.57 input  175.53 | X-H torsion
[ 8008 7997 7996 7995 ] final  -51.37 input   59.86 | X-H torsion
[ 10167 10162 10161 10158 ] final -118.87 input  -65.29 | X-H torsion
[ 10718 10713 10712 10709 ] final  -42.32 input   66.30 | X-H torsion
[ 10763 10752 10751 10750 ] final   54.66 input  -60.55 | X-H torsion
[ 11005 11000 10999 10996 ] final   66.18 input  -57.11 | X-H torsion

> <Gold.Protein.ActiveResidues>
 VAL166  LYS551  ARG553  GLY616  TRP617  ASP618  TYR619  PRO620  LYS621  CYS622 
 ASP623  PHE694  ASN695  SER759  ASP760  ASP761  ALA762  ILE779  LEU786  VAL792 
 PHE793  MET794  SER795  GLU796  ALA797  LYS798  CYS799  TRP800  GLU811  SER814 

> <Gold.Protein.RotatedAtoms>
  150.8315  133.8083  159.3096 H   0  0  0  0  0  0  0  0  0  0  0  0  # atno 6907 bound_to 6896
  151.5812  135.1056  160.0027 H   0  0  0  0  0  0  0  0  0  0  0  0  # atno 6908 bound_to 6896
  152.4394  133.7378  159.6680 H   0  0  0  0  0  0  0  0  0  0  0  0  # atno 6909 bound_to 6896
  145.6883  139.2544  143.1774 H   0  0  0  0  0  0  0  0  0  0  0  0  # atno 7974 bound_to 7965
  154.4081  140.1249  156.4817 H   0  0  0  0  0  0  0  0  0  0  0  0  # atno 8008 bound_to 7997
  155.7078  140.3494  155.4941 H   0  0  0  0  0  0  0  0  0  0  0  0  # atno 8009 bound_to 7997
  155.9328  140.1073  157.1109 H   0  0  0  0  0  0  0  0  0  0  0  0  # atno 8010 bound_to 7997
  140.0528  143.5043  152.2073 H   0  0  0  0  0  0  0  0  0  0  0  0  # atno 10167 bound_to 10162
  156.2609  130.4197  149.8543 H   0  0  0  0  0  0  0  0  0  0  0  0  # atno 10718 bound_to 10713
  152.9807  135.5737  154.4940 H   0  0  0  0  0  0  0  0  0  0  0  0  # atno 10763 bound_to 10752
  154.4470  135.2777  155.1810 H   0  0  0  0  0  0  0  0  0  0  0  0  # atno 10764 bound_to 10752
  154.3454  135.6220  153.5670 H   0  0  0  0  0  0  0  0  0  0  0  0  # atno 10765 bound_to 10752
  139.9848  134.6686  156.0196 H   0  0  0  0  0  0  0  0  0  0  0  0  # atno 11005 bound_to 11000
  146.0904  140.7662  142.9598 LP  0  0  0  0  0  0  0  0  0  0  0  0  # atno 17320 bound_to 7965
  144.7004  140.3628  143.7160 LP  0  0  0  0  0  0  0  0  0  0  0  0  # atno 17321 bound_to 7965
  139.5942  144.7561  151.3326 LP  0  0  0  0  0  0  0  0  0  0  0  0  # atno 17342 bound_to 10162
  140.7209  143.7139  150.7748 LP  0  0  0  0  0  0  0  0  0  0  0  0  # atno 17343 bound_to 10162
  156.6059  130.8566  151.3443 LP  0  0  0  0  0  0  0  0  0  0  0  0  # atno 17370 bound_to 10713
  157.7250  130.9610  150.1596 LP  0  0  0  0  0  0  0  0  0  0  0  0  # atno 17371 bound_to 10713
  141.1515  133.6548  156.4027 LP  0  0  0  0  0  0  0  0  0  0  0  0  # atno 17394 bound_to 11000
  140.5024  134.6472  157.5254 LP  0  0  0  0  0  0  0  0  0  0  0  0  # atno 17395 bound_to 11000

$$$$
