AV-unprocessed.smi:234|AV-procd|sdf|1798|dock3
  -GOLD-   2262020363D 1   1.00000     0.00000
 Structure written by MMmdl.
 59 62  0  0  0  0  0  0  0  0  1 V2000
  152.0471  138.0970  154.7260 C   0  0  0  0  0  0  0  0  0  0  0  0
  151.9783  139.4038  155.5269 C   0  0  0  0  0  0  0  0  0  0  0  0
  150.6507  139.7393  155.9082 O   0  0  0  0  0  0  0  0  0  0  0  0
  149.6628  139.5069  154.9122 C   0  0  1  0  0  0  0  0  0  0  0  0
  148.7308  138.3247  155.1808 C   0  0  0  0  0  0  0  0  0  0  0  0
  147.6154  139.2103  154.6088 C   0  0  1  0  0  0  0  0  0  0  0  0
  146.3206  139.0525  155.2809 N   0  0  0  0  0  0  0  0  0  0  0  0
  145.3874  140.1736  155.2412 C   0  0  0  0  0  0  0  0  0  0  0  0
  145.6846  137.8604  155.1627 C   0  0  0  0  0  0  0  0  0  0  0  0
  145.4391  137.1028  156.2652 N   0  0  0  0  0  0  0  0  0  0  0  0
  144.8251  135.9219  156.1461 C   0  0  0  0  0  0  0  0  0  0  0  0
  144.3814  135.3196  155.0411 N   0  0  0  0  0  0  0  0  0  0  0  0
  144.6284  136.0746  153.9322 C   0  0  0  0  0  0  0  0  0  0  0  0
  145.2757  137.3416  153.9036 C   0  0  0  0  0  0  0  0  0  0  0  0
  145.3540  137.8061  152.5965 N   0  0  0  0  0  0  0  0  0  0  0  0
  144.7820  136.8677  151.8922 C   0  0  0  0  0  0  0  0  0  0  0  0
  144.3086  135.7954  152.6149 N   0  0  0  0  0  0  0  0  0  0  0  0
  143.6251  134.6237  152.0882 C   0  0  0  0  0  0  0  0  0  0  0  0
  144.3393  133.9937  150.8633 C   0  0  2  0  0  0  0  0  0  0  0  0
  144.0777  134.8181  149.7391 O   0  0  0  0  0  0  0  0  0  0  0  0
  143.8628  132.5834  150.5302 C   0  0  0  0  0  0  0  0  0  0  0  0
  145.0682  131.9751  149.8303 C   0  0  0  0  0  0  0  0  0  0  0  0
  146.1531  132.4767  150.5914 O   0  0  0  0  0  0  0  0  0  0  0  0
  145.8811  133.8245  150.9709 C   0  0  2  0  0  0  0  0  0  0  0  0
  146.5014  134.0391  152.3604 C   0  0  0  0  0  0  0  0  0  0  0  0
  148.4413  140.4498  155.0566 C   0  0  0  0  0  0  0  0  0  0  0  0
  148.1879  140.9944  156.4743 C   0  0  0  0  0  0  0  0  0  0  0  0
  148.4395  141.6487  154.1071 C   0  0  0  0  0  0  0  0  0  0  0  0
  153.0833  137.7998  154.5645 H   0  0  0  0  0  0  0  0  0  0  0  0
  151.5839  138.1977  153.7457 H   0  0  0  0  0  0  0  0  0  0  0  0
  151.5471  137.2863  155.2564 H   0  0  0  0  0  0  0  0  0  0  0  0
  152.5530  139.2779  156.4447 H   0  0  0  0  0  0  0  0  0  0  0  0
  152.4472  140.2240  154.9820 H   0  0  0  0  0  0  0  0  0  0  0  0
  150.0603  139.5102  153.8943 H   0  0  0  0  0  0  0  0  0  0  0  0
  148.9437  137.4326  154.5920 H   0  0  0  0  0  0  0  0  0  0  0  0
  148.6189  138.0945  156.2418 H   0  0  0  0  0  0  0  0  0  0  0  0
  147.5559  139.1297  153.5215 H   0  0  0  0  0  0  0  0  0  0  0  0
  144.4981  139.9396  154.6535 H   0  0  0  0  0  0  0  0  0  0  0  0
  145.8468  141.0557  154.7975 H   0  0  0  0  0  0  0  0  0  0  0  0
  145.0701  140.4329  156.2513 H   0  0  0  0  0  0  0  0  0  0  0  0
  144.6674  135.3823  157.0684 H   0  0  0  0  0  0  0  0  0  0  0  0
  144.6809  136.9358  150.8187 H   0  0  0  0  0  0  0  0  0  0  0  0
  143.5351  133.8927  152.8929 H   0  0  0  0  0  0  0  0  0  0  0  0
  142.6099  134.9240  151.8287 H   0  0  0  0  0  0  0  0  0  0  0  0
  143.1637  134.7351  149.5142 H   0  0  0  0  0  0  0  0  0  0  0  0
  143.6736  132.0251  151.4476 H   0  0  0  0  0  0  0  0  0  0  0  0
  142.9533  132.5536  149.9283 H   0  0  0  0  0  0  0  0  0  0  0  0
  145.0493  130.8853  149.8255 H   0  0  0  0  0  0  0  0  0  0  0  0
  145.1453  132.3262  148.8002 H   0  0  0  0  0  0  0  0  0  0  0  0
  146.3888  134.4822  150.2629 H   0  0  0  0  0  0  0  0  0  0  0  0
  146.3459  135.0586  152.7136 H   0  0  0  0  0  0  0  0  0  0  0  0
  147.5773  133.8659  152.3315 H   0  0  0  0  0  0  0  0  0  0  0  0
  146.0805  133.3533  153.0961 H   0  0  0  0  0  0  0  0  0  0  0  0
  147.2412  141.5310  156.5380 H   0  0  0  0  0  0  0  0  0  0  0  0
  148.9711  141.6890  156.7793 H   0  0  0  0  0  0  0  0  0  0  0  0
  148.1570  140.2008  157.2211 H   0  0  0  0  0  0  0  0  0  0  0  0
  147.5207  142.2296  154.1863 H   0  0  0  0  0  0  0  0  0  0  0  0
  148.5356  141.3358  153.0670 H   0  0  0  0  0  0  0  0  0  0  0  0
  149.2708  142.3216  154.3191 H   0  0  0  0  0  0  0  0  0  0  0  0
  1  2  1  0  0  0  0
  1 29  1  0  0  0  0
  1 30  1  0  0  0  0
  1 31  1  0  0  0  0
  2  3  1  0  0  0  0
  2 32  1  0  0  0  0
  2 33  1  0  0  0  0
  3  4  1  0  0  0  0
  4 26  1  0  0  0  0
  4  5  1  0  0  0  0
  4 34  1  0  0  0  0
  5  6  1  0  0  0  0
  5 35  1  0  0  0  0
  5 36  1  0  0  0  0
  6  7  1  0  0  0  0
  6 26  1  0  0  0  0
  6 37  1  0  0  0  0
  7  8  1  0  0  0  0
  7  9  1  0  0  0  0
  8 38  1  0  0  0  0
  8 39  1  0  0  0  0
  8 40  1  0  0  0  0
  9 14  1  0  0  0  0
  9 10  2  0  0  0  0
 10 11  1  0  0  0  0
 11 12  2  0  0  0  0
 11 41  1  0  0  0  0
 12 13  1  0  0  0  0
 13 17  1  0  0  0  0
 13 14  2  0  0  0  0
 14 15  1  0  0  0  0
 15 16  2  0  0  0  0
 16 17  1  0  0  0  0
 16 42  1  0  0  0  0
 17 18  1  0  0  0  0
 18 19  1  0  0  0  0
 18 43  1  0  0  0  0
 18 44  1  0  0  0  0
 19 24  1  0  0  0  0
 19 20  1  0  0  0  0
 19 21  1  0  0  0  0
 20 45  1  0  0  0  0
 21 22  1  0  0  0  0
 21 46  1  0  0  0  0
 21 47  1  0  0  0  0
 22 23  1  0  0  0  0
 22 48  1  0  0  0  0
 22 49  1  0  0  0  0
 23 24  1  0  0  0  0
 24 25  1  0  0  0  0
 24 50  1  0  0  0  0
 25 51  1  0  0  0  0
 25 52  1  0  0  0  0
 25 53  1  0  0  0  0
 26 27  1  0  0  0  0
 26 28  1  0  0  0  0
 27 54  1  0  0  0  0
 27 55  1  0  0  0  0
 27 56  1  0  0  0  0
 28 57  1  0  0  0  0
 28 58  1  0  0  0  0
 28 59  1  0  0  0  0
M  END
> <s_m_source_file>
AV-unprocessed.smi

> <i_m_source_file_index>
234

> <i_lp_mmshare_version>
43012

> <i_f3d_flags>
0

> <s_epik_input>
W0NIM11bQ0gyXU9bQ0BASF0oQzEoW0NIM10pW0NIM10pW0NIMl1bQ0BIXTFOKFtDSDNdKWMobltjSF1uMiljKGMyMyluW2NIXW4zW0NIMl1bQ0BAXTQoW09IXSlbQ0gyXVtDSDJdT1tDQEhdNFtDSDNd

> <s_epik_cmdline>
J2VwaWtfcHl0aG9uJywgJy1waCcsICc3LjAnLCAnLXRuJywgJzgnLCAnLW1hJywgJzIwMCcsICctbWV0YWxfYmluZGluZycsICctaW1hZScsICc8aW5maWxlLm1hZT4nLCAnLW9tYWUnLCAnPG91dGZpbGUubWFlPic=

> <r_lp_tautomer_probability>
1

> <r_epik_Ionization_Penalty>
0.00349132

> <r_epik_Ionization_Penalty_Charging>
0

> <r_epik_Ionization_Penalty_Neutral>
0.00349132

> <r_epik_State_Penalty>
0.00242418

> <r_epik_Charging_Adjusted_Penalty>
0.00242418

> <i_epik_Tot_Q>
0

> <i_epik_Tot_abs_Q>
0

> <r_epik_Metal_State_Penalty>
-0

> <b_epik_Metal_Only>
0

> <s_lp_Force_Field>
OPLS_2005

> <r_lp_Energy>
48.9285

> <b_lp_Chiralities_Consistent>
1

> <s_lp_Variant>
AV-unprocessed.smi:234-14

> <Gold.Version>
5.8.1

> <Gold.Id.Protein>
6NUR|6NUR_protein|mol2

> <Gold.PLP.Fitness>
39.6608

> <Gold.PLP.PLP>
-35.4109

> <Gold.PLP.part.hbond>
-1.9813

> <Gold.PLP.part.metal>
0.0000

> <Gold.PLP.part.buried>
-4.2694

> <Gold.PLP.part.nonpolar>
-30.5578

> <Gold.PLP.part.repulsive>
0.5469

> <Gold.PLP.ligand.clash>
0.0000

> <Gold.PLP.ligand.torsion>
1.3931

> <Gold.PLP.Chemscore.Hbond>
1.0000

> <Gold.PLP.Chemscore.CHOScore>
0.9981

> <Gold.PLP.Chemscore.Metal>
0.0000

> <Gold.Chemscore.Hbonds>
donor molecule, donor type, donor heavy atom, donor atom, acceptor molecule, acceptor atom, score
      L1  H    20    45       P1 10186  0.67
      L1  C    16    42       P1 10171  0.90

> <Gold.PLP.Chemscore.Internal.Correction>
1.0420

> <Gold.Rescore>
     Score         DG    S(hbond)    S(metal)    S(lipo)     H(rot)  DE(clash)    DE(int)     intcor
      7.91     -10.73       0.84        0.00      78.41       2.62       0.14       2.68       ----

> <Gold.Chemscore.Fitness>
7.9069

> <Gold.Chemscore.DG>
-10.7307

> <Gold.Chemscore.ZeroCoef>
-5.4800

> <Gold.Chemscore.Hbond>
0.8351

> <Gold.Chemscore.Metal>
0.0000

> <Gold.Chemscore.Lipo>
78.4067

> <Gold.Chemscore.Internal_Hbond>
0.0000

> <Gold.Chemscore.DEClash>
0.1444

> <Gold.Chemscore.DEInternal>
2.6794

> <Gold.Chemscore.Rot>
2.6219

> <Gold.Chemscore.Internal.Correction>
   9.000000E+99

> <Gold.Chemscore.Hbonds>
donor molecule, donor type, donor heavy atom, donor atom, acceptor molecule, acceptor atom, score
      L1  H    20    45       P1 10186  0.62

> <Gold.Chemscore.Hbond.Weighted>
-2.7893

> <Gold.Chemscore.Metal.Weighted>
-0.0000

> <Gold.Chemscore.Lipo.Weighted>
-9.1736

> <Gold.Chemscore.Internal_Hbond.Weighted>
0.0000

> <Gold.Chemscore.DEClash.Weighted>
0.1444

> <Gold.Chemscore.DEInternal.Weighted>
2.6794

> <Gold.Chemscore.Rot.Weighted>
6.7121

> <Gold.Chemscore.Internal.Correction.Weighted>
   9.000000E+99

> <Gold.Protein.RotatedTorsions>
[ 6907 6896 6895 6894 ] final   51.57 input  -60.11 | X-H torsion
[ 7974 7965 7964 7962 ] final  150.52 input  175.53 | X-H torsion
[ 8008 7997 7996 7995 ] final   11.42 input   59.86 | X-H torsion
[ 10167 10162 10161 10158 ] final -123.07 input  -65.29 | X-H torsion
[ 10718 10713 10712 10709 ] final   97.01 input   66.30 | X-H torsion
[ 10763 10752 10751 10750 ] final -125.17 input  -60.55 | X-H torsion
[ 11005 11000 10999 10996 ] final -144.63 input  -57.11 | X-H torsion

> <Gold.Protein.ActiveResidues>
 VAL166  LYS551  ARG553  GLY616  TRP617  ASP618  TYR619  PRO620  LYS621  CYS622 
 ASP623  PHE694  ASN695  SER759  ASP760  ASP761  ALA762  ILE779  LEU786  VAL792 
 PHE793  MET794  SER795  GLU796  ALA797  LYS798  CYS799  TRP800  GLU811  SER814 

> <Gold.Protein.RotatedAtoms>
  152.3141  134.7461  160.0329 H   0  0  0  0  0  0  0  0  0  0  0  0  # atno 6907 bound_to 6896
  151.7932  133.3356  159.3513 H   0  0  0  0  0  0  0  0  0  0  0  0  # atno 6908 bound_to 6896
  150.7335  134.5754  159.5956 H   0  0  0  0  0  0  0  0  0  0  0  0  # atno 6909 bound_to 6896
  144.8358  139.6419  143.6038 H   0  0  0  0  0  0  0  0  0  0  0  0  # atno 7974 bound_to 7965
  154.8067  140.2861  155.5882 H   0  0  0  0  0  0  0  0  0  0  0  0  # atno 8008 bound_to 7997
  156.2983  140.2576  156.2876 H   0  0  0  0  0  0  0  0  0  0  0  0  # atno 8009 bound_to 7997
  154.9495  140.0379  157.2126 H   0  0  0  0  0  0  0  0  0  0  0  0  # atno 8010 bound_to 7997
  140.0074  143.5477  152.2277 H   0  0  0  0  0  0  0  0  0  0  0  0  # atno 10167 bound_to 10162
  157.6919  131.0596  150.4579 H   0  0  0  0  0  0  0  0  0  0  0  0  # atno 10718 bound_to 10713
  154.8732  135.4039  154.3224 H   0  0  0  0  0  0  0  0  0  0  0  0  # atno 10763 bound_to 10752
  153.4050  135.7019  153.6404 H   0  0  0  0  0  0  0  0  0  0  0  0  # atno 10764 bound_to 10752
  153.5131  135.3703  155.2567 H   0  0  0  0  0  0  0  0  0  0  0  0  # atno 10765 bound_to 10752
  140.8005  134.2862  157.4980 H   0  0  0  0  0  0  0  0  0  0  0  0  # atno 11005 bound_to 11000
  146.2657  139.6514  142.9331 LP  0  0  0  0  0  0  0  0  0  0  0  0  # atno 17320 bound_to 7965
  145.4798  141.0437  143.2652 LP  0  0  0  0  0  0  0  0  0  0  0  0  # atno 17321 bound_to 7965
  139.6229  144.7632  151.2702 LP  0  0  0  0  0  0  0  0  0  0  0  0  # atno 17342 bound_to 10162
  140.7395  143.6617  150.8159 LP  0  0  0  0  0  0  0  0  0  0  0  0  # atno 17343 bound_to 10162
  156.4925  130.4098  149.6398 LP  0  0  0  0  0  0  0  0  0  0  0  0  # atno 17370 bound_to 10713
  156.3404  130.7379  151.2323 LP  0  0  0  0  0  0  0  0  0  0  0  0  # atno 17371 bound_to 10713
  139.8722  134.9427  156.3831 LP  0  0  0  0  0  0  0  0  0  0  0  0  # atno 17394 bound_to 11000
  140.9299  133.7586  156.0012 LP  0  0  0  0  0  0  0  0  0  0  0  0  # atno 17395 bound_to 11000

$$$$
