AV-unprocessed.smi:2471|AV-procd|sdf|9737|dock1
  -GOLD-   2272013373D 1   1.00000     0.00000
 Structure written by MMmdl.
 40 41  0  0  0  0  0  0  0  0  1 V2000
  146.4807  130.3482  152.4436 C   0  0  0  0  0  0  0  0  0  0  0  0
  145.8066  131.5879  151.8948 C   0  0  0  0  0  0  0  0  0  0  0  0
  144.5904  131.4999  151.1893 C   0  0  0  0  0  0  0  0  0  0  0  0
  144.0140  132.6901  150.7110 C   0  0  0  0  0  0  0  0  0  0  0  0
  144.6732  133.9105  150.9552 C   0  0  0  0  0  0  0  0  0  0  0  0
  145.8928  133.9113  151.6689 C   0  0  0  0  0  0  0  0  0  0  0  0
  146.4776  135.1914  151.8586 N   0  0  0  0  0  0  0  0  0  0  0  0
  145.8669  136.3891  151.8903 C   0  0  0  0  0  0  0  0  0  0  0  0
  144.6564  136.5766  151.7634 O   0  0  0  0  0  0  0  0  0  0  0  0
  146.7514  137.3784  152.0821 N   0  0  0  0  0  0  0  0  0  0  0  0
  146.4178  138.7969  152.1728 C   0  0  0  0  0  0  0  0  0  0  0  0
  147.0994  139.5018  153.3709 C   0  0  2  0  0  0  0  0  0  0  0  0
  147.1008  141.0392  153.1997 C   0  0  0  0  0  0  0  0  0  0  0  0
  147.7997  141.7511  154.3679 C   0  0  0  0  0  0  0  0  0  0  0  0
  149.2338  141.2370  154.5505 C   0  0  0  0  0  0  0  0  0  0  0  0
  149.2449  139.7154  154.7510 C   0  0  0  0  0  0  0  0  0  0  0  0
  148.5452  138.9898  153.5866 C   0  0  1  0  0  0  0  0  0  0  0  0
  148.5399  137.6066  153.8787 O   0  0  0  0  0  0  0  0  0  0  0  0
  146.4393  132.7579  152.1284 N   0  0  0  0  0  0  0  0  0  0  0  0
  145.9764  129.4418  152.1070 H   0  0  0  0  0  0  0  0  0  0  0  0
  146.4665  130.3626  153.5336 H   0  0  0  0  0  0  0  0  0  0  0  0
  147.5188  130.3013  152.1137 H   0  0  0  0  0  0  0  0  0  0  0  0
  144.1093  130.5478  151.0191 H   0  0  0  0  0  0  0  0  0  0  0  0
  143.0818  132.6688  150.1664 H   0  0  0  0  0  0  0  0  0  0  0  0
  144.2436  134.8338  150.5945 H   0  0  0  0  0  0  0  0  0  0  0  0
  147.4783  135.1953  151.9884 H   0  0  0  0  0  0  0  0  0  0  0  0
  147.7267  137.1345  152.1744 H   0  0  0  0  0  0  0  0  0  0  0  0
  146.6856  139.2822  151.2330 H   0  0  0  0  0  0  0  0  0  0  0  0
  145.3343  138.8829  152.2599 H   0  0  0  0  0  0  0  0  0  0  0  0
  146.5283  139.2716  154.2719 H   0  0  0  0  0  0  0  0  0  0  0  0
  147.5991  141.3035  152.2660 H   0  0  0  0  0  0  0  0  0  0  0  0
  146.0805  141.4152  153.1206 H   0  0  0  0  0  0  0  0  0  0  0  0
  147.8100  142.8274  154.1941 H   0  0  0  0  0  0  0  0  0  0  0  0
  147.2324  141.5912  155.2857 H   0  0  0  0  0  0  0  0  0  0  0  0
  149.8326  141.4968  153.6766 H   0  0  0  0  0  0  0  0  0  0  0  0
  149.7005  141.7294  155.4042 H   0  0  0  0  0  0  0  0  0  0  0  0
  150.2736  139.3658  154.8459 H   0  0  0  0  0  0  0  0  0  0  0  0
  148.7478  139.4733  155.6918 H   0  0  0  0  0  0  0  0  0  0  0  0
  149.1239  139.1385  152.6739 H   0  0  0  0  0  0  0  0  0  0  0  0
  148.9665  137.1483  153.1708 H   0  0  0  0  0  0  0  0  0  0  0  0
  1  2  1  0  0  0  0
  1 20  1  0  0  0  0
  1 21  1  0  0  0  0
  1 22  1  0  0  0  0
  2 19  1  0  0  0  0
  2  3  2  0  0  0  0
  3  4  1  0  0  0  0
  3 23  1  0  0  0  0
  4  5  2  0  0  0  0
  4 24  1  0  0  0  0
  5  6  1  0  0  0  0
  5 25  1  0  0  0  0
  6  7  1  0  0  0  0
  6 19  2  0  0  0  0
  7  8  1  0  0  0  0
  7 26  1  0  0  0  0
  8  9  2  0  0  0  0
  8 10  1  0  0  0  0
 10 11  1  0  0  0  0
 10 27  1  0  0  0  0
 11 12  1  0  0  0  0
 11 28  1  0  0  0  0
 11 29  1  0  0  0  0
 12 17  1  0  0  0  0
 12 13  1  0  0  0  0
 12 30  1  0  0  0  0
 13 14  1  0  0  0  0
 13 31  1  0  0  0  0
 13 32  1  0  0  0  0
 14 15  1  0  0  0  0
 14 33  1  0  0  0  0
 14 34  1  0  0  0  0
 15 16  1  0  0  0  0
 15 35  1  0  0  0  0
 15 36  1  0  0  0  0
 16 17  1  0  0  0  0
 16 37  1  0  0  0  0
 16 38  1  0  0  0  0
 17 18  1  0  0  0  0
 17 39  1  0  0  0  0
 18 40  1  0  0  0  0
M  END
> <s_m_source_file>
AV-unprocessed.smi

> <i_m_source_file_index>
2471

> <i_lp_mmshare_version>
43012

> <i_f3d_flags>
0

> <s_epik_input>
W0NIM11jMVtjSF1bY0hdW2NIXWMobjEpW05IXUMoPU8pW05IXVtDSDJdW0NAQEhdMltDSDJdW0NIMl1bQ0gyXVtDSDJdW0NASF0yW09IXQ==

> <s_epik_cmdline>
J2VwaWtfcHl0aG9uJywgJy1waCcsICc3LjAnLCAnLXRuJywgJzgnLCAnLW1hJywgJzIwMCcsICctbWV0YWxfYmluZGluZycsICctaW1hZScsICc8aW5maWxlLm1hZT4nLCAnLW9tYWUnLCAnPG91dGZpbGUubWFlPic=

> <r_lp_tautomer_probability>
1

> <r_epik_Ionization_Penalty>
8.52237e-05

> <r_epik_Ionization_Penalty_Charging>
0

> <r_epik_Ionization_Penalty_Neutral>
8.52237e-05

> <r_epik_State_Penalty>
-0

> <r_epik_Charging_Adjusted_Penalty>
0

> <i_epik_Tot_Q>
0

> <i_epik_Tot_abs_Q>
0

> <r_epik_Metal_State_Penalty>
-0

> <b_epik_Metal_Only>
0

> <s_lp_Force_Field>
OPLS_2005

> <r_lp_Energy>
13.6744

> <b_lp_Chiralities_Consistent>
1

> <s_lp_Variant>
AV-unprocessed.smi:2471-1

> <Gold.Version>
5.8.1

> <Gold.Id.Protein>
6NUR|6NUR_protein|mol2

> <Gold.PLP.Fitness>
43.1254

> <Gold.PLP.PLP>
-35.2200

> <Gold.PLP.part.hbond>
-2.5214

> <Gold.PLP.part.metal>
0.0000

> <Gold.PLP.part.buried>
-2.3725

> <Gold.PLP.part.nonpolar>
-32.0064

> <Gold.PLP.part.repulsive>
2.1163

> <Gold.PLP.ligand.clash>
0.0000

> <Gold.PLP.ligand.torsion>
0.3980

> <Gold.PLP.Chemscore.Hbond>
2.8960

> <Gold.PLP.Chemscore.CHOScore>
0.0000

> <Gold.PLP.Chemscore.Metal>
0.0000

> <Gold.Chemscore.Hbonds>
donor molecule, donor type, donor heavy atom, donor atom, acceptor molecule, acceptor atom, score
      L1  H     7    26       P1  7948  0.88
      L1  H    10    27       P1  7948  1.00
      L1  H    18    40       P1  7948  1.00

> <Gold.PLP.Chemscore.Internal.Correction>
0.0133

> <Gold.Rescore>
     Score         DG    S(hbond)    S(metal)    S(lipo)     H(rot)  DE(clash)    DE(int)     intcor
     16.93     -20.61       2.88        0.00      84.95       1.73       0.12       3.56       ----

> <Gold.Chemscore.Fitness>
16.9271

> <Gold.Chemscore.DG>
-20.6056

> <Gold.Chemscore.ZeroCoef>
-5.4800

> <Gold.Chemscore.Hbond>
2.8819

> <Gold.Chemscore.Metal>
0.0000

> <Gold.Chemscore.Lipo>
84.9475

> <Gold.Chemscore.Internal_Hbond>
0.0000

> <Gold.Chemscore.DEClash>
0.1230

> <Gold.Chemscore.DEInternal>
3.5555

> <Gold.Chemscore.Rot>
1.7339

> <Gold.Chemscore.Internal.Correction>
   9.000000E+99

> <Gold.Chemscore.Hbonds>
donor molecule, donor type, donor heavy atom, donor atom, acceptor molecule, acceptor atom, score
      L1  H     7    26       P1  7948  0.84
      L1  H    10    27       P1  7948  0.91
      L1  H    18    40       P1  7948  0.95

> <Gold.Chemscore.Hbond.Weighted>
-9.6254

> <Gold.Chemscore.Metal.Weighted>
-0.0000

> <Gold.Chemscore.Lipo.Weighted>
-9.9389

> <Gold.Chemscore.Internal_Hbond.Weighted>
0.0000

> <Gold.Chemscore.DEClash.Weighted>
0.1230

> <Gold.Chemscore.DEInternal.Weighted>
3.5555

> <Gold.Chemscore.Rot.Weighted>
4.4387

> <Gold.Chemscore.Internal.Correction.Weighted>
   9.000000E+99

> <Gold.Protein.RotatedTorsions>
[ 6907 6896 6895 6894 ] final   77.37 input  -60.11 | X-H torsion
[ 7974 7965 7964 7962 ] final    7.96 input  175.53 | X-H torsion
[ 8008 7997 7996 7995 ] final -102.41 input   59.86 | X-H torsion
[ 10167 10162 10161 10158 ] final  -13.30 input  -65.29 | X-H torsion
[ 10718 10713 10712 10709 ] final  -49.28 input   66.30 | X-H torsion
[ 10763 10752 10751 10750 ] final   89.43 input  -60.55 | X-H torsion
[ 11005 11000 10999 10996 ] final -144.96 input  -57.11 | X-H torsion

> <Gold.Protein.ActiveResidues>
 VAL166  LYS551  ARG553  GLY616  TRP617  ASP618  TYR619  PRO620  LYS621  CYS622 
 ASP623  PHE694  ASN695  SER759  ASP760  ASP761  ALA762  ILE779  LEU786  VAL792 
 PHE793  MET794  SER795  GLU796  ALA797  LYS798  CYS799  TRP800  GLU811  SER814 

> <Gold.Protein.RotatedAtoms>
  152.5114  134.3827  159.9356 H   0  0  0  0  0  0  0  0  0  0  0  0  # atno 6907 bound_to 6896
  151.3785  133.3823  159.2715 H   0  0  0  0  0  0  0  0  0  0  0  0  # atno 6908 bound_to 6896
  150.9523  134.8941  159.7738 H   0  0  0  0  0  0  0  0  0  0  0  0  # atno 6909 bound_to 6896
  146.2421  140.0005  142.8416 H   0  0  0  0  0  0  0  0  0  0  0  0  # atno 7974 bound_to 7965
  154.8562  140.0428  157.1636 H   0  0  0  0  0  0  0  0  0  0  0  0  # atno 8008 bound_to 7997
  154.8889  140.2983  155.5361 H   0  0  0  0  0  0  0  0  0  0  0  0  # atno 8009 bound_to 7997
  156.2997  140.2397  156.3902 H   0  0  0  0  0  0  0  0  0  0  0  0  # atno 8010 bound_to 7997
  140.7179  143.5441  150.9375 H   0  0  0  0  0  0  0  0  0  0  0  0  # atno 10167 bound_to 10162
  156.1908  130.4153  149.9375 H   0  0  0  0  0  0  0  0  0  0  0  0  # atno 10718 bound_to 10713
  153.1871  135.4470  155.0102 H   0  0  0  0  0  0  0  0  0  0  0  0  # atno 10763 bound_to 10752
  154.8067  135.3277  154.7416 H   0  0  0  0  0  0  0  0  0  0  0  0  # atno 10764 bound_to 10752
  153.7873  135.6973  153.4933 H   0  0  0  0  0  0  0  0  0  0  0  0  # atno 10765 bound_to 10752
  140.7971  134.2900  157.4992 H   0  0  0  0  0  0  0  0  0  0  0  0  # atno 11005 bound_to 11000
  145.1420  140.9576  143.4483 LP  0  0  0  0  0  0  0  0  0  0  0  0  # atno 17320 bound_to 7965
  145.0287  139.3360  143.6036 LP  0  0  0  0  0  0  0  0  0  0  0  0  # atno 17321 bound_to 7965
  139.9164  143.6658  152.3105 LP  0  0  0  0  0  0  0  0  0  0  0  0  # atno 17342 bound_to 10162
  139.7059  144.7628  151.1193 LP  0  0  0  0  0  0  0  0  0  0  0  0  # atno 17343 bound_to 10162
  156.7116  130.8972  151.3610 LP  0  0  0  0  0  0  0  0  0  0  0  0  # atno 17370 bound_to 10713
  157.6927  130.9250  150.0559 LP  0  0  0  0  0  0  0  0  0  0  0  0  # atno 17371 bound_to 10713
  139.8725  134.9408  156.3780 LP  0  0  0  0  0  0  0  0  0  0  0  0  # atno 17394 bound_to 11000
  140.9331  133.7565  156.0050 LP  0  0  0  0  0  0  0  0  0  0  0  0  # atno 17395 bound_to 11000

$$$$
