AV-unprocessed.smi:2993|AV-procd|sdf|11402|dock7
  -GOLD-   2272016323D 1   1.00000     0.00000
 Structure written by MMmdl.
 34 35  0  0  0  0  0  0  0  0  1 V2000
  148.9047  140.8799  154.4171 C   0  0  0  0  0  0  0  0  0  0  0  0
  150.0602  140.3344  155.2065 C   0  0  0  0  0  0  0  0  0  0  0  0
  150.9717  139.5976  154.5942 N   0  0  0  0  0  0  0  0  0  0  0  0
  151.9027  139.2450  155.5759 O   0  0  0  0  0  0  0  0  0  0  0  0
  151.5097  139.7885  156.7557 C   0  0  0  0  0  0  0  0  0  0  0  0
  152.3854  139.5229  157.9334 C   0  0  0  0  0  0  0  0  0  0  0  0
  150.3465  140.4908  156.5938 C   0  0  0  0  0  0  0  0  0  0  0  0
  149.5535  141.2517  157.6252 C   0  0  0  0  0  0  0  0  0  0  0  0
  150.4478  142.2975  158.2906 C   0  0  0  0  0  0  0  0  0  0  0  0
  151.0498  142.0221  159.3281 O   0  0  0  0  0  0  0  0  0  0  0  0
  150.5175  143.4933  157.6853 N   0  0  0  0  0  0  0  0  0  0  0  0
  151.2868  144.6402  158.1546 C   0  0  2  0  0  0  0  0  0  0  0  0
  152.7795  144.3350  157.9683 C   0  0  0  0  0  0  0  0  0  0  0  0
  150.9875  145.0213  159.5947 C   0  0  0  0  0  0  0  0  0  0  0  0
  151.8485  146.0124  160.3428 C   0  0  0  0  0  0  0  0  0  0  0  0
  151.8738  144.5501  160.7233 C   0  0  0  0  0  0  0  0  0  0  0  0
  148.4559  141.7406  154.9126 H   0  0  0  0  0  0  0  0  0  0  0  0
  148.1272  140.1262  154.2926 H   0  0  0  0  0  0  0  0  0  0  0  0
  149.2190  141.2020  153.4238 H   0  0  0  0  0  0  0  0  0  0  0  0
  152.1621  140.2067  158.7521 H   0  0  0  0  0  0  0  0  0  0  0  0
  153.4361  139.6467  157.6706 H   0  0  0  0  0  0  0  0  0  0  0  0
  152.2439  138.5050  158.2961 H   0  0  0  0  0  0  0  0  0  0  0  0
  148.6953  141.7531  157.1764 H   0  0  0  0  0  0  0  0  0  0  0  0
  149.1463  140.5860  158.3873 H   0  0  0  0  0  0  0  0  0  0  0  0
  149.9866  143.6218  156.8362 H   0  0  0  0  0  0  0  0  0  0  0  0
  151.0494  145.4974  157.5212 H   0  0  0  0  0  0  0  0  0  0  0  0
  153.3940  145.1902  158.2513 H   0  0  0  0  0  0  0  0  0  0  0  0
  153.0072  144.0989  156.9282 H   0  0  0  0  0  0  0  0  0  0  0  0
  153.0905  143.4864  158.5786 H   0  0  0  0  0  0  0  0  0  0  0  0
  149.9231  145.0514  159.8218 H   0  0  0  0  0  0  0  0  0  0  0  0
  152.7246  146.4115  159.8356 H   0  0  0  0  0  0  0  0  0  0  0  0
  151.3481  146.7015  161.0198 H   0  0  0  0  0  0  0  0  0  0  0  0
  151.3899  144.2636  161.6546 H   0  0  0  0  0  0  0  0  0  0  0  0
  152.7649  143.9808  160.4661 H   0  0  0  0  0  0  0  0  0  0  0  0
  1  2  1  0  0  0  0
  1 17  1  0  0  0  0
  1 18  1  0  0  0  0
  1 19  1  0  0  0  0
  2  7  1  0  0  0  0
  2  3  2  0  0  0  0
  3  4  1  0  0  0  0
  4  5  1  0  0  0  0
  5  6  1  0  0  0  0
  5  7  2  0  0  0  0
  6 20  1  0  0  0  0
  6 21  1  0  0  0  0
  6 22  1  0  0  0  0
  7  8  1  0  0  0  0
  8  9  1  0  0  0  0
  8 23  1  0  0  0  0
  8 24  1  0  0  0  0
  9 10  2  0  0  0  0
  9 11  1  0  0  0  0
 11 12  1  0  0  0  0
 11 25  1  0  0  0  0
 12 13  1  0  0  0  0
 12 14  1  0  0  0  0
 12 26  1  0  0  0  0
 13 27  1  0  0  0  0
 13 28  1  0  0  0  0
 13 29  1  0  0  0  0
 14 16  1  0  0  0  0
 14 15  1  0  0  0  0
 14 30  1  0  0  0  0
 15 16  1  0  0  0  0
 15 31  1  0  0  0  0
 15 32  1  0  0  0  0
 16 33  1  0  0  0  0
 16 34  1  0  0  0  0
M  END
> <s_m_source_file>
AV-unprocessed.smi

> <i_m_source_file_index>
2993

> <i_lp_mmshare_version>
43012

> <i_f3d_flags>
0

> <s_epik_input>
W0NIM11jMW5vYyhbQ0gzXSljMVtDSDJdQyg9TylbTkhdW0NASF0oW0NIM10pW0NIXTJbQ0gyXVtDSDJdMg==

> <s_epik_cmdline>
J2VwaWtfcHl0aG9uJywgJy1waCcsICc3LjAnLCAnLXRuJywgJzgnLCAnLW1hJywgJzIwMCcsICctbWV0YWxfYmluZGluZycsICctaW1hZScsICc8aW5maWxlLm1hZT4nLCAnLW9tYWUnLCAnPG91dGZpbGUubWFlPic=

> <r_lp_tautomer_probability>
1

> <r_epik_Ionization_Penalty>
1.92533e-08

> <r_epik_Ionization_Penalty_Charging>
0

> <r_epik_Ionization_Penalty_Neutral>
1.92533e-08

> <r_epik_State_Penalty>
-0

> <r_epik_Charging_Adjusted_Penalty>
0

> <i_epik_Tot_Q>
0

> <i_epik_Tot_abs_Q>
0

> <r_epik_Metal_State_Penalty>
-0

> <b_epik_Metal_Only>
0

> <s_lp_Force_Field>
OPLS_2005

> <r_lp_Energy>
6.61094

> <b_lp_Chiralities_Consistent>
1

> <s_lp_Variant>
AV-unprocessed.smi:2993-1

> <Gold.Version>
5.8.1

> <Gold.Id.Protein>
6NUR|6NUR_protein|mol2

> <Gold.PLP.Fitness>
41.5701

> <Gold.PLP.PLP>
-36.5476

> <Gold.PLP.part.hbond>
-2.6645

> <Gold.PLP.part.metal>
0.0000

> <Gold.PLP.part.buried>
-4.5863

> <Gold.PLP.part.nonpolar>
-29.9653

> <Gold.PLP.part.repulsive>
0.1339

> <Gold.PLP.ligand.clash>
0.0000

> <Gold.PLP.ligand.torsion>
1.0234

> <Gold.PLP.Chemscore.Hbond>
2.0000

> <Gold.PLP.Chemscore.CHOScore>
0.0000

> <Gold.PLP.Chemscore.Metal>
0.0000

> <Gold.Chemscore.Hbonds>
donor molecule, donor type, donor heavy atom, donor atom, acceptor molecule, acceptor atom, score
      L1  H    11    25       P1  8028  1.00
      P1  H  7989  7998       L1     3  0.95

> <Gold.PLP.Chemscore.Internal.Correction>
1.0693

> <Gold.Rescore>
     Score         DG    S(hbond)    S(metal)    S(lipo)     H(rot)  DE(clash)    DE(int)     intcor
     15.06     -16.66       1.14        0.00      94.94       1.46       0.04       1.55       ----

> <Gold.Chemscore.Fitness>
15.0631

> <Gold.Chemscore.DG>
-16.6564

> <Gold.Chemscore.ZeroCoef>
-5.4800

> <Gold.Chemscore.Hbond>
1.1382

> <Gold.Chemscore.Metal>
0.0000

> <Gold.Chemscore.Lipo>
94.9434

> <Gold.Chemscore.Internal_Hbond>
0.0000

> <Gold.Chemscore.DEClash>
0.0431

> <Gold.Chemscore.DEInternal>
1.5502

> <Gold.Chemscore.Rot>
1.4584

> <Gold.Chemscore.Internal.Correction>
   9.000000E+99

> <Gold.Chemscore.Hbonds>
donor molecule, donor type, donor heavy atom, donor atom, acceptor molecule, acceptor atom, score
      L1  H    11    25       P1  8028  0.93
      P1  H  7989  7998       L1     3  0.17

> <Gold.Chemscore.Hbond.Weighted>
-3.8014

> <Gold.Chemscore.Metal.Weighted>
-0.0000

> <Gold.Chemscore.Lipo.Weighted>
-11.1084

> <Gold.Chemscore.Internal_Hbond.Weighted>
0.0000

> <Gold.Chemscore.DEClash.Weighted>
0.0431

> <Gold.Chemscore.DEInternal.Weighted>
1.5502

> <Gold.Chemscore.Rot.Weighted>
3.7334

> <Gold.Chemscore.Internal.Correction.Weighted>
   9.000000E+99

> <Gold.Protein.RotatedTorsions>
[ 6907 6896 6895 6894 ] final  -99.62 input  -60.11 | X-H torsion
[ 7974 7965 7964 7962 ] final  -42.06 input  175.53 | X-H torsion
[ 8008 7997 7996 7995 ] final  124.61 input   59.86 | X-H torsion
[ 10167 10162 10161 10158 ] final -114.25 input  -65.29 | X-H torsion
[ 10718 10713 10712 10709 ] final    2.27 input   66.30 | X-H torsion
[ 10763 10752 10751 10750 ] final -130.88 input  -60.55 | X-H torsion
[ 11005 11000 10999 10996 ] final  -32.48 input  -57.11 | X-H torsion

> <Gold.Protein.ActiveResidues>
 VAL166  LYS551  ARG553  GLY616  TRP617  ASP618  TYR619  PRO620  LYS621  CYS622 
 ASP623  PHE694  ASN695  SER759  ASP760  ASP761  ALA762  ILE779  LEU786  VAL792 
 PHE793  MET794  SER795  GLU796  ALA797  LYS798  CYS799  TRP800  GLU811  SER814 

> <Gold.Protein.RotatedAtoms>
  150.7086  134.1012  159.3966 H   0  0  0  0  0  0  0  0  0  0  0  0  # atno 6907 bound_to 6896
  151.8999  135.0380  160.0514 H   0  0  0  0  0  0  0  0  0  0  0  0  # atno 6908 bound_to 6896
  152.2423  133.5110  159.5314 H   0  0  0  0  0  0  0  0  0  0  0  0  # atno 6909 bound_to 6896
  146.0152  140.6917  142.9205 H   0  0  0  0  0  0  0  0  0  0  0  0  # atno 7974 bound_to 7965
  156.2807  140.2735  156.1816 H   0  0  0  0  0  0  0  0  0  0  0  0  # atno 8008 bound_to 7997
  155.0550  140.0386  157.2575 H   0  0  0  0  0  0  0  0  0  0  0  0  # atno 8009 bound_to 7997
  154.7164  140.2679  155.6587 H   0  0  0  0  0  0  0  0  0  0  0  0  # atno 8010 bound_to 7997
  140.1030  143.4596  152.1800 H   0  0  0  0  0  0  0  0  0  0  0  0  # atno 10167 bound_to 10162
  156.8605  130.5585  149.5663 H   0  0  0  0  0  0  0  0  0  0  0  0  # atno 10718 bound_to 10713
  154.8753  135.3848  154.4156 H   0  0  0  0  0  0  0  0  0  0  0  0  # atno 10763 bound_to 10752
  153.4865  135.7030  153.5913 H   0  0  0  0  0  0  0  0  0  0  0  0  # atno 10764 bound_to 10752
  153.4306  135.3879  155.2135 H   0  0  0  0  0  0  0  0  0  0  0  0  # atno 10765 bound_to 10752
  140.9556  133.7195  156.1288 H   0  0  0  0  0  0  0  0  0  0  0  0  # atno 11005 bound_to 11000
  144.6968  140.3468  143.7189 LP  0  0  0  0  0  0  0  0  0  0  0  0  # atno 17320 bound_to 7965
  145.7280  139.1728  143.2446 LP  0  0  0  0  0  0  0  0  0  0  0  0  # atno 17321 bound_to 7965
  139.5661  144.7436  151.4019 LP  0  0  0  0  0  0  0  0  0  0  0  0  # atno 17342 bound_to 10162
  140.6968  143.7730  150.7338 LP  0  0  0  0  0  0  0  0  0  0  0  0  # atno 17343 bound_to 10162
  156.0779  130.5797  150.9508 LP  0  0  0  0  0  0  0  0  0  0  0  0  # atno 17370 bound_to 10713
  157.6252  131.0926  150.8546 LP  0  0  0  0  0  0  0  0  0  0  0  0  # atno 17371 bound_to 10713
  140.7541  134.4012  157.5536 LP  0  0  0  0  0  0  0  0  0  0  0  0  # atno 17394 bound_to 11000
  139.8861  134.8919  156.2604 LP  0  0  0  0  0  0  0  0  0  0  0  0  # atno 17395 bound_to 11000

$$$$
