AV-unprocessed.smi:2731|AV-procd|sdf|10531|dock9
  -GOLD-   2272014573D 1   1.00000     0.00000
 Structure written by MMmdl.
 46 47  0  0  0  0  0  0  0  0  2 V2000
  149.3846  141.3626  154.8221 C   0  0  0  0  0  0  0  0  0  0  0  0
  150.2261  141.6821  156.0112 C   0  0  0  0  0  0  0  0  0  0  0  0
  150.3105  142.9131  156.5827 N   0  3  0  0  0  0  0  0  0  0  0  0
  151.1607  142.8866  157.6188 N   0  0  0  0  0  0  0  0  0  0  0  0
  151.3962  144.1187  158.3723 C   0  0  0  0  0  0  0  0  0  0  0  0
  151.6704  141.6315  157.7768 C   0  0  0  0  0  0  0  0  0  0  0  0
  152.6590  141.2332  158.8244 C   0  0  0  0  0  0  0  0  0  0  0  0
  151.0874  140.8690  156.7563 C   0  0  0  0  0  0  0  0  0  0  0  0
  151.3628  139.4147  156.4812 C   0  0  0  0  0  0  0  0  0  0  0  0
  151.3437  138.5277  157.7426 C   0  0  0  0  0  0  0  0  0  0  0  0
  149.9968  138.0787  158.0891 N   0  0  0  0  0  0  0  0  0  0  0  0
  149.6840  137.2986  159.1357 C   0  0  0  0  0  0  0  0  0  0  0  0
  150.5274  136.8397  159.9079 O   0  0  0  0  0  0  0  0  0  0  0  0
  148.1901  137.0169  159.3423 C   0  0  0  0  0  0  0  0  0  0  0  0
  147.9449  135.9827  160.3565 N   0  0  0  0  0  0  0  0  0  0  0  0
  148.1941  134.5891  159.9669 C   0  0  0  0  0  0  0  0  0  0  0  0
  147.0022  133.6964  160.3522 C   0  0  0  0  0  0  0  0  0  0  0  0
  146.6038  133.8541  161.8338 C   0  0  0  0  0  0  0  0  0  0  0  0
  147.2222  135.0858  162.5324 C   0  0  0  0  0  0  0  0  0  0  0  0
  147.4451  136.2685  161.5811 C   0  0  0  0  0  0  0  0  0  0  0  0
  147.1788  137.4090  161.9594 O   0  0  0  0  0  0  0  0  0  0  0  0
  150.0093  141.2879  153.9319 H   0  0  0  0  0  0  0  0  0  0  0  0
  148.6385  142.1408  154.6593 H   0  0  0  0  0  0  0  0  0  0  0  0
  148.8686  140.4137  154.9671 H   0  0  0  0  0  0  0  0  0  0  0  0
  150.7921  144.1011  159.2796 H   0  0  0  0  0  0  0  0  0  0  0  0
  151.1253  144.9851  157.7674 H   0  0  0  0  0  0  0  0  0  0  0  0
  152.4518  144.1836  158.6368 H   0  0  0  0  0  0  0  0  0  0  0  0
  153.6550  141.1595  158.3880 H   0  0  0  0  0  0  0  0  0  0  0  0
  152.3926  140.2657  159.2489 H   0  0  0  0  0  0  0  0  0  0  0  0
  152.6870  141.9618  159.6345 H   0  0  0  0  0  0  0  0  0  0  0  0
  150.6373  139.0238  155.7678 H   0  0  0  0  0  0  0  0  0  0  0  0
  152.3307  139.3091  155.9904 H   0  0  0  0  0  0  0  0  0  0  0  0
  151.9644  137.6467  157.5778 H   0  0  0  0  0  0  0  0  0  0  0  0
  151.7949  139.0592  158.5821 H   0  0  0  0  0  0  0  0  0  0  0  0
  149.2438  138.4018  157.4987 H   0  0  0  0  0  0  0  0  0  0  0  0
  147.6883  137.9379  159.6430 H   0  0  0  0  0  0  0  0  0  0  0  0
  147.7482  136.7413  158.3835 H   0  0  0  0  0  0  0  0  0  0  0  0
  148.3744  134.5107  158.8943 H   0  0  0  0  0  0  0  0  0  0  0  0
  149.1028  134.2410  160.4602 H   0  0  0  0  0  0  0  0  0  0  0  0
  146.1509  133.9703  159.7271 H   0  0  0  0  0  0  0  0  0  0  0  0
  147.2187  132.6519  160.1269 H   0  0  0  0  0  0  0  0  0  0  0  0
  145.5167  133.8954  161.9098 H   0  0  0  0  0  0  0  0  0  0  0  0
  146.9034  132.9607  162.3825 H   0  0  0  0  0  0  0  0  0  0  0  0
  146.6036  135.3909  163.3772 H   0  0  0  0  0  0  0  0  0  0  0  0
  148.1955  134.8177  162.9452 H   0  0  0  0  0  0  0  0  0  0  0  0
  149.8371  143.7669  156.3155 H   0  0  0  0  0  0  0  0  0  0  0  0
  1  2  1  0  0  0  0
  1 22  1  0  0  0  0
  1 23  1  0  0  0  0
  1 24  1  0  0  0  0
  2  8  1  0  0  0  0
  2  3  2  0  0  0  0
  3  4  1  0  0  0  0
  3 46  1  0  0  0  0
  4  5  1  0  0  0  0
  4  6  1  0  0  0  0
  5 25  1  0  0  0  0
  5 26  1  0  0  0  0
  5 27  1  0  0  0  0
  6  7  1  0  0  0  0
  6  8  2  0  0  0  0
  7 28  1  0  0  0  0
  7 29  1  0  0  0  0
  7 30  1  0  0  0  0
  8  9  1  0  0  0  0
  9 10  1  0  0  0  0
  9 31  1  0  0  0  0
  9 32  1  0  0  0  0
 10 11  1  0  0  0  0
 10 33  1  0  0  0  0
 10 34  1  0  0  0  0
 11 12  1  0  0  0  0
 11 35  1  0  0  0  0
 12 13  2  0  0  0  0
 12 14  1  0  0  0  0
 14 15  1  0  0  0  0
 14 36  1  0  0  0  0
 14 37  1  0  0  0  0
 15 20  1  0  0  0  0
 15 16  1  0  0  0  0
 16 17  1  0  0  0  0
 16 38  1  0  0  0  0
 16 39  1  0  0  0  0
 17 18  1  0  0  0  0
 17 40  1  0  0  0  0
 17 41  1  0  0  0  0
 18 19  1  0  0  0  0
 18 42  1  0  0  0  0
 18 43  1  0  0  0  0
 19 20  1  0  0  0  0
 19 44  1  0  0  0  0
 19 45  1  0  0  0  0
 20 21  2  0  0  0  0
M  CHG  1   3   1
M  END
> <s_m_source_file>
AV-unprocessed.smi

> <i_m_source_file_index>
2731

> <i_lp_mmshare_version>
43012

> <i_f3d_flags>
0

> <s_epik_input>
W0NIM11jMW5uKFtDSDNdKWMoW0NIM10pYzFbQ0gyXVtDSDJdW05IXUMoPU8pW0NIMl1OMltDSDJdW0NIMl1bQ0gyXVtDSDJdQzI9Tw==

> <s_epik_cmdline>
J2VwaWtfcHl0aG9uJywgJy1waCcsICc3LjAnLCAnLXRuJywgJzgnLCAnLW1hJywgJzIwMCcsICctbWV0YWxfYmluZGluZycsICctaW1hZScsICc8aW5maWxlLm1hZT4nLCAnLW9tYWUnLCAnPG91dGZpbGUubWFlPic=

> <r_lp_tautomer_probability>
1

> <r_epik_Ionization_Penalty>
2.35701

> <r_epik_Ionization_Penalty_Charging>
2.357

> <r_epik_Ionization_Penalty_Neutral>
2.49505e-07

> <r_epik_State_Penalty>
2.51177

> <r_epik_Charging_Adjusted_Penalty>
4.86877

> <i_epik_Tot_Q>
1

> <i_epik_Tot_abs_Q>
1

> <r_epik_Metal_State_Penalty>
2.52284

> <b_epik_Metal_Only>
0

> <s_lp_Force_Field>
OPLS_2005

> <r_lp_Energy>
19.064

> <b_lp_Chiralities_Consistent>
1

> <s_lp_Variant>
AV-unprocessed.smi:2731-2

> <Gold.Version>
5.8.1

> <Gold.Id.Protein>
6NUR|6NUR_protein|mol2

> <Gold.PLP.Fitness>
54.2649

> <Gold.PLP.PLP>
-42.2311

> <Gold.PLP.part.hbond>
-4.2209

> <Gold.PLP.part.metal>
0.0000

> <Gold.PLP.part.buried>
-3.1104

> <Gold.PLP.part.nonpolar>
-34.7040

> <Gold.PLP.part.repulsive>
0.1704

> <Gold.PLP.ligand.clash>
0.0000

> <Gold.PLP.ligand.torsion>
0.5842

> <Gold.PLP.Chemscore.Hbond>
4.3920

> <Gold.PLP.Chemscore.CHOScore>
0.0000

> <Gold.PLP.Chemscore.Metal>
0.0000

> <Gold.Chemscore.Hbonds>
donor molecule, donor type, donor heavy atom, donor atom, acceptor molecule, acceptor atom, score
      L1  H     3    46       P1  8028  1.79
      P1  H  6896  6907       L1    13  1.00
      P1  H  6931  6943       L1    21  0.74
      P1  H  6934  6947       L1    21  0.74

> <Gold.PLP.Chemscore.Internal.Correction>
0.0262

> <Gold.Rescore>
     Score         DG    S(hbond)    S(metal)    S(lipo)     H(rot)  DE(clash)    DE(int)     intcor
     21.69     -22.30       3.40        0.00      87.20       1.85       0.00       0.61       ----

> <Gold.Chemscore.Fitness>
21.6947

> <Gold.Chemscore.DG>
-22.3020

> <Gold.Chemscore.ZeroCoef>
-5.4800

> <Gold.Chemscore.Hbond>
3.4000

> <Gold.Chemscore.Metal>
0.0000

> <Gold.Chemscore.Lipo>
87.1982

> <Gold.Chemscore.Internal_Hbond>
0.0000

> <Gold.Chemscore.DEClash>
0.0000

> <Gold.Chemscore.DEInternal>
0.6074

> <Gold.Chemscore.Rot>
1.8501

> <Gold.Chemscore.Internal.Correction>
   9.000000E+99

> <Gold.Chemscore.Hbonds>
donor molecule, donor type, donor heavy atom, donor atom, acceptor molecule, acceptor atom, score
      L1  H     3    46       P1  8028  0.87
      P1  H  6896  6907       L1    13  0.97
      P1  H  6931  6943       L1    21  0.21
      P1  H  6934  6947       L1    21  0.74

> <Gold.Chemscore.Hbond.Weighted>
-11.3560

> <Gold.Chemscore.Metal.Weighted>
-0.0000

> <Gold.Chemscore.Lipo.Weighted>
-10.2022

> <Gold.Chemscore.Internal_Hbond.Weighted>
0.0000

> <Gold.Chemscore.DEClash.Weighted>
0.0000

> <Gold.Chemscore.DEInternal.Weighted>
0.6074

> <Gold.Chemscore.Rot.Weighted>
4.7362

> <Gold.Chemscore.Internal.Correction.Weighted>
   9.000000E+99

> <Gold.Protein.RotatedTorsions>
[ 6907 6896 6895 6894 ] final  -37.75 input  -60.11 | X-H torsion
[ 7974 7965 7964 7962 ] final -175.28 input  175.53 | X-H torsion
[ 8008 7997 7996 7995 ] final   33.71 input   59.86 | X-H torsion
[ 10167 10162 10161 10158 ] final   -3.30 input  -65.29 | X-H torsion
[ 10718 10713 10712 10709 ] final -109.40 input   66.30 | X-H torsion
[ 10763 10752 10751 10750 ] final -149.19 input  -60.55 | X-H torsion
[ 11005 11000 10999 10996 ] final   11.19 input  -57.11 | X-H torsion

> <Gold.Protein.ActiveResidues>
 VAL166  LYS551  ARG553  GLY616  TRP617  ASP618  TYR619  PRO620  LYS621  CYS622 
 ASP623  PHE694  ASN695  SER759  ASP760  ASP761  ALA762  ILE779  LEU786  VAL792 
 PHE793  MET794  SER795  GLU796  ALA797  LYS798  CYS799  TRP800  GLU811  SER814 

> <Gold.Protein.RotatedAtoms>
  151.0108  134.9395  159.8005 H   0  0  0  0  0  0  0  0  0  0  0  0  # atno 6907 bound_to 6896
  152.5302  134.3030  159.9095 H   0  0  0  0  0  0  0  0  0  0  0  0  # atno 6908 bound_to 6896
  151.3036  133.4069  159.2676 H   0  0  0  0  0  0  0  0  0  0  0  0  # atno 6909 bound_to 6896
  144.7128  140.1344  143.6396 H   0  0  0  0  0  0  0  0  0  0  0  0  # atno 7974 bound_to 7965
  155.1430  140.3268  155.4448 H   0  0  0  0  0  0  0  0  0  0  0  0  # atno 8008 bound_to 7997
  156.2599  140.1990  156.6494 H   0  0  0  0  0  0  0  0  0  0  0  0  # atno 8009 bound_to 7997
  154.6529  140.0556  156.9962 H   0  0  0  0  0  0  0  0  0  0  0  0  # atno 8010 bound_to 7997
  140.6885  143.6556  150.8311 H   0  0  0  0  0  0  0  0  0  0  0  0  # atno 10167 bound_to 10162
  156.0535  130.5762  150.8094 H   0  0  0  0  0  0  0  0  0  0  0  0  # atno 10718 bound_to 10713
  154.8191  135.3315  154.7091 H   0  0  0  0  0  0  0  0  0  0  0  0  # atno 10763 bound_to 10752
  153.7727  135.6924  153.4908 H   0  0  0  0  0  0  0  0  0  0  0  0  # atno 10764 bound_to 10752
  153.2034  135.4508  155.0242 H   0  0  0  0  0  0  0  0  0  0  0  0  # atno 10765 bound_to 10752
  140.5060  134.0699  155.7806 H   0  0  0  0  0  0  0  0  0  0  0  0  # atno 11005 bound_to 11000
  145.9258  139.2574  143.1354 LP  0  0  0  0  0  0  0  0  0  0  0  0  # atno 17320 bound_to 7965
  145.9574  140.8862  143.0228 LP  0  0  0  0  0  0  0  0  0  0  0  0  # atno 17321 bound_to 7965
  140.0266  143.5487  152.2778 LP  0  0  0  0  0  0  0  0  0  0  0  0  # atno 17342 bound_to 10162
  139.6264  144.7638  151.2629 LP  0  0  0  0  0  0  0  0  0  0  0  0  # atno 17343 bound_to 10162
  157.5483  131.0943  150.9731 LP  0  0  0  0  0  0  0  0  0  0  0  0  # atno 17370 bound_to 10713
  156.9997  130.5595  149.5310 LP  0  0  0  0  0  0  0  0  0  0  0  0  # atno 17371 bound_to 10713
  141.1410  133.9137  157.2325 LP  0  0  0  0  0  0  0  0  0  0  0  0  # atno 17394 bound_to 11000
  139.9686  135.0135  156.9452 LP  0  0  0  0  0  0  0  0  0  0  0  0  # atno 17395 bound_to 11000

$$$$
