AV-unprocessed.smi:3265|AV-procd|sdf|12499|dock9
  -GOLD-   2272018403D 1   1.00000     0.00000
 Structure written by MMmdl.
 41 42  0  0  0  0  0  0  0  0  2 V2000
  144.7288  142.0120  157.0460 C   0  0  0  0  0  0  0  0  0  0  0  0
  145.1411  141.8325  155.5778 C   0  0  1  0  0  0  0  0  0  0  0  0
  146.1465  142.9108  155.1402 C   0  0  0  0  0  0  0  0  0  0  0  0
  146.5592  142.6908  153.6797 C   0  0  0  0  0  0  0  0  0  0  0  0
  147.1020  141.2684  153.4704 C   0  0  0  0  0  0  0  0  0  0  0  0
  146.1104  140.2471  153.8971 N   0  3  1  0  0  0  0  0  0  0  0  0
  146.5584  138.8672  153.5812 C   0  0  0  0  0  0  0  0  0  0  0  0
  146.6421  138.6083  152.0645 C   0  0  0  0  0  0  0  0  0  0  0  0
  145.6122  137.6760  151.6230 N   0  0  0  0  0  0  0  0  0  0  0  0
  145.4150  136.4485  152.1291 C   0  0  0  0  0  0  0  0  0  0  0  0
  146.0837  135.9814  153.0507 O   0  0  0  0  0  0  0  0  0  0  0  0
  144.2886  135.6234  151.5048 C   0  0  0  0  0  0  0  0  0  0  0  0
  144.7469  134.2919  151.1503 N   0  0  0  0  0  0  0  0  0  0  0  0
  144.0086  133.2329  150.6636 C   0  0  0  0  0  0  0  0  0  0  0  0
  144.8676  132.1865  150.4857 C   0  0  0  0  0  0  0  0  0  0  0  0
  146.1264  132.7087  150.8951 C   0  0  0  0  0  0  0  0  0  0  0  0
  146.0511  133.9685  151.2935 N   0  0  0  0  0  0  0  0  0  0  0  0
  145.7204  140.4264  155.3220 C   0  0  0  0  0  0  0  0  0  0  0  0
  145.5840  141.9093  157.7149 H   0  0  0  0  0  0  0  0  0  0  0  0
  143.9861  141.2697  157.3398 H   0  0  0  0  0  0  0  0  0  0  0  0
  144.2924  142.9973  157.2132 H   0  0  0  0  0  0  0  0  0  0  0  0
  144.2420  141.9421  154.9693 H   0  0  0  0  0  0  0  0  0  0  0  0
  145.7125  143.9043  155.2572 H   0  0  0  0  0  0  0  0  0  0  0  0
  147.0301  142.8790  155.7796 H   0  0  0  0  0  0  0  0  0  0  0  0
  145.7017  142.8570  153.0262 H   0  0  0  0  0  0  0  0  0  0  0  0
  147.3137  143.4236  153.3919 H   0  0  0  0  0  0  0  0  0  0  0  0
  147.3435  141.1324  152.4155 H   0  0  0  0  0  0  0  0  0  0  0  0
  148.0297  141.1324  154.0288 H   0  0  0  0  0  0  0  0  0  0  0  0
  147.5495  138.7117  154.0092 H   0  0  0  0  0  0  0  0  0  0  0  0
  145.8996  138.1435  154.0638 H   0  0  0  0  0  0  0  0  0  0  0  0
  146.5014  139.5308  151.5028 H   0  0  0  0  0  0  0  0  0  0  0  0
  147.6288  138.2278  151.7948 H   0  0  0  0  0  0  0  0  0  0  0  0
  145.0168  137.9747  150.8632 H   0  0  0  0  0  0  0  0  0  0  0  0
  143.4587  135.5324  152.2069 H   0  0  0  0  0  0  0  0  0  0  0  0
  143.9035  136.1271  150.6166 H   0  0  0  0  0  0  0  0  0  0  0  0
  142.9457  133.3115  150.4883 H   0  0  0  0  0  0  0  0  0  0  0  0
  144.6329  131.1983  150.1189 H   0  0  0  0  0  0  0  0  0  0  0  0
  147.0856  132.2128  150.9151 H   0  0  0  0  0  0  0  0  0  0  0  0
  146.5893  140.2547  155.9598 H   0  0  0  0  0  0  0  0  0  0  0  0
  144.9745  139.6836  155.6016 H   0  0  0  0  0  0  0  0  0  0  0  0
  145.2832  140.4123  153.3412 H   0  0  0  0  0  0  0  0  0  0  0  0
  1  2  1  0  0  0  0
  1 19  1  0  0  0  0
  1 20  1  0  0  0  0
  1 21  1  0  0  0  0
  2 18  1  0  0  0  0
  2  3  1  0  0  0  0
  2 22  1  0  0  0  0
  3  4  1  0  0  0  0
  3 23  1  0  0  0  0
  3 24  1  0  0  0  0
  4  5  1  0  0  0  0
  4 25  1  0  0  0  0
  4 26  1  0  0  0  0
  5  6  1  0  0  0  0
  5 27  1  0  0  0  0
  5 28  1  0  0  0  0
  6  7  1  0  0  0  0
  6 18  1  0  0  0  0
  6 41  1  0  0  0  0
  7  8  1  0  0  0  0
  7 29  1  0  0  0  0
  7 30  1  0  0  0  0
  8  9  1  0  0  0  0
  8 31  1  0  0  0  0
  8 32  1  0  0  0  0
  9 10  1  0  0  0  0
  9 33  1  0  0  0  0
 10 11  2  0  0  0  0
 10 12  1  0  0  0  0
 12 13  1  0  0  0  0
 12 34  1  0  0  0  0
 12 35  1  0  0  0  0
 13 17  1  0  0  0  0
 13 14  1  0  0  0  0
 14 15  2  0  0  0  0
 14 36  1  0  0  0  0
 15 16  1  0  0  0  0
 15 37  1  0  0  0  0
 16 17  2  0  0  0  0
 16 38  1  0  0  0  0
 18 39  1  0  0  0  0
 18 40  1  0  0  0  0
M  CHG  1   6   1
M  END
> <s_m_source_file>
AV-unprocessed.smi

> <i_m_source_file_index>
3265

> <i_lp_mmshare_version>
43012

> <i_f3d_flags>
0

> <s_epik_input>
W0NIM11bQ0BASF0xW0NIMl1bQ0gyXVtDSDJdTihbQ0gyXTEpW0NIMl1bQ0gyXVtOSF1DKD1PKVtDSDJdbjJbY0hdW2NIXVtjSF1uMg==

> <s_epik_cmdline>
J2VwaWtfcHl0aG9uJywgJy1waCcsICc3LjAnLCAnLXRuJywgJzgnLCAnLW1hJywgJzIwMCcsICctbWV0YWxfYmluZGluZycsICctaW1hZScsICc8aW5maWxlLm1hZT4nLCAnLW9tYWUnLCAnPG91dGZpbGUubWFlPic=

> <r_lp_tautomer_probability>
1

> <r_epik_Ionization_Penalty>
0.00231455

> <r_epik_Ionization_Penalty_Charging>
0.00230623

> <r_epik_Ionization_Penalty_Neutral>
8.31727e-06

> <r_epik_State_Penalty>
0.00159065

> <r_epik_Charging_Adjusted_Penalty>
0.00389688

> <i_epik_Tot_Q>
1

> <i_epik_Tot_abs_Q>
1

> <r_epik_Metal_State_Penalty>
-0

> <b_epik_Metal_Only>
0

> <s_lp_Force_Field>
OPLS_2005

> <r_lp_Energy>
15.6905

> <b_lp_Chiralities_Consistent>
1

> <s_lp_Variant>
AV-unprocessed.smi:3265-4

> <Gold.Version>
5.8.1

> <Gold.Id.Protein>
6NUR|6NUR_protein|mol2

> <Gold.PLP.Fitness>
47.9540

> <Gold.PLP.PLP>
-34.0137

> <Gold.PLP.part.hbond>
-2.0000

> <Gold.PLP.part.metal>
0.0000

> <Gold.PLP.part.buried>
-7.5244

> <Gold.PLP.part.nonpolar>
-26.5073

> <Gold.PLP.part.repulsive>
1.4130

> <Gold.PLP.ligand.clash>
0.0000

> <Gold.PLP.ligand.torsion>
0.5413

> <Gold.PLP.Chemscore.Hbond>
3.0000

> <Gold.PLP.Chemscore.CHOScore>
2.0000

> <Gold.PLP.Chemscore.Metal>
0.0000

> <Gold.Chemscore.Hbonds>
donor molecule, donor type, donor heavy atom, donor atom, acceptor molecule, acceptor atom, score
      L1  H     6    41       P1 10175  2.00
      L1  H     9    33       P1 10171  1.00
      L1  C    14    36       P1 10186  1.00
      L1  C    16    38       P1 10747  1.00

> <Gold.PLP.Chemscore.Internal.Correction>
0.0229

> <Gold.Rescore>
     Score         DG    S(hbond)    S(metal)    S(lipo)     H(rot)  DE(clash)    DE(int)     intcor
     12.28     -15.89       1.98        0.00      72.58       1.84       1.22       2.40       ----

> <Gold.Chemscore.Fitness>
12.2752

> <Gold.Chemscore.DG>
-15.8925

> <Gold.Chemscore.ZeroCoef>
-5.4800

> <Gold.Chemscore.Hbond>
1.9842

> <Gold.Chemscore.Metal>
0.0000

> <Gold.Chemscore.Lipo>
72.5833

> <Gold.Chemscore.Internal_Hbond>
0.0000

> <Gold.Chemscore.DEClash>
1.2210

> <Gold.Chemscore.DEInternal>
2.3963

> <Gold.Chemscore.Rot>
1.8386

> <Gold.Chemscore.Internal.Correction>
   9.000000E+99

> <Gold.Chemscore.Hbonds>
donor molecule, donor type, donor heavy atom, donor atom, acceptor molecule, acceptor atom, score
      L1  H     6    41       P1 10175  0.99
      L1  H     9    33       P1 10171  1.00

> <Gold.Chemscore.Hbond.Weighted>
-6.6271

> <Gold.Chemscore.Metal.Weighted>
-0.0000

> <Gold.Chemscore.Lipo.Weighted>
-8.4922

> <Gold.Chemscore.Internal_Hbond.Weighted>
0.0000

> <Gold.Chemscore.DEClash.Weighted>
1.2210

> <Gold.Chemscore.DEInternal.Weighted>
2.3963

> <Gold.Chemscore.Rot.Weighted>
4.7069

> <Gold.Chemscore.Internal.Correction.Weighted>
   9.000000E+99

> <Gold.Protein.RotatedTorsions>
[ 6907 6896 6895 6894 ] final   31.00 input  -60.11 | X-H torsion
[ 7974 7965 7964 7962 ] final   97.47 input  175.53 | X-H torsion
[ 8008 7997 7996 7995 ] final -121.65 input   59.86 | X-H torsion
[ 10167 10162 10161 10158 ] final   28.52 input  -65.29 | X-H torsion
[ 10718 10713 10712 10709 ] final -127.07 input   66.30 | X-H torsion
[ 10763 10752 10751 10750 ] final  -47.09 input  -60.55 | X-H torsion
[ 11005 11000 10999 10996 ] final -114.46 input  -57.11 | X-H torsion

> <Gold.Protein.ActiveResidues>
 VAL166  LYS551  ARG553  GLY616  TRP617  ASP618  TYR619  PRO620  LYS621  CYS622 
 ASP623  PHE694  ASN695  SER759  ASP760  ASP761  ALA762  ILE779  LEU786  VAL792 
 PHE793  MET794  SER795  GLU796  ALA797  LYS798  CYS799  TRP800  GLU811  SER814 

> <Gold.Protein.RotatedAtoms>
  152.0540  134.9636  160.0574 H   0  0  0  0  0  0  0  0  0  0  0  0  # atno 6907 bound_to 6896
  152.1026  133.4253  159.4602 H   0  0  0  0  0  0  0  0  0  0  0  0  # atno 6908 bound_to 6896
  150.6840  134.2662  159.4613 H   0  0  0  0  0  0  0  0  0  0  0  0  # atno 6909 bound_to 6896
  145.4250  139.2317  143.3175 H   0  0  0  0  0  0  0  0  0  0  0  0  # atno 7974 bound_to 7965
  155.1515  140.0404  157.2822 H   0  0  0  0  0  0  0  0  0  0  0  0  # atno 8008 bound_to 7997
  154.6401  140.2545  155.7306 H   0  0  0  0  0  0  0  0  0  0  0  0  # atno 8009 bound_to 7997
  156.2528  140.2857  156.0790 H   0  0  0  0  0  0  0  0  0  0  0  0  # atno 8010 bound_to 7997
  140.4846  144.0563  150.6276 H   0  0  0  0  0  0  0  0  0  0  0  0  # atno 10167 bound_to 10162
  156.1823  130.6740  151.0320 H   0  0  0  0  0  0  0  0  0  0  0  0  # atno 10718 bound_to 10713
  154.0558  135.6625  153.4805 H   0  0  0  0  0  0  0  0  0  0  0  0  # atno 10763 bound_to 10752
  153.0446  135.5123  154.7707 H   0  0  0  0  0  0  0  0  0  0  0  0  # atno 10764 bound_to 10752
  154.6728  135.3032  154.9686 H   0  0  0  0  0  0  0  0  0  0  0  0  # atno 10765 bound_to 10752
  141.0550  133.9627  157.2770 H   0  0  0  0  0  0  0  0  0  0  0  0  # atno 11005 bound_to 11000
  146.2637  140.4980  142.8843 LP  0  0  0  0  0  0  0  0  0  0  0  0  # atno 17320 bound_to 7965
  144.8220  140.6566  143.6347 LP  0  0  0  0  0  0  0  0  0  0  0  0  # atno 17321 bound_to 7965
  140.3815  143.2800  152.0165 LP  0  0  0  0  0  0  0  0  0  0  0  0  # atno 17342 bound_to 10162
  139.4839  144.6151  151.7361 LP  0  0  0  0  0  0  0  0  0  0  0  0  # atno 17343 bound_to 10162
  157.6876  131.0820  150.7198 LP  0  0  0  0  0  0  0  0  0  0  0  0  # atno 17370 bound_to 10713
  156.7255  130.4693  149.5512 LP  0  0  0  0  0  0  0  0  0  0  0  0  # atno 17371 bound_to 10713
  139.9382  135.0194  156.8625 LP  0  0  0  0  0  0  0  0  0  0  0  0  # atno 17394 bound_to 11000
  140.5981  134.0197  155.7526 LP  0  0  0  0  0  0  0  0  0  0  0  0  # atno 17395 bound_to 11000

$$$$
