AV-unprocessed.smi:2281|AV-procd|sdf|9194|dock1
  -GOLD-   2272012413D 1   1.00000     0.00000
 Structure written by MMmdl.
 40 41  0  0  0  0  0  0  0  0  1 V2000
  150.1944  134.4222  155.5377 C   0  0  0  0  0  0  0  0  0  0  0  0
  150.6456  135.4167  156.5925 C   0  0  0  0  0  0  0  0  0  0  0  0
  151.9978  135.7664  156.5539 N   0  0  0  0  0  0  0  0  0  0  0  0
  152.4662  136.6244  157.3997 C   0  0  0  0  0  0  0  0  0  0  0  0
  151.6481  137.2298  158.3717 N   0  0  0  0  0  0  0  0  0  0  0  0
  152.2867  138.2154  159.2708 C   0  0  0  0  0  0  0  0  0  0  0  0
  152.9511  139.4279  158.5495 C   0  0  2  0  0  0  0  0  0  0  0  0
  152.2333  139.7015  157.2107 C   0  0  0  0  0  0  0  0  0  0  0  0
  154.2357  139.0067  158.1257 O   0  0  0  0  0  0  0  0  0  0  0  0
  153.0044  140.6925  159.4208 C   0  0  0  0  0  0  0  0  0  0  0  0
  153.6131  140.6749  160.6982 C   0  0  0  0  0  0  0  0  0  0  0  0
  153.6282  141.8317  161.4993 C   0  0  0  0  0  0  0  0  0  0  0  0
  153.0349  143.0205  161.0369 C   0  0  0  0  0  0  0  0  0  0  0  0
  152.4206  143.0572  159.7672 C   0  0  0  0  0  0  0  0  0  0  0  0
  151.7585  144.3243  159.2478 C   0  0  0  0  0  0  0  0  0  0  0  0
  152.3608  144.7193  158.1260 F   0  0  0  0  0  0  0  0  0  0  0  0
  150.4770  144.0737  158.9816 F   0  0  0  0  0  0  0  0  0  0  0  0
  151.8233  145.3195  160.1330 F   0  0  0  0  0  0  0  0  0  0  0  0
  152.4072  141.8930  158.9711 C   0  0  0  0  0  0  0  0  0  0  0  0
  150.3293  136.9058  158.5074 C   0  0  0  0  0  0  0  0  0  0  0  0
  149.6304  137.3936  159.3973 O   0  0  0  0  0  0  0  0  0  0  0  0
  149.8053  135.9455  157.5230 C   0  0  0  0  0  0  0  0  0  0  0  0
  148.3219  135.6076  157.6091 C   0  0  0  0  0  0  0  0  0  0  0  0
  149.7862  133.5265  156.0067 H   0  0  0  0  0  0  0  0  0  0  0  0
  151.0243  134.1157  154.8996 H   0  0  0  0  0  0  0  0  0  0  0  0
  149.4278  134.8634  154.9004 H   0  0  0  0  0  0  0  0  0  0  0  0
  153.5127  136.9339  157.4035 H   0  0  0  0  0  0  0  0  0  0  0  0
  151.5803  138.5569  160.0304 H   0  0  0  0  0  0  0  0  0  0  0  0
  153.0567  137.7064  159.8543 H   0  0  0  0  0  0  0  0  0  0  0  0
  151.1859  139.9682  157.3497 H   0  0  0  0  0  0  0  0  0  0  0  0
  152.2485  138.8225  156.5644 H   0  0  0  0  0  0  0  0  0  0  0  0
  152.7090  140.5180  156.6652 H   0  0  0  0  0  0  0  0  0  0  0  0
  154.2748  138.0637  158.1725 H   0  0  0  0  0  0  0  0  0  0  0  0
  154.0641  139.7733  161.0853 H   0  0  0  0  0  0  0  0  0  0  0  0
  154.0930  141.8051  162.4739 H   0  0  0  0  0  0  0  0  0  0  0  0
  153.0518  143.8973  161.6670 H   0  0  0  0  0  0  0  0  0  0  0  0
  151.9140  141.9278  158.0116 H   0  0  0  0  0  0  0  0  0  0  0  0
  147.7237  136.5087  157.4695 H   0  0  0  0  0  0  0  0  0  0  0  0
  148.0861  135.1930  158.5899 H   0  0  0  0  0  0  0  0  0  0  0  0
  148.0015  134.8829  156.8623 H   0  0  0  0  0  0  0  0  0  0  0  0
  1  2  1  0  0  0  0
  1 24  1  0  0  0  0
  1 25  1  0  0  0  0
  1 26  1  0  0  0  0
  2 22  2  0  0  0  0
  2  3  1  0  0  0  0
  3  4  2  0  0  0  0
  4  5  1  0  0  0  0
  4 27  1  0  0  0  0
  5  6  1  0  0  0  0
  5 20  1  0  0  0  0
  6  7  1  0  0  0  0
  6 28  1  0  0  0  0
  6 29  1  0  0  0  0
  7  8  1  0  0  0  0
  7  9  1  0  0  0  0
  7 10  1  0  0  0  0
  8 30  1  0  0  0  0
  8 31  1  0  0  0  0
  8 32  1  0  0  0  0
  9 33  1  0  0  0  0
 10 19  1  0  0  0  0
 10 11  2  0  0  0  0
 11 12  1  0  0  0  0
 11 34  1  0  0  0  0
 12 13  2  0  0  0  0
 12 35  1  0  0  0  0
 13 14  1  0  0  0  0
 13 36  1  0  0  0  0
 14 15  1  0  0  0  0
 14 19  2  0  0  0  0
 15 16  1  0  0  0  0
 15 17  1  0  0  0  0
 15 18  1  0  0  0  0
 19 37  1  0  0  0  0
 20 21  2  0  0  0  0
 20 22  1  0  0  0  0
 22 23  1  0  0  0  0
 23 38  1  0  0  0  0
 23 39  1  0  0  0  0
 23 40  1  0  0  0  0
M  END
> <s_m_source_file>
AV-unprocessed.smi

> <i_m_source_file_index>
2281

> <i_lp_mmshare_version>
43012

> <i_f3d_flags>
0

> <s_epik_input>
W0NIM11jMW5bY0hdbihjKD1PKWMxW0NIM10pW0NIMl1bQ0BAXShbQ0gzXSkoW09IXSljMltjSF1bY0hdW2NIXWMoQyhGKShGKUYpW2NIXTI=

> <s_epik_cmdline>
J2VwaWtfcHl0aG9uJywgJy1waCcsICc3LjAnLCAnLXRuJywgJzgnLCAnLW1hJywgJzIwMCcsICctbWV0YWxfYmluZGluZycsICctaW1hZScsICc8aW5maWxlLm1hZT4nLCAnLW9tYWUnLCAnPG91dGZpbGUubWFlPic=

> <r_lp_tautomer_probability>
1

> <r_epik_Ionization_Penalty>
5.68222e-05

> <r_epik_Ionization_Penalty_Charging>
9.07816e-08

> <r_epik_Ionization_Penalty_Neutral>
5.67314e-05

> <r_epik_State_Penalty>
-0

> <r_epik_Charging_Adjusted_Penalty>
9.07816e-08

> <i_epik_Tot_Q>
0

> <i_epik_Tot_abs_Q>
0

> <r_epik_Metal_State_Penalty>
-0

> <b_epik_Metal_Only>
0

> <s_lp_Force_Field>
OPLS_2005

> <r_lp_Energy>
21.2776

> <b_lp_Chiralities_Consistent>
1

> <s_lp_Variant>
AV-unprocessed.smi:2281-2

> <Gold.Version>
5.8.1

> <Gold.Id.Protein>
6NUR|6NUR_protein|mol2

> <Gold.PLP.Fitness>
54.5045

> <Gold.PLP.PLP>
-49.1936

> <Gold.PLP.part.hbond>
-2.5317

> <Gold.PLP.part.metal>
0.0000

> <Gold.PLP.part.buried>
-6.2422

> <Gold.PLP.part.nonpolar>
-40.3772

> <Gold.PLP.part.repulsive>
0.0000

> <Gold.PLP.ligand.clash>
0.0000

> <Gold.PLP.ligand.torsion>
0.5406

> <Gold.PLP.Chemscore.Hbond>
2.0000

> <Gold.PLP.Chemscore.CHOScore>
0.0000

> <Gold.PLP.Chemscore.Metal>
0.0000

> <Gold.Chemscore.Hbonds>
donor molecule, donor type, donor heavy atom, donor atom, acceptor molecule, acceptor atom, score
      P1  H  7997  8008       L1     9  0.98
      P1  H 10752 10764       L1     3  1.00

> <Gold.PLP.Chemscore.Internal.Correction>
0.3921

> <Gold.Rescore>
     Score         DG    S(hbond)    S(metal)    S(lipo)     H(rot)  DE(clash)    DE(int)     intcor
     17.67     -18.24       1.90        0.00     100.53       2.09       0.00       0.56       ----

> <Gold.Chemscore.Fitness>
17.6743

> <Gold.Chemscore.DG>
-18.2402

> <Gold.Chemscore.ZeroCoef>
-5.4800

> <Gold.Chemscore.Hbond>
1.8976

> <Gold.Chemscore.Metal>
0.0000

> <Gold.Chemscore.Lipo>
100.5322

> <Gold.Chemscore.Internal_Hbond>
0.0000

> <Gold.Chemscore.DEClash>
0.0048

> <Gold.Chemscore.DEInternal>
0.5610

> <Gold.Chemscore.Rot>
2.0860

> <Gold.Chemscore.Internal.Correction>
   9.000000E+99

> <Gold.Chemscore.Hbonds>
donor molecule, donor type, donor heavy atom, donor atom, acceptor molecule, acceptor atom, score
      P1  H  7997  8008       L1     9  0.84
      P1  H 10752 10764       L1     3  0.78

> <Gold.Chemscore.Hbond.Weighted>
-6.3381

> <Gold.Chemscore.Metal.Weighted>
-0.0000

> <Gold.Chemscore.Lipo.Weighted>
-11.7623

> <Gold.Chemscore.Internal_Hbond.Weighted>
0.0000

> <Gold.Chemscore.DEClash.Weighted>
0.0048

> <Gold.Chemscore.DEInternal.Weighted>
0.5610

> <Gold.Chemscore.Rot.Weighted>
5.3402

> <Gold.Chemscore.Internal.Correction.Weighted>
   9.000000E+99

> <Gold.Protein.RotatedTorsions>
[ 6907 6896 6895 6894 ] final  148.69 input  -60.11 | X-H torsion
[ 7974 7965 7964 7962 ] final   47.77 input  175.53 | X-H torsion
[ 8008 7997 7996 7995 ] final -117.10 input   59.86 | X-H torsion
[ 10167 10162 10161 10158 ] final  161.86 input  -65.29 | X-H torsion
[ 10718 10713 10712 10709 ] final -148.29 input   66.30 | X-H torsion
[ 10763 10752 10751 10750 ] final  -22.26 input  -60.55 | X-H torsion
[ 11005 11000 10999 10996 ] final   90.13 input  -57.11 | X-H torsion

> <Gold.Protein.ActiveResidues>
 VAL166  LYS551  ARG553  GLY616  TRP617  ASP618  TYR619  PRO620  LYS621  CYS622 
 ASP623  PHE694  ASN695  SER759  ASP760  ASP761  ALA762  ILE779  LEU786  VAL792 
 PHE793  MET794  SER795  GLU796  ALA797  LYS798  CYS799  TRP800  GLU811  SER814 

> <Gold.Protein.RotatedAtoms>
  152.1381  133.4447  159.4752 H   0  0  0  0  0  0  0  0  0  0  0  0  # atno 6907 bound_to 6896
  150.6883  134.2339  159.4454 H   0  0  0  0  0  0  0  0  0  0  0  0  # atno 6908 bound_to 6896
  152.0228  134.9812  160.0621 H   0  0  0  0  0  0  0  0  0  0  0  0  # atno 6909 bound_to 6896
  146.0267  139.4714  142.9863 H   0  0  0  0  0  0  0  0  0  0  0  0  # atno 7974 bound_to 7965
  155.0783  140.0394  157.2631 H   0  0  0  0  0  0  0  0  0  0  0  0  # atno 8008 bound_to 7997
  154.6927  140.2656  155.6772 H   0  0  0  0  0  0  0  0  0  0  0  0  # atno 8009 bound_to 7997
  156.2734  140.2756  156.1510 H   0  0  0  0  0  0  0  0  0  0  0  0  # atno 8010 bound_to 7997
  139.4854  144.4495  151.8848 H   0  0  0  0  0  0  0  0  0  0  0  0  # atno 10167 bound_to 10162
  156.4184  130.8016  151.2238 H   0  0  0  0  0  0  0  0  0  0  0  0  # atno 10718 bound_to 10713
  153.6492  135.6981  153.5215 H   0  0  0  0  0  0  0  0  0  0  0  0  # atno 10763 bound_to 10752
  153.2720  135.4212  155.0996 H   0  0  0  0  0  0  0  0  0  0  0  0  # atno 10764 bound_to 10752
  154.8480  135.3581  154.6036 H   0  0  0  0  0  0  0  0  0  0  0  0  # atno 10765 bound_to 10752
  139.8862  134.8594  156.3240 H   0  0  0  0  0  0  0  0  0  0  0  0  # atno 11005 bound_to 11000
  145.7107  141.0107  143.1455 LP  0  0  0  0  0  0  0  0  0  0  0  0  # atno 17320 bound_to 7965
  144.7012  139.8754  143.7443 LP  0  0  0  0  0  0  0  0  0  0  0  0  # atno 17321 bound_to 7965
  140.3951  144.2566  150.5897 LP  0  0  0  0  0  0  0  0  0  0  0  0  # atno 17342 bound_to 10162
  140.5110  143.2291  151.8535 LP  0  0  0  0  0  0  0  0  0  0  0  0  # atno 17343 bound_to 10162
  157.7508  131.0236  150.3839 LP  0  0  0  0  0  0  0  0  0  0  0  0  # atno 17370 bound_to 10713
  156.4152  130.3942  149.6863 LP  0  0  0  0  0  0  0  0  0  0  0  0  # atno 17371 bound_to 10713
  140.9767  133.7293  156.0613 LP  0  0  0  0  0  0  0  0  0  0  0  0  # atno 17394 bound_to 11000
  140.7801  134.3735  157.5489 LP  0  0  0  0  0  0  0  0  0  0  0  0  # atno 17395 bound_to 11000

$$$$
