AV-unprocessed.smi:2301|AV-procd|sdf|9234|dock1
  -GOLD-   2272012453D 1   1.00000     0.00000
 Structure written by MMmdl.
 37 38  0  0  0  0  0  0  0  0  1 V2000
  153.7700  141.4013  160.3035 C   0  0  0  0  0  0  0  0  0  0  0  0
  152.8434  142.5104  159.8518 C   0  0  0  0  0  0  0  0  0  0  0  0
  152.8023  143.7434  160.5320 C   0  0  0  0  0  0  0  0  0  0  0  0
  151.9218  144.7324  160.0584 C   0  0  0  0  0  0  0  0  0  0  0  0
  151.1249  144.4503  158.9322 C   0  0  0  0  0  0  0  0  0  0  0  0
  151.2272  143.1870  158.3069 C   0  0  0  0  0  0  0  0  0  0  0  0
  150.3828  143.0023  157.1799 N   0  0  0  0  0  0  0  0  0  0  0  0
  150.2677  141.9150  156.3968 C   0  0  0  0  0  0  0  0  0  0  0  0
  150.8962  140.8654  156.5372 O   0  0  0  0  0  0  0  0  0  0  0  0
  149.3685  142.1128  155.4217 N   0  0  0  0  0  0  0  0  0  0  0  0
  149.0025  141.1342  154.4019 C   0  0  1  0  0  0  0  0  0  0  0  0
  148.8776  139.7399  155.0451 C   0  0  0  0  0  0  0  0  0  0  0  0
  148.4339  138.6837  154.0199 C   0  0  0  0  0  0  0  0  0  0  0  0
  147.1176  139.0938  153.3376 C   0  0  2  0  0  0  0  0  0  0  0  0
  146.7760  138.1380  152.3562 O   0  0  0  0  0  0  0  0  0  0  0  0
  147.2429  140.4801  152.6834 C   0  0  0  0  0  0  0  0  0  0  0  0
  147.6849  141.5378  153.7073 C   0  0  0  0  0  0  0  0  0  0  0  0
  152.0796  142.2397  158.7715 N   0  0  0  0  0  0  0  0  0  0  0  0
  149.7959  141.0899  153.6532 H   0  0  0  0  0  0  0  0  0  0  0  0
  146.3173  139.1142  154.0786 H   0  0  0  0  0  0  0  0  0  0  0  0
  154.2388  141.6424  161.2579 H   0  0  0  0  0  0  0  0  0  0  0  0
  154.5575  141.2438  159.5662 H   0  0  0  0  0  0  0  0  0  0  0  0
  153.2187  140.4681  160.4227 H   0  0  0  0  0  0  0  0  0  0  0  0
  153.4274  143.9293  161.3931 H   0  0  0  0  0  0  0  0  0  0  0  0
  151.8586  145.6920  160.5496 H   0  0  0  0  0  0  0  0  0  0  0  0
  150.4439  145.1997  158.5558 H   0  0  0  0  0  0  0  0  0  0  0  0
  149.7998  143.7906  156.9413 H   0  0  0  0  0  0  0  0  0  0  0  0
  148.9004  143.0063  155.3809 H   0  0  0  0  0  0  0  0  0  0  0  0
  149.8307  139.4442  155.4855 H   0  0  0  0  0  0  0  0  0  0  0  0
  148.1561  139.7724  155.8629 H   0  0  0  0  0  0  0  0  0  0  0  0
  149.2170  138.5562  153.2710 H   0  0  0  0  0  0  0  0  0  0  0  0
  148.3162  137.7180  154.5128 H   0  0  0  0  0  0  0  0  0  0  0  0
  147.4218  137.4480  152.3708 H   0  0  0  0  0  0  0  0  0  0  0  0
  147.9679  140.4428  151.8688 H   0  0  0  0  0  0  0  0  0  0  0  0
  146.2915  140.7736  152.2383 H   0  0  0  0  0  0  0  0  0  0  0  0
  146.8990  141.6695  154.4524 H   0  0  0  0  0  0  0  0  0  0  0  0
  147.8002  142.5004  153.2078 H   0  0  0  0  0  0  0  0  0  0  0  0
  1  2  1  0  0  0  0
  1 21  1  0  0  0  0
  1 22  1  0  0  0  0
  1 23  1  0  0  0  0
  2 18  1  0  0  0  0
  2  3  2  0  0  0  0
  3  4  1  0  0  0  0
  3 24  1  0  0  0  0
  4  5  2  0  0  0  0
  4 25  1  0  0  0  0
  5  6  1  0  0  0  0
  5 26  1  0  0  0  0
  6  7  1  0  0  0  0
  6 18  2  0  0  0  0
  7  8  1  0  0  0  0
  7 27  1  0  0  0  0
  8  9  2  0  0  0  0
  8 10  1  0  0  0  0
 10 11  1  0  0  0  0
 10 28  1  0  0  0  0
 11 19  1  0  0  0  0
 11 17  1  0  0  0  0
 11 12  1  0  0  0  0
 12 13  1  0  0  0  0
 12 29  1  0  0  0  0
 12 30  1  0  0  0  0
 13 14  1  0  0  0  0
 13 31  1  0  0  0  0
 13 32  1  0  0  0  0
 14 20  1  0  0  0  0
 14 15  1  0  0  0  0
 14 16  1  0  0  0  0
 15 33  1  0  0  0  0
 16 17  1  0  0  0  0
 16 34  1  0  0  0  0
 16 35  1  0  0  0  0
 17 36  1  0  0  0  0
 17 37  1  0  0  0  0
M  END
> <s_m_source_file>
AV-unprocessed.smi

> <i_m_source_file_index>
2301

> <i_lp_mmshare_version>
43012

> <i_f3d_flags>
0

> <s_epik_input>
W0NIM11jMVtjSF1bY0hdW2NIXWMobjEpW05IXUMoPU8pW05IXVtDQEhdMltDSDJdW0NIMl1bQ0BIXShbT0hdKVtDSDJdW0NIMl0y

> <s_epik_cmdline>
J2VwaWtfcHl0aG9uJywgJy1waCcsICc3LjAnLCAnLXRuJywgJzgnLCAnLW1hJywgJzIwMCcsICctbWV0YWxfYmluZGluZycsICctaW1hZScsICc8aW5maWxlLm1hZT4nLCAnLW9tYWUnLCAnPG91dGZpbGUubWFlPic=

> <r_lp_tautomer_probability>
1

> <r_epik_Ionization_Penalty>
9.15533e-05

> <r_epik_Ionization_Penalty_Charging>
0

> <r_epik_Ionization_Penalty_Neutral>
9.15533e-05

> <r_epik_State_Penalty>
-0

> <r_epik_Charging_Adjusted_Penalty>
0

> <i_epik_Tot_Q>
0

> <i_epik_Tot_abs_Q>
0

> <r_epik_Metal_State_Penalty>
-0

> <b_epik_Metal_Only>
0

> <s_lp_Force_Field>
OPLS_2005

> <r_lp_Energy>
9.20264

> <b_lp_Chiralities_Consistent>
1

> <s_lp_Variant>
AV-unprocessed.smi:2301-1

> <Gold.Version>
5.8.1

> <Gold.Id.Protein>
6NUR|6NUR_protein|mol2

> <Gold.PLP.Fitness>
47.3056

> <Gold.PLP.PLP>
-38.7886

> <Gold.PLP.part.hbond>
-3.0000

> <Gold.PLP.part.metal>
0.0000

> <Gold.PLP.part.buried>
-4.6002

> <Gold.PLP.part.nonpolar>
-31.3113

> <Gold.PLP.part.repulsive>
0.2072

> <Gold.PLP.ligand.clash>
0.0000

> <Gold.PLP.ligand.torsion>
0.2312

> <Gold.PLP.Chemscore.Hbond>
2.9920

> <Gold.PLP.Chemscore.CHOScore>
0.0000

> <Gold.PLP.Chemscore.Metal>
0.0000

> <Gold.Chemscore.Hbonds>
donor molecule, donor type, donor heavy atom, donor atom, acceptor molecule, acceptor atom, score
      L1  H     7    27       P1  8028  0.99
      L1  H    10    28       P1  8028  1.00
      L1  H    15    33       P1  7948  1.00

> <Gold.PLP.Chemscore.Internal.Correction>
0.0034

> <Gold.Rescore>
     Score         DG    S(hbond)    S(metal)    S(lipo)     H(rot)  DE(clash)    DE(int)     intcor
     18.88     -22.92       2.88        0.00      98.31       1.44       1.11       2.93       ----

> <Gold.Chemscore.Fitness>
18.8782

> <Gold.Chemscore.DG>
-22.9157

> <Gold.Chemscore.ZeroCoef>
-5.4800

> <Gold.Chemscore.Hbond>
2.8802

> <Gold.Chemscore.Metal>
0.0000

> <Gold.Chemscore.Lipo>
98.3123

> <Gold.Chemscore.Internal_Hbond>
0.0000

> <Gold.Chemscore.DEClash>
1.1069

> <Gold.Chemscore.DEInternal>
2.9306

> <Gold.Chemscore.Rot>
1.4402

> <Gold.Chemscore.Internal.Correction>
   9.000000E+99

> <Gold.Chemscore.Hbonds>
donor molecule, donor type, donor heavy atom, donor atom, acceptor molecule, acceptor atom, score
      L1  H     7    27       P1  8028  0.90
      L1  H    10    28       P1  8028  0.96
      L1  H    15    33       P1  7948  0.95

> <Gold.Chemscore.Hbond.Weighted>
-9.6200

> <Gold.Chemscore.Metal.Weighted>
-0.0000

> <Gold.Chemscore.Lipo.Weighted>
-11.5025

> <Gold.Chemscore.Internal_Hbond.Weighted>
0.0000

> <Gold.Chemscore.DEClash.Weighted>
1.1069

> <Gold.Chemscore.DEInternal.Weighted>
2.9306

> <Gold.Chemscore.Rot.Weighted>
3.6869

> <Gold.Chemscore.Internal.Correction.Weighted>
   9.000000E+99

> <Gold.Protein.RotatedTorsions>
[ 6907 6896 6895 6894 ] final  -78.79 input  -60.11 | X-H torsion
[ 7974 7965 7964 7962 ] final  164.34 input  175.53 | X-H torsion
[ 8008 7997 7996 7995 ] final   19.27 input   59.86 | X-H torsion
[ 10167 10162 10161 10158 ] final  -91.85 input  -65.29 | X-H torsion
[ 10718 10713 10712 10709 ] final  -99.01 input   66.30 | X-H torsion
[ 10763 10752 10751 10750 ] final   85.69 input  -60.55 | X-H torsion
[ 11005 11000 10999 10996 ] final  -66.37 input  -57.11 | X-H torsion

> <Gold.Protein.ActiveResidues>
 VAL166  LYS551  ARG553  GLY616  TRP617  ASP618  TYR619  PRO620  LYS621  CYS622 
 ASP623  PHE694  ASN695  SER759  ASP760  ASP761  ALA762  ILE779  LEU786  VAL792 
 PHE793  MET794  SER795  GLU796  ALA797  LYS798  CYS799  TRP800  GLU811  SER814 

> <Gold.Protein.RotatedAtoms>
  150.6964  134.4218  159.5208 H   0  0  0  0  0  0  0  0  0  0  0  0  # atno 6907 bound_to 6896
  152.1960  134.8627  160.0522 H   0  0  0  0  0  0  0  0  0  0  0  0  # atno 6908 bound_to 6896
  151.9565  133.3647  159.4056 H   0  0  0  0  0  0  0  0  0  0  0  0  # atno 6909 bound_to 6896
  144.7549  139.8312  143.6353 H   0  0  0  0  0  0  0  0  0  0  0  0  # atno 7974 bound_to 7965
  154.9182  140.3023  155.5230 H   0  0  0  0  0  0  0  0  0  0  0  0  # atno 8008 bound_to 7997
  156.3011  140.2376  156.4165 H   0  0  0  0  0  0  0  0  0  0  0  0  # atno 8009 bound_to 7997
  154.8357  140.0416  157.1496 H   0  0  0  0  0  0  0  0  0  0  0  0  # atno 8010 bound_to 7997
  140.3408  143.2943  151.9837 H   0  0  0  0  0  0  0  0  0  0  0  0  # atno 10167 bound_to 10162
  156.0122  130.5263  150.6608 H   0  0  0  0  0  0  0  0  0  0  0  0  # atno 10718 bound_to 10713
  153.1499  135.4608  154.9621 H   0  0  0  0  0  0  0  0  0  0  0  0  # atno 10763 bound_to 10752
  154.7816  135.3190  154.7979 H   0  0  0  0  0  0  0  0  0  0  0  0  # atno 10764 bound_to 10752
  153.8486  135.6923  153.4849 H   0  0  0  0  0  0  0  0  0  0  0  0  # atno 10765 bound_to 10752
  141.1480  133.6698  156.6129 H   0  0  0  0  0  0  0  0  0  0  0  0  # atno 11005 bound_to 11000
  146.1548  139.4642  143.0026 LP  0  0  0  0  0  0  0  0  0  0  0  0  # atno 17320 bound_to 7965
  145.6813  141.0190  143.1605 LP  0  0  0  0  0  0  0  0  0  0  0  0  # atno 17321 bound_to 7965
  139.4841  144.6158  151.7348 LP  0  0  0  0  0  0  0  0  0  0  0  0  # atno 17342 bound_to 10162
  140.5311  144.0729  150.6054 LP  0  0  0  0  0  0  0  0  0  0  0  0  # atno 17343 bound_to 10162
  157.4350  131.0854  151.1000 LP  0  0  0  0  0  0  0  0  0  0  0  0  # atno 17370 bound_to 10713
  157.1562  130.6205  149.5597 LP  0  0  0  0  0  0  0  0  0  0  0  0  # atno 17371 bound_to 10713
  140.3600  134.7695  157.4527 LP  0  0  0  0  0  0  0  0  0  0  0  0  # atno 17394 bound_to 11000
  140.0792  134.5754  155.8558 LP  0  0  0  0  0  0  0  0  0  0  0  0  # atno 17395 bound_to 11000

$$$$
