AV-unprocessed.smi:156|AV-procd|sdf|1288|dock1
  -GOLD-   2262018563D 1   1.00000     0.00000
 Structure written by MMmdl.
 51 53  0  0  0  0  0  0  0  0  1 V2000
  149.8998  136.8942  157.8256 C   0  0  0  0  0  0  0  0  0  0  0  0
  150.2139  136.8597  156.3167 C   0  0  1  0  0  0  0  0  0  0  0  0
  151.6348  137.4058  155.9783 C   0  0  2  0  0  0  0  0  0  0  0  0
  152.7279  136.8548  156.9135 C   0  0  0  0  0  0  0  0  0  0  0  0
  151.7198  139.2713  155.9740 S   0  0  0  0  0  0  0  0  0  0  0  0
  150.0751  139.7757  156.6352 C   0  0  0  0  0  0  0  0  0  0  0  0
  152.7318  139.6893  156.9562 O   0  0  0  0  0  0  0  0  0  0  0  0
  151.8161  139.7603  154.5904 O   0  0  0  0  0  0  0  0  0  0  0  0
  149.9804  135.4997  155.8032 N   0  0  0  0  0  0  0  0  0  0  0  0
  150.8840  134.4133  156.1750 C   0  0  0  0  0  0  0  0  0  0  0  0
  148.7350  135.1733  155.3545 C   0  0  0  0  0  0  0  0  0  0  0  0
  147.6808  135.8955  155.8178 N   0  0  0  0  0  0  0  0  0  0  0  0
  146.4382  135.6401  155.4021 C   0  0  0  0  0  0  0  0  0  0  0  0
  146.0239  134.7166  154.5356 N   0  0  0  0  0  0  0  0  0  0  0  0
  147.0688  133.9783  154.0649 C   0  0  0  0  0  0  0  0  0  0  0  0
  148.4425  134.1378  154.4130 C   0  0  0  0  0  0  0  0  0  0  0  0
  149.2022  133.1972  153.7242 N   0  0  0  0  0  0  0  0  0  0  0  0
  148.3363  132.5374  153.0063 C   0  0  0  0  0  0  0  0  0  0  0  0
  147.0268  132.9294  153.1615 N   0  0  0  0  0  0  0  0  0  0  0  0
  145.8589  132.3760  152.4888 C   0  0  0  0  0  0  0  0  0  0  0  0
  145.4281  133.1258  151.2045 C   0  0  0  0  0  0  0  0  0  0  0  0
  146.4766  132.8508  150.1178 C   0  0  0  0  0  0  0  0  0  0  0  0
  146.4713  131.4915  149.7311 O   0  0  0  0  0  0  0  0  0  0  0  0
  143.9678  132.9222  150.7668 C   0  0  0  0  0  0  0  0  0  0  0  0
  143.5746  134.2092  151.2870 O   0  0  0  0  0  0  0  0  0  0  0  0
  144.9662  134.5866  151.3473 C   0  0  0  0  0  0  0  0  0  0  0  0
  149.8709  137.9132  158.2101 H   0  0  0  0  0  0  0  0  0  0  0  0
  150.6407  136.3396  158.4021 H   0  0  0  0  0  0  0  0  0  0  0  0
  148.9230  136.4546  158.0312 H   0  0  0  0  0  0  0  0  0  0  0  0
  149.5060  137.5500  155.8615 H   0  0  0  0  0  0  0  0  0  0  0  0
  151.9082  137.0972  154.9705 H   0  0  0  0  0  0  0  0  0  0  0  0
  152.8697  135.7834  156.7746 H   0  0  0  0  0  0  0  0  0  0  0  0
  152.4826  137.0232  157.9617 H   0  0  0  0  0  0  0  0  0  0  0  0
  153.6925  137.3227  156.7171 H   0  0  0  0  0  0  0  0  0  0  0  0
  150.0198  140.8639  156.6561 H   0  0  0  0  0  0  0  0  0  0  0  0
  149.9475  139.3968  157.6482 H   0  0  0  0  0  0  0  0  0  0  0  0
  149.2793  139.3948  155.9987 H   0  0  0  0  0  0  0  0  0  0  0  0
  150.8138  133.5898  155.4635 H   0  0  0  0  0  0  0  0  0  0  0  0
  150.6450  134.0371  157.1700 H   0  0  0  0  0  0  0  0  0  0  0  0
  151.9232  134.7363  156.1817 H   0  0  0  0  0  0  0  0  0  0  0  0
  145.6660  136.2669  155.8231 H   0  0  0  0  0  0  0  0  0  0  0  0
  148.6347  131.7412  152.3405 H   0  0  0  0  0  0  0  0  0  0  0  0
  146.0749  131.3290  152.2735 H   0  0  0  0  0  0  0  0  0  0  0  0
  145.0395  132.3635  153.2084 H   0  0  0  0  0  0  0  0  0  0  0  0
  146.3031  133.4709  149.2377 H   0  0  0  0  0  0  0  0  0  0  0  0
  147.4792  133.0905  150.4736 H   0  0  0  0  0  0  0  0  0  0  0  0
  147.3433  131.1434  149.8397 H   0  0  0  0  0  0  0  0  0  0  0  0
  143.8309  132.8693  149.6854 H   0  0  0  0  0  0  0  0  0  0  0  0
  143.4576  132.0918  151.2527 H   0  0  0  0  0  0  0  0  0  0  0  0
  145.2371  135.0653  152.2868 H   0  0  0  0  0  0  0  0  0  0  0  0
  145.2467  135.2198  150.5038 H   0  0  0  0  0  0  0  0  0  0  0  0
  1  2  1  0  0  0  0
  1 27  1  0  0  0  0
  1 28  1  0  0  0  0
  1 29  1  0  0  0  0
  2  3  1  0  0  0  0
  2  9  1  0  0  0  0
  2 30  1  0  0  0  0
  3  4  1  0  0  0  0
  3  5  1  0  0  0  0
  3 31  1  0  0  0  0
  4 32  1  0  0  0  0
  4 33  1  0  0  0  0
  4 34  1  0  0  0  0
  5  6  1  0  0  0  0
  5  7  2  0  0  0  0
  5  8  2  0  0  0  0
  6 35  1  0  0  0  0
  6 36  1  0  0  0  0
  6 37  1  0  0  0  0
  9 10  1  0  0  0  0
  9 11  1  0  0  0  0
 10 38  1  0  0  0  0
 10 39  1  0  0  0  0
 10 40  1  0  0  0  0
 11 16  1  0  0  0  0
 11 12  2  0  0  0  0
 12 13  1  0  0  0  0
 13 14  2  0  0  0  0
 13 41  1  0  0  0  0
 14 15  1  0  0  0  0
 15 19  1  0  0  0  0
 15 16  2  0  0  0  0
 16 17  1  0  0  0  0
 17 18  2  0  0  0  0
 18 19  1  0  0  0  0
 18 42  1  0  0  0  0
 19 20  1  0  0  0  0
 20 21  1  0  0  0  0
 20 43  1  0  0  0  0
 20 44  1  0  0  0  0
 21 26  1  0  0  0  0
 21 22  1  0  0  0  0
 21 24  1  0  0  0  0
 22 23  1  0  0  0  0
 22 45  1  0  0  0  0
 22 46  1  0  0  0  0
 23 47  1  0  0  0  0
 24 25  1  0  0  0  0
 24 48  1  0  0  0  0
 24 49  1  0  0  0  0
 25 26  1  0  0  0  0
 26 50  1  0  0  0  0
 26 51  1  0  0  0  0
M  END
> <s_m_source_file>
AV-unprocessed.smi

> <i_m_source_file_index>
156

> <i_lp_mmshare_version>
43012

> <i_f3d_flags>
0

> <s_epik_input>
W0NIM11TKD1PKSg9TylbQ0BASF0oW0NIM10pW0NAQEhdKFtDSDNdKU4oW0NIM10pYyhuW2NIXW4xKWMoYzEyKW5bY0hdbjJbQ0gyXUMzKFtDSDJdW09IXSlbQ0gyXU9bQ0gyXTM=

> <s_epik_cmdline>
J2VwaWtfcHl0aG9uJywgJy1waCcsICc3LjAnLCAnLXRuJywgJzgnLCAnLW1hJywgJzIwMCcsICctbWV0YWxfYmluZGluZycsICctaW1hZScsICc8aW5maWxlLm1hZT4nLCAnLW9tYWUnLCAnPG91dGZpbGUubWFlPic=

> <r_lp_tautomer_probability>
1

> <r_epik_Ionization_Penalty>
0.00107697

> <r_epik_Ionization_Penalty_Charging>
0

> <r_epik_Ionization_Penalty_Neutral>
0.00107697

> <r_epik_State_Penalty>
0.000614712

> <r_epik_Charging_Adjusted_Penalty>
0.000614712

> <i_epik_Tot_Q>
0

> <i_epik_Tot_abs_Q>
0

> <r_epik_Metal_State_Penalty>
-0

> <b_epik_Metal_Only>
0

> <s_lp_Force_Field>
OPLS_2005

> <r_lp_Energy>
29.1467

> <b_lp_Chiralities_Consistent>
1

> <s_lp_Variant>
AV-unprocessed.smi:156-2

> <Gold.Version>
5.8.1

> <Gold.Id.Protein>
6NUR|6NUR_protein|mol2

> <Gold.PLP.Fitness>
41.6643

> <Gold.PLP.PLP>
-31.8956

> <Gold.PLP.part.hbond>
-2.8590

> <Gold.PLP.part.metal>
0.0000

> <Gold.PLP.part.buried>
-5.7886

> <Gold.PLP.part.nonpolar>
-22.9278

> <Gold.PLP.part.repulsive>
0.5330

> <Gold.PLP.ligand.clash>
0.0000

> <Gold.PLP.ligand.torsion>
2.0001

> <Gold.PLP.Chemscore.Hbond>
3.0000

> <Gold.PLP.Chemscore.CHOScore>
1.0000

> <Gold.PLP.Chemscore.Metal>
0.0000

> <Gold.Chemscore.Hbonds>
donor molecule, donor type, donor heavy atom, donor atom, acceptor molecule, acceptor atom, score
      L1  H    23    47       P1 10747  1.00
      P1  H  7989  7998       L1     8  1.00
      P1  H  7997  8009       L1     7  1.00
      L1  C    18    42       P1 10747  1.00

> <Gold.PLP.Chemscore.Internal.Correction>
1.7689

> <Gold.Rescore>
     Score         DG    S(hbond)    S(metal)    S(lipo)     H(rot)  DE(clash)    DE(int)     intcor
     12.30     -14.33       2.97        0.00      60.99       3.21       0.06       1.97       ----

> <Gold.Chemscore.Fitness>
12.3022

> <Gold.Chemscore.DG>
-14.3272

> <Gold.Chemscore.ZeroCoef>
-5.4800

> <Gold.Chemscore.Hbond>
2.9740

> <Gold.Chemscore.Metal>
0.0000

> <Gold.Chemscore.Lipo>
60.9866

> <Gold.Chemscore.Internal_Hbond>
0.0000

> <Gold.Chemscore.DEClash>
0.0570

> <Gold.Chemscore.DEInternal>
1.9680

> <Gold.Chemscore.Rot>
3.2115

> <Gold.Chemscore.Internal.Correction>
   9.000000E+99

> <Gold.Chemscore.Hbonds>
donor molecule, donor type, donor heavy atom, donor atom, acceptor molecule, acceptor atom, score
      L1  H    23    47       P1 10747  1.00
      P1  H  7989  7998       L1     8  0.91
      P1  H  7997  8009       L1     7  1.00

> <Gold.Chemscore.Hbond.Weighted>
-9.9333

> <Gold.Chemscore.Metal.Weighted>
-0.0000

> <Gold.Chemscore.Lipo.Weighted>
-7.1354

> <Gold.Chemscore.Internal_Hbond.Weighted>
0.0000

> <Gold.Chemscore.DEClash.Weighted>
0.0570

> <Gold.Chemscore.DEInternal.Weighted>
1.9680

> <Gold.Chemscore.Rot.Weighted>
8.2215

> <Gold.Chemscore.Internal.Correction.Weighted>
   9.000000E+99

> <Gold.Protein.RotatedTorsions>
[ 6907 6896 6895 6894 ] final  142.21 input  -60.11 | X-H torsion
[ 7974 7965 7964 7962 ] final   53.96 input  175.53 | X-H torsion
[ 8008 7997 7996 7995 ] final -177.41 input   59.86 | X-H torsion
[ 10167 10162 10161 10158 ] final   84.58 input  -65.29 | X-H torsion
[ 10718 10713 10712 10709 ] final   59.82 input   66.30 | X-H torsion
[ 10763 10752 10751 10750 ] final   17.23 input  -60.55 | X-H torsion
[ 11005 11000 10999 10996 ] final  -86.55 input  -57.11 | X-H torsion

> <Gold.Protein.ActiveResidues>
 VAL166  LYS551  ARG553  GLY616  TRP617  ASP618  TYR619  PRO620  LYS621  CYS622 
 ASP623  PHE694  ASN695  SER759  ASP760  ASP761  ALA762  ILE779  LEU786  VAL792 
 PHE793  MET794  SER795  GLU796  ALA797  LYS798  CYS799  TRP800  GLU811  SER814 

> <Gold.Protein.RotatedAtoms>
  152.2215  133.4987  159.5164 H   0  0  0  0  0  0  0  0  0  0  0  0  # atno 6907 bound_to 6896
  150.7014  134.1336  159.4088 H   0  0  0  0  0  0  0  0  0  0  0  0  # atno 6908 bound_to 6896
  151.9257  135.0278  160.0576 H   0  0  0  0  0  0  0  0  0  0  0  0  # atno 6909 bound_to 6896
  145.9658  139.4102  143.0220 H   0  0  0  0  0  0  0  0  0  0  0  0  # atno 7974 bound_to 7965
  156.0066  140.1232  157.0495 H   0  0  0  0  0  0  0  0  0  0  0  0  # atno 8008 bound_to 7997
  154.4261  140.1096  156.5840 H   0  0  0  0  0  0  0  0  0  0  0  0  # atno 8009 bound_to 7997
  155.6138  140.3471  155.4633 H   0  0  0  0  0  0  0  0  0  0  0  0  # atno 8010 bound_to 7997
  139.9065  144.6298  150.8582 H   0  0  0  0  0  0  0  0  0  0  0  0  # atno 10167 bound_to 10162
  157.5705  130.8904  149.9259 H   0  0  0  0  0  0  0  0  0  0  0  0  # atno 10718 bound_to 10713
  153.1358  135.6750  153.9105 H   0  0  0  0  0  0  0  0  0  0  0  0  # atno 10763 bound_to 10752
  153.8577  135.3085  155.3437 H   0  0  0  0  0  0  0  0  0  0  0  0  # atno 10764 bound_to 10752
  154.7746  135.4921  153.9801 H   0  0  0  0  0  0  0  0  0  0  0  0  # atno 10765 bound_to 10752
  141.1628  133.7461  156.9177 H   0  0  0  0  0  0  0  0  0  0  0  0  # atno 11005 bound_to 11000
  145.7976  140.9786  143.1016 LP  0  0  0  0  0  0  0  0  0  0  0  0  # atno 17320 bound_to 7965
  144.6825  139.9761  143.7483 LP  0  0  0  0  0  0  0  0  0  0  0  0  # atno 17321 bound_to 7965
  140.7695  143.3397  151.2234 LP  0  0  0  0  0  0  0  0  0  0  0  0  # atno 17342 bound_to 10162
  139.6979  143.9582  152.2891 LP  0  0  0  0  0  0  0  0  0  0  0  0  # atno 17343 bound_to 10162
  156.0751  130.3680  150.0695 LP  0  0  0  0  0  0  0  0  0  0  0  0  # atno 17370 bound_to 10713
  156.8849  130.9569  151.3595 LP  0  0  0  0  0  0  0  0  0  0  0  0  # atno 17371 bound_to 10713
  140.1473  134.9254  157.2546 LP  0  0  0  0  0  0  0  0  0  0  0  0  # atno 17394 bound_to 11000
  140.2765  134.3400  155.7356 LP  0  0  0  0  0  0  0  0  0  0  0  0  # atno 17395 bound_to 11000

$$$$
