AV-unprocessed.smi:2054|AV-procd|sdf|8333|dock3
  -GOLD-   2272011 03D 1   1.00000     0.00000
 Structure written by MMmdl.
 43 44  0  0  0  0  0  0  0  0  2 V2000
  156.9230  132.5764  160.7474 C   0  0  0  0  0  0  0  0  0  0  0  0
  155.1876  133.0909  161.0802 S   0  0  0  0  0  0  0  0  0  0  0  0
  154.3309  132.4367  160.0789 O   0  0  0  0  0  0  0  0  0  0  0  0
  154.9011  132.9240  162.5132 O   0  0  0  0  0  0  0  0  0  0  0  0
  155.2058  134.7918  160.7380 N   0  0  0  0  0  0  0  0  0  0  0  0
  156.3561  135.3186  159.9763 C   0  0  0  0  0  0  0  0  0  0  0  0
  156.0640  136.7141  159.4008 C   0  0  0  0  0  0  0  0  0  0  0  0
  155.6348  137.6925  160.5062 C   0  0  0  0  0  0  0  0  0  0  0  0
  155.3323  139.0845  159.9358 C   0  0  0  0  0  0  0  0  0  0  0  0
  155.4729  139.3091  158.7330 O   0  0  0  0  0  0  0  0  0  0  0  0
  154.9157  140.0134  160.8104 N   0  0  0  0  0  0  0  0  0  0  0  0
  154.5654  141.3863  160.4660 C   0  0  0  0  0  0  0  0  0  0  0  0
  153.1495  141.7488  160.9447 C   0  0  0  0  0  0  0  0  0  0  0  0
  152.6221  143.0030  160.2758 C   0  0  0  0  0  0  0  0  0  0  0  0
  152.1725  144.1179  161.0158 C   0  0  0  0  0  0  0  0  0  0  0  0
  151.6862  145.2498  160.3286 C   0  0  0  0  0  0  0  0  0  0  0  0
  151.6595  145.2426  158.9185 C   0  0  0  0  0  0  0  0  0  0  0  0
  152.1200  144.1018  158.2299 C   0  0  0  0  0  0  0  0  0  0  0  0
  152.5778  143.0368  158.9240 N   0  3  0  0  0  0  0  0  0  0  0  0
  154.4056  137.1046  161.2168 C   0  0  0  0  0  0  0  0  0  0  0  0
  154.6999  135.7054  161.7825 C   0  0  0  0  0  0  0  0  0  0  0  0
  157.0034  131.4955  160.8579 H   0  0  0  0  0  0  0  0  0  0  0  0
  157.5995  133.0565  161.4527 H   0  0  0  0  0  0  0  0  0  0  0  0
  157.1964  132.8559  159.7302 H   0  0  0  0  0  0  0  0  0  0  0  0
  157.2267  135.3553  160.6324 H   0  0  0  0  0  0  0  0  0  0  0  0
  156.6055  134.6375  159.1640 H   0  0  0  0  0  0  0  0  0  0  0  0
  156.9523  137.0887  158.8905 H   0  0  0  0  0  0  0  0  0  0  0  0
  155.2839  136.6322  158.6419 H   0  0  0  0  0  0  0  0  0  0  0  0
  156.4478  137.7798  161.2294 H   0  0  0  0  0  0  0  0  0  0  0  0
  154.8246  139.7459  161.7800 H   0  0  0  0  0  0  0  0  0  0  0  0
  155.3020  142.0729  160.8867 H   0  0  0  0  0  0  0  0  0  0  0  0
  154.6286  141.4896  159.3824 H   0  0  0  0  0  0  0  0  0  0  0  0
  152.4654  140.9225  160.7461 H   0  0  0  0  0  0  0  0  0  0  0  0
  153.1407  141.9019  162.0248 H   0  0  0  0  0  0  0  0  0  0  0  0
  152.1969  144.1078  162.0958 H   0  0  0  0  0  0  0  0  0  0  0  0
  151.3372  146.1128  160.8767 H   0  0  0  0  0  0  0  0  0  0  0  0
  151.2906  146.0994  158.3734 H   0  0  0  0  0  0  0  0  0  0  0  0
  152.1360  144.0096  157.1537 H   0  0  0  0  0  0  0  0  0  0  0  0
  154.0885  137.7632  162.0262 H   0  0  0  0  0  0  0  0  0  0  0  0
  153.5640  137.0405  160.5251 H   0  0  0  0  0  0  0  0  0  0  0  0
  153.7866  135.3016  162.2186 H   0  0  0  0  0  0  0  0  0  0  0  0
  155.4352  135.7656  162.5859 H   0  0  0  0  0  0  0  0  0  0  0  0
  152.9060  142.2215  158.4051 H   0  0  0  0  0  0  0  0  0  0  0  0
  1  2  1  0  0  0  0
  1 22  1  0  0  0  0
  1 23  1  0  0  0  0
  1 24  1  0  0  0  0
  2  3  2  0  0  0  0
  2  4  2  0  0  0  0
  2  5  1  0  0  0  0
  5 21  1  0  0  0  0
  5  6  1  0  0  0  0
  6  7  1  0  0  0  0
  6 25  1  0  0  0  0
  6 26  1  0  0  0  0
  7  8  1  0  0  0  0
  7 27  1  0  0  0  0
  7 28  1  0  0  0  0
  8  9  1  0  0  0  0
  8 20  1  0  0  0  0
  8 29  1  0  0  0  0
  9 10  2  0  0  0  0
  9 11  1  0  0  0  0
 11 12  1  0  0  0  0
 11 30  1  0  0  0  0
 12 13  1  0  0  0  0
 12 31  1  0  0  0  0
 12 32  1  0  0  0  0
 13 14  1  0  0  0  0
 13 33  1  0  0  0  0
 13 34  1  0  0  0  0
 14 19  1  0  0  0  0
 14 15  2  0  0  0  0
 15 16  1  0  0  0  0
 15 35  1  0  0  0  0
 16 17  2  0  0  0  0
 16 36  1  0  0  0  0
 17 18  1  0  0  0  0
 17 37  1  0  0  0  0
 18 19  2  0  0  0  0
 18 38  1  0  0  0  0
 19 43  1  0  0  0  0
 20 21  1  0  0  0  0
 20 39  1  0  0  0  0
 20 40  1  0  0  0  0
 21 41  1  0  0  0  0
 21 42  1  0  0  0  0
M  CHG  1  19   1
M  END
> <s_m_source_file>
AV-unprocessed.smi

> <i_m_source_file_index>
2054

> <i_lp_mmshare_version>
43012

> <i_f3d_flags>
0

> <s_epik_input>
W0NIM11TKD1PKSg9TylOMVtDSDJdW0NIMl1bQ0hdKFtDSDJdW0NIMl0xKUMoPU8pW05IXVtDSDJdW0NIMl1jMltjSF1bY0hdW2NIXVtjSF1uMg==

> <s_epik_cmdline>
J2VwaWtfcHl0aG9uJywgJy1waCcsICc3LjAnLCAnLXRuJywgJzgnLCAnLW1hJywgJzIwMCcsICctbWV0YWxfYmluZGluZycsICctaW1hZScsICc8aW5maWxlLm1hZT4nLCAnLW9tYWUnLCAnPG91dGZpbGUubWFlPic=

> <r_epik_Ionization_Penalty>
1.82741

> <r_epik_Ionization_Penalty_Charging>
1.82741

> <r_epik_Ionization_Penalty_Neutral>
1.85342e-08

> <r_epik_State_Penalty>
1.94311

> <r_epik_Charging_Adjusted_Penalty>
3.77052

> <i_epik_Tot_Q>
1

> <i_epik_Tot_abs_Q>
1

> <r_epik_Metal_State_Penalty>
1.96983

> <b_epik_Metal_Only>
0

> <s_lp_Force_Field>
OPLS_2005

> <r_lp_Energy>
8.70127

> <b_lp_Chiralities_Consistent>
1

> <s_lp_Variant>
AV-unprocessed.smi:2054-2

> <Gold.Version>
5.8.1

> <Gold.Id.Protein>
6NUR|6NUR_protein|mol2

> <Gold.PLP.Fitness>
42.6967

> <Gold.PLP.PLP>
-36.9354

> <Gold.PLP.part.hbond>
-2.0000

> <Gold.PLP.part.metal>
0.0000

> <Gold.PLP.part.buried>
-4.9100

> <Gold.PLP.part.nonpolar>
-30.7610

> <Gold.PLP.part.repulsive>
0.0728

> <Gold.PLP.ligand.clash>
0.0000

> <Gold.PLP.ligand.torsion>
0.4943

> <Gold.PLP.Chemscore.Hbond>
2.0000

> <Gold.PLP.Chemscore.CHOScore>
0.0000

> <Gold.PLP.Chemscore.Metal>
0.0000

> <Gold.Chemscore.Hbonds>
donor molecule, donor type, donor heavy atom, donor atom, acceptor molecule, acceptor atom, score
      P1  H  6896  6909       L1     3  0.42
      P1  H  7997  8008       L1    10  1.00

> <Gold.PLP.Chemscore.Internal.Correction>
0.7500

> <Gold.Rescore>
     Score         DG    S(hbond)    S(metal)    S(lipo)     H(rot)  DE(clash)    DE(int)     intcor
     17.88     -18.45       1.75        0.00     103.62       1.95       0.05       0.52       ----

> <Gold.Chemscore.Fitness>
17.8846

> <Gold.Chemscore.DG>
-18.4546

> <Gold.Chemscore.ZeroCoef>
-5.4800

> <Gold.Chemscore.Hbond>
1.7469

> <Gold.Chemscore.Metal>
0.0000

> <Gold.Chemscore.Lipo>
103.6165

> <Gold.Chemscore.Internal_Hbond>
0.0000

> <Gold.Chemscore.DEClash>
0.0524

> <Gold.Chemscore.DEInternal>
0.5175

> <Gold.Chemscore.Rot>
1.9466

> <Gold.Chemscore.Internal.Correction>
   9.000000E+99

> <Gold.Chemscore.Hbonds>
donor molecule, donor type, donor heavy atom, donor atom, acceptor molecule, acceptor atom, score
      P1  H  6896  6909       L1     3  0.31
      P1  H  7997  8008       L1    10  0.94

> <Gold.Chemscore.Hbond.Weighted>
-5.8347

> <Gold.Chemscore.Metal.Weighted>
-0.0000

> <Gold.Chemscore.Lipo.Weighted>
-12.1231

> <Gold.Chemscore.Internal_Hbond.Weighted>
0.0000

> <Gold.Chemscore.DEClash.Weighted>
0.0524

> <Gold.Chemscore.DEInternal.Weighted>
0.5175

> <Gold.Chemscore.Rot.Weighted>
4.9832

> <Gold.Chemscore.Internal.Correction.Weighted>
   9.000000E+99

> <Gold.Protein.RotatedTorsions>
[ 6907 6896 6895 6894 ] final -116.96 input  -60.11 | X-H torsion
[ 7974 7965 7964 7962 ] final -171.03 input  175.53 | X-H torsion
[ 8008 7997 7996 7995 ] final -136.31 input   59.86 | X-H torsion
[ 10167 10162 10161 10158 ] final  -40.39 input  -65.29 | X-H torsion
[ 10718 10713 10712 10709 ] final  106.50 input   66.30 | X-H torsion
[ 10763 10752 10751 10750 ] final  126.26 input  -60.55 | X-H torsion
[ 11005 11000 10999 10996 ] final  147.05 input  -57.11 | X-H torsion

> <Gold.Protein.ActiveResidues>
 VAL166  LYS551  ARG553  GLY616  TRP617  ASP618  TYR619  PRO620  LYS621  CYS622 
 ASP623  PHE694  ASN695  SER759  ASP760  ASP761  ALA762  ILE779  LEU786  VAL792 
 PHE793  MET794  SER795  GLU796  ALA797  LYS798  CYS799  TRP800  GLU811  SER814 

> <Gold.Protein.RotatedAtoms>
  150.8098  133.8443  159.3187 H   0  0  0  0  0  0  0  0  0  0  0  0  # atno 6907 bound_to 6896
  151.6231  135.1028  160.0115 H   0  0  0  0  0  0  0  0  0  0  0  0  # atno 6908 bound_to 6896
  152.4190  133.7044  159.6499 H   0  0  0  0  0  0  0  0  0  0  0  0  # atno 6909 bound_to 6896
  144.7162  140.1983  143.6341 H   0  0  0  0  0  0  0  0  0  0  0  0  # atno 7974 bound_to 7965
  155.3932  140.0501  157.3040 H   0  0  0  0  0  0  0  0  0  0  0  0  # atno 8008 bound_to 7997
  154.5026  140.2162  155.9276 H   0  0  0  0  0  0  0  0  0  0  0  0  # atno 8009 bound_to 7997
  156.1486  140.3140  155.8617 H   0  0  0  0  0  0  0  0  0  0  0  0  # atno 8010 bound_to 7997
  140.7035  143.3156  151.2918 H   0  0  0  0  0  0  0  0  0  0  0  0  # atno 10167 bound_to 10162
  157.6666  131.0852  150.6016 H   0  0  0  0  0  0  0  0  0  0  0  0  # atno 10718 bound_to 10713
  153.6905  135.3299  155.3201 H   0  0  0  0  0  0  0  0  0  0  0  0  # atno 10763 bound_to 10752
  154.8441  135.4430  154.1514 H   0  0  0  0  0  0  0  0  0  0  0  0  # atno 10764 bound_to 10752
  153.2554  135.6985  153.7712 H   0  0  0  0  0  0  0  0  0  0  0  0  # atno 10765 bound_to 10752
  140.0844  134.9078  157.1552 H   0  0  0  0  0  0  0  0  0  0  0  0  # atno 11005 bound_to 11000
  145.8704  139.2269  143.1664 LP  0  0  0  0  0  0  0  0  0  0  0  0  # atno 17320 bound_to 7965
  146.0090  140.8452  142.9980 LP  0  0  0  0  0  0  0  0  0  0  0  0  # atno 17321 bound_to 7965
  139.6594  144.0218  152.2682 LP  0  0  0  0  0  0  0  0  0  0  0  0  # atno 17342 bound_to 10162
  139.9780  144.6448  150.7927 LP  0  0  0  0  0  0  0  0  0  0  0  0  # atno 17343 bound_to 10162
  156.6316  130.4433  149.5784 LP  0  0  0  0  0  0  0  0  0  0  0  0  # atno 17370 bound_to 10713
  156.2277  130.6776  151.1432 LP  0  0  0  0  0  0  0  0  0  0  0  0  # atno 17371 bound_to 10713
  140.3441  134.2671  155.7207 LP  0  0  0  0  0  0  0  0  0  0  0  0  # atno 17394 bound_to 11000
  141.2057  133.7851  157.0215 LP  0  0  0  0  0  0  0  0  0  0  0  0  # atno 17395 bound_to 11000

$$$$
