AV-unprocessed.smi:610|AV-procd|sdf|3059|dock2
  -GOLD-   2262023583D 1   1.00000     0.00000
 Structure written by MMmdl.
 37 38  0  0  0  0  0  0  0  0  1 V2000
  152.6884  139.7289  158.5132 C   0  0  0  0  0  0  0  0  0  0  0  0
  151.9892  140.3815  157.3111 C   0  0  2  0  0  0  0  0  0  0  0  0
  150.9639  141.4405  157.7583 C   0  0  0  0  0  0  0  0  0  0  0  0
  151.6004  142.6590  158.2240 N   0  0  0  0  0  0  0  0  0  0  0  0
  151.6166  143.8938  157.5882 C   0  0  0  0  0  0  0  0  0  0  0  0
  152.3412  144.7416  158.3954 C   0  0  0  0  0  0  0  0  0  0  0  0
  152.7764  144.0545  159.5261 N   0  0  0  0  0  0  0  0  0  0  0  0
  152.2992  142.8283  159.3548 C   0  0  0  0  0  0  0  0  0  0  0  0
  151.3273  139.3576  156.5061 N   0  0  0  0  0  0  0  0  0  0  0  0
  150.6734  139.5638  155.3498 C   0  0  0  0  0  0  0  0  0  0  0  0
  150.5968  140.6769  154.8278 O   0  0  0  0  0  0  0  0  0  0  0  0
  150.0049  138.3451  154.6627 C   0  0  0  0  0  0  0  0  0  0  0  0
  149.4015  138.7018  153.3842 N   0  0  0  0  0  0  0  0  0  0  0  0
  151.0200  137.1919  154.4310 C   0  0  0  0  0  0  0  0  0  0  0  0
  150.5163  135.9815  155.2274 C   0  0  0  0  0  0  0  0  0  0  0  0
  149.5802  136.5574  156.2845 C   0  0  0  0  0  0  0  0  0  0  0  0
  148.9156  137.7377  155.5777 C   0  0  0  0  0  0  0  0  0  0  0  0
  153.2017  140.4755  159.1195 H   0  0  0  0  0  0  0  0  0  0  0  0
  153.4337  139.0014  158.1899 H   0  0  0  0  0  0  0  0  0  0  0  0
  151.9746  139.2120  159.1554 H   0  0  0  0  0  0  0  0  0  0  0  0
  152.7494  140.8823  156.7083 H   0  0  0  0  0  0  0  0  0  0  0  0
  150.2829  141.6886  156.9427 H   0  0  0  0  0  0  0  0  0  0  0  0
  150.3496  141.0502  158.5709 H   0  0  0  0  0  0  0  0  0  0  0  0
  151.1277  144.0615  156.6398 H   0  0  0  0  0  0  0  0  0  0  0  0
  152.5810  145.7847  158.2503 H   0  0  0  0  0  0  0  0  0  0  0  0
  152.4647  142.0332  160.0671 H   0  0  0  0  0  0  0  0  0  0  0  0
  151.3534  138.4118  156.8595 H   0  0  0  0  0  0  0  0  0  0  0  0
  150.0747  139.2151  152.8335 H   0  0  0  0  0  0  0  0  0  0  0  0
  149.1997  137.8582  152.8670 H   0  0  0  0  0  0  0  0  0  0  0  0
  151.1347  136.9305  153.3778 H   0  0  0  0  0  0  0  0  0  0  0  0
  152.0190  137.4587  154.7798 H   0  0  0  0  0  0  0  0  0  0  0  0
  149.9531  135.3207  154.5674 H   0  0  0  0  0  0  0  0  0  0  0  0
  151.3292  135.3990  155.6623 H   0  0  0  0  0  0  0  0  0  0  0  0
  148.8589  135.8265  156.6506 H   0  0  0  0  0  0  0  0  0  0  0  0
  150.1586  136.9118  157.1386 H   0  0  0  0  0  0  0  0  0  0  0  0
  148.5042  138.4517  156.2931 H   0  0  0  0  0  0  0  0  0  0  0  0
  148.0745  137.3661  154.9896 H   0  0  0  0  0  0  0  0  0  0  0  0
  1  2  1  0  0  0  0
  1 18  1  0  0  0  0
  1 19  1  0  0  0  0
  1 20  1  0  0  0  0
  2  3  1  0  0  0  0
  2  9  1  0  0  0  0
  2 21  1  0  0  0  0
  3  4  1  0  0  0  0
  3 22  1  0  0  0  0
  3 23  1  0  0  0  0
  4  8  1  0  0  0  0
  4  5  1  0  0  0  0
  5  6  2  0  0  0  0
  5 24  1  0  0  0  0
  6  7  1  0  0  0  0
  6 25  1  0  0  0  0
  7  8  2  0  0  0  0
  8 26  1  0  0  0  0
  9 10  1  0  0  0  0
  9 27  1  0  0  0  0
 10 11  2  0  0  0  0
 10 12  1  0  0  0  0
 12 17  1  0  0  0  0
 12 13  1  0  0  0  0
 12 14  1  0  0  0  0
 13 28  1  0  0  0  0
 13 29  1  0  0  0  0
 14 15  1  0  0  0  0
 14 30  1  0  0  0  0
 14 31  1  0  0  0  0
 15 16  1  0  0  0  0
 15 32  1  0  0  0  0
 15 33  1  0  0  0  0
 16 17  1  0  0  0  0
 16 34  1  0  0  0  0
 16 35  1  0  0  0  0
 17 36  1  0  0  0  0
 17 37  1  0  0  0  0
M  END
> <s_m_source_file>
AV-unprocessed.smi

> <i_m_source_file_index>
610

> <i_lp_mmshare_version>
43012

> <i_f3d_flags>
0

> <s_epik_input>
W2NIXTFuW2NIXVtjSF1uMVtDSDJdW0NAQEhdKFtDSDNdKVtOSF1DKD1PKUMyKFtOSDJdKVtDSDJdW0NIMl1bQ0gyXVtDSDJdMg==

> <s_epik_cmdline>
J2VwaWtfcHl0aG9uJywgJy1waCcsICc3LjAnLCAnLXRuJywgJzgnLCAnLW1hJywgJzIwMCcsICctbWV0YWxfYmluZGluZycsICctaW1hZScsICc8aW5maWxlLm1hZT4nLCAnLW9tYWUnLCAnPG91dGZpbGUubWFlPic=

> <r_lp_tautomer_probability>
1

> <r_epik_Ionization_Penalty>
1.91974

> <r_epik_Ionization_Penalty_Charging>
0.644069

> <r_epik_Ionization_Penalty_Neutral>
1.27567

> <r_epik_State_Penalty>
1.9806

> <r_epik_Charging_Adjusted_Penalty>
2.62467

> <i_epik_Tot_Q>
0

> <i_epik_Tot_abs_Q>
0

> <r_epik_Metal_State_Penalty>
1.61835

> <b_epik_Metal_Only>
0

> <s_lp_Force_Field>
OPLS_2005

> <r_lp_Energy>
21.9363

> <b_lp_Chiralities_Consistent>
1

> <s_lp_Variant>
AV-unprocessed.smi:610-7

> <Gold.Version>
5.8.1

> <Gold.Id.Protein>
6NUR|6NUR_protein|mol2

> <Gold.PLP.Fitness>
42.9300

> <Gold.PLP.PLP>
-33.1489

> <Gold.PLP.part.hbond>
-3.0000

> <Gold.PLP.part.metal>
0.0000

> <Gold.PLP.part.buried>
-3.8122

> <Gold.PLP.part.nonpolar>
-27.1122

> <Gold.PLP.part.repulsive>
0.1772

> <Gold.PLP.ligand.clash>
0.0000

> <Gold.PLP.ligand.torsion>
0.2690

> <Gold.PLP.Chemscore.Hbond>
2.4240

> <Gold.PLP.Chemscore.CHOScore>
1.0000

> <Gold.PLP.Chemscore.Metal>
0.0000

> <Gold.Chemscore.Hbonds>
donor molecule, donor type, donor heavy atom, donor atom, acceptor molecule, acceptor atom, score
      L1  H    13    28       P1  7957  0.45
      L1  H    13    29       P1  7948  1.00
      P1  H  7989  7998       L1    11  0.91
      L1  C     5    24       P1  8028  1.00

> <Gold.PLP.Chemscore.Internal.Correction>
0.0473

> <Gold.Rescore>
     Score         DG    S(hbond)    S(metal)    S(lipo)     H(rot)  DE(clash)    DE(int)     intcor
     15.87     -17.03       2.64        0.00      66.04       1.95       0.19       0.97       ----

> <Gold.Chemscore.Fitness>
15.8716

> <Gold.Chemscore.DG>
-17.0299

> <Gold.Chemscore.ZeroCoef>
-5.4800

> <Gold.Chemscore.Hbond>
2.6377

> <Gold.Chemscore.Metal>
0.0000

> <Gold.Chemscore.Lipo>
66.0405

> <Gold.Chemscore.Internal_Hbond>
0.0000

> <Gold.Chemscore.DEClash>
0.1879

> <Gold.Chemscore.DEInternal>
0.9704

> <Gold.Chemscore.Rot>
1.9480

> <Gold.Chemscore.Internal.Correction>
   9.000000E+99

> <Gold.Chemscore.Hbonds>
donor molecule, donor type, donor heavy atom, donor atom, acceptor molecule, acceptor atom, score
      L1  H    13    28       P1  7957  0.40
      L1  H    13    29       P1  7948  0.98
      P1  H  7989  7998       L1    11  0.79

> <Gold.Chemscore.Hbond.Weighted>
-8.8100

> <Gold.Chemscore.Metal.Weighted>
-0.0000

> <Gold.Chemscore.Lipo.Weighted>
-7.7267

> <Gold.Chemscore.Internal_Hbond.Weighted>
0.0000

> <Gold.Chemscore.DEClash.Weighted>
0.1879

> <Gold.Chemscore.DEInternal.Weighted>
0.9704

> <Gold.Chemscore.Rot.Weighted>
4.9869

> <Gold.Chemscore.Internal.Correction.Weighted>
   9.000000E+99

> <Gold.Protein.RotatedTorsions>
[ 6907 6896 6895 6894 ] final -127.31 input  -60.11 | X-H torsion
[ 7974 7965 7964 7962 ] final  -99.31 input  175.53 | X-H torsion
[ 8008 7997 7996 7995 ] final  -85.69 input   59.86 | X-H torsion
[ 10167 10162 10161 10158 ] final   50.46 input  -65.29 | X-H torsion
[ 10718 10713 10712 10709 ] final  107.01 input   66.30 | X-H torsion
[ 10763 10752 10751 10750 ] final   78.45 input  -60.55 | X-H torsion
[ 11005 11000 10999 10996 ] final  -59.41 input  -57.11 | X-H torsion

> <Gold.Protein.ActiveResidues>
 VAL166  LYS551  ARG553  GLY616  TRP617  ASP618  TYR619  PRO620  LYS621  CYS622 
 ASP623  PHE694  ASN695  SER759  ASP760  ASP761  ALA762  ILE779  LEU786  VAL792 
 PHE793  MET794  SER795  GLU796  ALA797  LYS798  CYS799  TRP800  GLU811  SER814 

> <Gold.Protein.RotatedAtoms>
  150.9060  133.7058  159.2866 H   0  0  0  0  0  0  0  0  0  0  0  0  # atno 6907 bound_to 6896
  151.4561  135.1033  159.9721 H   0  0  0  0  0  0  0  0  0  0  0  0  # atno 6908 bound_to 6896
  152.4903  133.8434  159.7219 H   0  0  0  0  0  0  0  0  0  0  0  0  # atno 6909 bound_to 6896
  145.3092  140.9396  143.2779 H   0  0  0  0  0  0  0  0  0  0  0  0  # atno 7974 bound_to 7965
  154.6436  140.0588  156.9874 H   0  0  0  0  0  0  0  0  0  0  0  0  # atno 8008 bound_to 7997
  155.1479  140.3271  155.4419 H   0  0  0  0  0  0  0  0  0  0  0  0  # atno 8009 bound_to 7997
  156.2543  140.1952  156.6592 H   0  0  0  0  0  0  0  0  0  0  0  0  # atno 8010 bound_to 7997
  140.2722  144.3252  150.6287 H   0  0  0  0  0  0  0  0  0  0  0  0  # atno 10167 bound_to 10162
  157.6645  131.0863  150.6092 H   0  0  0  0  0  0  0  0  0  0  0  0  # atno 10718 bound_to 10713
  153.0876  135.4876  154.8626 H   0  0  0  0  0  0  0  0  0  0  0  0  # atno 10763 bound_to 10752
  154.7229  135.3043  154.9020 H   0  0  0  0  0  0  0  0  0  0  0  0  # atno 10764 bound_to 10752
  153.9679  135.6804  153.4799 H   0  0  0  0  0  0  0  0  0  0  0  0  # atno 10765 bound_to 10752
  141.1247  133.6616  156.5067 H   0  0  0  0  0  0  0  0  0  0  0  0  # atno 11005 bound_to 11000
  144.9030  139.4626  143.6623 LP  0  0  0  0  0  0  0  0  0  0  0  0  # atno 17320 bound_to 7965
  146.3124  139.7794  142.9009 LP  0  0  0  0  0  0  0  0  0  0  0  0  # atno 17321 bound_to 7965
  140.5880  143.2169  151.7306 LP  0  0  0  0  0  0  0  0  0  0  0  0  # atno 17342 bound_to 10162
  139.4985  144.3981  152.0210 LP  0  0  0  0  0  0  0  0  0  0  0  0  # atno 17343 bound_to 10162
  156.6394  130.4454  149.5758 LP  0  0  0  0  0  0  0  0  0  0  0  0  # atno 17370 bound_to 10713
  156.2221  130.6743  151.1379 LP  0  0  0  0  0  0  0  0  0  0  0  0  # atno 17371 bound_to 10713
  140.4402  134.7022  157.4988 LP  0  0  0  0  0  0  0  0  0  0  0  0  # atno 17394 bound_to 11000
  140.0234  134.6513  155.9207 LP  0  0  0  0  0  0  0  0  0  0  0  0  # atno 17395 bound_to 11000

$$$$
