AV-unprocessed.smi:483|AV-procd|sdf|2686|dock3
  -GOLD-   2262023113D 1   1.00000     0.00000
 Structure written by MMmdl.
 44 44  0  0  0  0  0  0  0  0  1 V2000
  145.0233  145.3198  152.8030 C   0  0  0  0  0  0  0  0  0  0  0  0
  145.7730  144.0160  153.1163 C   0  0  0  0  0  0  0  0  0  0  0  0
  145.5763  143.5017  154.5545 C   0  0  0  0  0  0  0  0  0  0  0  0
  146.2209  142.2085  154.7611 N   0  0  0  0  0  0  0  0  0  0  0  0
  147.5151  141.9394  154.5302 C   0  0  0  0  0  0  0  0  0  0  0  0
  148.3013  142.7562  154.0475 O   0  0  0  0  0  0  0  0  0  0  0  0
  148.0015  140.5396  154.9391 C   0  0  1  0  0  0  0  0  0  0  0  0
  147.9490  139.6105  153.7143 C   0  0  0  0  0  0  0  0  0  0  0  0
  149.3899  140.6352  155.3846 N   0  0  0  0  0  0  0  0  0  0  0  0
  149.8022  141.3245  156.4606 C   0  0  0  0  0  0  0  0  0  0  0  0
  149.0283  141.8574  157.2573 O   0  0  0  0  0  0  0  0  0  0  0  0
  151.3190  141.4373  156.6616 C   0  0  0  0  0  0  0  0  0  0  0  0
  151.6602  141.9510  157.9964 N   0  0  0  0  0  0  0  0  0  0  0  0
  151.0708  143.1614  158.3050 N   0  0  0  0  0  0  0  0  0  0  0  0
  151.3212  143.7670  159.4192 C   0  0  0  0  0  0  0  0  0  0  0  0
  150.6288  145.0843  159.6428 C   0  0  0  0  0  0  0  0  0  0  0  0
  152.2392  143.1637  160.3803 C   0  0  0  0  0  0  0  0  0  0  0  0
  152.5032  143.9269  161.6709 C   0  0  0  0  0  0  0  0  0  0  0  0
  152.8005  141.9679  160.0721 C   0  0  0  0  0  0  0  0  0  0  0  0
  153.7170  141.3063  160.9436 C   0  0  0  0  0  0  0  0  0  0  0  0
  154.4449  140.7669  161.6642 N   0  0  0  0  0  0  0  0  0  0  0  0
  152.5134  141.2712  158.8167 C   0  0  0  0  0  0  0  0  0  0  0  0
  152.9965  140.1794  158.5122 O   0  0  0  0  0  0  0  0  0  0  0  0
  145.2606  145.6732  151.7995 H   0  0  0  0  0  0  0  0  0  0  0  0
  145.2914  146.1089  153.5058 H   0  0  0  0  0  0  0  0  0  0  0  0
  143.9438  145.1803  152.8515 H   0  0  0  0  0  0  0  0  0  0  0  0
  145.4648  143.2461  152.4079 H   0  0  0  0  0  0  0  0  0  0  0  0
  146.8382  144.1743  152.9450 H   0  0  0  0  0  0  0  0  0  0  0  0
  146.0194  144.2098  155.2549 H   0  0  0  0  0  0  0  0  0  0  0  0
  144.5135  143.4608  154.7985 H   0  0  0  0  0  0  0  0  0  0  0  0
  145.6526  141.4774  155.1639 H   0  0  0  0  0  0  0  0  0  0  0  0
  147.3746  140.1300  155.7339 H   0  0  0  0  0  0  0  0  0  0  0  0
  146.9322  139.5230  153.3290 H   0  0  0  0  0  0  0  0  0  0  0  0
  148.2840  138.6061  153.9749 H   0  0  0  0  0  0  0  0  0  0  0  0
  148.5839  139.9666  152.9015 H   0  0  0  0  0  0  0  0  0  0  0  0
  150.0904  140.2252  154.7841 H   0  0  0  0  0  0  0  0  0  0  0  0
  151.7565  140.4495  156.5061 H   0  0  0  0  0  0  0  0  0  0  0  0
  151.7559  142.0791  155.8938 H   0  0  0  0  0  0  0  0  0  0  0  0
  149.9623  145.0292  160.5035 H   0  0  0  0  0  0  0  0  0  0  0  0
  150.0298  145.3809  158.7804 H   0  0  0  0  0  0  0  0  0  0  0  0
  151.3542  145.8773  159.8259 H   0  0  0  0  0  0  0  0  0  0  0  0
  153.1463  143.3726  162.3537 H   0  0  0  0  0  0  0  0  0  0  0  0
  151.5697  144.1300  162.1965 H   0  0  0  0  0  0  0  0  0  0  0  0
  152.9921  144.8780  161.4575 H   0  0  0  0  0  0  0  0  0  0  0  0
  1  2  1  0  0  0  0
  1 24  1  0  0  0  0
  1 25  1  0  0  0  0
  1 26  1  0  0  0  0
  2  3  1  0  0  0  0
  2 27  1  0  0  0  0
  2 28  1  0  0  0  0
  3  4  1  0  0  0  0
  3 29  1  0  0  0  0
  3 30  1  0  0  0  0
  4  5  1  0  0  0  0
  4 31  1  0  0  0  0
  5  6  2  0  0  0  0
  5  7  1  0  0  0  0
  7  8  1  0  0  0  0
  7  9  1  0  0  0  0
  7 32  1  0  0  0  0
  8 33  1  0  0  0  0
  8 34  1  0  0  0  0
  8 35  1  0  0  0  0
  9 10  1  0  0  0  0
  9 36  1  0  0  0  0
 10 11  2  0  0  0  0
 10 12  1  0  0  0  0
 12 13  1  0  0  0  0
 12 37  1  0  0  0  0
 12 38  1  0  0  0  0
 13 22  1  0  0  0  0
 13 14  1  0  0  0  0
 14 15  2  0  0  0  0
 15 16  1  0  0  0  0
 15 17  1  0  0  0  0
 16 39  1  0  0  0  0
 16 40  1  0  0  0  0
 16 41  1  0  0  0  0
 17 18  1  0  0  0  0
 17 19  2  0  0  0  0
 18 42  1  0  0  0  0
 18 43  1  0  0  0  0
 18 44  1  0  0  0  0
 19 20  1  0  0  0  0
 19 22  1  0  0  0  0
 20 21  3  0  0  0  0
 22 23  2  0  0  0  0
M  END
> <s_m_source_file>
AV-unprocessed.smi

> <i_m_source_file_index>
483

> <i_lp_mmshare_version>
43012

> <i_f3d_flags>
0

> <s_epik_input>
W0NIM11bQ0gyXVtDSDJdW05IXUMoPU8pW0NASF0oW0NIM10pW05IXUMoPU8pW0NIMl1uMW5jKFtDSDNdKWMoW0NIM10pYyhDI04pYzE9Tw==

> <s_epik_cmdline>
J2VwaWtfcHl0aG9uJywgJy1waCcsICc3LjAnLCAnLXRuJywgJzgnLCAnLW1hJywgJzIwMCcsICctbWV0YWxfYmluZGluZycsICctaW1hZScsICc8aW5maWxlLm1hZT4nLCAnLW9tYWUnLCAnPG91dGZpbGUubWFlPic=

> <r_lp_tautomer_probability>
1

> <r_epik_Ionization_Penalty>
5.96698e-08

> <r_epik_Ionization_Penalty_Charging>
1.88177e-11

> <r_epik_Ionization_Penalty_Neutral>
5.9651e-08

> <r_epik_State_Penalty>
-0

> <r_epik_Charging_Adjusted_Penalty>
1.88177e-11

> <i_epik_Tot_Q>
0

> <i_epik_Tot_abs_Q>
0

> <r_epik_Metal_State_Penalty>
-0

> <b_epik_Metal_Only>
0

> <s_lp_Force_Field>
OPLS_2005

> <r_lp_Energy>
18.0289

> <b_lp_Chiralities_Consistent>
1

> <s_lp_Variant>
AV-unprocessed.smi:483-2

> <Gold.Version>
5.8.1

> <Gold.Id.Protein>
6NUR|6NUR_protein|mol2

> <Gold.PLP.Fitness>
48.0601

> <Gold.PLP.PLP>
-44.1064

> <Gold.PLP.part.hbond>
-3.0000

> <Gold.PLP.part.metal>
0.0000

> <Gold.PLP.part.buried>
-5.0595

> <Gold.PLP.part.nonpolar>
-37.9009

> <Gold.PLP.part.repulsive>
4.3362

> <Gold.PLP.ligand.clash>
0.0000

> <Gold.PLP.ligand.torsion>
0.9135

> <Gold.PLP.Chemscore.Hbond>
1.9040

> <Gold.PLP.Chemscore.CHOScore>
0.0000

> <Gold.PLP.Chemscore.Metal>
0.0000

> <Gold.Chemscore.Hbonds>
donor molecule, donor type, donor heavy atom, donor atom, acceptor molecule, acceptor atom, score
      P1  H  7997  8010       L1    23  0.59
      P1  H  8011  8017       L1     6  0.01
      P1  H  8022  8030       L1     6  0.90

> <Gold.PLP.Chemscore.Internal.Correction>
0.0687

> <Gold.Rescore>
     Score         DG    S(hbond)    S(metal)    S(lipo)     H(rot)  DE(clash)    DE(int)     intcor
     11.17     -16.41       1.80        0.00      93.97       2.38       1.70       3.55       ----

> <Gold.Chemscore.Fitness>
11.1693

> <Gold.Chemscore.DG>
-16.4135

> <Gold.Chemscore.ZeroCoef>
-5.4800

> <Gold.Chemscore.Hbond>
1.8050

> <Gold.Chemscore.Metal>
0.0000

> <Gold.Chemscore.Lipo>
93.9650

> <Gold.Chemscore.Internal_Hbond>
0.0000

> <Gold.Chemscore.DEClash>
1.6977

> <Gold.Chemscore.DEInternal>
3.5464

> <Gold.Chemscore.Rot>
2.3785

> <Gold.Chemscore.Internal.Correction>
   9.000000E+99

> <Gold.Chemscore.Hbonds>
donor molecule, donor type, donor heavy atom, donor atom, acceptor molecule, acceptor atom, score
      P1  H  7997  8010       L1    23  0.54
      P1  H  8011  8017       L1     6  0.03
      P1  H  8022  8030       L1     6  0.82

> <Gold.Chemscore.Hbond.Weighted>
-6.0286

> <Gold.Chemscore.Metal.Weighted>
-0.0000

> <Gold.Chemscore.Lipo.Weighted>
-10.9939

> <Gold.Chemscore.Internal_Hbond.Weighted>
0.0000

> <Gold.Chemscore.DEClash.Weighted>
1.6977

> <Gold.Chemscore.DEInternal.Weighted>
3.5464

> <Gold.Chemscore.Rot.Weighted>
6.0890

> <Gold.Chemscore.Internal.Correction.Weighted>
   9.000000E+99

> <Gold.Protein.RotatedTorsions>
[ 6907 6896 6895 6894 ] final  130.41 input  -60.11 | X-H torsion
[ 7974 7965 7964 7962 ] final  130.23 input  175.53 | X-H torsion
[ 8008 7997 7996 7995 ] final   39.63 input   59.86 | X-H torsion
[ 10167 10162 10161 10158 ] final   21.69 input  -65.29 | X-H torsion
[ 10718 10713 10712 10709 ] final  168.81 input   66.30 | X-H torsion
[ 10763 10752 10751 10750 ] final  -13.30 input  -60.55 | X-H torsion
[ 11005 11000 10999 10996 ] final   48.95 input  -57.11 | X-H torsion

> <Gold.Protein.ActiveResidues>
 VAL166  LYS551  ARG553  GLY616  TRP617  ASP618  TYR619  PRO620  LYS621  CYS622 
 ASP623  PHE694  ASN695  SER759  ASP760  ASP761  ALA762  ILE779  LEU786  VAL792 
 PHE793  MET794  SER795  GLU796  ALA797  LYS798  CYS799  TRP800  GLU811  SER814 

> <Gold.Protein.RotatedAtoms>
  152.3529  133.6201  159.5957 H   0  0  0  0  0  0  0  0  0  0  0  0  # atno 6907 bound_to 6896
  150.7549  133.9546  159.3505 H   0  0  0  0  0  0  0  0  0  0  0  0  # atno 6908 bound_to 6896
  151.7395  135.0858  160.0364 H   0  0  0  0  0  0  0  0  0  0  0  0  # atno 6909 bound_to 6896
  145.0202  139.4139  143.5201 H   0  0  0  0  0  0  0  0  0  0  0  0  # atno 7974 bound_to 7965
  155.2399  140.3344  155.4293 H   0  0  0  0  0  0  0  0  0  0  0  0  # atno 8008 bound_to 7997
  156.2260  140.1829  156.7406 H   0  0  0  0  0  0  0  0  0  0  0  0  # atno 8009 bound_to 7997
  154.5900  140.0639  156.9210 H   0  0  0  0  0  0  0  0  0  0  0  0  # atno 8010 bound_to 7997
  140.5407  143.9682  150.6518 H   0  0  0  0  0  0  0  0  0  0  0  0  # atno 10167 bound_to 10162
  157.0317  131.0261  151.2742 H   0  0  0  0  0  0  0  0  0  0  0  0  # atno 10718 bound_to 10713
  153.5113  135.7016  153.5779 H   0  0  0  0  0  0  0  0  0  0  0  0  # atno 10763 bound_to 10752
  153.3868  135.3906  155.1896 H   0  0  0  0  0  0  0  0  0  0  0  0  # atno 10764 bound_to 10752
  154.8703  135.3848  154.4593 H   0  0  0  0  0  0  0  0  0  0  0  0  # atno 10765 bound_to 10752
  140.1145  134.4910  155.8649 H   0  0  0  0  0  0  0  0  0  0  0  0  # atno 11005 bound_to 11000
  146.3484  139.9695  142.8708 LP  0  0  0  0  0  0  0  0  0  0  0  0  # atno 17320 bound_to 7965
  145.1906  140.9810  143.4213 LP  0  0  0  0  0  0  0  0  0  0  0  0  # atno 17321 bound_to 7965
  140.3082  143.3216  152.0905 LP  0  0  0  0  0  0  0  0  0  0  0  0  # atno 17342 bound_to 10162
  139.4988  144.6653  151.6369 LP  0  0  0  0  0  0  0  0  0  0  0  0  # atno 17343 bound_to 10162
  157.5172  130.7975  149.7770 LP  0  0  0  0  0  0  0  0  0  0  0  0  # atno 17370 bound_to 10713
  156.0067  130.3852  150.2405 LP  0  0  0  0  0  0  0  0  0  0  0  0  # atno 17371 bound_to 10713
  141.2138  133.6739  156.6770 LP  0  0  0  0  0  0  0  0  0  0  0  0  # atno 17394 bound_to 11000
  140.3046  134.8136  157.4126 LP  0  0  0  0  0  0  0  0  0  0  0  0  # atno 17395 bound_to 11000

$$$$
