AV-unprocessed.smi:2506|AV-procd|sdf|9862|dock6
  -GOLD-   2272013493D 1   1.00000     0.00000
 Structure written by MMmdl.
 39 40  0  0  0  0  0  0  0  0  2 V2000
  147.6382  141.7944  154.0287 C   0  0  0  0  0  0  0  0  0  0  0  0
  148.6206  140.6523  154.2235 C   0  0  0  0  0  0  0  0  0  0  0  0
  148.2944  139.4940  153.6022 N   0  0  0  0  0  0  0  0  0  0  0  0
  149.1264  138.4485  153.7386 N   0  3  0  0  0  0  0  0  0  0  0  0
  150.2637  138.5000  154.4705 C   0  0  0  0  0  0  0  0  0  0  0  0
  150.6330  139.6860  155.1309 C   0  0  0  0  0  0  0  0  0  0  0  0
  149.7927  140.8143  154.9987 C   0  0  0  0  0  0  0  0  0  0  0  0
  150.0469  142.0649  155.6285 N   0  0  0  0  0  0  0  0  0  0  0  0
  150.9932  142.3648  156.5339 C   0  0  0  0  0  0  0  0  0  0  0  0
  151.8121  141.5693  156.9935 O   0  0  0  0  0  0  0  0  0  0  0  0
  150.9533  143.6639  156.8615 N   0  0  0  0  0  0  0  0  0  0  0  0
  151.8571  144.3370  157.7922 C   0  0  0  0  0  0  0  0  0  0  0  0
  151.4172  144.1895  159.2703 C   0  0  0  0  0  0  0  0  0  0  0  0
  149.8758  144.1962  159.3871 C   0  0  0  0  0  0  0  0  0  0  0  0
  152.0067  142.9298  159.9295 C   0  0  0  0  0  0  0  0  0  0  0  0
  152.0717  143.2274  161.4318 C   0  0  0  0  0  0  0  0  0  0  0  0
  152.0896  144.7561  161.5647 C   0  0  0  0  0  0  0  0  0  0  0  0
  152.0135  145.3120  160.1371 C   0  0  0  0  0  0  0  0  0  0  0  0
  148.1343  142.6461  153.5622 H   0  0  0  0  0  0  0  0  0  0  0  0
  147.2315  142.1140  154.9887 H   0  0  0  0  0  0  0  0  0  0  0  0
  146.8032  141.5020  153.3904 H   0  0  0  0  0  0  0  0  0  0  0  0
  150.8402  137.5874  154.5089 H   0  0  0  0  0  0  0  0  0  0  0  0
  151.5330  139.7007  155.7265 H   0  0  0  0  0  0  0  0  0  0  0  0
  149.4986  142.8417  155.2884 H   0  0  0  0  0  0  0  0  0  0  0  0
  150.2475  144.2408  156.4273 H   0  0  0  0  0  0  0  0  0  0  0  0
  152.8437  143.8944  157.6514 H   0  0  0  0  0  0  0  0  0  0  0  0
  151.9683  145.3919  157.5352 H   0  0  0  0  0  0  0  0  0  0  0  0
  149.5450  144.1809  160.4258 H   0  0  0  0  0  0  0  0  0  0  0  0
  149.4306  143.3290  158.8995 H   0  0  0  0  0  0  0  0  0  0  0  0
  149.4509  145.0877  158.9248 H   0  0  0  0  0  0  0  0  0  0  0  0
  151.4342  142.0276  159.7109 H   0  0  0  0  0  0  0  0  0  0  0  0
  153.0205  142.7620  159.5630 H   0  0  0  0  0  0  0  0  0  0  0  0
  151.1909  142.8243  161.9332 H   0  0  0  0  0  0  0  0  0  0  0  0
  152.9466  142.7671  161.8918 H   0  0  0  0  0  0  0  0  0  0  0  0
  151.2276  145.0865  162.1458 H   0  0  0  0  0  0  0  0  0  0  0  0
  152.9831  145.1096  162.0801 H   0  0  0  0  0  0  0  0  0  0  0  0
  153.0259  145.5430  159.8025 H   0  0  0  0  0  0  0  0  0  0  0  0
  151.4422  146.2396  160.0825 H   0  0  0  0  0  0  0  0  0  0  0  0
  148.8895  137.5710  153.2746 H   0  0  0  0  0  0  0  0  0  0  0  0
  1  2  1  0  0  0  0
  1 19  1  0  0  0  0
  1 20  1  0  0  0  0
  1 21  1  0  0  0  0
  2  7  1  0  0  0  0
  2  3  2  0  0  0  0
  3  4  1  0  0  0  0
  4  5  2  0  0  0  0
  4 39  1  0  0  0  0
  5  6  1  0  0  0  0
  5 22  1  0  0  0  0
  6  7  2  0  0  0  0
  6 23  1  0  0  0  0
  7  8  1  0  0  0  0
  8  9  1  0  0  0  0
  8 24  1  0  0  0  0
  9 10  2  0  0  0  0
  9 11  1  0  0  0  0
 11 12  1  0  0  0  0
 11 25  1  0  0  0  0
 12 13  1  0  0  0  0
 12 26  1  0  0  0  0
 12 27  1  0  0  0  0
 13 18  1  0  0  0  0
 13 14  1  0  0  0  0
 13 15  1  0  0  0  0
 14 28  1  0  0  0  0
 14 29  1  0  0  0  0
 14 30  1  0  0  0  0
 15 16  1  0  0  0  0
 15 31  1  0  0  0  0
 15 32  1  0  0  0  0
 16 17  1  0  0  0  0
 16 33  1  0  0  0  0
 16 34  1  0  0  0  0
 17 18  1  0  0  0  0
 17 35  1  0  0  0  0
 17 36  1  0  0  0  0
 18 37  1  0  0  0  0
 18 38  1  0  0  0  0
M  CHG  1   4   1
M  END
> <s_m_source_file>
AV-unprocessed.smi

> <i_m_source_file_index>
2506

> <i_lp_mmshare_version>
43012

> <i_f3d_flags>
0

> <s_epik_input>
W0NIM11jMW5uW2NIXVtjSF1jMVtOSF1DKD1PKVtOSF1bQ0gyXUMyKFtDSDNdKVtDSDJdW0NIMl1bQ0gyXVtDSDJdMg==

> <s_epik_cmdline>
J2VwaWtfcHl0aG9uJywgJy1waCcsICc3LjAnLCAnLXRuJywgJzgnLCAnLW1hJywgJzIwMCcsICctbWV0YWxfYmluZGluZycsICctaW1hZScsICc8aW5maWxlLm1hZT4nLCAnLW9tYWUnLCAnPG91dGZpbGUubWFlPic=

> <r_lp_tautomer_probability>
0.5088

> <r_epik_Ionization_Penalty>
1.13414

> <r_epik_Ionization_Penalty_Charging>
1.1341

> <r_epik_Ionization_Penalty_Neutral>
4.35135e-05

> <r_epik_State_Penalty>
2.14502

> <r_epik_Charging_Adjusted_Penalty>
3.27912

> <i_epik_Tot_Q>
1

> <i_epik_Tot_abs_Q>
1

> <r_epik_Metal_State_Penalty>
2.23434

> <b_epik_Metal_Only>
0

> <s_lp_Force_Field>
OPLS_2005

> <r_lp_Energy>
34.1821

> <b_lp_Chiralities_Consistent>
1

> <s_lp_Variant>
AV-unprocessed.smi:2506-2

> <Gold.Version>
5.8.1

> <Gold.Id.Protein>
6NUR|6NUR_protein|mol2

> <Gold.PLP.Fitness>
52.8142

> <Gold.PLP.PLP>
-42.1980

> <Gold.PLP.part.hbond>
-4.0000

> <Gold.PLP.part.metal>
0.0000

> <Gold.PLP.part.buried>
-0.9259

> <Gold.PLP.part.nonpolar>
-37.2978

> <Gold.PLP.part.repulsive>
2.2903

> <Gold.PLP.ligand.clash>
0.0000

> <Gold.PLP.ligand.torsion>
0.6151

> <Gold.PLP.Chemscore.Hbond>
3.9440

> <Gold.PLP.Chemscore.CHOScore>
0.0000

> <Gold.PLP.Chemscore.Metal>
0.0000

> <Gold.Chemscore.Hbonds>
donor molecule, donor type, donor heavy atom, donor atom, acceptor molecule, acceptor atom, score
      L1  H     4    39       P1  7948  2.00
      L1  H     8    24       P1  8028  0.93
      L1  H    11    25       P1  8028  1.00

> <Gold.PLP.Chemscore.Internal.Correction>
0.0143

> <Gold.Rescore>
     Score         DG    S(hbond)    S(metal)    S(lipo)     H(rot)  DE(clash)    DE(int)     intcor
     21.77     -24.96       2.86        0.00     111.52       1.22       1.33       1.87       ----

> <Gold.Chemscore.Fitness>
21.7660

> <Gold.Chemscore.DG>
-24.9647

> <Gold.Chemscore.ZeroCoef>
-5.4800

> <Gold.Chemscore.Hbond>
2.8629

> <Gold.Chemscore.Metal>
0.0000

> <Gold.Chemscore.Lipo>
111.5169

> <Gold.Chemscore.Internal_Hbond>
0.0000

> <Gold.Chemscore.DEClash>
1.3276

> <Gold.Chemscore.DEInternal>
1.8711

> <Gold.Chemscore.Rot>
1.2207

> <Gold.Chemscore.Internal.Correction>
   9.000000E+99

> <Gold.Chemscore.Hbonds>
donor molecule, donor type, donor heavy atom, donor atom, acceptor molecule, acceptor atom, score
      L1  H     4    39       P1  7948  0.97
      L1  H     8    24       P1  8028  0.86
      L1  H    11    25       P1  8028  0.99

> <Gold.Chemscore.Hbond.Weighted>
-9.5622

> <Gold.Chemscore.Metal.Weighted>
-0.0000

> <Gold.Chemscore.Lipo.Weighted>
-13.0475

> <Gold.Chemscore.Internal_Hbond.Weighted>
0.0000

> <Gold.Chemscore.DEClash.Weighted>
1.3276

> <Gold.Chemscore.DEInternal.Weighted>
1.8711

> <Gold.Chemscore.Rot.Weighted>
3.1250

> <Gold.Chemscore.Internal.Correction.Weighted>
   9.000000E+99

> <Gold.Protein.RotatedTorsions>
[ 6907 6896 6895 6894 ] final -123.17 input  -60.11 | X-H torsion
[ 7974 7965 7964 7962 ] final -169.16 input  175.53 | X-H torsion
[ 8008 7997 7996 7995 ] final -137.18 input   59.86 | X-H torsion
[ 10167 10162 10161 10158 ] final   69.66 input  -65.29 | X-H torsion
[ 10718 10713 10712 10709 ] final   97.25 input   66.30 | X-H torsion
[ 10763 10752 10751 10750 ] final -176.61 input  -60.55 | X-H torsion
[ 11005 11000 10999 10996 ] final -127.48 input  -57.11 | X-H torsion

> <Gold.Protein.ActiveResidues>
 VAL166  LYS551  ARG553  GLY616  TRP617  ASP618  TYR619  PRO620  LYS621  CYS622 
 ASP623  PHE694  ASN695  SER759  ASP760  ASP761  ALA762  ILE779  LEU786  VAL792 
 PHE793  MET794  SER795  GLU796  ALA797  LYS798  CYS799  TRP800  GLU811  SER814 

> <Gold.Protein.RotatedAtoms>
  150.8645  133.7595  159.2981 H   0  0  0  0  0  0  0  0  0  0  0  0  # atno 6907 bound_to 6896
  151.5226  135.1066  159.9892 H   0  0  0  0  0  0  0  0  0  0  0  0  # atno 6908 bound_to 6896
  152.4651  133.7861  159.6932 H   0  0  0  0  0  0  0  0  0  0  0  0  # atno 6909 bound_to 6896
  144.7190  140.2262  143.6310 H   0  0  0  0  0  0  0  0  0  0  0  0  # atno 7974 bound_to 7965
  155.4076  140.0510  157.3033 H   0  0  0  0  0  0  0  0  0  0  0  0  # atno 8008 bound_to 7997
  154.4961  140.2139  155.9404 H   0  0  0  0  0  0  0  0  0  0  0  0  # atno 8009 bound_to 7997
  156.1407  140.3155  155.8496 H   0  0  0  0  0  0  0  0  0  0  0  0  # atno 8010 bound_to 7997
  140.0654  144.5197  150.7264 H   0  0  0  0  0  0  0  0  0  0  0  0  # atno 10167 bound_to 10162
  157.6915  131.0603  150.4615 H   0  0  0  0  0  0  0  0  0  0  0  0  # atno 10718 bound_to 10713
  154.5702  135.2827  155.0835 H   0  0  0  0  0  0  0  0  0  0  0  0  # atno 10763 bound_to 10752
  154.2210  135.6391  153.5148 H   0  0  0  0  0  0  0  0  0  0  0  0  # atno 10764 bound_to 10752
  153.0055  135.5514  154.6323 H   0  0  0  0  0  0  0  0  0  0  0  0  # atno 10765 bound_to 10752
  140.9596  134.0955  157.3982 H   0  0  0  0  0  0  0  0  0  0  0  0  # atno 11005 bound_to 11000
  145.8454  139.2149  143.1803 LP  0  0  0  0  0  0  0  0  0  0  0  0  # atno 17320 bound_to 7965
  146.0309  140.8259  142.9876 LP  0  0  0  0  0  0  0  0  0  0  0  0  # atno 17321 bound_to 7965
  140.7151  143.2538  151.4458 LP  0  0  0  0  0  0  0  0  0  0  0  0  # atno 17342 bound_to 10162
  139.5868  144.1587  152.2039 LP  0  0  0  0  0  0  0  0  0  0  0  0  # atno 17343 bound_to 10162
  156.4959  130.4106  149.6380 LP  0  0  0  0  0  0  0  0  0  0  0  0  # atno 17370 bound_to 10713
  156.3373  130.7363  151.2303 LP  0  0  0  0  0  0  0  0  0  0  0  0  # atno 17371 bound_to 10713
  139.8873  135.0089  156.6554 LP  0  0  0  0  0  0  0  0  0  0  0  0  # atno 17394 bound_to 11000
  140.7487  133.8916  155.8331 LP  0  0  0  0  0  0  0  0  0  0  0  0  # atno 17395 bound_to 11000

$$$$
