AV-unprocessed.smi:3345|AV-procd|sdf|12906|dock2
  -GOLD-   2272019323D 1   1.00000     0.00000
 Structure written by MMmdl.
 41 42  0  0  0  0  0  0  0  0  2 V2000
  146.5065  138.8876  154.7879 C   0  0  0  0  0  0  0  0  0  0  0  0
  146.5408  137.7796  153.7268 C   0  0  1  0  0  0  0  0  0  0  0  0
  146.5514  138.3617  152.2947 C   0  0  0  0  0  0  0  0  0  0  0  0
  146.7577  137.3294  151.2460 N   0  3  0  0  0  0  0  0  0  0  0  0
  145.7597  136.2337  151.2850 C   0  0  0  0  0  0  0  0  0  0  0  0
  146.1039  135.1710  150.2290 C   0  0  0  0  0  0  0  0  0  0  0  0
  146.1404  135.7779  148.9430 O   0  0  0  0  0  0  0  0  0  0  0  0
  147.1377  136.7885  148.8569 C   0  0  0  0  0  0  0  0  0  0  0  0
  146.8467  137.8988  149.8811 C   0  0  0  0  0  0  0  0  0  0  0  0
  147.7132  136.9324  153.9454 N   0  0  0  0  0  0  0  0  0  0  0  0
  148.0455  136.3299  155.0991 C   0  0  0  0  0  0  0  0  0  0  0  0
  147.4314  136.5006  156.1524 O   0  0  0  0  0  0  0  0  0  0  0  0
  149.2214  135.3459  155.0314 C   0  0  1  0  0  0  0  0  0  0  0  0
  149.9417  135.1856  156.3854 C   0  0  0  0  0  0  0  0  0  0  0  0
  148.7561  134.0717  154.4964 N   0  0  0  0  0  0  0  0  0  0  0  0
  148.0169  133.8146  153.4149 C   0  0  0  0  0  0  0  0  0  0  0  0
  147.7206  132.5322  153.2574 N   0  0  0  0  0  0  0  0  0  0  0  0
  148.3538  132.0151  154.3516 C   0  0  0  0  0  0  0  0  0  0  0  0
  148.9655  132.8966  155.1416 N   0  0  0  0  0  0  0  0  0  0  0  0
  145.6292  139.5228  154.6618 H   0  0  0  0  0  0  0  0  0  0  0  0
  147.3897  139.5248  154.7292 H   0  0  0  0  0  0  0  0  0  0  0  0
  146.4658  138.4672  155.7933 H   0  0  0  0  0  0  0  0  0  0  0  0
  145.6315  137.1915  153.8573 H   0  0  0  0  0  0  0  0  0  0  0  0
  145.6339  138.9173  152.0952 H   0  0  0  0  0  0  0  0  0  0  0  0
  147.3651  139.0861  152.2325 H   0  0  0  0  0  0  0  0  0  0  0  0
  145.7376  135.7711  152.2708 H   0  0  0  0  0  0  0  0  0  0  0  0
  144.7627  136.6362  151.1000 H   0  0  0  0  0  0  0  0  0  0  0  0
  147.0615  134.6967  150.4512 H   0  0  0  0  0  0  0  0  0  0  0  0
  145.3498  134.3838  150.2274 H   0  0  0  0  0  0  0  0  0  0  0  0
  148.1235  136.3545  149.0241 H   0  0  0  0  0  0  0  0  0  0  0  0
  147.1393  137.1993  147.8472 H   0  0  0  0  0  0  0  0  0  0  0  0
  145.9119  138.4039  149.6325 H   0  0  0  0  0  0  0  0  0  0  0  0
  147.6388  138.6474  149.8415 H   0  0  0  0  0  0  0  0  0  0  0  0
  148.2897  136.7454  153.1376 H   0  0  0  0  0  0  0  0  0  0  0  0
  149.9487  135.7465  154.3231 H   0  0  0  0  0  0  0  0  0  0  0  0
  150.3215  136.1431  156.7431 H   0  0  0  0  0  0  0  0  0  0  0  0
  150.7932  134.5110  156.2939 H   0  0  0  0  0  0  0  0  0  0  0  0
  149.2846  134.7832  157.1577 H   0  0  0  0  0  0  0  0  0  0  0  0
  147.6805  134.5825  152.7337 H   0  0  0  0  0  0  0  0  0  0  0  0
  148.3441  130.9605  154.5851 H   0  0  0  0  0  0  0  0  0  0  0  0
  147.6572  136.9103  151.4343 H   0  0  0  0  0  0  0  0  0  0  0  0
  1  2  1  0  0  0  0
  1 20  1  0  0  0  0
  1 21  1  0  0  0  0
  1 22  1  0  0  0  0
  2  3  1  0  0  0  0
  2 10  1  0  0  0  0
  2 23  1  0  0  0  0
  3  4  1  0  0  0  0
  3 24  1  0  0  0  0
  3 25  1  0  0  0  0
  4  9  1  0  0  0  0
  4  5  1  0  0  0  0
  4 41  1  0  0  0  0
  5  6  1  0  0  0  0
  5 26  1  0  0  0  0
  5 27  1  0  0  0  0
  6  7  1  0  0  0  0
  6 28  1  0  0  0  0
  6 29  1  0  0  0  0
  7  8  1  0  0  0  0
  8  9  1  0  0  0  0
  8 30  1  0  0  0  0
  8 31  1  0  0  0  0
  9 32  1  0  0  0  0
  9 33  1  0  0  0  0
 10 11  1  0  0  0  0
 10 34  1  0  0  0  0
 11 12  2  0  0  0  0
 11 13  1  0  0  0  0
 13 14  1  0  0  0  0
 13 15  1  0  0  0  0
 13 35  1  0  0  0  0
 14 36  1  0  0  0  0
 14 37  1  0  0  0  0
 14 38  1  0  0  0  0
 15 19  1  0  0  0  0
 15 16  1  0  0  0  0
 16 17  2  0  0  0  0
 16 39  1  0  0  0  0
 17 18  1  0  0  0  0
 18 19  2  0  0  0  0
 18 40  1  0  0  0  0
M  CHG  1   4   1
M  END
> <s_m_source_file>
AV-unprocessed.smi

> <i_m_source_file_index>
3345

> <i_lp_mmshare_version>
43012

> <i_f3d_flags>
0

> <s_epik_input>
W0NIMl0xW0NIMl1PW0NIMl1bQ0gyXU4xW0NIMl1bQ0BASF0oW0NIM10pW05IXUMoPU8pW0NASF0oW0NIM10pbjJbY0hdbltjSF1uMg==

> <s_epik_cmdline>
J2VwaWtfcHl0aG9uJywgJy1waCcsICc3LjAnLCAnLXRuJywgJzgnLCAnLW1hJywgJzIwMCcsICctbWV0YWxfYmluZGluZycsICctaW1hZScsICc8aW5maWxlLm1hZT4nLCAnLW9tYWUnLCAnPG91dGZpbGUubWFlPic=

> <r_lp_tautomer_probability>
1

> <r_epik_Ionization_Penalty>
0.71326

> <r_epik_Ionization_Penalty_Charging>
0.713252

> <r_epik_Ionization_Penalty_Neutral>
8.27671e-06

> <r_epik_State_Penalty>
0.737017

> <r_epik_Charging_Adjusted_Penalty>
1.45027

> <i_epik_Tot_Q>
1

> <i_epik_Tot_abs_Q>
1

> <r_epik_Metal_State_Penalty>
0.73702

> <b_epik_Metal_Only>
0

> <s_lp_Force_Field>
OPLS_2005

> <r_lp_Energy>
25.9196

> <b_lp_Chiralities_Consistent>
1

> <s_lp_Variant>
AV-unprocessed.smi:3345-8

> <Gold.Version>
5.8.1

> <Gold.Id.Protein>
6NUR|6NUR_protein|mol2

> <Gold.PLP.Fitness>
44.6868

> <Gold.PLP.PLP>
-31.4151

> <Gold.PLP.part.hbond>
-4.0000

> <Gold.PLP.part.metal>
0.0000

> <Gold.PLP.part.buried>
-1.9609

> <Gold.PLP.part.nonpolar>
-26.5845

> <Gold.PLP.part.repulsive>
0.3494

> <Gold.PLP.ligand.clash>
0.0000

> <Gold.PLP.ligand.torsion>
0.8335

> <Gold.PLP.Chemscore.Hbond>
4.0000

> <Gold.PLP.Chemscore.CHOScore>
0.9138

> <Gold.PLP.Chemscore.Metal>
0.0000

> <Gold.Chemscore.Hbonds>
donor molecule, donor type, donor heavy atom, donor atom, acceptor molecule, acceptor atom, score
      L1  H     4    41       P1  7948  1.76
      L1  H    10    34       P1  7948  0.99
      L1  C    16    39       P1  7948  0.91

> <Gold.PLP.Chemscore.Internal.Correction>
0.1975

> <Gold.Rescore>
     Score         DG    S(hbond)    S(metal)    S(lipo)     H(rot)  DE(clash)    DE(int)     intcor
     13.16     -14.48       2.87        0.00      52.24       2.61       0.04       1.27       ----

> <Gold.Chemscore.Fitness>
13.1592

> <Gold.Chemscore.DG>
-14.4780

> <Gold.Chemscore.ZeroCoef>
-5.4800

> <Gold.Chemscore.Hbond>
2.8674

> <Gold.Chemscore.Metal>
0.0000

> <Gold.Chemscore.Lipo>
52.2414

> <Gold.Chemscore.Internal_Hbond>
0.0000

> <Gold.Chemscore.DEClash>
0.0444

> <Gold.Chemscore.DEInternal>
1.2744

> <Gold.Chemscore.Rot>
2.6138

> <Gold.Chemscore.Internal.Correction>
   9.000000E+99

> <Gold.Chemscore.Hbonds>
donor molecule, donor type, donor heavy atom, donor atom, acceptor molecule, acceptor atom, score
      L1  H     4    41       P1  7948  0.86
      L1  H    10    34       P1  7948  0.92

> <Gold.Chemscore.Hbond.Weighted>
-9.5769

> <Gold.Chemscore.Metal.Weighted>
-0.0000

> <Gold.Chemscore.Lipo.Weighted>
-6.1122

> <Gold.Chemscore.Internal_Hbond.Weighted>
0.0000

> <Gold.Chemscore.DEClash.Weighted>
0.0444

> <Gold.Chemscore.DEInternal.Weighted>
1.2744

> <Gold.Chemscore.Rot.Weighted>
6.6912

> <Gold.Chemscore.Internal.Correction.Weighted>
   9.000000E+99

> <Gold.Protein.RotatedTorsions>
[ 6907 6896 6895 6894 ] final -131.02 input  -60.11 | X-H torsion
[ 7974 7965 7964 7962 ] final -173.16 input  175.53 | X-H torsion
[ 8008 7997 7996 7995 ] final -179.25 input   59.86 | X-H torsion
[ 10167 10162 10161 10158 ] final   77.90 input  -65.29 | X-H torsion
[ 10718 10713 10712 10709 ] final   91.38 input   66.30 | X-H torsion
[ 10763 10752 10751 10750 ] final   72.65 input  -60.55 | X-H torsion
[ 11005 11000 10999 10996 ] final   10.40 input  -57.11 | X-H torsion

> <Gold.Protein.ActiveResidues>
 VAL166  LYS551  ARG553  GLY616  TRP617  ASP618  TYR619  PRO620  LYS621  CYS622 
 ASP623  PHE694  ASN695  SER759  ASP760  ASP761  ALA762  ILE779  LEU786  VAL792 
 PHE793  MET794  SER795  GLU796  ALA797  LYS798  CYS799  TRP800  GLU811  SER814 

> <Gold.Protein.RotatedAtoms>
  150.9463  133.6599  159.2780 H   0  0  0  0  0  0  0  0  0  0  0  0  # atno 6907 bound_to 6896
  151.3971  135.0964  159.9554 H   0  0  0  0  0  0  0  0  0  0  0  0  # atno 6908 bound_to 6896
  152.5091  133.8965  159.7474 H   0  0  0  0  0  0  0  0  0  0  0  0  # atno 6909 bound_to 6896
  144.7140  140.1664  143.6371 H   0  0  0  0  0  0  0  0  0  0  0  0  # atno 7974 bound_to 7965
  156.0283  140.1276  157.0285 H   0  0  0  0  0  0  0  0  0  0  0  0  # atno 8008 bound_to 7997
  154.4339  140.1055  156.6132 H   0  0  0  0  0  0  0  0  0  0  0  0  # atno 8009 bound_to 7997
  155.5845  140.3468  155.4551 H   0  0  0  0  0  0  0  0  0  0  0  0  # atno 8010 bound_to 7997
  139.9766  144.5856  150.7937 H   0  0  0  0  0  0  0  0  0  0  0  0  # atno 10167 bound_to 10162
  157.6960  131.0405  150.3720 H   0  0  0  0  0  0  0  0  0  0  0  0  # atno 10718 bound_to 10713
  153.0472  135.5092  154.7776 H   0  0  0  0  0  0  0  0  0  0  0  0  # atno 10763 bound_to 10752
  154.6667  135.2946  154.9798 H   0  0  0  0  0  0  0  0  0  0  0  0  # atno 10764 bound_to 10752
  154.0631  135.6688  153.4867 H   0  0  0  0  0  0  0  0  0  0  0  0  # atno 10765 bound_to 10752
  140.5149  134.0616  155.7828 H   0  0  0  0  0  0  0  0  0  0  0  0  # atno 11005 bound_to 11000
  145.8983  139.2415  143.1508 LP  0  0  0  0  0  0  0  0  0  0  0  0  # atno 17320 bound_to 7965
  145.9835  140.8662  143.0102 LP  0  0  0  0  0  0  0  0  0  0  0  0  # atno 17321 bound_to 7965
  140.7503  143.2954  151.3219 LP  0  0  0  0  0  0  0  0  0  0  0  0  # atno 17342 bound_to 10162
  139.6441  144.0485  152.2577 LP  0  0  0  0  0  0  0  0  0  0  0  0  # atno 17343 bound_to 10162
  156.4144  130.3940  149.6869 LP  0  0  0  0  0  0  0  0  0  0  0  0  # atno 17370 bound_to 10713
  156.4142  130.7737  151.2751 LP  0  0  0  0  0  0  0  0  0  0  0  0  # atno 17371 bound_to 10713
  141.1366  133.9211  157.2420 LP  0  0  0  0  0  0  0  0  0  0  0  0  # atno 17394 bound_to 11000
  139.9638  135.0147  156.9333 LP  0  0  0  0  0  0  0  0  0  0  0  0  # atno 17395 bound_to 11000

$$$$
