AV-unprocessed.smi:2524|AV-procd|sdf|9922|dock8
  -GOLD-   2272013563D 1   1.00000     0.00000
 Structure written by MMmdl.
 36 37  0  0  0  0  0  0  0  0  1 V2000
  149.8803  138.1124  155.0301 C   0  0  0  0  0  0  0  0  0  0  0  0
  151.1887  137.8202  155.0763 C   0  0  0  0  0  0  0  0  0  0  0  0
  152.2241  138.6361  155.8214 C   0  0  0  0  0  0  0  0  0  0  0  0
  153.1170  137.7550  156.7026 C   0  0  0  0  0  0  0  0  0  0  0  0
  153.6852  138.6731  158.1928 S   0  0  0  0  0  0  0  0  0  0  0  0
  153.1215  138.0198  159.3841 O   0  0  0  0  0  0  0  0  0  0  0  0
  155.1350  138.9004  158.0963 O   0  0  0  0  0  0  0  0  0  0  0  0
  152.9036  140.1962  158.0048 N   0  0  0  0  0  0  0  0  0  0  0  0
  152.2887  140.8218  159.1766 C   0  0  0  0  0  0  0  0  0  0  0  0
  153.2342  141.8248  159.8220 C   0  0  0  0  0  0  0  0  0  0  0  0
  152.6088  143.1901  159.9130 C   0  0  0  0  0  0  0  0  0  0  0  0
  152.4494  143.8431  161.1545 C   0  0  0  0  0  0  0  0  0  0  0  0
  151.8707  145.1274  161.1786 C   0  0  0  0  0  0  0  0  0  0  0  0
  151.4555  145.7743  160.0690 N   0  0  0  0  0  0  0  0  0  0  0  0
  151.6092  145.1490  158.8827 C   0  0  0  0  0  0  0  0  0  0  0  0
  152.1758  143.8655  158.7522 C   0  0  0  0  0  0  0  0  0  0  0  0
  154.1201  141.3654  160.9613 C   0  0  0  0  0  0  0  0  0  0  0  0
  154.7302  141.6922  159.6225 C   0  0  0  0  0  0  0  0  0  0  0  0
  149.4787  138.9762  155.5398 H   0  0  0  0  0  0  0  0  0  0  0  0
  149.1922  137.4884  154.4792 H   0  0  0  0  0  0  0  0  0  0  0  0
  151.5524  136.9473  154.5537 H   0  0  0  0  0  0  0  0  0  0  0  0
  152.8355  139.1913  155.1090 H   0  0  0  0  0  0  0  0  0  0  0  0
  151.7063  139.3740  156.4348 H   0  0  0  0  0  0  0  0  0  0  0  0
  152.5840  136.8636  157.0337 H   0  0  0  0  0  0  0  0  0  0  0  0
  153.9998  137.4302  156.1511 H   0  0  0  0  0  0  0  0  0  0  0  0
  153.4946  140.8571  157.5009 H   0  0  0  0  0  0  0  0  0  0  0  0
  151.3717  141.3364  158.8881 H   0  0  0  0  0  0  0  0  0  0  0  0
  152.0128  140.0454  159.8908 H   0  0  0  0  0  0  0  0  0  0  0  0
  152.7701  143.3727  162.0721 H   0  0  0  0  0  0  0  0  0  0  0  0
  151.7400  145.6494  162.1149 H   0  0  0  0  0  0  0  0  0  0  0  0
  151.2718  145.6879  158.0099 H   0  0  0  0  0  0  0  0  0  0  0  0
  152.2798  143.4110  157.7779 H   0  0  0  0  0  0  0  0  0  0  0  0
  154.3076  142.0616  161.7765 H   0  0  0  0  0  0  0  0  0  0  0  0
  154.0935  140.3145  161.2427 H   0  0  0  0  0  0  0  0  0  0  0  0
  155.0967  140.8528  159.0350 H   0  0  0  0  0  0  0  0  0  0  0  0
  155.3211  142.6032  159.5524 H   0  0  0  0  0  0  0  0  0  0  0  0
  1  2  2  0  0  0  0
  1 19  1  0  0  0  0
  1 20  1  0  0  0  0
  2  3  1  0  0  0  0
  2 21  1  0  0  0  0
  3  4  1  0  0  0  0
  3 22  1  0  0  0  0
  3 23  1  0  0  0  0
  4  5  1  0  0  0  0
  4 24  1  0  0  0  0
  4 25  1  0  0  0  0
  5  6  2  0  0  0  0
  5  7  2  0  0  0  0
  5  8  1  0  0  0  0
  8  9  1  0  0  0  0
  8 26  1  0  0  0  0
  9 10  1  0  0  0  0
  9 27  1  0  0  0  0
  9 28  1  0  0  0  0
 10 18  1  0  0  0  0
 10 11  1  0  0  0  0
 10 17  1  0  0  0  0
 11 16  1  0  0  0  0
 11 12  2  0  0  0  0
 12 13  1  0  0  0  0
 12 29  1  0  0  0  0
 13 14  2  0  0  0  0
 13 30  1  0  0  0  0
 14 15  1  0  0  0  0
 15 16  2  0  0  0  0
 15 31  1  0  0  0  0
 16 32  1  0  0  0  0
 17 18  1  0  0  0  0
 17 33  1  0  0  0  0
 17 34  1  0  0  0  0
 18 35  1  0  0  0  0
 18 36  1  0  0  0  0
M  END
> <s_m_source_file>
AV-unprocessed.smi

> <i_m_source_file_index>
2524

> <i_lp_mmshare_version>
43012

> <i_f3d_flags>
0

> <s_epik_input>
W0NIMl09W0NIXVtDSDJdW0NIMl1TKD1PKSg9TylbTkhdW0NIMl1DMShbQ0gyXVtDSDJdMSljMltjSF1bY0hdbltjSF1bY0hdMg==

> <s_epik_cmdline>
J2VwaWtfcHl0aG9uJywgJy1waCcsICc3LjAnLCAnLXRuJywgJzgnLCAnLW1hJywgJzIwMCcsICctbWV0YWxfYmluZGluZycsICctaW1hZScsICc8aW5maWxlLm1hZT4nLCAnLW9tYWUnLCAnPG91dGZpbGUubWFlPic=

> <r_epik_Ionization_Penalty>
0.0344299

> <r_epik_Ionization_Penalty_Charging>
0

> <r_epik_Ionization_Penalty_Neutral>
0.0344299

> <r_epik_State_Penalty>
0.0286381

> <r_epik_Charging_Adjusted_Penalty>
0.0286381

> <i_epik_Tot_Q>
0

> <i_epik_Tot_abs_Q>
0

> <r_epik_Metal_State_Penalty>
0.0327794

> <b_epik_Metal_Only>
0

> <s_lp_Force_Field>
OPLS_2005

> <r_lp_Energy>
10.3721

> <b_lp_Chiralities_Consistent>
1

> <s_lp_Variant>
AV-unprocessed.smi:2524-1

> <Gold.Version>
5.8.1

> <Gold.Id.Protein>
6NUR|6NUR_protein|mol2

> <Gold.PLP.Fitness>
44.5427

> <Gold.PLP.PLP>
-44.7766

> <Gold.PLP.part.hbond>
-3.0000

> <Gold.PLP.part.metal>
0.0000

> <Gold.PLP.part.buried>
-2.7338

> <Gold.PLP.part.nonpolar>
-38.2201

> <Gold.PLP.part.repulsive>
0.1766

> <Gold.PLP.ligand.clash>
0.0000

> <Gold.PLP.ligand.torsion>
2.4120

> <Gold.PLP.Chemscore.Hbond>
1.0000

> <Gold.PLP.Chemscore.CHOScore>
0.0000

> <Gold.PLP.Chemscore.Metal>
0.0000

> <Gold.Chemscore.Hbonds>
donor molecule, donor type, donor heavy atom, donor atom, acceptor molecule, acceptor atom, score
      P1  H  7997  8008       L1     7  0.50

> <Gold.PLP.Chemscore.Internal.Correction>
1.5902

> <Gold.Rescore>
     Score         DG    S(hbond)    S(metal)    S(lipo)     H(rot)  DE(clash)    DE(int)     intcor
     14.30     -16.58       0.67        0.00     116.25       1.85       0.06       2.22       ----

> <Gold.Chemscore.Fitness>
14.2968

> <Gold.Chemscore.DG>
-16.5779

> <Gold.Chemscore.ZeroCoef>
-5.4800

> <Gold.Chemscore.Hbond>
0.6657

> <Gold.Chemscore.Metal>
0.0000

> <Gold.Chemscore.Lipo>
116.2522

> <Gold.Chemscore.Internal_Hbond>
0.0000

> <Gold.Chemscore.DEClash>
0.0588

> <Gold.Chemscore.DEInternal>
2.2223

> <Gold.Chemscore.Rot>
1.8465

> <Gold.Chemscore.Internal.Correction>
   9.000000E+99

> <Gold.Chemscore.Hbonds>
donor molecule, donor type, donor heavy atom, donor atom, acceptor molecule, acceptor atom, score
      P1  H  7997  8008       L1     7  0.24

> <Gold.Chemscore.Hbond.Weighted>
-2.2235

> <Gold.Chemscore.Metal.Weighted>
-0.0000

> <Gold.Chemscore.Lipo.Weighted>
-13.6015

> <Gold.Chemscore.Internal_Hbond.Weighted>
0.0000

> <Gold.Chemscore.DEClash.Weighted>
0.0588

> <Gold.Chemscore.DEInternal.Weighted>
2.2223

> <Gold.Chemscore.Rot.Weighted>
4.7272

> <Gold.Chemscore.Internal.Correction.Weighted>
   9.000000E+99

> <Gold.Protein.RotatedTorsions>
[ 6907 6896 6895 6894 ] final  -52.87 input  -60.11 | X-H torsion
[ 7974 7965 7964 7962 ] final  -80.07 input  175.53 | X-H torsion
[ 8008 7997 7996 7995 ] final -128.69 input   59.86 | X-H torsion
[ 10167 10162 10161 10158 ] final -118.58 input  -65.29 | X-H torsion
[ 10718 10713 10712 10709 ] final  -70.76 input   66.30 | X-H torsion
[ 10763 10752 10751 10750 ] final  -44.75 input  -60.55 | X-H torsion
[ 11005 11000 10999 10996 ] final  -34.21 input  -57.11 | X-H torsion

> <Gold.Protein.ActiveResidues>
 VAL166  LYS551  ARG553  GLY616  TRP617  ASP618  TYR619  PRO620  LYS621  CYS622 
 ASP623  PHE694  ASN695  SER759  ASP760  ASP761  ALA762  ILE779  LEU786  VAL792 
 PHE793  MET794  SER795  GLU796  ALA797  LYS798  CYS799  TRP800  GLU811  SER814 

> <Gold.Protein.RotatedAtoms>
  150.8478  134.7793  159.6984 H   0  0  0  0  0  0  0  0  0  0  0  0  # atno 6907 bound_to 6896
  152.4551  134.5306  159.9820 H   0  0  0  0  0  0  0  0  0  0  0  0  # atno 6908 bound_to 6896
  151.5433  133.3391  159.2975 H   0  0  0  0  0  0  0  0  0  0  0  0  # atno 6909 bound_to 6896
  145.5648  140.9476  143.1427 H   0  0  0  0  0  0  0  0  0  0  0  0  # atno 7974 bound_to 7965
  155.2669  140.0438  157.3003 H   0  0  0  0  0  0  0  0  0  0  0  0  # atno 8008 bound_to 7997
  154.5677  140.2364  155.8208 H   0  0  0  0  0  0  0  0  0  0  0  0  # atno 8009 bound_to 7997
  156.2098  140.3002  155.9714 H   0  0  0  0  0  0  0  0  0  0  0  0  # atno 8010 bound_to 7997
  140.0560  143.5014  152.2057 H   0  0  0  0  0  0  0  0  0  0  0  0  # atno 10167 bound_to 10162
  156.0393  130.4338  150.2343 H   0  0  0  0  0  0  0  0  0  0  0  0  # atno 10718 bound_to 10713
  154.0172  135.6674  153.4769 H   0  0  0  0  0  0  0  0  0  0  0  0  # atno 10763 bound_to 10752
  153.0595  135.5036  154.8057 H   0  0  0  0  0  0  0  0  0  0  0  0  # atno 10764 bound_to 10752
  154.6959  135.3070  154.9376 H   0  0  0  0  0  0  0  0  0  0  0  0  # atno 10765 bound_to 10752
  140.9697  133.7116  156.1504 H   0  0  0  0  0  0  0  0  0  0  0  0  # atno 11005 bound_to 11000
  144.7465  139.7305  143.7290 LP  0  0  0  0  0  0  0  0  0  0  0  0  # atno 17320 bound_to 7965
  146.1826  139.5025  142.9857 LP  0  0  0  0  0  0  0  0  0  0  0  0  # atno 17321 bound_to 7965
  139.5923  144.7555  151.3370 LP  0  0  0  0  0  0  0  0  0  0  0  0  # atno 17342 bound_to 10162
  140.7194  143.7176  150.7721 LP  0  0  0  0  0  0  0  0  0  0  0  0  # atno 17343 bound_to 10162
  157.0439  131.0043  151.3275 LP  0  0  0  0  0  0  0  0  0  0  0  0  # atno 17370 bound_to 10713
  157.5189  130.7985  149.7787 LP  0  0  0  0  0  0  0  0  0  0  0  0  # atno 17371 bound_to 10713
  140.7347  134.4216  157.5562 LP  0  0  0  0  0  0  0  0  0  0  0  0  # atno 17394 bound_to 11000
  139.8908  134.8796  156.2353 LP  0  0  0  0  0  0  0  0  0  0  0  0  # atno 17395 bound_to 11000

$$$$
