AV-unprocessed.smi:1812|AV-procd|sdf|7338|dock8
  -GOLD-   22720 9 03D 1   1.00000     0.00000
 Structure written by MMmdl.
 33 35  0  0  0  0  0  0  0  0  2 V2000
  148.3580  139.3284  158.2682 O   0  0  0  0  0  0  0  0  0  0  0  0
  149.3957  138.7479  158.5952 C   0  0  0  0  0  0  0  0  0  0  0  0
  149.3324  137.5314  159.1516 N   0  0  0  0  0  0  0  0  0  0  0  0
  148.1057  136.7922  159.4202 C   0  0  0  0  0  0  0  0  0  0  0  0
  148.2210  135.9950  160.7274 C   0  0  2  0  0  0  0  0  0  0  0  0
  147.0350  135.0755  161.0210 C   0  0  0  0  0  0  0  0  0  0  0  0
  147.1270  134.9362  162.5230 C   0  0  0  0  0  0  0  0  0  0  0  0
  147.5499  136.3416  162.9417 C   0  0  0  0  0  0  0  0  0  0  0  0
  148.2883  136.8763  161.8455 O   0  0  0  0  0  0  0  0  0  0  0  0
  150.6567  139.2166  158.4547 N   0  5  0  0  0  0  0  0  0  0  0  0
  150.9416  140.4881  158.7808 C   0  0  0  0  0  0  0  0  0  0  0  0
  150.0073  141.4489  158.8154 N   0  0  0  0  0  0  0  0  0  0  0  0
  150.5167  142.6912  159.1646 N   0  0  0  0  0  0  0  0  0  0  0  0
  151.8337  142.6531  159.3812 C   0  0  0  0  0  0  0  0  0  0  0  0
  152.6158  143.8651  159.7639 C   0  0  0  0  0  0  0  0  0  0  0  0
  152.2848  144.6301  161.0247 C   0  0  0  0  0  0  0  0  0  0  0  0
  152.0218  145.2541  159.6777 C   0  0  0  0  0  0  0  0  0  0  0  0
  152.5601  141.0674  159.1730 S   0  0  0  0  0  0  0  0  0  0  0  0
  150.2028  137.0879  159.4060 H   0  0  0  0  0  0  0  0  0  0  0  0
  147.2703  137.4906  159.4874 H   0  0  0  0  0  0  0  0  0  0  0  0
  147.8964  136.1202  158.5865 H   0  0  0  0  0  0  0  0  0  0  0  0
  149.1387  135.4042  160.7224 H   0  0  0  0  0  0  0  0  0  0  0  0
  146.0955  135.5581  160.7473 H   0  0  0  0  0  0  0  0  0  0  0  0
  147.0952  134.1205  160.4981 H   0  0  0  0  0  0  0  0  0  0  0  0
  146.1923  134.6161  162.9841 H   0  0  0  0  0  0  0  0  0  0  0  0
  147.9033  134.2156  162.7844 H   0  0  0  0  0  0  0  0  0  0  0  0
  146.6738  136.9700  163.1057 H   0  0  0  0  0  0  0  0  0  0  0  0
  148.1415  136.3402  163.8574 H   0  0  0  0  0  0  0  0  0  0  0  0
  153.6648  143.7440  159.5009 H   0  0  0  0  0  0  0  0  0  0  0  0
  151.4223  144.3030  161.6024 H   0  0  0  0  0  0  0  0  0  0  0  0
  153.1164  145.0208  161.6075 H   0  0  0  0  0  0  0  0  0  0  0  0
  152.6793  146.0605  159.3599 H   0  0  0  0  0  0  0  0  0  0  0  0
  150.9826  145.3526  159.3700 H   0  0  0  0  0  0  0  0  0  0  0  0
  1  2  2  0  0  0  0
  2  3  1  0  0  0  0
  2 10  1  0  0  0  0
  3  4  1  0  0  0  0
  3 19  1  0  0  0  0
  4  5  1  0  0  0  0
  4 20  1  0  0  0  0
  4 21  1  0  0  0  0
  5  9  1  0  0  0  0
  5  6  1  0  0  0  0
  5 22  1  0  0  0  0
  6  7  1  0  0  0  0
  6 23  1  0  0  0  0
  6 24  1  0  0  0  0
  7  8  1  0  0  0  0
  7 25  1  0  0  0  0
  7 26  1  0  0  0  0
  8  9  1  0  0  0  0
  8 27  1  0  0  0  0
  8 28  1  0  0  0  0
 10 11  1  0  0  0  0
 11 18  1  0  0  0  0
 11 12  2  0  0  0  0
 12 13  1  0  0  0  0
 13 14  2  0  0  0  0
 14 15  1  0  0  0  0
 14 18  1  0  0  0  0
 15 17  1  0  0  0  0
 15 16  1  0  0  0  0
 15 29  1  0  0  0  0
 16 17  1  0  0  0  0
 16 30  1  0  0  0  0
 16 31  1  0  0  0  0
 17 32  1  0  0  0  0
 17 33  1  0  0  0  0
M  CHG  1  10  -1
M  END
> <s_m_source_file>
AV-unprocessed.smi

> <i_m_source_file_index>
1812

> <i_lp_mmshare_version>
43012

> <i_f3d_flags>
0

> <s_epik_input>
TzFbQ0gyXVtDSDJdW0NIMl1bQ0BIXTFbQ0gyXVtOSF1DKD1PKVtOSF1jMm5uYyhzMilbQ0hdM1tDSDJdW0NIMl0z

> <s_epik_cmdline>
J2VwaWtfcHl0aG9uJywgJy1waCcsICc3LjAnLCAnLXRuJywgJzgnLCAnLW1hJywgJzIwMCcsICctbWV0YWxfYmluZGluZycsICctaW1hZScsICc8aW5maWxlLm1hZT4nLCAnLW9tYWUnLCAnPG91dGZpbGUubWFlPic=

> <r_lp_tautomer_probability>
1

> <r_epik_Ionization_Penalty>
4.72991

> <r_epik_Ionization_Penalty_Charging>
4.58249

> <r_epik_Ionization_Penalty_Neutral>
0.147417

> <r_epik_State_Penalty>
4.58223

> <r_epik_Charging_Adjusted_Penalty>
9.16473

> <i_epik_Tot_Q>
-1

> <i_epik_Tot_abs_Q>
1

> <r_epik_Metal_State_Penalty>
0.861876

> <b_epik_Metal_Only>
1

> <s_lp_Force_Field>
OPLS_2005

> <r_lp_Energy>
13.803

> <b_lp_Chiralities_Consistent>
1

> <s_lp_Variant>
AV-unprocessed.smi:1812-3

> <Gold.Version>
5.8.1

> <Gold.Id.Protein>
6NUR|6NUR_protein|mol2

> <Gold.PLP.Fitness>
39.2483

> <Gold.PLP.PLP>
-37.6898

> <Gold.PLP.part.hbond>
-1.8597

> <Gold.PLP.part.metal>
0.0000

> <Gold.PLP.part.buried>
-6.2713

> <Gold.PLP.part.nonpolar>
-30.0865

> <Gold.PLP.part.repulsive>
0.3001

> <Gold.PLP.ligand.clash>
0.0000

> <Gold.PLP.ligand.torsion>
0.7912

> <Gold.PLP.Chemscore.Hbond>
1.0000

> <Gold.PLP.Chemscore.CHOScore>
0.0000

> <Gold.PLP.Chemscore.Metal>
0.0000

> <Gold.Chemscore.Hbonds>
donor molecule, donor type, donor heavy atom, donor atom, acceptor molecule, acceptor atom, score
      P1  H  6931  6943       L1     9  1.00

> <Gold.PLP.Chemscore.Internal.Correction>
0.1409

> <Gold.Rescore>
     Score         DG    S(hbond)    S(metal)    S(lipo)     H(rot)  DE(clash)    DE(int)     intcor
     13.88     -16.25       0.98        0.00      95.78       1.45       0.01       2.36       ----

> <Gold.Chemscore.Fitness>
13.8812

> <Gold.Chemscore.DG>
-16.2515

> <Gold.Chemscore.ZeroCoef>
-5.4800

> <Gold.Chemscore.Hbond>
0.9774

> <Gold.Chemscore.Metal>
0.0000

> <Gold.Chemscore.Lipo>
95.7836

> <Gold.Chemscore.Internal_Hbond>
0.0000

> <Gold.Chemscore.DEClash>
0.0089

> <Gold.Chemscore.DEInternal>
2.3614

> <Gold.Chemscore.Rot>
1.4451

> <Gold.Chemscore.Internal.Correction>
   9.000000E+99

> <Gold.Chemscore.Hbonds>
donor molecule, donor type, donor heavy atom, donor atom, acceptor molecule, acceptor atom, score
      P1  H  6931  6943       L1     9  0.95

> <Gold.Chemscore.Hbond.Weighted>
-3.2644

> <Gold.Chemscore.Metal.Weighted>
-0.0000

> <Gold.Chemscore.Lipo.Weighted>
-11.2067

> <Gold.Chemscore.Internal_Hbond.Weighted>
0.0000

> <Gold.Chemscore.DEClash.Weighted>
0.0089

> <Gold.Chemscore.DEInternal.Weighted>
2.3614

> <Gold.Chemscore.Rot.Weighted>
3.6995

> <Gold.Chemscore.Internal.Correction.Weighted>
   9.000000E+99

> <Gold.Protein.RotatedTorsions>
[ 6907 6896 6895 6894 ] final  -90.61 input  -60.11 | X-H torsion
[ 7974 7965 7964 7962 ] final  -93.08 input  175.53 | X-H torsion
[ 8008 7997 7996 7995 ] final  -50.56 input   59.86 | X-H torsion
[ 10167 10162 10161 10158 ] final   35.23 input  -65.29 | X-H torsion
[ 10718 10713 10712 10709 ] final -121.47 input   66.30 | X-H torsion
[ 10763 10752 10751 10750 ] final  147.45 input  -60.55 | X-H torsion
[ 11005 11000 10999 10996 ] final -117.54 input  -57.11 | X-H torsion

> <Gold.Protein.ActiveResidues>
 VAL166  LYS551  ARG553  GLY616  TRP617  ASP618  TYR619  PRO620  LYS621  CYS622 
 ASP623  PHE694  ASN695  SER759  ASP760  ASP761  ALA762  ILE779  LEU786  VAL792 
 PHE793  MET794  SER795  GLU796  ALA797  LYS798  CYS799  TRP800  GLU811  SER814 

> <Gold.Protein.RotatedAtoms>
  150.6883  134.2405  159.4470 H   0  0  0  0  0  0  0  0  0  0  0  0  # atno 6907 bound_to 6896
  152.0349  134.9743  160.0582 H   0  0  0  0  0  0  0  0  0  0  0  0  # atno 6908 bound_to 6896
  152.1268  133.4350  159.4738 H   0  0  0  0  0  0  0  0  0  0  0  0  # atno 6909 bound_to 6896
  145.3913  140.9528  143.2339 H   0  0  0  0  0  0  0  0  0  0  0  0  # atno 7974 bound_to 7965
  154.4064  140.1269  156.4686 H   0  0  0  0  0  0  0  0  0  0  0  0  # atno 8008 bound_to 7997
  155.7202  140.3493  155.4993 H   0  0  0  0  0  0  0  0  0  0  0  0  # atno 8009 bound_to 7997
  155.9221  140.1054  157.1188 H   0  0  0  0  0  0  0  0  0  0  0  0  # atno 8010 bound_to 7997
  140.4241  144.1418  150.6151 H   0  0  0  0  0  0  0  0  0  0  0  0  # atno 10167 bound_to 10162
  156.1340  130.6416  150.9666 H   0  0  0  0  0  0  0  0  0  0  0  0  # atno 10718 bound_to 10713
  154.0385  135.2891  155.3358 H   0  0  0  0  0  0  0  0  0  0  0  0  # atno 10763 bound_to 10752
  154.6944  135.5213  153.8440 H   0  0  0  0  0  0  0  0  0  0  0  0  # atno 10764 bound_to 10752
  153.0610  135.6613  154.0591 H   0  0  0  0  0  0  0  0  0  0  0  0  # atno 10765 bound_to 10752
  141.0348  133.9926  157.3088 H   0  0  0  0  0  0  0  0  0  0  0  0  # atno 11005 bound_to 11000
  144.8438  139.5430  143.6888 LP  0  0  0  0  0  0  0  0  0  0  0  0  # atno 17320 bound_to 7965
  146.2796  139.6842  142.9238 LP  0  0  0  0  0  0  0  0  0  0  0  0  # atno 17321 bound_to 7965
  140.4501  143.2490  151.9359 LP  0  0  0  0  0  0  0  0  0  0  0  0  # atno 17342 bound_to 10162
  139.4783  144.5570  151.8298 LP  0  0  0  0  0  0  0  0  0  0  0  0  # atno 17343 bound_to 10162
  157.6515  131.0896  150.8041 LP  0  0  0  0  0  0  0  0  0  0  0  0  # atno 17370 bound_to 10713
  156.8123  130.4956  149.5354 LP  0  0  0  0  0  0  0  0  0  0  0  0  # atno 17371 bound_to 10713
  139.9233  135.0201  156.8143 LP  0  0  0  0  0  0  0  0  0  0  0  0  # atno 17394 bound_to 11000
  140.6342  133.9877  155.7676 LP  0  0  0  0  0  0  0  0  0  0  0  0  # atno 17395 bound_to 11000

$$$$
