AV-unprocessed.smi:367|AV-procd|sdf|2433|dock5
  -GOLD-   2262022373D 1   1.00000     0.00000
 Structure written by MMmdl.
 21 21  0  0  0  0  0  0  0  0  3 V2000
  151.4868  143.9929  158.3769 C   0  0  0  0  0  0  0  0  0  0  0  0
  151.5742  142.5640  157.8848 C   0  0  0  0  0  0  0  0  0  0  0  0
  152.2005  141.6982  158.5864 N   0  0  0  0  0  0  0  0  0  0  0  0
  152.2892  140.3718  158.1299 C   0  0  0  0  0  0  0  0  0  0  0  0
  153.0661  139.4160  159.0184 C   0  0  0  0  0  0  0  0  0  0  0  0
  151.7130  139.9885  156.9544 C   0  0  0  0  0  0  0  0  0  0  0  0
  151.8020  138.5618  156.4042 C   0  0  0  0  0  0  0  0  0  0  0  0
  152.4100  138.4406  155.0015 C   0  0  0  0  0  0  0  0  0  0  0  0
  152.0171  137.4778  154.3068 O   0  0  0  0  0  0  0  0  0  0  0  0
  153.2507  139.2933  154.6383 O   0  5  0  0  0  0  0  0  0  0  0  0
  150.9921  141.0161  156.1806 C   0  0  0  0  0  0  0  0  0  0  0  0
  150.4428  140.7246  155.1187 O   0  0  0  0  0  0  0  0  0  0  0  0
  150.9621  142.2840  156.6841 N   0  5  0  0  0  0  0  0  0  0  0  0
  151.9363  144.0971  159.3653 H   0  0  0  0  0  0  0  0  0  0  0  0
  150.4453  144.3092  158.4406 H   0  0  0  0  0  0  0  0  0  0  0  0
  152.0099  144.6597  157.6909 H   0  0  0  0  0  0  0  0  0  0  0  0
  153.9552  139.0529  158.5026 H   0  0  0  0  0  0  0  0  0  0  0  0
  152.4496  138.5602  159.2931 H   0  0  0  0  0  0  0  0  0  0  0  0
  153.3871  139.9045  159.9390 H   0  0  0  0  0  0  0  0  0  0  0  0
  152.3619  137.9164  157.0813 H   0  0  0  0  0  0  0  0  0  0  0  0
  150.7987  138.1369  156.3767 H   0  0  0  0  0  0  0  0  0  0  0  0
  1  2  1  0  0  0  0
  1 14  1  0  0  0  0
  1 15  1  0  0  0  0
  1 16  1  0  0  0  0
  2 13  1  0  0  0  0
  2  3  2  0  0  0  0
  3  4  1  0  0  0  0
  4  5  1  0  0  0  0
  4  6  2  0  0  0  0
  5 17  1  0  0  0  0
  5 18  1  0  0  0  0
  5 19  1  0  0  0  0
  6  7  1  0  0  0  0
  6 11  1  0  0  0  0
  7  8  1  0  0  0  0
  7 20  1  0  0  0  0
  7 21  1  0  0  0  0
  8  9  2  0  0  0  0
  8 10  1  0  0  0  0
 11 12  2  0  0  0  0
 11 13  1  0  0  0  0
M  CHG  1  10  -1
M  CHG  1  13  -1
M  END
> <s_m_source_file>
AV-unprocessed.smi

> <i_m_source_file_index>
367

> <i_lp_mmshare_version>
43012

> <i_f3d_flags>
0

> <s_epik_input>
W0NIM11jMW5jKFtDSDNdKWMoYyg9TylbbkhdMSlbQ0gyXUMoPU8pW09IXQ==

> <s_epik_cmdline>
J2VwaWtfcHl0aG9uJywgJy1waCcsICc3LjAnLCAnLXRuJywgJzgnLCAnLW1hJywgJzIwMCcsICctbWV0YWxfYmluZGluZycsICctaW1hZScsICc8aW5maWxlLm1hZT4nLCAnLW9tYWUnLCAnPG91dGZpbGUubWFlPic=

> <r_lp_tautomer_probability>
0.839158

> <r_epik_Ionization_Penalty>
8.1762

> <r_epik_Ionization_Penalty_Charging>
0.00175347

> <r_epik_Ionization_Penalty_Neutral>
8.17445

> <r_epik_State_Penalty>
5.46366

> <r_epik_Charging_Adjusted_Penalty>
5.46542

> <i_epik_Tot_Q>
-2

> <i_epik_Tot_abs_Q>
2

> <r_epik_Metal_State_Penalty>
1.48615

> <b_epik_Metal_Only>
1

> <s_lp_Force_Field>
OPLS_2005

> <r_lp_Energy>
12.8552

> <b_lp_Chiralities_Consistent>
1

> <s_lp_Variant>
AV-unprocessed.smi:367-3

> <Gold.Version>
5.8.1

> <Gold.Id.Protein>
6NUR|6NUR_protein|mol2

> <Gold.PLP.Fitness>
36.0503

> <Gold.PLP.PLP>
-22.9001

> <Gold.PLP.part.hbond>
-3.6958

> <Gold.PLP.part.metal>
0.0000

> <Gold.PLP.part.buried>
-5.0606

> <Gold.PLP.part.nonpolar>
-15.5914

> <Gold.PLP.part.repulsive>
0.3407

> <Gold.PLP.ligand.clash>
0.0000

> <Gold.PLP.ligand.torsion>
0.3853

> <Gold.PLP.Chemscore.Hbond>
4.6400

> <Gold.PLP.Chemscore.CHOScore>
0.0000

> <Gold.PLP.Chemscore.Metal>
0.0000

> <Gold.Chemscore.Hbonds>
donor molecule, donor type, donor heavy atom, donor atom, acceptor molecule, acceptor atom, score
      P1  H  7989  7998       L1    12  0.88
      P1  H  7997  8009       L1    10  2.00
      P1  H 10752 10764       L1     9  1.76

> <Gold.PLP.Chemscore.Internal.Correction>
0.0007

> <Gold.Rescore>
     Score         DG    S(hbond)    S(metal)    S(lipo)     H(rot)  DE(clash)    DE(int)     intcor
     14.03     -14.41       2.63        0.00      34.62       1.53       0.00       0.38       ----

> <Gold.Chemscore.Fitness>
14.0278

> <Gold.Chemscore.DG>
-14.4082

> <Gold.Chemscore.ZeroCoef>
-5.4800

> <Gold.Chemscore.Hbond>
2.6312

> <Gold.Chemscore.Metal>
0.0000

> <Gold.Chemscore.Lipo>
34.6236

> <Gold.Chemscore.Internal_Hbond>
0.0000

> <Gold.Chemscore.DEClash>
0.0000

> <Gold.Chemscore.DEInternal>
0.3803

> <Gold.Chemscore.Rot>
1.5278

> <Gold.Chemscore.Internal.Correction>
   9.000000E+99

> <Gold.Chemscore.Hbonds>
donor molecule, donor type, donor heavy atom, donor atom, acceptor molecule, acceptor atom, score
      P1  H  7989  7998       L1    12  0.73
      P1  H  7997  8009       L1    10  0.99
      P1  H 10752 10764       L1     9  0.80

> <Gold.Chemscore.Hbond.Weighted>
-8.7884

> <Gold.Chemscore.Metal.Weighted>
-0.0000

> <Gold.Chemscore.Lipo.Weighted>
-4.0510

> <Gold.Chemscore.Internal_Hbond.Weighted>
0.0000

> <Gold.Chemscore.DEClash.Weighted>
0.0000

> <Gold.Chemscore.DEInternal.Weighted>
0.3803

> <Gold.Chemscore.Rot.Weighted>
3.9111

> <Gold.Chemscore.Internal.Correction.Weighted>
   9.000000E+99

> <Gold.Protein.RotatedTorsions>
[ 6907 6896 6895 6894 ] final  120.81 input  -60.11 | X-H torsion
[ 7974 7965 7964 7962 ] final  129.58 input  175.53 | X-H torsion
[ 8008 7997 7996 7995 ] final -118.35 input   59.86 | X-H torsion
[ 10167 10162 10161 10158 ] final  -30.55 input  -65.29 | X-H torsion
[ 10718 10713 10712 10709 ] final -133.90 input   66.30 | X-H torsion
[ 10763 10752 10751 10750 ] final  -83.28 input  -60.55 | X-H torsion
[ 11005 11000 10999 10996 ] final  -28.02 input  -57.11 | X-H torsion

> <Gold.Protein.ActiveResidues>
 VAL166  LYS551  ARG553  GLY616  TRP617  ASP618  TYR619  PRO620  LYS621  CYS622 
 ASP623  PHE694  ASN695  SER759  ASP760  ASP761  ALA762  ILE779  LEU786  VAL792 
 PHE793  MET794  SER795  GLU796  ALA797  LYS798  CYS799  TRP800  GLU811  SER814 

> <Gold.Protein.RotatedAtoms>
  152.4370  133.7378  159.6623 H   0  0  0  0  0  0  0  0  0  0  0  0  # atno 6907 bound_to 6896
  150.8255  133.8169  159.3127 H   0  0  0  0  0  0  0  0  0  0  0  0  # atno 6908 bound_to 6896
  151.5839  135.1059  160.0075 H   0  0  0  0  0  0  0  0  0  0  0  0  # atno 6909 bound_to 6896
  145.0271  139.4079  143.5168 H   0  0  0  0  0  0  0  0  0  0  0  0  # atno 7974 bound_to 7965
  155.0983  140.0396  157.2689 H   0  0  0  0  0  0  0  0  0  0  0  0  # atno 8008 bound_to 7997
  154.6778  140.2626  155.6915 H   0  0  0  0  0  0  0  0  0  0  0  0  # atno 8009 bound_to 7997
  156.2683  140.2784  156.1311 H   0  0  0  0  0  0  0  0  0  0  0  0  # atno 8010 bound_to 7997
  140.7248  143.3840  151.1549 H   0  0  0  0  0  0  0  0  0  0  0  0  # atno 10167 bound_to 10162
  156.2498  130.7146  151.1041 H   0  0  0  0  0  0  0  0  0  0  0  0  # atno 10718 bound_to 10713
  154.5859  135.5561  153.7230 H   0  0  0  0  0  0  0  0  0  0  0  0  # atno 10763 bound_to 10752
  153.0098  135.6331  154.1917 H   0  0  0  0  0  0  0  0  0  0  0  0  # atno 10764 bound_to 10752
  154.1858  135.2885  155.3017 H   0  0  0  0  0  0  0  0  0  0  0  0  # atno 10765 bound_to 10752
  140.9171  133.7423  156.0750 H   0  0  0  0  0  0  0  0  0  0  0  0  # atno 11005 bound_to 11000
  146.3493  139.9801  142.8696 LP  0  0  0  0  0  0  0  0  0  0  0  0  # atno 17320 bound_to 7965
  145.1819  140.9771  143.4261 LP  0  0  0  0  0  0  0  0  0  0  0  0  # atno 17321 bound_to 7965
  139.7434  143.8890  152.3056 LP  0  0  0  0  0  0  0  0  0  0  0  0  # atno 17342 bound_to 10162
  139.8719  144.7064  150.8978 LP  0  0  0  0  0  0  0  0  0  0  0  0  # atno 17343 bound_to 10162
  157.7210  131.0681  150.6136 LP  0  0  0  0  0  0  0  0  0  0  0  0  # atno 17370 bound_to 10713
  156.6215  130.4407  149.5820 LP  0  0  0  0  0  0  0  0  0  0  0  0  # atno 17371 bound_to 10713
  140.8035  134.3481  157.5432 LP  0  0  0  0  0  0  0  0  0  0  0  0  # atno 17394 bound_to 11000
  139.8768  134.9212  156.3269 LP  0  0  0  0  0  0  0  0  0  0  0  0  # atno 17395 bound_to 11000

$$$$
