AV-unprocessed.smi:3275|AV-procd|sdf|12532|dock2
  -GOLD-   2272018443D 1   1.00000     0.00000
 Structure written by MMmdl.
 34 35  0  0  0  0  0  0  0  0  1 V2000
  151.9292  137.0505  154.0665 O   0  0  0  0  0  0  0  0  0  0  0  0
  151.7603  138.3575  154.5708 C   0  0  0  0  0  0  0  0  0  0  0  0
  150.4636  138.4393  155.3824 C   0  0  0  0  0  0  0  0  0  0  0  0
  150.4159  139.7092  156.0216 O   0  0  0  0  0  0  0  0  0  0  0  0
  151.4870  140.0420  156.9046 C   0  0  2  0  0  0  0  0  0  0  0  0
  151.9834  138.8446  157.7410 C   0  0  0  0  0  0  0  0  0  0  0  0
  153.1889  139.2713  158.5951 C   0  0  0  0  0  0  0  0  0  0  0  0
  152.8496  140.5037  159.4529 C   0  0  0  0  0  0  0  0  0  0  0  0
  152.3417  141.5923  158.6224 N   0  0  0  0  0  0  0  0  0  0  0  0
  152.2160  142.8015  159.3228 C   0  0  0  0  0  0  0  0  0  0  0  0
  152.2909  142.8475  160.7336 C   0  0  0  0  0  0  0  0  0  0  0  0
  152.1604  144.0936  161.3779 C   0  0  0  0  0  0  0  0  0  0  0  0
  151.9680  145.2542  160.7166 N   0  0  0  0  0  0  0  0  0  0  0  0
  151.9003  145.2076  159.3690 C   0  0  0  0  0  0  0  0  0  0  0  0
  152.0190  144.0156  158.6257 C   0  0  0  0  0  0  0  0  0  0  0  0
  151.9180  144.0630  156.9003 Cl  0  0  0  0  0  0  0  0  0  0  0  0
  151.1768  141.2531  157.8091 C   0  0  0  0  0  0  0  0  0  0  0  0
  151.6760  137.0449  153.1561 H   0  0  0  0  0  0  0  0  0  0  0  0
  152.6186  138.6146  155.1924 H   0  0  0  0  0  0  0  0  0  0  0  0
  151.7362  139.0607  153.7378 H   0  0  0  0  0  0  0  0  0  0  0  0
  149.6115  138.3075  154.7157 H   0  0  0  0  0  0  0  0  0  0  0  0
  150.4436  137.6329  156.1153 H   0  0  0  0  0  0  0  0  0  0  0  0
  152.3053  140.3342  156.2447 H   0  0  0  0  0  0  0  0  0  0  0  0
  151.1976  138.4819  158.4032 H   0  0  0  0  0  0  0  0  0  0  0  0
  152.2581  138.0147  157.0895 H   0  0  0  0  0  0  0  0  0  0  0  0
  153.5067  138.4469  159.2337 H   0  0  0  0  0  0  0  0  0  0  0  0
  154.0335  139.5024  157.9447 H   0  0  0  0  0  0  0  0  0  0  0  0
  152.1013  140.2399  160.2019 H   0  0  0  0  0  0  0  0  0  0  0  0
  153.7385  140.8350  159.9914 H   0  0  0  0  0  0  0  0  0  0  0  0
  152.4489  141.9511  161.3150 H   0  0  0  0  0  0  0  0  0  0  0  0
  152.2138  144.1595  162.4544 H   0  0  0  0  0  0  0  0  0  0  0  0
  151.7458  146.1517  158.8679 H   0  0  0  0  0  0  0  0  0  0  0  0
  150.8928  142.1109  157.1981 H   0  0  0  0  0  0  0  0  0  0  0  0
  150.3390  141.0320  158.4699 H   0  0  0  0  0  0  0  0  0  0  0  0
  1  2  1  0  0  0  0
  1 18  1  0  0  0  0
  2  3  1  0  0  0  0
  2 19  1  0  0  0  0
  2 20  1  0  0  0  0
  3  4  1  0  0  0  0
  3 21  1  0  0  0  0
  3 22  1  0  0  0  0
  4  5  1  0  0  0  0
  5 17  1  0  0  0  0
  5  6  1  0  0  0  0
  5 23  1  0  0  0  0
  6  7  1  0  0  0  0
  6 24  1  0  0  0  0
  6 25  1  0  0  0  0
  7  8  1  0  0  0  0
  7 26  1  0  0  0  0
  7 27  1  0  0  0  0
  8  9  1  0  0  0  0
  8 28  1  0  0  0  0
  8 29  1  0  0  0  0
  9 10  1  0  0  0  0
  9 17  1  0  0  0  0
 10 15  1  0  0  0  0
 10 11  2  0  0  0  0
 11 12  1  0  0  0  0
 11 30  1  0  0  0  0
 12 13  2  0  0  0  0
 12 31  1  0  0  0  0
 13 14  1  0  0  0  0
 14 15  2  0  0  0  0
 14 32  1  0  0  0  0
 15 16  1  0  0  0  0
 17 33  1  0  0  0  0
 17 34  1  0  0  0  0
M  END
> <s_m_source_file>
AV-unprocessed.smi

> <i_m_source_file_index>
3275

> <i_lp_mmshare_version>
43012

> <i_f3d_flags>
0

> <s_epik_input>
W09IXVtDSDJdW0NIMl1PW0NAQEhdMVtDSDJdW0NIMl1bQ0gyXU4oW0NIMl0xKWMyW2NIXVtjSF1uW2NIXWMyQ2w=

> <s_epik_cmdline>
J2VwaWtfcHl0aG9uJywgJy1waCcsICc3LjAnLCAnLXRuJywgJzgnLCAnLW1hJywgJzIwMCcsICctbWV0YWxfYmluZGluZycsICctaW1hZScsICc8aW5maWxlLm1hZT4nLCAnLW9tYWUnLCAnPG91dGZpbGUubWFlPic=

> <r_lp_tautomer_probability>
1

> <r_epik_Ionization_Penalty>
1.24095

> <r_epik_Ionization_Penalty_Charging>
0

> <r_epik_Ionization_Penalty_Neutral>
1.24095

> <r_epik_State_Penalty>
1.30987

> <r_epik_Charging_Adjusted_Penalty>
1.30987

> <i_epik_Tot_Q>
0

> <i_epik_Tot_abs_Q>
0

> <r_epik_Metal_State_Penalty>
0.00479332

> <b_epik_Metal_Only>
0

> <s_lp_Force_Field>
OPLS_2005

> <r_lp_Energy>
21.9158

> <b_lp_Chiralities_Consistent>
1

> <s_lp_Variant>
AV-unprocessed.smi:3275-3

> <Gold.Version>
5.8.1

> <Gold.Id.Protein>
6NUR|6NUR_protein|mol2

> <Gold.PLP.Fitness>
41.7802

> <Gold.PLP.PLP>
-37.0546

> <Gold.PLP.part.hbond>
-2.0000

> <Gold.PLP.part.metal>
0.0000

> <Gold.PLP.part.buried>
-4.6908

> <Gold.PLP.part.nonpolar>
-30.6891

> <Gold.PLP.part.repulsive>
0.2085

> <Gold.PLP.ligand.clash>
0.7747

> <Gold.PLP.ligand.torsion>
0.3378

> <Gold.PLP.Chemscore.Hbond>
1.9913

> <Gold.PLP.Chemscore.CHOScore>
0.0000

> <Gold.PLP.Chemscore.Metal>
0.0000

> <Gold.Chemscore.Hbonds>
donor molecule, donor type, donor heavy atom, donor atom, acceptor molecule, acceptor atom, score
      L1  H     1    18       P1  7949  0.97
      P1  H 10752 10764       L1     1  1.00

> <Gold.PLP.Chemscore.Internal.Correction>
0.2022

> <Gold.Rescore>
     Score         DG    S(hbond)    S(metal)    S(lipo)     H(rot)  DE(clash)    DE(int)     intcor
     18.16     -19.09       1.81        0.00     109.58       2.06       0.56       0.37       ----

> <Gold.Chemscore.Fitness>
18.1581

> <Gold.Chemscore.DG>
-19.0851

> <Gold.Chemscore.ZeroCoef>
-5.4800

> <Gold.Chemscore.Hbond>
1.8116

> <Gold.Chemscore.Metal>
0.0000

> <Gold.Chemscore.Lipo>
109.5752

> <Gold.Chemscore.Internal_Hbond>
0.0000

> <Gold.Chemscore.DEClash>
0.5603

> <Gold.Chemscore.DEInternal>
0.3666

> <Gold.Chemscore.Rot>
2.0570

> <Gold.Chemscore.Internal.Correction>
   9.000000E+99

> <Gold.Chemscore.Hbonds>
donor molecule, donor type, donor heavy atom, donor atom, acceptor molecule, acceptor atom, score
      L1  H     1    18       P1  7949  0.84
      P1  H 10752 10764       L1     1  0.62

> <Gold.Chemscore.Hbond.Weighted>
-6.0508

> <Gold.Chemscore.Metal.Weighted>
-0.0000

> <Gold.Chemscore.Lipo.Weighted>
-12.8203

> <Gold.Chemscore.Internal_Hbond.Weighted>
0.0000

> <Gold.Chemscore.DEClash.Weighted>
0.5603

> <Gold.Chemscore.DEInternal.Weighted>
0.3666

> <Gold.Chemscore.Rot.Weighted>
5.2660

> <Gold.Chemscore.Internal.Correction.Weighted>
   9.000000E+99

> <Gold.Protein.RotatedTorsions>
[ 6907 6896 6895 6894 ] final   81.68 input  -60.11 | X-H torsion
[ 7974 7965 7964 7962 ] final  140.07 input  175.53 | X-H torsion
[ 8008 7997 7996 7995 ] final   63.99 input   59.86 | X-H torsion
[ 10167 10162 10161 10158 ] final -100.61 input  -65.29 | X-H torsion
[ 10718 10713 10712 10709 ] final   52.65 input   66.30 | X-H torsion
[ 10763 10752 10751 10750 ] final  -73.50 input  -60.55 | X-H torsion
[ 11005 11000 10999 10996 ] final  -84.75 input  -57.11 | X-H torsion

> <Gold.Protein.ActiveResidues>
 VAL166  LYS551  ARG553  GLY616  TRP617  ASP618  TYR619  PRO620  LYS621  CYS622 
 ASP623  PHE694  ASN695  SER759  ASP760  ASP761  ALA762  ILE779  LEU786  VAL792 
 PHE793  MET794  SER795  GLU796  ALA797  LYS798  CYS799  TRP800  GLU811  SER814 

> <Gold.Protein.RotatedAtoms>
  152.5276  134.3166  159.9132 H   0  0  0  0  0  0  0  0  0  0  0  0  # atno 6907 bound_to 6896
  151.3116  133.4072  159.2655 H   0  0  0  0  0  0  0  0  0  0  0  0  # atno 6908 bound_to 6896
  151.0034  134.9357  159.8024 H   0  0  0  0  0  0  0  0  0  0  0  0  # atno 6909 bound_to 6896
  144.9220  139.5156  143.5659 H   0  0  0  0  0  0  0  0  0  0  0  0  # atno 7974 bound_to 7965
  155.6389  140.3496  155.4708 H   0  0  0  0  0  0  0  0  0  0  0  0  # atno 8008 bound_to 7997
  155.9942  140.1200  157.0633 H   0  0  0  0  0  0  0  0  0  0  0  0  # atno 8009 bound_to 7997
  154.4228  140.1113  156.5594 H   0  0  0  0  0  0  0  0  0  0  0  0  # atno 8010 bound_to 7997
  140.2501  143.3478  152.0722 H   0  0  0  0  0  0  0  0  0  0  0  0  # atno 10167 bound_to 10162
  157.5094  130.8490  149.8416 H   0  0  0  0  0  0  0  0  0  0  0  0  # atno 10718 bound_to 10713
  154.4603  135.5895  153.6251 H   0  0  0  0  0  0  0  0  0  0  0  0  # atno 10763 bound_to 10752
  152.9822  135.6042  154.3494 H   0  0  0  0  0  0  0  0  0  0  0  0  # atno 10764 bound_to 10752
  154.3365  135.2842  155.2424 H   0  0  0  0  0  0  0  0  0  0  0  0  # atno 10765 bound_to 10752
  141.1648  133.7363  156.8914 H   0  0  0  0  0  0  0  0  0  0  0  0  # atno 11005 bound_to 11000
  146.3209  139.8106  142.8946 LP  0  0  0  0  0  0  0  0  0  0  0  0  # atno 17320 bound_to 7965
  145.3281  141.0260  143.3462 LP  0  0  0  0  0  0  0  0  0  0  0  0  # atno 17321 bound_to 7965
  139.5049  144.6784  151.6070 LP  0  0  0  0  0  0  0  0  0  0  0  0  # atno 17342 bound_to 10162
  140.6047  143.9546  150.6410 LP  0  0  0  0  0  0  0  0  0  0  0  0  # atno 17343 bound_to 10162
  156.0279  130.3773  150.1770 LP  0  0  0  0  0  0  0  0  0  0  0  0  # atno 17370 bound_to 10713
  156.9960  130.9908  151.3403 LP  0  0  0  0  0  0  0  0  0  0  0  0  # atno 17371 bound_to 10713
  140.1646  134.9142  157.2757 LP  0  0  0  0  0  0  0  0  0  0  0  0  # atno 17394 bound_to 11000
  140.2572  134.3613  155.7420 LP  0  0  0  0  0  0  0  0  0  0  0  0  # atno 17395 bound_to 11000

$$$$
