AV-unprocessed.smi:1386|AV-procd|sdf|5639|dock7
  -GOLD-   22720 5253D 1   1.00000     0.00000
 Structure written by MMmdl.
 35 36  0  0  0  0  0  0  0  0  1 V2000
  150.0370  139.9638  157.9121 C   0  0  0  0  0  0  0  0  0  0  0  0
  151.4652  140.0413  157.3567 C   0  0  1  0  0  0  0  0  0  0  0  0
  151.4745  140.4682  155.8745 C   0  0  0  0  0  0  0  0  0  0  0  0
  150.3206  139.9741  155.1440 N   0  0  0  0  0  0  0  0  0  0  0  0
  150.0558  138.6609  154.7780 C   0  0  0  0  0  0  0  0  0  0  0  0
  148.8621  138.6772  154.0926 C   0  0  0  0  0  0  0  0  0  0  0  0
  148.3719  139.9796  154.0348 N   0  0  0  0  0  0  0  0  0  0  0  0
  149.2853  140.6896  154.6836 C   0  0  0  0  0  0  0  0  0  0  0  0
  152.2445  140.9819  158.1613 N   0  0  0  0  0  0  0  0  0  0  0  0
  151.9346  142.2704  158.3916 C   0  0  0  0  0  0  0  0  0  0  0  0
  150.9784  142.8256  157.8485 O   0  0  0  0  0  0  0  0  0  0  0  0
  152.7607  142.9038  159.2619 N   0  0  0  0  0  0  0  0  0  0  0  0
  153.8895  142.2886  159.9793 C   0  0  0  0  0  0  0  0  0  0  0  0
  153.4072  141.8174  161.3616 C   0  0  0  0  0  0  0  0  0  0  0  0
  152.8417  143.2235  162.3698 S   0  0  0  0  0  0  0  0  0  0  0  0
  151.7296  144.0315  161.1760 C   0  0  0  0  0  0  0  0  0  0  0  0
  152.4236  144.2203  159.8159 C   0  0  0  0  0  0  0  0  0  0  0  0
  149.4354  139.2513  157.3472 H   0  0  0  0  0  0  0  0  0  0  0  0
  149.5378  140.9323  157.8645 H   0  0  0  0  0  0  0  0  0  0  0  0
  150.0382  139.6398  158.9533 H   0  0  0  0  0  0  0  0  0  0  0  0
  151.8922  139.0395  157.4274 H   0  0  0  0  0  0  0  0  0  0  0  0
  151.4812  141.5559  155.7960 H   0  0  0  0  0  0  0  0  0  0  0  0
  152.3808  140.1130  155.3815 H   0  0  0  0  0  0  0  0  0  0  0  0
  150.7251  137.8481  155.0192 H   0  0  0  0  0  0  0  0  0  0  0  0
  148.3218  137.8580  153.6417 H   0  0  0  0  0  0  0  0  0  0  0  0
  149.2039  141.7584  154.8179 H   0  0  0  0  0  0  0  0  0  0  0  0
  153.0562  140.6081  158.6307 H   0  0  0  0  0  0  0  0  0  0  0  0
  154.3382  141.4569  159.4360 H   0  0  0  0  0  0  0  0  0  0  0  0
  154.6965  143.0136  160.0949 H   0  0  0  0  0  0  0  0  0  0  0  0
  152.5897  141.1041  161.2574 H   0  0  0  0  0  0  0  0  0  0  0  0
  154.2110  141.3074  161.8925 H   0  0  0  0  0  0  0  0  0  0  0  0
  150.8285  143.4271  161.0638 H   0  0  0  0  0  0  0  0  0  0  0  0
  151.4197  144.9944  161.5823 H   0  0  0  0  0  0  0  0  0  0  0  0
  153.3249  144.8236  159.9324 H   0  0  0  0  0  0  0  0  0  0  0  0
  151.7804  144.7903  159.1436 H   0  0  0  0  0  0  0  0  0  0  0  0
  1  2  1  0  0  0  0
  1 18  1  0  0  0  0
  1 19  1  0  0  0  0
  1 20  1  0  0  0  0
  2  3  1  0  0  0  0
  2  9  1  0  0  0  0
  2 21  1  0  0  0  0
  3  4  1  0  0  0  0
  3 22  1  0  0  0  0
  3 23  1  0  0  0  0
  4  8  1  0  0  0  0
  4  5  1  0  0  0  0
  5  6  2  0  0  0  0
  5 24  1  0  0  0  0
  6  7  1  0  0  0  0
  6 25  1  0  0  0  0
  7  8  2  0  0  0  0
  8 26  1  0  0  0  0
  9 10  1  0  0  0  0
  9 27  1  0  0  0  0
 10 11  2  0  0  0  0
 10 12  1  0  0  0  0
 12 17  1  0  0  0  0
 12 13  1  0  0  0  0
 13 14  1  0  0  0  0
 13 28  1  0  0  0  0
 13 29  1  0  0  0  0
 14 15  1  0  0  0  0
 14 30  1  0  0  0  0
 14 31  1  0  0  0  0
 15 16  1  0  0  0  0
 16 17  1  0  0  0  0
 16 32  1  0  0  0  0
 16 33  1  0  0  0  0
 17 34  1  0  0  0  0
 17 35  1  0  0  0  0
M  END
> <s_m_source_file>
AV-unprocessed.smi

> <i_m_source_file_index>
1386

> <i_lp_mmshare_version>
43012

> <i_f3d_flags>
0

> <s_epik_input>
W2NIXTFuW2NIXVtjSF1uMVtDSDJdW0NAQEhdKFtDSDNdKVtOSF1DKD1PKU4yW0NIMl1bQ0gyXVNbQ0gyXVtDSDJdMg==

> <s_epik_cmdline>
J2VwaWtfcHl0aG9uJywgJy1waCcsICc3LjAnLCAnLXRuJywgJzgnLCAnLW1hJywgJzIwMCcsICctbWV0YWxfYmluZGluZycsICctaW1hZScsICc8aW5maWxlLm1hZT4nLCAnLW9tYWUnLCAnPG91dGZpbGUubWFlPic=

> <r_lp_tautomer_probability>
1

> <r_epik_Ionization_Penalty>
0.622677

> <r_epik_Ionization_Penalty_Charging>
0.62263

> <r_epik_Ionization_Penalty_Neutral>
4.67019e-05

> <r_epik_State_Penalty>
0.63879

> <r_epik_Charging_Adjusted_Penalty>
1.26142

> <i_epik_Tot_Q>
0

> <i_epik_Tot_abs_Q>
0

> <r_epik_Metal_State_Penalty>
0.307117

> <b_epik_Metal_Only>
0

> <s_lp_Force_Field>
OPLS_2005

> <r_lp_Energy>
24.3831

> <b_lp_Chiralities_Consistent>
1

> <s_lp_Variant>
AV-unprocessed.smi:1386-4

> <Gold.Version>
5.8.1

> <Gold.Id.Protein>
6NUR|6NUR_protein|mol2

> <Gold.PLP.Fitness>
41.7428

> <Gold.PLP.PLP>
-39.6104

> <Gold.PLP.part.hbond>
0.0000

> <Gold.PLP.part.metal>
0.0000

> <Gold.PLP.part.buried>
-4.9806

> <Gold.PLP.part.nonpolar>
-35.6980

> <Gold.PLP.part.repulsive>
0.4381

> <Gold.PLP.ligand.clash>
0.0000

> <Gold.PLP.ligand.torsion>
0.4577

> <Gold.PLP.Chemscore.Hbond>
0.0000

> <Gold.PLP.Chemscore.CHOScore>
0.9927

> <Gold.PLP.Chemscore.Metal>
0.0000

> <Gold.Chemscore.Hbonds>
donor molecule, donor type, donor heavy atom, donor atom, acceptor molecule, acceptor atom, score
      L1  C     6    25       P1  7948  1.00

> <Gold.PLP.Chemscore.Internal.Correction>
0.0698

> <Gold.Rescore>
     Score         DG    S(hbond)    S(metal)    S(lipo)     H(rot)  DE(clash)    DE(int)     intcor
     10.08     -11.50       0.00        0.00      86.24       1.59       0.06       1.36       ----

> <Gold.Chemscore.Fitness>
10.0835

> <Gold.Chemscore.DG>
-11.4998

> <Gold.Chemscore.ZeroCoef>
-5.4800

> <Gold.Chemscore.Hbond>
0.0000

> <Gold.Chemscore.Metal>
0.0000

> <Gold.Chemscore.Lipo>
86.2430

> <Gold.Chemscore.Internal_Hbond>
0.0000

> <Gold.Chemscore.DEClash>
0.0589

> <Gold.Chemscore.DEInternal>
1.3575

> <Gold.Chemscore.Rot>
1.5901

> <Gold.Chemscore.Internal.Correction>
   9.000000E+99

> <Gold.Chemscore.Hbond.Weighted>
-0.0000

> <Gold.Chemscore.Metal.Weighted>
-0.0000

> <Gold.Chemscore.Lipo.Weighted>
-10.0904

> <Gold.Chemscore.Internal_Hbond.Weighted>
0.0000

> <Gold.Chemscore.DEClash.Weighted>
0.0589

> <Gold.Chemscore.DEInternal.Weighted>
1.3575

> <Gold.Chemscore.Rot.Weighted>
4.0706

> <Gold.Chemscore.Internal.Correction.Weighted>
   9.000000E+99

> <Gold.Protein.RotatedTorsions>
[ 6907 6896 6895 6894 ] final   90.12 input  -60.11 | X-H torsion
[ 7974 7965 7964 7962 ] final   60.47 input  175.53 | X-H torsion
[ 8008 7997 7996 7995 ] final -138.51 input   59.86 | X-H torsion
[ 10167 10162 10161 10158 ] final -130.51 input  -65.29 | X-H torsion
[ 10718 10713 10712 10709 ] final  157.43 input   66.30 | X-H torsion
[ 10763 10752 10751 10750 ] final -170.50 input  -60.55 | X-H torsion
[ 11005 11000 10999 10996 ] final  -52.78 input  -57.11 | X-H torsion

> <Gold.Protein.ActiveResidues>
 VAL166  LYS551  ARG553  GLY616  TRP617  ASP618  TYR619  PRO620  LYS621  CYS622 
 ASP623  PHE694  ASN695  SER759  ASP760  ASP761  ALA762  ILE779  LEU786  VAL792 
 PHE793  MET794  SER795  GLU796  ALA797  LYS798  CYS799  TRP800  GLU811  SER814 

> <Gold.Protein.RotatedAtoms>
  152.5442  134.1861  159.8654 H   0  0  0  0  0  0  0  0  0  0  0  0  # atno 6907 bound_to 6896
  151.1859  133.4689  159.2602 H   0  0  0  0  0  0  0  0  0  0  0  0  # atno 6908 bound_to 6896
  151.1131  135.0050  159.8559 H   0  0  0  0  0  0  0  0  0  0  0  0  # atno 6909 bound_to 6896
  145.8956  139.3543  143.0623 H   0  0  0  0  0  0  0  0  0  0  0  0  # atno 7974 bound_to 7965
  155.4295  140.0524  157.3019 H   0  0  0  0  0  0  0  0  0  0  0  0  # atno 8008 bound_to 7997
  154.4866  140.2103  155.9599 H   0  0  0  0  0  0  0  0  0  0  0  0  # atno 8009 bound_to 7997
  156.1284  140.3176  155.8316 H   0  0  0  0  0  0  0  0  0  0  0  0  # atno 8010 bound_to 7997
  139.9286  143.6298  152.2535 H   0  0  0  0  0  0  0  0  0  0  0  0  # atno 10167 bound_to 10162
  157.1916  131.0656  151.2076 H   0  0  0  0  0  0  0  0  0  0  0  0  # atno 10718 bound_to 10713
  154.6408  135.2898  155.0105 H   0  0  0  0  0  0  0  0  0  0  0  0  # atno 10763 bound_to 10752
  154.1233  135.6545  153.4911 H   0  0  0  0  0  0  0  0  0  0  0  0  # atno 10764 bound_to 10752
  153.0326  135.5293  154.7274 H   0  0  0  0  0  0  0  0  0  0  0  0  # atno 10765 bound_to 10752
  141.0942  133.6627  156.4075 H   0  0  0  0  0  0  0  0  0  0  0  0  # atno 11005 bound_to 11000
  145.8854  140.9337  143.0579 LP  0  0  0  0  0  0  0  0  0  0  0  0  # atno 17320 bound_to 7965
  144.6733  140.0835  143.7468 LP  0  0  0  0  0  0  0  0  0  0  0  0  # atno 17321 bound_to 7965
  139.6801  144.7656  151.1624 LP  0  0  0  0  0  0  0  0  0  0  0  0  # atno 17342 bound_to 10162
  140.7643  143.5737  150.8968 LP  0  0  0  0  0  0  0  0  0  0  0  0  # atno 17343 bound_to 10162
  157.3855  130.7254  149.6660 LP  0  0  0  0  0  0  0  0  0  0  0  0  # atno 17370 bound_to 10713
  155.9711  130.4161  150.4213 LP  0  0  0  0  0  0  0  0  0  0  0  0  # atno 17371 bound_to 10713
  140.5180  134.6331  157.5308 LP  0  0  0  0  0  0  0  0  0  0  0  0  # atno 17394 bound_to 11000
  139.9775  134.7192  155.9923 LP  0  0  0  0  0  0  0  0  0  0  0  0  # atno 17395 bound_to 11000

$$$$
