AV-unprocessed.smi:2325|AV-procd|sdf|9296|dock4
  -GOLD-   2272012513D 1   1.00000     0.00000
 Structure written by MMmdl.
 40 41  0  0  0  0  0  0  0  0  1 V2000
  140.3674  139.3751  153.3037 C   0  0  0  0  0  0  0  0  0  0  0  0
  139.6897  138.1852  153.7809 N   0  0  0  0  0  0  0  0  0  0  0  0
  138.4678  138.2631  154.3584 N   0  0  0  0  0  0  0  0  0  0  0  0
  138.2003  136.9904  154.6523 C   0  0  0  0  0  0  0  0  0  0  0  0
  139.1604  136.0818  154.3083 N   0  0  0  0  0  0  0  0  0  0  0  0
  140.0587  136.9010  153.7703 C   0  0  0  0  0  0  0  0  0  0  0  0
  141.3131  136.5239  153.2206 N   0  0  0  0  0  0  0  0  0  0  0  0
  141.7791  135.2817  153.0096 C   0  0  0  0  0  0  0  0  0  0  0  0
  141.1644  134.2423  153.2490 O   0  0  0  0  0  0  0  0  0  0  0  0
  143.0185  135.3102  152.5006 N   0  0  0  0  0  0  0  0  0  0  0  0
  143.8256  134.1338  152.1828 C   0  0  1  0  0  0  0  0  0  0  0  0
  143.2051  133.3209  151.0641 C   0  0  0  0  0  0  0  0  0  0  0  0
  144.4003  132.5542  150.4864 C   0  0  0  0  0  0  0  0  0  0  0  0
  144.6119  131.2022  151.1892 C   0  0  0  0  0  0  0  0  0  0  0  0
  144.2942  132.3721  148.9646 C   0  0  0  0  0  0  0  0  0  0  0  0
  145.5413  133.3633  150.7670 O   0  0  0  0  0  0  0  0  0  0  0  0
  145.2240  134.4656  151.6161 C   0  0  0  0  0  0  0  0  0  0  0  0
  145.2676  135.7272  150.7285 C   0  0  0  0  0  0  0  0  0  0  0  0
  146.2984  134.5354  152.7128 C   0  0  0  0  0  0  0  0  0  0  0  0
  140.6203  139.2561  152.2498 H   0  0  0  0  0  0  0  0  0  0  0  0
  141.2832  139.5280  153.8749 H   0  0  0  0  0  0  0  0  0  0  0  0
  139.7287  140.2523  153.4159 H   0  0  0  0  0  0  0  0  0  0  0  0
  137.2766  136.7053  155.1339 H   0  0  0  0  0  0  0  0  0  0  0  0
  141.9255  137.2858  152.9697 H   0  0  0  0  0  0  0  0  0  0  0  0
  143.4455  136.2098  152.3354 H   0  0  0  0  0  0  0  0  0  0  0  0
  143.9172  133.4888  153.0591 H   0  0  0  0  0  0  0  0  0  0  0  0
  142.4021  132.6683  151.4088 H   0  0  0  0  0  0  0  0  0  0  0  0
  142.7833  133.9870  150.3095 H   0  0  0  0  0  0  0  0  0  0  0  0
  143.7631  130.5367  151.0287 H   0  0  0  0  0  0  0  0  0  0  0  0
  144.7375  131.3253  152.2652 H   0  0  0  0  0  0  0  0  0  0  0  0
  145.5028  130.6990  150.8127 H   0  0  0  0  0  0  0  0  0  0  0  0
  143.4179  131.7805  148.6985 H   0  0  0  0  0  0  0  0  0  0  0  0
  145.1729  131.8638  148.5666 H   0  0  0  0  0  0  0  0  0  0  0  0
  144.2148  133.3336  148.4563 H   0  0  0  0  0  0  0  0  0  0  0  0
  145.0815  136.6324  151.3069 H   0  0  0  0  0  0  0  0  0  0  0  0
  144.5274  135.6829  149.9296 H   0  0  0  0  0  0  0  0  0  0  0  0
  146.2454  135.8383  150.2592 H   0  0  0  0  0  0  0  0  0  0  0  0
  146.1151  135.3654  153.3952 H   0  0  0  0  0  0  0  0  0  0  0  0
  147.2908  134.6747  152.2833 H   0  0  0  0  0  0  0  0  0  0  0  0
  146.3224  133.6186  153.3024 H   0  0  0  0  0  0  0  0  0  0  0  0
  1  2  1  0  0  0  0
  1 20  1  0  0  0  0
  1 21  1  0  0  0  0
  1 22  1  0  0  0  0
  2  6  1  0  0  0  0
  2  3  1  0  0  0  0
  3  4  2  0  0  0  0
  4  5  1  0  0  0  0
  4 23  1  0  0  0  0
  5  6  2  0  0  0  0
  6  7  1  0  0  0  0
  7  8  1  0  0  0  0
  7 24  1  0  0  0  0
  8  9  2  0  0  0  0
  8 10  1  0  0  0  0
 10 11  1  0  0  0  0
 10 25  1  0  0  0  0
 11 17  1  0  0  0  0
 11 12  1  0  0  0  0
 11 26  1  0  0  0  0
 12 13  1  0  0  0  0
 12 27  1  0  0  0  0
 12 28  1  0  0  0  0
 13 14  1  0  0  0  0
 13 15  1  0  0  0  0
 13 16  1  0  0  0  0
 14 29  1  0  0  0  0
 14 30  1  0  0  0  0
 14 31  1  0  0  0  0
 15 32  1  0  0  0  0
 15 33  1  0  0  0  0
 15 34  1  0  0  0  0
 16 17  1  0  0  0  0
 17 18  1  0  0  0  0
 17 19  1  0  0  0  0
 18 35  1  0  0  0  0
 18 36  1  0  0  0  0
 18 37  1  0  0  0  0
 19 38  1  0  0  0  0
 19 39  1  0  0  0  0
 19 40  1  0  0  0  0
M  END
> <s_m_source_file>
AV-unprocessed.smi

> <i_m_source_file_index>
2325

> <i_lp_mmshare_version>
43012

> <i_f3d_flags>
0

> <s_epik_input>
W0NIM11uMW5bY0hdbmMxW05IXUMoPU8pW05IXVtDQEBIXShDKE8yKShbQ0gzXSlbQ0gzXSlbQ0gyXUMyKFtDSDNdKVtDSDNd

> <s_epik_cmdline>
J2VwaWtfcHl0aG9uJywgJy1waCcsICc3LjAnLCAnLXRuJywgJzgnLCAnLW1hJywgJzIwMCcsICctbWV0YWxfYmluZGluZycsICctaW1hZScsICc8aW5maWxlLm1hZT4nLCAnLW9tYWUnLCAnPG91dGZpbGUubWFlPic=

> <r_lp_tautomer_probability>
1

> <r_epik_Ionization_Penalty>
1.97832e-05

> <r_epik_Ionization_Penalty_Charging>
0

> <r_epik_Ionization_Penalty_Neutral>
1.97832e-05

> <r_epik_State_Penalty>
-0

> <r_epik_Charging_Adjusted_Penalty>
0

> <i_epik_Tot_Q>
0

> <i_epik_Tot_abs_Q>
0

> <r_epik_Metal_State_Penalty>
-0

> <b_epik_Metal_Only>
0

> <s_lp_Force_Field>
OPLS_2005

> <r_lp_Energy>
17.1515

> <b_lp_Chiralities_Consistent>
1

> <s_lp_Variant>
AV-unprocessed.smi:2325-2

> <Gold.Version>
5.8.1

> <Gold.Id.Protein>
6NUR|6NUR_protein|mol2

> <Gold.PLP.Fitness>
35.5828

> <Gold.PLP.PLP>
-32.6222

> <Gold.PLP.part.hbond>
-1.8352

> <Gold.PLP.part.metal>
0.0000

> <Gold.PLP.part.buried>
-3.6058

> <Gold.PLP.part.nonpolar>
-27.6878

> <Gold.PLP.part.repulsive>
0.6953

> <Gold.PLP.ligand.clash>
0.0000

> <Gold.PLP.ligand.torsion>
0.0253

> <Gold.PLP.Chemscore.Hbond>
1.0000

> <Gold.PLP.Chemscore.CHOScore>
0.0000

> <Gold.PLP.Chemscore.Metal>
0.0000

> <Gold.Chemscore.Hbonds>
donor molecule, donor type, donor heavy atom, donor atom, acceptor molecule, acceptor atom, score
      P1  H 11000 11005       L1     5  0.16

> <Gold.PLP.Chemscore.Internal.Correction>
0.0112

> <Gold.Rescore>
     Score         DG    S(hbond)    S(metal)    S(lipo)     H(rot)  DE(clash)    DE(int)     intcor
     11.02     -13.45       0.95        0.00      62.87       1.00       1.08       1.35       ----

> <Gold.Chemscore.Fitness>
11.0227

> <Gold.Chemscore.DG>
-13.4512

> <Gold.Chemscore.ZeroCoef>
-5.4800

> <Gold.Chemscore.Hbond>
0.9508

> <Gold.Chemscore.Metal>
0.0000

> <Gold.Chemscore.Lipo>
62.8686

> <Gold.Chemscore.Internal_Hbond>
0.0000

> <Gold.Chemscore.DEClash>
1.0764

> <Gold.Chemscore.DEInternal>
1.3520

> <Gold.Chemscore.Rot>
1.0000

> <Gold.Chemscore.Internal.Correction>
   9.000000E+99

> <Gold.Chemscore.Hbonds>
donor molecule, donor type, donor heavy atom, donor atom, acceptor molecule, acceptor atom, score
      P1  H 11000 11005       L1     5  0.13

> <Gold.Chemscore.Hbond.Weighted>
-3.1755

> <Gold.Chemscore.Metal.Weighted>
-0.0000

> <Gold.Chemscore.Lipo.Weighted>
-7.3556

> <Gold.Chemscore.Internal_Hbond.Weighted>
0.0000

> <Gold.Chemscore.DEClash.Weighted>
1.0764

> <Gold.Chemscore.DEInternal.Weighted>
1.3520

> <Gold.Chemscore.Rot.Weighted>
2.5600

> <Gold.Chemscore.Internal.Correction.Weighted>
   9.000000E+99

> <Gold.Protein.RotatedTorsions>
[ 6907 6896 6895 6894 ] final  -80.35 input  -60.11 | X-H torsion
[ 7974 7965 7964 7962 ] final  -71.40 input  175.53 | X-H torsion
[ 8008 7997 7996 7995 ] final   -5.81 input   59.86 | X-H torsion
[ 10167 10162 10161 10158 ] final   49.02 input  -65.29 | X-H torsion
[ 10718 10713 10712 10709 ] final  109.89 input   66.30 | X-H torsion
[ 10763 10752 10751 10750 ] final -126.39 input  -60.55 | X-H torsion
[ 11005 11000 10999 10996 ] final   85.48 input  -57.11 | X-H torsion

> <Gold.Protein.ActiveResidues>
 VAL166  LYS551  ARG553  GLY616  TRP617  ASP618  TYR619  PRO620  LYS621  CYS622 
 ASP623  PHE694  ASN695  SER759  ASP760  ASP761  ALA762  ILE779  LEU786  VAL792 
 PHE793  MET794  SER795  GLU796  ALA797  LYS798  CYS799  TRP800  GLU811  SER814 

> <Gold.Protein.RotatedAtoms>
  150.6931  134.3982  159.5106 H   0  0  0  0  0  0  0  0  0  0  0  0  # atno 6907 bound_to 6896
  152.1760  134.8792  160.0539 H   0  0  0  0  0  0  0  0  0  0  0  0  # atno 6908 bound_to 6896
  151.9800  133.3720  159.4141 H   0  0  0  0  0  0  0  0  0  0  0  0  # atno 6909 bound_to 6896
  145.6786  140.9196  143.0845 H   0  0  0  0  0  0  0  0  0  0  0  0  # atno 7974 bound_to 7965
  154.6002  140.2449  155.7803 H   0  0  0  0  0  0  0  0  0  0  0  0  # atno 8008 bound_to 7997
  156.2305  140.2968  156.0130 H   0  0  0  0  0  0  0  0  0  0  0  0  # atno 8009 bound_to 7997
  155.2225  140.0401  157.2941 H   0  0  0  0  0  0  0  0  0  0  0  0  # atno 8010 bound_to 7997
  140.2872  144.3088  150.6249 H   0  0  0  0  0  0  0  0  0  0  0  0  # atno 10167 bound_to 10162
  157.6520  131.0922  150.6521 H   0  0  0  0  0  0  0  0  0  0  0  0  # atno 10718 bound_to 10713
  154.8745  135.3997  154.3423 H   0  0  0  0  0  0  0  0  0  0  0  0  # atno 10763 bound_to 10752
  153.4220  135.7023  153.6293 H   0  0  0  0  0  0  0  0  0  0  0  0  # atno 10764 bound_to 10752
  153.4951  135.3740  155.2481 H   0  0  0  0  0  0  0  0  0  0  0  0  # atno 10765 bound_to 10752
  139.8970  134.8289  156.2588 H   0  0  0  0  0  0  0  0  0  0  0  0  # atno 11005 bound_to 11000
  144.7033  139.8666  143.7437 LP  0  0  0  0  0  0  0  0  0  0  0  0  # atno 17320 bound_to 7965
  146.0984  139.3978  143.0362 LP  0  0  0  0  0  0  0  0  0  0  0  0  # atno 17321 bound_to 7965
  140.5762  143.2176  151.7510 LP  0  0  0  0  0  0  0  0  0  0  0  0  # atno 17342 bound_to 10162
  139.4947  144.4145  152.0044 LP  0  0  0  0  0  0  0  0  0  0  0  0  # atno 17343 bound_to 10162
  156.6831  130.4573  149.5622 LP  0  0  0  0  0  0  0  0  0  0  0  0  # atno 17370 bound_to 10713
  156.1915  130.6562  151.1066 LP  0  0  0  0  0  0  0  0  0  0  0  0  # atno 17371 bound_to 10713
  141.0176  133.7059  156.1215 LP  0  0  0  0  0  0  0  0  0  0  0  0  # atno 17394 bound_to 11000
  140.7279  134.4287  157.5569 LP  0  0  0  0  0  0  0  0  0  0  0  0  # atno 17395 bound_to 11000

$$$$
