AV-unprocessed.smi:217|AV-procd|sdf|1661|dock9
  -GOLD-   2262020 63D 1   1.00000     0.00000
 Structure written by MMmdl.
 57 61  0  0  0  0  0  0  0  0  1 V2000
  145.5369  136.5148  150.2461 O   0  0  0  0  0  0  0  0  0  0  0  0
  144.5525  135.5883  150.6567 C   0  0  0  0  0  0  0  0  0  0  0  0
  144.4098  135.5662  152.1875 C   0  0  0  0  0  0  0  0  0  0  0  0
  143.3583  134.5108  152.5881 C   0  0  0  0  0  0  0  0  0  0  0  0
  143.8322  133.1964  152.3752 O   0  0  0  0  0  0  0  0  0  0  0  0
  145.7373  135.5049  152.9763 C   0  0  0  0  0  0  0  0  0  0  0  0
  145.1829  136.5234  153.9751 C   0  0  0  0  0  0  0  0  0  0  0  0
  146.0421  137.4701  154.6240 N   0  0  0  0  0  0  0  0  0  0  0  0
  146.5667  137.3718  155.8928 C   0  0  0  0  0  0  0  0  0  0  0  0
  147.3699  138.3404  156.2397 N   0  0  0  0  0  0  0  0  0  0  0  0
  147.4289  139.1538  155.1140 C   0  0  0  0  0  0  0  0  0  0  0  0
  148.1235  140.3550  154.7926 C   0  0  0  0  0  0  0  0  0  0  0  0
  148.9320  140.9970  155.6752 N   0  0  0  0  0  0  0  0  0  0  0  0
  150.3349  140.5883  155.6259 C   0  0  0  0  0  0  0  0  0  0  0  0
  151.2301  141.6032  156.3555 C   0  0  0  0  0  0  0  0  0  0  0  0
  150.7546  141.8373  157.8036 C   0  0  0  0  0  0  0  0  0  0  0  0
  151.6396  142.8693  158.5313 C   0  0  1  0  0  0  0  0  0  0  0  0
  151.6534  144.2623  157.8997 C   0  0  0  0  0  0  0  0  0  0  0  0
  152.0262  145.1756  159.0564 C   0  0  0  0  0  0  0  0  0  0  0  0
  151.7689  144.3226  160.3017 C   0  0  0  0  0  0  0  0  0  0  0  0
  151.1272  143.1479  159.8252 O   0  0  0  0  0  0  0  0  0  0  0  0
  149.2726  142.2631  157.7740 C   0  0  0  0  0  0  0  0  0  0  0  0
  148.4090  141.2382  157.0210 C   0  0  0  0  0  0  0  0  0  0  0  0
  147.9547  140.8559  153.5389 N   0  0  0  0  0  0  0  0  0  0  0  0
  147.1607  140.2342  152.6627 C   0  0  0  0  0  0  0  0  0  0  0  0
  146.4507  139.1172  152.8273 N   0  0  0  0  0  0  0  0  0  0  0  0
  146.6149  138.6070  154.0813 C   0  0  0  0  0  0  0  0  0  0  0  0
  144.2354  136.9502  152.8514 C   0  0  0  0  0  0  0  0  0  0  0  0
  145.1659  137.3833  150.2820 H   0  0  0  0  0  0  0  0  0  0  0  0
  143.6091  135.8321  150.1678 H   0  0  0  0  0  0  0  0  0  0  0  0
  144.8441  134.6067  150.2820 H   0  0  0  0  0  0  0  0  0  0  0  0
  143.0943  134.5989  153.6419 H   0  0  0  0  0  0  0  0  0  0  0  0
  142.4285  134.6427  152.0343 H   0  0  0  0  0  0  0  0  0  0  0  0
  143.5268  132.6495  153.0829 H   0  0  0  0  0  0  0  0  0  0  0  0
  145.9739  134.5331  153.4111 H   0  0  0  0  0  0  0  0  0  0  0  0
  146.5877  135.8958  152.4142 H   0  0  0  0  0  0  0  0  0  0  0  0
  144.6344  136.0202  154.7732 H   0  0  0  0  0  0  0  0  0  0  0  0
  146.3315  136.5554  156.5603 H   0  0  0  0  0  0  0  0  0  0  0  0
  150.4296  139.6074  156.0934 H   0  0  0  0  0  0  0  0  0  0  0  0
  150.6830  140.4778  154.5995 H   0  0  0  0  0  0  0  0  0  0  0  0
  152.2599  141.2455  156.3485 H   0  0  0  0  0  0  0  0  0  0  0  0
  151.2276  142.5470  155.8083 H   0  0  0  0  0  0  0  0  0  0  0  0
  150.8264  140.8898  158.3398 H   0  0  0  0  0  0  0  0  0  0  0  0
  152.6607  142.4952  158.6299 H   0  0  0  0  0  0  0  0  0  0  0  0
  152.3461  144.3401  157.0614 H   0  0  0  0  0  0  0  0  0  0  0  0
  150.6573  144.5216  157.5383 H   0  0  0  0  0  0  0  0  0  0  0  0
  153.0747  145.4720  159.0065 H   0  0  0  0  0  0  0  0  0  0  0  0
  151.4201  146.0820  159.0512 H   0  0  0  0  0  0  0  0  0  0  0  0
  152.7103  144.0493  160.7804 H   0  0  0  0  0  0  0  0  0  0  0  0
  151.1486  144.8339  161.0381 H   0  0  0  0  0  0  0  0  0  0  0  0
  148.8866  142.3789  158.7870 H   0  0  0  0  0  0  0  0  0  0  0  0
  149.1791  143.2384  157.2943 H   0  0  0  0  0  0  0  0  0  0  0  0
  147.3836  141.6060  156.9635 H   0  0  0  0  0  0  0  0  0  0  0  0
  148.3847  140.2973  157.5726 H   0  0  0  0  0  0  0  0  0  0  0  0
  147.0821  140.6988  151.6910 H   0  0  0  0  0  0  0  0  0  0  0  0
  144.6418  137.7641  152.2477 H   0  0  0  0  0  0  0  0  0  0  0  0
  143.2199  137.1768  153.1778 H   0  0  0  0  0  0  0  0  0  0  0  0
  1  2  1  0  0  0  0
  1 29  1  0  0  0  0
  2  3  1  0  0  0  0
  2 30  1  0  0  0  0
  2 31  1  0  0  0  0
  3 28  1  0  0  0  0
  3  4  1  0  0  0  0
  3  6  1  0  0  0  0
  4  5  1  0  0  0  0
  4 32  1  0  0  0  0
  4 33  1  0  0  0  0
  5 34  1  0  0  0  0
  6  7  1  0  0  0  0
  6 35  1  0  0  0  0
  6 36  1  0  0  0  0
  7  8  1  0  0  0  0
  7 28  1  0  0  0  0
  7 37  1  0  0  0  0
  8 27  1  0  0  0  0
  8  9  1  0  0  0  0
  9 10  2  0  0  0  0
  9 38  1  0  0  0  0
 10 11  1  0  0  0  0
 11 27  2  0  0  0  0
 11 12  1  0  0  0  0
 12 13  1  0  0  0  0
 12 24  2  0  0  0  0
 13 23  1  0  0  0  0
 13 14  1  0  0  0  0
 14 15  1  0  0  0  0
 14 39  1  0  0  0  0
 14 40  1  0  0  0  0
 15 16  1  0  0  0  0
 15 41  1  0  0  0  0
 15 42  1  0  0  0  0
 16 17  1  0  0  0  0
 16 22  1  0  0  0  0
 16 43  1  0  0  0  0
 17 21  1  0  0  0  0
 17 18  1  0  0  0  0
 17 44  1  0  0  0  0
 18 19  1  0  0  0  0
 18 45  1  0  0  0  0
 18 46  1  0  0  0  0
 19 20  1  0  0  0  0
 19 47  1  0  0  0  0
 19 48  1  0  0  0  0
 20 21  1  0  0  0  0
 20 49  1  0  0  0  0
 20 50  1  0  0  0  0
 22 23  1  0  0  0  0
 22 51  1  0  0  0  0
 22 52  1  0  0  0  0
 23 53  1  0  0  0  0
 23 54  1  0  0  0  0
 24 25  1  0  0  0  0
 25 26  2  0  0  0  0
 25 55  1  0  0  0  0
 26 27  1  0  0  0  0
 28 56  1  0  0  0  0
 28 57  1  0  0  0  0
M  END
> <s_m_source_file>
AV-unprocessed.smi

> <i_m_source_file_index>
217

> <i_lp_mmshare_version>
43012

> <i_f3d_flags>
0

> <s_epik_input>
W09IXVtDSDJdQzEoW0NIMl1bT0hdKVtDSDJdW0NIXShbQ0gyXTEpbihbY0hdbjIpYyhjMjMpbltjSF1uYzNONFtDSDJdW0NIMl1bQ0hdKFtDSDJdW0NIMl00KVtDQEBIXTVbQ0gyXVtDSDJdW0NIMl1PNQ==

> <s_epik_cmdline>
J2VwaWtfcHl0aG9uJywgJy1waCcsICc3LjAnLCAnLXRuJywgJzgnLCAnLW1hJywgJzIwMCcsICctbWV0YWxfYmluZGluZycsICctaW1hZScsICc8aW5maWxlLm1hZT4nLCAnLW9tYWUnLCAnPG91dGZpbGUubWFlPic=

> <r_lp_tautomer_probability>
1

> <r_epik_Ionization_Penalty>
0.0037022

> <r_epik_Ionization_Penalty_Charging>
0

> <r_epik_Ionization_Penalty_Neutral>
0.0037022

> <r_epik_State_Penalty>
0.00257654

> <r_epik_Charging_Adjusted_Penalty>
0.00257654

> <i_epik_Tot_Q>
0

> <i_epik_Tot_abs_Q>
0

> <r_epik_Metal_State_Penalty>
-0

> <b_epik_Metal_Only>
0

> <s_lp_Force_Field>
OPLS_2005

> <r_lp_Energy>
55.0996

> <b_lp_Chiralities_Consistent>
1

> <s_lp_Variant>
AV-unprocessed.smi:217-2

> <Gold.Version>
5.8.1

> <Gold.Id.Protein>
6NUR|6NUR_protein|mol2

> <Gold.PLP.Fitness>
45.7959

> <Gold.PLP.PLP>
-40.7537

> <Gold.PLP.part.hbond>
-3.2118

> <Gold.PLP.part.metal>
0.0000

> <Gold.PLP.part.buried>
-6.1480

> <Gold.PLP.part.nonpolar>
-33.7807

> <Gold.PLP.part.repulsive>
1.8524

> <Gold.PLP.ligand.clash>
0.0000

> <Gold.PLP.ligand.torsion>
1.3267

> <Gold.PLP.Chemscore.Hbond>
2.0000

> <Gold.PLP.Chemscore.CHOScore>
0.2688

> <Gold.PLP.Chemscore.Metal>
0.0000

> <Gold.Chemscore.Hbonds>
donor molecule, donor type, donor heavy atom, donor atom, acceptor molecule, acceptor atom, score
      L1  H     1    29       P1 10171  1.00
      L1  H     5    34       P1 10957  0.82
      L1  C    25    55       P1  7957  0.18

> <Gold.PLP.Chemscore.Internal.Correction>
0.8893

> <Gold.Rescore>
     Score         DG    S(hbond)    S(metal)    S(lipo)     H(rot)  DE(clash)    DE(int)     intcor
     12.41     -13.94       1.77        0.00      93.65       3.28       0.11       1.41       ----

> <Gold.Chemscore.Fitness>
12.4139

> <Gold.Chemscore.DG>
-13.9353

> <Gold.Chemscore.ZeroCoef>
-5.4800

> <Gold.Chemscore.Hbond>
1.7688

> <Gold.Chemscore.Metal>
0.0000

> <Gold.Chemscore.Lipo>
93.6476

> <Gold.Chemscore.Internal_Hbond>
0.0000

> <Gold.Chemscore.DEClash>
0.1136

> <Gold.Chemscore.DEInternal>
1.4078

> <Gold.Chemscore.Rot>
3.2848

> <Gold.Chemscore.Internal.Correction>
   9.000000E+99

> <Gold.Chemscore.Hbonds>
donor molecule, donor type, donor heavy atom, donor atom, acceptor molecule, acceptor atom, score
      L1  H     1    29       P1 10171  0.94
      L1  H     5    34       P1 10957  0.18

> <Gold.Chemscore.Hbond.Weighted>
-5.9077

> <Gold.Chemscore.Metal.Weighted>
-0.0000

> <Gold.Chemscore.Lipo.Weighted>
-10.9568

> <Gold.Chemscore.Internal_Hbond.Weighted>
0.0000

> <Gold.Chemscore.DEClash.Weighted>
0.1136

> <Gold.Chemscore.DEInternal.Weighted>
1.4078

> <Gold.Chemscore.Rot.Weighted>
8.4092

> <Gold.Chemscore.Internal.Correction.Weighted>
   9.000000E+99

> <Gold.Protein.RotatedTorsions>
[ 6907 6896 6895 6894 ] final   78.15 input  -60.11 | X-H torsion
[ 7974 7965 7964 7962 ] final -112.48 input  175.53 | X-H torsion
[ 8008 7997 7996 7995 ] final   29.15 input   59.86 | X-H torsion
[ 10167 10162 10161 10158 ] final -142.61 input  -65.29 | X-H torsion
[ 10718 10713 10712 10709 ] final    0.92 input   66.30 | X-H torsion
[ 10763 10752 10751 10750 ] final -106.14 input  -60.55 | X-H torsion
[ 11005 11000 10999 10996 ] final -175.12 input  -57.11 | X-H torsion

> <Gold.Protein.ActiveResidues>
 VAL166  LYS551  ARG553  GLY616  TRP617  ASP618  TYR619  PRO620  LYS621  CYS622 
 ASP623  PHE694  ASN695  SER759  ASP760  ASP761  ALA762  ILE779  LEU786  VAL792 
 PHE793  MET794  SER795  GLU796  ALA797  LYS798  CYS799  TRP800  GLU811  SER814 

> <Gold.Protein.RotatedAtoms>
  152.5147  134.3708  159.9317 H   0  0  0  0  0  0  0  0  0  0  0  0  # atno 6907 bound_to 6896
  151.3662  133.3865  159.2702 H   0  0  0  0  0  0  0  0  0  0  0  0  # atno 6908 bound_to 6896
  150.9613  134.9020  159.7790 H   0  0  0  0  0  0  0  0  0  0  0  0  # atno 6909 bound_to 6896
  145.1435  140.8791  143.3688 H   0  0  0  0  0  0  0  0  0  0  0  0  # atno 7974 bound_to 7965
  155.0700  140.3199  155.4633 H   0  0  0  0  0  0  0  0  0  0  0  0  # atno 8008 bound_to 7997
  156.2793  140.2113  156.5772 H   0  0  0  0  0  0  0  0  0  0  0  0  # atno 8009 bound_to 7997
  154.7063  140.0502  157.0494 H   0  0  0  0  0  0  0  0  0  0  0  0  # atno 8010 bound_to 7997
  139.8072  143.7752  152.2661 H   0  0  0  0  0  0  0  0  0  0  0  0  # atno 10167 bound_to 10162
  156.8405  130.5519  149.5678 H   0  0  0  0  0  0  0  0  0  0  0  0  # atno 10718 bound_to 10713
  154.7993  135.4723  154.0236 H   0  0  0  0  0  0  0  0  0  0  0  0  # atno 10763 bound_to 10752
  153.1754  135.6832  153.8557 H   0  0  0  0  0  0  0  0  0  0  0  0  # atno 10764 bound_to 10752
  153.8125  135.3215  155.3380 H   0  0  0  0  0  0  0  0  0  0  0  0  # atno 10765 bound_to 10752
  140.4669  134.6202  157.4866 H   0  0  0  0  0  0  0  0  0  0  0  0  # atno 11005 bound_to 11000
  145.0507  139.3184  143.5930 LP  0  0  0  0  0  0  0  0  0  0  0  0  # atno 17320 bound_to 7965
  146.3502  139.9914  142.8685 LP  0  0  0  0  0  0  0  0  0  0  0  0  # atno 17321 bound_to 7965
  139.7890  144.7417  150.9982 LP  0  0  0  0  0  0  0  0  0  0  0  0  # atno 17342 bound_to 10162
  140.7819  143.4462  151.0479 LP  0  0  0  0  0  0  0  0  0  0  0  0  # atno 17343 bound_to 10162
  156.0883  130.5875  150.9687 LP  0  0  0  0  0  0  0  0  0  0  0  0  # atno 17370 bound_to 10713
  157.6358  131.0916  150.8351 LP  0  0  0  0  0  0  0  0  0  0  0  0  # atno 17371 bound_to 10713
  139.9910  134.6986  155.9690 LP  0  0  0  0  0  0  0  0  0  0  0  0  # atno 17394 bound_to 11000
  141.1595  133.6540  156.4272 LP  0  0  0  0  0  0  0  0  0  0  0  0  # atno 17395 bound_to 11000

$$$$
