AV-unprocessed.smi:2999|AV-procd|sdf|11422|dock5
  -GOLD-   2272016343D 1   1.00000     0.00000
 Structure written by MMmdl.
 38 40  0  0  0  0  0  0  0  0  2 V2000
  144.5851  136.8919  151.9763 O   0  0  0  0  0  0  0  0  0  0  0  0
  145.7841  136.6304  151.8830 C   0  0  0  0  0  0  0  0  0  0  0  0
  146.7522  137.5450  152.0376 N   0  0  0  0  0  0  0  0  0  0  0  0
  146.5397  138.9651  152.3070 C   0  0  0  0  0  0  0  0  0  0  0  0
  147.3932  139.4906  153.4780 C   0  0  1  0  0  0  0  0  0  0  0  0
  148.8506  138.9814  153.4850 C   0  0  0  0  0  0  0  0  0  0  0  0
  149.5861  139.5485  154.6372 N   0  3  1  0  0  0  0  0  0  0  0  0
  150.9788  139.0572  154.7148 C   0  0  0  0  0  0  0  0  0  0  0  0
  151.3918  138.6185  156.1004 C   0  0  0  0  0  0  0  0  0  0  0  0
  151.8874  139.9348  155.5434 C   0  0  0  0  0  0  0  0  0  0  0  0
  149.5080  141.0270  154.6253 C   0  0  0  0  0  0  0  0  0  0  0  0
  148.0405  141.4840  154.5773 C   0  0  0  0  0  0  0  0  0  0  0  0
  147.3954  140.9152  153.4434 O   0  0  0  0  0  0  0  0  0  0  0  0
  146.2971  135.4162  151.6282 N   0  0  0  0  0  0  0  0  0  0  0  0
  145.5945  134.2007  151.4371 C   0  0  0  0  0  0  0  0  0  0  0  0
  144.3348  134.2460  151.0002 N   0  0  0  0  0  0  0  0  0  0  0  0
  143.7819  132.9698  150.8590 C   0  0  0  0  0  0  0  0  0  0  0  0
  144.6430  131.9550  151.1961 C   0  0  0  0  0  0  0  0  0  0  0  0
  146.1945  132.5625  151.7080 S   0  0  0  0  0  0  0  0  0  0  0  0
  147.7107  137.2401  151.9498 H   0  0  0  0  0  0  0  0  0  0  0  0
  146.7920  139.5161  151.4006 H   0  0  0  0  0  0  0  0  0  0  0  0
  145.4842  139.1681  152.4950 H   0  0  0  0  0  0  0  0  0  0  0  0
  146.9067  139.1706  154.4013 H   0  0  0  0  0  0  0  0  0  0  0  0
  148.8645  137.8921  153.5382 H   0  0  0  0  0  0  0  0  0  0  0  0
  149.3667  139.2650  152.5672 H   0  0  0  0  0  0  0  0  0  0  0  0
  151.3595  138.5384  153.8365 H   0  0  0  0  0  0  0  0  0  0  0  0
  150.6506  138.6576  156.8966 H   0  0  0  0  0  0  0  0  0  0  0  0
  152.1120  137.8065  156.1752 H   0  0  0  0  0  0  0  0  0  0  0  0
  152.9347  139.9900  155.2532 H   0  0  0  0  0  0  0  0  0  0  0  0
  151.4755  140.8471  155.9715 H   0  0  0  0  0  0  0  0  0  0  0  0
  149.9937  141.4296  155.5148 H   0  0  0  0  0  0  0  0  0  0  0  0
  150.0484  141.4158  153.7606 H   0  0  0  0  0  0  0  0  0  0  0  0
  147.5142  141.2004  155.4903 H   0  0  0  0  0  0  0  0  0  0  0  0
  147.9873  142.5704  154.5047 H   0  0  0  0  0  0  0  0  0  0  0  0
  147.3028  135.3499  151.5735 H   0  0  0  0  0  0  0  0  0  0  0  0
  142.7642  132.8750  150.5103 H   0  0  0  0  0  0  0  0  0  0  0  0
  144.4594  130.8910  151.1742 H   0  0  0  0  0  0  0  0  0  0  0  0
  149.1145  139.2335  155.4730 H   0  0  0  0  0  0  0  0  0  0  0  0
  1  2  2  0  0  0  0
  2  3  1  0  0  0  0
  2 14  1  0  0  0  0
  3  4  1  0  0  0  0
  3 20  1  0  0  0  0
  4  5  1  0  0  0  0
  4 21  1  0  0  0  0
  4 22  1  0  0  0  0
  5 13  1  0  0  0  0
  5  6  1  0  0  0  0
  5 23  1  0  0  0  0
  6  7  1  0  0  0  0
  6 24  1  0  0  0  0
  6 25  1  0  0  0  0
  7  8  1  0  0  0  0
  7 11  1  0  0  0  0
  7 38  1  0  0  0  0
  8 10  1  0  0  0  0
  8  9  1  0  0  0  0
  8 26  1  0  0  0  0
  9 10  1  0  0  0  0
  9 27  1  0  0  0  0
  9 28  1  0  0  0  0
 10 29  1  0  0  0  0
 10 30  1  0  0  0  0
 11 12  1  0  0  0  0
 11 31  1  0  0  0  0
 11 32  1  0  0  0  0
 12 13  1  0  0  0  0
 12 33  1  0  0  0  0
 12 34  1  0  0  0  0
 14 15  1  0  0  0  0
 14 35  1  0  0  0  0
 15 19  1  0  0  0  0
 15 16  2  0  0  0  0
 16 17  1  0  0  0  0
 17 18  2  0  0  0  0
 17 36  1  0  0  0  0
 18 19  1  0  0  0  0
 18 37  1  0  0  0  0
M  CHG  1   7   1
M  END
> <s_m_source_file>
AV-unprocessed.smi

> <i_m_source_file_index>
2999

> <i_lp_mmshare_version>
43012

> <i_f3d_flags>
0

> <s_epik_input>
czFbY0hdW2NIXW5jMVtOSF1DKD1PKVtOSF1bQ0gyXVtDQEBIXTJbQ0gyXU4oW0NIMl1bQ0gyXU8yKVtDSF0zW0NIMl1bQ0gyXTM=

> <s_epik_cmdline>
J2VwaWtfcHl0aG9uJywgJy1waCcsICc3LjAnLCAnLXRuJywgJzgnLCAnLW1hJywgJzIwMCcsICctbWV0YWxfYmluZGluZycsICctaW1hZScsICc8aW5maWxlLm1hZT4nLCAnLW9tYWUnLCAnPG91dGZpbGUubWFlPic=

> <r_lp_tautomer_probability>
0.999

> <r_epik_Ionization_Penalty>
1.55235

> <r_epik_Ionization_Penalty_Charging>
1.55221

> <r_epik_Ionization_Penalty_Neutral>
0.000139685

> <r_epik_State_Penalty>
1.64652

> <r_epik_Charging_Adjusted_Penalty>
3.19873

> <i_epik_Tot_Q>
1

> <i_epik_Tot_abs_Q>
1

> <r_epik_Metal_State_Penalty>
1.68612

> <b_epik_Metal_Only>
0

> <s_lp_Force_Field>
OPLS_2005

> <r_lp_Energy>
20.9615

> <b_lp_Chiralities_Consistent>
1

> <s_lp_Variant>
AV-unprocessed.smi:2999-6

> <Gold.Version>
5.8.1

> <Gold.Id.Protein>
6NUR|6NUR_protein|mol2

> <Gold.PLP.Fitness>
38.8796

> <Gold.PLP.PLP>
-31.0928

> <Gold.PLP.part.hbond>
-2.0000

> <Gold.PLP.part.metal>
0.0000

> <Gold.PLP.part.buried>
-0.6837

> <Gold.PLP.part.nonpolar>
-30.5054

> <Gold.PLP.part.repulsive>
2.4112

> <Gold.PLP.ligand.clash>
0.0000

> <Gold.PLP.ligand.torsion>
1.1778

> <Gold.PLP.Chemscore.Hbond>
1.9600

> <Gold.PLP.Chemscore.CHOScore>
0.9999

> <Gold.PLP.Chemscore.Metal>
0.0000

> <Gold.Chemscore.Hbonds>
donor molecule, donor type, donor heavy atom, donor atom, acceptor molecule, acceptor atom, score
      L1  H     3    20       P1  7948  1.00
      L1  H    14    35       P1  7948  0.94
      L1  C    17    36       P1 10186  1.00

> <Gold.PLP.Chemscore.Internal.Correction>
1.2626

> <Gold.Rescore>
     Score         DG    S(hbond)    S(metal)    S(lipo)     H(rot)  DE(clash)    DE(int)     intcor
     13.48     -16.04       1.93        0.00      69.75       1.58       0.10       2.46       ----

> <Gold.Chemscore.Fitness>
13.4838

> <Gold.Chemscore.DG>
-16.0409

> <Gold.Chemscore.ZeroCoef>
-5.4800

> <Gold.Chemscore.Hbond>
1.9291

> <Gold.Chemscore.Metal>
0.0000

> <Gold.Chemscore.Lipo>
69.7550

> <Gold.Chemscore.Internal_Hbond>
0.0000

> <Gold.Chemscore.DEClash>
0.0989

> <Gold.Chemscore.DEInternal>
2.4582

> <Gold.Chemscore.Rot>
1.5795

> <Gold.Chemscore.Internal.Correction>
   9.000000E+99

> <Gold.Chemscore.Hbonds>
donor molecule, donor type, donor heavy atom, donor atom, acceptor molecule, acceptor atom, score
      L1  H     3    20       P1  7948  0.97
      L1  H    14    35       P1  7948  0.87

> <Gold.Chemscore.Hbond.Weighted>
-6.4430

> <Gold.Chemscore.Metal.Weighted>
-0.0000

> <Gold.Chemscore.Lipo.Weighted>
-8.1613

> <Gold.Chemscore.Internal_Hbond.Weighted>
0.0000

> <Gold.Chemscore.DEClash.Weighted>
0.0989

> <Gold.Chemscore.DEInternal.Weighted>
2.4582

> <Gold.Chemscore.Rot.Weighted>
4.0434

> <Gold.Chemscore.Internal.Correction.Weighted>
   9.000000E+99

> <Gold.Protein.RotatedTorsions>
[ 6907 6896 6895 6894 ] final   90.61 input  -60.11 | X-H torsion
[ 7974 7965 7964 7962 ] final  -85.76 input  175.53 | X-H torsion
[ 8008 7997 7996 7995 ] final  -15.40 input   59.86 | X-H torsion
[ 10167 10162 10161 10158 ] final -161.18 input  -65.29 | X-H torsion
[ 10718 10713 10712 10709 ] final  174.63 input   66.30 | X-H torsion
[ 10763 10752 10751 10750 ] final  100.85 input  -60.55 | X-H torsion
[ 11005 11000 10999 10996 ] final   73.97 input  -57.11 | X-H torsion

> <Gold.Protein.ActiveResidues>
 VAL166  LYS551  ARG553  GLY616  TRP617  ASP618  TYR619  PRO620  LYS621  CYS622 
 ASP623  PHE694  ASN695  SER759  ASP760  ASP761  ALA762  ILE779  LEU786  VAL792 
 PHE793  MET794  SER795  GLU796  ALA797  LYS798  CYS799  TRP800  GLU811  SER814 

> <Gold.Protein.RotatedAtoms>
  152.5445  134.1785  159.8625 H   0  0  0  0  0  0  0  0  0  0  0  0  # atno 6907 bound_to 6896
  151.1789  133.4730  159.2601 H   0  0  0  0  0  0  0  0  0  0  0  0  # atno 6908 bound_to 6896
  151.1198  135.0085  159.8588 H   0  0  0  0  0  0  0  0  0  0  0  0  # atno 6909 bound_to 6896
  145.4889  140.9553  143.1823 H   0  0  0  0  0  0  0  0  0  0  0  0  # atno 7974 bound_to 7965
  154.5133  140.2197  155.9114 H   0  0  0  0  0  0  0  0  0  0  0  0  # atno 8008 bound_to 7997
  156.1578  140.3148  155.8722 H   0  0  0  0  0  0  0  0  0  0  0  0  # atno 8009 bound_to 7997
  155.3811  140.0472  157.3034 H   0  0  0  0  0  0  0  0  0  0  0  0  # atno 8010 bound_to 7997
  139.6484  144.0130  152.2144 H   0  0  0  0  0  0  0  0  0  0  0  0  # atno 10167 bound_to 10162
  156.9468  131.0018  151.2957 H   0  0  0  0  0  0  0  0  0  0  0  0  # atno 10718 bound_to 10713
  153.3192  135.4064  155.1402 H   0  0  0  0  0  0  0  0  0  0  0  0  # atno 10763 bound_to 10752
  154.8596  135.3583  154.5619 H   0  0  0  0  0  0  0  0  0  0  0  0  # atno 10764 bound_to 10752
  153.6052  135.7069  153.5427 H   0  0  0  0  0  0  0  0  0  0  0  0  # atno 10765 bound_to 10752
  139.9414  134.7393  156.1091 H   0  0  0  0  0  0  0  0  0  0  0  0  # atno 11005 bound_to 11000
  144.7845  139.6455  143.7140 LP  0  0  0  0  0  0  0  0  0  0  0  0  # atno 17320 bound_to 7965
  146.2296  139.5788  142.9564 LP  0  0  0  0  0  0  0  0  0  0  0  0  # atno 17321 bound_to 7965
  139.9837  144.6410  150.7877 LP  0  0  0  0  0  0  0  0  0  0  0  0  # atno 17342 bound_to 10162
  140.7526  143.2993  151.3123 LP  0  0  0  0  0  0  0  0  0  0  0  0  # atno 17343 bound_to 10162
  157.5748  130.8336  149.8441 LP  0  0  0  0  0  0  0  0  0  0  0  0  # atno 17370 bound_to 10713
  156.0380  130.3746  150.1509 LP  0  0  0  0  0  0  0  0  0  0  0  0  # atno 17371 bound_to 10713
  141.1049  133.6663  156.2841 LP  0  0  0  0  0  0  0  0  0  0  0  0  # atno 17394 bound_to 11000
  140.5943  134.5619  157.5505 LP  0  0  0  0  0  0  0  0  0  0  0  0  # atno 17395 bound_to 11000

$$$$
