AV-unprocessed.smi:1413|AV-procd|sdf|5754|dock3
  -GOLD-   22720 5393D 1   1.00000     0.00000
 Structure written by MMmdl.
 53 55  0  0  0  0  0  0  0  0  1 V2000
  153.4753  141.4645  160.3565 C   0  0  0  0  0  0  0  0  0  0  0  0
  152.3136  141.9885  159.5055 C   0  0  2  0  0  0  0  0  0  0  0  0
  151.9317  141.0033  158.3858 C   0  0  0  0  0  0  0  0  0  0  0  0
  150.9166  141.5901  157.5172 N   0  0  0  0  0  0  0  0  0  0  0  0
  150.2522  140.6874  156.6596 C   0  0  0  0  0  0  0  0  0  0  0  0
  149.2295  139.8506  157.1646 C   0  0  0  0  0  0  0  0  0  0  0  0
  148.5812  138.9562  156.2920 C   0  0  0  0  0  0  0  0  0  0  0  0
  148.9718  138.9083  154.9401 C   0  0  0  0  0  0  0  0  0  0  0  0
  148.2905  138.0105  154.0751 N   0  0  0  0  0  0  0  0  0  0  0  0
  147.0223  137.5741  154.1621 C   0  0  0  0  0  0  0  0  0  0  0  0
  146.2076  137.9280  155.0138 O   0  0  0  0  0  0  0  0  0  0  0  0
  146.7420  136.7041  153.1807 N   0  0  0  0  0  0  0  0  0  0  0  0
  145.4541  136.0476  152.9593 C   0  0  1  0  0  0  0  0  0  0  0  0
  144.3594  137.1220  152.8828 C   0  0  0  0  0  0  0  0  0  0  0  0
  145.4966  135.1860  151.6803 C   0  0  1  0  0  0  0  0  0  0  0  0
  146.4718  134.0088  151.7163 C   0  0  0  0  0  0  0  0  0  0  0  0
  145.9106  133.0585  150.6722 C   0  0  0  0  0  0  0  0  0  0  0  0
  144.4555  133.5075  150.5060 C   0  0  0  0  0  0  0  0  0  0  0  0
  144.2568  134.5255  151.4786 O   0  0  0  0  0  0  0  0  0  0  0  0
  149.9914  139.7947  154.5204 C   0  0  0  0  0  0  0  0  0  0  0  0
  150.6123  140.6565  155.3531 N   0  0  0  0  0  0  0  0  0  0  0  0
  151.3067  142.8899  156.9756 C   0  0  0  0  0  0  0  0  0  0  0  0
  151.7332  143.8533  158.1003 C   0  0  1  0  0  0  0  0  0  0  0  0
  150.5504  144.4125  158.9114 C   0  0  0  0  0  0  0  0  0  0  0  0
  152.7144  143.2335  158.9344 O   0  0  0  0  0  0  0  0  0  0  0  0
  153.2177  140.5182  160.8326 H   0  0  0  0  0  0  0  0  0  0  0  0
  153.7318  142.1737  161.1440 H   0  0  0  0  0  0  0  0  0  0  0  0
  154.3670  141.3033  159.7500 H   0  0  0  0  0  0  0  0  0  0  0  0
  151.4581  142.1439  160.1631 H   0  0  0  0  0  0  0  0  0  0  0  0
  152.8079  140.7626  157.7821 H   0  0  0  0  0  0  0  0  0  0  0  0
  151.5905  140.0697  158.8317 H   0  0  0  0  0  0  0  0  0  0  0  0
  148.9278  139.8957  158.2004 H   0  0  0  0  0  0  0  0  0  0  0  0
  147.7947  138.3145  156.6615 H   0  0  0  0  0  0  0  0  0  0  0  0
  148.8134  137.7037  153.2680 H   0  0  0  0  0  0  0  0  0  0  0  0
  147.4777  136.4791  152.5273 H   0  0  0  0  0  0  0  0  0  0  0  0
  145.2197  135.4005  153.8065 H   0  0  0  0  0  0  0  0  0  0  0  0
  143.3748  136.6724  152.7520 H   0  0  0  0  0  0  0  0  0  0  0  0
  144.5268  137.8023  152.0472 H   0  0  0  0  0  0  0  0  0  0  0  0
  144.3277  137.7164  153.7965 H   0  0  0  0  0  0  0  0  0  0  0  0
  145.7072  135.8106  150.8096 H   0  0  0  0  0  0  0  0  0  0  0  0
  147.5016  134.3031  151.5121 H   0  0  0  0  0  0  0  0  0  0  0  0
  146.4459  133.5294  152.6959 H   0  0  0  0  0  0  0  0  0  0  0  0
  146.4473  133.1535  149.7276 H   0  0  0  0  0  0  0  0  0  0  0  0
  145.9858  132.0209  150.9990 H   0  0  0  0  0  0  0  0  0  0  0  0
  144.2934  133.9233  149.5108 H   0  0  0  0  0  0  0  0  0  0  0  0
  143.7478  132.6913  150.6528 H   0  0  0  0  0  0  0  0  0  0  0  0
  150.3168  139.8465  153.4930 H   0  0  0  0  0  0  0  0  0  0  0  0
  152.1377  142.7448  156.2838 H   0  0  0  0  0  0  0  0  0  0  0  0
  150.4873  143.3303  156.4063 H   0  0  0  0  0  0  0  0  0  0  0  0
  152.2263  144.7070  157.6347 H   0  0  0  0  0  0  0  0  0  0  0  0
  149.8872  144.9969  158.2734 H   0  0  0  0  0  0  0  0  0  0  0  0
  150.9011  145.0674  159.7092 H   0  0  0  0  0  0  0  0  0  0  0  0
  149.9492  143.6242  159.3639 H   0  0  0  0  0  0  0  0  0  0  0  0
  1  2  1  0  0  0  0
  1 26  1  0  0  0  0
  1 27  1  0  0  0  0
  1 28  1  0  0  0  0
  2 25  1  0  0  0  0
  2  3  1  0  0  0  0
  2 29  1  0  0  0  0
  3  4  1  0  0  0  0
  3 30  1  0  0  0  0
  3 31  1  0  0  0  0
  4  5  1  0  0  0  0
  4 22  1  0  0  0  0
  5 21  1  0  0  0  0
  5  6  2  0  0  0  0
  6  7  1  0  0  0  0
  6 32  1  0  0  0  0
  7  8  2  0  0  0  0
  7 33  1  0  0  0  0
  8  9  1  0  0  0  0
  8 20  1  0  0  0  0
  9 10  1  0  0  0  0
  9 34  1  0  0  0  0
 10 11  2  0  0  0  0
 10 12  1  0  0  0  0
 12 13  1  0  0  0  0
 12 35  1  0  0  0  0
 13 14  1  0  0  0  0
 13 15  1  0  0  0  0
 13 36  1  0  0  0  0
 14 37  1  0  0  0  0
 14 38  1  0  0  0  0
 14 39  1  0  0  0  0
 15 19  1  0  0  0  0
 15 16  1  0  0  0  0
 15 40  1  0  0  0  0
 16 17  1  0  0  0  0
 16 41  1  0  0  0  0
 16 42  1  0  0  0  0
 17 18  1  0  0  0  0
 17 43  1  0  0  0  0
 17 44  1  0  0  0  0
 18 19  1  0  0  0  0
 18 45  1  0  0  0  0
 18 46  1  0  0  0  0
 20 21  2  0  0  0  0
 20 47  1  0  0  0  0
 22 23  1  0  0  0  0
 22 48  1  0  0  0  0
 22 49  1  0  0  0  0
 23 24  1  0  0  0  0
 23 25  1  0  0  0  0
 23 50  1  0  0  0  0
 24 51  1  0  0  0  0
 24 52  1  0  0  0  0
 24 53  1  0  0  0  0
M  END
> <s_m_source_file>
AV-unprocessed.smi

> <i_m_source_file_index>
1413

> <i_lp_mmshare_version>
43012

> <i_f3d_flags>
0

> <s_epik_input>
W0NIM11bQ0BASF0xW0NIMl1OKFtDSDJdW0NASF0oTzEpW0NIM10pYzJbY0hdW2NIXWMoW2NIXW4yKVtOSF1DKD1PKVtOSF1bQ0BIXShbQ0gzXSlbQ0BASF0zW0NIMl1bQ0gyXVtDSDJdTzM=

> <s_epik_cmdline>
J2VwaWtfcHl0aG9uJywgJy1waCcsICc3LjAnLCAnLXRuJywgJzgnLCAnLW1hJywgJzIwMCcsICctbWV0YWxfYmluZGluZycsICctaW1hZScsICc8aW5maWxlLm1hZT4nLCAnLW9tYWUnLCAnPG91dGZpbGUubWFlPic=

> <r_lp_tautomer_probability>
1

> <r_epik_Ionization_Penalty>
0.00271172

> <r_epik_Ionization_Penalty_Charging>
0

> <r_epik_Ionization_Penalty_Neutral>
0.00271172

> <r_epik_State_Penalty>
0.00186503

> <r_epik_Charging_Adjusted_Penalty>
0.00186503

> <i_epik_Tot_Q>
0

> <i_epik_Tot_abs_Q>
0

> <r_epik_Metal_State_Penalty>
-0

> <b_epik_Metal_Only>
0

> <s_lp_Force_Field>
OPLS_2005

> <r_lp_Energy>
36.7239

> <b_lp_Chiralities_Consistent>
1

> <s_lp_Variant>
AV-unprocessed.smi:1413-7

> <Gold.Version>
5.8.1

> <Gold.Id.Protein>
6NUR|6NUR_protein|mol2

> <Gold.PLP.Fitness>
46.6216

> <Gold.PLP.PLP>
-39.2702

> <Gold.PLP.part.hbond>
-3.0000

> <Gold.PLP.part.metal>
0.0000

> <Gold.PLP.part.buried>
-6.5543

> <Gold.PLP.part.nonpolar>
-30.9527

> <Gold.PLP.part.repulsive>
0.3365

> <Gold.PLP.ligand.clash>
0.0000

> <Gold.PLP.ligand.torsion>
0.8054

> <Gold.PLP.Chemscore.Hbond>
1.8640

> <Gold.PLP.Chemscore.CHOScore>
1.0000

> <Gold.PLP.Chemscore.Metal>
0.0000

> <Gold.Chemscore.Hbonds>
donor molecule, donor type, donor heavy atom, donor atom, acceptor molecule, acceptor atom, score
      L1  H     9    34       P1  7948  0.90
      L1  H    12    35       P1  7948  1.00
      L1  C    20    47       P1  7957  1.00

> <Gold.PLP.Chemscore.Internal.Correction>
0.3702

> <Gold.Rescore>
     Score         DG    S(hbond)    S(metal)    S(lipo)     H(rot)  DE(clash)    DE(int)     intcor
     18.21     -20.51       1.91        0.00     103.48       1.35       0.26       2.04       ----

> <Gold.Chemscore.Fitness>
18.2091

> <Gold.Chemscore.DG>
-20.5117

> <Gold.Chemscore.ZeroCoef>
-5.4800

> <Gold.Chemscore.Hbond>
1.9083

> <Gold.Chemscore.Metal>
0.0000

> <Gold.Chemscore.Lipo>
103.4751

> <Gold.Chemscore.Internal_Hbond>
0.0000

> <Gold.Chemscore.DEClash>
0.2592

> <Gold.Chemscore.DEInternal>
2.0434

> <Gold.Chemscore.Rot>
1.3471

> <Gold.Chemscore.Internal.Correction>
   9.000000E+99

> <Gold.Chemscore.Hbonds>
donor molecule, donor type, donor heavy atom, donor atom, acceptor molecule, acceptor atom, score
      L1  H     9    34       P1  7948  0.83
      L1  H    12    35       P1  7948  0.99

> <Gold.Chemscore.Hbond.Weighted>
-6.3736

> <Gold.Chemscore.Metal.Weighted>
-0.0000

> <Gold.Chemscore.Lipo.Weighted>
-12.1066

> <Gold.Chemscore.Internal_Hbond.Weighted>
0.0000

> <Gold.Chemscore.DEClash.Weighted>
0.2592

> <Gold.Chemscore.DEInternal.Weighted>
2.0434

> <Gold.Chemscore.Rot.Weighted>
3.4485

> <Gold.Chemscore.Internal.Correction.Weighted>
   9.000000E+99

> <Gold.Protein.RotatedTorsions>
[ 6907 6896 6895 6894 ] final    7.35 input  -60.11 | X-H torsion
[ 7974 7965 7964 7962 ] final  128.37 input  175.53 | X-H torsion
[ 8008 7997 7996 7995 ] final  171.20 input   59.86 | X-H torsion
[ 10167 10162 10161 10158 ] final -166.73 input  -65.29 | X-H torsion
[ 10718 10713 10712 10709 ] final   78.21 input   66.30 | X-H torsion
[ 10763 10752 10751 10750 ] final   35.60 input  -60.55 | X-H torsion
[ 11005 11000 10999 10996 ] final  119.70 input  -57.11 | X-H torsion

> <Gold.Protein.ActiveResidues>
 VAL166  LYS551  ARG553  GLY616  TRP617  ASP618  TYR619  PRO620  LYS621  CYS622 
 ASP623  PHE694  ASN695  SER759  ASP760  ASP761  ALA762  ILE779  LEU786  VAL792 
 PHE793  MET794  SER795  GLU796  ALA797  LYS798  CYS799  TRP800  GLU811  SER814 

> <Gold.Protein.RotatedAtoms>
  151.6884  135.0950  160.0228 H   0  0  0  0  0  0  0  0  0  0  0  0  # atno 6907 bound_to 6896
  152.3793  133.6520  159.6157 H   0  0  0  0  0  0  0  0  0  0  0  0  # atno 6908 bound_to 6896
  150.7734  133.9057  159.3396 H   0  0  0  0  0  0  0  0  0  0  0  0  # atno 6909 bound_to 6896
  145.0403  139.3969  143.5105 H   0  0  0  0  0  0  0  0  0  0  0  0  # atno 7974 bound_to 7965
  156.1294  140.1518  156.9088 H   0  0  0  0  0  0  0  0  0  0  0  0  # atno 8008 bound_to 7997
  154.4897  140.0855  156.7606 H   0  0  0  0  0  0  0  0  0  0  0  0  # atno 8009 bound_to 7997
  155.4284  140.3426  155.4280 H   0  0  0  0  0  0  0  0  0  0  0  0  # atno 8010 bound_to 7997
  139.6095  144.0843  152.1828 H   0  0  0  0  0  0  0  0  0  0  0  0  # atno 10167 bound_to 10162
  157.6737  130.9858  150.1753 H   0  0  0  0  0  0  0  0  0  0  0  0  # atno 10718 bound_to 10713
  153.0112  135.6329  154.1852 H   0  0  0  0  0  0  0  0  0  0  0  0  # atno 10763 bound_to 10752
  154.1594  135.2824  155.3114 H   0  0  0  0  0  0  0  0  0  0  0  0  # atno 10764 bound_to 10752
  154.5993  135.5592  153.7418 H   0  0  0  0  0  0  0  0  0  0  0  0  # atno 10765 bound_to 10752
  139.9156  134.9630  156.7694 H   0  0  0  0  0  0  0  0  0  0  0  0  # atno 11005 bound_to 11000
  146.3508  140.0000  142.8677 LP  0  0  0  0  0  0  0  0  0  0  0  0  # atno 17320 bound_to 7965
  145.1657  140.9695  143.4351 LP  0  0  0  0  0  0  0  0  0  0  0  0  # atno 17321 bound_to 7965
  140.0458  144.5971  150.7375 LP  0  0  0  0  0  0  0  0  0  0  0  0  # atno 17342 bound_to 10162
  140.7309  143.2688  151.3955 LP  0  0  0  0  0  0  0  0  0  0  0  0  # atno 17343 bound_to 10162
  156.2498  130.3699  149.8245 LP  0  0  0  0  0  0  0  0  0  0  0  0  # atno 17370 bound_to 10713
  156.6021  130.8551  151.3434 LP  0  0  0  0  0  0  0  0  0  0  0  0  # atno 17371 bound_to 10713
  140.6633  133.9625  155.7816 LP  0  0  0  0  0  0  0  0  0  0  0  0  # atno 17394 bound_to 11000
  141.0628  134.0320  157.3635 LP  0  0  0  0  0  0  0  0  0  0  0  0  # atno 17395 bound_to 11000

$$$$
