AV-unprocessed.smi:3246|AV-procd|sdf|12410|dock6
  -GOLD-   2272018293D 1   1.00000     0.00000
 Structure written by MMmdl.
 35 36  0  0  0  0  0  0  0  0  1 V2000
  144.5954  136.3583  152.2458 O   0  0  0  0  0  0  0  0  0  0  0  0
  145.3349  136.1743  151.2798 C   0  0  0  0  0  0  0  0  0  0  0  0
  145.2263  134.8525  150.5015 C   0  0  0  0  0  0  0  0  0  0  0  0
  145.6510  133.6608  151.2410 N   0  0  0  0  0  0  0  0  0  0  0  0
  146.9716  133.5952  151.8452 C   0  0  0  0  0  0  0  0  0  0  0  0
  146.9527  132.3244  152.7064 C   0  0  0  0  0  0  0  0  0  0  0  0
  145.7194  131.5343  152.2557 C   0  0  0  0  0  0  0  0  0  0  0  0
  144.9377  132.5438  151.4325 C   0  0  0  0  0  0  0  0  0  0  0  0
  143.7983  132.3319  151.0210 O   0  0  0  0  0  0  0  0  0  0  0  0
  146.2347  137.0854  150.8713 N   0  0  0  0  0  0  0  0  0  0  0  0
  146.4611  138.3825  151.4960 C   0  0  0  0  0  0  0  0  0  0  0  0
  146.7192  138.2452  153.0048 C   0  0  0  0  0  0  0  0  0  0  0  0
  147.5627  139.3836  153.5433 C   0  0  0  0  0  0  0  0  0  0  0  0
  148.8288  139.1417  154.1154 C   0  0  0  0  0  0  0  0  0  0  0  0
  149.5705  140.2334  154.6063 C   0  0  0  0  0  0  0  0  0  0  0  0
  149.0127  141.5236  154.5041 C   0  0  0  0  0  0  0  0  0  0  0  0
  147.8012  141.7668  153.9588 N   0  0  0  0  0  0  0  0  0  0  0  0
  147.0964  140.7144  153.4903 C   0  0  0  0  0  0  0  0  0  0  0  0
  144.1939  134.7271  150.1710 H   0  0  0  0  0  0  0  0  0  0  0  0
  145.8254  134.9403  149.5944 H   0  0  0  0  0  0  0  0  0  0  0  0
  147.7239  133.5233  151.0585 H   0  0  0  0  0  0  0  0  0  0  0  0
  147.1819  134.4848  152.4403 H   0  0  0  0  0  0  0  0  0  0  0  0
  147.8713  131.7475  152.5950 H   0  0  0  0  0  0  0  0  0  0  0  0
  146.8574  132.5882  153.7606 H   0  0  0  0  0  0  0  0  0  0  0  0
  145.9954  130.6888  151.6248 H   0  0  0  0  0  0  0  0  0  0  0  0
  145.1337  131.1671  153.0988 H   0  0  0  0  0  0  0  0  0  0  0  0
  146.8085  136.8579  150.0721 H   0  0  0  0  0  0  0  0  0  0  0  0
  147.2936  138.8922  151.0080 H   0  0  0  0  0  0  0  0  0  0  0  0
  145.5771  138.9974  151.3246 H   0  0  0  0  0  0  0  0  0  0  0  0
  145.7724  138.2138  153.5457 H   0  0  0  0  0  0  0  0  0  0  0  0
  147.2267  137.3034  153.2186 H   0  0  0  0  0  0  0  0  0  0  0  0
  149.2252  138.1390  154.1793 H   0  0  0  0  0  0  0  0  0  0  0  0
  150.5436  140.0861  155.0509 H   0  0  0  0  0  0  0  0  0  0  0  0
  149.5545  142.3833  154.8701 H   0  0  0  0  0  0  0  0  0  0  0  0
  146.1304  140.9409  153.0630 H   0  0  0  0  0  0  0  0  0  0  0  0
  1  2  2  0  0  0  0
  2  3  1  0  0  0  0
  2 10  1  0  0  0  0
  3  4  1  0  0  0  0
  3 19  1  0  0  0  0
  3 20  1  0  0  0  0
  4  8  1  0  0  0  0
  4  5  1  0  0  0  0
  5  6  1  0  0  0  0
  5 21  1  0  0  0  0
  5 22  1  0  0  0  0
  6  7  1  0  0  0  0
  6 23  1  0  0  0  0
  6 24  1  0  0  0  0
  7  8  1  0  0  0  0
  7 25  1  0  0  0  0
  7 26  1  0  0  0  0
  8  9  2  0  0  0  0
 10 11  1  0  0  0  0
 10 27  1  0  0  0  0
 11 12  1  0  0  0  0
 11 28  1  0  0  0  0
 11 29  1  0  0  0  0
 12 13  1  0  0  0  0
 12 30  1  0  0  0  0
 12 31  1  0  0  0  0
 13 18  1  0  0  0  0
 13 14  2  0  0  0  0
 14 15  1  0  0  0  0
 14 32  1  0  0  0  0
 15 16  2  0  0  0  0
 15 33  1  0  0  0  0
 16 17  1  0  0  0  0
 16 34  1  0  0  0  0
 17 18  2  0  0  0  0
 18 35  1  0  0  0  0
M  END
> <s_m_source_file>
AV-unprocessed.smi

> <i_m_source_file_index>
3246

> <i_lp_mmshare_version>
43012

> <i_f3d_flags>
0

> <s_epik_input>
Tz1DMVtDSDJdW0NIMl1bQ0gyXU4xW0NIMl1DKD1PKVtOSF1bQ0gyXVtDSDJdYzJbY0hdW2NIXVtjSF1uW2NIXTI=

> <s_epik_cmdline>
J2VwaWtfcHl0aG9uJywgJy1waCcsICc3LjAnLCAnLXRuJywgJzgnLCAnLW1hJywgJzIwMCcsICctbWV0YWxfYmluZGluZycsICctaW1hZScsICc8aW5maWxlLm1hZT4nLCAnLW9tYWUnLCAnPG91dGZpbGUubWFlPic=

> <r_epik_Ionization_Penalty>
0.0129263

> <r_epik_Ionization_Penalty_Charging>
0

> <r_epik_Ionization_Penalty_Neutral>
0.0129263

> <r_epik_State_Penalty>
0.0100328

> <r_epik_Charging_Adjusted_Penalty>
0.0100328

> <i_epik_Tot_Q>
0

> <i_epik_Tot_abs_Q>
0

> <r_epik_Metal_State_Penalty>
0.00981748

> <b_epik_Metal_Only>
0

> <s_lp_Force_Field>
OPLS_2005

> <r_lp_Energy>
11.4517

> <b_lp_Chiralities_Consistent>
1

> <s_lp_Variant>
AV-unprocessed.smi:3246-1

> <Gold.Version>
5.8.1

> <Gold.Id.Protein>
6NUR|6NUR_protein|mol2

> <Gold.PLP.Fitness>
39.6852

> <Gold.PLP.PLP>
-34.2062

> <Gold.PLP.part.hbond>
-2.0406

> <Gold.PLP.part.metal>
0.0000

> <Gold.PLP.part.buried>
0.5864

> <Gold.PLP.part.nonpolar>
-33.0275

> <Gold.PLP.part.repulsive>
0.6484

> <Gold.PLP.ligand.clash>
0.0000

> <Gold.PLP.ligand.torsion>
0.2730

> <Gold.PLP.Chemscore.Hbond>
0.0000

> <Gold.PLP.Chemscore.CHOScore>
2.0000

> <Gold.PLP.Chemscore.Metal>
0.0000

> <Gold.Chemscore.Hbonds>
donor molecule, donor type, donor heavy atom, donor atom, acceptor molecule, acceptor atom, score
      L1  C    16    34       P1  8028  0.96
      L1  C    18    35       P1 10175  0.95

> <Gold.PLP.Chemscore.Internal.Correction>
0.0250

> <Gold.Rescore>
     Score         DG    S(hbond)    S(metal)    S(lipo)     H(rot)  DE(clash)    DE(int)     intcor
      7.99      -9.58       0.00        0.00      75.49       1.85       0.24       1.35       ----

> <Gold.Chemscore.Fitness>
7.9858

> <Gold.Chemscore.DG>
-9.5782

> <Gold.Chemscore.ZeroCoef>
-5.4800

> <Gold.Chemscore.Hbond>
0.0000

> <Gold.Chemscore.Metal>
0.0000

> <Gold.Chemscore.Lipo>
75.4925

> <Gold.Chemscore.Internal_Hbond>
0.0000

> <Gold.Chemscore.DEClash>
0.2375

> <Gold.Chemscore.DEInternal>
1.3549

> <Gold.Chemscore.Rot>
1.8494

> <Gold.Chemscore.Internal.Correction>
   9.000000E+99

> <Gold.Chemscore.Hbond.Weighted>
-0.0000

> <Gold.Chemscore.Metal.Weighted>
-0.0000

> <Gold.Chemscore.Lipo.Weighted>
-8.8326

> <Gold.Chemscore.Internal_Hbond.Weighted>
0.0000

> <Gold.Chemscore.DEClash.Weighted>
0.2375

> <Gold.Chemscore.DEInternal.Weighted>
1.3549

> <Gold.Chemscore.Rot.Weighted>
4.7344

> <Gold.Chemscore.Internal.Correction.Weighted>
   9.000000E+99

> <Gold.Protein.RotatedTorsions>
[ 6907 6896 6895 6894 ] final -164.29 input  -60.11 | X-H torsion
[ 7974 7965 7964 7962 ] final  -47.26 input  175.53 | X-H torsion
[ 8008 7997 7996 7995 ] final  162.18 input   59.86 | X-H torsion
[ 10167 10162 10161 10158 ] final   42.48 input  -65.29 | X-H torsion
[ 10718 10713 10712 10709 ] final   66.39 input   66.30 | X-H torsion
[ 10763 10752 10751 10750 ] final  118.57 input  -60.55 | X-H torsion
[ 11005 11000 10999 10996 ] final -175.48 input  -57.11 | X-H torsion

> <Gold.Protein.ActiveResidues>
 VAL166  LYS551  ARG553  GLY616  TRP617  ASP618  TYR619  PRO620  LYS621  CYS622 
 ASP623  PHE694  ASN695  SER759  ASP760  ASP761  ALA762  ILE779  LEU786  VAL792 
 PHE793  MET794  SER795  GLU796  ALA797  LYS798  CYS799  TRP800  GLU811  SER814 

> <Gold.Protein.RotatedAtoms>
  151.4095  133.3732  159.2741 H   0  0  0  0  0  0  0  0  0  0  0  0  # atno 6907 bound_to 6896
  150.9373  134.8786  159.7600 H   0  0  0  0  0  0  0  0  0  0  0  0  # atno 6908 bound_to 6896
  152.5056  134.4043  159.9479 H   0  0  0  0  0  0  0  0  0  0  0  0  # atno 6909 bound_to 6896
  145.9635  140.7456  142.9446 H   0  0  0  0  0  0  0  0  0  0  0  0  # atno 7974 bound_to 7965
  156.2050  140.1757  156.7819 H   0  0  0  0  0  0  0  0  0  0  0  0  # atno 8008 bound_to 7997
  154.5642  140.0694  156.8897 H   0  0  0  0  0  0  0  0  0  0  0  0  # atno 8009 bound_to 7997
  155.2791  140.3348  155.4262 H   0  0  0  0  0  0  0  0  0  0  0  0  # atno 8010 bound_to 7997
  140.3540  144.2314  150.6143 H   0  0  0  0  0  0  0  0  0  0  0  0  # atno 10167 bound_to 10162
  157.6166  130.9265  150.0102 H   0  0  0  0  0  0  0  0  0  0  0  0  # atno 10718 bound_to 10713
  153.5696  135.3505  155.2832 H   0  0  0  0  0  0  0  0  0  0  0  0  # atno 10763 bound_to 10752
  154.8684  135.4156  154.2739 H   0  0  0  0  0  0  0  0  0  0  0  0  # atno 10764 bound_to 10752
  153.3502  135.7054  153.6864 H   0  0  0  0  0  0  0  0  0  0  0  0  # atno 10765 bound_to 10752
  140.4629  134.6238  157.4850 H   0  0  0  0  0  0  0  0  0  0  0  0  # atno 11005 bound_to 11000
  144.6820  140.2630  143.7316 LP  0  0  0  0  0  0  0  0  0  0  0  0  # atno 17320 bound_to 7965
  145.8007  139.1963  143.2050 LP  0  0  0  0  0  0  0  0  0  0  0  0  # atno 17321 bound_to 7965
  140.5192  143.2270  151.8416 LP  0  0  0  0  0  0  0  0  0  0  0  0  # atno 17342 bound_to 10162
  139.4822  144.4858  151.9249 LP  0  0  0  0  0  0  0  0  0  0  0  0  # atno 17343 bound_to 10162
  156.1291  130.3644  149.9761 LP  0  0  0  0  0  0  0  0  0  0  0  0  # atno 17370 bound_to 10713
  156.7826  130.9227  151.3646 LP  0  0  0  0  0  0  0  0  0  0  0  0  # atno 17371 bound_to 10713
  139.9934  134.6949  155.9651 LP  0  0  0  0  0  0  0  0  0  0  0  0  # atno 17394 bound_to 11000
  141.1613  133.6539  156.4328 LP  0  0  0  0  0  0  0  0  0  0  0  0  # atno 17395 bound_to 11000

$$$$
