AV-unprocessed.smi:486|AV-procd|sdf|2696|dock10
  -GOLD-   2262023133D 1   1.00000     0.00000
 Structure written by MMmdl.
 43 45  0  0  0  0  0  0  0  0  1 V2000
  142.5725  146.8061  154.1202 C   0  0  0  0  0  0  0  0  0  0  0  0
  143.0719  146.0430  153.0316 O   0  0  0  0  0  0  0  0  0  0  0  0
  143.9116  144.9862  153.3115 C   0  0  0  0  0  0  0  0  0  0  0  0
  143.7712  144.3712  154.5710 C   0  0  0  0  0  0  0  0  0  0  0  0
  144.5885  143.2857  154.9380 C   0  0  0  0  0  0  0  0  0  0  0  0
  145.5658  142.7879  154.0546 C   0  0  0  0  0  0  0  0  0  0  0  0
  146.3230  141.7230  154.4940 O   0  0  0  0  0  0  0  0  0  0  0  0
  147.6356  141.5707  153.9705 C   0  0  0  0  0  0  0  0  0  0  0  0
  148.6311  141.4825  155.1417 C   0  0  1  0  0  0  0  0  0  0  0  0
  148.3205  140.3332  155.9017 O   0  0  0  0  0  0  0  0  0  0  0  0
  150.1060  141.3473  154.7065 C   0  0  0  0  0  0  0  0  0  0  0  0
  151.0276  141.2012  155.8250 N   0  0  0  0  0  0  0  0  0  0  0  0
  151.9109  140.1982  156.0525 C   0  0  0  0  0  0  0  0  0  0  0  0
  152.0571  139.0443  155.1119 C   0  0  0  0  0  0  0  0  0  0  0  0
  152.6409  140.3064  157.1628 N   0  0  0  0  0  0  0  0  0  0  0  0
  152.1933  141.4956  157.7052 C   0  0  0  0  0  0  0  0  0  0  0  0
  152.5745  142.1662  158.8893 C   0  0  0  0  0  0  0  0  0  0  0  0
  151.9656  143.3873  159.2460 C   0  0  0  0  0  0  0  0  0  0  0  0
  150.9707  143.9558  158.4246 C   0  0  0  0  0  0  0  0  0  0  0  0
  150.5766  143.3048  157.2399 C   0  0  0  0  0  0  0  0  0  0  0  0
  151.1858  142.0846  156.8895 C   0  0  0  0  0  0  0  0  0  0  0  0
  145.7113  143.4031  152.7865 C   0  0  0  0  0  0  0  0  0  0  0  0
  144.8936  144.4898  152.4192 C   0  0  0  0  0  0  0  0  0  0  0  0
  141.9263  147.5964  153.7383 H   0  0  0  0  0  0  0  0  0  0  0  0
  143.3805  147.2815  154.6778 H   0  0  0  0  0  0  0  0  0  0  0  0
  141.9772  146.1931  154.7983 H   0  0  0  0  0  0  0  0  0  0  0  0
  143.0277  144.7357  155.2648 H   0  0  0  0  0  0  0  0  0  0  0  0
  144.4630  142.8300  155.9093 H   0  0  0  0  0  0  0  0  0  0  0  0
  147.7142  140.6922  153.3275 H   0  0  0  0  0  0  0  0  0  0  0  0
  147.8520  142.4503  153.3649 H   0  0  0  0  0  0  0  0  0  0  0  0
  148.5216  142.3602  155.7786 H   0  0  0  0  0  0  0  0  0  0  0  0
  149.0216  140.1861  156.5184 H   0  0  0  0  0  0  0  0  0  0  0  0
  150.2273  140.4917  154.0415 H   0  0  0  0  0  0  0  0  0  0  0  0
  150.4063  142.2212  154.1266 H   0  0  0  0  0  0  0  0  0  0  0  0
  152.8304  138.3606  155.4636 H   0  0  0  0  0  0  0  0  0  0  0  0
  152.3398  139.3972  154.1199 H   0  0  0  0  0  0  0  0  0  0  0  0
  151.1212  138.4913  155.0390 H   0  0  0  0  0  0  0  0  0  0  0  0
  153.3363  141.7393  159.5248 H   0  0  0  0  0  0  0  0  0  0  0  0
  152.2632  143.8899  160.1546 H   0  0  0  0  0  0  0  0  0  0  0  0
  150.5093  144.8915  158.7051 H   0  0  0  0  0  0  0  0  0  0  0  0
  149.8121  143.7361  156.6111 H   0  0  0  0  0  0  0  0  0  0  0  0
  146.4459  143.0610  152.0736 H   0  0  0  0  0  0  0  0  0  0  0  0
  145.0413  144.9265  151.4434 H   0  0  0  0  0  0  0  0  0  0  0  0
  1  2  1  0  0  0  0
  1 24  1  0  0  0  0
  1 25  1  0  0  0  0
  1 26  1  0  0  0  0
  2  3  1  0  0  0  0
  3 23  1  0  0  0  0
  3  4  2  0  0  0  0
  4  5  1  0  0  0  0
  4 27  1  0  0  0  0
  5  6  2  0  0  0  0
  5 28  1  0  0  0  0
  6  7  1  0  0  0  0
  6 22  1  0  0  0  0
  7  8  1  0  0  0  0
  8  9  1  0  0  0  0
  8 29  1  0  0  0  0
  8 30  1  0  0  0  0
  9 10  1  0  0  0  0
  9 11  1  0  0  0  0
  9 31  1  0  0  0  0
 10 32  1  0  0  0  0
 11 12  1  0  0  0  0
 11 33  1  0  0  0  0
 11 34  1  0  0  0  0
 12 21  1  0  0  0  0
 12 13  1  0  0  0  0
 13 14  1  0  0  0  0
 13 15  2  0  0  0  0
 14 35  1  0  0  0  0
 14 36  1  0  0  0  0
 14 37  1  0  0  0  0
 15 16  1  0  0  0  0
 16 21  2  0  0  0  0
 16 17  1  0  0  0  0
 17 18  2  0  0  0  0
 17 38  1  0  0  0  0
 18 19  1  0  0  0  0
 18 39  1  0  0  0  0
 19 20  2  0  0  0  0
 19 40  1  0  0  0  0
 20 21  1  0  0  0  0
 20 41  1  0  0  0  0
 22 23  2  0  0  0  0
 22 42  1  0  0  0  0
 23 43  1  0  0  0  0
M  END
> <s_m_source_file>
AV-unprocessed.smi

> <i_m_source_file_index>
486

> <i_lp_mmshare_version>
43012

> <i_f3d_flags>
0

> <s_epik_input>
W0NIM11PYzFbY0hdW2NIXWMoW2NIXVtjSF0xKU9bQ0gyXVtDQEhdKFtPSF0pW0NIMl1uKGMobjIpW0NIM10pYyhjMjMpW2NIXVtjSF1bY0hdW2NIXTM=

> <s_epik_cmdline>
J2VwaWtfcHl0aG9uJywgJy1waCcsICc3LjAnLCAnLXRuJywgJzgnLCAnLW1hJywgJzIwMCcsICctbWV0YWxfYmluZGluZycsICctaW1hZScsICc8aW5maWxlLm1hZT4nLCAnLW9tYWUnLCAnPG91dGZpbGUubWFlPic=

> <r_lp_tautomer_probability>
1

> <r_epik_Ionization_Penalty>
0.114052

> <r_epik_Ionization_Penalty_Charging>
0

> <r_epik_Ionization_Penalty_Neutral>
0.114052

> <r_epik_State_Penalty>
0.103717

> <r_epik_Charging_Adjusted_Penalty>
0.103717

> <i_epik_Tot_Q>
0

> <i_epik_Tot_abs_Q>
0

> <r_epik_Metal_State_Penalty>
0.000113338

> <b_epik_Metal_Only>
0

> <s_lp_Force_Field>
OPLS_2005

> <r_lp_Energy>
20.3049

> <b_lp_Chiralities_Consistent>
1

> <s_lp_Variant>
AV-unprocessed.smi:486-2

> <Gold.Version>
5.8.1

> <Gold.Id.Protein>
6NUR|6NUR_protein|mol2

> <Gold.PLP.Fitness>
51.4691

> <Gold.PLP.PLP>
-50.6268

> <Gold.PLP.part.hbond>
-2.7207

> <Gold.PLP.part.metal>
0.0000

> <Gold.PLP.part.buried>
-2.8273

> <Gold.PLP.part.nonpolar>
-44.1095

> <Gold.PLP.part.repulsive>
0.1996

> <Gold.PLP.ligand.clash>
0.0000

> <Gold.PLP.ligand.torsion>
1.1157

> <Gold.PLP.Chemscore.Hbond>
1.0000

> <Gold.PLP.Chemscore.CHOScore>
0.0000

> <Gold.PLP.Chemscore.Metal>
0.0000

> <Gold.Chemscore.Hbonds>
donor molecule, donor type, donor heavy atom, donor atom, acceptor molecule, acceptor atom, score
      P1  H  7997  8009       L1    15  0.96

> <Gold.PLP.Chemscore.Internal.Correction>
0.0738

> <Gold.Rescore>
     Score         DG    S(hbond)    S(metal)    S(lipo)     H(rot)  DE(clash)    DE(int)     intcor
     14.64     -16.26       0.69        0.00     122.70       2.30       0.62       0.99       ----

> <Gold.Chemscore.Fitness>
14.6405

> <Gold.Chemscore.DG>
-16.2580

> <Gold.Chemscore.ZeroCoef>
-5.4800

> <Gold.Chemscore.Hbond>
0.6935

> <Gold.Chemscore.Metal>
0.0000

> <Gold.Chemscore.Lipo>
122.6987

> <Gold.Chemscore.Internal_Hbond>
0.0000

> <Gold.Chemscore.DEClash>
0.6237

> <Gold.Chemscore.DEInternal>
0.9937

> <Gold.Chemscore.Rot>
2.3023

> <Gold.Chemscore.Internal.Correction>
   9.000000E+99

> <Gold.Chemscore.Hbonds>
donor molecule, donor type, donor heavy atom, donor atom, acceptor molecule, acceptor atom, score
      P1  H  7997  8009       L1    15  0.41

> <Gold.Chemscore.Hbond.Weighted>
-2.3163

> <Gold.Chemscore.Metal.Weighted>
-0.0000

> <Gold.Chemscore.Lipo.Weighted>
-14.3557

> <Gold.Chemscore.Internal_Hbond.Weighted>
0.0000

> <Gold.Chemscore.DEClash.Weighted>
0.6237

> <Gold.Chemscore.DEInternal.Weighted>
0.9937

> <Gold.Chemscore.Rot.Weighted>
5.8940

> <Gold.Chemscore.Internal.Correction.Weighted>
   9.000000E+99

> <Gold.Protein.RotatedTorsions>
[ 6907 6896 6895 6894 ] final   86.16 input  -60.11 | X-H torsion
[ 7974 7965 7964 7962 ] final  -57.39 input  175.53 | X-H torsion
[ 8008 7997 7996 7995 ] final -175.07 input   59.86 | X-H torsion
[ 10167 10162 10161 10158 ] final  -43.77 input  -65.29 | X-H torsion
[ 10718 10713 10712 10709 ] final   40.73 input   66.30 | X-H torsion
[ 10763 10752 10751 10750 ] final  107.51 input  -60.55 | X-H torsion
[ 11005 11000 10999 10996 ] final  105.43 input  -57.11 | X-H torsion

> <Gold.Protein.ActiveResidues>
 VAL166  LYS551  ARG553  GLY616  TRP617  ASP618  TYR619  PRO620  LYS621  CYS622 
 ASP623  PHE694  ASN695  SER759  ASP760  ASP761  ALA762  ILE779  LEU786  VAL792 
 PHE793  MET794  SER795  GLU796  ALA797  LYS798  CYS799  TRP800  GLU811  SER814 

> <Gold.Protein.RotatedAtoms>
  152.5389  134.2474  159.8885 H   0  0  0  0  0  0  0  0  0  0  0  0  # atno 6907 bound_to 6896
  151.2439  133.4378  159.2616 H   0  0  0  0  0  0  0  0  0  0  0  0  # atno 6908 bound_to 6896
  151.0601  134.9745  159.8312 H   0  0  0  0  0  0  0  0  0  0  0  0  # atno 6909 bound_to 6896
  145.8516  140.8348  142.9982 H   0  0  0  0  0  0  0  0  0  0  0  0  # atno 7974 bound_to 7965
  155.9780  140.1176  157.0752 H   0  0  0  0  0  0  0  0  0  0  0  0  # atno 8008 bound_to 7997
  154.4175  140.1150  156.5465 H   0  0  0  0  0  0  0  0  0  0  0  0  # atno 8009 bound_to 7997
  155.6508  140.3473  155.4750 H   0  0  0  0  0  0  0  0  0  0  0  0  # atno 8010 bound_to 7997
  140.6922  143.2965  151.3399 H   0  0  0  0  0  0  0  0  0  0  0  0  # atno 10167 bound_to 10162
  157.3855  130.7777  149.7227 H   0  0  0  0  0  0  0  0  0  0  0  0  # atno 10718 bound_to 10713
  153.4078  135.3842  155.2030 H   0  0  0  0  0  0  0  0  0  0  0  0  # atno 10763 bound_to 10752
  154.8735  135.3787  154.4539 H   0  0  0  0  0  0  0  0  0  0  0  0  # atno 10764 bound_to 10752
  153.5043  135.7088  153.5877 H   0  0  0  0  0  0  0  0  0  0  0  0  # atno 10765 bound_to 10752
  139.8802  134.9335  156.5513 H   0  0  0  0  0  0  0  0  0  0  0  0  # atno 11005 bound_to 11000
  144.6729  140.0962  143.7463 LP  0  0  0  0  0  0  0  0  0  0  0  0  # atno 17320 bound_to 7965
  145.9351  139.2631  143.1302 LP  0  0  0  0  0  0  0  0  0  0  0  0  # atno 17321 bound_to 7965
  139.6336  144.0673  152.2497 LP  0  0  0  0  0  0  0  0  0  0  0  0  # atno 17342 bound_to 10162
  140.0155  144.6192  150.7610 LP  0  0  0  0  0  0  0  0  0  0  0  0  # atno 17343 bound_to 10162
  155.9786  130.4050  150.3640 LP  0  0  0  0  0  0  0  0  0  0  0  0  # atno 17370 bound_to 10713
  157.1750  131.0378  151.2777 LP  0  0  0  0  0  0  0  0  0  0  0  0  # atno 17371 bound_to 10713
  140.8238  133.8333  155.8920 LP  0  0  0  0  0  0  0  0  0  0  0  0  # atno 17394 bound_to 11000
  140.9393  134.1921  157.4809 LP  0  0  0  0  0  0  0  0  0  0  0  0  # atno 17395 bound_to 11000

$$$$
