AV-unprocessed.smi:1449|AV-procd|sdf|5895|dock2
  -GOLD-   22720 5583D 1   1.00000     0.00000
 Structure written by MMmdl.
 34 35  0  0  0  0  0  0  0  0  1 V2000
  154.3960  140.4959  161.5395 C   0  0  0  0  0  0  0  0  0  0  0  0
  154.1988  141.8374  161.1069 O   0  0  0  0  0  0  0  0  0  0  0  0
  153.3114  142.0701  160.0763 C   0  0  0  0  0  0  0  0  0  0  0  0
  153.1072  143.3970  159.6494 C   0  0  0  0  0  0  0  0  0  0  0  0
  152.2047  143.6440  158.5972 C   0  0  0  0  0  0  0  0  0  0  0  0
  151.5250  142.5509  158.0084 C   0  0  0  0  0  0  0  0  0  0  0  0
  150.6057  142.6611  156.9302 N   0  0  0  0  0  0  0  0  0  0  0  0
  150.1224  141.6936  156.1259 C   0  0  0  0  0  0  0  0  0  0  0  0
  150.4523  140.5109  156.1742 O   0  0  0  0  0  0  0  0  0  0  0  0
  149.2411  142.1291  155.2075 N   0  0  0  0  0  0  0  0  0  0  0  0
  148.5325  141.3533  154.1885 C   0  0  2  0  0  0  0  0  0  0  0  0
  147.2554  142.0828  153.7314 C   0  0  0  0  0  0  0  0  0  0  0  0
  146.3751  141.0966  152.9536 C   0  0  0  0  0  0  0  0  0  0  0  0
  146.7054  139.4436  153.6735 S   0  0  0  0  0  0  0  0  0  0  0  0
  145.5876  139.0513  154.5448 O   0  0  0  0  0  0  0  0  0  0  0  0
  147.1871  138.5494  152.6097 O   0  0  0  0  0  0  0  0  0  0  0  0
  148.1198  139.9685  154.7130 C   0  0  0  0  0  0  0  0  0  0  0  0
  151.8088  141.2605  158.5013 C   0  0  0  0  0  0  0  0  0  0  0  0
  152.6729  141.0168  159.5090 N   0  0  0  0  0  0  0  0  0  0  0  0
  155.1212  140.4832  162.3530 H   0  0  0  0  0  0  0  0  0  0  0  0
  154.7891  139.8705  160.7367 H   0  0  0  0  0  0  0  0  0  0  0  0
  153.4702  140.0579  161.9152 H   0  0  0  0  0  0  0  0  0  0  0  0
  153.6380  144.2127  160.1177 H   0  0  0  0  0  0  0  0  0  0  0  0
  152.0670  144.6591  158.2600 H   0  0  0  0  0  0  0  0  0  0  0  0
  150.3052  143.6008  156.7165 H   0  0  0  0  0  0  0  0  0  0  0  0
  149.0596  143.1226  155.2027 H   0  0  0  0  0  0  0  0  0  0  0  0
  149.1644  141.2239  153.3079 H   0  0  0  0  0  0  0  0  0  0  0  0
  146.7028  142.4227  154.6085 H   0  0  0  0  0  0  0  0  0  0  0  0
  147.4840  142.9683  153.1376 H   0  0  0  0  0  0  0  0  0  0  0  0
  145.3127  141.3320  153.0190 H   0  0  0  0  0  0  0  0  0  0  0  0
  146.6614  141.0682  151.9020 H   0  0  0  0  0  0  0  0  0  0  0  0
  148.9197  139.2298  154.6582 H   0  0  0  0  0  0  0  0  0  0  0  0
  147.7695  140.0256  155.7443 H   0  0  0  0  0  0  0  0  0  0  0  0
  151.3252  140.3932  158.0757 H   0  0  0  0  0  0  0  0  0  0  0  0
  1  2  1  0  0  0  0
  1 20  1  0  0  0  0
  1 21  1  0  0  0  0
  1 22  1  0  0  0  0
  2  3  1  0  0  0  0
  3 19  1  0  0  0  0
  3  4  2  0  0  0  0
  4  5  1  0  0  0  0
  4 23  1  0  0  0  0
  5  6  2  0  0  0  0
  5 24  1  0  0  0  0
  6  7  1  0  0  0  0
  6 18  1  0  0  0  0
  7  8  1  0  0  0  0
  7 25  1  0  0  0  0
  8  9  2  0  0  0  0
  8 10  1  0  0  0  0
 10 11  1  0  0  0  0
 10 26  1  0  0  0  0
 11 17  1  0  0  0  0
 11 12  1  0  0  0  0
 11 27  1  0  0  0  0
 12 13  1  0  0  0  0
 12 28  1  0  0  0  0
 12 29  1  0  0  0  0
 13 14  1  0  0  0  0
 13 30  1  0  0  0  0
 13 31  1  0  0  0  0
 14 15  2  0  0  0  0
 14 16  2  0  0  0  0
 14 17  1  0  0  0  0
 17 32  1  0  0  0  0
 17 33  1  0  0  0  0
 18 19  2  0  0  0  0
 18 34  1  0  0  0  0
M  END
> <s_m_source_file>
AV-unprocessed.smi

> <i_m_source_file_index>
1449

> <i_lp_mmshare_version>
43012

> <i_f3d_flags>
0

> <s_epik_input>
W0NIM11PYzFbY0hdW2NIXWMoW2NIXW4xKVtOSF1DKD1PKVtOSF1bQ0BASF0oW0NIMl0yKVtDSDJdW0NIMl1TMig9Tyk9Tw==

> <s_epik_cmdline>
J2VwaWtfcHl0aG9uJywgJy1waCcsICc3LjAnLCAnLXRuJywgJzgnLCAnLW1hJywgJzIwMCcsICctbWV0YWxfYmluZGluZycsICctaW1hZScsICc8aW5maWxlLm1hZT4nLCAnLW9tYWUnLCAnPG91dGZpbGUubWFlPic=

> <r_lp_tautomer_probability>
1

> <r_epik_Ionization_Penalty>
7.6506e-05

> <r_epik_Ionization_Penalty_Charging>
0

> <r_epik_Ionization_Penalty_Neutral>
7.6506e-05

> <r_epik_State_Penalty>
-0

> <r_epik_Charging_Adjusted_Penalty>
0

> <i_epik_Tot_Q>
0

> <i_epik_Tot_abs_Q>
0

> <r_epik_Metal_State_Penalty>
-0

> <b_epik_Metal_Only>
0

> <s_lp_Force_Field>
OPLS_2005

> <r_lp_Energy>
18.5668

> <b_lp_Chiralities_Consistent>
1

> <s_lp_Variant>
AV-unprocessed.smi:1449-1

> <Gold.Version>
5.8.1

> <Gold.Id.Protein>
6NUR|6NUR_protein|mol2

> <Gold.PLP.Fitness>
35.4826

> <Gold.PLP.PLP>
-30.7652

> <Gold.PLP.part.hbond>
-3.0000

> <Gold.PLP.part.metal>
0.0000

> <Gold.PLP.part.buried>
-2.7334

> <Gold.PLP.part.nonpolar>
-27.2834

> <Gold.PLP.part.repulsive>
3.1097

> <Gold.PLP.ligand.clash>
0.0000

> <Gold.PLP.ligand.torsion>
0.3654

> <Gold.PLP.Chemscore.Hbond>
1.8151

> <Gold.PLP.Chemscore.CHOScore>
0.0000

> <Gold.PLP.Chemscore.Metal>
0.0000

> <Gold.Chemscore.Hbonds>
donor molecule, donor type, donor heavy atom, donor atom, acceptor molecule, acceptor atom, score
      L1  H     7    25       P1  8028  0.77
      L1  H    10    26       P1  8028  1.00

> <Gold.PLP.Chemscore.Internal.Correction>
0.0029

> <Gold.Rescore>
     Score         DG    S(hbond)    S(metal)    S(lipo)     H(rot)  DE(clash)    DE(int)     intcor
     12.24     -17.78       1.94        0.00      78.52       1.31       2.45       3.08       ----

> <Gold.Chemscore.Fitness>
12.2414

> <Gold.Chemscore.DG>
-17.7784

> <Gold.Chemscore.ZeroCoef>
-5.4800

> <Gold.Chemscore.Hbond>
1.9364

> <Gold.Chemscore.Metal>
0.0000

> <Gold.Chemscore.Lipo>
78.5184

> <Gold.Chemscore.Internal_Hbond>
0.0000

> <Gold.Chemscore.DEClash>
2.4537

> <Gold.Chemscore.DEInternal>
3.0832

> <Gold.Chemscore.Rot>
1.3109

> <Gold.Chemscore.Internal.Correction>
   9.000000E+99

> <Gold.Chemscore.Hbonds>
donor molecule, donor type, donor heavy atom, donor atom, acceptor molecule, acceptor atom, score
      L1  H     7    25       P1  8028  0.74
      L1  H    10    26       P1  8028  1.00

> <Gold.Chemscore.Hbond.Weighted>
-6.4676

> <Gold.Chemscore.Metal.Weighted>
-0.0000

> <Gold.Chemscore.Lipo.Weighted>
-9.1867

> <Gold.Chemscore.Internal_Hbond.Weighted>
0.0000

> <Gold.Chemscore.DEClash.Weighted>
2.4537

> <Gold.Chemscore.DEInternal.Weighted>
3.0832

> <Gold.Chemscore.Rot.Weighted>
3.3559

> <Gold.Chemscore.Internal.Correction.Weighted>
   9.000000E+99

> <Gold.Protein.RotatedTorsions>
[ 6907 6896 6895 6894 ] final  161.05 input  -60.11 | X-H torsion
[ 7974 7965 7964 7962 ] final  -45.42 input  175.53 | X-H torsion
[ 8008 7997 7996 7995 ] final  114.07 input   59.86 | X-H torsion
[ 10167 10162 10161 10158 ] final   41.81 input  -65.29 | X-H torsion
[ 10718 10713 10712 10709 ] final  132.22 input   66.30 | X-H torsion
[ 10763 10752 10751 10750 ] final   54.31 input  -60.55 | X-H torsion
[ 11005 11000 10999 10996 ] final  -41.80 input  -57.11 | X-H torsion

> <Gold.Protein.ActiveResidues>
 VAL166  LYS551  ARG553  GLY616  TRP617  ASP618  TYR619  PRO620  LYS621  CYS622 
 ASP623  PHE694  ASN695  SER759  ASP760  ASP761  ALA762  ILE779  LEU786  VAL792 
 PHE793  MET794  SER795  GLU796  ALA797  LYS798  CYS799  TRP800  GLU811  SER814 

> <Gold.Protein.RotatedAtoms>
  151.9614  133.3696  159.4036 H   0  0  0  0  0  0  0  0  0  0  0  0  # atno 6907 bound_to 6896
  150.6963  134.4236  159.5225 H   0  0  0  0  0  0  0  0  0  0  0  0  # atno 6908 bound_to 6896
  152.1925  134.8659  160.0567 H   0  0  0  0  0  0  0  0  0  0  0  0  # atno 6909 bound_to 6896
  145.9822  140.7271  142.9358 H   0  0  0  0  0  0  0  0  0  0  0  0  # atno 7974 bound_to 7965
  156.2298  140.2966  156.0160 H   0  0  0  0  0  0  0  0  0  0  0  0  # atno 8008 bound_to 7997
  155.2255  140.0417  157.2972 H   0  0  0  0  0  0  0  0  0  0  0  0  # atno 8009 bound_to 7997
  154.5977  140.2418  155.7842 H   0  0  0  0  0  0  0  0  0  0  0  0  # atno 8010 bound_to 7997
  140.3606  144.2233  150.6138 H   0  0  0  0  0  0  0  0  0  0  0  0  # atno 10167 bound_to 10162
  157.4893  131.1090  150.9578 H   0  0  0  0  0  0  0  0  0  0  0  0  # atno 10718 bound_to 10713
  152.9803  135.5749  154.4884 H   0  0  0  0  0  0  0  0  0  0  0  0  # atno 10763 bound_to 10752
  154.4422  135.2776  155.1842 H   0  0  0  0  0  0  0  0  0  0  0  0  # atno 10764 bound_to 10752
  154.3505  135.6210  153.5694 H   0  0  0  0  0  0  0  0  0  0  0  0  # atno 10765 bound_to 10752
  141.0271  133.6836  156.2507 H   0  0  0  0  0  0  0  0  0  0  0  0  # atno 11005 bound_to 11000
  144.6865  140.2928  143.7275 LP  0  0  0  0  0  0  0  0  0  0  0  0  # atno 17320 bound_to 7965
  145.7753  139.1871  143.2189 LP  0  0  0  0  0  0  0  0  0  0  0  0  # atno 17321 bound_to 7965
  140.5130  143.2285  151.8506 LP  0  0  0  0  0  0  0  0  0  0  0  0  # atno 17342 bound_to 10162
  139.4814  144.4927  151.9164 LP  0  0  0  0  0  0  0  0  0  0  0  0  # atno 17343 bound_to 10162
  157.0286  130.5702  149.5340 LP  0  0  0  0  0  0  0  0  0  0  0  0  # atno 17370 bound_to 10713
  156.0164  130.5258  150.8147 LP  0  0  0  0  0  0  0  0  0  0  0  0  # atno 17371 bound_to 10713
  140.6472  134.5105  157.5574 LP  0  0  0  0  0  0  0  0  0  0  0  0  # atno 17394 bound_to 11000
  139.9183  134.8200  156.1293 LP  0  0  0  0  0  0  0  0  0  0  0  0  # atno 17395 bound_to 11000

$$$$
