AV-unprocessed.smi:1641|AV-procd|sdf|6558|dock1
  -GOLD-   22720 7243D 1   1.00000     0.00000
 Structure written by MMmdl.
 41 42  0  0  0  0  0  0  0  0  1 V2000
  144.4123  131.2512  150.7836 C   0  0  0  0  0  0  0  0  0  0  0  0
  144.6956  132.6698  151.1422 C   0  0  0  0  0  0  0  0  0  0  0  0
  143.7286  133.5465  151.4386 N   0  0  0  0  0  0  0  0  0  0  0  0
  144.2328  134.8037  151.7420 N   0  0  0  0  0  0  0  0  0  0  0  0
  145.5703  134.8377  151.6637 C   0  0  0  0  0  0  0  0  0  0  0  0
  146.3475  135.9974  151.9226 N   0  0  0  0  0  0  0  0  0  0  0  0
  145.9280  137.2072  152.3324 C   0  0  0  0  0  0  0  0  0  0  0  0
  144.7597  137.5090  152.5776 O   0  0  0  0  0  0  0  0  0  0  0  0
  146.9552  138.0621  152.4470 N   0  0  0  0  0  0  0  0  0  0  0  0
  146.8497  139.4622  152.8469 C   0  0  0  0  0  0  0  0  0  0  0  0
  146.8781  139.6205  154.3804 C   0  0  0  0  0  0  0  0  0  0  0  0
  148.2046  139.8038  154.9685 N   0  0  0  0  0  0  0  0  0  0  0  0
  149.2153  138.9430  154.3622 C   0  0  0  0  0  0  0  0  0  0  0  0
  150.5893  139.1187  155.0329 C   0  0  1  0  0  0  0  0  0  0  0  0
  151.6759  138.2834  154.3483 C   0  0  0  0  0  0  0  0  0  0  0  0
  150.9763  140.4909  154.9710 O   0  0  0  0  0  0  0  0  0  0  0  0
  150.0293  141.4158  155.5090 C   0  0  2  0  0  0  0  0  0  0  0  0
  150.0032  141.3754  157.0467 C   0  0  0  0  0  0  0  0  0  0  0  0
  148.6443  141.1903  154.8705 C   0  0  0  0  0  0  0  0  0  0  0  0
  146.3281  133.3236  151.2012 S   0  0  0  0  0  0  0  0  0  0  0  0
  143.5958  130.8621  151.3927 H   0  0  0  0  0  0  0  0  0  0  0  0
  145.2955  130.6347  150.9527 H   0  0  0  0  0  0  0  0  0  0  0  0
  144.1314  131.1815  149.7328 H   0  0  0  0  0  0  0  0  0  0  0  0
  147.3408  135.8935  151.7781 H   0  0  0  0  0  0  0  0  0  0  0  0
  147.8803  137.7237  152.2270 H   0  0  0  0  0  0  0  0  0  0  0  0
  147.6096  140.0723  152.3579 H   0  0  0  0  0  0  0  0  0  0  0  0
  145.8938  139.8308  152.4743 H   0  0  0  0  0  0  0  0  0  0  0  0
  146.2377  140.4559  154.6665 H   0  0  0  0  0  0  0  0  0  0  0  0
  146.4147  138.7324  154.8129 H   0  0  0  0  0  0  0  0  0  0  0  0
  148.9228  137.8970  154.4426 H   0  0  0  0  0  0  0  0  0  0  0  0
  149.2960  139.1624  153.2964 H   0  0  0  0  0  0  0  0  0  0  0  0
  150.5257  138.8067  156.0759 H   0  0  0  0  0  0  0  0  0  0  0  0
  151.4341  137.2209  154.3855 H   0  0  0  0  0  0  0  0  0  0  0  0
  152.6402  138.4218  154.8379 H   0  0  0  0  0  0  0  0  0  0  0  0
  151.7893  138.5654  153.3011 H   0  0  0  0  0  0  0  0  0  0  0  0
  150.3737  142.4096  155.2218 H   0  0  0  0  0  0  0  0  0  0  0  0
  149.3613  142.1618  157.4437 H   0  0  0  0  0  0  0  0  0  0  0  0
  151.0021  141.5257  157.4565 H   0  0  0  0  0  0  0  0  0  0  0  0
  149.6253  140.4261  157.4265 H   0  0  0  0  0  0  0  0  0  0  0  0
  148.6862  141.4834  153.8202 H   0  0  0  0  0  0  0  0  0  0  0  0
  147.9146  141.8487  155.3435 H   0  0  0  0  0  0  0  0  0  0  0  0
  1  2  1  0  0  0  0
  1 21  1  0  0  0  0
  1 22  1  0  0  0  0
  1 23  1  0  0  0  0
  2 20  1  0  0  0  0
  2  3  2  0  0  0  0
  3  4  1  0  0  0  0
  4  5  2  0  0  0  0
  5  6  1  0  0  0  0
  5 20  1  0  0  0  0
  6  7  1  0  0  0  0
  6 24  1  0  0  0  0
  7  8  2  0  0  0  0
  7  9  1  0  0  0  0
  9 10  1  0  0  0  0
  9 25  1  0  0  0  0
 10 11  1  0  0  0  0
 10 26  1  0  0  0  0
 10 27  1  0  0  0  0
 11 12  1  0  0  0  0
 11 28  1  0  0  0  0
 11 29  1  0  0  0  0
 12 19  1  0  0  0  0
 12 13  1  0  0  0  0
 13 14  1  0  0  0  0
 13 30  1  0  0  0  0
 13 31  1  0  0  0  0
 14 15  1  0  0  0  0
 14 16  1  0  0  0  0
 14 32  1  0  0  0  0
 15 33  1  0  0  0  0
 15 34  1  0  0  0  0
 15 35  1  0  0  0  0
 16 17  1  0  0  0  0
 17 18  1  0  0  0  0
 17 19  1  0  0  0  0
 17 36  1  0  0  0  0
 18 37  1  0  0  0  0
 18 38  1  0  0  0  0
 18 39  1  0  0  0  0
 19 40  1  0  0  0  0
 19 41  1  0  0  0  0
M  END
> <s_m_source_file>
AV-unprocessed.smi

> <i_m_source_file_index>
1641

> <i_lp_mmshare_version>
43012

> <i_f3d_flags>
0

> <s_epik_input>
W0NIM11jMW5uYyhzMSlbTkhdQyg9TylbTkhdW0NIMl1bQ0gyXU4yW0NIMl1bQ0BASF0oW0NIM10pT1tDQEBIXShbQ0gzXSlbQ0gyXTI=

> <s_epik_cmdline>
J2VwaWtfcHl0aG9uJywgJy1waCcsICc3LjAnLCAnLXRuJywgJzgnLCAnLW1hJywgJzIwMCcsICctbWV0YWxfYmluZGluZycsICctaW1hZScsICc8aW5maWxlLm1hZT4nLCAnLW9tYWUnLCAnPG91dGZpbGUubWFlPic=

> <r_lp_tautomer_probability>
1

> <r_epik_Ionization_Penalty>
0.221104

> <r_epik_Ionization_Penalty_Charging>
0

> <r_epik_Ionization_Penalty_Neutral>
0.221104

> <r_epik_State_Penalty>
0.209349

> <r_epik_Charging_Adjusted_Penalty>
0.209349

> <i_epik_Tot_Q>
0

> <i_epik_Tot_abs_Q>
0

> <r_epik_Metal_State_Penalty>
0.560954

> <b_epik_Metal_Only>
0

> <s_lp_Force_Field>
OPLS_2005

> <r_lp_Energy>
25.2137

> <b_lp_Chiralities_Consistent>
1

> <s_lp_Variant>
AV-unprocessed.smi:1641-3

> <Gold.Version>
5.8.1

> <Gold.Id.Protein>
6NUR|6NUR_protein|mol2

> <Gold.PLP.Fitness>
40.8196

> <Gold.PLP.PLP>
-33.0339

> <Gold.PLP.part.hbond>
-3.0000

> <Gold.PLP.part.metal>
0.0000

> <Gold.PLP.part.buried>
-6.3051

> <Gold.PLP.part.nonpolar>
-25.7863

> <Gold.PLP.part.repulsive>
0.9123

> <Gold.PLP.ligand.clash>
0.0000

> <Gold.PLP.ligand.torsion>
0.5671

> <Gold.PLP.Chemscore.Hbond>
2.9600

> <Gold.PLP.Chemscore.CHOScore>
0.0000

> <Gold.PLP.Chemscore.Metal>
0.0000

> <Gold.Chemscore.Hbonds>
donor molecule, donor type, donor heavy atom, donor atom, acceptor molecule, acceptor atom, score
      L1  H     6    24       P1  7948  1.00
      L1  H     9    25       P1  7948  0.94
      P1  H  7989  7998       L1    16  1.00

> <Gold.PLP.Chemscore.Internal.Correction>
0.0399

> <Gold.Rescore>
     Score         DG    S(hbond)    S(metal)    S(lipo)     H(rot)  DE(clash)    DE(int)     intcor
     17.56     -19.46       2.78        0.00      75.20       1.60       0.03       1.88       ----

> <Gold.Chemscore.Fitness>
17.5564

> <Gold.Chemscore.DG>
-19.4638

> <Gold.Chemscore.ZeroCoef>
-5.4800

> <Gold.Chemscore.Hbond>
2.7770

> <Gold.Chemscore.Metal>
0.0000

> <Gold.Chemscore.Lipo>
75.1989

> <Gold.Chemscore.Internal_Hbond>
0.0000

> <Gold.Chemscore.DEClash>
0.0322

> <Gold.Chemscore.DEInternal>
1.8752

> <Gold.Chemscore.Rot>
1.5975

> <Gold.Chemscore.Internal.Correction>
   9.000000E+99

> <Gold.Chemscore.Hbonds>
donor molecule, donor type, donor heavy atom, donor atom, acceptor molecule, acceptor atom, score
      L1  H     6    24       P1  7948  0.99
      L1  H     9    25       P1  7948  0.91
      P1  H  7989  7998       L1    16  0.73

> <Gold.Chemscore.Hbond.Weighted>
-9.2751

> <Gold.Chemscore.Metal.Weighted>
-0.0000

> <Gold.Chemscore.Lipo.Weighted>
-8.7983

> <Gold.Chemscore.Internal_Hbond.Weighted>
0.0000

> <Gold.Chemscore.DEClash.Weighted>
0.0322

> <Gold.Chemscore.DEInternal.Weighted>
1.8752

> <Gold.Chemscore.Rot.Weighted>
4.0896

> <Gold.Chemscore.Internal.Correction.Weighted>
   9.000000E+99

> <Gold.Protein.RotatedTorsions>
[ 6907 6896 6895 6894 ] final  128.28 input  -60.11 | X-H torsion
[ 7974 7965 7964 7962 ] final   64.21 input  175.53 | X-H torsion
[ 8008 7997 7996 7995 ] final  -60.27 input   59.86 | X-H torsion
[ 10167 10162 10161 10158 ] final  150.90 input  -65.29 | X-H torsion
[ 10718 10713 10712 10709 ] final   32.02 input   66.30 | X-H torsion
[ 10763 10752 10751 10750 ] final   -9.49 input  -60.55 | X-H torsion
[ 11005 11000 10999 10996 ] final  -37.11 input  -57.11 | X-H torsion

> <Gold.Protein.ActiveResidues>
 VAL166  LYS551  ARG553  GLY616  TRP617  ASP618  TYR619  PRO620  LYS621  CYS622 
 ASP623  PHE694  ASN695  SER759  ASP760  ASP761  ALA762  ILE779  LEU786  VAL792 
 PHE793  MET794  SER795  GLU796  ALA797  LYS798  CYS799  TRP800  GLU811  SER814 

> <Gold.Protein.RotatedAtoms>
  152.3734  133.6448  159.6104 H   0  0  0  0  0  0  0  0  0  0  0  0  # atno 6907 bound_to 6896
  150.7685  133.9233  159.3413 H   0  0  0  0  0  0  0  0  0  0  0  0  # atno 6908 bound_to 6896
  151.7052  135.0924  160.0309 H   0  0  0  0  0  0  0  0  0  0  0  0  # atno 6909 bound_to 6896
  145.8529  139.3265  143.0864 H   0  0  0  0  0  0  0  0  0  0  0  0  # atno 7974 bound_to 7965
  154.4391  140.1043  156.6247 H   0  0  0  0  0  0  0  0  0  0  0  0  # atno 8008 bound_to 7997
  155.5669  140.3488  155.4487 H   0  0  0  0  0  0  0  0  0  0  0  0  # atno 8009 bound_to 7997
  156.0418  140.1284  157.0136 H   0  0  0  0  0  0  0  0  0  0  0  0  # atno 8010 bound_to 7997
  139.4845  144.5484  151.7443 H   0  0  0  0  0  0  0  0  0  0  0  0  # atno 10167 bound_to 10162
  157.2799  130.7250  149.6551 H   0  0  0  0  0  0  0  0  0  0  0  0  # atno 10718 bound_to 10713
  153.4556  135.7015  153.6082 H   0  0  0  0  0  0  0  0  0  0  0  0  # atno 10763 bound_to 10752
  153.4398  135.3783  155.2221 H   0  0  0  0  0  0  0  0  0  0  0  0  # atno 10764 bound_to 10752
  154.8728  135.3971  154.3974 H   0  0  0  0  0  0  0  0  0  0  0  0  # atno 10765 bound_to 10752
  140.9926  133.6997  156.1878 H   0  0  0  0  0  0  0  0  0  0  0  0  # atno 11005 bound_to 11000
  145.9337  140.9030  143.0343 LP  0  0  0  0  0  0  0  0  0  0  0  0  # atno 17320 bound_to 7965
  144.6728  140.1453  143.7434 LP  0  0  0  0  0  0  0  0  0  0  0  0  # atno 17321 bound_to 7965
  140.5035  144.1134  150.5977 LP  0  0  0  0  0  0  0  0  0  0  0  0  # atno 17342 bound_to 10162
  140.4035  143.2692  151.9919 LP  0  0  0  0  0  0  0  0  0  0  0  0  # atno 17343 bound_to 10162
  155.9664  130.4341  150.5036 LP  0  0  0  0  0  0  0  0  0  0  0  0  # atno 17370 bound_to 10713
  157.2977  131.0639  151.2090 LP  0  0  0  0  0  0  0  0  0  0  0  0  # atno 17371 bound_to 10713
  140.7016  134.4558  157.5586 LP  0  0  0  0  0  0  0  0  0  0  0  0  # atno 17394 bound_to 11000
  139.8999  134.8579  156.1939 LP  0  0  0  0  0  0  0  0  0  0  0  0  # atno 17395 bound_to 11000

$$$$
