AV-unprocessed.smi:1966|AV-procd|sdf|7953|dock4
  -GOLD-   2272010123D 1   1.00000     0.00000
 Structure written by MMmdl.
 53 54  0  0  0  0  0  0  0  0  1 V2000
  145.7618  134.6735  153.3108 C   0  0  0  0  0  0  0  0  0  0  0  0
  146.9504  134.1991  154.1395 C   0  0  0  0  0  0  0  0  0  0  0  0
  146.7759  133.7454  155.2701 O   0  0  0  0  0  0  0  0  0  0  0  0
  148.1569  134.3114  153.5622 N   0  0  0  0  0  0  0  0  0  0  0  0
  149.4298  133.9063  154.1634 C   0  0  1  0  0  0  0  0  0  0  0  0
  149.8795  134.9920  155.1615 C   0  0  0  0  0  0  0  0  0  0  0  0
  150.1160  134.6900  156.3318 O   0  0  0  0  0  0  0  0  0  0  0  0
  149.9837  136.2350  154.6553 N   0  0  0  0  0  0  0  0  0  0  0  0
  150.3846  137.4360  155.3014 C   0  0  0  0  0  0  0  0  0  0  0  0
  151.0612  138.5039  154.6672 C   0  0  0  0  0  0  0  0  0  0  0  0
  151.3837  139.6497  155.4195 C   0  0  0  0  0  0  0  0  0  0  0  0
  151.0172  139.7087  156.7842 C   0  0  0  0  0  0  0  0  0  0  0  0
  151.3288  140.8514  157.5511 N   0  0  0  0  0  0  0  0  0  0  0  0
  152.4737  140.7836  158.4544 C   0  0  0  0  0  0  0  0  0  0  0  0
  152.4446  141.9626  159.4432 C   0  0  1  0  0  0  0  0  0  0  0  0
  153.6967  141.9997  160.3256 C   0  0  0  0  0  0  0  0  0  0  0  0
  152.3756  143.1908  158.7196 O   0  0  0  0  0  0  0  0  0  0  0  0
  151.2517  143.3073  157.8436 C   0  0  2  0  0  0  0  0  0  0  0  0
  149.9314  143.4917  158.6127 C   0  0  0  0  0  0  0  0  0  0  0  0
  151.2223  142.1282  156.8509 C   0  0  0  0  0  0  0  0  0  0  0  0
  150.3547  138.6902  157.3849 N   0  0  0  0  0  0  0  0  0  0  0  0
  150.0505  137.5930  156.6611 C   0  0  0  0  0  0  0  0  0  0  0  0
  149.2262  132.5497  154.9010 C   0  0  0  0  0  0  0  0  0  0  0  0
  150.5070  132.0316  155.5881 C   0  0  0  0  0  0  0  0  0  0  0  0
  148.6888  131.4594  153.9528 C   0  0  0  0  0  0  0  0  0  0  0  0
  145.7210  134.1389  152.3613 H   0  0  0  0  0  0  0  0  0  0  0  0
  145.8452  135.7407  153.1043 H   0  0  0  0  0  0  0  0  0  0  0  0
  144.8247  134.4998  153.8411 H   0  0  0  0  0  0  0  0  0  0  0  0
  148.1999  134.6909  152.6277 H   0  0  0  0  0  0  0  0  0  0  0  0
  150.1818  133.7835  153.3809 H   0  0  0  0  0  0  0  0  0  0  0  0
  149.6913  136.3411  153.6946 H   0  0  0  0  0  0  0  0  0  0  0  0
  151.3246  138.4808  153.6218 H   0  0  0  0  0  0  0  0  0  0  0  0
  151.8879  140.4750  154.9388 H   0  0  0  0  0  0  0  0  0  0  0  0
  152.4594  139.8456  159.0111 H   0  0  0  0  0  0  0  0  0  0  0  0
  153.3944  140.8027  157.8693 H   0  0  0  0  0  0  0  0  0  0  0  0
  151.5760  141.8717  160.0955 H   0  0  0  0  0  0  0  0  0  0  0  0
  153.7916  141.0845  160.9106 H   0  0  0  0  0  0  0  0  0  0  0  0
  153.6571  142.8367  161.0229 H   0  0  0  0  0  0  0  0  0  0  0  0
  154.6002  142.1088  159.7250 H   0  0  0  0  0  0  0  0  0  0  0  0
  151.4107  144.2199  157.2686 H   0  0  0  0  0  0  0  0  0  0  0  0
  149.1157  143.7240  157.9277 H   0  0  0  0  0  0  0  0  0  0  0  0
  150.0075  144.3135  159.3249 H   0  0  0  0  0  0  0  0  0  0  0  0
  149.6448  142.5957  159.1630 H   0  0  0  0  0  0  0  0  0  0  0  0
  152.0662  142.2092  156.1645 H   0  0  0  0  0  0  0  0  0  0  0  0
  150.3204  142.1875  156.2426 H   0  0  0  0  0  0  0  0  0  0  0  0
  149.5217  136.8126  157.1890 H   0  0  0  0  0  0  0  0  0  0  0  0
  148.4769  132.6912  155.6822 H   0  0  0  0  0  0  0  0  0  0  0  0
  151.3222  131.9210  154.8725 H   0  0  0  0  0  0  0  0  0  0  0  0
  150.3376  131.0577  156.0482 H   0  0  0  0  0  0  0  0  0  0  0  0
  150.8467  132.6967  156.3820 H   0  0  0  0  0  0  0  0  0  0  0  0
  149.3753  131.2854  153.1238 H   0  0  0  0  0  0  0  0  0  0  0  0
  147.7192  131.7249  153.5312 H   0  0  0  0  0  0  0  0  0  0  0  0
  148.5567  130.5126  154.4773 H   0  0  0  0  0  0  0  0  0  0  0  0
  1  2  1  0  0  0  0
  1 26  1  0  0  0  0
  1 27  1  0  0  0  0
  1 28  1  0  0  0  0
  2  3  2  0  0  0  0
  2  4  1  0  0  0  0
  4  5  1  0  0  0  0
  4 29  1  0  0  0  0
  5  6  1  0  0  0  0
  5 23  1  0  0  0  0
  5 30  1  0  0  0  0
  6  7  2  0  0  0  0
  6  8  1  0  0  0  0
  8  9  1  0  0  0  0
  8 31  1  0  0  0  0
  9 22  1  0  0  0  0
  9 10  2  0  0  0  0
 10 11  1  0  0  0  0
 10 32  1  0  0  0  0
 11 12  2  0  0  0  0
 11 33  1  0  0  0  0
 12 13  1  0  0  0  0
 12 21  1  0  0  0  0
 13 20  1  0  0  0  0
 13 14  1  0  0  0  0
 14 15  1  0  0  0  0
 14 34  1  0  0  0  0
 14 35  1  0  0  0  0
 15 16  1  0  0  0  0
 15 17  1  0  0  0  0
 15 36  1  0  0  0  0
 16 37  1  0  0  0  0
 16 38  1  0  0  0  0
 16 39  1  0  0  0  0
 17 18  1  0  0  0  0
 18 19  1  0  0  0  0
 18 20  1  0  0  0  0
 18 40  1  0  0  0  0
 19 41  1  0  0  0  0
 19 42  1  0  0  0  0
 19 43  1  0  0  0  0
 20 44  1  0  0  0  0
 20 45  1  0  0  0  0
 21 22  2  0  0  0  0
 22 46  1  0  0  0  0
 23 24  1  0  0  0  0
 23 25  1  0  0  0  0
 23 47  1  0  0  0  0
 24 48  1  0  0  0  0
 24 49  1  0  0  0  0
 24 50  1  0  0  0  0
 25 51  1  0  0  0  0
 25 52  1  0  0  0  0
 25 53  1  0  0  0  0
M  END
> <s_m_source_file>
AV-unprocessed.smi

> <i_m_source_file_index>
1966

> <i_lp_mmshare_version>
43012

> <i_f3d_flags>
0

> <s_epik_input>
W0NIM11DKD1PKVtOSF1bQ0BASF0oW0NIXShbQ0gzXSlbQ0gzXSlDKD1PKVtOSF1jMVtjSF1bY0hdYyhuW2NIXTEpTjJbQ0gyXVtDQEBIXShbQ0gzXSlPW0NAQEhdKFtDSDNdKVtDSDJdMg==

> <s_epik_cmdline>
J2VwaWtfcHl0aG9uJywgJy1waCcsICc3LjAnLCAnLXRuJywgJzgnLCAnLW1hJywgJzIwMCcsICctbWV0YWxfYmluZGluZycsICctaW1hZScsICc8aW5maWxlLm1hZT4nLCAnLW9tYWUnLCAnPG91dGZpbGUubWFlPic=

> <r_lp_tautomer_probability>
1

> <r_epik_Ionization_Penalty>
0.000679699

> <r_epik_Ionization_Penalty_Charging>
0

> <r_epik_Ionization_Penalty_Neutral>
0.000679699

> <r_epik_State_Penalty>
0.000430485

> <r_epik_Charging_Adjusted_Penalty>
0.000430485

> <i_epik_Tot_Q>
0

> <i_epik_Tot_abs_Q>
0

> <r_epik_Metal_State_Penalty>
-0

> <b_epik_Metal_Only>
0

> <s_lp_Force_Field>
OPLS_2005

> <r_lp_Energy>
28.3815

> <b_lp_Chiralities_Consistent>
1

> <s_lp_Variant>
AV-unprocessed.smi:1966-6

> <Gold.Version>
5.8.1

> <Gold.Id.Protein>
6NUR|6NUR_protein|mol2

> <Gold.PLP.Fitness>
43.0411

> <Gold.PLP.PLP>
-39.7233

> <Gold.PLP.part.hbond>
-2.1076

> <Gold.PLP.part.metal>
0.0000

> <Gold.PLP.part.buried>
-4.9589

> <Gold.PLP.part.nonpolar>
-31.8928

> <Gold.PLP.part.repulsive>
0.0992

> <Gold.PLP.ligand.clash>
0.0000

> <Gold.PLP.ligand.torsion>
1.1080

> <Gold.PLP.Chemscore.Hbond>
1.7200

> <Gold.PLP.Chemscore.CHOScore>
0.0000

> <Gold.PLP.Chemscore.Metal>
0.0000

> <Gold.Chemscore.Hbonds>
donor molecule, donor type, donor heavy atom, donor atom, acceptor molecule, acceptor atom, score
      L1  H     4    29       P1  7948  0.72
      L1  H     8    31       P1  7948  1.00

> <Gold.PLP.Chemscore.Internal.Correction>
0.3738

> <Gold.Rescore>
     Score         DG    S(hbond)    S(metal)    S(lipo)     H(rot)  DE(clash)    DE(int)     intcor
     12.14     -16.93       1.33        0.00      96.68       1.68       0.06       4.74       ----

> <Gold.Chemscore.Fitness>
12.1390

> <Gold.Chemscore.DG>
-16.9340

> <Gold.Chemscore.ZeroCoef>
-5.4800

> <Gold.Chemscore.Hbond>
1.3270

> <Gold.Chemscore.Metal>
0.0000

> <Gold.Chemscore.Lipo>
96.6834

> <Gold.Chemscore.Internal_Hbond>
0.0000

> <Gold.Chemscore.DEClash>
0.0575

> <Gold.Chemscore.DEInternal>
4.7376

> <Gold.Chemscore.Rot>
1.6759

> <Gold.Chemscore.Internal.Correction>
   9.000000E+99

> <Gold.Chemscore.Hbonds>
donor molecule, donor type, donor heavy atom, donor atom, acceptor molecule, acceptor atom, score
      L1  H     4    29       P1  7948  0.36
      L1  H     8    31       P1  7948  0.44

> <Gold.Chemscore.Hbond.Weighted>
-4.4323

> <Gold.Chemscore.Metal.Weighted>
-0.0000

> <Gold.Chemscore.Lipo.Weighted>
-11.3120

> <Gold.Chemscore.Internal_Hbond.Weighted>
0.0000

> <Gold.Chemscore.DEClash.Weighted>
0.0575

> <Gold.Chemscore.DEInternal.Weighted>
4.7376

> <Gold.Chemscore.Rot.Weighted>
4.2902

> <Gold.Chemscore.Internal.Correction.Weighted>
   9.000000E+99

> <Gold.Protein.RotatedTorsions>
[ 6907 6896 6895 6894 ] final  109.43 input  -60.11 | X-H torsion
[ 7974 7965 7964 7962 ] final   94.39 input  175.53 | X-H torsion
[ 8008 7997 7996 7995 ] final   69.07 input   59.86 | X-H torsion
[ 10167 10162 10161 10158 ] final  157.64 input  -65.29 | X-H torsion
[ 10718 10713 10712 10709 ] final  -34.07 input   66.30 | X-H torsion
[ 10763 10752 10751 10750 ] final  -76.91 input  -60.55 | X-H torsion
[ 11005 11000 10999 10996 ] final   77.45 input  -57.11 | X-H torsion

> <Gold.Protein.ActiveResidues>
 VAL166  LYS551  ARG553  GLY616  TRP617  ASP618  TYR619  PRO620  LYS621  CYS622 
 ASP623  PHE694  ASN695  SER759  ASP760  ASP761  ALA762  ILE779  LEU786  VAL792 
 PHE793  MET794  SER795  GLU796  ALA797  LYS798  CYS799  TRP800  GLU811  SER814 

> <Gold.Protein.RotatedAtoms>
  152.5068  133.8946  159.7410 H   0  0  0  0  0  0  0  0  0  0  0  0  # atno 6907 bound_to 6896
  150.9376  133.6685  159.2804 H   0  0  0  0  0  0  0  0  0  0  0  0  # atno 6908 bound_to 6896
  151.4007  135.0975  159.9607 H   0  0  0  0  0  0  0  0  0  0  0  0  # atno 6909 bound_to 6896
  145.4662  139.2284  143.2960 H   0  0  0  0  0  0  0  0  0  0  0  0  # atno 7974 bound_to 7965
  155.7180  140.3493  155.5003 H   0  0  0  0  0  0  0  0  0  0  0  0  # atno 8008 bound_to 7997
  155.9295  140.1081  157.1165 H   0  0  0  0  0  0  0  0  0  0  0  0  # atno 8009 bound_to 7997
  154.4083  140.1234  156.4771 H   0  0  0  0  0  0  0  0  0  0  0  0  # atno 8010 bound_to 7997
  139.4824  144.4899  151.8324 H   0  0  0  0  0  0  0  0  0  0  0  0  # atno 10167 bound_to 10162
  156.3550  130.4314  149.7672 H   0  0  0  0  0  0  0  0  0  0  0  0  # atno 10718 bound_to 10713
  154.5061  135.5781  153.6568 H   0  0  0  0  0  0  0  0  0  0  0  0  # atno 10763 bound_to 10752
  152.9888  135.6147  154.2940 H   0  0  0  0  0  0  0  0  0  0  0  0  # atno 10764 bound_to 10752
  154.2851  135.2850  155.2659 H   0  0  0  0  0  0  0  0  0  0  0  0  # atno 10765 bound_to 10752
  139.9254  134.7684  156.1524 H   0  0  0  0  0  0  0  0  0  0  0  0  # atno 11005 bound_to 11000
  146.2423  140.5436  142.8929 LP  0  0  0  0  0  0  0  0  0  0  0  0  # atno 17320 bound_to 7965
  144.7973  140.6146  143.6502 LP  0  0  0  0  0  0  0  0  0  0  0  0  # atno 17321 bound_to 7965
  140.4382  144.2023  150.5890 LP  0  0  0  0  0  0  0  0  0  0  0  0  # atno 17342 bound_to 10162
  140.4710  143.2413  151.9088 LP  0  0  0  0  0  0  0  0  0  0  0  0  # atno 17343 bound_to 10162
  156.4858  130.8062  151.3074 LP  0  0  0  0  0  0  0  0  0  0  0  0  # atno 17370 bound_to 10713
  157.7466  130.9991  150.2877 LP  0  0  0  0  0  0  0  0  0  0  0  0  # atno 17371 bound_to 10713
  141.0807  133.6755  156.2330 LP  0  0  0  0  0  0  0  0  0  0  0  0  # atno 17394 bound_to 11000
  140.6352  134.5223  157.5564 LP  0  0  0  0  0  0  0  0  0  0  0  0  # atno 17395 bound_to 11000

$$$$
