AV-unprocessed.smi:2844|AV-procd|sdf|10939|dock3
  -GOLD-   2272015383D 1   1.00000     0.00000
 Structure written by MMmdl.
 38 40  0  0  0  0  0  0  0  0  1 V2000
  151.6002  145.6099  160.1236 C   0  0  0  0  0  0  0  0  0  0  0  0
  152.1921  144.2135  160.0464 C   0  0  0  0  0  0  0  0  0  0  0  0
  152.7039  143.6187  161.2216 C   0  0  0  0  0  0  0  0  0  0  0  0
  153.2685  142.3248  161.1914 C   0  0  0  0  0  0  0  0  0  0  0  0
  153.8229  141.5627  162.2054 N   0  0  0  0  0  0  0  0  0  0  0  0
  154.1752  140.4605  161.5495 C   0  0  0  0  0  0  0  0  0  0  0  0
  153.9147  140.4189  160.2286 N   0  0  0  0  0  0  0  0  0  0  0  0
  154.2114  139.3348  159.3097 C   0  0  0  0  0  0  0  0  0  0  0  0
  152.9757  138.8811  158.5102 C   0  0  2  0  0  0  0  0  0  0  0  0
  152.1970  138.0017  159.3004 O   0  0  0  0  0  0  0  0  0  0  0  0
  153.3707  138.1893  157.1912 C   0  0  0  0  0  0  0  0  0  0  0  0
  152.3615  138.3380  156.1573 N   0  0  0  0  0  0  0  0  0  0  0  0
  151.4571  139.3692  155.9926 C   0  0  0  0  0  0  0  0  0  0  0  0
  150.7358  139.0453  154.8842 C   0  0  0  0  0  0  0  0  0  0  0  0
  149.4547  139.9613  154.1819 Cl  0  0  0  0  0  0  0  0  0  0  0  0
  151.2470  137.8063  154.4210 C   0  0  0  0  0  0  0  0  0  0  0  0
  152.2329  137.3841  155.1993 N   0  0  0  0  0  0  0  0  0  0  0  0
  153.3076  141.6368  159.9434 C   0  0  0  0  0  0  0  0  0  0  0  0
  152.7973  142.2159  158.7682 C   0  0  0  0  0  0  0  0  0  0  0  0
  152.2375  143.5100  158.8157 C   0  0  0  0  0  0  0  0  0  0  0  0
  151.6936  144.1299  157.5406 C   0  0  0  0  0  0  0  0  0  0  0  0
  151.6241  145.9970  161.1426 H   0  0  0  0  0  0  0  0  0  0  0  0
  150.5615  145.6048  159.7928 H   0  0  0  0  0  0  0  0  0  0  0  0
  152.1627  146.2975  159.4916 H   0  0  0  0  0  0  0  0  0  0  0  0
  152.6695  144.1541  162.1590 H   0  0  0  0  0  0  0  0  0  0  0  0
  154.6502  139.6343  162.0582 H   0  0  0  0  0  0  0  0  0  0  0  0
  154.9965  139.6706  158.6312 H   0  0  0  0  0  0  0  0  0  0  0  0
  154.6272  138.5005  159.8768 H   0  0  0  0  0  0  0  0  0  0  0  0
  152.3619  139.7536  158.2813 H   0  0  0  0  0  0  0  0  0  0  0  0
  151.3346  137.9378  158.9185 H   0  0  0  0  0  0  0  0  0  0  0  0
  154.3024  138.6115  156.8126 H   0  0  0  0  0  0  0  0  0  0  0  0
  153.5574  137.1268  157.3562 H   0  0  0  0  0  0  0  0  0  0  0  0
  151.4087  140.2172  156.6595 H   0  0  0  0  0  0  0  0  0  0  0  0
  150.9453  137.2141  153.5695 H   0  0  0  0  0  0  0  0  0  0  0  0
  152.8394  141.6690  157.8379 H   0  0  0  0  0  0  0  0  0  0  0  0
  151.8230  143.4632  156.6876 H   0  0  0  0  0  0  0  0  0  0  0  0
  152.2122  145.0625  157.3176 H   0  0  0  0  0  0  0  0  0  0  0  0
  150.6288  144.3405  157.6420 H   0  0  0  0  0  0  0  0  0  0  0  0
  1  2  1  0  0  0  0
  1 22  1  0  0  0  0
  1 23  1  0  0  0  0
  1 24  1  0  0  0  0
  2 20  1  0  0  0  0
  2  3  2  0  0  0  0
  3  4  1  0  0  0  0
  3 25  1  0  0  0  0
  4 18  2  0  0  0  0
  4  5  1  0  0  0  0
  5  6  2  0  0  0  0
  6  7  1  0  0  0  0
  6 26  1  0  0  0  0
  7  8  1  0  0  0  0
  7 18  1  0  0  0  0
  8  9  1  0  0  0  0
  8 27  1  0  0  0  0
  8 28  1  0  0  0  0
  9 10  1  0  0  0  0
  9 11  1  0  0  0  0
  9 29  1  0  0  0  0
 10 30  1  0  0  0  0
 11 12  1  0  0  0  0
 11 31  1  0  0  0  0
 11 32  1  0  0  0  0
 12 17  1  0  0  0  0
 12 13  1  0  0  0  0
 13 14  2  0  0  0  0
 13 33  1  0  0  0  0
 14 15  1  0  0  0  0
 14 16  1  0  0  0  0
 16 17  2  0  0  0  0
 16 34  1  0  0  0  0
 18 19  1  0  0  0  0
 19 20  2  0  0  0  0
 19 35  1  0  0  0  0
 20 21  1  0  0  0  0
 21 36  1  0  0  0  0
 21 37  1  0  0  0  0
 21 38  1  0  0  0  0
M  END
> <s_m_source_file>
AV-unprocessed.smi

> <i_m_source_file_index>
2844

> <i_lp_mmshare_version>
43012

> <i_f3d_flags>
0

> <s_epik_input>
W0NIM11jKFtjSF0xKWMoW0NIM10pW2NIXWMoYzEyKW4oW2NIXW4yKVtDSDJdW0NASF0oW09IXSlbQ0gyXW4zW2NIXWMoQ2wpW2NIXW4z

> <s_epik_cmdline>
J2VwaWtfcHl0aG9uJywgJy1waCcsICc3LjAnLCAnLXRuJywgJzgnLCAnLW1hJywgJzIwMCcsICctbWV0YWxfYmluZGluZycsICctaW1hZScsICc8aW5maWxlLm1hZT4nLCAnLW9tYWUnLCAnPG91dGZpbGUubWFlPic=

> <r_lp_tautomer_probability>
1

> <r_epik_Ionization_Penalty>
0.1021

> <r_epik_Ionization_Penalty_Charging>
0

> <r_epik_Ionization_Penalty_Neutral>
0.1021

> <r_epik_State_Penalty>
0.0920694

> <r_epik_Charging_Adjusted_Penalty>
0.0920694

> <i_epik_Tot_Q>
0

> <i_epik_Tot_abs_Q>
0

> <r_epik_Metal_State_Penalty>
0.0784292

> <b_epik_Metal_Only>
0

> <s_lp_Force_Field>
OPLS_2005

> <r_lp_Energy>
10.8301

> <b_lp_Chiralities_Consistent>
1

> <s_lp_Variant>
AV-unprocessed.smi:2844-1

> <Gold.Version>
5.8.1

> <Gold.Id.Protein>
6NUR|6NUR_protein|mol2

> <Gold.PLP.Fitness>
53.1317

> <Gold.PLP.PLP>
-49.4335

> <Gold.PLP.part.hbond>
-1.0073

> <Gold.PLP.part.metal>
0.0000

> <Gold.PLP.part.buried>
-3.1641

> <Gold.PLP.part.nonpolar>
-44.8914

> <Gold.PLP.part.repulsive>
0.0691

> <Gold.PLP.ligand.clash>
0.0000

> <Gold.PLP.ligand.torsion>
0.9721

> <Gold.PLP.Chemscore.Hbond>
0.7520

> <Gold.PLP.Chemscore.CHOScore>
1.1250

> <Gold.PLP.Chemscore.Metal>
0.0000

> <Gold.Chemscore.Hbonds>
donor molecule, donor type, donor heavy atom, donor atom, acceptor molecule, acceptor atom, score
      P1  H 10752 10764       L1    17  0.75
      L1  C    16    34       P1  7948  0.13
      L1  C    16    34       P1  7949  1.00

> <Gold.PLP.Chemscore.Internal.Correction>
0.0112

> <Gold.Rescore>
     Score         DG    S(hbond)    S(metal)    S(lipo)     H(rot)  DE(clash)    DE(int)     intcor
     17.99     -18.89       0.90        0.00     136.09       2.15       0.11       0.79       ----

> <Gold.Chemscore.Fitness>
17.9873

> <Gold.Chemscore.DG>
-18.8918

> <Gold.Chemscore.ZeroCoef>
-5.4800

> <Gold.Chemscore.Hbond>
0.8987

> <Gold.Chemscore.Metal>
0.0000

> <Gold.Chemscore.Lipo>
136.0938

> <Gold.Chemscore.Internal_Hbond>
0.0000

> <Gold.Chemscore.DEClash>
0.1140

> <Gold.Chemscore.DEInternal>
0.7905

> <Gold.Chemscore.Rot>
2.1534

> <Gold.Chemscore.Internal.Correction>
   9.000000E+99

> <Gold.Chemscore.Hbonds>
donor molecule, donor type, donor heavy atom, donor atom, acceptor molecule, acceptor atom, score
      P1  H 10752 10764       L1    17  0.55

> <Gold.Chemscore.Hbond.Weighted>
-3.0015

> <Gold.Chemscore.Metal.Weighted>
-0.0000

> <Gold.Chemscore.Lipo.Weighted>
-15.9230

> <Gold.Chemscore.Internal_Hbond.Weighted>
0.0000

> <Gold.Chemscore.DEClash.Weighted>
0.1140

> <Gold.Chemscore.DEInternal.Weighted>
0.7905

> <Gold.Chemscore.Rot.Weighted>
5.5127

> <Gold.Chemscore.Internal.Correction.Weighted>
   9.000000E+99

> <Gold.Protein.RotatedTorsions>
[ 6907 6896 6895 6894 ] final  -86.38 input  -60.11 | X-H torsion
[ 7974 7965 7964 7962 ] final   35.40 input  175.53 | X-H torsion
[ 8008 7997 7996 7995 ] final  -17.71 input   59.86 | X-H torsion
[ 10167 10162 10161 10158 ] final   33.00 input  -65.29 | X-H torsion
[ 10718 10713 10712 10709 ] final  -56.68 input   66.30 | X-H torsion
[ 10763 10752 10751 10750 ] final  -61.92 input  -60.55 | X-H torsion
[ 11005 11000 10999 10996 ] final   96.21 input  -57.11 | X-H torsion

> <Gold.Protein.ActiveResidues>
 VAL166  LYS551  ARG553  GLY616  TRP617  ASP618  TYR619  PRO620  LYS621  CYS622 
 ASP623  PHE694  ASN695  SER759  ASP760  ASP761  ALA762  ILE779  LEU786  VAL792 
 PHE793  MET794  SER795  GLU796  ALA797  LYS798  CYS799  TRP800  GLU811  SER814 

> <Gold.Protein.RotatedAtoms>
  150.6867  134.3060  159.4726 H   0  0  0  0  0  0  0  0  0  0  0  0  # atno 6907 bound_to 6896
  152.0951  134.9378  160.0580 H   0  0  0  0  0  0  0  0  0  0  0  0  # atno 6908 bound_to 6896
  152.0679  133.4058  159.4483 H   0  0  0  0  0  0  0  0  0  0  0  0  # atno 6909 bound_to 6896
  146.1286  139.6148  142.9242 H   0  0  0  0  0  0  0  0  0  0  0  0  # atno 7974 bound_to 7965
  154.4958  140.2135  155.9450 H   0  0  0  0  0  0  0  0  0  0  0  0  # atno 8008 bound_to 7997
  156.1368  140.3187  155.8402 H   0  0  0  0  0  0  0  0  0  0  0  0  # atno 8009 bound_to 7997
  155.4194  140.0496  157.3017 H   0  0  0  0  0  0  0  0  0  0  0  0  # atno 8010 bound_to 7997
  140.4448  144.1135  150.6180 H   0  0  0  0  0  0  0  0  0  0  0  0  # atno 10167 bound_to 10162
  156.1269  130.4162  150.0338 H   0  0  0  0  0  0  0  0  0  0  0  0  # atno 10718 bound_to 10713
  154.2920  135.6251  153.5389 H   0  0  0  0  0  0  0  0  0  0  0  0  # atno 10763 bound_to 10752
  152.9851  135.5658  154.5380 H   0  0  0  0  0  0  0  0  0  0  0  0  # atno 10764 bound_to 10752
  154.4992  135.2871  155.1410 H   0  0  0  0  0  0  0  0  0  0  0  0  # atno 10765 bound_to 10752
  139.8783  134.8939  156.4124 H   0  0  0  0  0  0  0  0  0  0  0  0  # atno 11005 bound_to 11000
  145.5311  141.0427  143.2382 LP  0  0  0  0  0  0  0  0  0  0  0  0  # atno 17320 bound_to 7965
  144.7667  139.6828  143.7212 LP  0  0  0  0  0  0  0  0  0  0  0  0  # atno 17321 bound_to 7965
  140.4277  143.2582  151.9635 LP  0  0  0  0  0  0  0  0  0  0  0  0  # atno 17342 bound_to 10162
  139.4792  144.5773  151.7991 LP  0  0  0  0  0  0  0  0  0  0  0  0  # atno 17343 bound_to 10162
  156.8261  130.9376  151.3639 LP  0  0  0  0  0  0  0  0  0  0  0  0  # atno 17370 bound_to 10713
  157.6450  130.8837  149.9522 LP  0  0  0  0  0  0  0  0  0  0  0  0  # atno 17371 bound_to 10713
  140.9191  133.7658  155.9884 LP  0  0  0  0  0  0  0  0  0  0  0  0  # atno 17394 bound_to 11000
  140.8460  134.3010  157.5294 LP  0  0  0  0  0  0  0  0  0  0  0  0  # atno 17395 bound_to 11000

$$$$
