AV-unprocessed.smi:1972|AV-procd|sdf|7975|dock10
  -GOLD-   2272010153D 1   1.00000     0.00000
 Structure written by MMmdl.
 44 45  0  0  0  0  0  0  0  0  1 V2000
  150.3104  130.9783  153.2849 C   0  0  0  0  0  0  0  0  0  0  0  0
  150.4086  131.9669  154.7995 S   0  0  0  0  0  0  0  0  0  0  0  0
  150.2405  133.6284  154.0853 C   0  0  0  0  0  0  0  0  0  0  0  0
  151.0223  134.6873  154.8827 C   0  0  0  0  0  0  0  0  0  0  0  0
  150.4786  136.1064  154.6901 C   0  0  0  0  0  0  0  0  0  0  0  0
  149.3241  136.3787  155.0194 O   0  0  0  0  0  0  0  0  0  0  0  0
  151.3215  136.9991  154.1510 N   0  0  0  0  0  0  0  0  0  0  0  0
  151.0087  138.4035  153.9120 C   0  0  0  0  0  0  0  0  0  0  0  0
  151.3479  139.3088  155.0856 C   0  0  0  0  0  0  0  0  0  0  0  0
  150.4716  140.3203  155.5322 C   0  0  0  0  0  0  0  0  0  0  0  0
  150.8572  141.1282  156.6190 C   0  0  0  0  0  0  0  0  0  0  0  0
  152.1132  140.9085  157.2333 C   0  0  0  0  0  0  0  0  0  0  0  0
  152.5196  141.7048  158.3263 N   0  0  0  0  0  0  0  0  0  0  0  0
  152.8951  141.0284  159.5663 C   0  0  0  0  0  0  0  0  0  0  0  0
  153.5805  142.0139  160.5265 C   0  0  0  0  0  0  0  0  0  0  0  0
  152.7338  143.1375  160.7440 O   0  0  0  0  0  0  0  0  0  0  0  0
  152.4702  143.8521  159.5397 C   0  0  2  0  0  0  0  0  0  0  0  0
  151.6342  145.0885  159.8870 C   0  0  0  0  0  0  0  0  0  0  0  0
  151.7455  142.9240  158.5455 C   0  0  0  0  0  0  0  0  0  0  0  0
  152.9585  139.9450  156.7905 N   0  0  0  0  0  0  0  0  0  0  0  0
  152.5839  139.1730  155.7487 C   0  0  0  0  0  0  0  0  0  0  0  0
  150.3985  129.9180  153.5216 H   0  0  0  0  0  0  0  0  0  0  0  0
  151.1144  131.2488  152.6006 H   0  0  0  0  0  0  0  0  0  0  0  0
  149.3561  131.1426  152.7843 H   0  0  0  0  0  0  0  0  0  0  0  0
  150.6129  133.5967  153.0611 H   0  0  0  0  0  0  0  0  0  0  0  0
  149.1830  133.8880  154.0228 H   0  0  0  0  0  0  0  0  0  0  0  0
  151.0363  134.4231  155.9413 H   0  0  0  0  0  0  0  0  0  0  0  0
  152.0619  134.6883  154.5540 H   0  0  0  0  0  0  0  0  0  0  0  0
  152.2498  136.6884  153.9033 H   0  0  0  0  0  0  0  0  0  0  0  0
  151.5535  138.7344  153.0267 H   0  0  0  0  0  0  0  0  0  0  0  0
  149.9455  138.5230  153.6958 H   0  0  0  0  0  0  0  0  0  0  0  0
  149.5190  140.4869  155.0515 H   0  0  0  0  0  0  0  0  0  0  0  0
  150.1957  141.9127  156.9549 H   0  0  0  0  0  0  0  0  0  0  0  0
  152.0026  140.6110  160.0347 H   0  0  0  0  0  0  0  0  0  0  0  0
  153.5728  140.1997  159.3565 H   0  0  0  0  0  0  0  0  0  0  0  0
  153.7799  141.5290  161.4821 H   0  0  0  0  0  0  0  0  0  0  0  0
  154.5426  142.3402  160.1282 H   0  0  0  0  0  0  0  0  0  0  0  0
  153.4160  144.1845  159.1078 H   0  0  0  0  0  0  0  0  0  0  0  0
  151.4174  145.6785  158.9961 H   0  0  0  0  0  0  0  0  0  0  0  0
  152.1636  145.7312  160.5905 H   0  0  0  0  0  0  0  0  0  0  0  0
  150.6841  144.8070  160.3423 H   0  0  0  0  0  0  0  0  0  0  0  0
  151.5756  143.4647  157.6157 H   0  0  0  0  0  0  0  0  0  0  0  0
  150.7644  142.6490  158.9350 H   0  0  0  0  0  0  0  0  0  0  0  0
  153.2950  138.4220  155.4373 H   0  0  0  0  0  0  0  0  0  0  0  0
  1  2  1  0  0  0  0
  1 22  1  0  0  0  0
  1 23  1  0  0  0  0
  1 24  1  0  0  0  0
  2  3  1  0  0  0  0
  3  4  1  0  0  0  0
  3 25  1  0  0  0  0
  3 26  1  0  0  0  0
  4  5  1  0  0  0  0
  4 27  1  0  0  0  0
  4 28  1  0  0  0  0
  5  6  2  0  0  0  0
  5  7  1  0  0  0  0
  7  8  1  0  0  0  0
  7 29  1  0  0  0  0
  8  9  1  0  0  0  0
  8 30  1  0  0  0  0
  8 31  1  0  0  0  0
  9 21  1  0  0  0  0
  9 10  2  0  0  0  0
 10 11  1  0  0  0  0
 10 32  1  0  0  0  0
 11 12  2  0  0  0  0
 11 33  1  0  0  0  0
 12 13  1  0  0  0  0
 12 20  1  0  0  0  0
 13 19  1  0  0  0  0
 13 14  1  0  0  0  0
 14 15  1  0  0  0  0
 14 34  1  0  0  0  0
 14 35  1  0  0  0  0
 15 16  1  0  0  0  0
 15 36  1  0  0  0  0
 15 37  1  0  0  0  0
 16 17  1  0  0  0  0
 17 18  1  0  0  0  0
 17 19  1  0  0  0  0
 17 38  1  0  0  0  0
 18 39  1  0  0  0  0
 18 40  1  0  0  0  0
 18 41  1  0  0  0  0
 19 42  1  0  0  0  0
 19 43  1  0  0  0  0
 20 21  2  0  0  0  0
 21 44  1  0  0  0  0
M  END
> <s_m_source_file>
AV-unprocessed.smi

> <i_m_source_file_index>
1972

> <i_lp_mmshare_version>
43012

> <i_f3d_flags>
0

> <s_epik_input>
W0NIM11TW0NIMl1bQ0gyXUMoPU8pW05IXVtDSDJdYzFbY0hdW2NIXWMobltjSF0xKU4yW0NIMl1bQ0gyXU9bQ0BASF0oW0NIM10pW0NIMl0y

> <s_epik_cmdline>
J2VwaWtfcHl0aG9uJywgJy1waCcsICc3LjAnLCAnLXRuJywgJzgnLCAnLW1hJywgJzIwMCcsICctbWV0YWxfYmluZGluZycsICctaW1hZScsICc8aW5maWxlLm1hZT4nLCAnLW9tYWUnLCAnPG91dGZpbGUubWFlPic=

> <r_lp_tautomer_probability>
1

> <r_epik_Ionization_Penalty>
0.00559088

> <r_epik_Ionization_Penalty_Charging>
0

> <r_epik_Ionization_Penalty_Neutral>
0.00559088

> <r_epik_State_Penalty>
0.00409544

> <r_epik_Charging_Adjusted_Penalty>
0.00409544

> <i_epik_Tot_Q>
0

> <i_epik_Tot_abs_Q>
0

> <r_epik_Metal_State_Penalty>
-0

> <b_epik_Metal_Only>
0

> <s_lp_Force_Field>
OPLS_2005

> <r_lp_Energy>
17.9422

> <b_lp_Chiralities_Consistent>
1

> <s_lp_Variant>
AV-unprocessed.smi:1972-2

> <Gold.Version>
5.8.1

> <Gold.Id.Protein>
6NUR|6NUR_protein|mol2

> <Gold.PLP.Fitness>
45.9570

> <Gold.PLP.PLP>
-44.6842

> <Gold.PLP.part.hbond>
-2.4542

> <Gold.PLP.part.metal>
0.0000

> <Gold.PLP.part.buried>
-5.1457

> <Gold.PLP.part.nonpolar>
-37.3512

> <Gold.PLP.part.repulsive>
0.2217

> <Gold.PLP.ligand.clash>
0.0000

> <Gold.PLP.ligand.torsion>
0.9149

> <Gold.PLP.Chemscore.Hbond>
0.9120

> <Gold.PLP.Chemscore.CHOScore>
0.0000

> <Gold.PLP.Chemscore.Metal>
0.0000

> <Gold.Chemscore.Hbonds>
donor molecule, donor type, donor heavy atom, donor atom, acceptor molecule, acceptor atom, score
      P1  H  7997  8009       L1    20  0.55

> <Gold.PLP.Chemscore.Internal.Correction>
0.3665

> <Gold.Rescore>
     Score         DG    S(hbond)    S(metal)    S(lipo)     H(rot)  DE(clash)    DE(int)     intcor
     13.35     -14.20       0.00        0.00     112.64       1.75       0.07       0.78       ----

> <Gold.Chemscore.Fitness>
13.3514

> <Gold.Chemscore.DG>
-14.1994

> <Gold.Chemscore.ZeroCoef>
-5.4800

> <Gold.Chemscore.Hbond>
0.0031

> <Gold.Chemscore.Metal>
0.0000

> <Gold.Chemscore.Lipo>
112.6399

> <Gold.Chemscore.Internal_Hbond>
0.0000

> <Gold.Chemscore.DEClash>
0.0675

> <Gold.Chemscore.DEInternal>
0.7806

> <Gold.Chemscore.Rot>
1.7460

> <Gold.Chemscore.Internal.Correction>
   9.000000E+99

> <Gold.Chemscore.Hbonds>
donor molecule, donor type, donor heavy atom, donor atom, acceptor molecule, acceptor atom, score
      P1  H  7997  8009       L1    20  0.04

> <Gold.Chemscore.Hbond.Weighted>
-0.0102

> <Gold.Chemscore.Metal.Weighted>
-0.0000

> <Gold.Chemscore.Lipo.Weighted>
-13.1789

> <Gold.Chemscore.Internal_Hbond.Weighted>
0.0000

> <Gold.Chemscore.DEClash.Weighted>
0.0675

> <Gold.Chemscore.DEInternal.Weighted>
0.7806

> <Gold.Chemscore.Rot.Weighted>
4.4697

> <Gold.Chemscore.Internal.Correction.Weighted>
   9.000000E+99

> <Gold.Protein.RotatedTorsions>
[ 6907 6896 6895 6894 ] final  -70.99 input  -60.11 | X-H torsion
[ 7974 7965 7964 7962 ] final  -73.77 input  175.53 | X-H torsion
[ 8008 7997 7996 7995 ] final -155.54 input   59.86 | X-H torsion
[ 10167 10162 10161 10158 ] final   95.66 input  -65.29 | X-H torsion
[ 10718 10713 10712 10709 ] final   42.06 input   66.30 | X-H torsion
[ 10763 10752 10751 10750 ] final -137.12 input  -60.55 | X-H torsion
[ 11005 11000 10999 10996 ] final  141.07 input  -57.11 | X-H torsion

> <Gold.Protein.ActiveResidues>
 VAL166  LYS551  ARG553  GLY616  TRP617  ASP618  TYR619  PRO620  LYS621  CYS622 
 ASP623  PHE694  ASN695  SER759  ASP760  ASP761  ALA762  ILE779  LEU786  VAL792 
 PHE793  MET794  SER795  GLU796  ALA797  LYS798  CYS799  TRP800  GLU811  SER814 

> <Gold.Protein.RotatedAtoms>
  150.7232  134.5373  159.5729 H   0  0  0  0  0  0  0  0  0  0  0  0  # atno 6907 bound_to 6896
  152.2892  134.7738  160.0390 H   0  0  0  0  0  0  0  0  0  0  0  0  # atno 6908 bound_to 6896
  151.8357  133.3380  159.3664 H   0  0  0  0  0  0  0  0  0  0  0  0  # atno 6909 bound_to 6896
  145.6478  140.9292  143.1001 H   0  0  0  0  0  0  0  0  0  0  0  0  # atno 7974 bound_to 7965
  155.7034  140.0769  157.2401 H   0  0  0  0  0  0  0  0  0  0  0  0  # atno 8008 bound_to 7997
  154.4069  140.1643  156.2269 H   0  0  0  0  0  0  0  0  0  0  0  0  # atno 8009 bound_to 7997
  155.9348  140.3389  155.6281 H   0  0  0  0  0  0  0  0  0  0  0  0  # atno 8010 bound_to 7997
  139.7967  144.6830  150.9819 H   0  0  0  0  0  0  0  0  0  0  0  0  # atno 10167 bound_to 10162
  157.4006  130.7858  149.7345 H   0  0  0  0  0  0  0  0  0  0  0  0  # atno 10718 bound_to 10713
  154.8669  135.3652  154.5172 H   0  0  0  0  0  0  0  0  0  0  0  0  # atno 10763 bound_to 10752
  153.5804  135.7018  153.5470 H   0  0  0  0  0  0  0  0  0  0  0  0  # atno 10764 bound_to 10752
  153.3462  135.4084  155.1573 H   0  0  0  0  0  0  0  0  0  0  0  0  # atno 10765 bound_to 10752
  140.0374  134.9322  157.0779 H   0  0  0  0  0  0  0  0  0  0  0  0  # atno 11005 bound_to 11000
  144.7134  139.8287  143.7407 LP  0  0  0  0  0  0  0  0  0  0  0  0  # atno 17320 bound_to 7965
  146.1229  139.4250  143.0217 LP  0  0  0  0  0  0  0  0  0  0  0  0  # atno 17321 bound_to 7965
  140.7820  143.4323  151.0675 LP  0  0  0  0  0  0  0  0  0  0  0  0  # atno 17342 bound_to 10162
  139.7997  143.8101  152.3161 LP  0  0  0  0  0  0  0  0  0  0  0  0  # atno 17343 bound_to 10162
  155.9822  130.4012  150.3428 LP  0  0  0  0  0  0  0  0  0  0  0  0  # atno 17370 bound_to 10713
  157.1555  131.0332  151.2865 LP  0  0  0  0  0  0  0  0  0  0  0  0  # atno 17371 bound_to 10713
  140.4125  134.1966  155.7163 LP  0  0  0  0  0  0  0  0  0  0  0  0  # atno 17394 bound_to 11000
  141.1865  133.8301  157.1067 LP  0  0  0  0  0  0  0  0  0  0  0  0  # atno 17395 bound_to 11000

$$$$
