AV-unprocessed.smi:2302|AV-procd|sdf|9241|dock3
  -GOLD-   2272012463D 1   1.00000     0.00000
 Structure written by MMmdl.
 39 40  0  0  0  0  0  0  0  0  1 V2000
  145.8071  131.8135  149.2857 C   0  0  0  0  0  0  0  0  0  0  0  0
  145.2455  132.8350  150.2524 C   0  0  0  0  0  0  0  0  0  0  0  0
  143.9626  132.6747  150.8117 C   0  0  0  0  0  0  0  0  0  0  0  0
  143.4984  133.6622  151.6988 C   0  0  0  0  0  0  0  0  0  0  0  0
  144.3300  134.7614  151.9881 C   0  0  0  0  0  0  0  0  0  0  0  0
  145.6044  134.8473  151.3835 C   0  0  0  0  0  0  0  0  0  0  0  0
  146.3629  135.9953  151.7361 N   0  0  0  0  0  0  0  0  0  0  0  0
  145.9214  137.1581  152.2473 C   0  0  0  0  0  0  0  0  0  0  0  0
  144.7431  137.4338  152.4751 O   0  0  0  0  0  0  0  0  0  0  0  0
  146.9377  138.0003  152.4838 N   0  0  0  0  0  0  0  0  0  0  0  0
  146.8028  139.3492  153.0275 C   0  0  0  0  0  0  0  0  0  0  0  0
  147.7768  139.6227  154.1893 C   0  0  1  0  0  0  0  0  0  0  0  0
  149.2200  139.1479  153.9132 C   0  0  0  0  0  0  0  0  0  0  0  0
  150.1108  139.4577  155.0236 N   0  0  0  0  0  0  0  0  0  0  0  0
  151.4702  139.0091  154.7635 C   0  0  0  0  0  0  0  0  0  0  0  0
  150.0600  140.8861  155.3053 C   0  0  0  0  0  0  0  0  0  0  0  0
  148.6228  141.3599  155.5804 C   0  0  0  0  0  0  0  0  0  0  0  0
  147.7855  141.0193  154.4798 O   0  0  0  0  0  0  0  0  0  0  0  0
  146.0424  133.8895  150.5286 N   0  0  0  0  0  0  0  0  0  0  0  0
  145.2206  130.8944  149.2991 H   0  0  0  0  0  0  0  0  0  0  0  0
  146.8355  131.5625  149.5472 H   0  0  0  0  0  0  0  0  0  0  0  0
  145.7974  132.2113  148.2706 H   0  0  0  0  0  0  0  0  0  0  0  0
  143.3485  131.8200  150.5683 H   0  0  0  0  0  0  0  0  0  0  0  0
  142.5206  133.5792  152.1499 H   0  0  0  0  0  0  0  0  0  0  0  0
  143.9881  135.5291  152.6671 H   0  0  0  0  0  0  0  0  0  0  0  0
  147.3588  135.9176  151.5932 H   0  0  0  0  0  0  0  0  0  0  0  0
  147.8732  137.6899  152.2666 H   0  0  0  0  0  0  0  0  0  0  0  0
  146.9320  140.0967  152.2430 H   0  0  0  0  0  0  0  0  0  0  0  0
  145.7779  139.4597  153.3822 H   0  0  0  0  0  0  0  0  0  0  0  0
  147.3979  139.0997  155.0693 H   0  0  0  0  0  0  0  0  0  0  0  0
  149.2195  138.0725  153.7314 H   0  0  0  0  0  0  0  0  0  0  0  0
  149.5970  139.6178  153.0034 H   0  0  0  0  0  0  0  0  0  0  0  0
  152.1147  139.2159  155.6185 H   0  0  0  0  0  0  0  0  0  0  0  0
  151.8913  139.5104  153.8910 H   0  0  0  0  0  0  0  0  0  0  0  0
  151.4940  137.9341  154.5829 H   0  0  0  0  0  0  0  0  0  0  0  0
  150.6894  141.1170  156.1655 H   0  0  0  0  0  0  0  0  0  0  0  0
  150.4674  141.4444  154.4608 H   0  0  0  0  0  0  0  0  0  0  0  0
  148.2351  140.9066  156.4939 H   0  0  0  0  0  0  0  0  0  0  0  0
  148.6006  142.4402  155.7242 H   0  0  0  0  0  0  0  0  0  0  0  0
  1  2  1  0  0  0  0
  1 20  1  0  0  0  0
  1 21  1  0  0  0  0
  1 22  1  0  0  0  0
  2 19  1  0  0  0  0
  2  3  2  0  0  0  0
  3  4  1  0  0  0  0
  3 23  1  0  0  0  0
  4  5  2  0  0  0  0
  4 24  1  0  0  0  0
  5  6  1  0  0  0  0
  5 25  1  0  0  0  0
  6  7  1  0  0  0  0
  6 19  2  0  0  0  0
  7  8  1  0  0  0  0
  7 26  1  0  0  0  0
  8  9  2  0  0  0  0
  8 10  1  0  0  0  0
 10 11  1  0  0  0  0
 10 27  1  0  0  0  0
 11 12  1  0  0  0  0
 11 28  1  0  0  0  0
 11 29  1  0  0  0  0
 12 18  1  0  0  0  0
 12 13  1  0  0  0  0
 12 30  1  0  0  0  0
 13 14  1  0  0  0  0
 13 31  1  0  0  0  0
 13 32  1  0  0  0  0
 14 15  1  0  0  0  0
 14 16  1  0  0  0  0
 15 33  1  0  0  0  0
 15 34  1  0  0  0  0
 15 35  1  0  0  0  0
 16 17  1  0  0  0  0
 16 36  1  0  0  0  0
 16 37  1  0  0  0  0
 17 18  1  0  0  0  0
 17 38  1  0  0  0  0
 17 39  1  0  0  0  0
M  END
> <s_m_source_file>
AV-unprocessed.smi

> <i_m_source_file_index>
2302

> <i_lp_mmshare_version>
43012

> <i_f3d_flags>
0

> <s_epik_input>
W0NIM11jMVtjSF1bY0hdW2NIXWMobjEpW05IXUMoPU8pW05IXVtDSDJdW0NAQEhdMltDSDJdTihbQ0gzXSlbQ0gyXVtDSDJdTzI=

> <s_epik_cmdline>
J2VwaWtfcHl0aG9uJywgJy1waCcsICc3LjAnLCAnLXRuJywgJzgnLCAnLW1hJywgJzIwMCcsICctbWV0YWxfYmluZGluZycsICctaW1hZScsICc8aW5maWxlLm1hZT4nLCAnLW9tYWUnLCAnPG91dGZpbGUubWFlPic=

> <r_epik_Ionization_Penalty>
0.729465

> <r_epik_Ionization_Penalty_Charging>
0

> <r_epik_Ionization_Penalty_Neutral>
0.729465

> <r_epik_State_Penalty>
0.754525

> <r_epik_Charging_Adjusted_Penalty>
0.754525

> <i_epik_Tot_Q>
0

> <i_epik_Tot_abs_Q>
0

> <r_epik_Metal_State_Penalty>
0.754521

> <b_epik_Metal_Only>
0

> <s_lp_Force_Field>
OPLS_2005

> <r_lp_Energy>
21.4946

> <b_lp_Chiralities_Consistent>
1

> <s_lp_Variant>
AV-unprocessed.smi:2302-6

> <Gold.Version>
5.8.1

> <Gold.Id.Protein>
6NUR|6NUR_protein|mol2

> <Gold.PLP.Fitness>
38.4139

> <Gold.PLP.PLP>
-33.1898

> <Gold.PLP.part.hbond>
-2.0000

> <Gold.PLP.part.metal>
0.0000

> <Gold.PLP.part.buried>
-4.1619

> <Gold.PLP.part.nonpolar>
-28.5012

> <Gold.PLP.part.repulsive>
1.9988

> <Gold.PLP.ligand.clash>
0.0858

> <Gold.PLP.ligand.torsion>
0.2384

> <Gold.PLP.Chemscore.Hbond>
1.9280

> <Gold.PLP.Chemscore.CHOScore>
0.0000

> <Gold.PLP.Chemscore.Metal>
0.0000

> <Gold.Chemscore.Hbonds>
donor molecule, donor type, donor heavy atom, donor atom, acceptor molecule, acceptor atom, score
      L1  H     7    26       P1  7948  1.00
      L1  H    10    27       P1  7948  0.93

> <Gold.PLP.Chemscore.Internal.Correction>
0.0027

> <Gold.Rescore>
     Score         DG    S(hbond)    S(metal)    S(lipo)     H(rot)  DE(clash)    DE(int)     intcor
     16.13     -17.96       1.96        0.00      77.96       1.25       0.16       1.68       ----

> <Gold.Chemscore.Fitness>
16.1284

> <Gold.Chemscore.DG>
-17.9627

> <Gold.Chemscore.ZeroCoef>
-5.4800

> <Gold.Chemscore.Hbond>
1.9650

> <Gold.Chemscore.Metal>
0.0000

> <Gold.Chemscore.Lipo>
77.9594

> <Gold.Chemscore.Internal_Hbond>
0.0000

> <Gold.Chemscore.DEClash>
0.1555

> <Gold.Chemscore.DEInternal>
1.6788

> <Gold.Chemscore.Rot>
1.2506

> <Gold.Chemscore.Internal.Correction>
   9.000000E+99

> <Gold.Chemscore.Hbonds>
donor molecule, donor type, donor heavy atom, donor atom, acceptor molecule, acceptor atom, score
      L1  H     7    26       P1  7948  0.98
      L1  H    10    27       P1  7948  0.91

> <Gold.Chemscore.Hbond.Weighted>
-6.5630

> <Gold.Chemscore.Metal.Weighted>
-0.0000

> <Gold.Chemscore.Lipo.Weighted>
-9.1213

> <Gold.Chemscore.Internal_Hbond.Weighted>
0.0000

> <Gold.Chemscore.DEClash.Weighted>
0.1555

> <Gold.Chemscore.DEInternal.Weighted>
1.6788

> <Gold.Chemscore.Rot.Weighted>
3.2015

> <Gold.Chemscore.Internal.Correction.Weighted>
   9.000000E+99

> <Gold.Protein.RotatedTorsions>
[ 6907 6896 6895 6894 ] final  -52.38 input  -60.11 | X-H torsion
[ 7974 7965 7964 7962 ] final  106.98 input  175.53 | X-H torsion
[ 8008 7997 7996 7995 ] final -113.23 input   59.86 | X-H torsion
[ 10167 10162 10161 10158 ] final -108.02 input  -65.29 | X-H torsion
[ 10718 10713 10712 10709 ] final   36.37 input   66.30 | X-H torsion
[ 10763 10752 10751 10750 ] final  -18.86 input  -60.55 | X-H torsion
[ 11005 11000 10999 10996 ] final  -14.83 input  -57.11 | X-H torsion

> <Gold.Protein.ActiveResidues>
 VAL166  LYS551  ARG553  GLY616  TRP617  ASP618  TYR619  PRO620  LYS621  CYS622 
 ASP623  PHE694  ASN695  SER759  ASP760  ASP761  ALA762  ILE779  LEU786  VAL792 
 PHE793  MET794  SER795  GLU796  ALA797  LYS798  CYS799  TRP800  GLU811  SER814 

> <Gold.Protein.RotatedAtoms>
  150.8523  134.7852  159.7018 H   0  0  0  0  0  0  0  0  0  0  0  0  # atno 6907 bound_to 6896
  152.4584  134.5236  159.9799 H   0  0  0  0  0  0  0  0  0  0  0  0  # atno 6908 bound_to 6896
  151.5354  133.3404  159.2961 H   0  0  0  0  0  0  0  0  0  0  0  0  # atno 6909 bound_to 6896
  145.2996  139.2574  143.3821 H   0  0  0  0  0  0  0  0  0  0  0  0  # atno 7974 bound_to 7965
  155.0174  140.0393  157.2424 H   0  0  0  0  0  0  0  0  0  0  0  0  # atno 8008 bound_to 7997
  154.7407  140.2748  155.6352 H   0  0  0  0  0  0  0  0  0  0  0  0  # atno 8009 bound_to 7997
  156.2863  140.2666  156.2134 H   0  0  0  0  0  0  0  0  0  0  0  0  # atno 8010 bound_to 7997
  140.1707  143.4045  152.1357 H   0  0  0  0  0  0  0  0  0  0  0  0  # atno 10167 bound_to 10162
  157.3340  130.7513  149.6867 H   0  0  0  0  0  0  0  0  0  0  0  0  # atno 10718 bound_to 10713
  153.5959  135.7001  153.5404 H   0  0  0  0  0  0  0  0  0  0  0  0  # atno 10763 bound_to 10752
  153.3138  135.4093  155.1359 H   0  0  0  0  0  0  0  0  0  0  0  0  # atno 10764 bound_to 10752
  154.8592  135.3679  154.5492 H   0  0  0  0  0  0  0  0  0  0  0  0  # atno 10765 bound_to 10752
  140.7904  133.8292  155.9375 H   0  0  0  0  0  0  0  0  0  0  0  0  # atno 11005 bound_to 11000
  146.3157  140.3507  142.8656 LP  0  0  0  0  0  0  0  0  0  0  0  0  # atno 17320 bound_to 7965
  144.9105  140.7751  143.5810 LP  0  0  0  0  0  0  0  0  0  0  0  0  # atno 17321 bound_to 7965
  139.5339  144.7189  151.4959 LP  0  0  0  0  0  0  0  0  0  0  0  0  # atno 17342 bound_to 10162
  140.6584  143.8550  150.6860 LP  0  0  0  0  0  0  0  0  0  0  0  0  # atno 17343 bound_to 10162
  155.9699  130.4187  150.4339 LP  0  0  0  0  0  0  0  0  0  0  0  0  # atno 17370 bound_to 10713
  157.2376  131.0518  151.2456 LP  0  0  0  0  0  0  0  0  0  0  0  0  # atno 17371 bound_to 10713
  140.9395  134.1919  157.4808 LP  0  0  0  0  0  0  0  0  0  0  0  0  # atno 17394 bound_to 11000
  139.8732  134.9866  156.5330 LP  0  0  0  0  0  0  0  0  0  0  0  0  # atno 17395 bound_to 11000

$$$$
