AV-unprocessed.smi:37|AV-procd|sdf|311|dock9
  -GOLD-   2262016123D 1   1.00000     0.00000
 Structure written by MMmdl.
 44 45  0  0  0  0  0  0  0  0  1 V2000
  152.6069  131.0626  156.4237 C   0  0  0  0  0  0  0  0  0  0  0  0
  151.1259  131.4632  156.4601 C   0  0  0  0  0  0  0  0  0  0  0  0
  150.8245  132.4527  157.5835 C   0  0  0  0  0  0  0  0  0  0  0  0
  151.7126  132.8689  158.3277 O   0  0  0  0  0  0  0  0  0  0  0  0
  149.5255  132.7841  157.6465 O   0  0  0  0  0  0  0  0  0  0  0  0
  149.0486  133.5468  158.7418 C   0  0  0  0  0  0  0  0  0  0  0  0
  149.0015  135.0257  158.3389 C   0  0  2  0  0  0  0  0  0  0  0  0
  150.2221  135.6848  158.6569 O   0  0  0  0  0  0  0  0  0  0  0  0
  149.9913  137.0505  158.8464 C   0  0  1  0  0  0  0  0  0  0  0  0
  150.7137  137.8436  157.7806 N   0  0  0  0  0  0  0  0  0  0  0  0
  150.6649  137.4931  156.4362 C   0  0  0  0  0  0  0  0  0  0  0  0
  151.3052  138.1937  155.4708 C   0  0  0  0  0  0  0  0  0  0  0  0
  151.2088  137.7979  154.1902 F   0  0  0  0  0  0  0  0  0  0  0  0
  152.0944  139.3756  155.8061 C   0  0  0  0  0  0  0  0  0  0  0  0
  152.7115  140.0722  155.0027 O   0  0  0  0  0  0  0  0  0  0  0  0
  152.1092  139.6927  157.1676 N   0  0  0  0  0  0  0  0  0  0  0  0
  151.4513  138.9817  158.1725 C   0  0  0  0  0  0  0  0  0  0  0  0
  151.5205  139.3565  159.3423 O   0  0  0  0  0  0  0  0  0  0  0  0
  148.4624  137.2722  158.8383 C   0  0  1  0  0  0  0  0  0  0  0  0
  147.7566  137.9235  157.0841 Br  0  0  0  0  0  0  0  0  0  0  0  0
  147.9441  135.8640  159.0625 C   0  0  2  0  0  0  0  0  0  0  0  0
  147.9430  135.5765  160.4591 O   0  0  0  0  0  0  0  0  0  0  0  0
  147.2005  136.3004  161.3165 C   0  0  0  0  0  0  0  0  0  0  0  0
  146.4926  137.2652  161.0234 O   0  0  0  0  0  0  0  0  0  0  0  0
  147.3245  135.7826  162.7510 C   0  0  0  0  0  0  0  0  0  0  0  0
  147.0532  134.2769  162.8873 C   0  0  0  0  0  0  0  0  0  0  0  0
  152.6380  140.5065  157.4459 H   0  0  0  0  0  0  0  0  0  0  0  0
  152.7854  130.3237  155.6427 H   0  0  0  0  0  0  0  0  0  0  0  0
  152.9222  130.6242  157.3711 H   0  0  0  0  0  0  0  0  0  0  0  0
  153.2487  131.9201  156.2184 H   0  0  0  0  0  0  0  0  0  0  0  0
  150.8356  131.9091  155.5088 H   0  0  0  0  0  0  0  0  0  0  0  0
  150.5062  130.5763  156.5960 H   0  0  0  0  0  0  0  0  0  0  0  0
  148.0480  133.2012  159.0047 H   0  0  0  0  0  0  0  0  0  0  0  0
  149.6872  133.4068  159.6154 H   0  0  0  0  0  0  0  0  0  0  0  0
  148.8330  135.1070  157.2638 H   0  0  0  0  0  0  0  0  0  0  0  0
  150.4586  137.3187  159.7960 H   0  0  0  0  0  0  0  0  0  0  0  0
  150.0896  136.6339  156.1248 H   0  0  0  0  0  0  0  0  0  0  0  0
  148.1622  137.9833  159.6088 H   0  0  0  0  0  0  0  0  0  0  0  0
  146.9562  135.7309  158.6200 H   0  0  0  0  0  0  0  0  0  0  0  0
  148.3277  136.0084  163.1136 H   0  0  0  0  0  0  0  0  0  0  0  0
  146.6296  136.3385  163.3808 H   0  0  0  0  0  0  0  0  0  0  0  0
  147.1528  133.9620  163.9262 H   0  0  0  0  0  0  0  0  0  0  0  0
  147.7574  133.6902  162.2965 H   0  0  0  0  0  0  0  0  0  0  0  0
  146.0436  134.0228  162.5619 H   0  0  0  0  0  0  0  0  0  0  0  0
  1  2  1  0  0  0  0
  1 28  1  0  0  0  0
  1 29  1  0  0  0  0
  1 30  1  0  0  0  0
  2  3  1  0  0  0  0
  2 31  1  0  0  0  0
  2 32  1  0  0  0  0
  3  4  2  0  0  0  0
  3  5  1  0  0  0  0
  5  6  1  0  0  0  0
  6  7  1  0  0  0  0
  6 33  1  0  0  0  0
  6 34  1  0  0  0  0
  7 21  1  0  0  0  0
  7  8  1  0  0  0  0
  7 35  1  0  0  0  0
  8  9  1  0  0  0  0
  9 10  1  0  0  0  0
  9 19  1  0  0  0  0
  9 36  1  0  0  0  0
 10 17  1  0  0  0  0
 10 11  1  0  0  0  0
 11 12  2  0  0  0  0
 11 37  1  0  0  0  0
 12 13  1  0  0  0  0
 12 14  1  0  0  0  0
 14 15  2  0  0  0  0
 14 16  1  0  0  0  0
 16 27  1  0  0  0  0
 16 17  1  0  0  0  0
 17 18  2  0  0  0  0
 19 20  1  0  0  0  0
 19 21  1  0  0  0  0
 19 38  1  0  0  0  0
 21 22  1  0  0  0  0
 21 39  1  0  0  0  0
 22 23  1  0  0  0  0
 23 24  2  0  0  0  0
 23 25  1  0  0  0  0
 25 26  1  0  0  0  0
 25 40  1  0  0  0  0
 25 41  1  0  0  0  0
 26 42  1  0  0  0  0
 26 43  1  0  0  0  0
 26 44  1  0  0  0  0
M  END
> <s_m_source_file>
AV-unprocessed.smi

> <i_m_source_file_index>
37

> <i_lp_mmshare_version>
43012

> <i_f3d_flags>
0

> <s_epik_input>
W0NIM11bQ0gyXUMoPU8pT1tDSDJdW0NAQEhdMU9bQ0BASF0objJbY0hdYyhGKWMoPU8pW25IXWMyPU8pW0NAQEhdKEJyKVtDQEhdMU9DKD1PKVtDSDJdW0NIM10=

> <s_epik_cmdline>
J2VwaWtfcHl0aG9uJywgJy1waCcsICc3LjAnLCAnLXRuJywgJzgnLCAnLW1hJywgJzIwMCcsICctbWV0YWxfYmluZGluZycsICctaW1hZScsICc8aW5maWxlLm1hZT4nLCAnLW9tYWUnLCAnPG91dGZpbGUubWFlPic=

> <r_lp_tautomer_probability>
0.999537

> <r_epik_Ionization_Penalty>
0.104106

> <r_epik_Ionization_Penalty_Charging>
0.104106

> <r_epik_Ionization_Penalty_Neutral>
3.94675e-16

> <r_epik_State_Penalty>
0.0940182

> <r_epik_Charging_Adjusted_Penalty>
0.198124

> <i_epik_Tot_Q>
0

> <i_epik_Tot_abs_Q>
0

> <r_epik_Metal_State_Penalty>
3.05314

> <b_epik_Metal_Only>
0

> <s_epik_Chemistry_Notes>
This compound has an ester and may undergo hydrolysis at high or low pH. This compound contains an acetal/aminal-like group ( X-CH(R)-Y where X, Y are N, S, or O) that may be acid/base labile, releasing an aldehyde.

> <s_lp_Force_Field>
OPLS_2005

> <r_lp_Energy>
26.7513

> <b_lp_Chiralities_Consistent>
1

> <s_lp_Variant>
AV-unprocessed.smi:37-9

> <Gold.Version>
5.8.1

> <Gold.Id.Protein>
6NUR|6NUR_protein|mol2

> <Gold.PLP.Fitness>
47.1025

> <Gold.PLP.PLP>
-36.1102

> <Gold.PLP.part.hbond>
-5.5392

> <Gold.PLP.part.metal>
0.0000

> <Gold.PLP.part.buried>
-3.2588

> <Gold.PLP.part.nonpolar>
-28.8041

> <Gold.PLP.part.repulsive>
0.1503

> <Gold.PLP.ligand.clash>
0.0000

> <Gold.PLP.ligand.torsion>
1.1090

> <Gold.PLP.Chemscore.Hbond>
4.3520

> <Gold.PLP.Chemscore.CHOScore>
0.0000

> <Gold.PLP.Chemscore.Metal>
0.0000

> <Gold.Chemscore.Hbonds>
donor molecule, donor type, donor heavy atom, donor atom, acceptor molecule, acceptor atom, score
      P1  H  6896  6908       L1     8  0.80
      P1  H  6934  6947       L1    24  1.00
      P1  H  7989  7998       L1    15  0.45
      P1  H  7997  8010       L1    15  1.00

> <Gold.PLP.Chemscore.Internal.Correction>
0.1544

> <Gold.Rescore>
     Score         DG    S(hbond)    S(metal)    S(lipo)     H(rot)  DE(clash)    DE(int)     intcor
     12.99     -15.15       3.69        0.00      50.30       3.33       0.01       2.15       ----

> <Gold.Chemscore.Fitness>
12.9892

> <Gold.Chemscore.DG>
-15.1546

> <Gold.Chemscore.ZeroCoef>
-5.4800

> <Gold.Chemscore.Hbond>
3.6871

> <Gold.Chemscore.Metal>
0.0000

> <Gold.Chemscore.Lipo>
50.3004

> <Gold.Chemscore.Internal_Hbond>
0.0000

> <Gold.Chemscore.DEClash>
0.0126

> <Gold.Chemscore.DEInternal>
2.1528

> <Gold.Chemscore.Rot>
3.3303

> <Gold.Chemscore.Internal.Correction>
   9.000000E+99

> <Gold.Chemscore.Hbonds>
donor molecule, donor type, donor heavy atom, donor atom, acceptor molecule, acceptor atom, score
      P1  H  6896  6908       L1     8  0.29
      P1  H  6934  6947       L1    24  0.99
      P1  H  7989  7998       L1    15  0.43
      P1  H  7997  8010       L1    15  0.39

> <Gold.Chemscore.Hbond.Weighted>
-12.3150

> <Gold.Chemscore.Metal.Weighted>
-0.0000

> <Gold.Chemscore.Lipo.Weighted>
-5.8851

> <Gold.Chemscore.Internal_Hbond.Weighted>
0.0000

> <Gold.Chemscore.DEClash.Weighted>
0.0126

> <Gold.Chemscore.DEInternal.Weighted>
2.1528

> <Gold.Chemscore.Rot.Weighted>
8.5256

> <Gold.Chemscore.Internal.Correction.Weighted>
   9.000000E+99

> <Gold.Protein.RotatedTorsions>
[ 6907 6896 6895 6894 ] final -173.61 input  -60.11 | X-H torsion
[ 7974 7965 7964 7962 ] final   97.66 input  175.53 | X-H torsion
[ 8008 7997 7996 7995 ] final  109.04 input   59.86 | X-H torsion
[ 10167 10162 10161 10158 ] final -146.16 input  -65.29 | X-H torsion
[ 10718 10713 10712 10709 ] final  143.40 input   66.30 | X-H torsion
[ 10763 10752 10751 10750 ] final   35.39 input  -60.55 | X-H torsion
[ 11005 11000 10999 10996 ] final   89.27 input  -57.11 | X-H torsion

> <Gold.Protein.ActiveResidues>
 VAL166  LYS551  ARG553  GLY616  TRP617  ASP618  TYR619  PRO620  LYS621  CYS622 
 ASP623  PHE694  ASN695  SER759  ASP760  ASP761  ALA762  ILE779  LEU786  VAL792 
 PHE793  MET794  SER795  GLU796  ALA797  LYS798  CYS799  TRP800  GLU811  SER814 

> <Gold.Protein.RotatedAtoms>
  151.5590  133.3406  159.2967 H   0  0  0  0  0  0  0  0  0  0  0  0  # atno 6907 bound_to 6896
  150.8434  134.7736  159.6961 H   0  0  0  0  0  0  0  0  0  0  0  0  # atno 6908 bound_to 6896
  152.4496  134.5428  159.9896 H   0  0  0  0  0  0  0  0  0  0  0  0  # atno 6909 bound_to 6896
  145.4225  139.2320  143.3188 H   0  0  0  0  0  0  0  0  0  0  0  0  # atno 7974 bound_to 7965
  156.1949  140.3065  155.9408 H   0  0  0  0  0  0  0  0  0  0  0  0  # atno 8008 bound_to 7997
  155.3088  140.0450  157.3051 H   0  0  0  0  0  0  0  0  0  0  0  0  # atno 8009 bound_to 7997
  154.5498  140.2288  155.8513 H   0  0  0  0  0  0  0  0  0  0  0  0  # atno 8010 bound_to 7997
  139.7739  143.8199  152.2629 H   0  0  0  0  0  0  0  0  0  0  0  0  # atno 10167 bound_to 10162
  157.3694  131.0976  151.0842 H   0  0  0  0  0  0  0  0  0  0  0  0  # atno 10718 bound_to 10713
  153.0121  135.6334  154.1819 H   0  0  0  0  0  0  0  0  0  0  0  0  # atno 10763 bound_to 10752
  154.1560  135.2826  155.3124 H   0  0  0  0  0  0  0  0  0  0  0  0  # atno 10764 bound_to 10752
  154.6017  135.5585  153.7442 H   0  0  0  0  0  0  0  0  0  0  0  0  # atno 10765 bound_to 10752
  139.8879  134.8540  156.3118 H   0  0  0  0  0  0  0  0  0  0  0  0  # atno 11005 bound_to 11000
  146.2649  140.4951  142.8838 LP  0  0  0  0  0  0  0  0  0  0  0  0  # atno 17320 bound_to 7965
  144.8236  140.6591  143.6337 LP  0  0  0  0  0  0  0  0  0  0  0  0  # atno 17321 bound_to 7965
  139.8241  144.7283  150.9535 LP  0  0  0  0  0  0  0  0  0  0  0  0  # atno 17342 bound_to 10162
  140.7815  143.4131  151.0960 LP  0  0  0  0  0  0  0  0  0  0  0  0  # atno 17343 bound_to 10162
  157.1952  130.6370  149.5719 LP  0  0  0  0  0  0  0  0  0  0  0  0  # atno 17370 bound_to 10713
  155.9752  130.4709  150.6445 LP  0  0  0  0  0  0  0  0  0  0  0  0  # atno 17371 bound_to 10713
  140.9845  133.7246  156.0722 LP  0  0  0  0  0  0  0  0  0  0  0  0  # atno 17394 bound_to 11000
  140.7706  134.3837  157.5508 LP  0  0  0  0  0  0  0  0  0  0  0  0  # atno 17395 bound_to 11000

$$$$
