AV-unprocessed.smi:1917|AV-procd|sdf|7768|dock10
  -GOLD-   22720 9513D 1   1.00000     0.00000
 Structure written by MMmdl.
 44 45  0  0  0  0  0  0  0  0  1 V2000
  150.0599  132.9720  152.9687 C   0  0  0  0  0  0  0  0  0  0  0  0
  150.7924  133.2651  154.2813 C   0  0  0  0  0  0  0  0  0  0  0  0
  151.8262  132.6396  154.5206 O   0  0  0  0  0  0  0  0  0  0  0  0
  150.2903  134.1930  155.1324 N   0  0  0  0  0  0  0  0  0  0  0  0
  150.9731  134.4573  156.4025 C   0  0  0  0  0  0  0  0  0  0  0  0
  149.0606  134.9635  154.8876 C   0  0  0  0  0  0  0  0  0  0  0  0
  149.2336  136.4602  155.1779 C   0  0  0  0  0  0  0  0  0  0  0  0
  149.4915  136.8578  156.3145 O   0  0  0  0  0  0  0  0  0  0  0  0
  149.0877  137.2842  154.1291 N   0  0  0  0  0  0  0  0  0  0  0  0
  149.2688  138.7325  154.1714 C   0  0  0  0  0  0  0  0  0  0  0  0
  150.5746  139.2046  154.8032 C   0  0  0  0  0  0  0  0  0  0  0  0
  151.7939  138.6672  154.3485 C   0  0  0  0  0  0  0  0  0  0  0  0
  152.9883  139.1127  154.9428 C   0  0  0  0  0  0  0  0  0  0  0  0
  153.0258  140.0332  155.9281 N   0  0  0  0  0  0  0  0  0  0  0  0
  151.8629  140.5615  156.3799 C   0  0  0  0  0  0  0  0  0  0  0  0
  151.9643  141.5391  157.3950 N   0  0  0  0  0  0  0  0  0  0  0  0
  150.8901  142.5185  157.5384 C   0  0  0  0  0  0  0  0  0  0  0  0
  151.3381  143.6832  158.4369 C   0  0  0  0  0  0  0  0  0  0  0  0
  151.8027  143.1776  159.6836 O   0  0  0  0  0  0  0  0  0  0  0  0
  152.9351  142.3307  159.5189 C   0  0  0  0  0  0  0  0  0  0  0  0
  152.5558  141.1108  158.6616 C   0  0  0  0  0  0  0  0  0  0  0  0
  150.6126  140.1606  155.8448 C   0  0  0  0  0  0  0  0  0  0  0  0
  149.0169  132.7118  153.1493 H   0  0  0  0  0  0  0  0  0  0  0  0
  150.5243  132.1322  152.4508 H   0  0  0  0  0  0  0  0  0  0  0  0
  150.0996  133.8353  152.3043 H   0  0  0  0  0  0  0  0  0  0  0  0
  151.9687  134.8670  156.2258 H   0  0  0  0  0  0  0  0  0  0  0  0
  151.0777  133.5396  156.9836 H   0  0  0  0  0  0  0  0  0  0  0  0
  150.4281  135.1696  157.0229 H   0  0  0  0  0  0  0  0  0  0  0  0
  148.7625  134.8317  153.8462 H   0  0  0  0  0  0  0  0  0  0  0  0
  148.2173  134.5883  155.4670 H   0  0  0  0  0  0  0  0  0  0  0  0
  148.8688  136.8780  153.2310 H   0  0  0  0  0  0  0  0  0  0  0  0
  149.2317  139.1064  153.1481 H   0  0  0  0  0  0  0  0  0  0  0  0
  148.4282  139.1893  154.6968 H   0  0  0  0  0  0  0  0  0  0  0  0
  151.8168  137.9298  153.5594 H   0  0  0  0  0  0  0  0  0  0  0  0
  153.9405  138.7211  154.6168 H   0  0  0  0  0  0  0  0  0  0  0  0
  150.6073  142.9159  156.5632 H   0  0  0  0  0  0  0  0  0  0  0  0
  150.0124  142.0316  157.9655 H   0  0  0  0  0  0  0  0  0  0  0  0
  152.1223  144.2679  157.9532 H   0  0  0  0  0  0  0  0  0  0  0  0
  150.5027  144.3603  158.6161 H   0  0  0  0  0  0  0  0  0  0  0  0
  153.7552  142.8867  159.0613 H   0  0  0  0  0  0  0  0  0  0  0  0
  153.2809  142.0054  160.5001 H   0  0  0  0  0  0  0  0  0  0  0  0
  151.8336  140.4902  159.1935 H   0  0  0  0  0  0  0  0  0  0  0  0
  153.4460  140.5015  158.5053 H   0  0  0  0  0  0  0  0  0  0  0  0
  149.6903  140.5731  156.2224 H   0  0  0  0  0  0  0  0  0  0  0  0
  1  2  1  0  0  0  0
  1 23  1  0  0  0  0
  1 24  1  0  0  0  0
  1 25  1  0  0  0  0
  2  3  2  0  0  0  0
  2  4  1  0  0  0  0
  4  5  1  0  0  0  0
  4  6  1  0  0  0  0
  5 26  1  0  0  0  0
  5 27  1  0  0  0  0
  5 28  1  0  0  0  0
  6  7  1  0  0  0  0
  6 29  1  0  0  0  0
  6 30  1  0  0  0  0
  7  8  2  0  0  0  0
  7  9  1  0  0  0  0
  9 10  1  0  0  0  0
  9 31  1  0  0  0  0
 10 11  1  0  0  0  0
 10 32  1  0  0  0  0
 10 33  1  0  0  0  0
 11 22  1  0  0  0  0
 11 12  2  0  0  0  0
 12 13  1  0  0  0  0
 12 34  1  0  0  0  0
 13 14  2  0  0  0  0
 13 35  1  0  0  0  0
 14 15  1  0  0  0  0
 15 16  1  0  0  0  0
 15 22  2  0  0  0  0
 16 21  1  0  0  0  0
 16 17  1  0  0  0  0
 17 18  1  0  0  0  0
 17 36  1  0  0  0  0
 17 37  1  0  0  0  0
 18 19  1  0  0  0  0
 18 38  1  0  0  0  0
 18 39  1  0  0  0  0
 19 20  1  0  0  0  0
 20 21  1  0  0  0  0
 20 40  1  0  0  0  0
 20 41  1  0  0  0  0
 21 42  1  0  0  0  0
 21 43  1  0  0  0  0
 22 44  1  0  0  0  0
M  END
> <s_m_source_file>
AV-unprocessed.smi

> <i_m_source_file_index>
1917

> <i_lp_mmshare_version>
43012

> <i_f3d_flags>
0

> <s_epik_input>
W0NIM11DKD1PKU4oW0NIM10pW0NIMl1DKD1PKVtOSF1bQ0gyXWMxW2NIXVtjSF1uYyhbY0hdMSlOMltDSDJdW0NIMl1PW0NIMl1bQ0gyXTI=

> <s_epik_cmdline>
J2VwaWtfcHl0aG9uJywgJy1waCcsICc3LjAnLCAnLXRuJywgJzgnLCAnLW1hJywgJzIwMCcsICctbWV0YWxfYmluZGluZycsICctaW1hZScsICc8aW5maWxlLm1hZT4nLCAnLW9tYWUnLCAnPG91dGZpbGUubWFlPic=

> <r_lp_tautomer_probability>
1

> <r_epik_Ionization_Penalty>
0.00469141

> <r_epik_Ionization_Penalty_Charging>
0

> <r_epik_Ionization_Penalty_Neutral>
0.00469141

> <r_epik_State_Penalty>
0.00339539

> <r_epik_Charging_Adjusted_Penalty>
0.00339539

> <i_epik_Tot_Q>
0

> <i_epik_Tot_abs_Q>
0

> <r_epik_Metal_State_Penalty>
-0

> <b_epik_Metal_Only>
0

> <s_lp_Force_Field>
OPLS_2005

> <r_lp_Energy>
17.0747

> <b_lp_Chiralities_Consistent>
1

> <s_lp_Variant>
AV-unprocessed.smi:1917-1

> <Gold.Version>
5.8.1

> <Gold.Id.Protein>
6NUR|6NUR_protein|mol2

> <Gold.PLP.Fitness>
43.8329

> <Gold.PLP.PLP>
-38.5780

> <Gold.PLP.part.hbond>
-2.0000

> <Gold.PLP.part.metal>
0.0000

> <Gold.PLP.part.buried>
-3.5627

> <Gold.PLP.part.nonpolar>
-33.4799

> <Gold.PLP.part.repulsive>
0.0259

> <Gold.PLP.ligand.clash>
0.0000

> <Gold.PLP.ligand.torsion>
0.6144

> <Gold.PLP.Chemscore.Hbond>
1.9920

> <Gold.PLP.Chemscore.CHOScore>
0.0000

> <Gold.PLP.Chemscore.Metal>
0.0000

> <Gold.Chemscore.Hbonds>
donor molecule, donor type, donor heavy atom, donor atom, acceptor molecule, acceptor atom, score
      L1  H     9    31       P1  7948  0.93
      P1  H  7997  8008       L1    14  0.55

> <Gold.PLP.Chemscore.Internal.Correction>
0.5078

> <Gold.Rescore>
     Score         DG    S(hbond)    S(metal)    S(lipo)     H(rot)  DE(clash)    DE(int)     intcor
     14.85     -16.42       1.90        0.00      82.84       2.00       0.02       1.55       ----

> <Gold.Chemscore.Fitness>
14.8489

> <Gold.Chemscore.DG>
-16.4197

> <Gold.Chemscore.ZeroCoef>
-5.4800

> <Gold.Chemscore.Hbond>
1.9031

> <Gold.Chemscore.Metal>
0.0000

> <Gold.Chemscore.Lipo>
82.8372

> <Gold.Chemscore.Internal_Hbond>
0.0000

> <Gold.Chemscore.DEClash>
0.0174

> <Gold.Chemscore.DEInternal>
1.5534

> <Gold.Chemscore.Rot>
1.9956

> <Gold.Chemscore.Internal.Correction>
   9.000000E+99

> <Gold.Chemscore.Hbonds>
donor molecule, donor type, donor heavy atom, donor atom, acceptor molecule, acceptor atom, score
      L1  H     9    31       P1  7948  0.88
      P1  H  7997  8008       L1    14  0.25

> <Gold.Chemscore.Hbond.Weighted>
-6.3564

> <Gold.Chemscore.Metal.Weighted>
-0.0000

> <Gold.Chemscore.Lipo.Weighted>
-9.6919

> <Gold.Chemscore.Internal_Hbond.Weighted>
0.0000

> <Gold.Chemscore.DEClash.Weighted>
0.0174

> <Gold.Chemscore.DEInternal.Weighted>
1.5534

> <Gold.Chemscore.Rot.Weighted>
5.1087

> <Gold.Chemscore.Internal.Correction.Weighted>
   9.000000E+99

> <Gold.Protein.RotatedTorsions>
[ 6907 6896 6895 6894 ] final  -46.55 input  -60.11 | X-H torsion
[ 7974 7965 7964 7962 ] final   79.31 input  175.53 | X-H torsion
[ 8008 7997 7996 7995 ] final  -36.70 input   59.86 | X-H torsion
[ 10167 10162 10161 10158 ] final -118.09 input  -65.29 | X-H torsion
[ 10718 10713 10712 10709 ] final  155.68 input   66.30 | X-H torsion
[ 10763 10752 10751 10750 ] final    1.23 input  -60.55 | X-H torsion
[ 11005 11000 10999 10996 ] final -150.00 input  -57.11 | X-H torsion

> <Gold.Protein.ActiveResidues>
 VAL166  LYS551  ARG553  GLY616  TRP617  ASP618  TYR619  PRO620  LYS621  CYS622 
 ASP623  PHE694  ASN695  SER759  ASP760  ASP761  ALA762  ILE779  LEU786  VAL792 
 PHE793  MET794  SER795  GLU796  ALA797  LYS798  CYS799  TRP800  GLU811  SER814 

> <Gold.Protein.RotatedAtoms>
  150.9100  134.8517  159.7418 H   0  0  0  0  0  0  0  0  0  0  0  0  # atno 6907 bound_to 6896
  152.4939  134.4373  159.9542 H   0  0  0  0  0  0  0  0  0  0  0  0  # atno 6908 bound_to 6896
  151.4416  133.3602  159.2818 H   0  0  0  0  0  0  0  0  0  0  0  0  # atno 6909 bound_to 6896
  145.6658  139.2483  143.1896 H   0  0  0  0  0  0  0  0  0  0  0  0  # atno 7974 bound_to 7965
  154.4068  140.1623  156.2417 H   0  0  0  0  0  0  0  0  0  0  0  0  # atno 8008 bound_to 7997
  155.9195  140.3422  155.6139 H   0  0  0  0  0  0  0  0  0  0  0  0  # atno 8009 bound_to 7997
  155.7239  140.0772  157.2309 H   0  0  0  0  0  0  0  0  0  0  0  0  # atno 8010 bound_to 7997
  140.0613  143.4965  152.2030 H   0  0  0  0  0  0  0  0  0  0  0  0  # atno 10167 bound_to 10162
  157.2151  131.0706  151.1946 H   0  0  0  0  0  0  0  0  0  0  0  0  # atno 10718 bound_to 10713
  153.3107  135.6962  153.7118 H   0  0  0  0  0  0  0  0  0  0  0  0  # atno 10763 bound_to 10752
  153.5997  135.3464  155.2941 H   0  0  0  0  0  0  0  0  0  0  0  0  # atno 10764 bound_to 10752
  154.8574  135.4337  154.2244 H   0  0  0  0  0  0  0  0  0  0  0  0  # atno 10765 bound_to 10752
  140.7448  134.3473  157.5139 H   0  0  0  0  0  0  0  0  0  0  0  0  # atno 11005 bound_to 11000
  146.1087  140.7455  142.9514 LP  0  0  0  0  0  0  0  0  0  0  0  0  # atno 17320 bound_to 7965
  144.7073  140.3903  143.7108 LP  0  0  0  0  0  0  0  0  0  0  0  0  # atno 17321 bound_to 7965
  139.5892  144.7543  151.3443 LP  0  0  0  0  0  0  0  0  0  0  0  0  # atno 17342 bound_to 10162
  140.7170  143.7238  150.7675 LP  0  0  0  0  0  0  0  0  0  0  0  0  # atno 17343 bound_to 10162
  157.3633  130.7143  149.6516 LP  0  0  0  0  0  0  0  0  0  0  0  0  # atno 17370 bound_to 10713
  155.9687  130.4219  150.4492 LP  0  0  0  0  0  0  0  0  0  0  0  0  # atno 17371 bound_to 10713
  139.8799  134.9104  156.3013 LP  0  0  0  0  0  0  0  0  0  0  0  0  # atno 17394 bound_to 11000
  140.9804  133.7271  156.0663 LP  0  0  0  0  0  0  0  0  0  0  0  0  # atno 17395 bound_to 11000

$$$$
