AV-unprocessed.smi:193|AV-procd|sdf|1513|dock2
  -GOLD-   2262019343D 1   1.00000     0.00000
 Structure written by MMmdl.
 61 65  0  0  0  0  0  0  0  0  1 V2000
  147.5179  141.1090  153.4772 C   0  0  0  0  0  0  0  0  0  0  0  0
  147.9512  140.9334  154.9399 C   0  0  1  0  0  0  0  0  0  0  0  0
  147.4646  139.5860  155.5173 C   0  0  0  0  0  0  0  0  0  0  0  0
  148.4010  138.4751  155.3521 N   0  0  0  0  0  0  0  0  0  0  0  0
  147.7710  137.3133  155.0416 C   0  0  0  0  0  0  0  0  0  0  0  0
  148.1643  136.1450  155.6179 N   0  0  0  0  0  0  0  0  0  0  0  0
  147.5234  135.0062  155.3389 C   0  0  0  0  0  0  0  0  0  0  0  0
  146.4804  134.8124  154.5299 N   0  0  0  0  0  0  0  0  0  0  0  0
  146.0828  135.9794  153.9468 C   0  0  0  0  0  0  0  0  0  0  0  0
  146.6649  137.2628  154.1486 C   0  0  0  0  0  0  0  0  0  0  0  0
  145.9902  138.2127  153.3926 N   0  0  0  0  0  0  0  0  0  0  0  0
  145.0608  137.5314  152.7806 C   0  0  0  0  0  0  0  0  0  0  0  0
  145.0488  136.1810  153.0489 N   0  0  0  0  0  0  0  0  0  0  0  0
  144.1279  135.1949  152.5042 C   0  0  0  0  0  0  0  0  0  0  0  0
  144.7250  134.3339  151.3627 C   0  0  0  0  0  0  0  0  0  0  0  0
  144.8604  135.1624  150.2214 O   0  0  0  0  0  0  0  0  0  0  0  0
  146.1238  133.8175  151.7560 C   0  0  0  0  0  0  0  0  0  0  0  0
  146.6869  132.8225  150.7257 C   0  0  0  0  0  0  0  0  0  0  0  0
  145.7729  131.7493  150.5355 O   0  0  0  0  0  0  0  0  0  0  0  0
  144.5256  132.1774  150.0024 C   0  0  0  0  0  0  0  0  0  0  0  0
  143.8288  133.1334  150.9869 C   0  0  0  0  0  0  0  0  0  0  0  0
  149.4418  138.3958  156.3789 C   0  0  0  0  0  0  0  0  0  0  0  0
  150.5404  139.4572  156.2244 C   0  0  0  0  0  0  0  0  0  0  0  0
  150.0358  140.8246  156.3608 N   0  0  0  0  0  0  0  0  0  0  0  0
  151.1719  141.6882  156.6454 C   0  0  2  0  0  0  0  0  0  0  0  0
  151.8708  141.5065  157.9740 C   0  0  0  0  0  0  0  0  0  0  0  0
  151.0031  142.7207  157.7396 C   0  0  1  0  0  0  0  0  0  0  0  0
  151.6201  144.0954  157.6034 C   0  0  0  0  0  0  0  0  0  0  0  0
  149.4551  141.2513  155.0865 C   0  0  0  0  0  0  0  0  0  0  0  0
  148.0351  140.4055  152.8253 H   0  0  0  0  0  0  0  0  0  0  0  0
  147.7434  142.1147  153.1210 H   0  0  0  0  0  0  0  0  0  0  0  0
  146.4454  140.9516  153.3577 H   0  0  0  0  0  0  0  0  0  0  0  0
  147.4152  141.6973  155.5046 H   0  0  0  0  0  0  0  0  0  0  0  0
  147.2936  139.7138  156.5870 H   0  0  0  0  0  0  0  0  0  0  0  0
  146.4824  139.3466  155.1062 H   0  0  0  0  0  0  0  0  0  0  0  0
  147.8978  134.1248  155.8381 H   0  0  0  0  0  0  0  0  0  0  0  0
  144.3572  137.9974  152.1062 H   0  0  0  0  0  0  0  0  0  0  0  0
  143.7821  134.5590  153.3207 H   0  0  0  0  0  0  0  0  0  0  0  0
  143.2473  135.7280  152.1439 H   0  0  0  0  0  0  0  0  0  0  0  0
  145.2617  134.6590  149.5297 H   0  0  0  0  0  0  0  0  0  0  0  0
  146.8156  134.6501  151.8901 H   0  0  0  0  0  0  0  0  0  0  0  0
  146.0637  133.3131  152.7212 H   0  0  0  0  0  0  0  0  0  0  0  0
  146.8926  133.3142  149.7738 H   0  0  0  0  0  0  0  0  0  0  0  0
  147.6340  132.4160  151.0808 H   0  0  0  0  0  0  0  0  0  0  0  0
  144.6756  132.6526  149.0316 H   0  0  0  0  0  0  0  0  0  0  0  0
  143.9000  131.3018  149.8293 H   0  0  0  0  0  0  0  0  0  0  0  0
  143.5757  132.5776  151.8907 H   0  0  0  0  0  0  0  0  0  0  0  0
  142.8841  133.4706  150.5587 H   0  0  0  0  0  0  0  0  0  0  0  0
  148.9883  138.4714  157.3683 H   0  0  0  0  0  0  0  0  0  0  0  0
  149.9260  137.4190  156.3366 H   0  0  0  0  0  0  0  0  0  0  0  0
  151.2643  139.2741  157.0196 H   0  0  0  0  0  0  0  0  0  0  0  0
  151.0875  139.3226  155.2901 H   0  0  0  0  0  0  0  0  0  0  0  0
  151.8178  141.9837  155.8200 H   0  0  0  0  0  0  0  0  0  0  0  0
  151.4909  140.7422  158.6495 H   0  0  0  0  0  0  0  0  0  0  0  0
  152.9495  141.6479  157.9933 H   0  0  0  0  0  0  0  0  0  0  0  0
  150.0441  142.7249  158.2547 H   0  0  0  0  0  0  0  0  0  0  0  0
  152.5822  144.0407  157.0932 H   0  0  0  0  0  0  0  0  0  0  0  0
  151.7728  144.5355  158.5888 H   0  0  0  0  0  0  0  0  0  0  0  0
  150.9591  144.7455  157.0303 H   0  0  0  0  0  0  0  0  0  0  0  0
  150.0205  140.8343  154.2516 H   0  0  0  0  0  0  0  0  0  0  0  0
  149.5563  142.3335  154.9866 H   0  0  0  0  0  0  0  0  0  0  0  0
  1  2  1  0  0  0  0
  1 30  1  0  0  0  0
  1 31  1  0  0  0  0
  1 32  1  0  0  0  0
  2 29  1  0  0  0  0
  2  3  1  0  0  0  0
  2 33  1  0  0  0  0
  3  4  1  0  0  0  0
  3 34  1  0  0  0  0
  3 35  1  0  0  0  0
  4  5  1  0  0  0  0
  4 22  1  0  0  0  0
  5 10  1  0  0  0  0
  5  6  2  0  0  0  0
  6  7  1  0  0  0  0
  7  8  2  0  0  0  0
  7 36  1  0  0  0  0
  8  9  1  0  0  0  0
  9 13  1  0  0  0  0
  9 10  2  0  0  0  0
 10 11  1  0  0  0  0
 11 12  2  0  0  0  0
 12 13  1  0  0  0  0
 12 37  1  0  0  0  0
 13 14  1  0  0  0  0
 14 15  1  0  0  0  0
 14 38  1  0  0  0  0
 14 39  1  0  0  0  0
 15 21  1  0  0  0  0
 15 16  1  0  0  0  0
 15 17  1  0  0  0  0
 16 40  1  0  0  0  0
 17 18  1  0  0  0  0
 17 41  1  0  0  0  0
 17 42  1  0  0  0  0
 18 19  1  0  0  0  0
 18 43  1  0  0  0  0
 18 44  1  0  0  0  0
 19 20  1  0  0  0  0
 20 21  1  0  0  0  0
 20 45  1  0  0  0  0
 20 46  1  0  0  0  0
 21 47  1  0  0  0  0
 21 48  1  0  0  0  0
 22 23  1  0  0  0  0
 22 49  1  0  0  0  0
 22 50  1  0  0  0  0
 23 24  1  0  0  0  0
 23 51  1  0  0  0  0
 23 52  1  0  0  0  0
 24 25  1  0  0  0  0
 24 29  1  0  0  0  0
 25 27  1  0  0  0  0
 25 26  1  0  0  0  0
 25 53  1  0  0  0  0
 26 27  1  0  0  0  0
 26 54  1  0  0  0  0
 26 55  1  0  0  0  0
 27 28  1  0  0  0  0
 27 56  1  0  0  0  0
 28 57  1  0  0  0  0
 28 58  1  0  0  0  0
 28 59  1  0  0  0  0
 29 60  1  0  0  0  0
 29 61  1  0  0  0  0
M  END
> <s_m_source_file>
AV-unprocessed.smi

> <i_m_source_file_index>
193

> <i_lp_mmshare_version>
43012

> <i_f3d_flags>
0

> <s_epik_input>
W0NIM11bQ0BASF0xW0NIMl1bQ0BIXTFOKFtDSDJdMilbQ0gyXVtDSDJdTihbQ0gyXVtDQEhdMltDSDNdKWMobltjSF1uMyljKGMzNCluW2NIXW40W0NIMl1DNShbT0hdKVtDSDJdW0NIMl1PW0NIMl1bQ0gyXTU=

> <s_epik_cmdline>
J2VwaWtfcHl0aG9uJywgJy1waCcsICc3LjAnLCAnLXRuJywgJzgnLCAnLW1hJywgJzIwMCcsICctbWV0YWxfYmluZGluZycsICctaW1hZScsICc8aW5maWxlLm1hZT4nLCAnLW9tYWUnLCAnPG91dGZpbGUubWFlPic=

> <r_lp_tautomer_probability>
1

> <r_epik_Ionization_Penalty>
1.45227

> <r_epik_Ionization_Penalty_Charging>
0

> <r_epik_Ionization_Penalty_Neutral>
1.45227

> <r_epik_State_Penalty>
2.02377

> <r_epik_Charging_Adjusted_Penalty>
2.02377

> <i_epik_Tot_Q>
0

> <i_epik_Tot_abs_Q>
0

> <r_epik_Metal_State_Penalty>
2.01937

> <b_epik_Metal_Only>
0

> <s_lp_Force_Field>
OPLS_2005

> <r_lp_Energy>
55.7491

> <b_lp_Chiralities_Consistent>
1

> <s_lp_Variant>
AV-unprocessed.smi:193-18

> <Gold.Version>
5.8.1

> <Gold.Id.Protein>
6NUR|6NUR_protein|mol2

> <Gold.PLP.Fitness>
45.7835

> <Gold.PLP.PLP>
-38.4961

> <Gold.PLP.part.hbond>
-1.0000

> <Gold.PLP.part.metal>
0.0000

> <Gold.PLP.part.buried>
-6.6906

> <Gold.PLP.part.nonpolar>
-32.4760

> <Gold.PLP.part.repulsive>
0.6060

> <Gold.PLP.ligand.clash>
0.0000

> <Gold.PLP.ligand.torsion>
1.3129

> <Gold.PLP.Chemscore.Hbond>
1.0000

> <Gold.PLP.Chemscore.CHOScore>
1.8243

> <Gold.PLP.Chemscore.Metal>
0.0000

> <Gold.Chemscore.Hbonds>
donor molecule, donor type, donor heavy atom, donor atom, acceptor molecule, acceptor atom, score
      L1  H    16    40       P1  7921  0.73
      L1  C    12    37       P1 10171  1.00
      L1  C    12    37       P1 10175  0.76

> <Gold.PLP.Chemscore.Internal.Correction>
1.4403

> <Gold.Rescore>
     Score         DG    S(hbond)    S(metal)    S(lipo)     H(rot)  DE(clash)    DE(int)     intcor
     14.00     -16.34       0.95        0.00     113.04       2.17       0.23       2.12       ----

> <Gold.Chemscore.Fitness>
13.9957

> <Gold.Chemscore.DG>
-16.3429

> <Gold.Chemscore.ZeroCoef>
-5.4800

> <Gold.Chemscore.Hbond>
0.9530

> <Gold.Chemscore.Metal>
0.0000

> <Gold.Chemscore.Lipo>
113.0417

> <Gold.Chemscore.Internal_Hbond>
0.0000

> <Gold.Chemscore.DEClash>
0.2295

> <Gold.Chemscore.DEInternal>
2.1178

> <Gold.Chemscore.Rot>
2.1664

> <Gold.Chemscore.Internal.Correction>
   9.000000E+99

> <Gold.Chemscore.Hbonds>
donor molecule, donor type, donor heavy atom, donor atom, acceptor molecule, acceptor atom, score
      L1  H    16    40       P1  7921  0.70

> <Gold.Chemscore.Hbond.Weighted>
-3.1830

> <Gold.Chemscore.Metal.Weighted>
-0.0000

> <Gold.Chemscore.Lipo.Weighted>
-13.2259

> <Gold.Chemscore.Internal_Hbond.Weighted>
0.0000

> <Gold.Chemscore.DEClash.Weighted>
0.2295

> <Gold.Chemscore.DEInternal.Weighted>
2.1178

> <Gold.Chemscore.Rot.Weighted>
5.5459

> <Gold.Chemscore.Internal.Correction.Weighted>
   9.000000E+99

> <Gold.Protein.RotatedTorsions>
[ 6907 6896 6895 6894 ] final  -55.73 input  -60.11 | X-H torsion
[ 7974 7965 7964 7962 ] final  115.06 input  175.53 | X-H torsion
[ 8008 7997 7996 7995 ] final  -13.83 input   59.86 | X-H torsion
[ 10167 10162 10161 10158 ] final -118.69 input  -65.29 | X-H torsion
[ 10718 10713 10712 10709 ] final   27.37 input   66.30 | X-H torsion
[ 10763 10752 10751 10750 ] final  154.24 input  -60.55 | X-H torsion
[ 11005 11000 10999 10996 ] final  -97.44 input  -57.11 | X-H torsion

> <Gold.Protein.ActiveResidues>
 VAL166  LYS551  ARG553  GLY616  TRP617  ASP618  TYR619  PRO620  LYS621  CYS622 
 ASP623  PHE694  ASN695  SER759  ASP760  ASP761  ALA762  ILE779  LEU786  VAL792 
 PHE793  MET794  SER795  GLU796  ALA797  LYS798  CYS799  TRP800  GLU811  SER814 

> <Gold.Protein.RotatedAtoms>
  150.8227  134.7442  159.6785 H   0  0  0  0  0  0  0  0  0  0  0  0  # atno 6907 bound_to 6896
  152.4341  134.5718  159.9933 H   0  0  0  0  0  0  0  0  0  0  0  0  # atno 6908 bound_to 6896
  151.5898  133.3330  159.3061 H   0  0  0  0  0  0  0  0  0  0  0  0  # atno 6909 bound_to 6896
  145.1967  139.2972  143.4340 H   0  0  0  0  0  0  0  0  0  0  0  0  # atno 7974 bound_to 7965
  154.5260  140.2239  155.8890 H   0  0  0  0  0  0  0  0  0  0  0  0  # atno 8008 bound_to 7997
  156.1713  140.3121  155.8943 H   0  0  0  0  0  0  0  0  0  0  0  0  # atno 8009 bound_to 7997
  155.3552  140.0458  157.3037 H   0  0  0  0  0  0  0  0  0  0  0  0  # atno 8010 bound_to 7997
  140.0548  143.5025  152.2063 H   0  0  0  0  0  0  0  0  0  0  0  0  # atno 10167 bound_to 10162
  157.2193  130.6971  149.6263 H   0  0  0  0  0  0  0  0  0  0  0  0  # atno 10718 bound_to 10713
  154.1492  135.2816  155.3140 H   0  0  0  0  0  0  0  0  0  0  0  0  # atno 10763 bound_to 10752
  154.6230  135.5461  153.7599 H   0  0  0  0  0  0  0  0  0  0  0  0  # atno 10764 bound_to 10752
  153.0226  135.6443  154.1637 H   0  0  0  0  0  0  0  0  0  0  0  0  # atno 10765 bound_to 10752
  141.1379  133.8171  157.0707 H   0  0  0  0  0  0  0  0  0  0  0  0  # atno 11005 bound_to 11000
  146.3426  140.2198  142.8591 LP  0  0  0  0  0  0  0  0  0  0  0  0  # atno 17320 bound_to 7965
  144.9988  140.8613  143.5294 LP  0  0  0  0  0  0  0  0  0  0  0  0  # atno 17321 bound_to 7965
  139.5931  144.7557  151.3353 LP  0  0  0  0  0  0  0  0  0  0  0  0  # atno 17342 bound_to 10162
  140.7200  143.7162  150.7731 LP  0  0  0  0  0  0  0  0  0  0  0  0  # atno 17343 bound_to 10162
  155.9683  130.4525  150.5777 LP  0  0  0  0  0  0  0  0  0  0  0  0  # atno 17370 bound_to 10713
  157.3592  131.0747  151.1650 LP  0  0  0  0  0  0  0  0  0  0  0  0  # atno 17371 bound_to 10713
  140.0513  134.9804  157.1142 LP  0  0  0  0  0  0  0  0  0  0  0  0  # atno 17394 bound_to 11000
  140.3985  134.2108  155.7164 LP  0  0  0  0  0  0  0  0  0  0  0  0  # atno 17395 bound_to 11000

$$$$
