AV-unprocessed.smi:171|AV-procd|sdf|1414|dock7
  -GOLD-   2262019173D 1   1.00000     0.00000
 Structure written by MMmdl.
 56 59  0  0  0  0  0  0  0  0  1 V2000
  146.8699  142.6616  154.6658 C   0  0  0  0  0  0  0  0  0  0  0  0
  147.8669  141.5548  154.2844 C   0  0  0  0  0  0  0  0  0  0  0  0
  147.4966  140.9558  152.9180 C   0  0  0  0  0  0  0  0  0  0  0  0
  147.9702  140.4443  155.3642 C   0  0  0  0  0  0  0  0  0  0  0  0
  148.8659  140.7580  156.5984 C   0  0  2  0  0  0  0  0  0  0  0  0
  148.4932  142.0892  157.2905 C   0  0  0  0  0  0  0  0  0  0  0  0
  147.3137  142.3504  157.5196 O   0  0  0  0  0  0  0  0  0  0  0  0
  149.4735  142.9307  157.6615 N   0  0  0  0  0  0  0  0  0  0  0  0
  150.9009  142.7201  157.4376 C   0  0  0  0  0  0  0  0  0  0  0  0
  151.2432  141.2422  157.2029 C   0  0  0  0  0  0  0  0  0  0  0  0
  150.2961  140.6588  156.2622 N   0  0  0  0  0  0  0  0  0  0  0  0
  150.7216  139.4775  155.7615 C   0  0  0  0  0  0  0  0  0  0  0  0
  151.8986  139.4071  155.0868 N   0  0  0  0  0  0  0  0  0  0  0  0
  152.3247  138.2308  154.6162 C   0  0  0  0  0  0  0  0  0  0  0  0
  151.7442  137.0322  154.7136 N   0  0  0  0  0  0  0  0  0  0  0  0
  150.5604  137.1066  155.3880 C   0  0  0  0  0  0  0  0  0  0  0  0
  149.9746  138.2834  155.9290 C   0  0  0  0  0  0  0  0  0  0  0  0
  148.7634  137.9817  156.5371 N   0  0  0  0  0  0  0  0  0  0  0  0
  148.6450  136.6922  156.3768 C   0  0  0  0  0  0  0  0  0  0  0  0
  149.6860  136.0837  155.7108 N   0  0  0  0  0  0  0  0  0  0  0  0
  149.8232  134.6663  155.4159 C   0  0  0  0  0  0  0  0  0  0  0  0
  148.5850  134.0673  154.6974 C   0  0  1  0  0  0  0  0  0  0  0  0
  148.0320  135.0697  153.8609 O   0  0  0  0  0  0  0  0  0  0  0  0
  148.9151  132.8619  153.8196 C   0  0  0  0  0  0  0  0  0  0  0  0
  147.6334  132.0445  153.8579 C   0  0  0  0  0  0  0  0  0  0  0  0
  147.2234  132.1873  155.2058 O   0  0  0  0  0  0  0  0  0  0  0  0
  147.4463  133.5346  155.6130 C   0  0  1  0  0  0  0  0  0  0  0  0
  147.7156  133.5301  157.1259 C   0  0  0  0  0  0  0  0  0  0  0  0
  145.8683  142.2587  154.8194 H   0  0  0  0  0  0  0  0  0  0  0  0
  146.8057  143.4164  153.8817 H   0  0  0  0  0  0  0  0  0  0  0  0
  147.1669  143.1759  155.5784 H   0  0  0  0  0  0  0  0  0  0  0  0
  148.8405  142.0269  154.1574 H   0  0  0  0  0  0  0  0  0  0  0  0
  146.5266  140.4587  152.9522 H   0  0  0  0  0  0  0  0  0  0  0  0
  148.2369  140.2226  152.5955 H   0  0  0  0  0  0  0  0  0  0  0  0
  147.4497  141.7276  152.1492 H   0  0  0  0  0  0  0  0  0  0  0  0
  146.9693  140.1570  155.6889 H   0  0  0  0  0  0  0  0  0  0  0  0
  148.3595  139.5373  154.9001 H   0  0  0  0  0  0  0  0  0  0  0  0
  148.6548  139.9980  157.3526 H   0  0  0  0  0  0  0  0  0  0  0  0
  149.2066  143.7879  158.1237 H   0  0  0  0  0  0  0  0  0  0  0  0
  151.1905  143.3071  156.5653 H   0  0  0  0  0  0  0  0  0  0  0  0
  151.4644  143.1118  158.2845 H   0  0  0  0  0  0  0  0  0  0  0  0
  152.2668  141.1539  156.8343 H   0  0  0  0  0  0  0  0  0  0  0  0
  151.1938  140.6930  158.1448 H   0  0  0  0  0  0  0  0  0  0  0  0
  153.2686  138.2516  154.0916 H   0  0  0  0  0  0  0  0  0  0  0  0
  147.7935  136.1440  156.7527 H   0  0  0  0  0  0  0  0  0  0  0  0
  150.7172  134.5432  154.8040 H   0  0  0  0  0  0  0  0  0  0  0  0
  150.0130  134.1402  156.3522 H   0  0  0  0  0  0  0  0  0  0  0  0
  148.6937  135.3453  153.2452 H   0  0  0  0  0  0  0  0  0  0  0  0
  149.2295  133.1233  152.8080 H   0  0  0  0  0  0  0  0  0  0  0  0
  149.7145  132.2755  154.2743 H   0  0  0  0  0  0  0  0  0  0  0  0
  146.8766  132.4628  153.1927 H   0  0  0  0  0  0  0  0  0  0  0  0
  147.7909  130.9989  153.5934 H   0  0  0  0  0  0  0  0  0  0  0  0
  146.5229  134.0879  155.4309 H   0  0  0  0  0  0  0  0  0  0  0  0
  147.8852  134.5384  157.5040 H   0  0  0  0  0  0  0  0  0  0  0  0
  148.5830  132.9194  157.3772 H   0  0  0  0  0  0  0  0  0  0  0  0
  146.8617  133.1200  157.6656 H   0  0  0  0  0  0  0  0  0  0  0  0
  1  2  1  0  0  0  0
  1 29  1  0  0  0  0
  1 30  1  0  0  0  0
  1 31  1  0  0  0  0
  2  3  1  0  0  0  0
  2  4  1  0  0  0  0
  2 32  1  0  0  0  0
  3 33  1  0  0  0  0
  3 34  1  0  0  0  0
  3 35  1  0  0  0  0
  4  5  1  0  0  0  0
  4 36  1  0  0  0  0
  4 37  1  0  0  0  0
  5 11  1  0  0  0  0
  5  6  1  0  0  0  0
  5 38  1  0  0  0  0
  6  7  2  0  0  0  0
  6  8  1  0  0  0  0
  8  9  1  0  0  0  0
  8 39  1  0  0  0  0
  9 10  1  0  0  0  0
  9 40  1  0  0  0  0
  9 41  1  0  0  0  0
 10 11  1  0  0  0  0
 10 42  1  0  0  0  0
 10 43  1  0  0  0  0
 11 12  1  0  0  0  0
 12 17  1  0  0  0  0
 12 13  2  0  0  0  0
 13 14  1  0  0  0  0
 14 15  2  0  0  0  0
 14 44  1  0  0  0  0
 15 16  1  0  0  0  0
 16 20  1  0  0  0  0
 16 17  2  0  0  0  0
 17 18  1  0  0  0  0
 18 19  2  0  0  0  0
 19 20  1  0  0  0  0
 19 45  1  0  0  0  0
 20 21  1  0  0  0  0
 21 22  1  0  0  0  0
 21 46  1  0  0  0  0
 21 47  1  0  0  0  0
 22 27  1  0  0  0  0
 22 23  1  0  0  0  0
 22 24  1  0  0  0  0
 23 48  1  0  0  0  0
 24 25  1  0  0  0  0
 24 49  1  0  0  0  0
 24 50  1  0  0  0  0
 25 26  1  0  0  0  0
 25 51  1  0  0  0  0
 25 52  1  0  0  0  0
 26 27  1  0  0  0  0
 27 28  1  0  0  0  0
 27 53  1  0  0  0  0
 28 54  1  0  0  0  0
 28 55  1  0  0  0  0
 28 56  1  0  0  0  0
M  END
> <s_m_source_file>
AV-unprocessed.smi

> <i_m_source_file_index>
171

> <i_lp_mmshare_version>
43012

> <i_f3d_flags>
0

> <s_epik_input>
W0NIM11bQ0hdKFtDSDNdKVtDSDJdW0NAQEhdMUMoPU8pW05IXVtDSDJdW0NIMl1OMWMobltjSF1uMiljKGMyMyluW2NIXW4zW0NIMl1bQ0BAXTQoW09IXSlbQ0gyXVtDSDJdT1tDQEhdNFtDSDNd

> <s_epik_cmdline>
J2VwaWtfcHl0aG9uJywgJy1waCcsICc3LjAnLCAnLXRuJywgJzgnLCAnLW1hJywgJzIwMCcsICctbWV0YWxfYmluZGluZycsICctaW1hZScsICc8aW5maWxlLm1hZT4nLCAnLW9tYWUnLCAnPG91dGZpbGUubWFlPic=

> <r_lp_tautomer_probability>
1

> <r_epik_Ionization_Penalty>
0.000670584

> <r_epik_Ionization_Penalty_Charging>
0

> <r_epik_Ionization_Penalty_Neutral>
0.000670584

> <r_epik_State_Penalty>
0.000304767

> <r_epik_Charging_Adjusted_Penalty>
0.000304767

> <i_epik_Tot_Q>
0

> <i_epik_Tot_abs_Q>
0

> <r_epik_Metal_State_Penalty>
-0

> <b_epik_Metal_Only>
0

> <s_lp_Force_Field>
OPLS_2005

> <r_lp_Energy>
42.1077

> <b_lp_Chiralities_Consistent>
1

> <s_lp_Variant>
AV-unprocessed.smi:171-1

> <Gold.Version>
5.8.1

> <Gold.Id.Protein>
6NUR|6NUR_protein|mol2

> <Gold.PLP.Fitness>
44.7528

> <Gold.PLP.PLP>
-37.5140

> <Gold.PLP.part.hbond>
-3.8536

> <Gold.PLP.part.metal>
0.0000

> <Gold.PLP.part.buried>
-7.6485

> <Gold.PLP.part.nonpolar>
-27.4306

> <Gold.PLP.part.repulsive>
0.4192

> <Gold.PLP.ligand.clash>
0.0000

> <Gold.PLP.ligand.torsion>
1.0928

> <Gold.PLP.Chemscore.Hbond>
2.9920

> <Gold.PLP.Chemscore.CHOScore>
0.0000

> <Gold.PLP.Chemscore.Metal>
0.0000

> <Gold.Chemscore.Hbonds>
donor molecule, donor type, donor heavy atom, donor atom, acceptor molecule, acceptor atom, score
      L1  H    23    48       P1  7948  0.91
      P1  H  7989  7998       L1    13  0.66
      P1  H 10752 10764       L1    15  0.90

> <Gold.PLP.Chemscore.Internal.Correction>
0.4484

> <Gold.Rescore>
     Score         DG    S(hbond)    S(metal)    S(lipo)     H(rot)  DE(clash)    DE(int)     intcor
      7.39     -13.64       2.06        0.00      68.10       2.61       0.10       6.15       ----

> <Gold.Chemscore.Fitness>
7.3888

> <Gold.Chemscore.DG>
-13.6417

> <Gold.Chemscore.ZeroCoef>
-5.4800

> <Gold.Chemscore.Hbond>
2.0566

> <Gold.Chemscore.Metal>
0.0000

> <Gold.Chemscore.Lipo>
68.0970

> <Gold.Chemscore.Internal_Hbond>
0.0000

> <Gold.Chemscore.DEClash>
0.1000

> <Gold.Chemscore.DEInternal>
6.1528

> <Gold.Chemscore.Rot>
2.6074

> <Gold.Chemscore.Internal.Correction>
   9.000000E+99

> <Gold.Chemscore.Hbonds>
donor molecule, donor type, donor heavy atom, donor atom, acceptor molecule, acceptor atom, score
      L1  H    23    48       P1  7948  0.75
      P1  H  7989  7998       L1    13  0.22
      P1  H 10752 10764       L1    15  0.60

> <Gold.Chemscore.Hbond.Weighted>
-6.8692

> <Gold.Chemscore.Metal.Weighted>
-0.0000

> <Gold.Chemscore.Lipo.Weighted>
-7.9673

> <Gold.Chemscore.Internal_Hbond.Weighted>
0.0000

> <Gold.Chemscore.DEClash.Weighted>
0.1000

> <Gold.Chemscore.DEInternal.Weighted>
6.1528

> <Gold.Chemscore.Rot.Weighted>
6.6748

> <Gold.Chemscore.Internal.Correction.Weighted>
   9.000000E+99

> <Gold.Protein.RotatedTorsions>
[ 6907 6896 6895 6894 ] final   86.42 input  -60.11 | X-H torsion
[ 7974 7965 7964 7962 ] final  -92.99 input  175.53 | X-H torsion
[ 8008 7997 7996 7995 ] final   75.81 input   59.86 | X-H torsion
[ 10167 10162 10161 10158 ] final   17.12 input  -65.29 | X-H torsion
[ 10718 10713 10712 10709 ] final -140.51 input   66.30 | X-H torsion
[ 10763 10752 10751 10750 ] final  -88.45 input  -60.55 | X-H torsion
[ 11005 11000 10999 10996 ] final  -78.23 input  -57.11 | X-H torsion

> <Gold.Protein.ActiveResidues>
 VAL166  LYS551  ARG553  GLY616  TRP617  ASP618  TYR619  PRO620  LYS621  CYS622 
 ASP623  PHE694  ASN695  SER759  ASP760  ASP761  ALA762  ILE779  LEU786  VAL792 
 PHE793  MET794  SER795  GLU796  ALA797  LYS798  CYS799  TRP800  GLU811  SER814 

> <Gold.Protein.RotatedAtoms>
  152.5394  134.2434  159.8870 H   0  0  0  0  0  0  0  0  0  0  0  0  # atno 6907 bound_to 6896
  151.2401  133.4397  159.2614 H   0  0  0  0  0  0  0  0  0  0  0  0  # atno 6908 bound_to 6896
  151.0635  134.9766  159.8328 H   0  0  0  0  0  0  0  0  0  0  0  0  # atno 6909 bound_to 6896
  145.3924  140.9529  143.2333 H   0  0  0  0  0  0  0  0  0  0  0  0  # atno 7974 bound_to 7965
  155.8182  140.3471  155.5498 H   0  0  0  0  0  0  0  0  0  0  0  0  # atno 8008 bound_to 7997
  155.8369  140.0935  157.1778 H   0  0  0  0  0  0  0  0  0  0  0  0  # atno 8009 bound_to 7997
  154.4004  140.1401  156.3669 H   0  0  0  0  0  0  0  0  0  0  0  0  # atno 8010 bound_to 7997
  140.5748  143.9092  150.6741 H   0  0  0  0  0  0  0  0  0  0  0  0  # atno 10167 bound_to 10162
  156.3231  130.7545  151.1647 H   0  0  0  0  0  0  0  0  0  0  0  0  # atno 10718 bound_to 10713
  154.6447  135.5376  153.7830 H   0  0  0  0  0  0  0  0  0  0  0  0  # atno 10763 bound_to 10752
  153.0352  135.6467  154.1108 H   0  0  0  0  0  0  0  0  0  0  0  0  # atno 10764 bound_to 10752
  154.1029  135.2932  155.3227 H   0  0  0  0  0  0  0  0  0  0  0  0  # atno 10765 bound_to 10752
  141.1664  133.7054  156.7940 H   0  0  0  0  0  0  0  0  0  0  0  0  # atno 11005 bound_to 11000
  144.8431  139.5441  143.6891 LP  0  0  0  0  0  0  0  0  0  0  0  0  # atno 17320 bound_to 7965
  146.2791  139.6830  142.9242 LP  0  0  0  0  0  0  0  0  0  0  0  0  # atno 17321 bound_to 7965
  140.2577  143.3547  152.1350 LP  0  0  0  0  0  0  0  0  0  0  0  0  # atno 17342 bound_to 10162
  139.5137  144.6936  151.5691 LP  0  0  0  0  0  0  0  0  0  0  0  0  # atno 17343 bound_to 10162
  157.7416  131.0502  150.5087 LP  0  0  0  0  0  0  0  0  0  0  0  0  # atno 17370 bound_to 10713
  156.5242  130.4169  149.6235 LP  0  0  0  0  0  0  0  0  0  0  0  0  # atno 17371 bound_to 10713
  140.2305  134.8689  157.3471 LP  0  0  0  0  0  0  0  0  0  0  0  0  # atno 17394 bound_to 11000
  140.1896  134.4388  155.7723 LP  0  0  0  0  0  0  0  0  0  0  0  0  # atno 17395 bound_to 11000

$$$$
