AV-unprocessed.smi:203|AV-procd|sdf|1582|dock1
  -GOLD-   2262019473D 1   1.00000     0.00000
 Structure written by MMmdl.
 57 61  0  0  0  0  0  0  0  0  1 V2000
  152.1424  136.8228  159.5311 O   0  0  0  0  0  0  0  0  0  0  0  0
  151.7505  137.2551  158.4498 C   0  0  0  0  0  0  0  0  0  0  0  0
  150.3442  137.7793  158.2164 C   0  0  0  0  0  0  0  0  0  0  0  0
  150.4206  138.4106  156.8109 C   0  0  1  0  0  0  0  0  0  0  0  0
  150.3076  139.9682  156.7931 C   0  0  2  0  0  0  0  0  0  0  0  0
  151.5014  140.6658  157.4978 C   0  0  0  0  0  0  0  0  0  0  0  0
  151.3692  142.1938  157.4603 C   0  0  0  0  0  0  0  0  0  0  0  0
  150.0303  142.6158  158.0741 C   0  0  0  0  0  0  0  0  0  0  0  0
  148.8696  141.9150  157.3562 C   0  0  0  0  0  0  0  0  0  0  0  0
  149.0395  140.4621  157.3595 N   0  0  0  0  0  0  0  0  0  0  0  0
  147.9099  139.8604  156.9244 C   0  0  0  0  0  0  0  0  0  0  0  0
  146.8901  139.7443  157.8097 N   0  0  0  0  0  0  0  0  0  0  0  0
  145.7484  139.1571  157.4379 C   0  0  0  0  0  0  0  0  0  0  0  0
  145.4246  138.6357  156.2523 N   0  0  0  0  0  0  0  0  0  0  0  0
  146.4472  138.7610  155.3584 C   0  0  0  0  0  0  0  0  0  0  0  0
  147.7166  139.3525  155.6089 C   0  0  0  0  0  0  0  0  0  0  0  0
  148.5023  139.2950  154.4643 N   0  0  0  0  0  0  0  0  0  0  0  0
  147.7389  138.7062  153.5852 C   0  0  0  0  0  0  0  0  0  0  0  0
  146.4811  138.3684  154.0318 N   0  0  0  0  0  0  0  0  0  0  0  0
  145.4305  137.7218  153.2649 C   0  0  0  0  0  0  0  0  0  0  0  0
  145.9608  136.7251  152.2079 C   0  0  2  0  0  0  0  0  0  0  0  0
  146.5215  137.4600  151.1398 O   0  0  0  0  0  0  0  0  0  0  0  0
  144.9500  135.7042  151.6327 C   0  0  2  0  0  0  0  0  0  0  0  0
  144.1195  134.9115  152.6449 C   0  0  0  0  0  0  0  0  0  0  0  0
  143.6950  133.7228  151.8119 C   0  0  0  0  0  0  0  0  0  0  0  0
  144.9389  133.4649  150.9641 C   0  0  0  0  0  0  0  0  0  0  0  0
  145.5841  134.7268  150.8118 O   0  0  0  0  0  0  0  0  0  0  0  0
  151.7436  137.8873  156.2114 C   0  0  0  0  0  0  0  0  0  0  0  0
  152.4731  137.3313  157.3342 N   0  0  0  0  0  0  0  0  0  0  0  0
  149.6428  136.9445  158.2334 H   0  0  0  0  0  0  0  0  0  0  0  0
  150.0472  138.4842  158.9931 H   0  0  0  0  0  0  0  0  0  0  0  0
  149.6206  137.9912  156.2005 H   0  0  0  0  0  0  0  0  0  0  0  0
  150.3308  140.2819  155.7489 H   0  0  0  0  0  0  0  0  0  0  0  0
  151.5652  140.3472  158.5383 H   0  0  0  0  0  0  0  0  0  0  0  0
  152.4464  140.3837  157.0351 H   0  0  0  0  0  0  0  0  0  0  0  0
  152.1944  142.6571  158.0017 H   0  0  0  0  0  0  0  0  0  0  0  0
  151.4323  142.5458  156.4298 H   0  0  0  0  0  0  0  0  0  0  0  0
  150.0135  142.3612  159.1346 H   0  0  0  0  0  0  0  0  0  0  0  0
  149.9118  143.6976  158.0100 H   0  0  0  0  0  0  0  0  0  0  0  0
  147.9293  142.1818  157.8411 H   0  0  0  0  0  0  0  0  0  0  0  0
  148.8071  142.2702  156.3265 H   0  0  0  0  0  0  0  0  0  0  0  0
  144.9840  139.0989  158.1988 H   0  0  0  0  0  0  0  0  0  0  0  0
  148.0717  138.5146  152.5754 H   0  0  0  0  0  0  0  0  0  0  0  0
  144.7578  137.2179  153.9600 H   0  0  0  0  0  0  0  0  0  0  0  0
  144.8395  138.4999  152.7799 H   0  0  0  0  0  0  0  0  0  0  0  0
  146.7820  136.1609  152.6503 H   0  0  0  0  0  0  0  0  0  0  0  0
  145.8184  137.8145  150.6181 H   0  0  0  0  0  0  0  0  0  0  0  0
  144.2612  136.2326  150.9708 H   0  0  0  0  0  0  0  0  0  0  0  0
  144.7233  134.5701  153.4849 H   0  0  0  0  0  0  0  0  0  0  0  0
  143.2766  135.4791  153.0395 H   0  0  0  0  0  0  0  0  0  0  0  0
  143.4013  132.8602  152.4105 H   0  0  0  0  0  0  0  0  0  0  0  0
  142.8552  133.9971  151.1718 H   0  0  0  0  0  0  0  0  0  0  0  0
  145.6203  132.7884  151.4804 H   0  0  0  0  0  0  0  0  0  0  0  0
  144.6962  133.0243  149.9969 H   0  0  0  0  0  0  0  0  0  0  0  0
  151.5542  137.0911  155.4901 H   0  0  0  0  0  0  0  0  0  0  0  0
  152.3227  138.6581  155.7026 H   0  0  0  0  0  0  0  0  0  0  0  0
  153.4362  137.0360  157.2638 H   0  0  0  0  0  0  0  0  0  0  0  0
  1  2  2  0  0  0  0
  2 29  1  0  0  0  0
  2  3  1  0  0  0  0
  3  4  1  0  0  0  0
  3 30  1  0  0  0  0
  3 31  1  0  0  0  0
  4  5  1  0  0  0  0
  4 28  1  0  0  0  0
  4 32  1  0  0  0  0
  5 10  1  0  0  0  0
  5  6  1  0  0  0  0
  5 33  1  0  0  0  0
  6  7  1  0  0  0  0
  6 34  1  0  0  0  0
  6 35  1  0  0  0  0
  7  8  1  0  0  0  0
  7 36  1  0  0  0  0
  7 37  1  0  0  0  0
  8  9  1  0  0  0  0
  8 38  1  0  0  0  0
  8 39  1  0  0  0  0
  9 10  1  0  0  0  0
  9 40  1  0  0  0  0
  9 41  1  0  0  0  0
 10 11  1  0  0  0  0
 11 16  1  0  0  0  0
 11 12  2  0  0  0  0
 12 13  1  0  0  0  0
 13 14  2  0  0  0  0
 13 42  1  0  0  0  0
 14 15  1  0  0  0  0
 15 19  1  0  0  0  0
 15 16  2  0  0  0  0
 16 17  1  0  0  0  0
 17 18  2  0  0  0  0
 18 19  1  0  0  0  0
 18 43  1  0  0  0  0
 19 20  1  0  0  0  0
 20 21  1  0  0  0  0
 20 44  1  0  0  0  0
 20 45  1  0  0  0  0
 21 22  1  0  0  0  0
 21 23  1  0  0  0  0
 21 46  1  0  0  0  0
 22 47  1  0  0  0  0
 23 27  1  0  0  0  0
 23 24  1  0  0  0  0
 23 48  1  0  0  0  0
 24 25  1  0  0  0  0
 24 49  1  0  0  0  0
 24 50  1  0  0  0  0
 25 26  1  0  0  0  0
 25 51  1  0  0  0  0
 25 52  1  0  0  0  0
 26 27  1  0  0  0  0
 26 53  1  0  0  0  0
 26 54  1  0  0  0  0
 28 29  1  0  0  0  0
 28 55  1  0  0  0  0
 28 56  1  0  0  0  0
 29 57  1  0  0  0  0
M  END
> <s_m_source_file>
AV-unprocessed.smi

> <i_m_source_file_index>
203

> <i_lp_mmshare_version>
43012

> <i_f3d_flags>
0

> <s_epik_input>
Tz1DMVtDSDJdW0NASF0oW0NIMl1bTkhdMSlbQ0BASF0yW0NIMl1bQ0gyXVtDSDJdW0NIMl1OMmMobltjSF1uMyljKGMzNCluW2NIXW40W0NIMl1bQ0BIXShbT0hdKVtDQEBIXTVbQ0gyXVtDSDJdW0NIMl1PNQ==

> <s_epik_cmdline>
J2VwaWtfcHl0aG9uJywgJy1waCcsICc3LjAnLCAnLXRuJywgJzgnLCAnLW1hJywgJzIwMCcsICctbWV0YWxfYmluZGluZycsICctaW1hZScsICc8aW5maWxlLm1hZT4nLCAnLW9tYWUnLCAnPG91dGZpbGUubWFlPic=

> <r_lp_tautomer_probability>
1

> <r_epik_Ionization_Penalty>
0.00175146

> <r_epik_Ionization_Penalty_Charging>
0

> <r_epik_Ionization_Penalty_Neutral>
0.00175146

> <r_epik_State_Penalty>
0.00109045

> <r_epik_Charging_Adjusted_Penalty>
0.00109045

> <i_epik_Tot_Q>
0

> <i_epik_Tot_abs_Q>
0

> <r_epik_Metal_State_Penalty>
-0

> <b_epik_Metal_Only>
0

> <s_lp_Force_Field>
OPLS_2005

> <r_lp_Energy>
56.5802

> <b_lp_Chiralities_Consistent>
1

> <s_lp_Variant>
AV-unprocessed.smi:203-1

> <Gold.Version>
5.8.1

> <Gold.Id.Protein>
6NUR|6NUR_protein|mol2

> <Gold.PLP.Fitness>
40.4510

> <Gold.PLP.PLP>
-29.3923

> <Gold.PLP.part.hbond>
-4.0740

> <Gold.PLP.part.metal>
0.0000

> <Gold.PLP.part.buried>
-6.0818

> <Gold.PLP.part.nonpolar>
-20.9774

> <Gold.PLP.part.repulsive>
1.7722

> <Gold.PLP.ligand.clash>
0.0000

> <Gold.PLP.ligand.torsion>
1.1788

> <Gold.PLP.Chemscore.Hbond>
2.9825

> <Gold.PLP.Chemscore.CHOScore>
1.3911

> <Gold.PLP.Chemscore.Metal>
0.0000

> <Gold.Chemscore.Hbonds>
donor molecule, donor type, donor heavy atom, donor atom, acceptor molecule, acceptor atom, score
      L1  H    22    47       P1 10171  0.49
      P1  H  6896  6908       L1     1  1.00
      P1  H  7954  7966       L1    22  0.83
      L1  C    18    43       P1  7948  0.86
      L1  C    18    43       P1  7957  0.86

> <Gold.PLP.Chemscore.Internal.Correction>
0.2955

> <Gold.Rescore>
     Score         DG    S(hbond)    S(metal)    S(lipo)     H(rot)  DE(clash)    DE(int)     intcor
     14.33     -15.70       2.69        0.00      69.98       2.72       0.07       1.29       ----

> <Gold.Chemscore.Fitness>
14.3314

> <Gold.Chemscore.DG>
-15.6985

> <Gold.Chemscore.ZeroCoef>
-5.4800

> <Gold.Chemscore.Hbond>
2.6906

> <Gold.Chemscore.Metal>
0.0000

> <Gold.Chemscore.Lipo>
69.9787

> <Gold.Chemscore.Internal_Hbond>
0.0000

> <Gold.Chemscore.DEClash>
0.0736

> <Gold.Chemscore.DEInternal>
1.2934

> <Gold.Chemscore.Rot>
2.7171

> <Gold.Chemscore.Internal.Correction>
   9.000000E+99

> <Gold.Chemscore.Hbonds>
donor molecule, donor type, donor heavy atom, donor atom, acceptor molecule, acceptor atom, score
      L1  H    22    47       P1 10171  0.50
      P1  H  6896  6908       L1     1  0.97
      P1  H  7954  7966       L1    22  0.21

> <Gold.Chemscore.Hbond.Weighted>
-8.9867

> <Gold.Chemscore.Metal.Weighted>
-0.0000

> <Gold.Chemscore.Lipo.Weighted>
-8.1875

> <Gold.Chemscore.Internal_Hbond.Weighted>
0.0000

> <Gold.Chemscore.DEClash.Weighted>
0.0736

> <Gold.Chemscore.DEInternal.Weighted>
1.2934

> <Gold.Chemscore.Rot.Weighted>
6.9557

> <Gold.Chemscore.Internal.Correction.Weighted>
   9.000000E+99

> <Gold.Protein.RotatedTorsions>
[ 6907 6896 6895 6894 ] final -110.93 input  -60.11 | X-H torsion
[ 7974 7965 7964 7962 ] final   18.41 input  175.53 | X-H torsion
[ 8008 7997 7996 7995 ] final   96.24 input   59.86 | X-H torsion
[ 10167 10162 10161 10158 ] final  178.96 input  -65.29 | X-H torsion
[ 10718 10713 10712 10709 ] final  155.01 input   66.30 | X-H torsion
[ 10763 10752 10751 10750 ] final   76.25 input  -60.55 | X-H torsion
[ 11005 11000 10999 10996 ] final -156.50 input  -57.11 | X-H torsion

> <Gold.Protein.ActiveResidues>
 VAL166  LYS551  ARG553  GLY616  TRP617  ASP618  TYR619  PRO620  LYS621  CYS622 
 ASP623  PHE694  ASN695  SER759  ASP760  ASP761  ALA762  ILE779  LEU786  VAL792 
 PHE793  MET794  SER795  GLU796  ALA797  LYS798  CYS799  TRP800  GLU811  SER814 

> <Gold.Protein.RotatedAtoms>
  150.7657  133.9309  159.3426 H   0  0  0  0  0  0  0  0  0  0  0  0  # atno 6907 bound_to 6896
  151.7208  135.0893  160.0293 H   0  0  0  0  0  0  0  0  0  0  0  0  # atno 6908 bound_to 6896
  152.3651  133.6309  159.6080 H   0  0  0  0  0  0  0  0  0  0  0  0  # atno 6909 bound_to 6896
  146.2186  139.8461  142.8631 H   0  0  0  0  0  0  0  0  0  0  0  0  # atno 7974 bound_to 7965
  156.0775  140.3275  155.7652 H   0  0  0  0  0  0  0  0  0  0  0  0  # atno 8008 bound_to 7997
  155.5206  140.0585  157.2925 H   0  0  0  0  0  0  0  0  0  0  0  0  # atno 8009 bound_to 7997
  154.4564  140.1944  156.0386 H   0  0  0  0  0  0  0  0  0  0  0  0  # atno 8010 bound_to 7997
  139.5316  144.2617  152.0701 H   0  0  0  0  0  0  0  0  0  0  0  0  # atno 10167 bound_to 10162
  157.2241  131.0725  151.1894 H   0  0  0  0  0  0  0  0  0  0  0  0  # atno 10718 bound_to 10713
  153.0712  135.4958  154.8309 H   0  0  0  0  0  0  0  0  0  0  0  0  # atno 10763 bound_to 10752
  154.7025  135.3004  154.9322 H   0  0  0  0  0  0  0  0  0  0  0  0  # atno 10764 bound_to 10752
  154.0041  135.6762  153.4814 H   0  0  0  0  0  0  0  0  0  0  0  0  # atno 10765 bound_to 10752
  140.6748  134.4208  157.5230 H   0  0  0  0  0  0  0  0  0  0  0  0  # atno 11005 bound_to 11000
  145.2849  141.0150  143.3696 LP  0  0  0  0  0  0  0  0  0  0  0  0  # atno 17320 bound_to 7965
  144.9121  139.4515  143.6582 LP  0  0  0  0  0  0  0  0  0  0  0  0  # atno 17321 bound_to 7965
  140.2082  144.4590  150.6398 LP  0  0  0  0  0  0  0  0  0  0  0  0  # atno 17342 bound_to 10162
  140.6498  143.2222  151.6104 LP  0  0  0  0  0  0  0  0  0  0  0  0  # atno 17343 bound_to 10162
  157.3546  130.7099  149.6462 LP  0  0  0  0  0  0  0  0  0  0  0  0  # atno 17370 bound_to 10713
  155.9680  130.4243  150.4601 LP  0  0  0  0  0  0  0  0  0  0  0  0  # atno 17371 bound_to 10713
  139.8970  134.8647  156.2063 LP  0  0  0  0  0  0  0  0  0  0  0  0  # atno 17394 bound_to 11000
  141.0364  133.6961  156.1519 LP  0  0  0  0  0  0  0  0  0  0  0  0  # atno 17395 bound_to 11000

$$$$
