AV-unprocessed.smi:1559|AV-procd|sdf|6274|dock1
  -GOLD-   22720 6463D 1   1.00000     0.00000
 Structure written by MMmdl.
 51 52  0  0  0  0  0  0  0  0  2 V2000
  146.5878  133.3414  150.5613 C   0  0  0  0  0  0  0  0  0  0  0  0
  146.7138  134.2058  151.7635 N   0  3  0  0  0  0  0  0  0  0  0  0
  145.6169  135.2075  151.8003 C   0  0  0  0  0  0  0  0  0  0  0  0
  146.9660  133.4845  153.0624 C   0  0  0  0  0  0  0  0  0  0  0  0
  145.8503  132.4588  153.3713 C   0  0  0  0  0  0  0  0  0  0  0  0
  148.3083  132.7138  153.0055 C   0  0  0  0  0  0  0  0  0  0  0  0
  147.0426  134.4954  154.2450 C   0  0  0  0  0  0  0  0  0  0  0  0
  148.0844  135.5114  154.0880 N   0  0  0  0  0  0  0  0  0  0  0  0
  148.4468  136.4065  155.0180 C   0  0  0  0  0  0  0  0  0  0  0  0
  147.9419  136.4626  156.1386 O   0  0  0  0  0  0  0  0  0  0  0  0
  149.4077  137.2244  154.5563 N   0  0  0  0  0  0  0  0  0  0  0  0
  150.0692  138.2808  155.2386 C   0  0  0  0  0  0  0  0  0  0  0  0
  151.3171  138.8219  154.8518 C   0  0  0  0  0  0  0  0  0  0  0  0
  151.8628  139.8815  155.6012 C   0  0  0  0  0  0  0  0  0  0  0  0
  151.1476  140.3851  156.7134 C   0  0  0  0  0  0  0  0  0  0  0  0
  151.6784  141.4459  157.4791 N   0  0  0  0  0  0  0  0  0  0  0  0
  152.0338  141.1763  158.8713 C   0  0  0  0  0  0  0  0  0  0  0  0
  152.8567  142.3398  159.4494 C   0  0  0  0  0  0  0  0  0  0  0  0
  152.1390  143.5591  159.2923 O   0  0  0  0  0  0  0  0  0  0  0  0
  151.9001  143.8589  157.9213 C   0  0  0  0  0  0  0  0  0  0  0  0
  151.0458  142.7484  157.2853 C   0  0  0  0  0  0  0  0  0  0  0  0
  149.9471  139.8690  157.0748 N   0  0  0  0  0  0  0  0  0  0  0  0
  149.4272  138.8543  156.3537 C   0  0  0  0  0  0  0  0  0  0  0  0
  145.7596  132.6388  150.6553 H   0  0  0  0  0  0  0  0  0  0  0  0
  147.5005  132.7810  150.3628 H   0  0  0  0  0  0  0  0  0  0  0  0
  146.4060  133.9475  149.6731 H   0  0  0  0  0  0  0  0  0  0  0  0
  144.6412  134.7299  151.8937 H   0  0  0  0  0  0  0  0  0  0  0  0
  145.6084  135.7887  150.8777 H   0  0  0  0  0  0  0  0  0  0  0  0
  145.7312  135.9212  152.6143 H   0  0  0  0  0  0  0  0  0  0  0  0
  146.0665  131.9157  154.2922 H   0  0  0  0  0  0  0  0  0  0  0  0
  145.7460  131.7151  152.5816 H   0  0  0  0  0  0  0  0  0  0  0  0
  144.8790  132.9333  153.5099 H   0  0  0  0  0  0  0  0  0  0  0  0
  148.5839  132.3246  153.9865 H   0  0  0  0  0  0  0  0  0  0  0  0
  149.1276  133.3481  152.6661 H   0  0  0  0  0  0  0  0  0  0  0  0
  148.2605  131.8526  152.3385 H   0  0  0  0  0  0  0  0  0  0  0  0
  146.0970  135.0267  154.3526 H   0  0  0  0  0  0  0  0  0  0  0  0
  147.1664  133.9666  155.1922 H   0  0  0  0  0  0  0  0  0  0  0  0
  148.5431  135.5556  153.1898 H   0  0  0  0  0  0  0  0  0  0  0  0
  149.6569  137.1170  153.5838 H   0  0  0  0  0  0  0  0  0  0  0  0
  151.8607  138.4562  153.9946 H   0  0  0  0  0  0  0  0  0  0  0  0
  152.8246  140.2847  155.3218 H   0  0  0  0  0  0  0  0  0  0  0  0
  151.1234  141.0369  159.4556 H   0  0  0  0  0  0  0  0  0  0  0  0
  152.6125  140.2544  158.9427 H   0  0  0  0  0  0  0  0  0  0  0  0
  153.0479  142.1734  160.5095 H   0  0  0  0  0  0  0  0  0  0  0  0
  153.8284  142.4110  158.9581 H   0  0  0  0  0  0  0  0  0  0  0  0
  151.3825  144.8157  157.8531 H   0  0  0  0  0  0  0  0  0  0  0  0
  152.8476  143.9715  157.3919 H   0  0  0  0  0  0  0  0  0  0  0  0
  150.8994  142.9750  156.2304 H   0  0  0  0  0  0  0  0  0  0  0  0
  150.0571  142.7300  157.7453 H   0  0  0  0  0  0  0  0  0  0  0  0
  148.4671  138.4851  156.6841 H   0  0  0  0  0  0  0  0  0  0  0  0
  147.5544  134.7430  151.6052 H   0  0  0  0  0  0  0  0  0  0  0  0
  1  2  1  0  0  0  0
  1 24  1  0  0  0  0
  1 25  1  0  0  0  0
  1 26  1  0  0  0  0
  2  3  1  0  0  0  0
  2  4  1  0  0  0  0
  2 51  1  0  0  0  0
  3 27  1  0  0  0  0
  3 28  1  0  0  0  0
  3 29  1  0  0  0  0
  4  5  1  0  0  0  0
  4  6  1  0  0  0  0
  4  7  1  0  0  0  0
  5 30  1  0  0  0  0
  5 31  1  0  0  0  0
  5 32  1  0  0  0  0
  6 33  1  0  0  0  0
  6 34  1  0  0  0  0
  6 35  1  0  0  0  0
  7  8  1  0  0  0  0
  7 36  1  0  0  0  0
  7 37  1  0  0  0  0
  8  9  1  0  0  0  0
  8 38  1  0  0  0  0
  9 10  2  0  0  0  0
  9 11  1  0  0  0  0
 11 12  1  0  0  0  0
 11 39  1  0  0  0  0
 12 23  1  0  0  0  0
 12 13  2  0  0  0  0
 13 14  1  0  0  0  0
 13 40  1  0  0  0  0
 14 15  2  0  0  0  0
 14 41  1  0  0  0  0
 15 16  1  0  0  0  0
 15 22  1  0  0  0  0
 16 21  1  0  0  0  0
 16 17  1  0  0  0  0
 17 18  1  0  0  0  0
 17 42  1  0  0  0  0
 17 43  1  0  0  0  0
 18 19  1  0  0  0  0
 18 44  1  0  0  0  0
 18 45  1  0  0  0  0
 19 20  1  0  0  0  0
 20 21  1  0  0  0  0
 20 46  1  0  0  0  0
 20 47  1  0  0  0  0
 21 48  1  0  0  0  0
 21 49  1  0  0  0  0
 22 23  2  0  0  0  0
 23 50  1  0  0  0  0
M  CHG  1   2   1
M  END
> <s_m_source_file>
AV-unprocessed.smi

> <i_m_source_file_index>
1559

> <i_lp_mmshare_version>
43012

> <i_f3d_flags>
0

> <s_epik_input>
W0NIM11OKFtDSDNdKUMoW0NIM10pKFtDSDNdKVtDSDJdW05IXUMoPU8pW05IXWMxW2NIXVtjSF1jKG5bY0hdMSlOMltDSDJdW0NIMl1PW0NIMl1bQ0gyXTI=

> <s_epik_cmdline>
J2VwaWtfcHl0aG9uJywgJy1waCcsICc3LjAnLCAnLXRuJywgJzgnLCAnLW1hJywgJzIwMCcsICctbWV0YWxfYmluZGluZycsICctaW1hZScsICc8aW5maWxlLm1hZT4nLCAnLW9tYWUnLCAnPG91dGZpbGUubWFlPic=

> <r_lp_tautomer_probability>
1

> <r_epik_Ionization_Penalty>
0.00606683

> <r_epik_Ionization_Penalty_Charging>
0.00433655

> <r_epik_Ionization_Penalty_Neutral>
0.00173028

> <r_epik_State_Penalty>
-0

> <r_epik_Charging_Adjusted_Penalty>
0.00433655

> <i_epik_Tot_Q>
1

> <i_epik_Tot_abs_Q>
1

> <r_epik_Metal_State_Penalty>
-0

> <b_epik_Metal_Only>
0

> <s_lp_Force_Field>
OPLS_2005

> <r_lp_Energy>
39.7319

> <b_lp_Chiralities_Consistent>
1

> <s_lp_Variant>
AV-unprocessed.smi:1559-1

> <Gold.Version>
5.8.1

> <Gold.Id.Protein>
6NUR|6NUR_protein|mol2

> <Gold.PLP.Fitness>
48.1410

> <Gold.PLP.PLP>
-36.9823

> <Gold.PLP.part.hbond>
-2.8535

> <Gold.PLP.part.metal>
0.0000

> <Gold.PLP.part.buried>
-3.8056

> <Gold.PLP.part.nonpolar>
-30.1726

> <Gold.PLP.part.repulsive>
0.0942

> <Gold.PLP.ligand.clash>
0.0000

> <Gold.PLP.ligand.torsion>
0.4431

> <Gold.PLP.Chemscore.Hbond>
3.8320

> <Gold.PLP.Chemscore.CHOScore>
0.0000

> <Gold.PLP.Chemscore.Metal>
0.0000

> <Gold.Chemscore.Hbonds>
donor molecule, donor type, donor heavy atom, donor atom, acceptor molecule, acceptor atom, score
      L1  H     2    51       P1  7948  2.00
      L1  H     8    38       P1  7948  0.99
      L1  H    11    39       P1  7948  0.83

> <Gold.PLP.Chemscore.Internal.Correction>
0.5488

> <Gold.Rescore>
     Score         DG    S(hbond)    S(metal)    S(lipo)     H(rot)  DE(clash)    DE(int)     intcor
     18.57     -20.34       2.55        0.00      90.13       1.64       0.07       1.69       ----

> <Gold.Chemscore.Fitness>
18.5707

> <Gold.Chemscore.DG>
-20.3386

> <Gold.Chemscore.ZeroCoef>
-5.4800

> <Gold.Chemscore.Hbond>
2.5494

> <Gold.Chemscore.Metal>
0.0000

> <Gold.Chemscore.Lipo>
90.1335

> <Gold.Chemscore.Internal_Hbond>
0.0000

> <Gold.Chemscore.DEClash>
0.0738

> <Gold.Chemscore.DEInternal>
1.6941

> <Gold.Chemscore.Rot>
1.6414

> <Gold.Chemscore.Internal.Correction>
   9.000000E+99

> <Gold.Chemscore.Hbonds>
donor molecule, donor type, donor heavy atom, donor atom, acceptor molecule, acceptor atom, score
      L1  H     2    51       P1  7948  0.38
      L1  H     8    38       P1  7948  0.90
      L1  H    11    39       P1  7948  0.61

> <Gold.Chemscore.Hbond.Weighted>
-8.5151

> <Gold.Chemscore.Metal.Weighted>
-0.0000

> <Gold.Chemscore.Lipo.Weighted>
-10.5456

> <Gold.Chemscore.Internal_Hbond.Weighted>
0.0000

> <Gold.Chemscore.DEClash.Weighted>
0.0738

> <Gold.Chemscore.DEInternal.Weighted>
1.6941

> <Gold.Chemscore.Rot.Weighted>
4.2021

> <Gold.Chemscore.Internal.Correction.Weighted>
   9.000000E+99

> <Gold.Protein.RotatedTorsions>
[ 6907 6896 6895 6894 ] final  124.87 input  -60.11 | X-H torsion
[ 7974 7965 7964 7962 ] final  -41.85 input  175.53 | X-H torsion
[ 8008 7997 7996 7995 ] final  173.96 input   59.86 | X-H torsion
[ 10167 10162 10161 10158 ] final -118.69 input  -65.29 | X-H torsion
[ 10718 10713 10712 10709 ] final   -5.84 input   66.30 | X-H torsion
[ 10763 10752 10751 10750 ] final  -57.10 input  -60.55 | X-H torsion
[ 11005 11000 10999 10996 ] final   30.44 input  -57.11 | X-H torsion

> <Gold.Protein.ActiveResidues>
 VAL166  LYS551  ARG553  GLY616  TRP617  ASP618  TYR619  PRO620  LYS621  CYS622 
 ASP623  PHE694  ASN695  SER759  ASP760  ASP761  ALA762  ILE779  LEU786  VAL792 
 PHE793  MET794  SER795  GLU796  ALA797  LYS798  CYS799  TRP800  GLU811  SER814 

> <Gold.Protein.RotatedAtoms>
  152.4041  133.6862  159.6341 H   0  0  0  0  0  0  0  0  0  0  0  0  # atno 6907 bound_to 6896
  150.7928  133.8739  159.3275 H   0  0  0  0  0  0  0  0  0  0  0  0  # atno 6908 bound_to 6896
  151.6498  135.1004  160.0210 H   0  0  0  0  0  0  0  0  0  0  0  0  # atno 6909 bound_to 6896
  146.0172  140.6894  142.9196 H   0  0  0  0  0  0  0  0  0  0  0  0  # atno 7974 bound_to 7965
  156.1022  140.1446  156.9452 H   0  0  0  0  0  0  0  0  0  0  0  0  # atno 8008 bound_to 7997
  154.4710  140.0910  156.7189 H   0  0  0  0  0  0  0  0  0  0  0  0  # atno 8009 bound_to 7997
  155.4740  140.3442  155.4332 H   0  0  0  0  0  0  0  0  0  0  0  0  # atno 8010 bound_to 7997
  140.0547  143.5025  152.2063 H   0  0  0  0  0  0  0  0  0  0  0  0  # atno 10167 bound_to 10162
  156.7407  130.5209  149.5825 H   0  0  0  0  0  0  0  0  0  0  0  0  # atno 10718 bound_to 10713
  154.2172  135.6384  153.5133 H   0  0  0  0  0  0  0  0  0  0  0  0  # atno 10763 bound_to 10752
  152.9977  135.5488  154.6153 H   0  0  0  0  0  0  0  0  0  0  0  0  # atno 10764 bound_to 10752
  154.5604  135.2908  155.0898 H   0  0  0  0  0  0  0  0  0  0  0  0  # atno 10765 bound_to 10752
  140.2943  134.2828  155.7768 H   0  0  0  0  0  0  0  0  0  0  0  0  # atno 11005 bound_to 11000
  144.6975  140.3501  143.7183 LP  0  0  0  0  0  0  0  0  0  0  0  0  # atno 17320 bound_to 7965
  145.7250  139.1720  143.2463 LP  0  0  0  0  0  0  0  0  0  0  0  0  # atno 17321 bound_to 7965
  139.5931  144.7557  151.3353 LP  0  0  0  0  0  0  0  0  0  0  0  0  # atno 17342 bound_to 10162
  140.7200  143.7162  150.7731 LP  0  0  0  0  0  0  0  0  0  0  0  0  # atno 17343 bound_to 10162
  156.1466  130.6281  151.0540 LP  0  0  0  0  0  0  0  0  0  0  0  0  # atno 17370 bound_to 10713
  157.6820  131.0835  150.7345 LP  0  0  0  0  0  0  0  0  0  0  0  0  # atno 17371 bound_to 10713
  141.2140  133.7605  156.9672 LP  0  0  0  0  0  0  0  0  0  0  0  0  # atno 17394 bound_to 11000
  140.1167  134.9443  157.2144 LP  0  0  0  0  0  0  0  0  0  0  0  0  # atno 17395 bound_to 11000

$$$$
