AV-unprocessed.smi:28|AV-procd|sdf|189|dock8
  -GOLD-   2262015453D 1   1.00000     0.00000
 Structure written by MMmdl.
 41 44  0  0  0  0  0  0  0  0  1 V2000
  147.7519  138.8804  156.0174 O   0  0  0  0  0  0  0  0  0  0  0  0
  147.8303  138.2097  157.0481 C   0  0  0  0  0  0  0  0  0  0  0  0
  146.6962  137.9660  157.9329 C   0  0  0  0  0  0  0  0  0  0  0  0
  145.4917  138.4749  157.6238 F   0  0  0  0  0  0  0  0  0  0  0  0
  146.8352  137.2397  159.0633 C   0  0  0  0  0  0  0  0  0  0  0  0
  148.0396  136.6804  159.4593 N   0  0  0  0  0  0  0  0  0  0  0  0
  148.1768  135.8902  160.7444 C   0  0  2  0  0  0  0  0  0  0  0  0
  147.3611  134.5849  160.6703 C   0  0  0  0  0  0  0  0  0  0  0  0
  146.5260  134.6377  161.9344 C   0  0  0  0  0  0  0  0  0  0  0  0
  146.3742  136.1357  162.1503 C   0  0  0  0  0  0  0  0  0  0  0  0
  147.6642  136.6303  161.8160 O   0  0  0  0  0  0  0  0  0  0  0  0
  149.1924  136.8721  158.6667 C   0  0  0  0  0  0  0  0  0  0  0  0
  150.2800  136.4059  159.0146 O   0  0  0  0  0  0  0  0  0  0  0  0
  149.0461  137.6206  157.4748 N   0  0  0  0  0  0  0  0  0  0  0  0
  150.2333  137.8504  156.6684 C   0  0  0  0  0  0  0  0  0  0  0  0
  151.2313  138.6597  157.4350 C   0  0  0  0  0  0  0  0  0  0  0  0
  152.4790  138.3160  157.7594 N   0  0  0  0  0  0  0  0  0  0  0  0
  152.9977  139.3938  158.4401 N   0  0  0  0  0  0  0  0  0  0  0  0
  152.0279  140.3138  158.4718 C   0  0  0  0  0  0  0  0  0  0  0  0
  152.0380  141.6398  159.0788 C   0  0  0  0  0  0  0  0  0  0  0  0
  151.2688  142.6628  158.4819 C   0  0  0  0  0  0  0  0  0  0  0  0
  151.2500  143.9580  159.0331 C   0  0  0  0  0  0  0  0  0  0  0  0
  152.0067  144.2422  160.1844 C   0  0  0  0  0  0  0  0  0  0  0  0
  152.7860  143.2319  160.7781 C   0  0  0  0  0  0  0  0  0  0  0  0
  152.8101  141.9331  160.2308 C   0  0  0  0  0  0  0  0  0  0  0  0
  153.9222  140.6238  161.0599 Br  0  0  0  0  0  0  0  0  0  0  0  0
  150.8836  139.8992  157.8665 O   0  0  0  0  0  0  0  0  0  0  0  0
  145.9549  137.1052  159.6728 H   0  0  0  0  0  0  0  0  0  0  0  0
  149.2489  135.7412  160.8848 H   0  0  0  0  0  0  0  0  0  0  0  0
  146.7176  134.5891  159.7888 H   0  0  0  0  0  0  0  0  0  0  0  0
  148.0179  133.7154  160.6260 H   0  0  0  0  0  0  0  0  0  0  0  0
  145.5711  134.1203  161.8388 H   0  0  0  0  0  0  0  0  0  0  0  0
  147.0753  134.1947  162.7662 H   0  0  0  0  0  0  0  0  0  0  0  0
  145.6237  136.5516  161.4763 H   0  0  0  0  0  0  0  0  0  0  0  0
  146.0990  136.3902  163.1740 H   0  0  0  0  0  0  0  0  0  0  0  0
  150.6483  136.8848  156.3748 H   0  0  0  0  0  0  0  0  0  0  0  0
  149.9446  138.3531  155.7441 H   0  0  0  0  0  0  0  0  0  0  0  0
  150.6818  142.4551  157.5989 H   0  0  0  0  0  0  0  0  0  0  0  0
  150.6545  144.7326  158.5727 H   0  0  0  0  0  0  0  0  0  0  0  0
  151.9940  145.2352  160.6089 H   0  0  0  0  0  0  0  0  0  0  0  0
  153.3742  143.4560  161.6558 H   0  0  0  0  0  0  0  0  0  0  0  0
  1  2  2  0  0  0  0
  2 14  1  0  0  0  0
  2  3  1  0  0  0  0
  3  4  1  0  0  0  0
  3  5  2  0  0  0  0
  5  6  1  0  0  0  0
  5 28  1  0  0  0  0
  6  7  1  0  0  0  0
  6 12  1  0  0  0  0
  7 11  1  0  0  0  0
  7  8  1  0  0  0  0
  7 29  1  0  0  0  0
  8  9  1  0  0  0  0
  8 30  1  0  0  0  0
  8 31  1  0  0  0  0
  9 10  1  0  0  0  0
  9 32  1  0  0  0  0
  9 33  1  0  0  0  0
 10 11  1  0  0  0  0
 10 34  1  0  0  0  0
 10 35  1  0  0  0  0
 12 13  2  0  0  0  0
 12 14  1  0  0  0  0
 14 15  1  0  0  0  0
 15 16  1  0  0  0  0
 15 36  1  0  0  0  0
 15 37  1  0  0  0  0
 16 27  1  0  0  0  0
 16 17  2  0  0  0  0
 17 18  1  0  0  0  0
 18 19  2  0  0  0  0
 19 20  1  0  0  0  0
 19 27  1  0  0  0  0
 20 25  1  0  0  0  0
 20 21  2  0  0  0  0
 21 22  1  0  0  0  0
 21 38  1  0  0  0  0
 22 23  2  0  0  0  0
 22 39  1  0  0  0  0
 23 24  1  0  0  0  0
 23 40  1  0  0  0  0
 24 25  2  0  0  0  0
 24 41  1  0  0  0  0
 25 26  1  0  0  0  0
M  END
> <s_m_source_file>
AV-unprocessed.smi

> <i_m_source_file_index>
28

> <i_lp_mmshare_version>
43012

> <i_f3d_flags>
0

> <s_epik_input>
TzFbQ0gyXVtDSDJdW0NIMl1bQ0BIXTFuKFtjSF1jKEYpYzI9TyljKD1PKW4yW0NIMl1jM25uYyhvMyktYzRbY0hdW2NIXVtjSF1bY0hdYzRCcg==

> <s_epik_cmdline>
J2VwaWtfcHl0aG9uJywgJy1waCcsICc3LjAnLCAnLXRuJywgJzgnLCAnLW1hJywgJzIwMCcsICctbWV0YWxfYmluZGluZycsICctaW1hZScsICc8aW5maWxlLm1hZT4nLCAnLW9tYWUnLCAnPG91dGZpbGUubWFlPic=

> <r_lp_tautomer_probability>
1

> <r_epik_Ionization_Penalty>
2.5628e-09

> <r_epik_Ionization_Penalty_Charging>
2.54231e-09

> <r_epik_Ionization_Penalty_Neutral>
2.0492e-11

> <r_epik_State_Penalty>
-0

> <r_epik_Charging_Adjusted_Penalty>
2.54231e-09

> <i_epik_Tot_Q>
0

> <i_epik_Tot_abs_Q>
0

> <r_epik_Metal_State_Penalty>
-0

> <b_epik_Metal_Only>
0

> <s_epik_Chemistry_Notes>
This compound contains an acetal/aminal-like group ( X-CH(R)-Y where X, Y are N, S, or O) that may be acid/base labile, releasing an aldehyde.

> <s_lp_Force_Field>
OPLS_2005

> <r_lp_Energy>
34.3922

> <b_lp_Chiralities_Consistent>
1

> <s_lp_Variant>
AV-unprocessed.smi:28-1

> <Gold.Version>
5.8.1

> <Gold.Id.Protein>
6NUR|6NUR_protein|mol2

> <Gold.PLP.Fitness>
55.3509

> <Gold.PLP.PLP>
-45.7234

> <Gold.PLP.part.hbond>
-4.0000

> <Gold.PLP.part.metal>
0.0000

> <Gold.PLP.part.buried>
-5.6685

> <Gold.PLP.part.nonpolar>
-35.8501

> <Gold.PLP.part.repulsive>
0.0204

> <Gold.PLP.ligand.clash>
0.0000

> <Gold.PLP.ligand.torsion>
0.5235

> <Gold.PLP.Chemscore.Hbond>
3.5498

> <Gold.PLP.Chemscore.CHOScore>
0.0000

> <Gold.PLP.Chemscore.Metal>
0.0000

> <Gold.Chemscore.Hbonds>
donor molecule, donor type, donor heavy atom, donor atom, acceptor molecule, acceptor atom, score
      P1  H  6896  6909       L1    13  1.00
      P1  H  6931  6943       L1    11  0.78
      P1  H  7997  8008       L1    18  0.50

> <Gold.PLP.Chemscore.Internal.Correction>
0.0251

> <Gold.Rescore>
     Score         DG    S(hbond)    S(metal)    S(lipo)     H(rot)  DE(clash)    DE(int)     intcor
     20.36     -22.43       2.84        0.00     101.00       1.70       0.00       2.07       ----

> <Gold.Chemscore.Fitness>
20.3635

> <Gold.Chemscore.DG>
-22.4336

> <Gold.Chemscore.ZeroCoef>
-5.4800

> <Gold.Chemscore.Hbond>
2.8393

> <Gold.Chemscore.Metal>
0.0000

> <Gold.Chemscore.Lipo>
101.0018

> <Gold.Chemscore.Internal_Hbond>
0.0000

> <Gold.Chemscore.DEClash>
0.0048

> <Gold.Chemscore.DEInternal>
2.0652

> <Gold.Chemscore.Rot>
1.6980

> <Gold.Chemscore.Internal.Correction>
   9.000000E+99

> <Gold.Chemscore.Hbonds>
donor molecule, donor type, donor heavy atom, donor atom, acceptor molecule, acceptor atom, score
      P1  H  6896  6909       L1    13  0.99
      P1  H  6931  6943       L1    11  0.27
      P1  H  7997  8008       L1    18  0.09

> <Gold.Chemscore.Hbond.Weighted>
-9.4832

> <Gold.Chemscore.Metal.Weighted>
-0.0000

> <Gold.Chemscore.Lipo.Weighted>
-11.8172

> <Gold.Chemscore.Internal_Hbond.Weighted>
0.0000

> <Gold.Chemscore.DEClash.Weighted>
0.0048

> <Gold.Chemscore.DEInternal.Weighted>
2.0652

> <Gold.Chemscore.Rot.Weighted>
4.3469

> <Gold.Chemscore.Internal.Correction.Weighted>
   9.000000E+99

> <Gold.Protein.RotatedTorsions>
[ 6907 6896 6895 6894 ] final   72.23 input  -60.11 | X-H torsion
[ 7974 7965 7964 7962 ] final   45.31 input  175.53 | X-H torsion
[ 8008 7997 7996 7995 ] final  -81.99 input   59.86 | X-H torsion
[ 10167 10162 10161 10158 ] final -118.53 input  -65.29 | X-H torsion
[ 10718 10713 10712 10709 ] final  -96.53 input   66.30 | X-H torsion
[ 10763 10752 10751 10750 ] final  112.77 input  -60.55 | X-H torsion
[ 11005 11000 10999 10996 ] final    6.67 input  -57.11 | X-H torsion

> <Gold.Protein.ActiveResidues>
 VAL166  LYS551  ARG553  GLY616  TRP617  ASP618  TYR619  PRO620  LYS621  CYS622 
 ASP623  PHE694  ASN695  SER759  ASP760  ASP761  ALA762  ILE779  LEU786  VAL792 
 PHE793  MET794  SER795  GLU796  ALA797  LYS798  CYS799  TRP800  GLU811  SER814 

> <Gold.Protein.RotatedAtoms>
  152.4856  134.4602  159.9602 H   0  0  0  0  0  0  0  0  0  0  0  0  # atno 6907 bound_to 6896
  151.4599  133.3589  159.2815 H   0  0  0  0  0  0  0  0  0  0  0  0  # atno 6908 bound_to 6896
  150.8964  134.8397  159.7390 H   0  0  0  0  0  0  0  0  0  0  0  0  # atno 6909 bound_to 6896
  146.0491  139.4978  142.9730 H   0  0  0  0  0  0  0  0  0  0  0  0  # atno 7974 bound_to 7965
  154.6040  140.0639  156.9407 H   0  0  0  0  0  0  0  0  0  0  0  0  # atno 8008 bound_to 7997
  155.2084  140.3320  155.4314 H   0  0  0  0  0  0  0  0  0  0  0  0  # atno 8009 bound_to 7997
  156.2336  140.1852  156.7162 H   0  0  0  0  0  0  0  0  0  0  0  0  # atno 8010 bound_to 7997
  140.0564  143.5010  152.2055 H   0  0  0  0  0  0  0  0  0  0  0  0  # atno 10167 bound_to 10162
  156.0064  130.5155  150.6240 H   0  0  0  0  0  0  0  0  0  0  0  0  # atno 10718 bound_to 10713
  153.4827  135.3676  155.2451 H   0  0  0  0  0  0  0  0  0  0  0  0  # atno 10763 bound_to 10752
  154.8754  135.3958  154.3680 H   0  0  0  0  0  0  0  0  0  0  0  0  # atno 10764 bound_to 10752
  153.4287  135.7082  153.6310 H   0  0  0  0  0  0  0  0  0  0  0  0  # atno 10765 bound_to 10752
  140.5568  134.0230  155.7957 H   0  0  0  0  0  0  0  0  0  0  0  0  # atno 11005 bound_to 11000
  145.6755  141.0205  143.1634 LP  0  0  0  0  0  0  0  0  0  0  0  0  # atno 17320 bound_to 7965
  144.7113  139.8360  143.7413 LP  0  0  0  0  0  0  0  0  0  0  0  0  # atno 17321 bound_to 7965
  139.5921  144.7554  151.3376 LP  0  0  0  0  0  0  0  0  0  0  0  0  # atno 17342 bound_to 10162
  140.7192  143.7182  150.7716 LP  0  0  0  0  0  0  0  0  0  0  0  0  # atno 17343 bound_to 10162
  157.4050  131.0815  151.1273 LP  0  0  0  0  0  0  0  0  0  0  0  0  # atno 17370 bound_to 10713
  157.1923  130.6357  149.5709 LP  0  0  0  0  0  0  0  0  0  0  0  0  # atno 17371 bound_to 10713
  141.1138  133.9573  157.2860 LP  0  0  0  0  0  0  0  0  0  0  0  0  # atno 17394 bound_to 11000
  139.9427  135.0189  156.8758 LP  0  0  0  0  0  0  0  0  0  0  0  0  # atno 17395 bound_to 11000

$$$$
