AV-unprocessed.smi:2482|AV-procd|sdf|9775|dock1
  -GOLD-   2272013413D 1   1.00000     0.00000
 Structure written by MMmdl.
 35 36  0  0  0  0  0  0  0  0  2 V2000
  152.0505  144.3045  160.8498 C   0  0  0  0  0  0  0  0  0  0  0  0
  152.2944  142.9484  160.2147 C   0  0  0  0  0  0  0  0  0  0  0  0
  153.1939  142.1610  160.8441 N   0  0  0  0  0  0  0  0  0  0  0  0
  153.4446  140.9422  160.3241 C   0  0  0  0  0  0  0  0  0  0  0  0
  152.8226  140.4538  159.1594 C   0  0  0  0  0  0  0  0  0  0  0  0
  151.8911  141.2820  158.4885 C   0  0  0  0  0  0  0  0  0  0  0  0
  151.1879  140.8843  157.3178 N   0  0  0  0  0  0  0  0  0  0  0  0
  151.6115  140.1254  156.2896 C   0  0  0  0  0  0  0  0  0  0  0  0
  152.7319  139.6215  156.2131 O   0  0  0  0  0  0  0  0  0  0  0  0
  150.5914  139.8998  155.1622 C   0  0  2  0  0  0  0  0  0  0  0  0
  149.6424  141.1053  154.9635 C   0  0  0  0  0  0  0  0  0  0  0  0
  148.6340  140.8094  153.9200 N   0  3  2  0  0  0  0  0  0  0  0  0
  147.7256  141.9479  153.6662 C   0  0  0  0  0  0  0  0  0  0  0  0
  147.9076  139.5567  154.2254 C   0  0  0  0  0  0  0  0  0  0  0  0
  148.9019  138.4041  154.4352 C   0  0  0  0  0  0  0  0  0  0  0  0
  149.8123  138.7450  155.4730 O   0  0  0  0  0  0  0  0  0  0  0  0
  151.6124  142.5549  159.0393 C   0  0  0  0  0  0  0  0  0  0  0  0
  150.4656  143.6129  158.2866 Cl  0  0  0  0  0  0  0  0  0  0  0  0
  152.2957  145.1012  160.1470 H   0  0  0  0  0  0  0  0  0  0  0  0
  152.6603  144.4451  161.7433 H   0  0  0  0  0  0  0  0  0  0  0  0
  151.0036  144.4070  161.1372 H   0  0  0  0  0  0  0  0  0  0  0  0
  154.1593  140.3329  160.8573 H   0  0  0  0  0  0  0  0  0  0  0  0
  153.0613  139.4588  158.8177 H   0  0  0  0  0  0  0  0  0  0  0  0
  150.2728  141.2974  157.2086 H   0  0  0  0  0  0  0  0  0  0  0  0
  151.1542  139.7170  154.2451 H   0  0  0  0  0  0  0  0  0  0  0  0
  149.1350  141.3477  155.8994 H   0  0  0  0  0  0  0  0  0  0  0  0
  150.2104  141.9885  154.6674 H   0  0  0  0  0  0  0  0  0  0  0  0
  147.1400  142.1883  154.5545 H   0  0  0  0  0  0  0  0  0  0  0  0
  147.0367  141.7163  152.8535 H   0  0  0  0  0  0  0  0  0  0  0  0
  148.2923  142.8344  153.3798 H   0  0  0  0  0  0  0  0  0  0  0  0
  147.2989  139.6929  155.1209 H   0  0  0  0  0  0  0  0  0  0  0  0
  147.2277  139.3160  153.4074 H   0  0  0  0  0  0  0  0  0  0  0  0
  148.3702  137.4950  154.7162 H   0  0  0  0  0  0  0  0  0  0  0  0
  149.4456  138.1842  153.5150 H   0  0  0  0  0  0  0  0  0  0  0  0
  149.1424  140.6478  153.0620 H   0  0  0  0  0  0  0  0  0  0  0  0
  1  2  1  0  0  0  0
  1 19  1  0  0  0  0
  1 20  1  0  0  0  0
  1 21  1  0  0  0  0
  2 17  1  0  0  0  0
  2  3  2  0  0  0  0
  3  4  1  0  0  0  0
  4  5  2  0  0  0  0
  4 22  1  0  0  0  0
  5  6  1  0  0  0  0
  5 23  1  0  0  0  0
  6  7  1  0  0  0  0
  6 17  2  0  0  0  0
  7  8  1  0  0  0  0
  7 24  1  0  0  0  0
  8  9  2  0  0  0  0
  8 10  1  0  0  0  0
 10 16  1  0  0  0  0
 10 11  1  0  0  0  0
 10 25  1  0  0  0  0
 11 12  1  0  0  0  0
 11 26  1  0  0  0  0
 11 27  1  0  0  0  0
 12 13  1  0  0  0  0
 12 14  1  0  0  0  0
 12 35  1  0  0  0  0
 13 28  1  0  0  0  0
 13 29  1  0  0  0  0
 13 30  1  0  0  0  0
 14 15  1  0  0  0  0
 14 31  1  0  0  0  0
 14 32  1  0  0  0  0
 15 16  1  0  0  0  0
 15 33  1  0  0  0  0
 15 34  1  0  0  0  0
 17 18  1  0  0  0  0
M  CHG  1  12   1
M  END
> <s_m_source_file>
AV-unprocessed.smi

> <i_m_source_file_index>
2482

> <i_lp_mmshare_version>
43012

> <i_f3d_flags>
0

> <s_epik_input>
W0NIM11jMW5bY0hdW2NIXWMoYzFDbClbTkhdQyg9TylbQ0BASF0yW0NIMl1OKFtDSDNdKVtDSDJdW0NIMl1PMg==

> <s_epik_cmdline>
J2VwaWtfcHl0aG9uJywgJy1waCcsICc3LjAnLCAnLXRuJywgJzgnLCAnLW1hJywgJzIwMCcsICctbWV0YWxfYmluZGluZycsICctaW1hZScsICc8aW5maWxlLm1hZT4nLCAnLW9tYWUnLCAnPG91dGZpbGUubWFlPic=

> <r_epik_Ionization_Penalty>
0.314226

> <r_epik_Ionization_Penalty_Charging>
0.314023

> <r_epik_Ionization_Penalty_Neutral>
0.00020299

> <r_epik_State_Penalty>
0.308208

> <r_epik_Charging_Adjusted_Penalty>
0.62223

> <i_epik_Tot_Q>
1

> <i_epik_Tot_abs_Q>
1

> <r_epik_Metal_State_Penalty>
0.314444

> <b_epik_Metal_Only>
0

> <s_lp_Force_Field>
OPLS_2005

> <r_lp_Energy>
22.3098

> <b_lp_Chiralities_Consistent>
1

> <s_lp_Variant>
AV-unprocessed.smi:2482-1

> <Gold.Version>
5.8.1

> <Gold.Id.Protein>
6NUR|6NUR_protein|mol2

> <Gold.PLP.Fitness>
38.1696

> <Gold.PLP.PLP>
-34.3677

> <Gold.PLP.part.hbond>
-1.9586

> <Gold.PLP.part.metal>
0.0000

> <Gold.PLP.part.buried>
-3.5653

> <Gold.PLP.part.nonpolar>
-28.3221

> <Gold.PLP.part.repulsive>
0.2763

> <Gold.PLP.ligand.clash>
0.0000

> <Gold.PLP.ligand.torsion>
0.9893

> <Gold.PLP.Chemscore.Hbond>
1.9263

> <Gold.PLP.Chemscore.CHOScore>
0.0000

> <Gold.PLP.Chemscore.Metal>
0.0000

> <Gold.Chemscore.Hbonds>
donor molecule, donor type, donor heavy atom, donor atom, acceptor molecule, acceptor atom, score
      L1  H    12    35       P1  7957  0.96
      P1  H  7997  8010       L1     9  1.00

> <Gold.PLP.Chemscore.Internal.Correction>
0.0017

> <Gold.Rescore>
     Score         DG    S(hbond)    S(metal)    S(lipo)     H(rot)  DE(clash)    DE(int)     intcor
     18.83     -20.91       1.97        0.00      97.39       1.00       0.47       1.61       ----

> <Gold.Chemscore.Fitness>
18.8262

> <Gold.Chemscore.DG>
-20.9057

> <Gold.Chemscore.ZeroCoef>
-5.4800

> <Gold.Chemscore.Hbond>
1.9733

> <Gold.Chemscore.Metal>
0.0000

> <Gold.Chemscore.Lipo>
97.3923

> <Gold.Chemscore.Internal_Hbond>
0.0000

> <Gold.Chemscore.DEClash>
0.4663

> <Gold.Chemscore.DEInternal>
1.6132

> <Gold.Chemscore.Rot>
1.0000

> <Gold.Chemscore.Internal.Correction>
   9.000000E+99

> <Gold.Chemscore.Hbonds>
donor molecule, donor type, donor heavy atom, donor atom, acceptor molecule, acceptor atom, score
      L1  H    12    35       P1  7957  0.91
      P1  H  7997  8010       L1     9  0.99

> <Gold.Chemscore.Hbond.Weighted>
-6.5908

> <Gold.Chemscore.Metal.Weighted>
-0.0000

> <Gold.Chemscore.Lipo.Weighted>
-11.3949

> <Gold.Chemscore.Internal_Hbond.Weighted>
0.0000

> <Gold.Chemscore.DEClash.Weighted>
0.4663

> <Gold.Chemscore.DEInternal.Weighted>
1.6132

> <Gold.Chemscore.Rot.Weighted>
2.5600

> <Gold.Chemscore.Internal.Correction.Weighted>
   9.000000E+99

> <Gold.Protein.RotatedTorsions>
[ 6907 6896 6895 6894 ] final  -93.36 input  -60.11 | X-H torsion
[ 7974 7965 7964 7962 ] final   -3.46 input  175.53 | X-H torsion
[ 8008 7997 7996 7995 ] final   93.43 input   59.86 | X-H torsion
[ 10167 10162 10161 10158 ] final   36.18 input  -65.29 | X-H torsion
[ 10718 10713 10712 10709 ] final -158.30 input   66.30 | X-H torsion
[ 10763 10752 10751 10750 ] final  137.13 input  -60.55 | X-H torsion
[ 11005 11000 10999 10996 ] final  -66.63 input  -57.11 | X-H torsion

> <Gold.Protein.ActiveResidues>
 VAL166  LYS551  ARG553  GLY616  TRP617  ASP618  TYR619  PRO620  LYS621  CYS622 
 ASP623  PHE694  ASN695  SER759  ASP760  ASP761  ALA762  ILE779  LEU786  VAL792 
 PHE793  MET794  SER795  GLU796  ALA797  LYS798  CYS799  TRP800  GLU811  SER814 

> <Gold.Protein.RotatedAtoms>
  150.6921  134.1979  159.4310 H   0  0  0  0  0  0  0  0  0  0  0  0  # atno 6907 bound_to 6896
  151.9947  134.9958  160.0572 H   0  0  0  0  0  0  0  0  0  0  0  0  # atno 6908 bound_to 6896
  152.1635  133.4562  159.4909 H   0  0  0  0  0  0  0  0  0  0  0  0  # atno 6909 bound_to 6896
  146.2389  140.1725  142.8332 H   0  0  0  0  0  0  0  0  0  0  0  0  # atno 7974 bound_to 7965
  156.0467  140.3313  155.7304 H   0  0  0  0  0  0  0  0  0  0  0  0  # atno 8008 bound_to 7997
  155.5663  140.0623  157.2834 H   0  0  0  0  0  0  0  0  0  0  0  0  # atno 8009 bound_to 7997
  154.4417  140.1868  156.0822 H   0  0  0  0  0  0  0  0  0  0  0  0  # atno 8010 bound_to 7997
  140.4152  144.1537  150.6142 H   0  0  0  0  0  0  0  0  0  0  0  0  # atno 10167 bound_to 10162
  156.5522  130.8610  151.2783 H   0  0  0  0  0  0  0  0  0  0  0  0  # atno 10718 bound_to 10713
  153.8680  135.3059  155.3441 H   0  0  0  0  0  0  0  0  0  0  0  0  # atno 10763 bound_to 10752
  154.7819  135.4831  153.9865 H   0  0  0  0  0  0  0  0  0  0  0  0  # atno 10764 bound_to 10752
  153.1423  135.6826  153.9104 H   0  0  0  0  0  0  0  0  0  0  0  0  # atno 10765 bound_to 10752
  141.1487  133.6703  156.6169 H   0  0  0  0  0  0  0  0  0  0  0  0  # atno 11005 bound_to 11000
  145.0000  140.8623  143.5287 LP  0  0  0  0  0  0  0  0  0  0  0  0  # atno 17320 bound_to 7965
  145.1743  139.2387  143.5326 LP  0  0  0  0  0  0  0  0  0  0  0  0  # atno 17321 bound_to 7965
  140.4594  143.2455  151.9240 LP  0  0  0  0  0  0  0  0  0  0  0  0  # atno 17342 bound_to 10162
  139.4782  144.5482  151.8425 LP  0  0  0  0  0  0  0  0  0  0  0  0  # atno 17343 bound_to 10162
  157.7385  130.9815  150.2257 LP  0  0  0  0  0  0  0  0  0  0  0  0  # atno 17370 bound_to 10713
  156.2874  130.3741  149.7875 LP  0  0  0  0  0  0  0  0  0  0  0  0  # atno 17371 bound_to 10713
  140.3571  134.7719  157.4508 LP  0  0  0  0  0  0  0  0  0  0  0  0  # atno 17394 bound_to 11000
  140.0814  134.5725  155.8536 LP  0  0  0  0  0  0  0  0  0  0  0  0  # atno 17395 bound_to 11000

$$$$
