AV-unprocessed.smi:47|AV-procd|sdf|435|dock3
  -GOLD-   2262016303D 1   1.00000     0.00000
 Structure written by MMmdl.
 31 33  0  0  0  0  0  0  0  0  1 V2000
  145.0888  140.4406  154.5864 O   0  0  0  0  0  0  0  0  0  0  0  0
  146.4876  140.2605  154.6487 C   0  0  1  0  0  0  0  0  0  0  0  0
  147.0729  139.7855  153.3252 C   0  0  0  0  0  0  0  0  0  0  0  0
  148.4880  140.1144  153.4149 N   0  0  0  0  0  0  0  0  0  0  0  0
  148.6146  141.3327  154.2240 C   0  0  2  0  0  0  0  0  0  0  0  0
  149.7163  141.2422  155.2353 C   0  0  0  0  0  0  0  0  0  0  0  0
  150.6542  140.3054  155.1374 N   0  0  0  0  0  0  0  0  0  0  0  0
  151.4549  140.6050  156.1808 N   0  0  0  0  0  0  0  0  0  0  0  0
  150.9929  141.6826  156.8279 C   0  0  0  0  0  0  0  0  0  0  0  0
  151.6275  142.2890  158.0004 C   0  0  0  0  0  0  0  0  0  0  0  0
  151.6104  143.6918  158.1803 C   0  0  0  0  0  0  0  0  0  0  0  0
  152.2173  144.2746  159.3099 C   0  0  0  0  0  0  0  0  0  0  0  0
  152.8470  143.4620  160.2710 C   0  0  0  0  0  0  0  0  0  0  0  0
  152.8704  142.0652  160.1009 C   0  0  0  0  0  0  0  0  0  0  0  0
  152.2640  141.4813  158.9717 C   0  0  0  0  0  0  0  0  0  0  0  0
  149.8779  142.1373  156.2564 N   0  0  0  0  0  0  0  0  0  0  0  0
  147.2442  141.5633  154.8898 C   0  0  0  0  0  0  0  0  0  0  0  0
  146.7262  139.5436  155.4361 H   0  0  0  0  0  0  0  0  0  0  0  0
  148.8245  142.1773  153.5661 H   0  0  0  0  0  0  0  0  0  0  0  0
  152.2842  140.0737  156.4040 H   0  0  0  0  0  0  0  0  0  0  0  0
  144.8516  140.6371  153.6929 H   0  0  0  0  0  0  0  0  0  0  0  0
  146.9110  138.7221  153.1482 H   0  0  0  0  0  0  0  0  0  0  0  0
  146.6213  140.3360  152.4987 H   0  0  0  0  0  0  0  0  0  0  0  0
  148.8467  140.2813  152.4803 H   0  0  0  0  0  0  0  0  0  0  0  0
  151.1321  144.3348  157.4564 H   0  0  0  0  0  0  0  0  0  0  0  0
  152.1985  145.3468  159.4394 H   0  0  0  0  0  0  0  0  0  0  0  0
  153.3116  143.9093  161.1373 H   0  0  0  0  0  0  0  0  0  0  0  0
  153.3531  141.4398  160.8374 H   0  0  0  0  0  0  0  0  0  0  0  0
  152.2929  140.4073  158.8612 H   0  0  0  0  0  0  0  0  0  0  0  0
  146.7385  142.3861  154.3819 H   0  0  0  0  0  0  0  0  0  0  0  0
  147.3069  141.8234  155.9475 H   0  0  0  0  0  0  0  0  0  0  0  0
  1  2  1  0  0  0  0
  1 21  1  0  0  0  0
  2 18  1  0  0  0  0
  2 17  1  0  0  0  0
  2  3  1  0  0  0  0
  3  4  1  0  0  0  0
  3 22  1  0  0  0  0
  3 23  1  0  0  0  0
  4  5  1  0  0  0  0
  4 24  1  0  0  0  0
  5 19  1  0  0  0  0
  5  6  1  0  0  0  0
  5 17  1  0  0  0  0
  6 16  1  0  0  0  0
  6  7  2  0  0  0  0
  7  8  1  0  0  0  0
  8 20  1  0  0  0  0
  8  9  1  0  0  0  0
  9 10  1  0  0  0  0
  9 16  2  0  0  0  0
 10 15  1  0  0  0  0
 10 11  2  0  0  0  0
 11 12  1  0  0  0  0
 11 25  1  0  0  0  0
 12 13  2  0  0  0  0
 12 26  1  0  0  0  0
 13 14  1  0  0  0  0
 13 27  1  0  0  0  0
 14 15  2  0  0  0  0
 14 28  1  0  0  0  0
 15 29  1  0  0  0  0
 17 30  1  0  0  0  0
 17 31  1  0  0  0  0
M  END
> <s_m_source_file>
AV-unprocessed.smi

> <i_m_source_file_index>
47

> <i_lp_mmshare_version>
43012

> <i_f3d_flags>
0

> <s_epik_input>
W09IXVtDQEhdMVtDSDJdW05IXVtDQEBIXShbQ0gyXTEpYzJuW25IXWMobjIpLWMzW2NIXVtjSF1bY0hdW2NIXVtjSF0z

> <s_epik_cmdline>
J2VwaWtfcHl0aG9uJywgJy1waCcsICc3LjAnLCAnLXRuJywgJzgnLCAnLW1hJywgJzIwMCcsICctbWV0YWxfYmluZGluZycsICctaW1hZScsICc8aW5maWxlLm1hZT4nLCAnLW9tYWUnLCAnPG91dGZpbGUubWFlPic=

> <r_epik_Ionization_Penalty>
1.65981

> <r_epik_Ionization_Penalty_Charging>
0

> <r_epik_Ionization_Penalty_Neutral>
1.65981

> <r_epik_State_Penalty>
2.0492

> <r_epik_Charging_Adjusted_Penalty>
2.0492

> <i_epik_Tot_Q>
0

> <i_epik_Tot_abs_Q>
0

> <r_epik_Metal_State_Penalty>
2.54641

> <b_epik_Metal_Only>
0

> <s_lp_Force_Field>
OPLS_2005

> <r_lp_Energy>
25.8537

> <b_lp_Chiralities_Consistent>
1

> <s_lp_Variant>
AV-unprocessed.smi:47-13

> <Gold.Version>
5.8.1

> <Gold.Id.Protein>
6NUR|6NUR_protein|mol2

> <Gold.PLP.Fitness>
43.6675

> <Gold.PLP.PLP>
-36.4106

> <Gold.PLP.part.hbond>
-2.9139

> <Gold.PLP.part.metal>
0.0000

> <Gold.PLP.part.buried>
-7.0113

> <Gold.PLP.part.nonpolar>
-30.0065

> <Gold.PLP.part.repulsive>
2.1013

> <Gold.PLP.ligand.clash>
0.0000

> <Gold.PLP.ligand.torsion>
0.8545

> <Gold.PLP.Chemscore.Hbond>
2.9833

> <Gold.PLP.Chemscore.CHOScore>
0.0000

> <Gold.PLP.Chemscore.Metal>
0.0000

> <Gold.Chemscore.Hbonds>
donor molecule, donor type, donor heavy atom, donor atom, acceptor molecule, acceptor atom, score
      L1  H     1    21       P1 10175  0.93
      L1  H     4    24       P1  7957  1.00
      P1  H  7989  7998       L1     7  1.00

> <Gold.PLP.Chemscore.Internal.Correction>
0.0161

> <Gold.Rescore>
     Score         DG    S(hbond)    S(metal)    S(lipo)     H(rot)  DE(clash)    DE(int)     intcor
     18.86     -19.48       2.32        0.00      85.83       1.48       0.20       0.42       ----

> <Gold.Chemscore.Fitness>
18.8608

> <Gold.Chemscore.DG>
-19.4849

> <Gold.Chemscore.ZeroCoef>
-5.4800

> <Gold.Chemscore.Hbond>
2.3196

> <Gold.Chemscore.Metal>
0.0000

> <Gold.Chemscore.Lipo>
85.8348

> <Gold.Chemscore.Internal_Hbond>
0.0000

> <Gold.Chemscore.DEClash>
0.2047

> <Gold.Chemscore.DEInternal>
0.4193

> <Gold.Chemscore.Rot>
1.4786

> <Gold.Chemscore.Internal.Correction>
   9.000000E+99

> <Gold.Chemscore.Hbonds>
donor molecule, donor type, donor heavy atom, donor atom, acceptor molecule, acceptor atom, score
      L1  H     1    21       P1 10175  0.88
      L1  H     4    24       P1  7957  0.94
      P1  H  7989  7998       L1     7  0.18

> <Gold.Chemscore.Hbond.Weighted>
-7.7475

> <Gold.Chemscore.Metal.Weighted>
-0.0000

> <Gold.Chemscore.Lipo.Weighted>
-10.0427

> <Gold.Chemscore.Internal_Hbond.Weighted>
0.0000

> <Gold.Chemscore.DEClash.Weighted>
0.2047

> <Gold.Chemscore.DEInternal.Weighted>
0.4193

> <Gold.Chemscore.Rot.Weighted>
3.7853

> <Gold.Chemscore.Internal.Correction.Weighted>
   9.000000E+99

> <Gold.Protein.RotatedTorsions>
[ 6907 6896 6895 6894 ] final -145.70 input  -60.11 | X-H torsion
[ 7974 7965 7964 7962 ] final  173.68 input  175.53 | X-H torsion
[ 8008 7997 7996 7995 ] final   47.20 input   59.86 | X-H torsion
[ 10167 10162 10161 10158 ] final  149.06 input  -65.29 | X-H torsion
[ 10718 10713 10712 10709 ] final  -93.33 input   66.30 | X-H torsion
[ 10763 10752 10751 10750 ] final  -10.43 input  -60.55 | X-H torsion
[ 11005 11000 10999 10996 ] final -157.78 input  -57.11 | X-H torsion

> <Gold.Protein.ActiveResidues>
 VAL166  LYS551  ARG553  GLY616  TRP617  ASP618  TYR619  PRO620  LYS621  CYS622 
 ASP623  PHE694  ASN695  SER759  ASP760  ASP761  ALA762  ILE779  LEU786  VAL792 
 PHE793  MET794  SER795  GLU796  ALA797  LYS798  CYS799  TRP800  GLU811  SER814 

> <Gold.Protein.RotatedAtoms>
  151.1313  133.5035  159.2598 H   0  0  0  0  0  0  0  0  0  0  0  0  # atno 6907 bound_to 6896
  151.1754  135.0336  159.8779 H   0  0  0  0  0  0  0  0  0  0  0  0  # atno 6908 bound_to 6896
  152.5460  134.1172  159.8437 H   0  0  0  0  0  0  0  0  0  0  0  0  # atno 6909 bound_to 6896
  144.7238  139.9683  143.6436 H   0  0  0  0  0  0  0  0  0  0  0  0  # atno 7974 bound_to 7965
  155.3651  140.3421  155.4241 H   0  0  0  0  0  0  0  0  0  0  0  0  # atno 8008 bound_to 7997
  156.1692  140.1626  156.8511 H   0  0  0  0  0  0  0  0  0  0  0  0  # atno 8009 bound_to 7997
  154.5216  140.0765  156.8165 H   0  0  0  0  0  0  0  0  0  0  0  0  # atno 8010 bound_to 7997
  139.4866  144.5631  151.7194 H   0  0  0  0  0  0  0  0  0  0  0  0  # atno 10167 bound_to 10162
  156.0012  130.5022  150.5759 H   0  0  0  0  0  0  0  0  0  0  0  0  # atno 10718 bound_to 10713
  153.4692  135.7016  153.6004 H   0  0  0  0  0  0  0  0  0  0  0  0  # atno 10763 bound_to 10752
  153.4265  135.3813  155.2144 H   0  0  0  0  0  0  0  0  0  0  0  0  # atno 10764 bound_to 10752
  154.8725  135.3940  154.4127 H   0  0  0  0  0  0  0  0  0  0  0  0  # atno 10765 bound_to 10752
  140.6609  134.4350  157.5234 H   0  0  0  0  0  0  0  0  0  0  0  0  # atno 11005 bound_to 11000
  146.0583  139.3578  143.0597 LP  0  0  0  0  0  0  0  0  0  0  0  0  # atno 17320 bound_to 7965
  145.8126  140.9718  143.0941 LP  0  0  0  0  0  0  0  0  0  0  0  0  # atno 17321 bound_to 7965
  140.5204  144.0887  150.6021 LP  0  0  0  0  0  0  0  0  0  0  0  0  # atno 17342 bound_to 10162
  140.3843  143.2786  152.0134 LP  0  0  0  0  0  0  0  0  0  0  0  0  # atno 17343 bound_to 10162
  157.3647  131.0755  151.1607 LP  0  0  0  0  0  0  0  0  0  0  0  0  # atno 17370 bound_to 10713
  157.2381  130.6556  149.5878 LP  0  0  0  0  0  0  0  0  0  0  0  0  # atno 17371 bound_to 10713
  139.9013  134.8549  156.1883 LP  0  0  0  0  0  0  0  0  0  0  0  0  # atno 17394 bound_to 11000
  141.0466  133.6910  156.1694 LP  0  0  0  0  0  0  0  0  0  0  0  0  # atno 17395 bound_to 11000

$$$$
