AV-unprocessed.smi:1473|AV-procd|sdf|5969|dock1
  -GOLD-   22720 6 53D 1   1.00000     0.00000
 Structure written by MMmdl.
 35 36  0  0  0  0  0  0  0  0  2 V2000
  149.0955  136.5886  156.5843 N   0  0  0  0  0  0  0  0  0  0  0  0
  150.1509  136.0562  155.3372 S   0  0  0  0  0  0  0  0  0  0  0  0
  151.5079  135.9165  155.8865 O   0  0  0  0  0  0  0  0  0  0  0  0
  149.5054  134.9598  154.6004 O   0  0  0  0  0  0  0  0  0  0  0  0
  150.1145  137.4652  154.3458 N   0  0  0  0  0  0  0  0  0  0  0  0
  151.1664  138.4738  154.4560 C   0  0  0  0  0  0  0  0  0  0  0  0
  150.6315  139.8286  154.8761 C   0  0  0  0  0  0  0  0  0  0  0  0
  149.5209  140.3931  154.2164 C   0  0  0  0  0  0  0  0  0  0  0  0
  149.0375  141.6424  154.6462 C   0  0  0  0  0  0  0  0  0  0  0  0
  149.6354  142.2756  155.6784 N   0  3  0  0  0  0  0  0  0  0  0  0
  150.7013  141.7821  156.3568 C   0  0  0  0  0  0  0  0  0  0  0  0
  151.2306  142.5488  157.4208 N   0  0  0  0  0  0  0  0  0  0  0  0
  151.3698  143.9871  157.1913 C   0  0  0  0  0  0  0  0  0  0  0  0
  152.2430  144.6310  158.2812 C   0  0  0  0  0  0  0  0  0  0  0  0
  151.7180  144.3172  159.5655 O   0  0  0  0  0  0  0  0  0  0  0  0
  151.7348  142.9160  159.8098 C   0  0  0  0  0  0  0  0  0  0  0  0
  150.8419  142.1965  158.7846 C   0  0  0  0  0  0  0  0  0  0  0  0
  151.2243  140.5274  155.9505 C   0  0  0  0  0  0  0  0  0  0  0  0
  148.3135  135.9503  156.7304 H   0  0  0  0  0  0  0  0  0  0  0  0
  148.8105  137.5604  156.4636 H   0  0  0  0  0  0  0  0  0  0  0  0
  149.7349  137.3233  153.4098 H   0  0  0  0  0  0  0  0  0  0  0  0
  151.9282  138.1298  155.1566 H   0  0  0  0  0  0  0  0  0  0  0  0
  151.6568  138.5725  153.4873 H   0  0  0  0  0  0  0  0  0  0  0  0
  149.0437  139.8758  153.3967 H   0  0  0  0  0  0  0  0  0  0  0  0
  148.1944  142.1506  154.2012 H   0  0  0  0  0  0  0  0  0  0  0  0
  151.8196  144.1976  156.2212 H   0  0  0  0  0  0  0  0  0  0  0  0
  150.3779  144.4408  157.1903 H   0  0  0  0  0  0  0  0  0  0  0  0
  153.2769  144.2899  158.2041 H   0  0  0  0  0  0  0  0  0  0  0  0
  152.2565  145.7140  158.1586 H   0  0  0  0  0  0  0  0  0  0  0  0
  152.7585  142.5405  159.7654 H   0  0  0  0  0  0  0  0  0  0  0  0
  151.3715  142.7272  160.8202 H   0  0  0  0  0  0  0  0  0  0  0  0
  149.7959  142.4640  158.9412 H   0  0  0  0  0  0  0  0  0  0  0  0
  150.9364  141.1222  158.9438 H   0  0  0  0  0  0  0  0  0  0  0  0
  152.0624  140.0731  156.4570 H   0  0  0  0  0  0  0  0  0  0  0  0
  149.2603  143.1800  155.9653 H   0  0  0  0  0  0  0  0  0  0  0  0
  1  2  1  0  0  0  0
  1 19  1  0  0  0  0
  1 20  1  0  0  0  0
  2  3  2  0  0  0  0
  2  4  2  0  0  0  0
  2  5  1  0  0  0  0
  5  6  1  0  0  0  0
  5 21  1  0  0  0  0
  6  7  1  0  0  0  0
  6 22  1  0  0  0  0
  6 23  1  0  0  0  0
  7 18  1  0  0  0  0
  7  8  2  0  0  0  0
  8  9  1  0  0  0  0
  8 24  1  0  0  0  0
  9 10  2  0  0  0  0
  9 25  1  0  0  0  0
 10 11  1  0  0  0  0
 10 35  1  0  0  0  0
 11 12  1  0  0  0  0
 11 18  2  0  0  0  0
 12 17  1  0  0  0  0
 12 13  1  0  0  0  0
 13 14  1  0  0  0  0
 13 26  1  0  0  0  0
 13 27  1  0  0  0  0
 14 15  1  0  0  0  0
 14 28  1  0  0  0  0
 14 29  1  0  0  0  0
 15 16  1  0  0  0  0
 16 17  1  0  0  0  0
 16 30  1  0  0  0  0
 16 31  1  0  0  0  0
 17 32  1  0  0  0  0
 17 33  1  0  0  0  0
 18 34  1  0  0  0  0
M  CHG  1  10   1
M  END
> <s_m_source_file>
AV-unprocessed.smi

> <i_m_source_file_index>
1473

> <i_lp_mmshare_version>
43012

> <i_f3d_flags>
0

> <s_epik_input>
W05IMl1TKD1PKSg9TylbTkhdW0NIMl1jMVtjSF1bY0hdbmMoW2NIXTEpTjJbQ0gyXVtDSDJdT1tDSDJdW0NIMl0y

> <s_epik_cmdline>
J2VwaWtfcHl0aG9uJywgJy1waCcsICc3LjAnLCAnLXRuJywgJzgnLCAnLW1hJywgJzIwMCcsICctbWV0YWxfYmluZGluZycsICctaW1hZScsICc8aW5maWxlLm1hZT4nLCAnLW9tYWUnLCAnPG91dGZpbGUubWFlPic=

> <r_lp_tautomer_probability>
0.999994

> <r_epik_Ionization_Penalty>
2.36475

> <r_epik_Ionization_Penalty_Charging>
1.69468

> <r_epik_Ionization_Penalty_Neutral>
0.670067

> <r_epik_State_Penalty>
1.95548

> <r_epik_Charging_Adjusted_Penalty>
3.65016

> <i_epik_Tot_Q>
1

> <i_epik_Tot_abs_Q>
1

> <r_epik_Metal_State_Penalty>
4.27053

> <b_epik_Metal_Only>
0

> <s_lp_Force_Field>
OPLS_2005

> <r_lp_Energy>
21.3801

> <b_lp_Chiralities_Consistent>
1

> <s_lp_Variant>
AV-unprocessed.smi:1473-4

> <Gold.Version>
5.8.1

> <Gold.Id.Protein>
6NUR|6NUR_protein|mol2

> <Gold.PLP.Fitness>
46.9461

> <Gold.PLP.PLP>
-35.8520

> <Gold.PLP.part.hbond>
-3.0000

> <Gold.PLP.part.metal>
0.0000

> <Gold.PLP.part.buried>
-0.4760

> <Gold.PLP.part.nonpolar>
-32.2081

> <Gold.PLP.part.repulsive>
0.4894

> <Gold.PLP.ligand.clash>
0.0000

> <Gold.PLP.ligand.torsion>
1.1138

> <Gold.PLP.Chemscore.Hbond>
3.9520

> <Gold.PLP.Chemscore.CHOScore>
0.0000

> <Gold.PLP.Chemscore.Metal>
0.0000

> <Gold.Chemscore.Hbonds>
donor molecule, donor type, donor heavy atom, donor atom, acceptor molecule, acceptor atom, score
      L1  H     5    21       P1  7948  1.00
      L1  H    10    35       P1  8028  2.00
      P1  H 10752 10763       L1     3  1.00

> <Gold.PLP.Chemscore.Internal.Correction>
1.4658

> <Gold.Rescore>
     Score         DG    S(hbond)    S(metal)    S(lipo)     H(rot)  DE(clash)    DE(int)     intcor
     17.51     -19.56       2.82        0.00      82.15       1.93       1.12       0.94       ----

> <Gold.Chemscore.Fitness>
17.5111

> <Gold.Chemscore.DG>
-19.5647

> <Gold.Chemscore.ZeroCoef>
-5.4800

> <Gold.Chemscore.Hbond>
2.8178

> <Gold.Chemscore.Metal>
0.0000

> <Gold.Chemscore.Lipo>
82.1523

> <Gold.Chemscore.Internal_Hbond>
0.0000

> <Gold.Chemscore.DEClash>
1.1163

> <Gold.Chemscore.DEInternal>
0.9374

> <Gold.Chemscore.Rot>
1.9292

> <Gold.Chemscore.Internal.Correction>
   9.000000E+99

> <Gold.Chemscore.Hbonds>
donor molecule, donor type, donor heavy atom, donor atom, acceptor molecule, acceptor atom, score
      L1  H     5    21       P1  7948  0.66
      L1  H    10    35       P1  8028  0.94
      P1  H 10752 10763       L1     3  0.98

> <Gold.Chemscore.Hbond.Weighted>
-9.4115

> <Gold.Chemscore.Metal.Weighted>
-0.0000

> <Gold.Chemscore.Lipo.Weighted>
-9.6118

> <Gold.Chemscore.Internal_Hbond.Weighted>
0.0000

> <Gold.Chemscore.DEClash.Weighted>
1.1163

> <Gold.Chemscore.DEInternal.Weighted>
0.9374

> <Gold.Chemscore.Rot.Weighted>
4.9386

> <Gold.Chemscore.Internal.Correction.Weighted>
   9.000000E+99

> <Gold.Protein.RotatedTorsions>
[ 6907 6896 6895 6894 ] final  -69.68 input  -60.11 | X-H torsion
[ 7974 7965 7964 7962 ] final  -89.38 input  175.53 | X-H torsion
[ 8008 7997 7996 7995 ] final    3.49 input   59.86 | X-H torsion
[ 10167 10162 10161 10158 ] final  -83.18 input  -65.29 | X-H torsion
[ 10718 10713 10712 10709 ] final  112.56 input   66.30 | X-H torsion
[ 10763 10752 10751 10750 ] final   70.11 input  -60.55 | X-H torsion
[ 11005 11000 10999 10996 ] final  179.45 input  -57.11 | X-H torsion

> <Gold.Protein.ActiveResidues>
 VAL166  LYS551  ARG553  GLY616  TRP617  ASP618  TYR619  PRO620  LYS621  CYS622 
 ASP623  PHE694  ASN695  SER759  ASP760  ASP761  ALA762  ILE779  LEU786  VAL792 
 PHE793  MET794  SER795  GLU796  ALA797  LYS798  CYS799  TRP800  GLU811  SER814 

> <Gold.Protein.RotatedAtoms>
  150.7294  134.5562  159.5819 H   0  0  0  0  0  0  0  0  0  0  0  0  # atno 6907 bound_to 6896
  152.3037  134.7578  160.0361 H   0  0  0  0  0  0  0  0  0  0  0  0  # atno 6908 bound_to 6896
  151.8149  133.3351  159.3603 H   0  0  0  0  0  0  0  0  0  0  0  0  # atno 6909 bound_to 6896
  145.4406  140.9559  143.2077 H   0  0  0  0  0  0  0  0  0  0  0  0  # atno 7974 bound_to 7965
  154.7042  140.2679  155.6690 H   0  0  0  0  0  0  0  0  0  0  0  0  # atno 8008 bound_to 7997
  156.2775  140.2766  156.1587 H   0  0  0  0  0  0  0  0  0  0  0  0  # atno 8009 bound_to 7997
  155.0722  140.0372  157.2602 H   0  0  0  0  0  0  0  0  0  0  0  0  # atno 8010 bound_to 7997
  140.4250  143.2570  151.8838 H   0  0  0  0  0  0  0  0  0  0  0  0  # atno 10167 bound_to 10162
  157.6386  131.0969  150.6913 H   0  0  0  0  0  0  0  0  0  0  0  0  # atno 10718 bound_to 10713
  153.0323  135.5186  154.7391 H   0  0  0  0  0  0  0  0  0  0  0  0  # atno 10763 bound_to 10752
  154.6396  135.2910  155.0122 H   0  0  0  0  0  0  0  0  0  0  0  0  # atno 10764 bound_to 10752
  154.1045  135.6631  153.4926 H   0  0  0  0  0  0  0  0  0  0  0  0  # atno 10765 bound_to 10752
  140.4063  134.6732  157.4589 H   0  0  0  0  0  0  0  0  0  0  0  0  # atno 11005 bound_to 11000
  144.8124  139.5938  143.7023 LP  0  0  0  0  0  0  0  0  0  0  0  0  # atno 17320 bound_to 7965
  146.2558  139.6299  142.9396 LP  0  0  0  0  0  0  0  0  0  0  0  0  # atno 17321 bound_to 7965
  139.4783  144.5396  151.8547 LP  0  0  0  0  0  0  0  0  0  0  0  0  # atno 17342 bound_to 10162
  140.4491  144.1880  150.5896 LP  0  0  0  0  0  0  0  0  0  0  0  0  # atno 17343 bound_to 10162
  156.7240  130.4689  149.5516 LP  0  0  0  0  0  0  0  0  0  0  0  0  # atno 17370 bound_to 10713
  156.1646  130.6397  151.0762 LP  0  0  0  0  0  0  0  0  0  0  0  0  # atno 17371 bound_to 10713
  140.0300  134.6421  155.9120 LP  0  0  0  0  0  0  0  0  0  0  0  0  # atno 17394 bound_to 11000
  141.1838  133.6551  156.5131 LP  0  0  0  0  0  0  0  0  0  0  0  0  # atno 17395 bound_to 11000

$$$$
