AV-unprocessed.smi:312|AV-procd|sdf|2306|dock1
  -GOLD-   2262022203D 1   1.00000     0.00000
 Structure written by MMmdl.
 36 37  0  0  0  0  0  0  0  0  2 V2000
  149.3729  141.4458  154.7762 C   0  0  0  0  0  0  0  0  0  0  0  0
  150.2574  141.1843  156.0024 C   0  0  1  0  0  0  0  0  0  0  0  0
  151.5083  140.3609  155.6245 C   0  0  0  0  0  0  0  0  0  0  0  0
  151.1917  138.9926  155.2012 N   0  0  0  0  0  0  0  0  0  0  0  0
  151.5728  137.8241  155.8098 C   0  0  0  0  0  0  0  0  0  0  0  0
  151.0317  136.8042  155.0705 C   0  0  0  0  0  0  0  0  0  0  0  0
  150.3508  137.3924  154.0384 N   0  3  0  0  0  0  0  0  0  0  0  0
  150.4531  138.7230  154.1170 C   0  0  0  0  0  0  0  0  0  0  0  0
  150.6304  142.4669  156.5982 N   0  0  0  0  0  0  0  0  0  0  0  0
  151.4838  142.6381  157.6206 C   0  0  0  0  0  0  0  0  0  0  0  0
  152.0653  141.7057  158.1773 O   0  0  0  0  0  0  0  0  0  0  0  0
  151.7267  144.0867  158.0725 C   0  0  0  0  0  0  0  0  0  0  0  0
  152.7583  144.1663  159.2226 C   0  0  0  0  0  0  0  0  0  0  0  0
  152.0397  144.7901  160.4264 C   0  0  0  0  0  0  0  0  0  0  0  0
  150.5507  144.6023  160.1506 C   0  0  0  0  0  0  0  0  0  0  0  0
  150.4432  144.7296  158.6320 C   0  0  0  0  0  0  0  0  0  0  0  0
  149.0435  140.5101  154.3239 H   0  0  0  0  0  0  0  0  0  0  0  0
  149.9065  142.0137  154.0133 H   0  0  0  0  0  0  0  0  0  0  0  0
  148.4802  142.0101  155.0486 H   0  0  0  0  0  0  0  0  0  0  0  0
  149.6579  140.6110  156.7121 H   0  0  0  0  0  0  0  0  0  0  0  0
  152.0446  140.8385  154.8032 H   0  0  0  0  0  0  0  0  0  0  0  0
  152.2027  140.3043  156.4640 H   0  0  0  0  0  0  0  0  0  0  0  0
  152.1773  137.8059  156.7053 H   0  0  0  0  0  0  0  0  0  0  0  0
  151.0782  135.7325  155.1981 H   0  0  0  0  0  0  0  0  0  0  0  0
  150.0154  139.4385  153.4438 H   0  0  0  0  0  0  0  0  0  0  0  0
  150.1990  143.2911  156.2051 H   0  0  0  0  0  0  0  0  0  0  0  0
  152.0766  144.6701  157.2191 H   0  0  0  0  0  0  0  0  0  0  0  0
  153.1431  143.1815  159.4937 H   0  0  0  0  0  0  0  0  0  0  0  0
  153.6217  144.7678  158.9366 H   0  0  0  0  0  0  0  0  0  0  0  0
  152.3469  144.3470  161.3741 H   0  0  0  0  0  0  0  0  0  0  0  0
  152.2667  145.8562  160.4722 H   0  0  0  0  0  0  0  0  0  0  0  0
  150.2376  143.6057  160.4644 H   0  0  0  0  0  0  0  0  0  0  0  0
  149.9309  145.3284  160.6774 H   0  0  0  0  0  0  0  0  0  0  0  0
  150.4160  145.7844  158.3550 H   0  0  0  0  0  0  0  0  0  0  0  0
  149.5265  144.2766  158.2504 H   0  0  0  0  0  0  0  0  0  0  0  0
  149.8408  136.8946  153.3194 H   0  0  0  0  0  0  0  0  0  0  0  0
  1  2  1  0  0  0  0
  1 17  1  0  0  0  0
  1 18  1  0  0  0  0
  1 19  1  0  0  0  0
  2  3  1  0  0  0  0
  2  9  1  0  0  0  0
  2 20  1  0  0  0  0
  3  4  1  0  0  0  0
  3 21  1  0  0  0  0
  3 22  1  0  0  0  0
  4  8  1  0  0  0  0
  4  5  1  0  0  0  0
  5  6  2  0  0  0  0
  5 23  1  0  0  0  0
  6  7  1  0  0  0  0
  6 24  1  0  0  0  0
  7  8  2  0  0  0  0
  7 36  1  0  0  0  0
  8 25  1  0  0  0  0
  9 10  1  0  0  0  0
  9 26  1  0  0  0  0
 10 11  2  0  0  0  0
 10 12  1  0  0  0  0
 12 16  1  0  0  0  0
 12 13  1  0  0  0  0
 12 27  1  0  0  0  0
 13 14  1  0  0  0  0
 13 28  1  0  0  0  0
 13 29  1  0  0  0  0
 14 15  1  0  0  0  0
 14 30  1  0  0  0  0
 14 31  1  0  0  0  0
 15 16  1  0  0  0  0
 15 32  1  0  0  0  0
 15 33  1  0  0  0  0
 16 34  1  0  0  0  0
 16 35  1  0  0  0  0
M  CHG  1   7   1
M  END
> <s_m_source_file>
AV-unprocessed.smi

> <i_m_source_file_index>
312

> <i_lp_mmshare_version>
43012

> <i_f3d_flags>
0

> <s_epik_input>
W2NIXTFuW2NIXVtjSF1uMVtDSDJdW0NAQEhdKFtDSDNdKVtOSF1DKD1PKVtDSF0yW0NIMl1bQ0gyXVtDSDJdW0NIMl0y

> <s_epik_cmdline>
J2VwaWtfcHl0aG9uJywgJy1waCcsICc3LjAnLCAnLXRuJywgJzgnLCAnLW1hJywgJzIwMCcsICctbWV0YWxfYmluZGluZycsICctaW1hZScsICc8aW5maWxlLm1hZT4nLCAnLW9tYWUnLCAnPG91dGZpbGUubWFlPic=

> <r_lp_tautomer_probability>
1

> <r_epik_Ionization_Penalty>
0.244425

> <r_epik_Ionization_Penalty_Charging>
0

> <r_epik_Ionization_Penalty_Neutral>
0.244425

> <r_epik_State_Penalty>
0.23553

> <r_epik_Charging_Adjusted_Penalty>
0.23553

> <i_epik_Tot_Q>
1

> <i_epik_Tot_abs_Q>
1

> <r_epik_Metal_State_Penalty>
0.528799

> <b_epik_Metal_Only>
0

> <s_lp_Force_Field>
OPLS_2005

> <r_lp_Energy>
22.578

> <b_lp_Chiralities_Consistent>
1

> <s_lp_Variant>
AV-unprocessed.smi:312-2

> <Gold.Version>
5.8.1

> <Gold.Id.Protein>
6NUR|6NUR_protein|mol2

> <Gold.PLP.Fitness>
49.2269

> <Gold.PLP.PLP>
-37.3698

> <Gold.PLP.part.hbond>
-2.9244

> <Gold.PLP.part.metal>
0.0000

> <Gold.PLP.part.buried>
-3.1692

> <Gold.PLP.part.nonpolar>
-32.7279

> <Gold.PLP.part.repulsive>
0.1193

> <Gold.PLP.ligand.clash>
0.0000

> <Gold.PLP.ligand.torsion>
0.1045

> <Gold.PLP.Chemscore.Hbond>
3.0000

> <Gold.PLP.Chemscore.CHOScore>
1.0000

> <Gold.PLP.Chemscore.Metal>
0.0000

> <Gold.Chemscore.Hbonds>
donor molecule, donor type, donor heavy atom, donor atom, acceptor molecule, acceptor atom, score
      L1  H     7    36       P1  7948  2.00
      L1  H     9    26       P1  8028  1.00
      L1  C     8    25       P1  7957  1.00

> <Gold.PLP.Chemscore.Internal.Correction>
0.0662

> <Gold.Rescore>
     Score         DG    S(hbond)    S(metal)    S(lipo)     H(rot)  DE(clash)    DE(int)     intcor
     16.25     -17.81       1.94        0.00      89.82       1.82       0.24       1.31       ----

> <Gold.Chemscore.Fitness>
16.2504

> <Gold.Chemscore.DG>
-17.8058

> <Gold.Chemscore.ZeroCoef>
-5.4800

> <Gold.Chemscore.Hbond>
1.9416

> <Gold.Chemscore.Metal>
0.0000

> <Gold.Chemscore.Lipo>
89.8232

> <Gold.Chemscore.Internal_Hbond>
0.0000

> <Gold.Chemscore.DEClash>
0.2413

> <Gold.Chemscore.DEInternal>
1.3141

> <Gold.Chemscore.Rot>
1.8235

> <Gold.Chemscore.Internal.Correction>
   9.000000E+99

> <Gold.Chemscore.Hbonds>
donor molecule, donor type, donor heavy atom, donor atom, acceptor molecule, acceptor atom, score
      L1  H     7    36       P1  7948  0.35
      L1  H     9    26       P1  8028  0.95

> <Gold.Chemscore.Hbond.Weighted>
-6.4848

> <Gold.Chemscore.Metal.Weighted>
-0.0000

> <Gold.Chemscore.Lipo.Weighted>
-10.5093

> <Gold.Chemscore.Internal_Hbond.Weighted>
0.0000

> <Gold.Chemscore.DEClash.Weighted>
0.2413

> <Gold.Chemscore.DEInternal.Weighted>
1.3141

> <Gold.Chemscore.Rot.Weighted>
4.6683

> <Gold.Chemscore.Internal.Correction.Weighted>
   9.000000E+99

> <Gold.Protein.RotatedTorsions>
[ 6907 6896 6895 6894 ] final  -59.57 input  -60.11 | X-H torsion
[ 7974 7965 7964 7962 ] final   86.80 input  175.53 | X-H torsion
[ 8008 7997 7996 7995 ] final -136.22 input   59.86 | X-H torsion
[ 10167 10162 10161 10158 ] final  -66.48 input  -65.29 | X-H torsion
[ 10718 10713 10712 10709 ] final   71.17 input   66.30 | X-H torsion
[ 10763 10752 10751 10750 ] final   -3.94 input  -60.55 | X-H torsion
[ 11005 11000 10999 10996 ] final   64.53 input  -57.11 | X-H torsion

> <Gold.Protein.ActiveResidues>
 VAL166  LYS551  ARG553  GLY616  TRP617  ASP618  TYR619  PRO620  LYS621  CYS622 
 ASP623  PHE694  ASN695  SER759  ASP760  ASP761  ALA762  ILE779  LEU786  VAL792 
 PHE793  MET794  SER795  GLU796  ALA797  LYS798  CYS799  TRP800  GLU811  SER814 

> <Gold.Protein.RotatedAtoms>
  150.7921  134.6952  159.6518 H   0  0  0  0  0  0  0  0  0  0  0  0  # atno 6907 bound_to 6896
  152.4027  134.6255  160.0072 H   0  0  0  0  0  0  0  0  0  0  0  0  # atno 6908 bound_to 6896
  151.6521  133.3283  159.3190 H   0  0  0  0  0  0  0  0  0  0  0  0  # atno 6909 bound_to 6896
  145.5675  139.2310  143.2425 H   0  0  0  0  0  0  0  0  0  0  0  0  # atno 7974 bound_to 7965
  155.3916  140.0500  157.3040 H   0  0  0  0  0  0  0  0  0  0  0  0  # atno 8008 bound_to 7997
  154.5034  140.2165  155.9262 H   0  0  0  0  0  0  0  0  0  0  0  0  # atno 8009 bound_to 7997
  156.1495  140.3138  155.8630 H   0  0  0  0  0  0  0  0  0  0  0  0  # atno 8010 bound_to 7997
  140.5654  143.2314  151.6646 H   0  0  0  0  0  0  0  0  0  0  0  0  # atno 10167 bound_to 10162
  157.6438  130.9515  150.0752 H   0  0  0  0  0  0  0  0  0  0  0  0  # atno 10718 bound_to 10713
  153.3781  135.6997  153.6586 H   0  0  0  0  0  0  0  0  0  0  0  0  # atno 10763 bound_to 10752
  153.5209  135.3612  155.2632 H   0  0  0  0  0  0  0  0  0  0  0  0  # atno 10764 bound_to 10752
  154.8689  135.4157  154.3073 H   0  0  0  0  0  0  0  0  0  0  0  0  # atno 10765 bound_to 10752
  139.9953  134.6527  156.0021 H   0  0  0  0  0  0  0  0  0  0  0  0  # atno 11005 bound_to 11000
  146.1808  140.6500  142.9190 LP  0  0  0  0  0  0  0  0  0  0  0  0  # atno 17320 bound_to 7965
  144.7453  140.5052  143.6840 LP  0  0  0  0  0  0  0  0  0  0  0  0  # atno 17321 bound_to 7965
  139.5090  144.3591  152.0579 LP  0  0  0  0  0  0  0  0  0  0  0  0  # atno 17342 bound_to 10162
  140.2722  144.3951  150.6147 LP  0  0  0  0  0  0  0  0  0  0  0  0  # atno 17343 bound_to 10162
  156.1744  130.3647  149.9120 LP  0  0  0  0  0  0  0  0  0  0  0  0  # atno 17370 bound_to 10713
  156.7087  130.8962  151.3607 LP  0  0  0  0  0  0  0  0  0  0  0  0  # atno 17371 bound_to 10713
  141.1599  133.6539  156.4284 LP  0  0  0  0  0  0  0  0  0  0  0  0  # atno 17394 bound_to 11000
  140.4830  134.6646  157.5179 LP  0  0  0  0  0  0  0  0  0  0  0  0  # atno 17395 bound_to 11000

$$$$
