AV-unprocessed.smi:155|AV-procd|sdf|1286|dock10
  -GOLD-   2262018563D 1   1.00000     0.00000
 Structure written by MMmdl.
 64 67  0  0  0  0  0  0  0  0  3 V2000
  145.0197  131.4071  151.0044 C   0  0  0  0  0  0  0  0  0  0  0  0
  146.2711  131.4023  151.7962 N   0  3  0  0  0  0  0  0  0  0  0  0
  146.3430  130.2266  152.6921 C   0  0  0  0  0  0  0  0  0  0  0  0
  146.5077  132.6752  152.5233 C   0  0  0  0  0  0  0  0  0  0  0  0
  148.0079  132.9634  152.7428 C   0  0  0  0  0  0  0  0  0  0  0  0
  148.3666  133.0613  154.1828 N   0  3  1  0  0  0  0  0  0  0  0  0
  147.3363  132.4755  155.0821 C   0  0  0  0  0  0  0  0  0  0  0  0
  147.0932  133.3928  156.2935 C   0  0  0  0  0  0  0  0  0  0  0  0
  148.2388  133.3913  157.3209 C   0  0  0  0  0  0  0  0  0  0  0  0
  149.5355  133.7088  156.7257 N   0  0  0  0  0  0  0  0  0  0  0  0
  149.9385  134.9983  156.5101 C   0  0  0  0  0  0  0  0  0  0  0  0
  150.4788  135.2952  155.2969 N   0  0  0  0  0  0  0  0  0  0  0  0
  150.8929  136.5303  155.0061 C   0  0  0  0  0  0  0  0  0  0  0  0
  150.8558  137.6195  155.7709 N   0  0  0  0  0  0  0  0  0  0  0  0
  150.3183  137.3448  156.9919 C   0  0  0  0  0  0  0  0  0  0  0  0
  149.8395  136.0785  157.4448 C   0  0  0  0  0  0  0  0  0  0  0  0
  149.3623  136.2157  158.7457 N   0  0  0  0  0  0  0  0  0  0  0  0
  149.5510  137.4716  159.0416 C   0  0  0  0  0  0  0  0  0  0  0  0
  150.1221  138.2226  158.0432 N   0  0  0  0  0  0  0  0  0  0  0  0
  150.4395  139.6398  158.0998 C   0  0  0  0  0  0  0  0  0  0  0  0
  151.7447  139.9236  158.8740 C   0  0  1  0  0  0  0  0  0  0  0  0
  152.8340  139.5173  158.0676 O   0  0  0  0  0  0  0  0  0  0  0  0
  151.9397  141.4166  159.2076 C   0  0  1  0  0  0  0  0  0  0  0  0
  153.3196  141.7793  159.7590 C   0  0  0  0  0  0  0  0  0  0  0  0
  153.4498  143.2583  159.4386 C   0  0  0  0  0  0  0  0  0  0  0  0
  152.4394  143.4771  158.3104 C   0  0  0  0  0  0  0  0  0  0  0  0
  151.9206  142.1871  158.0148 O   0  0  0  0  0  0  0  0  0  0  0  0
  150.1572  132.6231  155.9613 C   0  0  0  0  0  0  0  0  0  0  0  0
  149.7509  132.5885  154.4699 C   0  0  0  0  0  0  0  0  0  0  0  0
  144.1490  131.5367  151.6485 H   0  0  0  0  0  0  0  0  0  0  0  0
  144.9046  130.4665  150.4646 H   0  0  0  0  0  0  0  0  0  0  0  0
  145.0204  132.2067  150.2642 H   0  0  0  0  0  0  0  0  0  0  0  0
  145.5624  130.2656  153.4531 H   0  0  0  0  0  0  0  0  0  0  0  0
  147.3093  130.1797  153.1950 H   0  0  0  0  0  0  0  0  0  0  0  0
  146.2229  129.3018  152.1266 H   0  0  0  0  0  0  0  0  0  0  0  0
  146.0174  133.4940  151.9949 H   0  0  0  0  0  0  0  0  0  0  0  0
  146.0294  132.6044  153.5020 H   0  0  0  0  0  0  0  0  0  0  0  0
  148.5662  132.1370  152.3003 H   0  0  0  0  0  0  0  0  0  0  0  0
  148.3211  133.8694  152.2224 H   0  0  0  0  0  0  0  0  0  0  0  0
  146.3862  132.3760  154.5566 H   0  0  0  0  0  0  0  0  0  0  0  0
  147.6084  131.4646  155.3897 H   0  0  0  0  0  0  0  0  0  0  0  0
  146.8963  134.4072  155.9457 H   0  0  0  0  0  0  0  0  0  0  0  0
  146.1828  133.0724  156.8010 H   0  0  0  0  0  0  0  0  0  0  0  0
  148.0204  134.0488  158.1603 H   0  0  0  0  0  0  0  0  0  0  0  0
  148.3044  132.3984  157.7676 H   0  0  0  0  0  0  0  0  0  0  0  0
  151.3143  136.6647  154.0206 H   0  0  0  0  0  0  0  0  0  0  0  0
  149.2778  137.8872  160.0009 H   0  0  0  0  0  0  0  0  0  0  0  0
  150.5071  140.0284  157.0830 H   0  0  0  0  0  0  0  0  0  0  0  0
  149.5969  140.1471  158.5696 H   0  0  0  0  0  0  0  0  0  0  0  0
  151.7515  139.3382  159.7943 H   0  0  0  0  0  0  0  0  0  0  0  0
  152.9043  138.5760  158.1085 H   0  0  0  0  0  0  0  0  0  0  0  0
  151.1667  141.7715  159.8925 H   0  0  0  0  0  0  0  0  0  0  0  0
  153.4201  141.5697  160.8243 H   0  0  0  0  0  0  0  0  0  0  0  0
  154.0939  141.2222  159.2295 H   0  0  0  0  0  0  0  0  0  0  0  0
  153.1906  143.8711  160.3027 H   0  0  0  0  0  0  0  0  0  0  0  0
  154.4664  143.5130  159.1374 H   0  0  0  0  0  0  0  0  0  0  0  0
  151.6285  144.1278  158.6402 H   0  0  0  0  0  0  0  0  0  0  0  0
  152.8939  143.9208  157.4247 H   0  0  0  0  0  0  0  0  0  0  0  0
  151.2432  132.6477  156.0606 H   0  0  0  0  0  0  0  0  0  0  0  0
  149.8622  131.6785  156.4196 H   0  0  0  0  0  0  0  0  0  0  0  0
  149.8901  131.5786  154.0818 H   0  0  0  0  0  0  0  0  0  0  0  0
  150.4468  133.2246  153.9240 H   0  0  0  0  0  0  0  0  0  0  0  0
  147.0310  131.2963  151.1391 H   0  0  0  0  0  0  0  0  0  0  0  0
  148.3579  134.0488  154.3951 H   0  0  0  0  0  0  0  0  0  0  0  0
  1  2  1  0  0  0  0
  1 30  1  0  0  0  0
  1 31  1  0  0  0  0
  1 32  1  0  0  0  0
  2  3  1  0  0  0  0
  2  4  1  0  0  0  0
  2 63  1  0  0  0  0
  3 33  1  0  0  0  0
  3 34  1  0  0  0  0
  3 35  1  0  0  0  0
  4  5  1  0  0  0  0
  4 36  1  0  0  0  0
  4 37  1  0  0  0  0
  5  6  1  0  0  0  0
  5 38  1  0  0  0  0
  5 39  1  0  0  0  0
  6 29  1  0  0  0  0
  6  7  1  0  0  0  0
  6 64  1  0  0  0  0
  7  8  1  0  0  0  0
  7 40  1  0  0  0  0
  7 41  1  0  0  0  0
  8  9  1  0  0  0  0
  8 42  1  0  0  0  0
  8 43  1  0  0  0  0
  9 10  1  0  0  0  0
  9 44  1  0  0  0  0
  9 45  1  0  0  0  0
 10 11  1  0  0  0  0
 10 28  1  0  0  0  0
 11 16  1  0  0  0  0
 11 12  2  0  0  0  0
 12 13  1  0  0  0  0
 13 14  2  0  0  0  0
 13 46  1  0  0  0  0
 14 15  1  0  0  0  0
 15 19  1  0  0  0  0
 15 16  2  0  0  0  0
 16 17  1  0  0  0  0
 17 18  2  0  0  0  0
 18 19  1  0  0  0  0
 18 47  1  0  0  0  0
 19 20  1  0  0  0  0
 20 21  1  0  0  0  0
 20 48  1  0  0  0  0
 20 49  1  0  0  0  0
 21 22  1  0  0  0  0
 21 23  1  0  0  0  0
 21 50  1  0  0  0  0
 22 51  1  0  0  0  0
 23 27  1  0  0  0  0
 23 24  1  0  0  0  0
 23 52  1  0  0  0  0
 24 25  1  0  0  0  0
 24 53  1  0  0  0  0
 24 54  1  0  0  0  0
 25 26  1  0  0  0  0
 25 55  1  0  0  0  0
 25 56  1  0  0  0  0
 26 27  1  0  0  0  0
 26 57  1  0  0  0  0
 26 58  1  0  0  0  0
 28 29  1  0  0  0  0
 28 59  1  0  0  0  0
 28 60  1  0  0  0  0
 29 61  1  0  0  0  0
 29 62  1  0  0  0  0
M  CHG  1   2   1
M  CHG  1   6   1
M  END
> <s_m_source_file>
AV-unprocessed.smi

> <i_m_source_file_index>
155

> <i_lp_mmshare_version>
43012

> <i_f3d_flags>
0

> <s_epik_input>
W0NIM11OKFtDSDNdKVtDSDJdW0NIMl1OMVtDSDJdW0NIMl1bQ0gyXU4oW0NIMl1bQ0gyXTEpYyhuW2NIXW4yKWMoYzIzKW5bY0hdbjNbQ0gyXVtDQEhdKFtPSF0pW0NAQEhdNFtDSDJdW0NIMl1bQ0gyXU80

> <s_epik_cmdline>
J2VwaWtfcHl0aG9uJywgJy1waCcsICc3LjAnLCAnLXRuJywgJzgnLCAnLW1hJywgJzIwMCcsICctbWV0YWxfYmluZGluZycsICctaW1hZScsICc8aW5maWxlLm1hZT4nLCAnLW9tYWUnLCAnPG91dGZpbGUubWFlPic=

> <r_lp_tautomer_probability>
1

> <r_epik_Ionization_Penalty>
3.0333

> <r_epik_Ionization_Penalty_Charging>
3.03317

> <r_epik_Ionization_Penalty_Neutral>
0.000131872

> <r_epik_State_Penalty>
1.99939

> <r_epik_Charging_Adjusted_Penalty>
5.03256

> <i_epik_Tot_Q>
2

> <i_epik_Tot_abs_Q>
2

> <r_epik_Metal_State_Penalty>
2.00021

> <b_epik_Metal_Only>
0

> <s_lp_Force_Field>
OPLS_2005

> <r_lp_Energy>
62.6942

> <b_lp_Chiralities_Consistent>
1

> <s_lp_Variant>
AV-unprocessed.smi:155-20

> <Gold.Version>
5.8.1

> <Gold.Id.Protein>
6NUR|6NUR_protein|mol2

> <Gold.PLP.Fitness>
46.9478

> <Gold.PLP.PLP>
-40.9630

> <Gold.PLP.part.hbond>
-3.0000

> <Gold.PLP.part.metal>
0.0000

> <Gold.PLP.part.buried>
-7.1740

> <Gold.PLP.part.nonpolar>
-31.1178

> <Gold.PLP.part.repulsive>
0.2105

> <Gold.PLP.ligand.clash>
1.9087

> <Gold.PLP.ligand.torsion>
2.0836

> <Gold.PLP.Chemscore.Hbond>
2.9004

> <Gold.PLP.Chemscore.CHOScore>
1.0000

> <Gold.PLP.Chemscore.Metal>
0.0000

> <Gold.Chemscore.Hbonds>
donor molecule, donor type, donor heavy atom, donor atom, acceptor molecule, acceptor atom, score
      L1  H     2    63       P1 10747  0.65
      P1  H  6896  6907       L1    17  0.40
      P1  H  7997  8008       L1    22  0.70
      L1  C    13    46       P1  7949  0.78

> <Gold.PLP.Chemscore.Internal.Correction>
0.3594

> <Gold.Rescore>
     Score         DG    S(hbond)    S(metal)    S(lipo)     H(rot)  DE(clash)    DE(int)     intcor
     12.36     -16.04       1.69        0.00     102.27       2.75       0.41       3.27       ----

> <Gold.Chemscore.Fitness>
12.3614

> <Gold.Chemscore.DG>
-16.0378

> <Gold.Chemscore.ZeroCoef>
-5.4800

> <Gold.Chemscore.Hbond>
1.6859

> <Gold.Chemscore.Metal>
0.0000

> <Gold.Chemscore.Lipo>
102.2659

> <Gold.Chemscore.Internal_Hbond>
0.0000

> <Gold.Chemscore.DEClash>
0.4102

> <Gold.Chemscore.DEInternal>
3.2661

> <Gold.Chemscore.Rot>
2.7493

> <Gold.Chemscore.Internal.Correction>
   9.000000E+99

> <Gold.Chemscore.Hbonds>
donor molecule, donor type, donor heavy atom, donor atom, acceptor molecule, acceptor atom, score
      L1  H     2    63       P1 10747  0.65
      P1  H  6896  6907       L1    17  0.05
      P1  H  7997  8008       L1    22  0.30

> <Gold.Chemscore.Hbond.Weighted>
-5.6309

> <Gold.Chemscore.Metal.Weighted>
-0.0000

> <Gold.Chemscore.Lipo.Weighted>
-11.9651

> <Gold.Chemscore.Internal_Hbond.Weighted>
0.0000

> <Gold.Chemscore.DEClash.Weighted>
0.4102

> <Gold.Chemscore.DEInternal.Weighted>
3.2661

> <Gold.Chemscore.Rot.Weighted>
7.0383

> <Gold.Chemscore.Internal.Correction.Weighted>
   9.000000E+99

> <Gold.Protein.RotatedTorsions>
[ 6907 6896 6895 6894 ] final  -64.27 input  -60.11 | X-H torsion
[ 7974 7965 7964 7962 ] final  114.49 input  175.53 | X-H torsion
[ 8008 7997 7996 7995 ] final  -62.28 input   59.86 | X-H torsion
[ 10167 10162 10161 10158 ] final   37.23 input  -65.29 | X-H torsion
[ 10718 10713 10712 10709 ] final  114.52 input   66.30 | X-H torsion
[ 10763 10752 10751 10750 ] final  160.05 input  -60.55 | X-H torsion
[ 11005 11000 10999 10996 ] final -164.96 input  -57.11 | X-H torsion

> <Gold.Protein.ActiveResidues>
 VAL166  LYS551  ARG553  GLY616  TRP617  ASP618  TYR619  PRO620  LYS621  CYS622 
 ASP623  PHE694  ASN695  SER759  ASP760  ASP761  ALA762  ILE779  LEU786  VAL792 
 PHE793  MET794  SER795  GLU796  ALA797  LYS798  CYS799  TRP800  GLU811  SER814 

> <Gold.Protein.RotatedAtoms>
  150.7596  134.6322  159.6191 H   0  0  0  0  0  0  0  0  0  0  0  0  # atno 6907 bound_to 6896
  152.3596  134.6888  160.0220 H   0  0  0  0  0  0  0  0  0  0  0  0  # atno 6908 bound_to 6896
  151.7282  133.3280  159.3370 H   0  0  0  0  0  0  0  0  0  0  0  0  # atno 6909 bound_to 6896
  145.2037  139.2939  143.4305 H   0  0  0  0  0  0  0  0  0  0  0  0  # atno 7974 bound_to 7965
  154.4491  140.0999  156.6562 H   0  0  0  0  0  0  0  0  0  0  0  0  # atno 8008 bound_to 7997
  155.5344  140.3482  155.4414 H   0  0  0  0  0  0  0  0  0  0  0  0  # atno 8009 bound_to 7997
  156.0642  140.1333  156.9895 H   0  0  0  0  0  0  0  0  0  0  0  0  # atno 8010 bound_to 7997
  140.4053  144.1668  150.6136 H   0  0  0  0  0  0  0  0  0  0  0  0  # atno 10167 bound_to 10162
  157.6276  131.1000  150.7198 H   0  0  0  0  0  0  0  0  0  0  0  0  # atno 10718 bound_to 10713
  154.2414  135.2774  155.2852 H   0  0  0  0  0  0  0  0  0  0  0  0  # atno 10763 bound_to 10752
  154.5542  135.5666  153.6952 H   0  0  0  0  0  0  0  0  0  0  0  0  # atno 10764 bound_to 10752
  152.9999  135.6282  154.2558 H   0  0  0  0  0  0  0  0  0  0  0  0  # atno 10765 bound_to 10752
  140.5810  134.5141  157.5178 H   0  0  0  0  0  0  0  0  0  0  0  0  # atno 11005 bound_to 11000
  146.3412  140.2290  142.8593 LP  0  0  0  0  0  0  0  0  0  0  0  0  # atno 17320 bound_to 7965
  144.9923  140.8558  143.5332 LP  0  0  0  0  0  0  0  0  0  0  0  0  # atno 17321 bound_to 7965
  140.4697  143.2418  151.9107 LP  0  0  0  0  0  0  0  0  0  0  0  0  # atno 17342 bound_to 10162
  139.4783  144.5383  151.8566 LP  0  0  0  0  0  0  0  0  0  0  0  0  # atno 17343 bound_to 10162
  156.7543  130.4778  149.5450 LP  0  0  0  0  0  0  0  0  0  0  0  0  # atno 17370 bound_to 10713
  156.1458  130.6276  151.0529 LP  0  0  0  0  0  0  0  0  0  0  0  0  # atno 17371 bound_to 10713
  139.9317  134.7951  156.0913 LP  0  0  0  0  0  0  0  0  0  0  0  0  # atno 17394 bound_to 11000
  141.0996  133.6682  156.2723 LP  0  0  0  0  0  0  0  0  0  0  0  0  # atno 17395 bound_to 11000

$$$$
