AV-unprocessed.smi:1243|AV-procd|sdf|5220|dock9
  -GOLD-   22720 4313D 1   1.00000     0.00000
 Structure written by MMmdl.
 50 51  0  0  0  0  0  0  0  0  1 V2000
  146.9266  132.9523  150.4682 C   0  0  0  0  0  0  0  0  0  0  0  0
  146.8571  134.0076  151.4209 O   0  0  0  0  0  0  0  0  0  0  0  0
  145.6174  134.3807  151.9047 C   0  0  0  0  0  0  0  0  0  0  0  0
  144.5224  133.7206  151.4509 N   0  0  0  0  0  0  0  0  0  0  0  0
  143.3116  134.0864  151.9195 C   0  0  0  0  0  0  0  0  0  0  0  0
  143.1273  135.1247  152.8506 C   0  0  0  0  0  0  0  0  0  0  0  0
  144.2614  135.8111  153.3226 C   0  0  0  0  0  0  0  0  0  0  0  0
  145.5415  135.4281  152.8527 C   0  0  0  0  0  0  0  0  0  0  0  0
  146.7542  136.0556  153.2519 N   0  0  0  0  0  0  0  0  0  0  0  0
  147.0638  136.6233  154.4298 C   0  0  0  0  0  0  0  0  0  0  0  0
  146.3047  136.7293  155.3927 O   0  0  0  0  0  0  0  0  0  0  0  0
  148.3310  137.0583  154.4306 N   0  0  0  0  0  0  0  0  0  0  0  0
  149.0046  137.7405  155.5350 C   0  0  0  0  0  0  0  0  0  0  0  0
  149.7012  139.0552  155.0794 C   0  0  0  0  0  0  0  0  0  0  0  0
  150.8482  138.6320  154.1266 C   0  0  0  0  0  0  0  0  0  0  0  0
  148.6739  139.8487  154.2367 C   0  0  0  0  0  0  0  0  0  0  0  0
  150.2279  139.8297  156.2383 N   0  0  0  0  0  0  0  0  0  0  0  0
  151.2242  139.1188  157.0558 C   0  0  0  0  0  0  0  0  0  0  0  0
  151.6128  139.9228  158.3101 C   0  0  0  0  0  0  0  0  0  0  0  0
  152.1541  141.2324  157.9601 N   0  0  0  0  0  0  0  0  0  0  0  0
  152.5329  141.9880  159.1439 C   0  0  0  0  0  0  0  0  0  0  0  0
  151.1660  141.9487  157.1597 C   0  0  0  0  0  0  0  0  0  0  0  0
  150.7780  141.1531  155.9001 C   0  0  0  0  0  0  0  0  0  0  0  0
  147.9676  132.7839  150.1933 H   0  0  0  0  0  0  0  0  0  0  0  0
  146.3798  133.2002  149.5574 H   0  0  0  0  0  0  0  0  0  0  0  0
  146.5386  132.0187  150.8778 H   0  0  0  0  0  0  0  0  0  0  0  0
  142.4631  133.5387  151.5369 H   0  0  0  0  0  0  0  0  0  0  0  0
  142.1382  135.3912  153.1927 H   0  0  0  0  0  0  0  0  0  0  0  0
  144.1227  136.6202  154.0221 H   0  0  0  0  0  0  0  0  0  0  0  0
  147.5072  135.9936  152.5823 H   0  0  0  0  0  0  0  0  0  0  0  0
  148.8744  136.9285  153.5898 H   0  0  0  0  0  0  0  0  0  0  0  0
  148.3041  137.9545  156.3442 H   0  0  0  0  0  0  0  0  0  0  0  0
  149.7203  137.0455  155.9734 H   0  0  0  0  0  0  0  0  0  0  0  0
  150.5035  137.9192  153.3762 H   0  0  0  0  0  0  0  0  0  0  0  0
  151.6684  138.1600  154.6687 H   0  0  0  0  0  0  0  0  0  0  0  0
  151.2610  139.4763  153.5747 H   0  0  0  0  0  0  0  0  0  0  0  0
  148.3133  139.2525  153.3975 H   0  0  0  0  0  0  0  0  0  0  0  0
  149.1014  140.7575  153.8139 H   0  0  0  0  0  0  0  0  0  0  0  0
  147.7973  140.1336  154.8180 H   0  0  0  0  0  0  0  0  0  0  0  0
  150.8381  138.1576  157.3893 H   0  0  0  0  0  0  0  0  0  0  0  0
  152.1213  138.9140  156.4712 H   0  0  0  0  0  0  0  0  0  0  0  0
  150.7404  140.0383  158.9556 H   0  0  0  0  0  0  0  0  0  0  0  0
  152.3516  139.3609  158.8824 H   0  0  0  0  0  0  0  0  0  0  0  0
  152.9520  142.9557  158.8666 H   0  0  0  0  0  0  0  0  0  0  0  0
  153.2888  141.4514  159.7180 H   0  0  0  0  0  0  0  0  0  0  0  0
  151.6734  142.1631  159.7925 H   0  0  0  0  0  0  0  0  0  0  0  0
  150.2736  142.1479  157.7556 H   0  0  0  0  0  0  0  0  0  0  0  0
  151.5664  142.9190  156.8639 H   0  0  0  0  0  0  0  0  0  0  0  0
  151.6536  141.0498  155.2589 H   0  0  0  0  0  0  0  0  0  0  0  0
  150.0512  141.7470  155.3492 H   0  0  0  0  0  0  0  0  0  0  0  0
  1  2  1  0  0  0  0
  1 24  1  0  0  0  0
  1 25  1  0  0  0  0
  1 26  1  0  0  0  0
  2  3  1  0  0  0  0
  3  8  1  0  0  0  0
  3  4  2  0  0  0  0
  4  5  1  0  0  0  0
  5  6  2  0  0  0  0
  5 27  1  0  0  0  0
  6  7  1  0  0  0  0
  6 28  1  0  0  0  0
  7  8  2  0  0  0  0
  7 29  1  0  0  0  0
  8  9  1  0  0  0  0
  9 10  1  0  0  0  0
  9 30  1  0  0  0  0
 10 11  2  0  0  0  0
 10 12  1  0  0  0  0
 12 13  1  0  0  0  0
 12 31  1  0  0  0  0
 13 14  1  0  0  0  0
 13 32  1  0  0  0  0
 13 33  1  0  0  0  0
 14 15  1  0  0  0  0
 14 16  1  0  0  0  0
 14 17  1  0  0  0  0
 15 34  1  0  0  0  0
 15 35  1  0  0  0  0
 15 36  1  0  0  0  0
 16 37  1  0  0  0  0
 16 38  1  0  0  0  0
 16 39  1  0  0  0  0
 17 23  1  0  0  0  0
 17 18  1  0  0  0  0
 18 19  1  0  0  0  0
 18 40  1  0  0  0  0
 18 41  1  0  0  0  0
 19 20  1  0  0  0  0
 19 42  1  0  0  0  0
 19 43  1  0  0  0  0
 20 21  1  0  0  0  0
 20 22  1  0  0  0  0
 21 44  1  0  0  0  0
 21 45  1  0  0  0  0
 21 46  1  0  0  0  0
 22 23  1  0  0  0  0
 22 47  1  0  0  0  0
 22 48  1  0  0  0  0
 23 49  1  0  0  0  0
 23 50  1  0  0  0  0
M  END
> <s_m_source_file>
AV-unprocessed.smi

> <i_m_source_file_index>
1243

> <i_lp_mmshare_version>
43012

> <i_f3d_flags>
0

> <s_epik_input>
W0NIM11PYzFuW2NIXVtjSF1bY0hdYzFbTkhdQyg9TylbTkhdW0NIMl1DKFtDSDNdKShbQ0gzXSlOMltDSDJdW0NIMl1OKFtDSDNdKVtDSDJdW0NIMl0y

> <s_epik_cmdline>
J2VwaWtfcHl0aG9uJywgJy1waCcsICc3LjAnLCAnLXRuJywgJzgnLCAnLW1hJywgJzIwMCcsICctbWV0YWxfYmluZGluZycsICctaW1hZScsICc8aW5maWxlLm1hZT4nLCAnLW9tYWUnLCAnPG91dGZpbGUubWFlPic=

> <r_lp_tautomer_probability>
1

> <r_epik_Ionization_Penalty>
3.08543

> <r_epik_Ionization_Penalty_Charging>
0

> <r_epik_Ionization_Penalty_Neutral>
3.08543

> <r_epik_State_Penalty>
2.1584

> <r_epik_Charging_Adjusted_Penalty>
2.1584

> <i_epik_Tot_Q>
0

> <i_epik_Tot_abs_Q>
0

> <r_epik_Metal_State_Penalty>
2.1584

> <b_epik_Metal_Only>
0

> <s_lp_Force_Field>
OPLS_2005

> <r_lp_Energy>
53.3534

> <b_lp_Chiralities_Consistent>
1

> <s_lp_Variant>
AV-unprocessed.smi:1243-3

> <Gold.Version>
5.8.1

> <Gold.Id.Protein>
6NUR|6NUR_protein|mol2

> <Gold.PLP.Fitness>
37.2023

> <Gold.PLP.PLP>
-29.2119

> <Gold.PLP.part.hbond>
-2.0000

> <Gold.PLP.part.metal>
0.0000

> <Gold.PLP.part.buried>
-2.7743

> <Gold.PLP.part.nonpolar>
-23.5654

> <Gold.PLP.part.repulsive>
0.7725

> <Gold.PLP.ligand.clash>
0.0000

> <Gold.PLP.ligand.torsion>
0.3379

> <Gold.PLP.Chemscore.Hbond>
2.0000

> <Gold.PLP.Chemscore.CHOScore>
0.8667

> <Gold.PLP.Chemscore.Metal>
0.0000

> <Gold.Chemscore.Hbonds>
donor molecule, donor type, donor heavy atom, donor atom, acceptor molecule, acceptor atom, score
      L1  H     9    30       P1  7948  1.00
      L1  H    12    31       P1  7948  0.98
      L1  C     5    27       P1 10186  0.70

> <Gold.PLP.Chemscore.Internal.Correction>
0.0662

> <Gold.Rescore>
     Score         DG    S(hbond)    S(metal)    S(lipo)     H(rot)  DE(clash)    DE(int)     intcor
     16.55     -17.08       1.97        0.00      79.42       1.67       0.06       0.48       ----

> <Gold.Chemscore.Fitness>
16.5454

> <Gold.Chemscore.DG>
-17.0810

> <Gold.Chemscore.ZeroCoef>
-5.4800

> <Gold.Chemscore.Hbond>
1.9740

> <Gold.Chemscore.Metal>
0.0000

> <Gold.Chemscore.Lipo>
79.4223

> <Gold.Chemscore.Internal_Hbond>
0.0000

> <Gold.Chemscore.DEClash>
0.0591

> <Gold.Chemscore.DEInternal>
0.4765

> <Gold.Chemscore.Rot>
1.6737

> <Gold.Chemscore.Internal.Correction>
   9.000000E+99

> <Gold.Chemscore.Hbonds>
donor molecule, donor type, donor heavy atom, donor atom, acceptor molecule, acceptor atom, score
      L1  H     9    30       P1  7948  0.99
      L1  H    12    31       P1  7948  0.93

> <Gold.Chemscore.Hbond.Weighted>
-6.5933

> <Gold.Chemscore.Metal.Weighted>
-0.0000

> <Gold.Chemscore.Lipo.Weighted>
-9.2924

> <Gold.Chemscore.Internal_Hbond.Weighted>
0.0000

> <Gold.Chemscore.DEClash.Weighted>
0.0591

> <Gold.Chemscore.DEInternal.Weighted>
0.4765

> <Gold.Chemscore.Rot.Weighted>
4.2848

> <Gold.Chemscore.Internal.Correction.Weighted>
   9.000000E+99

> <Gold.Protein.RotatedTorsions>
[ 6907 6896 6895 6894 ] final   24.75 input  -60.11 | X-H torsion
[ 7974 7965 7964 7962 ] final   10.90 input  175.53 | X-H torsion
[ 8008 7997 7996 7995 ] final    9.32 input   59.86 | X-H torsion
[ 10167 10162 10161 10158 ] final  -69.96 input  -65.29 | X-H torsion
[ 10718 10713 10712 10709 ] final  -47.25 input   66.30 | X-H torsion
[ 10763 10752 10751 10750 ] final -134.28 input  -60.55 | X-H torsion
[ 11005 11000 10999 10996 ] final -106.46 input  -57.11 | X-H torsion

> <Gold.Protein.ActiveResidues>
 VAL166  LYS551  ARG553  GLY616  TRP617  ASP618  TYR619  PRO620  LYS621  CYS622 
 ASP623  PHE694  ASN695  SER759  ASP760  ASP761  ALA762  ILE779  LEU786  VAL792 
 PHE793  MET794  SER795  GLU796  ALA797  LYS798  CYS799  TRP800  GLU811  SER814 

> <Gold.Protein.RotatedAtoms>
  151.9621  135.0118  160.0547 H   0  0  0  0  0  0  0  0  0  0  0  0  # atno 6907 bound_to 6896
  152.1859  133.4734  159.4990 H   0  0  0  0  0  0  0  0  0  0  0  0  # atno 6908 bound_to 6896
  150.6926  134.1692  159.4248 H   0  0  0  0  0  0  0  0  0  0  0  0  # atno 6909 bound_to 6896
  146.2380  139.9565  142.8464 H   0  0  0  0  0  0  0  0  0  0  0  0  # atno 7974 bound_to 7965
  154.7785  140.2814  155.6082 H   0  0  0  0  0  0  0  0  0  0  0  0  # atno 8008 bound_to 7997
  156.2946  140.2628  156.2532 H   0  0  0  0  0  0  0  0  0  0  0  0  # atno 8009 bound_to 7997
  154.9813  140.0375  157.2268 H   0  0  0  0  0  0  0  0  0  0  0  0  # atno 8010 bound_to 7997
  140.5390  143.2316  151.7125 H   0  0  0  0  0  0  0  0  0  0  0  0  # atno 10167 bound_to 10162
  156.2102  130.4160  149.9124 H   0  0  0  0  0  0  0  0  0  0  0  0  # atno 10718 bound_to 10713
  154.8721  135.3739  154.4709 H   0  0  0  0  0  0  0  0  0  0  0  0  # atno 10763 bound_to 10752
  153.5370  135.7027  153.5660 H   0  0  0  0  0  0  0  0  0  0  0  0  # atno 10764 bound_to 10752
  153.3839  135.3989  155.1841 H   0  0  0  0  0  0  0  0  0  0  0  0  # atno 10765 bound_to 10752
  141.1003  133.8896  157.1859 H   0  0  0  0  0  0  0  0  0  0  0  0  # atno 11005 bound_to 11000
  145.1812  140.9768  143.4265 LP  0  0  0  0  0  0  0  0  0  0  0  0  # atno 17320 bound_to 7965
  144.9941  139.3661  143.6200 LP  0  0  0  0  0  0  0  0  0  0  0  0  # atno 17321 bound_to 7965
  139.4981  144.3999  152.0192 LP  0  0  0  0  0  0  0  0  0  0  0  0  # atno 17342 bound_to 10162
  140.3106  144.3542  150.6035 LP  0  0  0  0  0  0  0  0  0  0  0  0  # atno 17343 bound_to 10162
  156.6805  130.8856  151.3575 LP  0  0  0  0  0  0  0  0  0  0  0  0  # atno 17370 bound_to 10713
  157.7034  130.9358  150.0856 LP  0  0  0  0  0  0  0  0  0  0  0  0  # atno 17371 bound_to 10713
  139.9853  135.0084  156.9847 LP  0  0  0  0  0  0  0  0  0  0  0  0  # atno 17394 bound_to 11000
  140.5038  134.1071  155.7256 LP  0  0  0  0  0  0  0  0  0  0  0  0  # atno 17395 bound_to 11000

$$$$
