AV-unprocessed.smi:1802|AV-procd|sdf|7271|dock4
  -GOLD-   22720 8523D 1   1.00000     0.00000
 Structure written by MMmdl.
 41 42  0  0  0  0  0  0  0  0  2 V2000
  146.0813  132.6194  150.0076 C   0  0  0  0  0  0  0  0  0  0  0  0
  146.7263  133.4626  151.1167 C   0  0  2  0  0  0  0  0  0  0  0  0
  147.0971  132.5989  152.3338 C   0  0  0  0  0  0  0  0  0  0  0  0
  147.7185  133.4700  153.4320 C   0  0  0  0  0  0  0  0  0  0  0  0
  146.7834  134.6304  153.8055 C   0  0  0  0  0  0  0  0  0  0  0  0
  146.4437  135.4516  152.6144 N   0  3  2  0  0  0  0  0  0  0  0  0
  145.6508  136.6540  152.9766 C   0  0  0  0  0  0  0  0  0  0  0  0
  145.7673  137.7801  151.9346 C   0  0  0  0  0  0  0  0  0  0  0  0
  146.6824  138.9193  152.4144 C   0  0  0  0  0  0  0  0  0  0  0  0
  148.0077  138.4335  152.7820 N   0  0  0  0  0  0  0  0  0  0  0  0
  148.7677  138.9466  153.7604 C   0  0  0  0  0  0  0  0  0  0  0  0
  148.4294  139.9154  154.4411 O   0  0  0  0  0  0  0  0  0  0  0  0
  149.9225  138.2695  153.8885 N   0  0  0  0  0  0  0  0  0  0  0  0
  150.9700  138.4870  154.8224 C   0  0  0  0  0  0  0  0  0  0  0  0
  151.6042  139.6609  154.9695 N   0  0  0  0  0  0  0  0  0  0  0  0
  152.5835  139.6027  155.9525 N   0  0  0  0  0  0  0  0  0  0  0  0
  152.6500  138.3889  156.5066 C   0  0  0  0  0  0  0  0  0  0  0  0
  151.5225  137.1977  155.8819 S   0  0  0  0  0  0  0  0  0  0  0  0
  145.8126  134.6288  151.5465 C   0  0  0  0  0  0  0  0  0  0  0  0
  145.1523  132.1601  150.3468 H   0  0  0  0  0  0  0  0  0  0  0  0
  146.7490  131.8204  149.6841 H   0  0  0  0  0  0  0  0  0  0  0  0
  145.8514  133.2289  149.1332 H   0  0  0  0  0  0  0  0  0  0  0  0
  147.6461  133.8876  150.7116 H   0  0  0  0  0  0  0  0  0  0  0  0
  146.2084  132.0985  152.7213 H   0  0  0  0  0  0  0  0  0  0  0  0
  147.7959  131.8135  152.0435 H   0  0  0  0  0  0  0  0  0  0  0  0
  147.9302  132.8635  154.3132 H   0  0  0  0  0  0  0  0  0  0  0  0
  148.6764  133.8649  153.0905 H   0  0  0  0  0  0  0  0  0  0  0  0
  145.8673  134.2466  154.2577 H   0  0  0  0  0  0  0  0  0  0  0  0
  147.2716  135.2521  154.5572 H   0  0  0  0  0  0  0  0  0  0  0  0
  144.6071  136.3772  153.1339 H   0  0  0  0  0  0  0  0  0  0  0  0
  146.0119  137.0434  153.9296 H   0  0  0  0  0  0  0  0  0  0  0  0
  146.1557  137.3735  150.9998 H   0  0  0  0  0  0  0  0  0  0  0  0
  144.7819  138.1867  151.7091 H   0  0  0  0  0  0  0  0  0  0  0  0
  146.7697  139.6890  151.6454 H   0  0  0  0  0  0  0  0  0  0  0  0
  146.2468  139.4036  153.2887 H   0  0  0  0  0  0  0  0  0  0  0  0
  148.3604  137.6373  152.2707 H   0  0  0  0  0  0  0  0  0  0  0  0
  150.0638  137.4979  153.2532 H   0  0  0  0  0  0  0  0  0  0  0  0
  153.3684  138.1938  157.2888 H   0  0  0  0  0  0  0  0  0  0  0  0
  145.6000  135.2464  150.6746 H   0  0  0  0  0  0  0  0  0  0  0  0
  144.8541  134.2468  151.9017 H   0  0  0  0  0  0  0  0  0  0  0  0
  147.3221  135.7881  152.2464 H   0  0  0  0  0  0  0  0  0  0  0  0
  1  2  1  0  0  0  0
  1 20  1  0  0  0  0
  1 21  1  0  0  0  0
  1 22  1  0  0  0  0
  2 19  1  0  0  0  0
  2  3  1  0  0  0  0
  2 23  1  0  0  0  0
  3  4  1  0  0  0  0
  3 24  1  0  0  0  0
  3 25  1  0  0  0  0
  4  5  1  0  0  0  0
  4 26  1  0  0  0  0
  4 27  1  0  0  0  0
  5  6  1  0  0  0  0
  5 28  1  0  0  0  0
  5 29  1  0  0  0  0
  6  7  1  0  0  0  0
  6 19  1  0  0  0  0
  6 41  1  0  0  0  0
  7  8  1  0  0  0  0
  7 30  1  0  0  0  0
  7 31  1  0  0  0  0
  8  9  1  0  0  0  0
  8 32  1  0  0  0  0
  8 33  1  0  0  0  0
  9 10  1  0  0  0  0
  9 34  1  0  0  0  0
  9 35  1  0  0  0  0
 10 11  1  0  0  0  0
 10 36  1  0  0  0  0
 11 12  2  0  0  0  0
 11 13  1  0  0  0  0
 13 14  1  0  0  0  0
 13 37  1  0  0  0  0
 14 18  1  0  0  0  0
 14 15  2  0  0  0  0
 15 16  1  0  0  0  0
 16 17  2  0  0  0  0
 17 18  1  0  0  0  0
 17 38  1  0  0  0  0
 19 39  1  0  0  0  0
 19 40  1  0  0  0  0
M  CHG  1   6   1
M  END
> <s_m_source_file>
AV-unprocessed.smi

> <i_m_source_file_index>
1802

> <i_lp_mmshare_version>
43012

> <i_f3d_flags>
0

> <s_epik_input>
W0NIM11bQ0BASF0xW0NIMl1bQ0gyXVtDSDJdTihbQ0gyXTEpW0NIMl1bQ0gyXVtDSDJdW05IXUMoPU8pW05IXWMybm5bY0hdczI=

> <s_epik_cmdline>
J2VwaWtfcHl0aG9uJywgJy1waCcsICc3LjAnLCAnLXRuJywgJzgnLCAnLW1hJywgJzIwMCcsICctbWV0YWxfYmluZGluZycsICctaW1hZScsICc8aW5maWxlLm1hZT4nLCAnLW9tYWUnLCAnPG91dGZpbGUubWFlPic=

> <r_lp_tautomer_probability>
1

> <r_epik_Ionization_Penalty>
0.00272894

> <r_epik_Ionization_Penalty_Charging>
0.000288442

> <r_epik_Ionization_Penalty_Neutral>
0.0024405

> <r_epik_State_Penalty>
-0

> <r_epik_Charging_Adjusted_Penalty>
0.000288442

> <i_epik_Tot_Q>
1

> <i_epik_Tot_abs_Q>
1

> <r_epik_Metal_State_Penalty>
0.350525

> <b_epik_Metal_Only>
0

> <s_lp_Force_Field>
OPLS_2005

> <r_lp_Energy>
15.5864

> <b_lp_Chiralities_Consistent>
1

> <s_lp_Variant>
AV-unprocessed.smi:1802-1

> <Gold.Version>
5.8.1

> <Gold.Id.Protein>
6NUR|6NUR_protein|mol2

> <Gold.PLP.Fitness>
46.3509

> <Gold.PLP.PLP>
-31.8852

> <Gold.PLP.part.hbond>
-6.3602

> <Gold.PLP.part.metal>
0.0000

> <Gold.PLP.part.buried>
-1.2780

> <Gold.PLP.part.nonpolar>
-25.5733

> <Gold.PLP.part.repulsive>
0.2762

> <Gold.PLP.ligand.clash>
0.0000

> <Gold.PLP.ligand.torsion>
1.2029

> <Gold.PLP.Chemscore.Hbond>
5.5908

> <Gold.PLP.Chemscore.CHOScore>
0.0000

> <Gold.PLP.Chemscore.Metal>
0.0000

> <Gold.Chemscore.Hbonds>
donor molecule, donor type, donor heavy atom, donor atom, acceptor molecule, acceptor atom, score
      L1  H     6    41       P1  7948  2.00
      L1  H    10    36       P1  7948  1.00
      L1  H    13    37       P1  7948  0.62
      P1  H  7989  7998       L1    15  1.00
      P1  H  7997  8008       L1    16  1.00

> <Gold.PLP.Chemscore.Internal.Correction>
0.0989

> <Gold.Rescore>
     Score         DG    S(hbond)    S(metal)    S(lipo)     H(rot)  DE(clash)    DE(int)     intcor
     19.09     -20.33       3.88        0.00      59.30       1.98       0.01       1.22       ----

> <Gold.Chemscore.Fitness>
19.0936

> <Gold.Chemscore.DG>
-20.3265

> <Gold.Chemscore.ZeroCoef>
-5.4800

> <Gold.Chemscore.Hbond>
3.8848

> <Gold.Chemscore.Metal>
0.0000

> <Gold.Chemscore.Lipo>
59.2996

> <Gold.Chemscore.Internal_Hbond>
0.0000

> <Gold.Chemscore.DEClash>
0.0089

> <Gold.Chemscore.DEInternal>
1.2239

> <Gold.Chemscore.Rot>
1.9793

> <Gold.Chemscore.Internal.Correction>
   9.000000E+99

> <Gold.Chemscore.Hbonds>
donor molecule, donor type, donor heavy atom, donor atom, acceptor molecule, acceptor atom, score
      L1  H     6    41       P1  7948  1.00
      L1  H    10    36       P1  7948  0.95
      L1  H    13    37       P1  7948  0.15
      P1  H  7989  7998       L1    15  0.95
      P1  H  7997  8008       L1    16  0.26

> <Gold.Chemscore.Hbond.Weighted>
-12.9754

> <Gold.Chemscore.Metal.Weighted>
-0.0000

> <Gold.Chemscore.Lipo.Weighted>
-6.9380

> <Gold.Chemscore.Internal_Hbond.Weighted>
0.0000

> <Gold.Chemscore.DEClash.Weighted>
0.0089

> <Gold.Chemscore.DEInternal.Weighted>
1.2239

> <Gold.Chemscore.Rot.Weighted>
5.0670

> <Gold.Chemscore.Internal.Correction.Weighted>
   9.000000E+99

> <Gold.Protein.RotatedTorsions>
[ 6907 6896 6895 6894 ] final   36.75 input  -60.11 | X-H torsion
[ 7974 7965 7964 7962 ] final   15.36 input  175.53 | X-H torsion
[ 8008 7997 7996 7995 ] final  -31.64 input   59.86 | X-H torsion
[ 10167 10162 10161 10158 ] final  -77.21 input  -65.29 | X-H torsion
[ 10718 10713 10712 10709 ] final  174.80 input   66.30 | X-H torsion
[ 10763 10752 10751 10750 ] final   19.04 input  -60.55 | X-H torsion
[ 11005 11000 10999 10996 ] final  -98.37 input  -57.11 | X-H torsion

> <Gold.Protein.ActiveResidues>
 VAL166  LYS551  ARG553  GLY616  TRP617  ASP618  TYR619  PRO620  LYS621  CYS622 
 ASP623  PHE694  ASN695  SER759  ASP760  ASP761  ALA762  ILE779  LEU786  VAL792 
 PHE793  MET794  SER795  GLU796  ALA797  LYS798  CYS799  TRP800  GLU811  SER814 

> <Gold.Protein.RotatedAtoms>
  152.1339  134.9114  160.0557 H   0  0  0  0  0  0  0  0  0  0  0  0  # atno 6907 bound_to 6896
  152.0207  133.3893  159.4265 H   0  0  0  0  0  0  0  0  0  0  0  0  # atno 6908 bound_to 6896
  150.6859  134.3550  159.4969 H   0  0  0  0  0  0  0  0  0  0  0  0  # atno 6909 bound_to 6896
  146.2280  139.8906  142.8555 H   0  0  0  0  0  0  0  0  0  0  0  0  # atno 7974 bound_to 7965
  154.4207  140.1759  156.1598 H   0  0  0  0  0  0  0  0  0  0  0  0  # atno 8008 bound_to 7997
  155.9847  140.3374  155.6672 H   0  0  0  0  0  0  0  0  0  0  0  0  # atno 8009 bound_to 7997
  155.6453  140.0684  157.2596 H   0  0  0  0  0  0  0  0  0  0  0  0  # atno 8010 bound_to 7997
  140.4789  143.2407  151.8088 H   0  0  0  0  0  0  0  0  0  0  0  0  # atno 10167 bound_to 10162
  156.9443  131.0011  151.2962 H   0  0  0  0  0  0  0  0  0  0  0  0  # atno 10718 bound_to 10713
  153.1197  135.6716  153.9357 H   0  0  0  0  0  0  0  0  0  0  0  0  # atno 10763 bound_to 10752
  153.8876  135.3050  155.3448 H   0  0  0  0  0  0  0  0  0  0  0  0  # atno 10764 bound_to 10752
  154.7609  135.4988  153.9542 H   0  0  0  0  0  0  0  0  0  0  0  0  # atno 10765 bound_to 10752
  141.1347  133.8240  157.0831 H   0  0  0  0  0  0  0  0  0  0  0  0  # atno 11005 bound_to 11000
  145.2422  141.0013  143.3929 LP  0  0  0  0  0  0  0  0  0  0  0  0  # atno 17320 bound_to 7965
  144.9443  139.4154  143.6434 LP  0  0  0  0  0  0  0  0  0  0  0  0  # atno 17321 bound_to 7965
  139.4830  144.4797  151.9322 LP  0  0  0  0  0  0  0  0  0  0  0  0  # atno 17342 bound_to 10162
  140.3882  144.2649  150.5902 LP  0  0  0  0  0  0  0  0  0  0  0  0  # atno 17343 bound_to 10162
  157.5764  130.8346  149.8462 LP  0  0  0  0  0  0  0  0  0  0  0  0  # atno 17370 bound_to 10713
  156.0391  130.3743  150.1483 LP  0  0  0  0  0  0  0  0  0  0  0  0  # atno 17371 bound_to 10713
  140.0439  134.9840  157.1013 LP  0  0  0  0  0  0  0  0  0  0  0  0  # atno 17394 bound_to 11000
  140.4092  134.1999  155.7163 LP  0  0  0  0  0  0  0  0  0  0  0  0  # atno 17395 bound_to 11000

$$$$
