AV-unprocessed.smi:2265|AV-procd|sdf|9143|dock4
  -GOLD-   2272012353D 1   1.00000     0.00000
 Structure written by MMmdl.
 36 37  0  0  0  0  0  0  0  0  1 V2000
  154.2993  140.9960  161.0939 C   0  0  0  0  0  0  0  0  0  0  0  0
  153.4434  141.6609  160.0105 C   0  0  0  0  0  0  0  0  0  0  0  0
  153.0287  143.0906  160.3836 C   0  0  0  0  0  0  0  0  0  0  0  0
  151.9941  143.6603  159.4338 C   0  0  2  0  0  0  0  0  0  0  0  0
  152.2005  145.0125  158.8047 C   0  0  0  0  0  0  0  0  0  0  0  0
  151.1178  144.8227  159.8470 C   0  0  1  0  0  0  0  0  0  0  0  0
  149.7655  144.8607  159.3786 N   0  0  0  0  0  0  0  0  0  0  0  0
  148.6407  144.8166  160.1150 C   0  0  0  0  0  0  0  0  0  0  0  0
  148.6945  144.7721  161.3438 O   0  0  0  0  0  0  0  0  0  0  0  0
  147.5053  144.8712  159.3836 N   0  0  0  0  0  0  0  0  0  0  0  0
  146.1799  144.8731  159.8349 C   0  0  0  0  0  0  0  0  0  0  0  0
  145.2440  145.6083  159.3027 N   0  0  0  0  0  0  0  0  0  0  0  0
  143.9342  145.5890  159.7824 C   0  0  0  0  0  0  0  0  0  0  0  0
  143.5914  144.8066  160.8216 C   0  0  0  0  0  0  0  0  0  0  0  0
  144.5442  143.9909  161.4483 N   0  0  0  0  0  0  0  0  0  0  0  0
  144.1186  143.1582  162.5736 C   0  0  0  0  0  0  0  0  0  0  0  0
  145.8359  143.9673  161.0208 C   0  0  0  0  0  0  0  0  0  0  0  0
  146.7076  143.2649  161.5369 O   0  0  0  0  0  0  0  0  0  0  0  0
  154.5768  139.9828  160.8026 H   0  0  0  0  0  0  0  0  0  0  0  0
  153.7602  140.9347  162.0397 H   0  0  0  0  0  0  0  0  0  0  0  0
  155.2189  141.5559  161.2673 H   0  0  0  0  0  0  0  0  0  0  0  0
  153.9989  141.6741  159.0720 H   0  0  0  0  0  0  0  0  0  0  0  0
  152.5532  141.0562  159.8340 H   0  0  0  0  0  0  0  0  0  0  0  0
  152.6153  143.1071  161.3925 H   0  0  0  0  0  0  0  0  0  0  0  0
  153.9039  143.7415  160.3934 H   0  0  0  0  0  0  0  0  0  0  0  0
  151.5217  142.9086  158.8035 H   0  0  0  0  0  0  0  0  0  0  0  0
  153.0832  145.5783  159.0970 H   0  0  0  0  0  0  0  0  0  0  0  0
  151.8971  145.1308  157.7662 H   0  0  0  0  0  0  0  0  0  0  0  0
  151.3277  145.2853  160.8105 H   0  0  0  0  0  0  0  0  0  0  0  0
  149.6480  145.0207  158.3884 H   0  0  0  0  0  0  0  0  0  0  0  0
  147.6382  144.9413  158.3852 H   0  0  0  0  0  0  0  0  0  0  0  0
  143.2233  146.2280  159.2796 H   0  0  0  0  0  0  0  0  0  0  0  0
  142.5914  144.7576  161.2271 H   0  0  0  0  0  0  0  0  0  0  0  0
  144.7171  143.3739  163.4599 H   0  0  0  0  0  0  0  0  0  0  0  0
  144.2378  142.1014  162.3312 H   0  0  0  0  0  0  0  0  0  0  0  0
  143.0735  143.3186  162.8398 H   0  0  0  0  0  0  0  0  0  0  0  0
  1  2  1  0  0  0  0
  1 19  1  0  0  0  0
  1 20  1  0  0  0  0
  1 21  1  0  0  0  0
  2  3  1  0  0  0  0
  2 22  1  0  0  0  0
  2 23  1  0  0  0  0
  3  4  1  0  0  0  0
  3 24  1  0  0  0  0
  3 25  1  0  0  0  0
  4  6  1  0  0  0  0
  4  5  1  0  0  0  0
  4 26  1  0  0  0  0
  5  6  1  0  0  0  0
  5 27  1  0  0  0  0
  5 28  1  0  0  0  0
  6  7  1  0  0  0  0
  6 29  1  0  0  0  0
  7  8  1  0  0  0  0
  7 30  1  0  0  0  0
  8  9  2  0  0  0  0
  8 10  1  0  0  0  0
 10 11  1  0  0  0  0
 10 31  1  0  0  0  0
 11 17  1  0  0  0  0
 11 12  2  0  0  0  0
 12 13  1  0  0  0  0
 13 14  2  0  0  0  0
 13 32  1  0  0  0  0
 14 15  1  0  0  0  0
 14 33  1  0  0  0  0
 15 16  1  0  0  0  0
 15 17  1  0  0  0  0
 16 34  1  0  0  0  0
 16 35  1  0  0  0  0
 16 36  1  0  0  0  0
 17 18  2  0  0  0  0
M  END
> <s_m_source_file>
AV-unprocessed.smi

> <i_m_source_file_index>
2265

> <i_lp_mmshare_version>
43012

> <i_f3d_flags>
0

> <s_epik_input>
W0NIM11bQ0gyXVtDSDJdW0NAQEhdMVtDSDJdW0NASF0xW05IXUMoPU8pW05IXWMybltjSF1bY0hdbihbQ0gzXSljMj1P

> <s_epik_cmdline>
J2VwaWtfcHl0aG9uJywgJy1waCcsICc3LjAnLCAnLXRuJywgJzgnLCAnLW1hJywgJzIwMCcsICctbWV0YWxfYmluZGluZycsICctaW1hZScsICc8aW5maWxlLm1hZT4nLCAnLW9tYWUnLCAnPG91dGZpbGUubWFlPic=

> <r_lp_tautomer_probability>
1

> <r_epik_Ionization_Penalty>
0.000728552

> <r_epik_Ionization_Penalty_Charging>
1.67739e-07

> <r_epik_Ionization_Penalty_Neutral>
0.000728385

> <r_epik_State_Penalty>
-0

> <r_epik_Charging_Adjusted_Penalty>
1.67739e-07

> <i_epik_Tot_Q>
0

> <i_epik_Tot_abs_Q>
0

> <r_epik_Metal_State_Penalty>
-0

> <b_epik_Metal_Only>
0

> <s_lp_Force_Field>
OPLS_2005

> <r_lp_Energy>
43.0048

> <b_lp_Chiralities_Consistent>
1

> <s_lp_Variant>
AV-unprocessed.smi:2265-1

> <Gold.Version>
5.8.1

> <Gold.Id.Protein>
6NUR|6NUR_protein|mol2

> <Gold.PLP.Fitness>
44.3469

> <Gold.PLP.PLP>
-39.3469

> <Gold.PLP.part.hbond>
-2.9413

> <Gold.PLP.part.metal>
0.0000

> <Gold.PLP.part.buried>
-3.6007

> <Gold.PLP.part.nonpolar>
-33.0061

> <Gold.PLP.part.repulsive>
0.7492

> <Gold.PLP.ligand.clash>
0.0000

> <Gold.PLP.ligand.torsion>
0.7952

> <Gold.PLP.Chemscore.Hbond>
2.0011

> <Gold.PLP.Chemscore.CHOScore>
0.0000

> <Gold.PLP.Chemscore.Metal>
0.0000

> <Gold.Chemscore.Hbonds>
donor molecule, donor type, donor heavy atom, donor atom, acceptor molecule, acceptor atom, score
      L1  H     7    30       P1  8029  0.26
      L1  H    10    31       P1  8029  0.81
      P1  H  6933  6944       L1    18  0.94

> <Gold.PLP.Chemscore.Internal.Correction>
0.5872

> <Gold.Rescore>
     Score         DG    S(hbond)    S(metal)    S(lipo)     H(rot)  DE(clash)    DE(int)     intcor
     17.78     -21.53       2.96        0.00      84.70       1.46       0.21       3.54       ----

> <Gold.Chemscore.Fitness>
17.7835

> <Gold.Chemscore.DG>
-21.5340

> <Gold.Chemscore.ZeroCoef>
-5.4800

> <Gold.Chemscore.Hbond>
2.9590

> <Gold.Chemscore.Metal>
0.0000

> <Gold.Chemscore.Lipo>
84.6988

> <Gold.Chemscore.Internal_Hbond>
0.0000

> <Gold.Chemscore.DEClash>
0.2070

> <Gold.Chemscore.DEInternal>
3.5435

> <Gold.Chemscore.Rot>
1.4604

> <Gold.Chemscore.Internal.Correction>
   9.000000E+99

> <Gold.Chemscore.Hbonds>
donor molecule, donor type, donor heavy atom, donor atom, acceptor molecule, acceptor atom, score
      L1  H     7    30       P1  8029  0.12
      L1  H    10    31       P1  8029  0.74
      P1  H  6933  6944       L1    18  0.88

> <Gold.Chemscore.Hbond.Weighted>
-9.8830

> <Gold.Chemscore.Metal.Weighted>
-0.0000

> <Gold.Chemscore.Lipo.Weighted>
-9.9098

> <Gold.Chemscore.Internal_Hbond.Weighted>
0.0000

> <Gold.Chemscore.DEClash.Weighted>
0.2070

> <Gold.Chemscore.DEInternal.Weighted>
3.5435

> <Gold.Chemscore.Rot.Weighted>
3.7387

> <Gold.Chemscore.Internal.Correction.Weighted>
   9.000000E+99

> <Gold.Protein.RotatedTorsions>
[ 6907 6896 6895 6894 ] final -179.73 input  -60.11 | X-H torsion
[ 7974 7965 7964 7962 ] final  156.05 input  175.53 | X-H torsion
[ 8008 7997 7996 7995 ] final  -97.35 input   59.86 | X-H torsion
[ 10167 10162 10161 10158 ] final  120.67 input  -65.29 | X-H torsion
[ 10718 10713 10712 10709 ] final  165.35 input   66.30 | X-H torsion
[ 10763 10752 10751 10750 ] final  -26.63 input  -60.55 | X-H torsion
[ 11005 11000 10999 10996 ] final -153.12 input  -57.11 | X-H torsion

> <Gold.Protein.ActiveResidues>
 VAL166  LYS551  ARG553  GLY616  TRP617  ASP618  TYR619  PRO620  LYS621  CYS622 
 ASP623  PHE694  ASN695  SER759  ASP760  ASP761  ALA762  ILE779  LEU786  VAL792 
 PHE793  MET794  SER795  GLU796  ALA797  LYS798  CYS799  TRP800  GLU811  SER814 

> <Gold.Protein.RotatedAtoms>
  151.6582  133.3318  159.3167 H   0  0  0  0  0  0  0  0  0  0  0  0  # atno 6907 bound_to 6896
  150.7926  134.6966  159.6536 H   0  0  0  0  0  0  0  0  0  0  0  0  # atno 6908 bound_to 6896
  152.4008  134.6292  160.0122 H   0  0  0  0  0  0  0  0  0  0  0  0  # atno 6909 bound_to 6896
  144.7987  139.7151  143.6191 H   0  0  0  0  0  0  0  0  0  0  0  0  # atno 7974 bound_to 7965
  154.7866  140.0464  157.1168 H   0  0  0  0  0  0  0  0  0  0  0  0  # atno 8008 bound_to 7997
  154.9641  140.3081  155.4998 H   0  0  0  0  0  0  0  0  0  0  0  0  # atno 8009 bound_to 7997
  156.2944  140.2265  156.4728 H   0  0  0  0  0  0  0  0  0  0  0  0  # atno 8010 bound_to 7997
  139.5967  144.7044  151.3159 H   0  0  0  0  0  0  0  0  0  0  0  0  # atno 10167 bound_to 10162
  157.0815  131.0393  151.2573 H   0  0  0  0  0  0  0  0  0  0  0  0  # atno 10718 bound_to 10713
  153.7191  135.6946  153.5017 H   0  0  0  0  0  0  0  0  0  0  0  0  # atno 10763 bound_to 10752
  153.2217  135.4367  155.0495 H   0  0  0  0  0  0  0  0  0  0  0  0  # atno 10764 bound_to 10752
  154.8290  135.3462  154.6725 H   0  0  0  0  0  0  0  0  0  0  0  0  # atno 10765 bound_to 10752
  140.7116  134.3826  157.5197 H   0  0  0  0  0  0  0  0  0  0  0  0  # atno 11005 bound_to 11000
  146.2262  139.5727  142.9585 LP  0  0  0  0  0  0  0  0  0  0  0  0  # atno 17320 bound_to 7965
  145.5608  141.0404  143.2227 LP  0  0  0  0  0  0  0  0  0  0  0  0  # atno 17321 bound_to 7965
  140.7218  143.7115  150.7765 LP  0  0  0  0  0  0  0  0  0  0  0  0  # atno 17342 bound_to 10162
  140.0683  143.5086  152.2593 LP  0  0  0  0  0  0  0  0  0  0  0  0  # atno 17343 bound_to 10162
  157.4796  130.7757  149.7401 LP  0  0  0  0  0  0  0  0  0  0  0  0  # atno 17370 bound_to 10713
  155.9922  130.3932  150.2950 LP  0  0  0  0  0  0  0  0  0  0  0  0  # atno 17371 bound_to 10713
  139.8870  134.8894  156.2552 LP  0  0  0  0  0  0  0  0  0  0  0  0  # atno 17394 bound_to 11000
  141.0080  133.7112  156.1065 LP  0  0  0  0  0  0  0  0  0  0  0  0  # atno 17395 bound_to 11000

$$$$
