AV-unprocessed.smi:274|AV-procd|sdf|2059|dock10
  -GOLD-   2262021303D 1   1.00000     0.00000
 Structure written by MMmdl.
 50 53  0  0  0  0  0  0  0  0  1 V2000
  146.7190  133.7234  162.1914 C   0  0  0  0  0  0  0  0  0  0  0  0
  145.9253  135.0217  162.4418 C   0  0  0  0  0  0  0  0  0  0  0  0
  144.4655  134.6576  162.7794 C   0  0  0  0  0  0  0  0  0  0  0  0
  146.0583  136.0247  161.2526 C   0  0  1  0  0  0  0  0  0  0  0  0
  147.5314  136.2922  160.8535 C   0  0  0  0  0  0  0  0  0  0  0  0
  148.2286  137.0335  161.5431 O   0  0  0  0  0  0  0  0  0  0  0  0
  148.0187  135.7314  159.7319 N   0  0  0  0  0  0  0  0  0  0  0  0
  147.2716  134.9029  158.7851 C   0  0  0  0  0  0  0  0  0  0  0  0
  145.8904  134.4692  159.3079 C   0  0  0  0  0  0  0  0  0  0  0  0
  145.2835  135.5364  160.0994 N   0  0  0  0  0  0  0  0  0  0  0  0
  144.5330  136.4170  159.3882 C   0  0  0  0  0  0  0  0  0  0  0  0
  143.6592  137.2419  160.0244 N   0  0  0  0  0  0  0  0  0  0  0  0
  142.9311  138.1187  159.3272 C   0  0  0  0  0  0  0  0  0  0  0  0
  142.9190  138.3327  158.0102 N   0  0  0  0  0  0  0  0  0  0  0  0
  143.7905  137.5046  157.3660 C   0  0  0  0  0  0  0  0  0  0  0  0
  144.6315  136.5306  157.9740 C   0  0  0  0  0  0  0  0  0  0  0  0
  145.3831  135.8805  157.0029 N   0  0  0  0  0  0  0  0  0  0  0  0
  145.0117  136.4422  155.8849 C   0  0  0  0  0  0  0  0  0  0  0  0
  144.0498  137.4198  156.0088 N   0  0  0  0  0  0  0  0  0  0  0  0
  143.4506  138.2001  154.9364 C   0  0  0  0  0  0  0  0  0  0  0  0
  142.4810  137.3879  154.0449 C   0  0  1  0  0  0  0  0  0  0  0  0
  142.1022  138.1764  152.9298 O   0  0  0  0  0  0  0  0  0  0  0  0
  143.0973  136.0938  153.5294 C   0  0  0  0  0  0  0  0  0  0  0  0
  141.8846  135.1894  153.3553 C   0  0  0  0  0  0  0  0  0  0  0  0
  141.0888  135.5056  154.4847 O   0  0  0  0  0  0  0  0  0  0  0  0
  141.2019  136.8998  154.7566 C   0  0  0  0  0  0  0  0  0  0  0  0
  146.3786  133.2224  161.2846 H   0  0  0  0  0  0  0  0  0  0  0  0
  146.6012  133.0240  163.0195 H   0  0  0  0  0  0  0  0  0  0  0  0
  147.7883  133.9099  162.0876 H   0  0  0  0  0  0  0  0  0  0  0  0
  146.3449  135.4845  163.3355 H   0  0  0  0  0  0  0  0  0  0  0  0
  143.9407  134.2733  161.9042 H   0  0  0  0  0  0  0  0  0  0  0  0
  143.9074  135.5129  163.1590 H   0  0  0  0  0  0  0  0  0  0  0  0
  144.4209  133.8915  163.5541 H   0  0  0  0  0  0  0  0  0  0  0  0
  145.6420  136.9731  161.5973 H   0  0  0  0  0  0  0  0  0  0  0  0
  148.9808  135.9282  159.4966 H   0  0  0  0  0  0  0  0  0  0  0  0
  147.1427  135.4944  157.8781 H   0  0  0  0  0  0  0  0  0  0  0  0
  147.8662  134.0322  158.5086 H   0  0  0  0  0  0  0  0  0  0  0  0
  145.2592  134.1556  158.4759 H   0  0  0  0  0  0  0  0  0  0  0  0
  145.9976  133.5890  159.9414 H   0  0  0  0  0  0  0  0  0  0  0  0
  142.2631  138.7376  159.9079 H   0  0  0  0  0  0  0  0  0  0  0  0
  145.4318  136.1526  154.9329 H   0  0  0  0  0  0  0  0  0  0  0  0
  142.9283  139.0485  155.3811 H   0  0  0  0  0  0  0  0  0  0  0  0
  144.2551  138.6212  154.3321 H   0  0  0  0  0  0  0  0  0  0  0  0
  142.6399  138.9533  152.9151 H   0  0  0  0  0  0  0  0  0  0  0  0
  143.6772  136.2175  152.6136 H   0  0  0  0  0  0  0  0  0  0  0  0
  143.7568  135.6624  154.2839 H   0  0  0  0  0  0  0  0  0  0  0  0
  141.3397  135.4342  152.4422 H   0  0  0  0  0  0  0  0  0  0  0  0
  142.1453  134.1314  153.3296 H   0  0  0  0  0  0  0  0  0  0  0  0
  141.2589  137.0237  155.8375 H   0  0  0  0  0  0  0  0  0  0  0  0
  140.3093  137.4255  154.4139 H   0  0  0  0  0  0  0  0  0  0  0  0
  1  2  1  0  0  0  0
  1 27  1  0  0  0  0
  1 28  1  0  0  0  0
  1 29  1  0  0  0  0
  2  3  1  0  0  0  0
  2  4  1  0  0  0  0
  2 30  1  0  0  0  0
  3 31  1  0  0  0  0
  3 32  1  0  0  0  0
  3 33  1  0  0  0  0
  4 10  1  0  0  0  0
  4  5  1  0  0  0  0
  4 34  1  0  0  0  0
  5  6  2  0  0  0  0
  5  7  1  0  0  0  0
  7  8  1  0  0  0  0
  7 35  1  0  0  0  0
  8  9  1  0  0  0  0
  8 36  1  0  0  0  0
  8 37  1  0  0  0  0
  9 10  1  0  0  0  0
  9 38  1  0  0  0  0
  9 39  1  0  0  0  0
 10 11  1  0  0  0  0
 11 16  1  0  0  0  0
 11 12  2  0  0  0  0
 12 13  1  0  0  0  0
 13 14  2  0  0  0  0
 13 40  1  0  0  0  0
 14 15  1  0  0  0  0
 15 19  1  0  0  0  0
 15 16  2  0  0  0  0
 16 17  1  0  0  0  0
 17 18  2  0  0  0  0
 18 19  1  0  0  0  0
 18 41  1  0  0  0  0
 19 20  1  0  0  0  0
 20 21  1  0  0  0  0
 20 42  1  0  0  0  0
 20 43  1  0  0  0  0
 21 26  1  0  0  0  0
 21 22  1  0  0  0  0
 21 23  1  0  0  0  0
 22 44  1  0  0  0  0
 23 24  1  0  0  0  0
 23 45  1  0  0  0  0
 23 46  1  0  0  0  0
 24 25  1  0  0  0  0
 24 47  1  0  0  0  0
 24 48  1  0  0  0  0
 25 26  1  0  0  0  0
 26 49  1  0  0  0  0
 26 50  1  0  0  0  0
M  END
> <s_m_source_file>
AV-unprocessed.smi

> <i_m_source_file_index>
274

> <i_lp_mmshare_version>
43012

> <i_f3d_flags>
0

> <s_epik_input>
W0NIM11bQ0hdKFtDSDNdKVtDQEBIXTFDKD1PKVtOSF1bQ0gyXVtDSDJdTjFjKG5bY0hdbjIpYyhjMjMpbltjSF1uM1tDSDJdW0NAQF00KFtPSF0pW0NIMl1bQ0gyXU9bQ0gyXTQ=

> <s_epik_cmdline>
J2VwaWtfcHl0aG9uJywgJy1waCcsICc3LjAnLCAnLXRuJywgJzgnLCAnLW1hJywgJzIwMCcsICctbWV0YWxfYmluZGluZycsICctaW1hZScsICc8aW5maWxlLm1hZT4nLCAnLW9tYWUnLCAnPG91dGZpbGUubWFlPic=

> <r_lp_tautomer_probability>
1

> <r_epik_Ionization_Penalty>
0.000690079

> <r_epik_Ionization_Penalty_Charging>
0

> <r_epik_Ionization_Penalty_Neutral>
0.000690079

> <r_epik_State_Penalty>
0.000321372

> <r_epik_Charging_Adjusted_Penalty>
0.000321372

> <i_epik_Tot_Q>
0

> <i_epik_Tot_abs_Q>
0

> <r_epik_Metal_State_Penalty>
-0

> <b_epik_Metal_Only>
0

> <s_lp_Force_Field>
OPLS_2005

> <r_lp_Energy>
42.7916

> <b_lp_Chiralities_Consistent>
1

> <s_lp_Variant>
AV-unprocessed.smi:274-2

> <Gold.Version>
5.8.1

> <Gold.Id.Protein>
6NUR|6NUR_protein|mol2

> <Gold.PLP.Fitness>
33.0349

> <Gold.PLP.PLP>
-25.3862

> <Gold.PLP.part.hbond>
-3.8465

> <Gold.PLP.part.metal>
0.0000

> <Gold.PLP.part.buried>
-5.2024

> <Gold.PLP.part.nonpolar>
-16.6559

> <Gold.PLP.part.repulsive>
0.2125

> <Gold.PLP.ligand.clash>
0.0033

> <Gold.PLP.ligand.torsion>
0.7663

> <Gold.PLP.Chemscore.Hbond>
2.9632

> <Gold.PLP.Chemscore.CHOScore>
0.0000

> <Gold.PLP.Chemscore.Metal>
0.0000

> <Gold.Chemscore.Hbonds>
donor molecule, donor type, donor heavy atom, donor atom, acceptor molecule, acceptor atom, score
      L1  H    22    44       P1 10175  1.00
      P1  H  6931  6943       L1     6  0.93
      P1  H  6934  6947       L1     6  0.14
      P1  H 11000 11005       L1    25  0.80

> <Gold.PLP.Chemscore.Internal.Correction>
0.2950

> <Gold.Rescore>
     Score         DG    S(hbond)    S(metal)    S(lipo)     H(rot)  DE(clash)    DE(int)     intcor
     11.87     -15.56       2.93        0.00      49.32       2.14       0.02       3.67       ----

> <Gold.Chemscore.Fitness>
11.8664

> <Gold.Chemscore.DG>
-15.5598

> <Gold.Chemscore.ZeroCoef>
-5.4800

> <Gold.Chemscore.Hbond>
2.9327

> <Gold.Chemscore.Metal>
0.0000

> <Gold.Chemscore.Lipo>
49.3232

> <Gold.Chemscore.Internal_Hbond>
0.0000

> <Gold.Chemscore.DEClash>
0.0202

> <Gold.Chemscore.DEInternal>
3.6731

> <Gold.Chemscore.Rot>
2.1431

> <Gold.Chemscore.Internal.Correction>
   9.000000E+99

> <Gold.Chemscore.Hbonds>
donor molecule, donor type, donor heavy atom, donor atom, acceptor molecule, acceptor atom, score
      L1  H    22    44       P1 10175  1.00
      P1  H  6931  6943       L1     6  0.89
      P1  H  6934  6947       L1     6  0.02
      P1  H 11000 11005       L1    25  0.77

> <Gold.Chemscore.Hbond.Weighted>
-9.7952

> <Gold.Chemscore.Metal.Weighted>
-0.0000

> <Gold.Chemscore.Lipo.Weighted>
-5.7708

> <Gold.Chemscore.Internal_Hbond.Weighted>
0.0000

> <Gold.Chemscore.DEClash.Weighted>
0.0202

> <Gold.Chemscore.DEInternal.Weighted>
3.6731

> <Gold.Chemscore.Rot.Weighted>
5.4863

> <Gold.Chemscore.Internal.Correction.Weighted>
   9.000000E+99

> <Gold.Protein.RotatedTorsions>
[ 6907 6896 6895 6894 ] final -172.05 input  -60.11 | X-H torsion
[ 7974 7965 7964 7962 ] final  -65.46 input  175.53 | X-H torsion
[ 8008 7997 7996 7995 ] final   25.14 input   59.86 | X-H torsion
[ 10167 10162 10161 10158 ] final  173.14 input  -65.29 | X-H torsion
[ 10718 10713 10712 10709 ] final  -39.28 input   66.30 | X-H torsion
[ 10763 10752 10751 10750 ] final  -51.17 input  -60.55 | X-H torsion
[ 11005 11000 10999 10996 ] final   36.24 input  -57.11 | X-H torsion

> <Gold.Protein.ActiveResidues>
 VAL166  LYS551  ARG553  GLY616  TRP617  ASP618  TYR619  PRO620  LYS621  CYS622 
 ASP623  PHE694  ASN695  SER759  ASP760  ASP761  ALA762  ILE779  LEU786  VAL792 
 PHE793  MET794  SER795  GLU796  ALA797  LYS798  CYS799  TRP800  GLU811  SER814 

> <Gold.Protein.RotatedAtoms>
  151.5337  133.3444  159.2922 H   0  0  0  0  0  0  0  0  0  0  0  0  # atno 6907 bound_to 6896
  150.8578  134.7924  159.7070 H   0  0  0  0  0  0  0  0  0  0  0  0  # atno 6908 bound_to 6896
  152.4606  134.5201  159.9831 H   0  0  0  0  0  0  0  0  0  0  0  0  # atno 6909 bound_to 6896
  145.7540  140.8895  143.0465 H   0  0  0  0  0  0  0  0  0  0  0  0  # atno 7974 bound_to 7965
  155.0071  140.3132  155.4844 H   0  0  0  0  0  0  0  0  0  0  0  0  # atno 8008 bound_to 7997
  156.2915  140.2221  156.5125 H   0  0  0  0  0  0  0  0  0  0  0  0  # atno 8009 bound_to 7997
  154.7567  140.0462  157.0927 H   0  0  0  0  0  0  0  0  0  0  0  0  # atno 8010 bound_to 7997
  139.5099  144.3294  152.0126 H   0  0  0  0  0  0  0  0  0  0  0  0  # atno 10167 bound_to 10162
  156.2942  130.4232  149.8207 H   0  0  0  0  0  0  0  0  0  0  0  0  # atno 10718 bound_to 10713
  154.1223  135.6533  153.4905 H   0  0  0  0  0  0  0  0  0  0  0  0  # atno 10763 bound_to 10752
  153.0221  135.5273  154.7084 H   0  0  0  0  0  0  0  0  0  0  0  0  # atno 10764 bound_to 10752
  154.6295  135.2974  155.0203 H   0  0  0  0  0  0  0  0  0  0  0  0  # atno 10765 bound_to 10752
  140.2345  134.3488  155.7950 H   0  0  0  0  0  0  0  0  0  0  0  0  # atno 11005 bound_to 11000
  144.6844  139.9630  143.7480 LP  0  0  0  0  0  0  0  0  0  0  0  0  # atno 17320 bound_to 7965
  146.0329  139.3351  143.0744 LP  0  0  0  0  0  0  0  0  0  0  0  0  # atno 17321 bound_to 7965
  140.2734  144.3939  150.6143 LP  0  0  0  0  0  0  0  0  0  0  0  0  # atno 17342 bound_to 10162
  140.6071  143.2168  151.6958 LP  0  0  0  0  0  0  0  0  0  0  0  0  # atno 17343 bound_to 10162
  156.5609  130.8383  151.3328 LP  0  0  0  0  0  0  0  0  0  0  0  0  # atno 17370 bound_to 10713
  157.7351  130.9756  150.2063 LP  0  0  0  0  0  0  0  0  0  0  0  0  # atno 17371 bound_to 10713
  141.2215  133.7264  156.8786 LP  0  0  0  0  0  0  0  0  0  0  0  0  # atno 17394 bound_to 11000
  140.1716  134.9096  157.2840 LP  0  0  0  0  0  0  0  0  0  0  0  0  # atno 17395 bound_to 11000

$$$$
