AV-unprocessed.smi:1530|AV-procd|sdf|6155|dock2
  -GOLD-   22720 6303D 1   1.00000     0.00000
 Structure written by MMmdl.
 42 43  0  0  0  0  0  0  0  0  1 V2000
  151.7638  138.3482  154.4162 C   0  0  0  0  0  0  0  0  0  0  0  0
  150.4035  138.2671  154.0047 O   0  0  0  0  0  0  0  0  0  0  0  0
  149.5981  139.3793  154.1633 C   0  0  0  0  0  0  0  0  0  0  0  0
  150.1423  140.4950  154.7109 N   0  0  0  0  0  0  0  0  0  0  0  0
  149.3612  141.5836  154.8624 C   0  0  0  0  0  0  0  0  0  0  0  0
  148.0098  141.6204  154.4750 C   0  0  0  0  0  0  0  0  0  0  0  0
  147.4428  140.4650  153.9060 C   0  0  0  0  0  0  0  0  0  0  0  0
  148.2465  139.3083  153.7505 C   0  0  0  0  0  0  0  0  0  0  0  0
  147.7916  138.0841  153.1828 N   0  0  0  0  0  0  0  0  0  0  0  0
  146.5590  137.5482  153.1776 C   0  0  0  0  0  0  0  0  0  0  0  0
  145.5566  138.0509  153.6837 O   0  0  0  0  0  0  0  0  0  0  0  0
  146.5534  136.3687  152.5407 N   0  0  0  0  0  0  0  0  0  0  0  0
  145.3809  135.5201  152.3190 C   0  0  0  0  0  0  0  0  0  0  0  0
  145.6091  134.0160  152.6629 C   0  0  0  0  0  0  0  0  0  0  0  0
  145.9670  133.8968  154.1702 C   0  0  0  0  0  0  0  0  0  0  0  0
  145.1851  133.1494  154.9567 N   0  0  0  0  0  0  0  0  0  0  0  0
  146.9425  134.4883  154.6314 O   0  0  0  0  0  0  0  0  0  0  0  0
  144.3297  133.1936  152.3357 C   0  0  0  0  0  0  0  0  0  0  0  0
  144.0963  133.0128  150.8241 C   0  0  0  0  0  0  0  0  0  0  0  0
  145.2366  132.4191  150.2198 O   0  0  0  0  0  0  0  0  0  0  0  0
  146.4001  133.2253  150.3411 C   0  0  0  0  0  0  0  0  0  0  0  0
  146.7635  133.3963  151.8260 C   0  0  0  0  0  0  0  0  0  0  0  0
  152.2561  137.3957  154.2206 H   0  0  0  0  0  0  0  0  0  0  0  0
  151.8470  138.5499  155.4850 H   0  0  0  0  0  0  0  0  0  0  0  0
  152.3028  139.1185  153.8626 H   0  0  0  0  0  0  0  0  0  0  0  0
  149.8285  142.4527  155.3009 H   0  0  0  0  0  0  0  0  0  0  0  0
  147.4216  142.5163  154.6078 H   0  0  0  0  0  0  0  0  0  0  0  0
  146.4111  140.5022  153.5961 H   0  0  0  0  0  0  0  0  0  0  0  0
  148.5136  137.5228  152.7546 H   0  0  0  0  0  0  0  0  0  0  0  0
  147.4265  136.0375  152.1566 H   0  0  0  0  0  0  0  0  0  0  0  0
  144.5795  135.9167  152.9436 H   0  0  0  0  0  0  0  0  0  0  0  0
  145.0227  135.6377  151.2967 H   0  0  0  0  0  0  0  0  0  0  0  0
  145.3949  133.0621  155.9405 H   0  0  0  0  0  0  0  0  0  0  0  0
  144.3827  132.6789  154.5639 H   0  0  0  0  0  0  0  0  0  0  0  0
  144.4020  132.1998  152.7813 H   0  0  0  0  0  0  0  0  0  0  0  0
  143.4483  133.6626  152.7754 H   0  0  0  0  0  0  0  0  0  0  0  0
  143.2388  132.3605  150.6594 H   0  0  0  0  0  0  0  0  0  0  0  0
  143.8615  133.9590  150.3365 H   0  0  0  0  0  0  0  0  0  0  0  0
  147.2185  132.7343  149.8145 H   0  0  0  0  0  0  0  0  0  0  0  0
  146.2471  134.1877  149.8519 H   0  0  0  0  0  0  0  0  0  0  0  0
  147.6749  133.9893  151.9065 H   0  0  0  0  0  0  0  0  0  0  0  0
  147.0171  132.4121  152.2238 H   0  0  0  0  0  0  0  0  0  0  0  0
  1  2  1  0  0  0  0
  1 23  1  0  0  0  0
  1 24  1  0  0  0  0
  1 25  1  0  0  0  0
  2  3  1  0  0  0  0
  3  8  1  0  0  0  0
  3  4  2  0  0  0  0
  4  5  1  0  0  0  0
  5  6  2  0  0  0  0
  5 26  1  0  0  0  0
  6  7  1  0  0  0  0
  6 27  1  0  0  0  0
  7  8  2  0  0  0  0
  7 28  1  0  0  0  0
  8  9  1  0  0  0  0
  9 10  1  0  0  0  0
  9 29  1  0  0  0  0
 10 11  2  0  0  0  0
 10 12  1  0  0  0  0
 12 13  1  0  0  0  0
 12 30  1  0  0  0  0
 13 14  1  0  0  0  0
 13 31  1  0  0  0  0
 13 32  1  0  0  0  0
 14 22  1  0  0  0  0
 14 15  1  0  0  0  0
 14 18  1  0  0  0  0
 15 16  1  0  0  0  0
 15 17  2  0  0  0  0
 16 33  1  0  0  0  0
 16 34  1  0  0  0  0
 18 19  1  0  0  0  0
 18 35  1  0  0  0  0
 18 36  1  0  0  0  0
 19 20  1  0  0  0  0
 19 37  1  0  0  0  0
 19 38  1  0  0  0  0
 20 21  1  0  0  0  0
 21 22  1  0  0  0  0
 21 39  1  0  0  0  0
 21 40  1  0  0  0  0
 22 41  1  0  0  0  0
 22 42  1  0  0  0  0
M  END
> <s_m_source_file>
AV-unprocessed.smi

> <i_m_source_file_index>
1530

> <i_lp_mmshare_version>
43012

> <i_f3d_flags>
0

> <s_epik_input>
W0NIM11PYzFuW2NIXVtjSF1bY0hdYzFbTkhdQyg9TylbTkhdW0NIMl1DMihDKD1PKVtOSDJdKVtDSDJdW0NIMl1PW0NIMl1bQ0gyXTI=

> <s_epik_cmdline>
J2VwaWtfcHl0aG9uJywgJy1waCcsICc3LjAnLCAnLXRuJywgJzgnLCAnLW1hJywgJzIwMCcsICctbWV0YWxfYmluZGluZycsICctaW1hZScsICc8aW5maWxlLm1hZT4nLCAnLW9tYWUnLCAnPG91dGZpbGUubWFlPic=

> <r_lp_tautomer_probability>
1

> <r_epik_Ionization_Penalty>
8.83779e-05

> <r_epik_Ionization_Penalty_Charging>
0

> <r_epik_Ionization_Penalty_Neutral>
8.83779e-05

> <r_epik_State_Penalty>
-0

> <r_epik_Charging_Adjusted_Penalty>
0

> <i_epik_Tot_Q>
0

> <i_epik_Tot_abs_Q>
0

> <r_epik_Metal_State_Penalty>
-0

> <b_epik_Metal_Only>
0

> <s_lp_Force_Field>
OPLS_2005

> <r_lp_Energy>
14.5365

> <b_lp_Chiralities_Consistent>
1

> <s_lp_Variant>
AV-unprocessed.smi:1530-1

> <Gold.Version>
5.8.1

> <Gold.Id.Protein>
6NUR|6NUR_protein|mol2

> <Gold.PLP.Fitness>
45.4322

> <Gold.PLP.PLP>
-31.3515

> <Gold.PLP.part.hbond>
-3.9372

> <Gold.PLP.part.metal>
0.0000

> <Gold.PLP.part.buried>
-1.2749

> <Gold.PLP.part.nonpolar>
-27.2906

> <Gold.PLP.part.repulsive>
0.7899

> <Gold.PLP.ligand.clash>
0.0000

> <Gold.PLP.ligand.torsion>
0.2652

> <Gold.PLP.Chemscore.Hbond>
3.8640

> <Gold.PLP.Chemscore.CHOScore>
1.0000

> <Gold.PLP.Chemscore.Metal>
0.0000

> <Gold.Chemscore.Hbonds>
donor molecule, donor type, donor heavy atom, donor atom, acceptor molecule, acceptor atom, score
      L1  H     9    29       P1  7948  1.00
      L1  H    12    30       P1  7948  1.00
      L1  H    16    34       P1 10957  1.00
      P1  H  7989  7998       L1     4  0.93
      L1  C     5    26       P1  8028  0.98

> <Gold.PLP.Chemscore.Internal.Correction>
0.0191

> <Gold.Rescore>
     Score         DG    S(hbond)    S(metal)    S(lipo)     H(rot)  DE(clash)    DE(int)     intcor
     15.90     -18.76       3.29        0.00      68.26       2.23       0.34       2.52       ----

> <Gold.Chemscore.Fitness>
15.8958

> <Gold.Chemscore.DG>
-18.7591

> <Gold.Chemscore.ZeroCoef>
-5.4800

> <Gold.Chemscore.Hbond>
3.2935

> <Gold.Chemscore.Metal>
0.0000

> <Gold.Chemscore.Lipo>
68.2568

> <Gold.Chemscore.Internal_Hbond>
0.0000

> <Gold.Chemscore.DEClash>
0.3435

> <Gold.Chemscore.DEInternal>
2.5197

> <Gold.Chemscore.Rot>
2.2294

> <Gold.Chemscore.Internal.Correction>
   9.000000E+99

> <Gold.Chemscore.Hbonds>
donor molecule, donor type, donor heavy atom, donor atom, acceptor molecule, acceptor atom, score
      L1  H     9    29       P1  7948  0.94
      L1  H    12    30       P1  7948  0.92
      L1  H    16    34       P1 10957  0.90
      P1  H  7989  7998       L1     4  0.23

> <Gold.Chemscore.Hbond.Weighted>
-11.0004

> <Gold.Chemscore.Metal.Weighted>
-0.0000

> <Gold.Chemscore.Lipo.Weighted>
-7.9860

> <Gold.Chemscore.Internal_Hbond.Weighted>
0.0000

> <Gold.Chemscore.DEClash.Weighted>
0.3435

> <Gold.Chemscore.DEInternal.Weighted>
2.5197

> <Gold.Chemscore.Rot.Weighted>
5.7073

> <Gold.Chemscore.Internal.Correction.Weighted>
   9.000000E+99

> <Gold.Protein.RotatedTorsions>
[ 6907 6896 6895 6894 ] final   -6.85 input  -60.11 | X-H torsion
[ 7974 7965 7964 7962 ] final   44.29 input  175.53 | X-H torsion
[ 8008 7997 7996 7995 ] final  -69.31 input   59.86 | X-H torsion
[ 10167 10162 10161 10158 ] final   96.83 input  -65.29 | X-H torsion
[ 10718 10713 10712 10709 ] final  173.94 input   66.30 | X-H torsion
[ 10763 10752 10751 10750 ] final  116.89 input  -60.55 | X-H torsion
[ 11005 11000 10999 10996 ] final    7.57 input  -57.11 | X-H torsion

> <Gold.Protein.ActiveResidues>
 VAL166  LYS551  ARG553  GLY616  TRP617  ASP618  TYR619  PRO620  LYS621  CYS622 
 ASP623  PHE694  ASN695  SER759  ASP760  ASP761  ALA762  ILE779  LEU786  VAL792 
 PHE793  MET794  SER795  GLU796  ALA797  LYS798  CYS799  TRP800  GLU811  SER814 

> <Gold.Protein.RotatedAtoms>
  151.4589  135.1036  159.9718 H   0  0  0  0  0  0  0  0  0  0  0  0  # atno 6907 bound_to 6896
  152.4860  133.8371  159.7144 H   0  0  0  0  0  0  0  0  0  0  0  0  # atno 6908 bound_to 6896
  150.8970  133.7107  159.2916 H   0  0  0  0  0  0  0  0  0  0  0  0  # atno 6909 bound_to 6896
  146.0582  139.5091  142.9675 H   0  0  0  0  0  0  0  0  0  0  0  0  # atno 7974 bound_to 7965
  154.4929  140.0856  156.7634 H   0  0  0  0  0  0  0  0  0  0  0  0  # atno 8008 bound_to 7997
  155.4186  140.3444  155.4251 H   0  0  0  0  0  0  0  0  0  0  0  0  # atno 8009 bound_to 7997
  156.1355  140.1514  156.8989 H   0  0  0  0  0  0  0  0  0  0  0  0  # atno 8010 bound_to 7997
  139.7857  144.6871  150.9961 H   0  0  0  0  0  0  0  0  0  0  0  0  # atno 10167 bound_to 10162
  156.9570  131.0049  151.2936 H   0  0  0  0  0  0  0  0  0  0  0  0  # atno 10718 bound_to 10713
  153.5441  135.3553  155.2731 H   0  0  0  0  0  0  0  0  0  0  0  0  # atno 10763 bound_to 10752
  154.8714  135.4098  154.3010 H   0  0  0  0  0  0  0  0  0  0  0  0  # atno 10764 bound_to 10752
  153.3724  135.7065  153.6696 H   0  0  0  0  0  0  0  0  0  0  0  0  # atno 10765 bound_to 10752
  140.5468  134.0321  155.7923 H   0  0  0  0  0  0  0  0  0  0  0  0  # atno 11005 bound_to 11000
  145.6607  141.0241  143.1710 LP  0  0  0  0  0  0  0  0  0  0  0  0  # atno 17320 bound_to 7965
  144.7160  139.8197  143.7398 LP  0  0  0  0  0  0  0  0  0  0  0  0  # atno 17321 bound_to 7965
  140.7819  143.4435  151.0517 LP  0  0  0  0  0  0  0  0  0  0  0  0  # atno 17342 bound_to 10162
  139.8113  143.7947  152.3171 LP  0  0  0  0  0  0  0  0  0  0  0  0  # atno 17343 bound_to 10162
  157.5684  130.8293  149.8358 LP  0  0  0  0  0  0  0  0  0  0  0  0  # atno 17370 bound_to 10713
  156.0338  130.3757  150.1614 LP  0  0  0  0  0  0  0  0  0  0  0  0  # atno 17371 bound_to 10713
  141.1195  133.9485  157.2757 LP  0  0  0  0  0  0  0  0  0  0  0  0  # atno 17394 bound_to 11000
  139.9475  135.0181  156.8897 LP  0  0  0  0  0  0  0  0  0  0  0  0  # atno 17395 bound_to 11000

$$$$
