AV-unprocessed.smi:3290|AV-procd|sdf|12613|dock10
  -GOLD-   2272018543D 1   1.00000     0.00000
 Structure written by MMmdl.
 43 44  0  0  0  0  0  0  0  0  2 V2000
  145.0843  134.2123  153.8633 C   0  0  0  0  0  0  0  0  0  0  0  0
  143.8943  134.7465  153.0401 C   0  0  2  0  0  0  0  0  0  0  0  0
  143.2700  133.6413  152.1621 C   0  0  0  0  0  0  0  0  0  0  0  0
  144.1595  133.2757  150.9619 C   0  0  0  0  0  0  0  0  0  0  0  0
  144.4961  134.5158  150.1215 C   0  0  0  0  0  0  0  0  0  0  0  0
  145.1258  135.6251  150.9796 C   0  0  0  0  0  0  0  0  0  0  0  0
  144.2247  135.9958  152.1796 C   0  0  2  0  0  0  0  0  0  0  0  0
  144.8057  137.1558  153.0133 C   0  0  0  0  0  0  0  0  0  0  0  0
  145.3013  138.2488  152.1534 N   0  3  0  0  0  0  0  0  0  0  0  0
  146.6786  138.6829  152.4630 C   0  0  0  0  0  0  0  0  0  0  0  0
  146.7963  139.1980  153.9083 C   0  0  2  0  0  0  0  0  0  0  0  0
  145.8207  140.2012  154.1142 O   0  0  0  0  0  0  0  0  0  0  0  0
  148.1975  139.7118  154.1989 C   0  0  0  0  0  0  0  0  0  0  0  0
  148.4243  141.0861  154.4225 C   0  0  0  0  0  0  0  0  0  0  0  0
  149.7390  141.5173  154.6907 C   0  0  0  0  0  0  0  0  0  0  0  0
  150.7966  140.6801  154.7481 N   0  0  0  0  0  0  0  0  0  0  0  0
  150.5743  139.3657  154.5354 C   0  0  0  0  0  0  0  0  0  0  0  0
  149.2999  138.8317  154.2588 C   0  0  0  0  0  0  0  0  0  0  0  0
  145.9322  133.9405  153.2354 H   0  0  0  0  0  0  0  0  0  0  0  0
  144.7975  133.3233  154.4258 H   0  0  0  0  0  0  0  0  0  0  0  0
  145.4314  134.9472  154.5893 H   0  0  0  0  0  0  0  0  0  0  0  0
  143.1320  135.0412  153.7628 H   0  0  0  0  0  0  0  0  0  0  0  0
  143.0681  132.7515  152.7596 H   0  0  0  0  0  0  0  0  0  0  0  0
  142.3007  133.9803  151.7937 H   0  0  0  0  0  0  0  0  0  0  0  0
  145.0798  132.8051  151.3094 H   0  0  0  0  0  0  0  0  0  0  0  0
  143.6550  132.5348  150.3413 H   0  0  0  0  0  0  0  0  0  0  0  0
  145.1728  134.2426  149.3113 H   0  0  0  0  0  0  0  0  0  0  0  0
  143.5876  134.8923  149.6500 H   0  0  0  0  0  0  0  0  0  0  0  0
  146.1083  135.3064  151.3290 H   0  0  0  0  0  0  0  0  0  0  0  0
  145.2985  136.4999  150.3524 H   0  0  0  0  0  0  0  0  0  0  0  0
  143.2745  136.3457  151.7720 H   0  0  0  0  0  0  0  0  0  0  0  0
  144.0356  137.5600  153.6718 H   0  0  0  0  0  0  0  0  0  0  0  0
  145.6189  136.8021  153.6484 H   0  0  0  0  0  0  0  0  0  0  0  0
  145.2774  137.9372  151.1925 H   0  0  0  0  0  0  0  0  0  0  0  0
  147.3489  137.8343  152.3198 H   0  0  0  0  0  0  0  0  0  0  0  0
  146.9855  139.4559  151.7563 H   0  0  0  0  0  0  0  0  0  0  0  0
  146.5765  138.3832  154.5999 H   0  0  0  0  0  0  0  0  0  0  0  0
  145.2971  140.2753  153.3302 H   0  0  0  0  0  0  0  0  0  0  0  0
  147.6137  141.7993  154.3893 H   0  0  0  0  0  0  0  0  0  0  0  0
  149.9459  142.5630  154.8642 H   0  0  0  0  0  0  0  0  0  0  0  0
  151.4380  138.7194  154.5876 H   0  0  0  0  0  0  0  0  0  0  0  0
  149.1769  137.7707  154.0972 H   0  0  0  0  0  0  0  0  0  0  0  0
  144.6838  139.0420  152.2504 H   0  0  0  0  0  0  0  0  0  0  0  0
  1  2  1  0  0  0  0
  1 19  1  0  0  0  0
  1 20  1  0  0  0  0
  1 21  1  0  0  0  0
  2  7  1  0  0  0  0
  2  3  1  0  0  0  0
  2 22  1  0  0  0  0
  3  4  1  0  0  0  0
  3 23  1  0  0  0  0
  3 24  1  0  0  0  0
  4  5  1  0  0  0  0
  4 25  1  0  0  0  0
  4 26  1  0  0  0  0
  5  6  1  0  0  0  0
  5 27  1  0  0  0  0
  5 28  1  0  0  0  0
  6  7  1  0  0  0  0
  6 29  1  0  0  0  0
  6 30  1  0  0  0  0
  7  8  1  0  0  0  0
  7 31  1  0  0  0  0
  8  9  1  0  0  0  0
  8 32  1  0  0  0  0
  8 33  1  0  0  0  0
  9 10  1  0  0  0  0
  9 34  1  0  0  0  0
  9 43  1  0  0  0  0
 10 11  1  0  0  0  0
 10 35  1  0  0  0  0
 10 36  1  0  0  0  0
 11 12  1  0  0  0  0
 11 13  1  0  0  0  0
 11 37  1  0  0  0  0
 12 38  1  0  0  0  0
 13 18  1  0  0  0  0
 13 14  2  0  0  0  0
 14 15  1  0  0  0  0
 14 39  1  0  0  0  0
 15 16  2  0  0  0  0
 15 40  1  0  0  0  0
 16 17  1  0  0  0  0
 17 18  2  0  0  0  0
 17 41  1  0  0  0  0
 18 42  1  0  0  0  0
M  CHG  1   9   1
M  END
> <s_m_source_file>
AV-unprocessed.smi

> <i_m_source_file_index>
3290

> <i_lp_mmshare_version>
43012

> <i_f3d_flags>
0

> <s_epik_input>
W0NIM11bQ0BASF0xW0NIMl1bQ0gyXVtDSDJdW0NIMl1bQ0BIXTFbQ0gyXVtOSF1bQ0gyXVtDQEhdKFtPSF0pYzJbY0hdW2NIXW5bY0hdW2NIXTI=

> <s_epik_cmdline>
J2VwaWtfcHl0aG9uJywgJy1waCcsICc3LjAnLCAnLXRuJywgJzgnLCAnLW1hJywgJzIwMCcsICctbWV0YWxfYmluZGluZycsICctaW1hZScsICc8aW5maWxlLm1hZT4nLCAnLW9tYWUnLCAnPG91dGZpbGUubWFlPic=

> <r_lp_tautomer_probability>
1

> <r_epik_Ionization_Penalty>
0.00420552

> <r_epik_Ionization_Penalty_Charging>
0.00207255

> <r_epik_Ionization_Penalty_Neutral>
0.00213297

> <r_epik_State_Penalty>
-0

> <r_epik_Charging_Adjusted_Penalty>
0.00207255

> <i_epik_Tot_Q>
1

> <i_epik_Tot_abs_Q>
1

> <r_epik_Metal_State_Penalty>
-0

> <b_epik_Metal_Only>
0

> <s_lp_Force_Field>
OPLS_2005

> <r_lp_Energy>
18.6683

> <b_lp_Chiralities_Consistent>
1

> <s_lp_Variant>
AV-unprocessed.smi:3290-3

> <Gold.Version>
5.8.1

> <Gold.Id.Protein>
6NUR|6NUR_protein|mol2

> <Gold.PLP.Fitness>
49.7886

> <Gold.PLP.PLP>
-34.9981

> <Gold.PLP.part.hbond>
-4.0000

> <Gold.PLP.part.metal>
0.0000

> <Gold.PLP.part.buried>
-1.2789

> <Gold.PLP.part.nonpolar>
-29.6285

> <Gold.PLP.part.repulsive>
0.1086

> <Gold.PLP.ligand.clash>
0.0000

> <Gold.PLP.ligand.torsion>
0.5927

> <Gold.PLP.Chemscore.Hbond>
4.3232

> <Gold.PLP.Chemscore.CHOScore>
0.9858

> <Gold.PLP.Chemscore.Metal>
0.0000

> <Gold.Chemscore.Hbonds>
donor molecule, donor type, donor heavy atom, donor atom, acceptor molecule, acceptor atom, score
      L1  H     9    34       P1 10171  0.41
      L1  H     9    43       P1 10175  2.00
      L1  H    12    38       P1 10175  1.00
      P1  H  7989  7998       L1    16  0.71
      L1  C    15    40       P1  8028  1.00

> <Gold.PLP.Chemscore.Internal.Correction>
0.0488

> <Gold.Rescore>
     Score         DG    S(hbond)    S(metal)    S(lipo)     H(rot)  DE(clash)    DE(int)     intcor
     18.98     -19.58       2.72        0.00      87.78       2.05       0.16       0.44       ----

> <Gold.Chemscore.Fitness>
18.9839

> <Gold.Chemscore.DG>
-19.5848

> <Gold.Chemscore.ZeroCoef>
-5.4800

> <Gold.Chemscore.Hbond>
2.7191

> <Gold.Chemscore.Metal>
0.0000

> <Gold.Chemscore.Lipo>
87.7830

> <Gold.Chemscore.Internal_Hbond>
0.0000

> <Gold.Chemscore.DEClash>
0.1574

> <Gold.Chemscore.DEInternal>
0.4434

> <Gold.Chemscore.Rot>
2.0498

> <Gold.Chemscore.Internal.Correction>
   9.000000E+99

> <Gold.Chemscore.Hbonds>
donor molecule, donor type, donor heavy atom, donor atom, acceptor molecule, acceptor atom, score
      L1  H     9    34       P1 10171  0.42
      L1  H     9    43       P1 10175  1.00
      L1  H    12    38       P1 10175  0.96
      P1  H  7989  7998       L1    16  0.06

> <Gold.Chemscore.Hbond.Weighted>
-9.0817

> <Gold.Chemscore.Metal.Weighted>
-0.0000

> <Gold.Chemscore.Lipo.Weighted>
-10.2706

> <Gold.Chemscore.Internal_Hbond.Weighted>
0.0000

> <Gold.Chemscore.DEClash.Weighted>
0.1574

> <Gold.Chemscore.DEInternal.Weighted>
0.4434

> <Gold.Chemscore.Rot.Weighted>
5.2475

> <Gold.Chemscore.Internal.Correction.Weighted>
   9.000000E+99

> <Gold.Protein.RotatedTorsions>
[ 6907 6896 6895 6894 ] final  115.70 input  -60.11 | X-H torsion
[ 7974 7965 7964 7962 ] final   47.73 input  175.53 | X-H torsion
[ 8008 7997 7996 7995 ] final  -32.39 input   59.86 | X-H torsion
[ 10167 10162 10161 10158 ] final  163.58 input  -65.29 | X-H torsion
[ 10718 10713 10712 10709 ] final   63.43 input   66.30 | X-H torsion
[ 10763 10752 10751 10750 ] final  -79.11 input  -60.55 | X-H torsion
[ 11005 11000 10999 10996 ] final -172.07 input  -57.11 | X-H torsion

> <Gold.Protein.ActiveResidues>
 VAL166  LYS551  ARG553  GLY616  TRP617  ASP618  TYR619  PRO620  LYS621  CYS622 
 ASP623  PHE694  ASN695  SER759  ASP760  ASP761  ALA762  ILE779  LEU786  VAL792 
 PHE793  MET794  SER795  GLU796  ALA797  LYS798  CYS799  TRP800  GLU811  SER814 

> <Gold.Protein.RotatedAtoms>
  152.4725  133.8062  159.6979 H   0  0  0  0  0  0  0  0  0  0  0  0  # atno 6907 bound_to 6896
  150.8722  133.7479  159.2964 H   0  0  0  0  0  0  0  0  0  0  0  0  # atno 6908 bound_to 6896
  151.5010  135.1065  159.9881 H   0  0  0  0  0  0  0  0  0  0  0  0  # atno 6909 bound_to 6896
  146.0271  139.4719  142.9861 H   0  0  0  0  0  0  0  0  0  0  0  0  # atno 7974 bound_to 7965
  154.4181  140.1739  156.1719 H   0  0  0  0  0  0  0  0  0  0  0  0  # atno 8008 bound_to 7997
  155.9753  140.3382  155.6589 H   0  0  0  0  0  0  0  0  0  0  0  0  # atno 8009 bound_to 7997
  155.6571  140.0697  157.2557 H   0  0  0  0  0  0  0  0  0  0  0  0  # atno 8010 bound_to 7997
  139.4876  144.4322  151.9056 H   0  0  0  0  0  0  0  0  0  0  0  0  # atno 10167 bound_to 10162
  157.5971  130.9105  149.9715 H   0  0  0  0  0  0  0  0  0  0  0  0  # atno 10718 bound_to 10713
  154.5344  135.5707  153.6786 H   0  0  0  0  0  0  0  0  0  0  0  0  # atno 10763 bound_to 10752
  152.9947  135.6212  154.2585 H   0  0  0  0  0  0  0  0  0  0  0  0  # atno 10764 bound_to 10752
  154.2513  135.2859  155.2795 H   0  0  0  0  0  0  0  0  0  0  0  0  # atno 10765 bound_to 10752
  140.5012  134.5892  157.4988 H   0  0  0  0  0  0  0  0  0  0  0  0  # atno 11005 bound_to 11000
  145.7101  141.0109  143.1458 LP  0  0  0  0  0  0  0  0  0  0  0  0  # atno 17320 bound_to 7965
  144.7014  139.8747  143.7443 LP  0  0  0  0  0  0  0  0  0  0  0  0  # atno 17321 bound_to 7965
  140.3770  144.2784  150.5913 LP  0  0  0  0  0  0  0  0  0  0  0  0  # atno 17342 bound_to 10162
  140.5267  143.2252  151.8303 LP  0  0  0  0  0  0  0  0  0  0  0  0  # atno 17343 bound_to 10162
  156.1036  130.3654  150.0174 LP  0  0  0  0  0  0  0  0  0  0  0  0  # atno 17370 bound_to 10713
  156.8285  130.9384  151.3638 LP  0  0  0  0  0  0  0  0  0  0  0  0  # atno 17371 bound_to 10713
  139.9712  134.7289  156.0037 LP  0  0  0  0  0  0  0  0  0  0  0  0  # atno 17394 bound_to 11000
  141.1435  133.6560  156.3797 LP  0  0  0  0  0  0  0  0  0  0  0  0  # atno 17395 bound_to 11000

$$$$
