AV-unprocessed.smi:2079|AV-procd|sdf|8479|dock2
  -GOLD-   2272011183D 1   1.00000     0.00000
 Structure written by MMmdl.
 41 42  0  0  0  0  0  0  0  0  3 V2000
  151.0876  140.8852  156.1385 C   0  0  0  0  0  0  0  0  0  0  0  0
  151.4447  139.6026  155.4685 C   0  0  0  0  0  0  0  0  0  0  0  0
  150.8486  138.3740  155.4388 C   0  0  0  0  0  0  0  0  0  0  0  0
  151.7148  137.6126  154.6075 C   0  0  0  0  0  0  0  0  0  0  0  0
  151.5590  136.3202  154.2815 N   0  5  0  0  0  0  0  0  0  0  0  0
  150.6749  135.5502  154.9560 C   0  0  0  0  0  0  0  0  0  0  0  0
  150.8942  134.9151  155.9902 O   0  0  0  0  0  0  0  0  0  0  0  0
  149.4583  135.5115  154.3971 N   0  0  0  0  0  0  0  0  0  0  0  0
  148.3220  134.7667  154.9212 C   0  0  0  0  0  0  0  0  0  0  0  0
  147.7405  133.8411  153.8391 C   0  0  0  0  0  0  0  0  0  0  0  0
  146.7890  134.5506  152.9369 N   0  3  2  0  0  0  0  0  0  0  0  0
  146.0027  135.5758  153.6826 C   0  0  0  0  0  0  0  0  0  0  0  0
  145.1258  136.4214  152.7496 C   0  0  0  0  0  0  0  0  0  0  0  0
  144.1742  135.5256  151.9574 C   0  0  0  0  0  0  0  0  0  0  0  0
  144.9859  134.4741  151.1968 C   0  0  0  0  0  0  0  0  0  0  0  0
  145.9001  133.6488  152.1315 C   0  0  1  0  0  0  0  0  0  0  0  0
  146.6803  132.6334  151.2692 C   0  0  0  0  0  0  0  0  0  0  0  0
  152.7543  138.3124  154.1848 N   0  0  0  0  0  0  0  0  0  0  0  0
  152.5851  139.5921  154.7271 O   0  0  0  0  0  0  0  0  0  0  0  0
  151.3919  140.8705  157.1850 H   0  0  0  0  0  0  0  0  0  0  0  0
  150.0114  141.0537  156.1009 H   0  0  0  0  0  0  0  0  0  0  0  0
  151.5780  141.7301  155.6547 H   0  0  0  0  0  0  0  0  0  0  0  0
  149.9367  138.0689  155.9300 H   0  0  0  0  0  0  0  0  0  0  0  0
  149.3165  136.0438  153.5509 H   0  0  0  0  0  0  0  0  0  0  0  0
  148.6559  134.2044  155.7928 H   0  0  0  0  0  0  0  0  0  0  0  0
  147.5591  135.4691  155.2609 H   0  0  0  0  0  0  0  0  0  0  0  0
  148.5901  133.4465  153.2882 H   0  0  0  0  0  0  0  0  0  0  0  0
  147.2480  132.9783  154.2907 H   0  0  0  0  0  0  0  0  0  0  0  0
  145.3793  135.0816  154.4294 H   0  0  0  0  0  0  0  0  0  0  0  0
  146.6625  136.2490  154.2270 H   0  0  0  0  0  0  0  0  0  0  0  0
  144.5562  137.1478  153.3301 H   0  0  0  0  0  0  0  0  0  0  0  0
  145.7558  136.9933  152.0668 H   0  0  0  0  0  0  0  0  0  0  0  0
  143.4700  135.0380  152.6327 H   0  0  0  0  0  0  0  0  0  0  0  0
  143.5827  136.1225  151.2625 H   0  0  0  0  0  0  0  0  0  0  0  0
  144.3017  133.8137  150.6624 H   0  0  0  0  0  0  0  0  0  0  0  0
  145.5904  134.9688  150.4348 H   0  0  0  0  0  0  0  0  0  0  0  0
  145.2674  133.0921  152.8249 H   0  0  0  0  0  0  0  0  0  0  0  0
  146.0173  132.1336  150.5622 H   0  0  0  0  0  0  0  0  0  0  0  0
  147.1330  131.8391  151.8611 H   0  0  0  0  0  0  0  0  0  0  0  0
  147.4656  133.1211  150.6906 H   0  0  0  0  0  0  0  0  0  0  0  0
  147.3574  135.0480  152.2663 H   0  0  0  0  0  0  0  0  0  0  0  0
  1  2  1  0  0  0  0
  1 20  1  0  0  0  0
  1 21  1  0  0  0  0
  1 22  1  0  0  0  0
  2 19  1  0  0  0  0
  2  3  2  0  0  0  0
  3  4  1  0  0  0  0
  3 23  1  0  0  0  0
  4  5  1  0  0  0  0
  4 18  2  0  0  0  0
  5  6  1  0  0  0  0
  6  7  2  0  0  0  0
  6  8  1  0  0  0  0
  8  9  1  0  0  0  0
  8 24  1  0  0  0  0
  9 10  1  0  0  0  0
  9 25  1  0  0  0  0
  9 26  1  0  0  0  0
 10 11  1  0  0  0  0
 10 27  1  0  0  0  0
 10 28  1  0  0  0  0
 11 16  1  0  0  0  0
 11 12  1  0  0  0  0
 11 41  1  0  0  0  0
 12 13  1  0  0  0  0
 12 29  1  0  0  0  0
 12 30  1  0  0  0  0
 13 14  1  0  0  0  0
 13 31  1  0  0  0  0
 13 32  1  0  0  0  0
 14 15  1  0  0  0  0
 14 33  1  0  0  0  0
 14 34  1  0  0  0  0
 15 16  1  0  0  0  0
 15 35  1  0  0  0  0
 15 36  1  0  0  0  0
 16 17  1  0  0  0  0
 16 37  1  0  0  0  0
 17 38  1  0  0  0  0
 17 39  1  0  0  0  0
 17 40  1  0  0  0  0
 18 19  1  0  0  0  0
M  CHG  1   5  -1
M  CHG  1  11   1
M  END
> <s_m_source_file>
AV-unprocessed.smi

> <i_m_source_file_index>
2079

> <i_lp_mmshare_version>
43012

> <i_f3d_flags>
0

> <s_epik_input>
W0NIM11jMVtjSF1jKG5vMSlbTkhdQyg9TylbTkhdW0NIMl1bQ0gyXU4yW0NIMl1bQ0gyXVtDSDJdW0NIMl1bQ0BIXTJbQ0gzXQ==

> <s_epik_cmdline>
J2VwaWtfcHl0aG9uJywgJy1waCcsICc3LjAnLCAnLXRuJywgJzgnLCAnLW1hJywgJzIwMCcsICctbWV0YWxfYmluZGluZycsICctaW1hZScsICc8aW5maWxlLm1hZT4nLCAnLW9tYWUnLCAnPG91dGZpbGUubWFlPic=

> <r_epik_Ionization_Penalty>
6.22371

> <r_epik_Ionization_Penalty_Charging>
6.22362

> <r_epik_Ionization_Penalty_Neutral>
9.40454e-05

> <r_epik_State_Penalty>
6.22363

> <r_epik_Charging_Adjusted_Penalty>
12.4472

> <i_epik_Tot_Q>
0

> <i_epik_Tot_abs_Q>
2

> <r_epik_Metal_State_Penalty>
2.16675

> <b_epik_Metal_Only>
1

> <s_lp_Force_Field>
OPLS_2005

> <r_lp_Energy>
9.22117

> <b_lp_Chiralities_Consistent>
1

> <s_lp_Variant>
AV-unprocessed.smi:2079-5

> <Gold.Version>
5.8.1

> <Gold.Id.Protein>
6NUR|6NUR_protein|mol2

> <Gold.PLP.Fitness>
45.6800

> <Gold.PLP.PLP>
-29.8906

> <Gold.PLP.part.hbond>
-5.6475

> <Gold.PLP.part.metal>
0.0000

> <Gold.PLP.part.buried>
-1.4664

> <Gold.PLP.part.nonpolar>
-22.4883

> <Gold.PLP.part.repulsive>
0.2259

> <Gold.PLP.ligand.clash>
0.0000

> <Gold.PLP.ligand.torsion>
1.1441

> <Gold.PLP.Chemscore.Hbond>
5.9913

> <Gold.PLP.Chemscore.CHOScore>
0.0000

> <Gold.PLP.Chemscore.Metal>
0.0000

> <Gold.Chemscore.Hbonds>
donor molecule, donor type, donor heavy atom, donor atom, acceptor molecule, acceptor atom, score
      L1  H     8    24       P1  7948  1.00
      L1  H    11    41       P1  7948  2.00
      P1  H  7989  7998       L1    19  0.24
      P1  H  7997  8008       L1    19  0.37
      P1  H 10752 10763       L1     5  2.00

> <Gold.PLP.Chemscore.Internal.Correction>
0.1038

> <Gold.Rescore>
     Score         DG    S(hbond)    S(metal)    S(lipo)     H(rot)  DE(clash)    DE(int)     intcor
     16.65     -17.90       3.08        0.00      51.93       1.54       0.02       1.24       ----

> <Gold.Chemscore.Fitness>
16.6452

> <Gold.Chemscore.DG>
-17.9021

> <Gold.Chemscore.ZeroCoef>
-5.4800

> <Gold.Chemscore.Hbond>
3.0810

> <Gold.Chemscore.Metal>
0.0000

> <Gold.Chemscore.Lipo>
51.9341

> <Gold.Chemscore.Internal_Hbond>
0.0000

> <Gold.Chemscore.DEClash>
0.0159

> <Gold.Chemscore.DEInternal>
1.2410

> <Gold.Chemscore.Rot>
1.5409

> <Gold.Chemscore.Internal.Correction>
   9.000000E+99

> <Gold.Chemscore.Hbonds>
donor molecule, donor type, donor heavy atom, donor atom, acceptor molecule, acceptor atom, score
      L1  H     8    24       P1  7948  0.68
      L1  H    11    41       P1  7948  0.91
      P1  H  7989  7998       L1    19  0.01
      P1  H  7997  8008       L1    19  0.24
      P1  H 10752 10763       L1     5  0.54

> <Gold.Chemscore.Hbond.Weighted>
-10.2904

> <Gold.Chemscore.Metal.Weighted>
-0.0000

> <Gold.Chemscore.Lipo.Weighted>
-6.0763

> <Gold.Chemscore.Internal_Hbond.Weighted>
0.0000

> <Gold.Chemscore.DEClash.Weighted>
0.0159

> <Gold.Chemscore.DEInternal.Weighted>
1.2410

> <Gold.Chemscore.Rot.Weighted>
3.9446

> <Gold.Chemscore.Internal.Correction.Weighted>
   9.000000E+99

> <Gold.Protein.RotatedTorsions>
[ 6907 6896 6895 6894 ] final  -55.36 input  -60.11 | X-H torsion
[ 7974 7965 7964 7962 ] final  -72.13 input  175.53 | X-H torsion
[ 8008 7997 7996 7995 ] final  -16.91 input   59.86 | X-H torsion
[ 10167 10162 10161 10158 ] final -115.65 input  -65.29 | X-H torsion
[ 10718 10713 10712 10709 ] final -163.03 input   66.30 | X-H torsion
[ 10763 10752 10751 10750 ] final   35.42 input  -60.55 | X-H torsion
[ 11005 11000 10999 10996 ] final   78.68 input  -57.11 | X-H torsion

> <Gold.Protein.ActiveResidues>
 VAL166  LYS551  ARG553  GLY616  TRP617  ASP618  TYR619  PRO620  LYS621  CYS622 
 ASP623  PHE694  ASN695  SER759  ASP760  ASP761  ALA762  ILE779  LEU786  VAL792 
 PHE793  MET794  SER795  GLU796  ALA797  LYS798  CYS799  TRP800  GLU811  SER814 

> <Gold.Protein.RotatedAtoms>
  150.8258  134.7488  159.6811 H   0  0  0  0  0  0  0  0  0  0  0  0  # atno 6907 bound_to 6896
  152.4369  134.5665  159.9919 H   0  0  0  0  0  0  0  0  0  0  0  0  # atno 6908 bound_to 6896
  151.5838  133.3337  159.3049 H   0  0  0  0  0  0  0  0  0  0  0  0  # atno 6909 bound_to 6896
  145.6692  140.9227  143.0892 H   0  0  0  0  0  0  0  0  0  0  0  0  # atno 7974 bound_to 7965
  154.5018  140.2157  155.9332 H   0  0  0  0  0  0  0  0  0  0  0  0  # atno 8008 bound_to 7997
  156.1443  140.3174  155.8512 H   0  0  0  0  0  0  0  0  0  0  0  0  # atno 8009 bound_to 7997
  155.4061  140.0487  157.3025 H   0  0  0  0  0  0  0  0  0  0  0  0  # atno 8010 bound_to 7997
  140.0878  143.4728  152.1888 H   0  0  0  0  0  0  0  0  0  0  0  0  # atno 10167 bound_to 10162
  156.6189  130.8882  151.2953 H   0  0  0  0  0  0  0  0  0  0  0  0  # atno 10718 bound_to 10713
  153.0120  135.6334  154.1823 H   0  0  0  0  0  0  0  0  0  0  0  0  # atno 10763 bound_to 10752
  154.1565  135.2826  155.3122 H   0  0  0  0  0  0  0  0  0  0  0  0  # atno 10764 bound_to 10752
  154.6014  135.5586  153.7439 H   0  0  0  0  0  0  0  0  0  0  0  0  # atno 10765 bound_to 10752
  139.9203  134.7783  156.1681 H   0  0  0  0  0  0  0  0  0  0  0  0  # atno 11005 bound_to 11000
  144.7063  139.8550  143.7429 LP  0  0  0  0  0  0  0  0  0  0  0  0  # atno 17320 bound_to 7965
  146.1060  139.4060  143.0317 LP  0  0  0  0  0  0  0  0  0  0  0  0  # atno 17321 bound_to 7965
  139.5742  144.7479  151.3809 LP  0  0  0  0  0  0  0  0  0  0  0  0  # atno 17342 bound_to 10162
  140.7044  143.7550  150.7457 LP  0  0  0  0  0  0  0  0  0  0  0  0  # atno 17343 bound_to 10162
  157.7233  130.9588  150.1529 LP  0  0  0  0  0  0  0  0  0  0  0  0  # atno 17370 bound_to 10713
  156.2328  130.3683  149.8426 LP  0  0  0  0  0  0  0  0  0  0  0  0  # atno 17371 bound_to 10713
  141.0717  133.6794  156.2154 LP  0  0  0  0  0  0  0  0  0  0  0  0  # atno 17394 bound_to 11000
  140.6496  134.5081  157.5576 LP  0  0  0  0  0  0  0  0  0  0  0  0  # atno 17395 bound_to 11000

$$$$
