AV-unprocessed.smi:1327|AV-procd|sdf|5477|dock7
  -GOLD-   22720 5 53D 1   1.00000     0.00000
 Structure written by MMmdl.
 40 41  0  0  0  0  0  0  0  0  1 V2000
  152.6363  139.3691  156.7734 O   0  0  0  0  0  0  0  0  0  0  0  0
  151.4715  140.2650  156.7093 S   0  0  0  0  0  0  0  0  0  0  0  0
  150.9469  140.7350  155.4179 O   0  0  0  0  0  0  0  0  0  0  0  0
  150.1706  139.5374  157.5720 N   0  0  0  0  0  0  0  0  0  0  0  0
  149.0408  138.9983  156.8170 C   0  0  0  0  0  0  0  0  0  0  0  0
  147.7971  139.8902  156.9669 C   0  0  0  0  0  0  0  0  0  0  0  0
  147.6386  140.8975  155.8394 C   0  0  0  0  0  0  0  0  0  0  0  0
  146.6276  141.8810  155.8948 C   0  0  0  0  0  0  0  0  0  0  0  0
  146.5109  142.7859  154.8220 C   0  0  0  0  0  0  0  0  0  0  0  0
  147.4036  142.6727  153.7390 C   0  0  0  0  0  0  0  0  0  0  0  0
  148.3783  141.6559  153.7777 C   0  0  0  0  0  0  0  0  0  0  0  0
  148.4997  140.7842  154.8021 N   0  0  0  0  0  0  0  0  0  0  0  0
  151.7624  141.6285  157.7411 N   0  0  0  0  0  0  0  0  0  0  0  0
  152.0163  141.3725  159.1701 C   0  0  0  0  0  0  0  0  0  0  0  0
  152.9002  142.4471  159.8329 C   0  0  0  0  0  0  0  0  0  0  0  0
  152.1760  143.7813  160.0701 C   0  0  0  0  0  0  0  0  0  0  0  0
  152.1752  144.7396  158.8660 C   0  0  0  0  0  0  0  0  0  0  0  0
  152.0407  144.0803  157.4824 C   0  0  0  0  0  0  0  0  0  0  0  0
  151.0681  142.8929  157.4295 C   0  0  0  0  0  0  0  0  0  0  0  0
  149.8774  140.1010  158.3702 H   0  0  0  0  0  0  0  0  0  0  0  0
  149.3168  138.9078  155.7658 H   0  0  0  0  0  0  0  0  0  0  0  0
  148.8277  137.9931  157.1809 H   0  0  0  0  0  0  0  0  0  0  0  0
  146.9063  139.2620  157.0013 H   0  0  0  0  0  0  0  0  0  0  0  0
  147.8277  140.4182  157.9212 H   0  0  0  0  0  0  0  0  0  0  0  0
  145.9547  141.9405  156.7376 H   0  0  0  0  0  0  0  0  0  0  0  0
  145.7499  143.5521  154.8294 H   0  0  0  0  0  0  0  0  0  0  0  0
  147.3430  143.3482  152.8987 H   0  0  0  0  0  0  0  0  0  0  0  0
  149.0783  141.5398  152.9637 H   0  0  0  0  0  0  0  0  0  0  0  0
  151.0657  141.2684  159.6943 H   0  0  0  0  0  0  0  0  0  0  0  0
  152.5236  140.4136  159.2727 H   0  0  0  0  0  0  0  0  0  0  0  0
  153.2074  142.0602  160.8052 H   0  0  0  0  0  0  0  0  0  0  0  0
  153.8234  142.5968  159.2717 H   0  0  0  0  0  0  0  0  0  0  0  0
  151.1506  143.5833  160.3850 H   0  0  0  0  0  0  0  0  0  0  0  0
  152.6412  144.2963  160.9112 H   0  0  0  0  0  0  0  0  0  0  0  0
  151.3649  145.4566  159.0030 H   0  0  0  0  0  0  0  0  0  0  0  0
  153.0927  145.3291  158.8739 H   0  0  0  0  0  0  0  0  0  0  0  0
  151.7100  144.8433  156.7770 H   0  0  0  0  0  0  0  0  0  0  0  0
  153.0212  143.7635  157.1235 H   0  0  0  0  0  0  0  0  0  0  0  0
  150.6542  142.8334  156.4230 H   0  0  0  0  0  0  0  0  0  0  0  0
  150.2131  143.0329  158.0918 H   0  0  0  0  0  0  0  0  0  0  0  0
  1  2  2  0  0  0  0
  2  3  2  0  0  0  0
  2  4  1  0  0  0  0
  2 13  1  0  0  0  0
  4  5  1  0  0  0  0
  4 20  1  0  0  0  0
  5  6  1  0  0  0  0
  5 21  1  0  0  0  0
  5 22  1  0  0  0  0
  6  7  1  0  0  0  0
  6 23  1  0  0  0  0
  6 24  1  0  0  0  0
  7 12  1  0  0  0  0
  7  8  2  0  0  0  0
  8  9  1  0  0  0  0
  8 25  1  0  0  0  0
  9 10  2  0  0  0  0
  9 26  1  0  0  0  0
 10 11  1  0  0  0  0
 10 27  1  0  0  0  0
 11 12  2  0  0  0  0
 11 28  1  0  0  0  0
 13 19  1  0  0  0  0
 13 14  1  0  0  0  0
 14 15  1  0  0  0  0
 14 29  1  0  0  0  0
 14 30  1  0  0  0  0
 15 16  1  0  0  0  0
 15 31  1  0  0  0  0
 15 32  1  0  0  0  0
 16 17  1  0  0  0  0
 16 33  1  0  0  0  0
 16 34  1  0  0  0  0
 17 18  1  0  0  0  0
 17 35  1  0  0  0  0
 17 36  1  0  0  0  0
 18 19  1  0  0  0  0
 18 37  1  0  0  0  0
 18 38  1  0  0  0  0
 19 39  1  0  0  0  0
 19 40  1  0  0  0  0
M  END
> <s_m_source_file>
AV-unprocessed.smi

> <i_m_source_file_index>
1327

> <i_lp_mmshare_version>
43012

> <i_f3d_flags>
0

> <s_epik_input>
W0NIMl0xW0NIMl1bQ0gyXVtDSDJdW0NIMl1bQ0gyXU4xUyg9TykoPU8pW05IXVtDSDJdW0NIMl1jMltjSF1bY0hdW2NIXVtjSF1uMg==

> <s_epik_cmdline>
J2VwaWtfcHl0aG9uJywgJy1waCcsICc3LjAnLCAnLXRuJywgJzgnLCAnLW1hJywgJzIwMCcsICctbWV0YWxfYmluZGluZycsICctaW1hZScsICc8aW5maWxlLm1hZT4nLCAnLW9tYWUnLCAnPG91dGZpbGUubWFlPic=

> <r_lp_tautomer_probability>
1

> <r_epik_Ionization_Penalty>
0.00665037

> <r_epik_Ionization_Penalty_Charging>
0

> <r_epik_Ionization_Penalty_Neutral>
0.00665037

> <r_epik_State_Penalty>
-0

> <r_epik_Charging_Adjusted_Penalty>
0

> <i_epik_Tot_Q>
0

> <i_epik_Tot_abs_Q>
0

> <r_epik_Metal_State_Penalty>
0.361784

> <b_epik_Metal_Only>
0

> <s_lp_Force_Field>
OPLS_2005

> <r_lp_Energy>
15.8899

> <b_lp_Chiralities_Consistent>
1

> <s_lp_Variant>
AV-unprocessed.smi:1327-1

> <Gold.Version>
5.8.1

> <Gold.Id.Protein>
6NUR|6NUR_protein|mol2

> <Gold.PLP.Fitness>
45.2202

> <Gold.PLP.PLP>
-38.5961

> <Gold.PLP.part.hbond>
-2.0000

> <Gold.PLP.part.metal>
0.0000

> <Gold.PLP.part.buried>
-5.6275

> <Gold.PLP.part.nonpolar>
-31.3424

> <Gold.PLP.part.repulsive>
0.1364

> <Gold.PLP.ligand.clash>
0.0000

> <Gold.PLP.ligand.torsion>
2.0131

> <Gold.PLP.Chemscore.Hbond>
1.8406

> <Gold.PLP.Chemscore.CHOScore>
1.0000

> <Gold.PLP.Chemscore.Metal>
0.0000

> <Gold.Chemscore.Hbonds>
donor molecule, donor type, donor heavy atom, donor atom, acceptor molecule, acceptor atom, score
      P1  H  7989  7998       L1     3  0.82
      P1  H  7997  8010       L1     1  1.00
      L1  C    11    28       P1  7957  1.00

> <Gold.PLP.Chemscore.Internal.Correction>
2.1286

> <Gold.Rescore>
     Score         DG    S(hbond)    S(metal)    S(lipo)     H(rot)  DE(clash)    DE(int)     intcor
     14.40     -18.23       1.77        0.00      90.69       1.47       0.05       3.78       ----

> <Gold.Chemscore.Fitness>
14.3989

> <Gold.Chemscore.DG>
-18.2262

> <Gold.Chemscore.ZeroCoef>
-5.4800

> <Gold.Chemscore.Hbond>
1.7681

> <Gold.Chemscore.Metal>
0.0000

> <Gold.Chemscore.Lipo>
90.6881

> <Gold.Chemscore.Internal_Hbond>
0.0000

> <Gold.Chemscore.DEClash>
0.0451

> <Gold.Chemscore.DEInternal>
3.7822

> <Gold.Chemscore.Rot>
1.4725

> <Gold.Chemscore.Internal.Correction>
   9.000000E+99

> <Gold.Chemscore.Hbonds>
donor molecule, donor type, donor heavy atom, donor atom, acceptor molecule, acceptor atom, score
      P1  H  7989  7998       L1     3  0.77
      P1  H  7997  8010       L1     1  0.97

> <Gold.Chemscore.Hbond.Weighted>
-5.9054

> <Gold.Chemscore.Metal.Weighted>
-0.0000

> <Gold.Chemscore.Lipo.Weighted>
-10.6105

> <Gold.Chemscore.Internal_Hbond.Weighted>
0.0000

> <Gold.Chemscore.DEClash.Weighted>
0.0451

> <Gold.Chemscore.DEInternal.Weighted>
3.7822

> <Gold.Chemscore.Rot.Weighted>
3.7697

> <Gold.Chemscore.Internal.Correction.Weighted>
   9.000000E+99

> <Gold.Protein.RotatedTorsions>
[ 6907 6896 6895 6894 ] final  -75.86 input  -60.11 | X-H torsion
[ 7974 7965 7964 7962 ] final -112.26 input  175.53 | X-H torsion
[ 8008 7997 7996 7995 ] final   50.18 input   59.86 | X-H torsion
[ 10167 10162 10161 10158 ] final  169.86 input  -65.29 | X-H torsion
[ 10718 10713 10712 10709 ] final -169.48 input   66.30 | X-H torsion
[ 10763 10752 10751 10750 ] final -104.05 input  -60.55 | X-H torsion
[ 11005 11000 10999 10996 ] final   17.69 input  -57.11 | X-H torsion

> <Gold.Protein.ActiveResidues>
 VAL166  LYS551  ARG553  GLY616  TRP617  ASP618  TYR619  PRO620  LYS621  CYS622 
 ASP623  PHE694  ASN695  SER759  ASP760  ASP761  ALA762  ILE779  LEU786  VAL792 
 PHE793  MET794  SER795  GLU796  ALA797  LYS798  CYS799  TRP800  GLU811  SER814 

> <Gold.Protein.RotatedAtoms>
  150.7045  134.4658  159.5401 H   0  0  0  0  0  0  0  0  0  0  0  0  # atno 6907 bound_to 6896
  152.2324  134.8306  160.0481 H   0  0  0  0  0  0  0  0  0  0  0  0  # atno 6908 bound_to 6896
  151.9117  133.3528  159.3903 H   0  0  0  0  0  0  0  0  0  0  0  0  # atno 6909 bound_to 6896
  145.1462  140.8804  143.3673 H   0  0  0  0  0  0  0  0  0  0  0  0  # atno 7974 bound_to 7965
  155.4146  140.3444  155.4266 H   0  0  0  0  0  0  0  0  0  0  0  0  # atno 8008 bound_to 7997
  156.1429  140.1547  156.8924 H   0  0  0  0  0  0  0  0  0  0  0  0  # atno 8009 bound_to 7997
  154.4986  140.0821  156.7730 H   0  0  0  0  0  0  0  0  0  0  0  0  # atno 8010 bound_to 7997
  139.5003  144.3660  151.9775 H   0  0  0  0  0  0  0  0  0  0  0  0  # atno 10167 bound_to 10162
  156.7122  130.9238  151.3090 H   0  0  0  0  0  0  0  0  0  0  0  0  # atno 10718 bound_to 10713
  154.7851  135.4801  153.9927 H   0  0  0  0  0  0  0  0  0  0  0  0  # atno 10763 bound_to 10752
  153.1548  135.6798  153.8836 H   0  0  0  0  0  0  0  0  0  0  0  0  # atno 10764 bound_to 10752
  153.8468  135.3172  155.3408 H   0  0  0  0  0  0  0  0  0  0  0  0  # atno 10765 bound_to 10752
  140.4331  134.1399  155.7682 H   0  0  0  0  0  0  0  0  0  0  0  0  # atno 11005 bound_to 11000
  145.0479  139.3205  143.5943 LP  0  0  0  0  0  0  0  0  0  0  0  0  # atno 17320 bound_to 7965
  146.3500  139.9877  142.8689 LP  0  0  0  0  0  0  0  0  0  0  0  0  # atno 17321 bound_to 7965
  140.3096  144.3553  150.6037 LP  0  0  0  0  0  0  0  0  0  0  0  0  # atno 17342 bound_to 10162
  140.5809  143.2173  151.7430 LP  0  0  0  0  0  0  0  0  0  0  0  0  # atno 17343 bound_to 10162
  157.6931  130.9254  150.0570 LP  0  0  0  0  0  0  0  0  0  0  0  0  # atno 17370 bound_to 10713
  156.1653  130.3645  149.9241 LP  0  0  0  0  0  0  0  0  0  0  0  0  # atno 17371 bound_to 10713
  141.1737  133.8557  157.1489 LP  0  0  0  0  0  0  0  0  0  0  0  0  # atno 17394 bound_to 11000
  140.0121  134.9983  157.0416 LP  0  0  0  0  0  0  0  0  0  0  0  0  # atno 17395 bound_to 11000

$$$$
