AV-unprocessed.smi:110|AV-procd|sdf|1077|dock10
  -GOLD-   2262018163D 1   1.00000     0.00000
 Structure written by MMmdl.
 46 50  0  0  0  0  0  0  0  0  1 V2000
  152.4180  133.9334  157.0511 O   0  0  0  0  0  0  0  0  0  0  0  0
  151.1776  134.0936  156.3963 C   0  0  0  0  0  0  0  0  0  0  0  0
  150.7441  135.5701  156.4341 C   0  0  1  0  0  0  0  0  0  0  0  0
  151.8655  136.4389  156.2771 O   0  0  0  0  0  0  0  0  0  0  0  0
  151.4865  137.6328  155.6577 C   0  0  2  0  0  0  0  0  0  0  0  0
  151.7371  138.7598  156.6117 N   0  0  0  0  0  0  0  0  0  0  0  0
  151.0535  139.9529  156.6781 C   0  0  0  0  0  0  0  0  0  0  0  0
  151.4607  140.7825  157.5988 N   0  0  0  0  0  0  0  0  0  0  0  0
  152.5251  140.1261  158.2044 C   0  0  0  0  0  0  0  0  0  0  0  0
  153.4154  140.4420  159.2706 C   0  0  0  0  0  0  0  0  0  0  0  0
  153.3840  141.5899  159.9863 N   0  0  0  0  0  0  0  0  0  0  0  0
  153.6377  141.5164  161.4327 C   0  0  0  0  0  0  0  0  0  0  0  0
  153.0252  142.7722  162.0814 C   0  0  0  0  0  0  0  0  0  0  0  0
  152.5167  143.4961  160.8773 C   0  0  0  0  0  0  0  0  0  0  0  0
  151.8857  144.7516  160.8403 C   0  0  0  0  0  0  0  0  0  0  0  0
  151.4993  145.2646  159.5834 C   0  0  0  0  0  0  0  0  0  0  0  0
  151.7534  144.5293  158.4022 C   0  0  0  0  0  0  0  0  0  0  0  0
  152.3905  143.2704  158.4638 C   0  0  0  0  0  0  0  0  0  0  0  0
  152.7565  142.7556  159.7244 C   0  0  0  0  0  0  0  0  0  0  0  0
  154.3261  139.5027  159.6304 N   0  0  0  0  0  0  0  0  0  0  0  0
  154.3917  138.3453  158.9681 C   0  0  0  0  0  0  0  0  0  0  0  0
  153.6414  137.9252  157.9487 N   0  0  0  0  0  0  0  0  0  0  0  0
  152.7033  138.8503  157.5959 C   0  0  0  0  0  0  0  0  0  0  0  0
  150.0001  137.5189  155.2894 C   0  0  1  0  0  0  0  0  0  0  0  0
  149.6882  138.0701  154.0234 O   0  0  0  0  0  0  0  0  0  0  0  0
  149.7875  136.0092  155.3178 C   0  0  1  0  0  0  0  0  0  0  0  0
  150.1359  135.3903  154.0889 O   0  0  0  0  0  0  0  0  0  0  0  0
  150.2611  135.7821  157.3879 H   0  0  0  0  0  0  0  0  0  0  0  0
  152.1382  137.8238  154.8039 H   0  0  0  0  0  0  0  0  0  0  0  0
  149.3852  137.9900  156.0564 H   0  0  0  0  0  0  0  0  0  0  0  0
  148.7529  135.7528  155.5476 H   0  0  0  0  0  0  0  0  0  0  0  0
  152.5745  133.0098  157.1762 H   0  0  0  0  0  0  0  0  0  0  0  0
  151.2396  133.7223  155.3729 H   0  0  0  0  0  0  0  0  0  0  0  0
  150.4505  133.4755  156.9238 H   0  0  0  0  0  0  0  0  0  0  0  0
  150.2294  140.1895  156.0208 H   0  0  0  0  0  0  0  0  0  0  0  0
  153.1991  140.6107  161.8542 H   0  0  0  0  0  0  0  0  0  0  0  0
  154.7130  141.4786  161.6101 H   0  0  0  0  0  0  0  0  0  0  0  0
  152.2050  142.5266  162.7563 H   0  0  0  0  0  0  0  0  0  0  0  0
  153.7681  143.3668  162.6134 H   0  0  0  0  0  0  0  0  0  0  0  0
  151.7053  145.3098  161.7470 H   0  0  0  0  0  0  0  0  0  0  0  0
  151.0132  146.2271  159.5227 H   0  0  0  0  0  0  0  0  0  0  0  0
  151.4620  144.9351  157.4448 H   0  0  0  0  0  0  0  0  0  0  0  0
  152.5932  142.7189  157.5575 H   0  0  0  0  0  0  0  0  0  0  0  0
  155.1523  137.6562  159.3042 H   0  0  0  0  0  0  0  0  0  0  0  0
  149.4012  137.3707  153.4560 H   0  0  0  0  0  0  0  0  0  0  0  0
  149.5343  135.6920  153.4249 H   0  0  0  0  0  0  0  0  0  0  0  0
  1  2  1  0  0  0  0
  1 32  1  0  0  0  0
  2  3  1  0  0  0  0
  2 33  1  0  0  0  0
  2 34  1  0  0  0  0
  3 28  1  0  0  0  0
  3 26  1  0  0  0  0
  3  4  1  0  0  0  0
  4  5  1  0  0  0  0
  5 29  1  0  0  0  0
  5  6  1  0  0  0  0
  5 24  1  0  0  0  0
  6 23  1  0  0  0  0
  6  7  1  0  0  0  0
  7  8  2  0  0  0  0
  7 35  1  0  0  0  0
  8  9  1  0  0  0  0
  9 23  2  0  0  0  0
  9 10  1  0  0  0  0
 10 11  1  0  0  0  0
 10 20  2  0  0  0  0
 11 19  1  0  0  0  0
 11 12  1  0  0  0  0
 12 13  1  0  0  0  0
 12 36  1  0  0  0  0
 12 37  1  0  0  0  0
 13 14  1  0  0  0  0
 13 38  1  0  0  0  0
 13 39  1  0  0  0  0
 14 19  2  0  0  0  0
 14 15  1  0  0  0  0
 15 16  2  0  0  0  0
 15 40  1  0  0  0  0
 16 17  1  0  0  0  0
 16 41  1  0  0  0  0
 17 18  2  0  0  0  0
 17 42  1  0  0  0  0
 18 19  1  0  0  0  0
 18 43  1  0  0  0  0
 20 21  1  0  0  0  0
 21 22  2  0  0  0  0
 21 44  1  0  0  0  0
 22 23  1  0  0  0  0
 24 30  1  0  0  0  0
 24 25  1  0  0  0  0
 24 26  1  0  0  0  0
 25 45  1  0  0  0  0
 26 31  1  0  0  0  0
 26 27  1  0  0  0  0
 27 46  1  0  0  0  0
M  END
> <s_m_source_file>
AV-unprocessed.smi

> <i_m_source_file_index>
110

> <i_lp_mmshare_version>
43012

> <i_f3d_flags>
0

> <s_epik_input>
W09IXVtDSDJdW0NASF0xT1tDQEhdKFtDQEhdKFtPSF0pW0NAQEhdMVtPSF0pbihbY0hdbjIpYyhjMjMpbltjSF1uYzNOKFtDSDJdW0NIMl00KWMoYzQ1KVtjSF1bY0hdW2NIXVtjSF01

> <s_epik_cmdline>
J2VwaWtfcHl0aG9uJywgJy1waCcsICc3LjAnLCAnLXRuJywgJzgnLCAnLW1hJywgJzIwMCcsICctbWV0YWxfYmluZGluZycsICctaW1hZScsICc8aW5maWxlLm1hZT4nLCAnLW9tYWUnLCAnPG91dGZpbGUubWFlPic=

> <r_lp_tautomer_probability>
1

> <r_epik_Ionization_Penalty>
0.00068475

> <r_epik_Ionization_Penalty_Charging>
0

> <r_epik_Ionization_Penalty_Neutral>
0.00068475

> <r_epik_State_Penalty>
0.000417442

> <r_epik_Charging_Adjusted_Penalty>
0.000417442

> <i_epik_Tot_Q>
0

> <i_epik_Tot_abs_Q>
0

> <r_epik_Metal_State_Penalty>
-0

> <b_epik_Metal_Only>
0

> <s_epik_Chemistry_Notes>
This compound contains an acetal/aminal-like group ( X-CH(R)-Y where X, Y are N, S, or O) that may be acid/base labile, releasing an aldehyde.

> <s_lp_Force_Field>
OPLS_2005

> <r_lp_Energy>
64.5887

> <b_lp_Chiralities_Consistent>
1

> <s_lp_Variant>
AV-unprocessed.smi:110-15

> <Gold.Version>
5.8.1

> <Gold.Id.Protein>
6NUR|6NUR_protein|mol2

> <Gold.PLP.Fitness>
58.8299

> <Gold.PLP.PLP>
-53.4805

> <Gold.PLP.part.hbond>
-5.0287

> <Gold.PLP.part.metal>
0.0000

> <Gold.PLP.part.buried>
-4.9970

> <Gold.PLP.part.nonpolar>
-43.6693

> <Gold.PLP.part.repulsive>
0.0036

> <Gold.PLP.ligand.clash>
0.0000

> <Gold.PLP.ligand.torsion>
1.3183

> <Gold.PLP.Chemscore.Hbond>
2.6169

> <Gold.PLP.Chemscore.CHOScore>
0.0000

> <Gold.PLP.Chemscore.Metal>
0.0000

> <Gold.Chemscore.Hbonds>
donor molecule, donor type, donor heavy atom, donor atom, acceptor molecule, acceptor atom, score
      L1  H    25    45       P1  7948  1.00
      L1  H    27    46       P1  7948  0.85
      P1  H 10752 10765       L1     4  0.74

> <Gold.PLP.Chemscore.Internal.Correction>
0.1352

> <Gold.Rescore>
     Score         DG    S(hbond)    S(metal)    S(lipo)     H(rot)  DE(clash)    DE(int)     intcor
     12.32     -16.31       1.77        0.00     116.15       3.38       0.01       3.97       ----

> <Gold.Chemscore.Fitness>
12.3248

> <Gold.Chemscore.DG>
-16.3058

> <Gold.Chemscore.ZeroCoef>
-5.4800

> <Gold.Chemscore.Hbond>
1.7662

> <Gold.Chemscore.Metal>
0.0000

> <Gold.Chemscore.Lipo>
116.1454

> <Gold.Chemscore.Internal_Hbond>
0.0000

> <Gold.Chemscore.DEClash>
0.0149

> <Gold.Chemscore.DEInternal>
3.9662

> <Gold.Chemscore.Rot>
3.3837

> <Gold.Chemscore.Internal.Correction>
   9.000000E+99

> <Gold.Chemscore.Hbonds>
donor molecule, donor type, donor heavy atom, donor atom, acceptor molecule, acceptor atom, score
      L1  H    25    45       P1  7948  0.93
      L1  H    27    46       P1  7948  0.14
      P1  H 10752 10765       L1     4  0.07

> <Gold.Chemscore.Hbond.Weighted>
-5.8990

> <Gold.Chemscore.Metal.Weighted>
-0.0000

> <Gold.Chemscore.Lipo.Weighted>
-13.5890

> <Gold.Chemscore.Internal_Hbond.Weighted>
0.0000

> <Gold.Chemscore.DEClash.Weighted>
0.0149

> <Gold.Chemscore.DEInternal.Weighted>
3.9662

> <Gold.Chemscore.Rot.Weighted>
8.6622

> <Gold.Chemscore.Internal.Correction.Weighted>
   9.000000E+99

> <Gold.Protein.RotatedTorsions>
[ 6907 6896 6895 6894 ] final   12.73 input  -60.11 | X-H torsion
[ 7974 7965 7964 7962 ] final  133.49 input  175.53 | X-H torsion
[ 8008 7997 7996 7995 ] final  -41.38 input   59.86 | X-H torsion
[ 10167 10162 10161 10158 ] final  -61.11 input  -65.29 | X-H torsion
[ 10718 10713 10712 10709 ] final -161.91 input   66.30 | X-H torsion
[ 10763 10752 10751 10750 ] final -175.11 input  -60.55 | X-H torsion
[ 11005 11000 10999 10996 ] final    2.15 input  -57.11 | X-H torsion

> <Gold.Protein.ActiveResidues>
 VAL166  LYS551  ARG553  GLY616  TRP617  ASP618  TYR619  PRO620  LYS621  CYS622 
 ASP623  PHE694  ASN695  SER759  ASP760  ASP761  ALA762  ILE779  LEU786  VAL792 
 PHE793  MET794  SER795  GLU796  ALA797  LYS798  CYS799  TRP800  GLU811  SER814 

> <Gold.Protein.RotatedAtoms>
  151.7749  135.0776  160.0365 H   0  0  0  0  0  0  0  0  0  0  0  0  # atno 6907 bound_to 6896
  152.3263  133.5904  159.5787 H   0  0  0  0  0  0  0  0  0  0  0  0  # atno 6908 bound_to 6896
  150.7397  133.9852  159.3631 H   0  0  0  0  0  0  0  0  0  0  0  0  # atno 6909 bound_to 6896
  144.9860  139.4455  143.5363 H   0  0  0  0  0  0  0  0  0  0  0  0  # atno 7974 bound_to 7965
  154.4004  140.1501  156.3181 H   0  0  0  0  0  0  0  0  0  0  0  0  # atno 8008 bound_to 7997
  155.8555  140.3456  155.5700 H   0  0  0  0  0  0  0  0  0  0  0  0  # atno 8009 bound_to 7997
  155.7938  140.0860  157.1985 H   0  0  0  0  0  0  0  0  0  0  0  0  # atno 8010 bound_to 7997
  140.6027  143.2365  151.5891 H   0  0  0  0  0  0  0  0  0  0  0  0  # atno 10167 bound_to 10162
  156.6030  130.8818  151.2918 H   0  0  0  0  0  0  0  0  0  0  0  0  # atno 10718 bound_to 10713
  154.5882  135.2842  155.0662 H   0  0  0  0  0  0  0  0  0  0  0  0  # atno 10763 bound_to 10752
  154.1973  135.6430  153.5080 H   0  0  0  0  0  0  0  0  0  0  0  0  # atno 10764 bound_to 10752
  153.0112  135.5460  154.6559 H   0  0  0  0  0  0  0  0  0  0  0  0  # atno 10765 bound_to 10752
  140.6075  133.9778  155.8161 H   0  0  0  0  0  0  0  0  0  0  0  0  # atno 11005 bound_to 11000
  146.3420  139.9162  142.8773 LP  0  0  0  0  0  0  0  0  0  0  0  0  # atno 17320 bound_to 7965
  145.2353  140.9988  143.3967 LP  0  0  0  0  0  0  0  0  0  0  0  0  # atno 17321 bound_to 7965
  139.5303  144.2937  152.1131 LP  0  0  0  0  0  0  0  0  0  0  0  0  # atno 17342 bound_to 10162
  140.2121  144.4552  150.6381 LP  0  0  0  0  0  0  0  0  0  0  0  0  # atno 17343 bound_to 10162
  157.7274  130.9643  150.1699 LP  0  0  0  0  0  0  0  0  0  0  0  0  # atno 17370 bound_to 10713
  156.2453  130.3695  149.8291 LP  0  0  0  0  0  0  0  0  0  0  0  0  # atno 17371 bound_to 10713
  141.0830  134.0033  157.3356 LP  0  0  0  0  0  0  0  0  0  0  0  0  # atno 17394 bound_to 11000
  139.9206  135.0200  156.8049 LP  0  0  0  0  0  0  0  0  0  0  0  0  # atno 17395 bound_to 11000

$$$$
