AV-unprocessed.smi:2299|AV-procd|sdf|9229|dock5
  -GOLD-   2272012453D 1   1.00000     0.00000
 Structure written by MMmdl.
 43 44  0  0  0  0  0  0  0  0  2 V2000
  152.3199  140.8444  160.3274 C   0  0  0  0  0  0  0  0  0  0  0  0
  152.7823  142.2723  160.6518 C   0  0  0  0  0  0  0  0  0  0  0  0
  153.0256  142.4543  162.1589 C   0  0  0  0  0  0  0  0  0  0  0  0
  151.8224  143.2930  160.1039 C   0  0  0  0  0  0  0  0  0  0  0  0
  151.2376  144.2652  160.8158 N   0  3  0  0  0  0  0  0  0  0  0  0
  150.4004  145.0042  160.0267 C   0  0  0  0  0  0  0  0  0  0  0  0
  150.4579  144.4473  158.7772 C   0  0  0  0  0  0  0  0  0  0  0  0
  151.3282  143.3889  158.8545 N   0  0  0  0  0  0  0  0  0  0  0  0
  151.6884  142.4963  157.7435 C   0  0  0  0  0  0  0  0  0  0  0  0
  150.5057  141.6122  157.3463 C   0  0  0  0  0  0  0  0  0  0  0  0
  150.4302  140.4579  157.7663 O   0  0  0  0  0  0  0  0  0  0  0  0
  149.6004  142.1614  156.5208 N   0  0  0  0  0  0  0  0  0  0  0  0
  148.4257  141.4816  155.9708 C   0  0  1  0  0  0  0  0  0  0  0  0
  147.8636  142.3736  154.8399 C   0  0  0  0  0  0  0  0  0  0  0  0
  146.3849  142.1064  154.5106 C   0  0  0  0  0  0  0  0  0  0  0  0
  146.0933  140.7150  153.9292 C   0  0  0  0  0  0  0  0  0  0  0  0
  146.4229  139.5632  154.8935 C   0  0  0  0  0  0  0  0  0  0  0  0
  147.8521  139.2839  154.9466 N   0  0  0  0  0  0  0  0  0  0  0  0
  148.8186  140.1032  155.3882 C   0  0  0  0  0  0  0  0  0  0  0  0
  149.9999  139.7606  155.3270 O   0  0  0  0  0  0  0  0  0  0  0  0
  152.2109  140.6972  159.2527 H   0  0  0  0  0  0  0  0  0  0  0  0
  151.3577  140.6247  160.7914 H   0  0  0  0  0  0  0  0  0  0  0  0
  153.0387  140.1080  160.6875 H   0  0  0  0  0  0  0  0  0  0  0  0
  153.7341  142.4490  160.1520 H   0  0  0  0  0  0  0  0  0  0  0  0
  153.3886  143.4588  162.3789 H   0  0  0  0  0  0  0  0  0  0  0  0
  153.7738  141.7491  162.5217 H   0  0  0  0  0  0  0  0  0  0  0  0
  152.1149  142.2927  162.7368 H   0  0  0  0  0  0  0  0  0  0  0  0
  149.8392  145.8464  160.4045 H   0  0  0  0  0  0  0  0  0  0  0  0
  149.9552  144.7178  157.8598 H   0  0  0  0  0  0  0  0  0  0  0  0
  152.0283  143.0842  156.8913 H   0  0  0  0  0  0  0  0  0  0  0  0
  152.5352  141.8875  158.0644 H   0  0  0  0  0  0  0  0  0  0  0  0
  149.7473  143.1153  156.2243 H   0  0  0  0  0  0  0  0  0  0  0  0
  147.6813  141.3575  156.7597 H   0  0  0  0  0  0  0  0  0  0  0  0
  147.9366  143.4191  155.1438 H   0  0  0  0  0  0  0  0  0  0  0  0
  148.4715  142.2893  153.9372 H   0  0  0  0  0  0  0  0  0  0  0  0
  145.7802  142.2604  155.4052 H   0  0  0  0  0  0  0  0  0  0  0  0
  146.0488  142.8565  153.7941 H   0  0  0  0  0  0  0  0  0  0  0  0
  145.0319  140.6670  153.6836 H   0  0  0  0  0  0  0  0  0  0  0  0
  146.6243  140.5810  152.9857 H   0  0  0  0  0  0  0  0  0  0  0  0
  146.0333  139.7596  155.8934 H   0  0  0  0  0  0  0  0  0  0  0  0
  145.9314  138.6541  154.5462 H   0  0  0  0  0  0  0  0  0  0  0  0
  148.1423  138.3872  154.5839 H   0  0  0  0  0  0  0  0  0  0  0  0
  151.4018  144.4315  161.8007 H   0  0  0  0  0  0  0  0  0  0  0  0
  1  2  1  0  0  0  0
  1 21  1  0  0  0  0
  1 22  1  0  0  0  0
  1 23  1  0  0  0  0
  2  3  1  0  0  0  0
  2  4  1  0  0  0  0
  2 24  1  0  0  0  0
  3 25  1  0  0  0  0
  3 26  1  0  0  0  0
  3 27  1  0  0  0  0
  4  8  1  0  0  0  0
  4  5  2  0  0  0  0
  5  6  1  0  0  0  0
  5 43  1  0  0  0  0
  6  7  2  0  0  0  0
  6 28  1  0  0  0  0
  7  8  1  0  0  0  0
  7 29  1  0  0  0  0
  8  9  1  0  0  0  0
  9 10  1  0  0  0  0
  9 30  1  0  0  0  0
  9 31  1  0  0  0  0
 10 11  2  0  0  0  0
 10 12  1  0  0  0  0
 12 13  1  0  0  0  0
 12 32  1  0  0  0  0
 13 19  1  0  0  0  0
 13 14  1  0  0  0  0
 13 33  1  0  0  0  0
 14 15  1  0  0  0  0
 14 34  1  0  0  0  0
 14 35  1  0  0  0  0
 15 16  1  0  0  0  0
 15 36  1  0  0  0  0
 15 37  1  0  0  0  0
 16 17  1  0  0  0  0
 16 38  1  0  0  0  0
 16 39  1  0  0  0  0
 17 18  1  0  0  0  0
 17 40  1  0  0  0  0
 17 41  1  0  0  0  0
 18 19  1  0  0  0  0
 18 42  1  0  0  0  0
 19 20  2  0  0  0  0
M  CHG  1   5   1
M  END
> <s_m_source_file>
AV-unprocessed.smi

> <i_m_source_file_index>
2299

> <i_lp_mmshare_version>
43012

> <i_f3d_flags>
0

> <s_epik_input>
W0NIM11bQ0hdKFtDSDNdKWMxbltjSF1bY0hdbjFbQ0gyXUMoPU8pW05IXVtDQEBIXTJbQ0gyXVtDSDJdW0NIMl1bQ0gyXVtOSF1DMj1P

> <s_epik_cmdline>
J2VwaWtfcHl0aG9uJywgJy1waCcsICc3LjAnLCAnLXRuJywgJzgnLCAnLW1hJywgJzIwMCcsICctbWV0YWxfYmluZGluZycsICctaW1hZScsICc8aW5maWxlLm1hZT4nLCAnLW9tYWUnLCAnPG91dGZpbGUubWFlPic=

> <r_lp_tautomer_probability>
1

> <r_epik_Ionization_Penalty>
0.292878

> <r_epik_Ionization_Penalty_Charging>
0

> <r_epik_Ionization_Penalty_Neutral>
0.292878

> <r_epik_State_Penalty>
0.286008

> <r_epik_Charging_Adjusted_Penalty>
0.286008

> <i_epik_Tot_Q>
1

> <i_epik_Tot_abs_Q>
1

> <r_epik_Metal_State_Penalty>
0.563502

> <b_epik_Metal_Only>
0

> <s_lp_Force_Field>
OPLS_2005

> <r_lp_Energy>
15.0936

> <b_lp_Chiralities_Consistent>
1

> <s_lp_Variant>
AV-unprocessed.smi:2299-2

> <Gold.Version>
5.8.1

> <Gold.Id.Protein>
6NUR|6NUR_protein|mol2

> <Gold.PLP.Fitness>
46.6531

> <Gold.PLP.PLP>
-38.9732

> <Gold.PLP.part.hbond>
-2.3431

> <Gold.PLP.part.metal>
0.0000

> <Gold.PLP.part.buried>
-3.5100

> <Gold.PLP.part.nonpolar>
-33.3794

> <Gold.PLP.part.repulsive>
0.3317

> <Gold.PLP.ligand.clash>
0.0000

> <Gold.PLP.ligand.torsion>
0.5938

> <Gold.PLP.Chemscore.Hbond>
1.9600

> <Gold.PLP.Chemscore.CHOScore>
0.9777

> <Gold.PLP.Chemscore.Metal>
0.0000

> <Gold.Chemscore.Hbonds>
donor molecule, donor type, donor heavy atom, donor atom, acceptor molecule, acceptor atom, score
      L1  H    12    32       P1  8028  0.90
      L1  C     7    29       P1  8028  0.57
      L1  C     7    29       P1  8029  0.46

> <Gold.PLP.Chemscore.Internal.Correction>
0.0542

> <Gold.Rescore>
     Score         DG    S(hbond)    S(metal)    S(lipo)     H(rot)  DE(clash)    DE(int)     intcor
     10.93     -16.62       1.94        0.00      78.24       1.75       1.42       4.27       ----

> <Gold.Chemscore.Fitness>
10.9311

> <Gold.Chemscore.DG>
-16.6187

> <Gold.Chemscore.ZeroCoef>
-5.4800

> <Gold.Chemscore.Hbond>
1.9361

> <Gold.Chemscore.Metal>
0.0000

> <Gold.Chemscore.Lipo>
78.2426

> <Gold.Chemscore.Internal_Hbond>
0.0000

> <Gold.Chemscore.DEClash>
1.4225

> <Gold.Chemscore.DEInternal>
4.2651

> <Gold.Chemscore.Rot>
1.7508

> <Gold.Chemscore.Internal.Correction>
   9.000000E+99

> <Gold.Chemscore.Hbonds>
donor molecule, donor type, donor heavy atom, donor atom, acceptor molecule, acceptor atom, score
      L1  H    12    32       P1  8028  0.88

> <Gold.Chemscore.Hbond.Weighted>
-6.4665

> <Gold.Chemscore.Metal.Weighted>
-0.0000

> <Gold.Chemscore.Lipo.Weighted>
-9.1544

> <Gold.Chemscore.Internal_Hbond.Weighted>
0.0000

> <Gold.Chemscore.DEClash.Weighted>
1.4225

> <Gold.Chemscore.DEInternal.Weighted>
4.2651

> <Gold.Chemscore.Rot.Weighted>
4.4821

> <Gold.Chemscore.Internal.Correction.Weighted>
   9.000000E+99

> <Gold.Protein.RotatedTorsions>
[ 6907 6896 6895 6894 ] final -155.48 input  -60.11 | X-H torsion
[ 7974 7965 7964 7962 ] final  -77.46 input  175.53 | X-H torsion
[ 8008 7997 7996 7995 ] final  109.03 input   59.86 | X-H torsion
[ 10167 10162 10161 10158 ] final   91.69 input  -65.29 | X-H torsion
[ 10718 10713 10712 10709 ] final  132.25 input   66.30 | X-H torsion
[ 10763 10752 10751 10750 ] final  -67.91 input  -60.55 | X-H torsion
[ 11005 11000 10999 10996 ] final   86.80 input  -57.11 | X-H torsion

> <Gold.Protein.ActiveResidues>
 VAL166  LYS551  ARG553  GLY616  TRP617  ASP618  TYR619  PRO620  LYS621  CYS622 
 ASP623  PHE694  ASN695  SER759  ASP760  ASP761  ALA762  ILE779  LEU786  VAL792 
 PHE793  MET794  SER795  GLU796  ALA797  LYS798  CYS799  TRP800  GLU811  SER814 

> <Gold.Protein.RotatedAtoms>
  151.2731  133.4245  159.2622 H   0  0  0  0  0  0  0  0  0  0  0  0  # atno 6907 bound_to 6896
  151.0427  134.9619  159.8180 H   0  0  0  0  0  0  0  0  0  0  0  0  # atno 6908 bound_to 6896
  152.5368  134.2689  159.9016 H   0  0  0  0  0  0  0  0  0  0  0  0  # atno 6909 bound_to 6896
  145.5993  140.9412  143.1249 H   0  0  0  0  0  0  0  0  0  0  0  0  # atno 7974 bound_to 7965
  156.1948  140.3065  155.9405 H   0  0  0  0  0  0  0  0  0  0  0  0  # atno 8008 bound_to 7997
  155.3091  140.0450  157.3051 H   0  0  0  0  0  0  0  0  0  0  0  0  # atno 8009 bound_to 7997
  154.5496  140.2287  155.8516 H   0  0  0  0  0  0  0  0  0  0  0  0  # atno 8010 bound_to 7997
  139.8350  144.6669  150.9353 H   0  0  0  0  0  0  0  0  0  0  0  0  # atno 10167 bound_to 10162
  157.4890  131.1089  150.9582 H   0  0  0  0  0  0  0  0  0  0  0  0  # atno 10718 bound_to 10713
  154.3814  135.6073  153.5793 H   0  0  0  0  0  0  0  0  0  0  0  0  # atno 10763 bound_to 10752
  152.9788  135.5861  154.4406 H   0  0  0  0  0  0  0  0  0  0  0  0  # atno 10764 bound_to 10752
  154.4176  135.2845  155.1974 H   0  0  0  0  0  0  0  0  0  0  0  0  # atno 10765 bound_to 10752
  139.8935  134.8379  156.2770 H   0  0  0  0  0  0  0  0  0  0  0  0  # atno 11005 bound_to 11000
  144.7317  139.7707  143.7345 LP  0  0  0  0  0  0  0  0  0  0  0  0  # atno 17320 bound_to 7965
  146.1588  139.4695  143.0001 LP  0  0  0  0  0  0  0  0  0  0  0  0  # atno 17321 bound_to 7965
  140.7803  143.3965  151.1221 LP  0  0  0  0  0  0  0  0  0  0  0  0  # atno 17342 bound_to 10162
  139.7616  143.8627  152.3101 LP  0  0  0  0  0  0  0  0  0  0  0  0  # atno 17343 bound_to 10162
  157.0290  130.5704  149.5341 LP  0  0  0  0  0  0  0  0  0  0  0  0  # atno 17370 bound_to 10713
  156.0162  130.5257  150.8143 LP  0  0  0  0  0  0  0  0  0  0  0  0  # atno 17371 bound_to 10713
  141.0063  133.7121  156.1040 LP  0  0  0  0  0  0  0  0  0  0  0  0  # atno 17394 bound_to 11000
  140.7429  134.4131  157.5552 LP  0  0  0  0  0  0  0  0  0  0  0  0  # atno 17395 bound_to 11000

$$$$
