AV-unprocessed.smi:749|AV-procd|sdf|3584|dock10
  -GOLD-   22720 0583D 1   1.00000     0.00000
 Structure written by MMmdl.
 43 44  0  0  0  0  0  0  0  0  1 V2000
  152.5487  144.0909  162.3716 C   0  0  0  0  0  0  0  0  0  0  0  0
  152.5259  143.4880  161.0379 N   0  0  0  0  0  0  0  0  0  0  0  0
  152.7971  142.0422  161.0084 C   0  0  0  0  0  0  0  0  0  0  0  0
  153.1162  141.4879  159.6066 C   0  0  1  0  0  0  0  0  0  0  0  0
  153.0420  140.0308  159.5947 N   0  0  0  0  0  0  0  0  0  0  0  0
  154.0245  139.2009  159.2064 C   0  0  0  0  0  0  0  0  0  0  0  0
  155.1164  139.6031  158.8079 O   0  0  0  0  0  0  0  0  0  0  0  0
  153.7490  137.8811  159.2696 N   0  0  0  0  0  0  0  0  0  0  0  0
  154.5437  136.7461  158.9418 C   0  0  0  0  0  0  0  0  0  0  0  0
  155.7996  136.9119  158.3000 C   0  0  0  0  0  0  0  0  0  0  0  0
  156.2597  135.6300  158.1646 C   0  0  0  0  0  0  0  0  0  0  0  0
  157.5130  135.0357  157.5848 C   0  0  0  0  0  0  0  0  0  0  0  0
  157.4707  133.4959  157.6480 C   0  0  0  0  0  0  0  0  0  0  0  0
  158.7418  135.5203  158.3770 C   0  0  0  0  0  0  0  0  0  0  0  0
  157.6610  135.4567  156.1105 C   0  0  0  0  0  0  0  0  0  0  0  0
  155.3549  134.7562  158.6882 O   0  0  0  0  0  0  0  0  0  0  0  0
  154.2615  135.4748  159.1832 N   0  0  0  0  0  0  0  0  0  0  0  0
  152.1308  142.0632  158.5879 C   0  0  0  0  0  0  0  0  0  0  0  0
  152.2230  143.5933  158.5608 C   0  0  0  0  0  0  0  0  0  0  0  0
  152.2000  144.2360  159.9559 C   0  0  0  0  0  0  0  0  0  0  0  0
  151.9131  145.4306  160.0392 O   0  0  0  0  0  0  0  0  0  0  0  0
  153.3220  144.8582  162.4302 H   0  0  0  0  0  0  0  0  0  0  0  0
  152.7508  143.3567  163.1526 H   0  0  0  0  0  0  0  0  0  0  0  0
  151.5886  144.5543  162.6031 H   0  0  0  0  0  0  0  0  0  0  0  0
  153.6225  141.8079  161.6826 H   0  0  0  0  0  0  0  0  0  0  0  0
  151.9154  141.5401  161.4102 H   0  0  0  0  0  0  0  0  0  0  0  0
  154.1229  141.7976  159.3185 H   0  0  0  0  0  0  0  0  0  0  0  0
  152.1754  139.6171  159.9088 H   0  0  0  0  0  0  0  0  0  0  0  0
  152.8144  137.6612  159.5821 H   0  0  0  0  0  0  0  0  0  0  0  0
  156.2865  137.8241  157.9889 H   0  0  0  0  0  0  0  0  0  0  0  0
  158.3756  133.0552  157.2279 H   0  0  0  0  0  0  0  0  0  0  0  0
  156.6241  133.0964  157.0880 H   0  0  0  0  0  0  0  0  0  0  0  0
  157.3829  133.1415  158.6759 H   0  0  0  0  0  0  0  0  0  0  0  0
  158.6723  135.2362  159.4277 H   0  0  0  0  0  0  0  0  0  0  0  0
  158.8411  136.6056  158.3371 H   0  0  0  0  0  0  0  0  0  0  0  0
  159.6646  135.0941  157.9816 H   0  0  0  0  0  0  0  0  0  0  0  0
  158.5599  135.0319  155.6624 H   0  0  0  0  0  0  0  0  0  0  0  0
  157.7269  136.5407  156.0088 H   0  0  0  0  0  0  0  0  0  0  0  0
  156.8087  135.1235  155.5170 H   0  0  0  0  0  0  0  0  0  0  0  0
  152.3414  141.6674  157.5935 H   0  0  0  0  0  0  0  0  0  0  0  0
  151.1124  141.7582  158.8345 H   0  0  0  0  0  0  0  0  0  0  0  0
  153.1526  143.8931  158.0754 H   0  0  0  0  0  0  0  0  0  0  0  0
  151.4116  144.0032  157.9587 H   0  0  0  0  0  0  0  0  0  0  0  0
  1  2  1  0  0  0  0
  1 22  1  0  0  0  0
  1 23  1  0  0  0  0
  1 24  1  0  0  0  0
  2 20  1  0  0  0  0
  2  3  1  0  0  0  0
  3  4  1  0  0  0  0
  3 25  1  0  0  0  0
  3 26  1  0  0  0  0
  4  5  1  0  0  0  0
  4 18  1  0  0  0  0
  4 27  1  0  0  0  0
  5  6  1  0  0  0  0
  5 28  1  0  0  0  0
  6  7  2  0  0  0  0
  6  8  1  0  0  0  0
  8  9  1  0  0  0  0
  8 29  1  0  0  0  0
  9 17  2  0  0  0  0
  9 10  1  0  0  0  0
 10 11  2  0  0  0  0
 10 30  1  0  0  0  0
 11 12  1  0  0  0  0
 11 16  1  0  0  0  0
 12 13  1  0  0  0  0
 12 14  1  0  0  0  0
 12 15  1  0  0  0  0
 13 31  1  0  0  0  0
 13 32  1  0  0  0  0
 13 33  1  0  0  0  0
 14 34  1  0  0  0  0
 14 35  1  0  0  0  0
 14 36  1  0  0  0  0
 15 37  1  0  0  0  0
 15 38  1  0  0  0  0
 15 39  1  0  0  0  0
 16 17  1  0  0  0  0
 18 19  1  0  0  0  0
 18 40  1  0  0  0  0
 18 41  1  0  0  0  0
 19 20  1  0  0  0  0
 19 42  1  0  0  0  0
 19 43  1  0  0  0  0
 20 21  2  0  0  0  0
M  END
> <s_m_source_file>
AV-unprocessed.smi

> <i_m_source_file_index>
749

> <i_lp_mmshare_version>
43012

> <i_f3d_flags>
0

> <s_epik_input>
Tz1DMVtDSDJdW0NIMl1bQ0BASF0oW0NIMl1OMVtDSDNdKVtOSF1DKD1PKVtOSF1jMltjSF1jKG9uMilDKFtDSDNdKShbQ0gzXSlbQ0gzXQ==

> <s_epik_cmdline>
J2VwaWtfcHl0aG9uJywgJy1waCcsICc3LjAnLCAnLXRuJywgJzgnLCAnLW1hJywgJzIwMCcsICctbWV0YWxfYmluZGluZycsICctaW1hZScsICc8aW5maWxlLm1hZT4nLCAnLW9tYWUnLCAnPG91dGZpbGUubWFlPic=

> <r_lp_tautomer_probability>
1

> <r_epik_Ionization_Penalty>
2.91905e-05

> <r_epik_Ionization_Penalty_Charging>
0

> <r_epik_Ionization_Penalty_Neutral>
2.91905e-05

> <r_epik_State_Penalty>
-0

> <r_epik_Charging_Adjusted_Penalty>
0

> <i_epik_Tot_Q>
0

> <i_epik_Tot_abs_Q>
0

> <r_epik_Metal_State_Penalty>
0.0102923

> <b_epik_Metal_Only>
0

> <s_lp_Force_Field>
OPLS_2005

> <r_lp_Energy>
15.3283

> <b_lp_Chiralities_Consistent>
1

> <s_lp_Variant>
AV-unprocessed.smi:749-1

> <Gold.Version>
5.8.1

> <Gold.Id.Protein>
6NUR|6NUR_protein|mol2

> <Gold.PLP.Fitness>
35.9982

> <Gold.PLP.PLP>
-30.1220

> <Gold.PLP.part.hbond>
-2.0000

> <Gold.PLP.part.metal>
0.0000

> <Gold.PLP.part.buried>
-3.2940

> <Gold.PLP.part.nonpolar>
-25.1012

> <Gold.PLP.part.repulsive>
0.3310

> <Gold.PLP.ligand.clash>
0.0000

> <Gold.PLP.ligand.torsion>
0.0643

> <Gold.PLP.Chemscore.Hbond>
2.0000

> <Gold.PLP.Chemscore.CHOScore>
0.0000

> <Gold.PLP.Chemscore.Metal>
0.0000

> <Gold.Chemscore.Hbonds>
donor molecule, donor type, donor heavy atom, donor atom, acceptor molecule, acceptor atom, score
      P1  H  6896  6907       L1    17  0.68
      P1  H  7997  8009       L1     7  1.00

> <Gold.PLP.Chemscore.Internal.Correction>
0.0048

> <Gold.Rescore>
     Score         DG    S(hbond)    S(metal)    S(lipo)     H(rot)  DE(clash)    DE(int)     intcor
     14.94     -16.49       1.96        0.00      65.16       1.23       0.13       1.41       ----

> <Gold.Chemscore.Fitness>
14.9421

> <Gold.Chemscore.DG>
-16.4884

> <Gold.Chemscore.ZeroCoef>
-5.4800

> <Gold.Chemscore.Hbond>
1.9574

> <Gold.Chemscore.Metal>
0.0000

> <Gold.Chemscore.Lipo>
65.1599

> <Gold.Chemscore.Internal_Hbond>
0.0000

> <Gold.Chemscore.DEClash>
0.1337

> <Gold.Chemscore.DEInternal>
1.4126

> <Gold.Chemscore.Rot>
1.2317

> <Gold.Chemscore.Internal.Correction>
   9.000000E+99

> <Gold.Chemscore.Hbonds>
donor molecule, donor type, donor heavy atom, donor atom, acceptor molecule, acceptor atom, score
      P1  H  6896  6907       L1    17  0.65
      P1  H  7997  8009       L1     7  0.93

> <Gold.Chemscore.Hbond.Weighted>
-6.5377

> <Gold.Chemscore.Metal.Weighted>
-0.0000

> <Gold.Chemscore.Lipo.Weighted>
-7.6237

> <Gold.Chemscore.Internal_Hbond.Weighted>
0.0000

> <Gold.Chemscore.DEClash.Weighted>
0.1337

> <Gold.Chemscore.DEInternal.Weighted>
1.4126

> <Gold.Chemscore.Rot.Weighted>
3.1531

> <Gold.Chemscore.Internal.Correction.Weighted>
   9.000000E+99

> <Gold.Protein.RotatedTorsions>
[ 6907 6896 6895 6894 ] final   55.44 input  -60.11 | X-H torsion
[ 7974 7965 7964 7962 ] final  -50.35 input  175.53 | X-H torsion
[ 8008 7997 7996 7995 ] final   98.14 input   59.86 | X-H torsion
[ 10167 10162 10161 10158 ] final  150.89 input  -65.29 | X-H torsion
[ 10718 10713 10712 10709 ] final  169.91 input   66.30 | X-H torsion
[ 10763 10752 10751 10750 ] final  100.77 input  -60.55 | X-H torsion
[ 11005 11000 10999 10996 ] final   35.25 input  -57.11 | X-H torsion

> <Gold.Protein.ActiveResidues>
 VAL166  LYS551  ARG553  GLY616  TRP617  ASP618  TYR619  PRO620  LYS621  CYS622 
 ASP623  PHE694  ASN695  SER759  ASP760  ASP761  ALA762  ILE779  LEU786  VAL792 
 PHE793  MET794  SER795  GLU796  ALA797  LYS798  CYS799  TRP800  GLU811  SER814 

> <Gold.Protein.RotatedAtoms>
  152.3539  134.6967  160.0227 H   0  0  0  0  0  0  0  0  0  0  0  0  # atno 6907 bound_to 6896
  151.7312  133.3312  159.3349 H   0  0  0  0  0  0  0  0  0  0  0  0  # atno 6908 bound_to 6896
  150.7558  134.6295  159.6223 H   0  0  0  0  0  0  0  0  0  0  0  0  # atno 6909 bound_to 6896
  145.9308  140.7751  142.9600 H   0  0  0  0  0  0  0  0  0  0  0  0  # atno 7974 bound_to 7965
  156.0973  140.3248  155.7895 H   0  0  0  0  0  0  0  0  0  0  0  0  # atno 8008 bound_to 7997
  155.4896  140.0560  157.2973 H   0  0  0  0  0  0  0  0  0  0  0  0  # atno 8009 bound_to 7997
  154.4675  140.1996  156.0096 H   0  0  0  0  0  0  0  0  0  0  0  0  # atno 8010 bound_to 7997
  139.4845  144.5485  151.7442 H   0  0  0  0  0  0  0  0  0  0  0  0  # atno 10167 bound_to 10162
  157.0158  131.0217  151.2789 H   0  0  0  0  0  0  0  0  0  0  0  0  # atno 10718 bound_to 10713
  153.3182  135.4067  155.1394 H   0  0  0  0  0  0  0  0  0  0  0  0  # atno 10763 bound_to 10752
  154.8593  135.3581  154.5632 H   0  0  0  0  0  0  0  0  0  0  0  0  # atno 10764 bound_to 10752
  153.6064  135.7069  153.5423 H   0  0  0  0  0  0  0  0  0  0  0  0  # atno 10765 bound_to 10752
  140.2446  134.3375  155.7913 H   0  0  0  0  0  0  0  0  0  0  0  0  # atno 11005 bound_to 11000
  144.6764  140.2124  143.7375 LP  0  0  0  0  0  0  0  0  0  0  0  0  # atno 17320 bound_to 7965
  145.8428  139.2138  143.1817 LP  0  0  0  0  0  0  0  0  0  0  0  0  # atno 17321 bound_to 7965
  140.5035  144.1132  150.5977 LP  0  0  0  0  0  0  0  0  0  0  0  0  # atno 17342 bound_to 10162
  140.4034  143.2692  151.9920 LP  0  0  0  0  0  0  0  0  0  0  0  0  # atno 17343 bound_to 10162
  157.5286  130.8044  149.7891 LP  0  0  0  0  0  0  0  0  0  0  0  0  # atno 17370 bound_to 10713
  156.0120  130.3829  150.2235 LP  0  0  0  0  0  0  0  0  0  0  0  0  # atno 17371 bound_to 10713
  141.2207  133.7318  156.8939 LP  0  0  0  0  0  0  0  0  0  0  0  0  # atno 17394 bound_to 11000
  140.1619  134.9159  157.2725 LP  0  0  0  0  0  0  0  0  0  0  0  0  # atno 17395 bound_to 11000

$$$$
