AV-unprocessed.smi:2482|AV-procd|sdf|9783|dock8
  -GOLD-   2272013423D 1   1.00000     0.00000
 Structure written by MMmdl.
 34 35  0  0  0  0  0  0  0  0  3 V2000
  152.2563  144.2524  160.7647 C   0  0  0  0  0  0  0  0  0  0  0  0
  152.7144  142.8295  160.5034 C   0  0  0  0  0  0  0  0  0  0  0  0
  153.3901  142.2409  161.5135 N   0  0  0  0  0  0  0  0  0  0  0  0
  153.8221  140.9780  161.3278 C   0  0  0  0  0  0  0  0  0  0  0  0
  153.6006  140.2520  160.1424 C   0  0  0  0  0  0  0  0  0  0  0  0
  152.8880  140.8519  159.0802 C   0  0  0  0  0  0  0  0  0  0  0  0
  152.6744  140.1732  157.9408 N   0  5  0  0  0  0  0  0  0  0  0  0
  151.4211  140.0792  157.4342 C   0  0  0  0  0  0  0  0  0  0  0  0
  150.4014  139.6586  157.9850 O   0  0  0  0  0  0  0  0  0  0  0  0
  151.3607  140.5887  155.9766 C   0  0  2  0  0  0  0  0  0  0  0  0
  149.9697  140.4625  155.3110 C   0  0  0  0  0  0  0  0  0  0  0  0
  149.6331  139.0442  155.0420 N   0  3  1  0  0  0  0  0  0  0  0  0
  148.2814  138.8766  154.4683 C   0  0  0  0  0  0  0  0  0  0  0  0
  150.6868  138.3981  154.2275 C   0  0  0  0  0  0  0  0  0  0  0  0
  152.0553  138.5432  154.9128 C   0  0  0  0  0  0  0  0  0  0  0  0
  152.3265  139.9234  155.1531 O   0  0  0  0  0  0  0  0  0  0  0  0
  152.4402  142.1848  159.2735 C   0  0  0  0  0  0  0  0  0  0  0  0
  151.5695  143.0193  158.0277 Cl  0  0  0  0  0  0  0  0  0  0  0  0
  151.1698  144.3181  160.7028 H   0  0  0  0  0  0  0  0  0  0  0  0
  152.6862  144.9300  160.0267 H   0  0  0  0  0  0  0  0  0  0  0  0
  152.5590  144.5965  161.7544 H   0  0  0  0  0  0  0  0  0  0  0  0
  154.3624  140.5309  162.1489 H   0  0  0  0  0  0  0  0  0  0  0  0
  153.9735  139.2421  160.0527 H   0  0  0  0  0  0  0  0  0  0  0  0
  151.6270  141.6466  155.9985 H   0  0  0  0  0  0  0  0  0  0  0  0
  149.2029  140.9122  155.9439 H   0  0  0  0  0  0  0  0  0  0  0  0
  149.9617  141.0189  154.3724 H   0  0  0  0  0  0  0  0  0  0  0  0
  148.2057  139.3633  153.4951 H   0  0  0  0  0  0  0  0  0  0  0  0
  147.5286  139.3090  155.1282 H   0  0  0  0  0  0  0  0  0  0  0  0
  148.0461  137.8195  154.3426 H   0  0  0  0  0  0  0  0  0  0  0  0
  150.4523  137.3419  154.0893 H   0  0  0  0  0  0  0  0  0  0  0  0
  150.7151  138.8540  153.2365 H   0  0  0  0  0  0  0  0  0  0  0  0
  152.0914  137.9665  155.8379 H   0  0  0  0  0  0  0  0  0  0  0  0
  152.8382  138.1423  154.2690 H   0  0  0  0  0  0  0  0  0  0  0  0
  149.6302  138.5770  155.9382 H   0  0  0  0  0  0  0  0  0  0  0  0
  1  2  1  0  0  0  0
  1 19  1  0  0  0  0
  1 20  1  0  0  0  0
  1 21  1  0  0  0  0
  2 17  1  0  0  0  0
  2  3  2  0  0  0  0
  3  4  1  0  0  0  0
  4  5  2  0  0  0  0
  4 22  1  0  0  0  0
  5  6  1  0  0  0  0
  5 23  1  0  0  0  0
  6  7  1  0  0  0  0
  6 17  2  0  0  0  0
  7  8  1  0  0  0  0
  8  9  2  0  0  0  0
  8 10  1  0  0  0  0
 10 16  1  0  0  0  0
 10 11  1  0  0  0  0
 10 24  1  0  0  0  0
 11 12  1  0  0  0  0
 11 25  1  0  0  0  0
 11 26  1  0  0  0  0
 12 13  1  0  0  0  0
 12 14  1  0  0  0  0
 12 34  1  0  0  0  0
 13 27  1  0  0  0  0
 13 28  1  0  0  0  0
 13 29  1  0  0  0  0
 14 15  1  0  0  0  0
 14 30  1  0  0  0  0
 14 31  1  0  0  0  0
 15 16  1  0  0  0  0
 15 32  1  0  0  0  0
 15 33  1  0  0  0  0
 17 18  1  0  0  0  0
M  CHG  1   7  -1
M  CHG  1  12   1
M  END
> <s_m_source_file>
AV-unprocessed.smi

> <i_m_source_file_index>
2482

> <i_lp_mmshare_version>
43012

> <i_f3d_flags>
0

> <s_epik_input>
W0NIM11jMW5bY0hdW2NIXWMoYzFDbClbTkhdQyg9TylbQ0BASF0yW0NIMl1OKFtDSDNdKVtDSDJdW0NIMl1PMg==

> <s_epik_cmdline>
J2VwaWtfcHl0aG9uJywgJy1waCcsICc3LjAnLCAnLXRuJywgJzgnLCAnLW1hJywgJzIwMCcsICctbWV0YWxfYmluZGluZycsICctaW1hZScsICc8aW5maWxlLm1hZT4nLCAnLW9tYWUnLCAnPG91dGZpbGUubWFlPic=

> <r_epik_Ionization_Penalty>
6.9249

> <r_epik_Ionization_Penalty_Charging>
6.74596

> <r_epik_Ionization_Penalty_Neutral>
0.178941

> <r_epik_State_Penalty>
6.78185

> <r_epik_Charging_Adjusted_Penalty>
13.5278

> <i_epik_Tot_Q>
0

> <i_epik_Tot_abs_Q>
2

> <r_epik_Metal_State_Penalty>
2.70608

> <b_epik_Metal_Only>
1

> <s_lp_Force_Field>
OPLS_2005

> <r_lp_Energy>
12.3895

> <b_lp_Chiralities_Consistent>
1

> <s_lp_Variant>
AV-unprocessed.smi:2482-9

> <Gold.Version>
5.8.1

> <Gold.Id.Protein>
6NUR|6NUR_protein|mol2

> <Gold.PLP.Fitness>
44.5420

> <Gold.PLP.PLP>
-39.3973

> <Gold.PLP.part.hbond>
-2.6514

> <Gold.PLP.part.metal>
0.0000

> <Gold.PLP.part.buried>
-4.5977

> <Gold.PLP.part.nonpolar>
-31.4963

> <Gold.PLP.part.repulsive>
0.0877

> <Gold.PLP.ligand.clash>
0.0000

> <Gold.PLP.ligand.torsion>
1.0134

> <Gold.PLP.Chemscore.Hbond>
2.2336

> <Gold.PLP.Chemscore.CHOScore>
0.0000

> <Gold.PLP.Chemscore.Metal>
0.0000

> <Gold.Chemscore.Hbonds>
donor molecule, donor type, donor heavy atom, donor atom, acceptor molecule, acceptor atom, score
      P1  H  7989  7998       L1    16  0.41
      P1  H  7997  8008       L1     7  1.69

> <Gold.PLP.Chemscore.Internal.Correction>
0.4706

> <Gold.Rescore>
     Score         DG    S(hbond)    S(metal)    S(lipo)     H(rot)  DE(clash)    DE(int)     intcor
     17.17     -18.22       0.84        0.00     106.75       1.00       0.03       1.01       ----

> <Gold.Chemscore.Fitness>
17.1730

> <Gold.Chemscore.DG>
-18.2201

> <Gold.Chemscore.ZeroCoef>
-5.4800

> <Gold.Chemscore.Hbond>
0.8414

> <Gold.Chemscore.Metal>
0.0000

> <Gold.Chemscore.Lipo>
106.7524

> <Gold.Chemscore.Internal_Hbond>
0.0000

> <Gold.Chemscore.DEClash>
0.0323

> <Gold.Chemscore.DEInternal>
1.0149

> <Gold.Chemscore.Rot>
1.0000

> <Gold.Chemscore.Internal.Correction>
   9.000000E+99

> <Gold.Chemscore.Hbonds>
donor molecule, donor type, donor heavy atom, donor atom, acceptor molecule, acceptor atom, score
      P1  H  7989  7998       L1    16  0.01
      P1  H  7997  8008       L1     7  0.55

> <Gold.Chemscore.Hbond.Weighted>
-2.8101

> <Gold.Chemscore.Metal.Weighted>
-0.0000

> <Gold.Chemscore.Lipo.Weighted>
-12.4900

> <Gold.Chemscore.Internal_Hbond.Weighted>
0.0000

> <Gold.Chemscore.DEClash.Weighted>
0.0323

> <Gold.Chemscore.DEInternal.Weighted>
1.0149

> <Gold.Chemscore.Rot.Weighted>
2.5600

> <Gold.Chemscore.Internal.Correction.Weighted>
   9.000000E+99

> <Gold.Protein.RotatedTorsions>
[ 6907 6896 6895 6894 ] final -174.16 input  -60.11 | X-H torsion
[ 7974 7965 7964 7962 ] final  104.34 input  175.53 | X-H torsion
[ 8008 7997 7996 7995 ] final  -73.65 input   59.86 | X-H torsion
[ 10167 10162 10161 10158 ] final  120.39 input  -65.29 | X-H torsion
[ 10718 10713 10712 10709 ] final -116.01 input   66.30 | X-H torsion
[ 10763 10752 10751 10750 ] final  -95.43 input  -60.55 | X-H torsion
[ 11005 11000 10999 10996 ] final  -30.43 input  -57.11 | X-H torsion

> <Gold.Protein.ActiveResidues>
 VAL166  LYS551  ARG553  GLY616  TRP617  ASP618  TYR619  PRO620  LYS621  CYS622 
 ASP623  PHE694  ASN695  SER759  ASP760  ASP761  ALA762  ILE779  LEU786  VAL792 
 PHE793  MET794  SER795  GLU796  ALA797  LYS798  CYS799  TRP800  GLU811  SER814 

> <Gold.Protein.RotatedAtoms>
  151.5679  133.3394  159.2983 H   0  0  0  0  0  0  0  0  0  0  0  0  # atno 6907 bound_to 6896
  150.8384  134.7670  159.6923 H   0  0  0  0  0  0  0  0  0  0  0  0  # atno 6908 bound_to 6896
  152.4456  134.5507  159.9917 H   0  0  0  0  0  0  0  0  0  0  0  0  # atno 6909 bound_to 6896
  145.3340  139.2479  143.3645 H   0  0  0  0  0  0  0  0  0  0  0  0  # atno 7974 bound_to 7965
  154.5264  140.0775  156.8267 H   0  0  0  0  0  0  0  0  0  0  0  0  # atno 8008 bound_to 7997
  155.3466  140.3410  155.4221 H   0  0  0  0  0  0  0  0  0  0  0  0  # atno 8009 bound_to 7997
  156.1736  140.1628  156.8389 H   0  0  0  0  0  0  0  0  0  0  0  0  # atno 8010 bound_to 7997
  139.5985  144.7049  151.3118 H   0  0  0  0  0  0  0  0  0  0  0  0  # atno 10167 bound_to 10162
  156.0934  130.6112  150.8980 H   0  0  0  0  0  0  0  0  0  0  0  0  # atno 10718 bound_to 10713
  154.7148  135.5121  153.8721 H   0  0  0  0  0  0  0  0  0  0  0  0  # atno 10763 bound_to 10752
  153.0811  135.6631  154.0053 H   0  0  0  0  0  0  0  0  0  0  0  0  # atno 10764 bound_to 10752
  153.9887  135.3022  155.3393 H   0  0  0  0  0  0  0  0  0  0  0  0  # atno 10765 bound_to 10752
  140.9382  133.7295  156.1037 H   0  0  0  0  0  0  0  0  0  0  0  0  # atno 11005 bound_to 11000
  146.3034  140.3924  142.8696 LP  0  0  0  0  0  0  0  0  0  0  0  0  # atno 17320 bound_to 7965
  144.8841  140.7439  143.5968 LP  0  0  0  0  0  0  0  0  0  0  0  0  # atno 17321 bound_to 7965
  140.7231  143.7080  150.7792 LP  0  0  0  0  0  0  0  0  0  0  0  0  # atno 17342 bound_to 10162
  140.0651  143.5116  152.2608 LP  0  0  0  0  0  0  0  0  0  0  0  0  # atno 17343 bound_to 10162
  157.6089  131.0937  150.8830 LP  0  0  0  0  0  0  0  0  0  0  0  0  # atno 17370 bound_to 10713
  156.8973  130.5234  149.5284 LP  0  0  0  0  0  0  0  0  0  0  0  0  # atno 17371 bound_to 10713
  140.7770  134.3768  157.5495 LP  0  0  0  0  0  0  0  0  0  0  0  0  # atno 17394 bound_to 11000
  139.8813  134.9058  156.2907 LP  0  0  0  0  0  0  0  0  0  0  0  0  # atno 17395 bound_to 11000

$$$$
