AV-unprocessed.smi:102|AV-procd|sdf|949|dock1
  -GOLD-   2262017473D 1   1.00000     0.00000
 Structure written by MMmdl.
 44 45  0  0  0  0  0  0  0  0  1 V2000
  149.5091  141.0422  154.9762 C   0  0  0  0  0  0  0  0  0  0  0  0
  150.3429  139.7700  154.8919 C   0  0  0  0  0  0  0  0  0  0  0  0
  151.5612  139.8114  154.7191 O   0  0  0  0  0  0  0  0  0  0  0  0
  149.6031  138.6591  155.0271 O   0  0  0  0  0  0  0  0  0  0  0  0
  150.2376  137.3911  155.0305 C   0  0  0  0  0  0  0  0  0  0  0  0
  149.1718  136.2936  155.1043 C   0  0  2  0  0  0  0  0  0  0  0  0
  147.9128  136.8542  155.4487 O   0  0  0  0  0  0  0  0  0  0  0  0
  147.1000  135.8442  155.9520 C   0  0  1  0  0  0  0  0  0  0  0  0
  146.3057  135.2556  154.7947 N   0  0  0  0  0  0  0  0  0  0  0  0
  146.2979  135.8192  153.5213 C   0  0  0  0  0  0  0  0  0  0  0  0
  145.5331  135.3511  152.5070 C   0  0  0  0  0  0  0  0  0  0  0  0
  145.5822  135.9539  151.3069 F   0  0  0  0  0  0  0  0  0  0  0  0
  144.6365  134.2187  152.7109 C   0  0  0  0  0  0  0  0  0  0  0  0
  143.9163  133.7150  151.8515 O   0  0  0  0  0  0  0  0  0  0  0  0
  144.6296  133.7204  154.0154 N   0  0  0  0  0  0  0  0  0  0  0  0
  145.4032  134.2019  155.0727 C   0  0  0  0  0  0  0  0  0  0  0  0
  145.2796  133.7038  156.1909 O   0  0  0  0  0  0  0  0  0  0  0  0
  148.0244  134.8288  156.6527 C   0  0  2  0  0  0  0  0  0  0  0  0
  147.9039  134.9226  158.0666 O   0  0  0  0  0  0  0  0  0  0  0  0
  148.2290  136.0639  158.6984 C   0  0  0  0  0  0  0  0  0  0  0  0
  148.0964  135.9503  160.2112 C   0  0  0  0  0  0  0  0  0  0  0  0
  148.6034  137.1067  158.1621 O   0  0  0  0  0  0  0  0  0  0  0  0
  149.4224  135.2813  156.2284 C   0  0  1  0  0  0  0  0  0  0  0  0
  150.1843  134.1822  155.7462 O   0  0  0  0  0  0  0  0  0  0  0  0
  150.3744  133.0994  156.5212 C   0  0  0  0  0  0  0  0  0  0  0  0
  151.2304  132.0389  155.8416 C   0  0  0  0  0  0  0  0  0  0  0  0
  149.9240  132.9313  157.6545 O   0  0  0  0  0  0  0  0  0  0  0  0
  144.0024  132.9541  154.2131 H   0  0  0  0  0  0  0  0  0  0  0  0
  148.4582  140.8309  154.7769 H   0  0  0  0  0  0  0  0  0  0  0  0
  149.8573  141.7722  154.2452 H   0  0  0  0  0  0  0  0  0  0  0  0
  149.5915  141.4813  155.9703 H   0  0  0  0  0  0  0  0  0  0  0  0
  150.8135  137.2838  154.1102 H   0  0  0  0  0  0  0  0  0  0  0  0
  150.9336  137.3073  155.8665 H   0  0  0  0  0  0  0  0  0  0  0  0
  149.0897  135.7808  154.1447 H   0  0  0  0  0  0  0  0  0  0  0  0
  146.3626  136.2573  156.6425 H   0  0  0  0  0  0  0  0  0  0  0  0
  146.9040  136.6843  153.3023 H   0  0  0  0  0  0  0  0  0  0  0  0
  147.8082  133.8104  156.3317 H   0  0  0  0  0  0  0  0  0  0  0  0
  147.2431  135.3251  160.4755 H   0  0  0  0  0  0  0  0  0  0  0  0
  147.9514  136.9352  160.6557 H   0  0  0  0  0  0  0  0  0  0  0  0
  148.9970  135.5077  160.6369 H   0  0  0  0  0  0  0  0  0  0  0  0
  149.9257  135.7844  157.0562 H   0  0  0  0  0  0  0  0  0  0  0  0
  151.9519  132.5006  155.1671 H   0  0  0  0  0  0  0  0  0  0  0  0
  150.6017  131.3603  155.2652 H   0  0  0  0  0  0  0  0  0  0  0  0
  151.7770  131.4577  156.5847 H   0  0  0  0  0  0  0  0  0  0  0  0
  1  2  1  0  0  0  0
  1 29  1  0  0  0  0
  1 30  1  0  0  0  0
  1 31  1  0  0  0  0
  2  3  2  0  0  0  0
  2  4  1  0  0  0  0
  4  5  1  0  0  0  0
  5  6  1  0  0  0  0
  5 32  1  0  0  0  0
  5 33  1  0  0  0  0
  6 23  1  0  0  0  0
  6  7  1  0  0  0  0
  6 34  1  0  0  0  0
  7  8  1  0  0  0  0
  8  9  1  0  0  0  0
  8 18  1  0  0  0  0
  8 35  1  0  0  0  0
  9 16  1  0  0  0  0
  9 10  1  0  0  0  0
 10 11  2  0  0  0  0
 10 36  1  0  0  0  0
 11 12  1  0  0  0  0
 11 13  1  0  0  0  0
 13 14  2  0  0  0  0
 13 15  1  0  0  0  0
 15 28  1  0  0  0  0
 15 16  1  0  0  0  0
 16 17  2  0  0  0  0
 18 19  1  0  0  0  0
 18 23  1  0  0  0  0
 18 37  1  0  0  0  0
 19 20  1  0  0  0  0
 20 21  1  0  0  0  0
 20 22  2  0  0  0  0
 21 38  1  0  0  0  0
 21 39  1  0  0  0  0
 21 40  1  0  0  0  0
 23 24  1  0  0  0  0
 23 41  1  0  0  0  0
 24 25  1  0  0  0  0
 25 26  1  0  0  0  0
 25 27  2  0  0  0  0
 26 42  1  0  0  0  0
 26 43  1  0  0  0  0
 26 44  1  0  0  0  0
M  END
> <s_m_source_file>
AV-unprocessed.smi

> <i_m_source_file_index>
102

> <i_lp_mmshare_version>
43012

> <i_f3d_flags>
0

> <s_epik_input>
W0NIM11DKD1PKU9bQ0gyXVtDQEBIXTFPW0NASF0oW0NAQEhdKE9DKD1PKVtDSDNdKVtDQEhdMU9DKD1PKVtDSDNdKW4yW2NIXWMoRiljKD1PKVtuSF1jMj1P

> <s_epik_cmdline>
J2VwaWtfcHl0aG9uJywgJy1waCcsICc3LjAnLCAnLXRuJywgJzgnLCAnLW1hJywgJzIwMCcsICctbWV0YWxfYmluZGluZycsICctaW1hZScsICc8aW5maWxlLm1hZT4nLCAnLW9tYWUnLCAnPG91dGZpbGUubWFlPic=

> <r_lp_tautomer_probability>
0.999537

> <r_epik_Ionization_Penalty>
0.058267

> <r_epik_Ionization_Penalty_Charging>
0.058267

> <r_epik_Ionization_Penalty_Neutral>
6.57791e-16

> <r_epik_State_Penalty>
0.0503774

> <r_epik_Charging_Adjusted_Penalty>
0.108644

> <i_epik_Tot_Q>
0

> <i_epik_Tot_abs_Q>
0

> <r_epik_Metal_State_Penalty>
2.6644

> <b_epik_Metal_Only>
0

> <s_epik_Chemistry_Notes>
This compound has an ester and may undergo hydrolysis at high or low pH. This compound contains an acetal/aminal-like group ( X-CH(R)-Y where X, Y are N, S, or O) that may be acid/base labile, releasing an aldehyde.

> <s_lp_Force_Field>
OPLS_2005

> <r_lp_Energy>
9.37948

> <b_lp_Chiralities_Consistent>
1

> <s_lp_Variant>
AV-unprocessed.smi:102-5

> <Gold.Version>
5.8.1

> <Gold.Id.Protein>
6NUR|6NUR_protein|mol2

> <Gold.PLP.Fitness>
35.3432

> <Gold.PLP.PLP>
-25.4915

> <Gold.PLP.part.hbond>
-3.0000

> <Gold.PLP.part.metal>
0.0000

> <Gold.PLP.part.buried>
-3.7292

> <Gold.PLP.part.nonpolar>
-19.0968

> <Gold.PLP.part.repulsive>
0.4997

> <Gold.PLP.ligand.clash>
0.0000

> <Gold.PLP.ligand.torsion>
0.8152

> <Gold.PLP.Chemscore.Hbond>
3.0000

> <Gold.PLP.Chemscore.CHOScore>
0.7106

> <Gold.PLP.Chemscore.Metal>
0.0000

> <Gold.Chemscore.Hbonds>
donor molecule, donor type, donor heavy atom, donor atom, acceptor molecule, acceptor atom, score
      L1  H    15    28       P1 10957  1.00
      P1  H  6896  6908       L1    27  1.00
      P1  H  7989  7998       L1     3  1.00
      L1  C    10    36       P1  7948  0.68

> <Gold.PLP.Chemscore.Internal.Correction>
0.3503

> <Gold.Rescore>
     Score         DG    S(hbond)    S(metal)    S(lipo)     H(rot)  DE(clash)    DE(int)     intcor
      0.58      -8.86       2.98        0.00      32.48       4.05       0.00       8.28       ----

> <Gold.Chemscore.Fitness>
0.5809

> <Gold.Chemscore.DG>
-8.8618

> <Gold.Chemscore.ZeroCoef>
-5.4800

> <Gold.Chemscore.Hbond>
2.9804

> <Gold.Chemscore.Metal>
0.0000

> <Gold.Chemscore.Lipo>
32.4821

> <Gold.Chemscore.Internal_Hbond>
0.0000

> <Gold.Chemscore.DEClash>
0.0000

> <Gold.Chemscore.DEInternal>
8.2809

> <Gold.Chemscore.Rot>
4.0520

> <Gold.Chemscore.Internal.Correction>
   9.000000E+99

> <Gold.Chemscore.Hbonds>
donor molecule, donor type, donor heavy atom, donor atom, acceptor molecule, acceptor atom, score
      L1  H    15    28       P1 10957  0.99
      P1  H  6896  6908       L1    27  0.94
      P1  H  7989  7998       L1     3  0.29

> <Gold.Chemscore.Hbond.Weighted>
-9.9546

> <Gold.Chemscore.Metal.Weighted>
-0.0000

> <Gold.Chemscore.Lipo.Weighted>
-3.8004

> <Gold.Chemscore.Internal_Hbond.Weighted>
0.0000

> <Gold.Chemscore.DEClash.Weighted>
0.0000

> <Gold.Chemscore.DEInternal.Weighted>
8.2809

> <Gold.Chemscore.Rot.Weighted>
10.3732

> <Gold.Chemscore.Internal.Correction.Weighted>
   9.000000E+99

> <Gold.Protein.RotatedTorsions>
[ 6907 6896 6895 6894 ] final  116.56 input  -60.11 | X-H torsion
[ 7974 7965 7964 7962 ] final  -36.90 input  175.53 | X-H torsion
[ 8008 7997 7996 7995 ] final   -0.94 input   59.86 | X-H torsion
[ 10167 10162 10161 10158 ] final  -60.09 input  -65.29 | X-H torsion
[ 10718 10713 10712 10709 ] final  114.10 input   66.30 | X-H torsion
[ 10763 10752 10751 10750 ] final  -60.53 input  -60.55 | X-H torsion
[ 11005 11000 10999 10996 ] final  -72.43 input  -57.11 | X-H torsion

> <Gold.Protein.ActiveResidues>
 VAL166  LYS551  ARG553  GLY616  TRP617  ASP618  TYR619  PRO620  LYS621  CYS622 
 ASP623  PHE694  ASN695  SER759  ASP760  ASP761  ALA762  ILE779  LEU786  VAL792 
 PHE793  MET794  SER795  GLU796  ALA797  LYS798  CYS799  TRP800  GLU811  SER814 

> <Gold.Protein.RotatedAtoms>
  152.4670  133.7944  159.6919 H   0  0  0  0  0  0  0  0  0  0  0  0  # atno 6907 bound_to 6896
  150.8639  133.7593  159.2989 H   0  0  0  0  0  0  0  0  0  0  0  0  # atno 6908 bound_to 6896
  151.5150  135.1069  159.9916 H   0  0  0  0  0  0  0  0  0  0  0  0  # atno 6909 bound_to 6896
  146.0621  140.6333  142.8992 H   0  0  0  0  0  0  0  0  0  0  0  0  # atno 7974 bound_to 7965
  154.6524  140.2572  155.7199 H   0  0  0  0  0  0  0  0  0  0  0  0  # atno 8008 bound_to 7997
  156.2581  140.2865  156.0884 H   0  0  0  0  0  0  0  0  0  0  0  0  # atno 8009 bound_to 7997
  155.1431  140.0380  157.2793 H   0  0  0  0  0  0  0  0  0  0  0  0  # atno 8010 bound_to 7997
  140.6094  143.2382  151.5746 H   0  0  0  0  0  0  0  0  0  0  0  0  # atno 10167 bound_to 10162
  157.6300  131.0993  150.7137 H   0  0  0  0  0  0  0  0  0  0  0  0  # atno 10718 bound_to 10713
  154.2706  135.6291  153.5308 H   0  0  0  0  0  0  0  0  0  0  0  0  # atno 10763 bound_to 10752
  152.9881  135.5609  154.5604 H   0  0  0  0  0  0  0  0  0  0  0  0  # atno 10764 bound_to 10752
  154.5173  135.2880  155.1267 H   0  0  0  0  0  0  0  0  0  0  0  0  # atno 10765 bound_to 10752
  141.1608  133.6847  156.7058 H   0  0  0  0  0  0  0  0  0  0  0  0  # atno 11005 bound_to 11000
  144.7181  140.4279  143.7029 LP  0  0  0  0  0  0  0  0  0  0  0  0  # atno 17320 bound_to 7965
  145.6542  139.1570  143.2845 LP  0  0  0  0  0  0  0  0  0  0  0  0  # atno 17321 bound_to 7965
  139.5349  144.2809  152.1230 LP  0  0  0  0  0  0  0  0  0  0  0  0  # atno 17342 bound_to 10162
  140.2005  144.4662  150.6434 LP  0  0  0  0  0  0  0  0  0  0  0  0  # atno 17343 bound_to 10162
  156.7478  130.4759  149.5463 LP  0  0  0  0  0  0  0  0  0  0  0  0  # atno 17370 bound_to 10713
  156.1498  130.6302  151.0580 LP  0  0  0  0  0  0  0  0  0  0  0  0  # atno 17371 bound_to 10713
  140.2924  134.8230  157.4028 LP  0  0  0  0  0  0  0  0  0  0  0  0  # atno 17394 bound_to 11000
  140.1335  134.5065  155.8087 LP  0  0  0  0  0  0  0  0  0  0  0  0  # atno 17395 bound_to 11000

$$$$
