AV-unprocessed.smi:2695|AV-procd|sdf|10411|dock10
  -GOLD-   2272014443D 1   1.00000     0.00000
 Structure written by MMmdl.
 42 43  0  0  0  0  0  0  0  0  1 V2000
  151.6644  145.0557  159.3725 C   0  0  0  0  0  0  0  0  0  0  0  0
  152.0261  143.5807  159.4966 C   0  0  0  0  0  0  0  0  0  0  0  0
  153.0203  143.2090  160.3362 C   0  0  0  0  0  0  0  0  0  0  0  0
  153.4224  141.7965  160.4537 C   0  0  0  0  0  0  0  0  0  0  0  0
  154.3010  141.4298  161.2312 O   0  0  0  0  0  0  0  0  0  0  0  0
  152.7125  140.8536  159.5781 C   0  0  0  0  0  0  0  0  0  0  0  0
  151.7332  141.3147  158.7765 C   0  0  0  0  0  0  0  0  0  0  0  0
  151.0716  140.4973  157.9430 O   0  0  0  0  0  0  0  0  0  0  0  0
  151.3071  142.6560  158.7064 N   0  0  0  0  0  0  0  0  0  0  0  0
  150.1679  143.0648  157.8643 C   0  0  0  0  0  0  0  0  0  0  0  0
  148.8125  142.5681  158.3868 C   0  0  0  0  0  0  0  0  0  0  0  0
  148.4906  141.3828  158.2925 O   0  0  0  0  0  0  0  0  0  0  0  0
  148.0228  143.5061  158.9318 N   0  0  0  0  0  0  0  0  0  0  0  0
  146.6978  143.2870  159.5154 C   0  0  2  0  0  0  0  0  0  0  0  0
  145.6044  143.6996  158.4952 C   0  0  0  0  0  0  0  0  0  0  0  0
  144.1680  143.3542  158.9067 C   0  0  0  0  0  0  0  0  0  0  0  0
  143.3517  143.3724  157.6096 C   0  0  0  0  0  0  0  0  0  0  0  0
  144.3561  143.1819  156.4649 C   0  0  0  0  0  0  0  0  0  0  0  0
  145.7286  143.0197  157.1244 C   0  0  0  0  0  0  0  0  0  0  0  0
  146.6209  144.0458  160.8603 C   0  0  0  0  0  0  0  0  0  0  0  0
  146.3351  145.3297  160.6378 F   0  0  0  0  0  0  0  0  0  0  0  0
  145.6713  143.5260  161.6391 F   0  0  0  0  0  0  0  0  0  0  0  0
  147.7851  143.9972  161.5062 F   0  0  0  0  0  0  0  0  0  0  0  0
  152.4503  145.6854  159.7909 H   0  0  0  0  0  0  0  0  0  0  0  0
  150.7444  145.2693  159.9170 H   0  0  0  0  0  0  0  0  0  0  0  0
  151.5396  145.3586  158.3331 H   0  0  0  0  0  0  0  0  0  0  0  0
  153.5533  143.9391  160.9283 H   0  0  0  0  0  0  0  0  0  0  0  0
  152.9980  139.8115  159.5883 H   0  0  0  0  0  0  0  0  0  0  0  0
  150.1298  144.1506  157.7683 H   0  0  0  0  0  0  0  0  0  0  0  0
  150.2961  142.7229  156.8378 H   0  0  0  0  0  0  0  0  0  0  0  0
  148.3730  144.4526  158.9625 H   0  0  0  0  0  0  0  0  0  0  0  0
  146.5702  142.2262  159.7381 H   0  0  0  0  0  0  0  0  0  0  0  0
  145.6582  144.7780  158.3362 H   0  0  0  0  0  0  0  0  0  0  0  0
  144.1364  142.3536  159.3402 H   0  0  0  0  0  0  0  0  0  0  0  0
  143.7652  144.0474  159.6455 H   0  0  0  0  0  0  0  0  0  0  0  0
  142.5863  142.5956  157.6135 H   0  0  0  0  0  0  0  0  0  0  0  0
  142.8423  144.3303  157.4981 H   0  0  0  0  0  0  0  0  0  0  0  0
  144.1088  142.3220  155.8417 H   0  0  0  0  0  0  0  0  0  0  0  0
  144.3517  144.0628  155.8217 H   0  0  0  0  0  0  0  0  0  0  0  0
  146.5283  143.4424  156.5152 H   0  0  0  0  0  0  0  0  0  0  0  0
  145.9429  141.9581  157.2563 H   0  0  0  0  0  0  0  0  0  0  0  0
  151.4511  140.5997  157.0836 H   0  0  0  0  0  0  0  0  0  0  0  0
  1  2  1  0  0  0  0
  1 24  1  0  0  0  0
  1 25  1  0  0  0  0
  1 26  1  0  0  0  0
  2  9  1  0  0  0  0
  2  3  2  0  0  0  0
  3  4  1  0  0  0  0
  3 27  1  0  0  0  0
  4  5  2  0  0  0  0
  4  6  1  0  0  0  0
  6  7  2  0  0  0  0
  6 28  1  0  0  0  0
  7  8  1  0  0  0  0
  7  9  1  0  0  0  0
  8 42  1  0  0  0  0
  9 10  1  0  0  0  0
 10 11  1  0  0  0  0
 10 29  1  0  0  0  0
 10 30  1  0  0  0  0
 11 12  2  0  0  0  0
 11 13  1  0  0  0  0
 13 14  1  0  0  0  0
 13 31  1  0  0  0  0
 14 15  1  0  0  0  0
 14 20  1  0  0  0  0
 14 32  1  0  0  0  0
 15 19  1  0  0  0  0
 15 16  1  0  0  0  0
 15 33  1  0  0  0  0
 16 17  1  0  0  0  0
 16 34  1  0  0  0  0
 16 35  1  0  0  0  0
 17 18  1  0  0  0  0
 17 36  1  0  0  0  0
 17 37  1  0  0  0  0
 18 19  1  0  0  0  0
 18 38  1  0  0  0  0
 18 39  1  0  0  0  0
 19 40  1  0  0  0  0
 19 41  1  0  0  0  0
 20 21  1  0  0  0  0
 20 22  1  0  0  0  0
 20 23  1  0  0  0  0
M  END
> <s_m_source_file>
AV-unprocessed.smi

> <i_m_source_file_index>
2695

> <i_lp_mmshare_version>
43012

> <i_f3d_flags>
0

> <s_epik_input>
W0NIM11jMVtjSF1jKFtPSF0pW2NIXWMoPU8pbjFbQ0gyXUMoPU8pW05IXVtDQEBIXShDKEYpKEYpRilbQ0hdMltDSDJdW0NIMl1bQ0gyXVtDSDJdMg==

> <s_epik_cmdline>
J2VwaWtfcHl0aG9uJywgJy1waCcsICc3LjAnLCAnLXRuJywgJzgnLCAnLW1hJywgJzIwMCcsICctbWV0YWxfYmluZGluZycsICctaW1hZScsICc8aW5maWxlLm1hZT4nLCAnLW9tYWUnLCAnPG91dGZpbGUubWFlPic=

> <r_epik_Ionization_Penalty>
1.35977e-07

> <r_epik_Ionization_Penalty_Charging>
0

> <r_epik_Ionization_Penalty_Neutral>
1.35977e-07

> <r_epik_State_Penalty>
2.53185

> <r_epik_Charging_Adjusted_Penalty>
2.53185

> <i_epik_Tot_Q>
0

> <i_epik_Tot_abs_Q>
0

> <r_epik_Metal_State_Penalty>
2.53184

> <b_epik_Metal_Only>
0

> <s_lp_Force_Field>
OPLS_2005

> <r_lp_Energy>
25.5635

> <b_lp_Chiralities_Consistent>
1

> <s_lp_Variant>
AV-unprocessed.smi:2695-5

> <Gold.Version>
5.8.1

> <Gold.Id.Protein>
6NUR|6NUR_protein|mol2

> <Gold.PLP.Fitness>
41.8696

> <Gold.PLP.PLP>
-42.5597

> <Gold.PLP.part.hbond>
-3.3472

> <Gold.PLP.part.metal>
0.0000

> <Gold.PLP.part.buried>
-3.0634

> <Gold.PLP.part.nonpolar>
-35.8596

> <Gold.PLP.part.repulsive>
0.1556

> <Gold.PLP.ligand.clash>
0.0000

> <Gold.PLP.ligand.torsion>
1.1254

> <Gold.PLP.Chemscore.Hbond>
0.4320

> <Gold.PLP.Chemscore.CHOScore>
0.0000

> <Gold.PLP.Chemscore.Metal>
0.0000

> <Gold.Chemscore.Hbonds>
donor molecule, donor type, donor heavy atom, donor atom, acceptor molecule, acceptor atom, score
      L1  H    13    31       P1  8029  0.14

> <Gold.PLP.Chemscore.Internal.Correction>
0.2648

> <Gold.Rescore>
     Score         DG    S(hbond)    S(metal)    S(lipo)     H(rot)  DE(clash)    DE(int)     intcor
      6.13      -8.77       0.60        0.00      64.57       2.45       0.26       2.37       ----

> <Gold.Chemscore.Fitness>
6.1315

> <Gold.Chemscore.DG>
-8.7675

> <Gold.Chemscore.ZeroCoef>
-5.4800

> <Gold.Chemscore.Hbond>
0.6014

> <Gold.Chemscore.Metal>
0.0000

> <Gold.Chemscore.Lipo>
64.5654

> <Gold.Chemscore.Internal_Hbond>
0.0000

> <Gold.Chemscore.DEClash>
0.2614

> <Gold.Chemscore.DEInternal>
2.3746

> <Gold.Chemscore.Rot>
2.4512

> <Gold.Chemscore.Internal.Correction>
   9.000000E+99

> <Gold.Chemscore.Hbonds>
donor molecule, donor type, donor heavy atom, donor atom, acceptor molecule, acceptor atom, score
      L1  H    13    31       P1  8029  0.14

> <Gold.Chemscore.Hbond.Weighted>
-2.0085

> <Gold.Chemscore.Metal.Weighted>
-0.0000

> <Gold.Chemscore.Lipo.Weighted>
-7.5542

> <Gold.Chemscore.Internal_Hbond.Weighted>
0.0000

> <Gold.Chemscore.DEClash.Weighted>
0.2614

> <Gold.Chemscore.DEInternal.Weighted>
2.3746

> <Gold.Chemscore.Rot.Weighted>
6.2752

> <Gold.Chemscore.Internal.Correction.Weighted>
   9.000000E+99

> <Gold.Protein.RotatedTorsions>
[ 6907 6896 6895 6894 ] final  132.25 input  -60.11 | X-H torsion
[ 7974 7965 7964 7962 ] final  -88.45 input  175.53 | X-H torsion
[ 8008 7997 7996 7995 ] final   18.40 input   59.86 | X-H torsion
[ 10167 10162 10161 10158 ] final  -13.58 input  -65.29 | X-H torsion
[ 10718 10713 10712 10709 ] final   74.49 input   66.30 | X-H torsion
[ 10763 10752 10751 10750 ] final   55.45 input  -60.55 | X-H torsion
[ 11005 11000 10999 10996 ] final  -78.26 input  -57.11 | X-H torsion

> <Gold.Protein.ActiveResidues>
 VAL166  LYS551  ARG553  GLY616  TRP617  ASP618  TYR619  PRO620  LYS621  CYS622 
 ASP623  PHE694  ASN695  SER759  ASP760  ASP761  ALA762  ILE779  LEU786  VAL792 
 PHE793  MET794  SER795  GLU796  ALA797  LYS798  CYS799  TRP800  GLU811  SER814 

> <Gold.Protein.RotatedAtoms>
  152.3344  133.5994  159.5831 H   0  0  0  0  0  0  0  0  0  0  0  0  # atno 6907 bound_to 6896
  150.7441  133.9819  159.3588 H   0  0  0  0  0  0  0  0  0  0  0  0  # atno 6908 bound_to 6896
  151.7690  135.0792  160.0408 H   0  0  0  0  0  0  0  0  0  0  0  0  # atno 6909 bound_to 6896
  145.4530  140.9561  143.2012 H   0  0  0  0  0  0  0  0  0  0  0  0  # atno 7974 bound_to 7965
  154.9054  140.3006  155.5295 H   0  0  0  0  0  0  0  0  0  0  0  0  # atno 8008 bound_to 7997
  156.3017  140.2399  156.4022 H   0  0  0  0  0  0  0  0  0  0  0  0  # atno 8009 bound_to 7997
  154.8479  140.0411  157.1573 H   0  0  0  0  0  0  0  0  0  0  0  0  # atno 8010 bound_to 7997
  140.7185  143.5411  150.9408 H   0  0  0  0  0  0  0  0  0  0  0  0  # atno 10167 bound_to 10162
  157.6594  130.9680  150.1219 H   0  0  0  0  0  0  0  0  0  0  0  0  # atno 10718 bound_to 10713
  152.9817  135.5710  154.5068 H   0  0  0  0  0  0  0  0  0  0  0  0  # atno 10763 bound_to 10752
  154.4579  135.2780  155.1736 H   0  0  0  0  0  0  0  0  0  0  0  0  # atno 10764 bound_to 10752
  154.3336  135.6244  153.5616 H   0  0  0  0  0  0  0  0  0  0  0  0  # atno 10765 bound_to 10752
  141.1664  133.7056  156.7944 H   0  0  0  0  0  0  0  0  0  0  0  0  # atno 11005 bound_to 11000
  144.8050  139.6069  143.7055 LP  0  0  0  0  0  0  0  0  0  0  0  0  # atno 17320 bound_to 7965
  146.2494  139.6167  142.9437 LP  0  0  0  0  0  0  0  0  0  0  0  0  # atno 17321 bound_to 7965
  139.9134  143.6693  152.3111 LP  0  0  0  0  0  0  0  0  0  0  0  0  # atno 17342 bound_to 10162
  139.7084  144.7624  151.1154 LP  0  0  0  0  0  0  0  0  0  0  0  0  # atno 17343 bound_to 10162
  156.2088  130.3665  149.8696 LP  0  0  0  0  0  0  0  0  0  0  0  0  # atno 17370 bound_to 10713
  156.6580  130.8770  151.3542 LP  0  0  0  0  0  0  0  0  0  0  0  0  # atno 17371 bound_to 10713
  140.2301  134.8692  157.3468 LP  0  0  0  0  0  0  0  0  0  0  0  0  # atno 17394 bound_to 11000
  140.1899  134.4384  155.7722 LP  0  0  0  0  0  0  0  0  0  0  0  0  # atno 17395 bound_to 11000

$$$$
