AV-unprocessed.smi:276|AV-procd|sdf|2085|dock9
  -GOLD-   2262021363D 1   1.00000     0.00000
 Structure written by MMmdl.
 57 61  0  0  0  0  0  0  0  0  1 V2000
  153.3146  140.7866  160.5567 C   0  0  0  0  0  0  0  0  0  0  0  0
  152.7838  141.9575  159.9619 O   0  0  0  0  0  0  0  0  0  0  0  0
  152.2732  141.7248  158.6587 C   0  0  1  0  0  0  0  0  0  0  0  0
  151.0394  140.8156  158.6117 C   0  0  0  0  0  0  0  0  0  0  0  0
  150.4322  141.7630  157.5582 C   0  0  2  0  0  0  0  0  0  0  0  0
  150.7333  141.3151  156.1911 N   0  0  0  0  0  0  0  0  0  0  0  0
  151.7720  140.2975  156.0614 C   0  0  0  0  0  0  0  0  0  0  0  0
  149.6693  140.9893  155.4234 C   0  0  0  0  0  0  0  0  0  0  0  0
  149.0954  141.9922  154.7129 N   0  0  0  0  0  0  0  0  0  0  0  0
  148.0341  141.7424  153.9403 C   0  0  0  0  0  0  0  0  0  0  0  0
  147.4044  140.5836  153.7351 N   0  0  0  0  0  0  0  0  0  0  0  0
  147.9895  139.5711  154.4365 C   0  0  0  0  0  0  0  0  0  0  0  0
  149.1201  139.6808  155.2941 C   0  0  0  0  0  0  0  0  0  0  0  0
  149.4309  138.4341  155.8254 N   0  0  0  0  0  0  0  0  0  0  0  0
  148.5307  137.6365  155.3186 C   0  0  0  0  0  0  0  0  0  0  0  0
  147.6258  138.2375  154.4741 N   0  0  0  0  0  0  0  0  0  0  0  0
  146.5268  137.5987  153.7732 C   0  0  0  0  0  0  0  0  0  0  0  0
  146.1864  138.3074  152.4484 C   0  0  1  0  0  0  0  0  0  0  0  0
  147.3441  138.4473  151.6466 O   0  0  0  0  0  0  0  0  0  0  0  0
  145.0658  137.5963  151.6635 C   0  0  1  0  0  0  0  0  0  0  0  0
  145.3712  136.1809  151.1668 C   0  0  0  0  0  0  0  0  0  0  0  0
  143.9756  135.6262  150.9896 C   0  0  0  0  0  0  0  0  0  0  0  0
  143.2408  136.2386  152.1800 C   0  0  0  0  0  0  0  0  0  0  0  0
  143.8621  137.4987  152.4210 O   0  0  0  0  0  0  0  0  0  0  0  0
  151.3746  142.8571  158.1294 C   0  0  0  0  0  0  0  0  0  0  0  0
  150.8093  143.9069  159.1037 C   0  0  0  0  0  0  0  0  0  0  0  0
  151.9089  144.8601  158.6278 C   0  0  0  0  0  0  0  0  0  0  0  0
  151.9703  144.0376  157.3384 C   0  0  0  0  0  0  0  0  0  0  0  0
  153.6964  141.0220  161.5500 H   0  0  0  0  0  0  0  0  0  0  0  0
  154.1381  140.3844  159.9657 H   0  0  0  0  0  0  0  0  0  0  0  0
  152.5514  140.0150  160.6647 H   0  0  0  0  0  0  0  0  0  0  0  0
  153.0386  141.4412  157.9330 H   0  0  0  0  0  0  0  0  0  0  0  0
  151.2478  139.7954  158.2906 H   0  0  0  0  0  0  0  0  0  0  0  0
  150.4780  140.8238  159.5475 H   0  0  0  0  0  0  0  0  0  0  0  0
  149.3753  141.9545  157.7428 H   0  0  0  0  0  0  0  0  0  0  0  0
  151.7053  139.7507  155.1189 H   0  0  0  0  0  0  0  0  0  0  0  0
  151.7052  139.5744  156.8750 H   0  0  0  0  0  0  0  0  0  0  0  0
  152.7582  140.7594  156.0963 H   0  0  0  0  0  0  0  0  0  0  0  0
  147.6305  142.5934  153.4118 H   0  0  0  0  0  0  0  0  0  0  0  0
  148.5040  136.5806  155.5449 H   0  0  0  0  0  0  0  0  0  0  0  0
  146.7862  136.5538  153.5968 H   0  0  0  0  0  0  0  0  0  0  0  0
  145.6587  137.5972  154.4335 H   0  0  0  0  0  0  0  0  0  0  0  0
  145.8431  139.3176  152.6752 H   0  0  0  0  0  0  0  0  0  0  0  0
  147.8394  137.6439  151.6968 H   0  0  0  0  0  0  0  0  0  0  0  0
  144.8203  138.2059  150.7921 H   0  0  0  0  0  0  0  0  0  0  0  0
  145.9565  136.1702  150.2469 H   0  0  0  0  0  0  0  0  0  0  0  0
  145.9038  135.5957  151.9169 H   0  0  0  0  0  0  0  0  0  0  0  0
  143.5448  135.9878  150.0548 H   0  0  0  0  0  0  0  0  0  0  0  0
  143.9437  134.5364  150.9825 H   0  0  0  0  0  0  0  0  0  0  0  0
  142.1718  136.3494  151.9976 H   0  0  0  0  0  0  0  0  0  0  0  0
  143.3700  135.6164  153.0664 H   0  0  0  0  0  0  0  0  0  0  0  0
  149.8114  144.2468  158.8209 H   0  0  0  0  0  0  0  0  0  0  0  0
  150.8540  143.6437  160.1607 H   0  0  0  0  0  0  0  0  0  0  0  0
  151.5928  145.8954  158.4973 H   0  0  0  0  0  0  0  0  0  0  0  0
  152.8212  144.7843  159.2220 H   0  0  0  0  0  0  0  0  0  0  0  0
  152.9747  143.8709  156.9483 H   0  0  0  0  0  0  0  0  0  0  0  0
  151.3056  144.4482  156.5788 H   0  0  0  0  0  0  0  0  0  0  0  0
  1  2  1  0  0  0  0
  1 29  1  0  0  0  0
  1 30  1  0  0  0  0
  1 31  1  0  0  0  0
  2  3  1  0  0  0  0
  3 25  1  0  0  0  0
  3  4  1  0  0  0  0
  3 32  1  0  0  0  0
  4  5  1  0  0  0  0
  4 33  1  0  0  0  0
  4 34  1  0  0  0  0
  5  6  1  0  0  0  0
  5 25  1  0  0  0  0
  5 35  1  0  0  0  0
  6  7  1  0  0  0  0
  6  8  1  0  0  0  0
  7 36  1  0  0  0  0
  7 37  1  0  0  0  0
  7 38  1  0  0  0  0
  8 13  1  0  0  0  0
  8  9  2  0  0  0  0
  9 10  1  0  0  0  0
 10 11  2  0  0  0  0
 10 39  1  0  0  0  0
 11 12  1  0  0  0  0
 12 16  1  0  0  0  0
 12 13  2  0  0  0  0
 13 14  1  0  0  0  0
 14 15  2  0  0  0  0
 15 16  1  0  0  0  0
 15 40  1  0  0  0  0
 16 17  1  0  0  0  0
 17 18  1  0  0  0  0
 17 41  1  0  0  0  0
 17 42  1  0  0  0  0
 18 19  1  0  0  0  0
 18 20  1  0  0  0  0
 18 43  1  0  0  0  0
 19 44  1  0  0  0  0
 20 24  1  0  0  0  0
 20 21  1  0  0  0  0
 20 45  1  0  0  0  0
 21 22  1  0  0  0  0
 21 46  1  0  0  0  0
 21 47  1  0  0  0  0
 22 23  1  0  0  0  0
 22 48  1  0  0  0  0
 22 49  1  0  0  0  0
 23 24  1  0  0  0  0
 23 50  1  0  0  0  0
 23 51  1  0  0  0  0
 25 28  1  0  0  0  0
 25 26  1  0  0  0  0
 26 27  1  0  0  0  0
 26 52  1  0  0  0  0
 26 53  1  0  0  0  0
 27 28  1  0  0  0  0
 27 54  1  0  0  0  0
 27 55  1  0  0  0  0
 28 56  1  0  0  0  0
 28 57  1  0  0  0  0
M  END
> <s_m_source_file>
AV-unprocessed.smi

> <i_m_source_file_index>
276

> <i_lp_mmshare_version>
43012

> <i_f3d_flags>
0

> <s_epik_input>
W0NIMl0xW0NIMl1bQ0gyXUMxMltDQEhdKE9bQ0gzXSlbQ0gyXVtDQEhdMk4oW0NIM10pYyhuW2NIXW4zKWMoYzM0KW5bY0hdbjRbQ0gyXVtDQEhdKFtPSF0pW0NAQEhdNVtDSDJdW0NIMl1bQ0gyXU81

> <s_epik_cmdline>
J2VwaWtfcHl0aG9uJywgJy1waCcsICc3LjAnLCAnLXRuJywgJzgnLCAnLW1hJywgJzIwMCcsICctbWV0YWxfYmluZGluZycsICctaW1hZScsICc8aW5maWxlLm1hZT4nLCAnLW9tYWUnLCAnPG91dGZpbGUubWFlPic=

> <r_lp_tautomer_probability>
1

> <r_epik_Ionization_Penalty>
0.00204117

> <r_epik_Ionization_Penalty_Charging>
0

> <r_epik_Ionization_Penalty_Neutral>
0.00204117

> <r_epik_State_Penalty>
0.00127401

> <r_epik_Charging_Adjusted_Penalty>
0.00127401

> <i_epik_Tot_Q>
0

> <i_epik_Tot_abs_Q>
0

> <r_epik_Metal_State_Penalty>
-0

> <b_epik_Metal_Only>
0

> <s_lp_Force_Field>
OPLS_2005

> <r_lp_Energy>
58.9981

> <b_lp_Chiralities_Consistent>
1

> <s_lp_Variant>
AV-unprocessed.smi:276-16

> <Gold.Version>
5.8.1

> <Gold.Id.Protein>
6NUR|6NUR_protein|mol2

> <Gold.PLP.Fitness>
44.7606

> <Gold.PLP.PLP>
-46.8902

> <Gold.PLP.part.hbond>
-3.5057

> <Gold.PLP.part.metal>
0.0000

> <Gold.PLP.part.buried>
-7.2329

> <Gold.PLP.part.nonpolar>
-39.3589

> <Gold.PLP.part.repulsive>
2.3485

> <Gold.PLP.ligand.clash>
1.6765

> <Gold.PLP.ligand.torsion>
2.1231

> <Gold.PLP.Chemscore.Hbond>
1.0000

> <Gold.PLP.Chemscore.CHOScore>
0.0000

> <Gold.PLP.Chemscore.Metal>
0.0000

> <Gold.Chemscore.Hbonds>
donor molecule, donor type, donor heavy atom, donor atom, acceptor molecule, acceptor atom, score
      L1  H    19    44       P1  7948  1.00

> <Gold.PLP.Chemscore.Internal.Correction>
0.7931

> <Gold.Rescore>
     Score         DG    S(hbond)    S(metal)    S(lipo)     H(rot)  DE(clash)    DE(int)     intcor
      8.67     -14.79       0.98        0.00     110.96       2.72       0.52       5.59       ----

> <Gold.Chemscore.Fitness>
8.6714

> <Gold.Chemscore.DG>
-14.7894

> <Gold.Chemscore.ZeroCoef>
-5.4800

> <Gold.Chemscore.Hbond>
0.9831

> <Gold.Chemscore.Metal>
0.0000

> <Gold.Chemscore.Lipo>
110.9553

> <Gold.Chemscore.Internal_Hbond>
0.0000

> <Gold.Chemscore.DEClash>
0.5237

> <Gold.Chemscore.DEInternal>
5.5943

> <Gold.Chemscore.Rot>
2.7172

> <Gold.Chemscore.Internal.Correction>
   9.000000E+99

> <Gold.Chemscore.Hbonds>
donor molecule, donor type, donor heavy atom, donor atom, acceptor molecule, acceptor atom, score
      L1  H    19    44       P1  7948  1.00

> <Gold.Chemscore.Hbond.Weighted>
-3.2836

> <Gold.Chemscore.Metal.Weighted>
-0.0000

> <Gold.Chemscore.Lipo.Weighted>
-12.9818

> <Gold.Chemscore.Internal_Hbond.Weighted>
0.0000

> <Gold.Chemscore.DEClash.Weighted>
0.5237

> <Gold.Chemscore.DEInternal.Weighted>
5.5943

> <Gold.Chemscore.Rot.Weighted>
6.9560

> <Gold.Chemscore.Internal.Correction.Weighted>
   9.000000E+99

> <Gold.Protein.RotatedTorsions>
[ 6907 6896 6895 6894 ] final   -1.65 input  -60.11 | X-H torsion
[ 7974 7965 7964 7962 ] final -101.29 input  175.53 | X-H torsion
[ 8008 7997 7996 7995 ] final   43.93 input   59.86 | X-H torsion
[ 10167 10162 10161 10158 ] final  -66.12 input  -65.29 | X-H torsion
[ 10718 10713 10712 10709 ] final   44.27 input   66.30 | X-H torsion
[ 10763 10752 10751 10750 ] final   79.29 input  -60.55 | X-H torsion
[ 11005 11000 10999 10996 ] final  101.55 input  -57.11 | X-H torsion

> <Gold.Protein.ActiveResidues>
 VAL166  LYS551  ARG553  GLY616  TRP617  ASP618  TYR619  PRO620  LYS621  CYS622 
 ASP623  PHE694  ASN695  SER759  ASP760  ASP761  ALA762  ILE779  LEU786  VAL792 
 PHE793  MET794  SER795  GLU796  ALA797  LYS798  CYS799  TRP800  GLU811  SER814 

> <Gold.Protein.RotatedAtoms>
  151.5426  135.1068  159.9929 H   0  0  0  0  0  0  0  0  0  0  0  0  # atno 6907 bound_to 6896
  152.4528  133.7659  159.6783 H   0  0  0  0  0  0  0  0  0  0  0  0  # atno 6908 bound_to 6896
  150.8462  133.7792  159.3067 H   0  0  0  0  0  0  0  0  0  0  0  0  # atno 6909 bound_to 6896
  145.2836  140.9333  143.2918 H   0  0  0  0  0  0  0  0  0  0  0  0  # atno 7974 bound_to 7965
  155.3109  140.3391  155.4244 H   0  0  0  0  0  0  0  0  0  0  0  0  # atno 8008 bound_to 7997
  156.1956  140.1713  156.8043 H   0  0  0  0  0  0  0  0  0  0  0  0  # atno 8009 bound_to 7997
  154.5495  140.0708  156.8627 H   0  0  0  0  0  0  0  0  0  0  0  0  # atno 8010 bound_to 7997
  140.5680  143.2316  151.6595 H   0  0  0  0  0  0  0  0  0  0  0  0  # atno 10167 bound_to 10162
  157.4250  130.7991  149.7550 H   0  0  0  0  0  0  0  0  0  0  0  0  # atno 10718 bound_to 10713
  153.0941  135.4845  154.8746 H   0  0  0  0  0  0  0  0  0  0  0  0  # atno 10763 bound_to 10752
  154.7304  135.3059  154.8903 H   0  0  0  0  0  0  0  0  0  0  0  0  # atno 10764 bound_to 10752
  153.9541  135.6820  153.4797 H   0  0  0  0  0  0  0  0  0  0  0  0  # atno 10765 bound_to 10752
  139.8774  134.9187  156.4923 H   0  0  0  0  0  0  0  0  0  0  0  0  # atno 11005 bound_to 11000
  144.9232  139.4386  143.6531 LP  0  0  0  0  0  0  0  0  0  0  0  0  # atno 17320 bound_to 7965
  146.3208  139.8104  142.8947 LP  0  0  0  0  0  0  0  0  0  0  0  0  # atno 17321 bound_to 7965
  139.5103  144.3548  152.0618 LP  0  0  0  0  0  0  0  0  0  0  0  0  # atno 17342 bound_to 10162
  140.2682  144.3993  150.6161 LP  0  0  0  0  0  0  0  0  0  0  0  0  # atno 17343 bound_to 10162
  155.9893  130.3952  150.3077 LP  0  0  0  0  0  0  0  0  0  0  0  0  # atno 17370 bound_to 10713
  157.1229  131.0251  151.3002 LP  0  0  0  0  0  0  0  0  0  0  0  0  # atno 17371 bound_to 10713
  140.8649  133.8031  155.9304 LP  0  0  0  0  0  0  0  0  0  0  0  0  # atno 17394 bound_to 11000
  140.9011  134.2377  157.5041 LP  0  0  0  0  0  0  0  0  0  0  0  0  # atno 17395 bound_to 11000

$$$$
