AV-unprocessed.smi:2751|AV-procd|sdf|10597|dock2
  -GOLD-   2272015 43D 1   1.00000     0.00000
 Structure written by MMmdl.
 35 36  0  0  0  0  0  0  0  0  2 V2000
  150.4283  140.4476  155.0498 O   0  0  0  0  0  0  0  0  0  0  0  0
  149.6741  141.3956  155.2709 C   0  0  0  0  0  0  0  0  0  0  0  0
  149.9989  142.4390  156.0487 N   0  0  0  0  0  0  0  0  0  0  0  0
  151.2786  142.6072  156.7280 C   0  0  0  0  0  0  0  0  0  0  0  0
  151.3779  141.7199  157.9808 C   0  0  0  0  0  0  0  0  0  0  0  0
  152.1861  142.3752  159.1120 C   0  0  2  0  0  0  0  0  0  0  0  0
  152.9217  141.3314  159.9746 C   0  0  0  0  0  0  0  0  0  0  0  0
  153.6548  142.0130  161.1354 C   0  0  0  0  0  0  0  0  0  0  0  0
  152.6761  142.8947  161.9181 C   0  0  0  0  0  0  0  0  0  0  0  0
  151.9442  143.8540  160.9664 C   0  0  0  0  0  0  0  0  0  0  0  0
  151.2895  143.1138  159.9403 O   0  0  0  0  0  0  0  0  0  0  0  0
  148.4353  141.5174  154.7698 N   0  0  0  0  0  0  0  0  0  0  0  0
  147.8057  140.6002  153.8973 C   0  0  0  0  0  0  0  0  0  0  0  0
  146.9605  140.9519  152.9298 N   0  3  0  0  0  0  0  0  0  0  0  0
  146.5455  139.8194  152.2739 C   0  0  0  0  0  0  0  0  0  0  0  0
  147.1819  138.7727  152.8968 C   0  0  0  0  0  0  0  0  0  0  0  0
  147.9780  139.2478  153.9198 O   0  0  0  0  0  0  0  0  0  0  0  0
  149.3193  143.1749  156.1763 H   0  0  0  0  0  0  0  0  0  0  0  0
  152.0995  142.3942  156.0409 H   0  0  0  0  0  0  0  0  0  0  0  0
  151.3737  143.6572  157.0062 H   0  0  0  0  0  0  0  0  0  0  0  0
  150.3776  141.4755  158.3407 H   0  0  0  0  0  0  0  0  0  0  0  0
  151.8478  140.7726  157.7131 H   0  0  0  0  0  0  0  0  0  0  0  0
  152.9155  143.0581  158.6721 H   0  0  0  0  0  0  0  0  0  0  0  0
  152.2058  140.6094  160.3698 H   0  0  0  0  0  0  0  0  0  0  0  0
  153.6305  140.7680  159.3670 H   0  0  0  0  0  0  0  0  0  0  0  0
  154.1055  141.2684  161.7919 H   0  0  0  0  0  0  0  0  0  0  0  0
  154.4702  142.6244  160.7465 H   0  0  0  0  0  0  0  0  0  0  0  0
  151.9481  142.2667  162.4331 H   0  0  0  0  0  0  0  0  0  0  0  0
  153.2066  143.4564  162.6875 H   0  0  0  0  0  0  0  0  0  0  0  0
  151.1986  144.4292  161.5156 H   0  0  0  0  0  0  0  0  0  0  0  0
  152.6386  144.5713  160.5260 H   0  0  0  0  0  0  0  0  0  0  0  0
  146.6511  141.8841  152.6848 H   0  0  0  0  0  0  0  0  0  0  0  0
  145.8537  139.8696  151.4452 H   0  0  0  0  0  0  0  0  0  0  0  0
  147.1811  137.7029  152.7471 H   0  0  0  0  0  0  0  0  0  0  0  0
  147.9048  142.3380  155.0229 H   0  0  0  0  0  0  0  0  0  0  0  0
  1  2  2  0  0  0  0
  2 12  1  0  0  0  0
  2  3  1  0  0  0  0
  3  4  1  0  0  0  0
  3 18  1  0  0  0  0
  4  5  1  0  0  0  0
  4 19  1  0  0  0  0
  4 20  1  0  0  0  0
  5  6  1  0  0  0  0
  5 21  1  0  0  0  0
  5 22  1  0  0  0  0
  6 11  1  0  0  0  0
  6  7  1  0  0  0  0
  6 23  1  0  0  0  0
  7  8  1  0  0  0  0
  7 24  1  0  0  0  0
  7 25  1  0  0  0  0
  8  9  1  0  0  0  0
  8 26  1  0  0  0  0
  8 27  1  0  0  0  0
  9 10  1  0  0  0  0
  9 28  1  0  0  0  0
  9 29  1  0  0  0  0
 10 11  1  0  0  0  0
 10 30  1  0  0  0  0
 10 31  1  0  0  0  0
 12 13  1  0  0  0  0
 12 35  1  0  0  0  0
 13 17  1  0  0  0  0
 13 14  2  0  0  0  0
 14 32  1  0  0  0  0
 14 15  1  0  0  0  0
 15 33  1  0  0  0  0
 15 16  2  0  0  0  0
 16 34  1  0  0  0  0
 16 17  1  0  0  0  0
M  CHG  1  14   1
M  END
> <s_m_source_file>
AV-unprocessed.smi

> <i_m_source_file_index>
2751

> <i_lp_mmshare_version>
43012

> <i_f3d_flags>
0

> <s_epik_input>
bzFbY0hdW2NIXW5jMVtOSF1DKD1PKVtOSF1bQ0gyXVtDSDJdW0NAQEhdMltDSDJdW0NIMl1bQ0gyXVtDSDJdTzI=

> <s_epik_cmdline>
J2VwaWtfcHl0aG9uJywgJy1waCcsICc3LjAnLCAnLXRuJywgJzgnLCAnLW1hJywgJzIwMCcsICctbWV0YWxfYmluZGluZycsICctaW1hZScsICc8aW5maWxlLm1hZT4nLCAnLW9tYWUnLCAnPG91dGZpbGUubWFlPic=

> <r_epik_Ionization_Penalty>
6.63408

> <r_epik_Ionization_Penalty_Charging>
6.57733

> <r_epik_Ionization_Penalty_Neutral>
0.0567487

> <r_epik_State_Penalty>
1.8175

> <r_epik_Charging_Adjusted_Penalty>
8.39483

> <i_epik_Tot_Q>
1

> <i_epik_Tot_abs_Q>
1

> <r_epik_Metal_State_Penalty>
1.83396

> <b_epik_Metal_Only>
0

> <s_lp_Force_Field>
OPLS_2005

> <r_lp_Energy>
16.4857

> <b_lp_Chiralities_Consistent>
1

> <s_lp_Variant>
AV-unprocessed.smi:2751-3

> <Gold.Version>
5.8.1

> <Gold.Id.Protein>
6NUR|6NUR_protein|mol2

> <Gold.PLP.Fitness>
41.0001

> <Gold.PLP.PLP>
-34.3329

> <Gold.PLP.part.hbond>
-2.5994

> <Gold.PLP.part.metal>
0.0000

> <Gold.PLP.part.buried>
-1.8004

> <Gold.PLP.part.nonpolar>
-29.4946

> <Gold.PLP.part.repulsive>
0.6005

> <Gold.PLP.ligand.clash>
0.0000

> <Gold.PLP.ligand.torsion>
0.9684

> <Gold.PLP.Chemscore.Hbond>
1.8640

> <Gold.PLP.Chemscore.CHOScore>
1.0000

> <Gold.PLP.Chemscore.Metal>
0.0000

> <Gold.Chemscore.Hbonds>
donor molecule, donor type, donor heavy atom, donor atom, acceptor molecule, acceptor atom, score
      L1  H     3    18       P1  8028  0.86
      P1  H  7989  7998       L1     1  1.00
      L1  C    16    34       P1  7948  0.99

> <Gold.PLP.Chemscore.Internal.Correction>
0.0120

> <Gold.Rescore>
     Score         DG    S(hbond)    S(metal)    S(lipo)     H(rot)  DE(clash)    DE(int)     intcor
     15.16     -16.84       1.56        0.00      88.72       1.66       0.56       1.11       ----

> <Gold.Chemscore.Fitness>
15.1639

> <Gold.Chemscore.DG>
-16.8370

> <Gold.Chemscore.ZeroCoef>
-5.4800

> <Gold.Chemscore.Hbond>
1.5628

> <Gold.Chemscore.Metal>
0.0000

> <Gold.Chemscore.Lipo>
88.7222

> <Gold.Chemscore.Internal_Hbond>
0.0000

> <Gold.Chemscore.DEClash>
0.5595

> <Gold.Chemscore.DEInternal>
1.1136

> <Gold.Chemscore.Rot>
1.6575

> <Gold.Chemscore.Internal.Correction>
   9.000000E+99

> <Gold.Chemscore.Hbonds>
donor molecule, donor type, donor heavy atom, donor atom, acceptor molecule, acceptor atom, score
      L1  H     3    18       P1  8028  0.86
      P1  H  7989  7998       L1     1  0.68

> <Gold.Chemscore.Hbond.Weighted>
-5.2196

> <Gold.Chemscore.Metal.Weighted>
-0.0000

> <Gold.Chemscore.Lipo.Weighted>
-10.3805

> <Gold.Chemscore.Internal_Hbond.Weighted>
0.0000

> <Gold.Chemscore.DEClash.Weighted>
0.5595

> <Gold.Chemscore.DEInternal.Weighted>
1.1136

> <Gold.Chemscore.Rot.Weighted>
4.2431

> <Gold.Chemscore.Internal.Correction.Weighted>
   9.000000E+99

> <Gold.Protein.RotatedTorsions>
[ 6907 6896 6895 6894 ] final  -38.43 input  -60.11 | X-H torsion
[ 7974 7965 7964 7962 ] final -103.74 input  175.53 | X-H torsion
[ 8008 7997 7996 7995 ] final  179.84 input   59.86 | X-H torsion
[ 10167 10162 10161 10158 ] final -111.22 input  -65.29 | X-H torsion
[ 10718 10713 10712 10709 ] final  175.67 input   66.30 | X-H torsion
[ 10763 10752 10751 10750 ] final -141.36 input  -60.55 | X-H torsion
[ 11005 11000 10999 10996 ] final  109.87 input  -57.11 | X-H torsion

> <Gold.Protein.ActiveResidues>
 VAL166  LYS551  ARG553  GLY616  TRP617  ASP618  TYR619  PRO620  LYS621  CYS622 
 ASP623  PHE694  ASN695  SER759  ASP760  ASP761  ALA762  ILE779  LEU786  VAL792 
 PHE793  MET794  SER795  GLU796  ALA797  LYS798  CYS799  TRP800  GLU811  SER814 

> <Gold.Protein.RotatedAtoms>
  151.0026  134.9334  159.7961 H   0  0  0  0  0  0  0  0  0  0  0  0  # atno 6907 bound_to 6896
  152.5282  134.3134  159.9132 H   0  0  0  0  0  0  0  0  0  0  0  0  # atno 6908 bound_to 6896
  151.3140  133.4027  159.2683 H   0  0  0  0  0  0  0  0  0  0  0  0  # atno 6909 bound_to 6896
  145.2520  140.9241  143.3089 H   0  0  0  0  0  0  0  0  0  0  0  0  # atno 7974 bound_to 7965
  156.0388  140.1299  157.0178 H   0  0  0  0  0  0  0  0  0  0  0  0  # atno 8008 bound_to 7997
  154.4382  140.1034  156.6278 H   0  0  0  0  0  0  0  0  0  0  0  0  # atno 8009 bound_to 7997
  155.5697  140.3466  155.4514 H   0  0  0  0  0  0  0  0  0  0  0  0  # atno 8010 bound_to 7997
  140.1360  143.4320  152.1595 H   0  0  0  0  0  0  0  0  0  0  0  0  # atno 10167 bound_to 10162
  156.9314  130.9972  151.2986 H   0  0  0  0  0  0  0  0  0  0  0  0  # atno 10718 bound_to 10713
  154.8548  135.3526  154.5856 H   0  0  0  0  0  0  0  0  0  0  0  0  # atno 10763 bound_to 10752
  153.6466  135.6996  153.5228 H   0  0  0  0  0  0  0  0  0  0  0  0  # atno 10764 bound_to 10752
  153.2928  135.4229  155.1141 H   0  0  0  0  0  0  0  0  0  0  0  0  # atno 10765 bound_to 10752
  139.8870  134.9469  156.6192 H   0  0  0  0  0  0  0  0  0  0  0  0  # atno 11005 bound_to 11000
  144.9494  139.4099  143.6410 LP  0  0  0  0  0  0  0  0  0  0  0  0  # atno 17320 bound_to 7965
  146.3300  139.8494  142.8876 LP  0  0  0  0  0  0  0  0  0  0  0  0  # atno 17321 bound_to 7965
  139.5496  144.7326  151.4477 LP  0  0  0  0  0  0  0  0  0  0  0  0  # atno 17342 bound_to 10162
  140.6789  143.8127  150.7095 LP  0  0  0  0  0  0  0  0  0  0  0  0  # atno 17343 bound_to 10162
  157.5844  130.8399  149.8569 LP  0  0  0  0  0  0  0  0  0  0  0  0  # atno 17370 bound_to 10713
  156.0445  130.3731  150.1351 LP  0  0  0  0  0  0  0  0  0  0  0  0  # atno 17371 bound_to 10713
  140.7752  133.8705  155.8523 LP  0  0  0  0  0  0  0  0  0  0  0  0  # atno 17394 bound_to 11000
  140.9808  134.1409  157.4496 LP  0  0  0  0  0  0  0  0  0  0  0  0  # atno 17395 bound_to 11000

$$$$
