AV-unprocessed.smi:1139|AV-procd|sdf|4869|dock9
  -GOLD-   22720 3443D 1   1.00000     0.00000
 Structure written by MMmdl.
 43 44  0  0  0  0  0  0  0  0  2 V2000
  146.9724  133.8299  162.1464 C   0  0  0  0  0  0  0  0  0  0  0  0
  147.4699  135.0494  161.4247 C   0  0  0  0  0  0  0  0  0  0  0  0
  147.3771  136.2339  162.0055 N   0  0  0  0  0  0  0  0  0  0  0  0
  147.9190  137.1493  161.0981 O   0  0  0  0  0  0  0  0  0  0  0  0
  148.3215  136.4716  159.9931 C   0  0  0  0  0  0  0  0  0  0  0  0
  148.9339  137.2786  158.8985 C   0  0  0  0  0  0  0  0  0  0  0  0
  148.0662  135.1349  160.1335 C   0  0  0  0  0  0  0  0  0  0  0  0
  148.3466  134.0179  159.1623 C   0  0  0  0  0  0  0  0  0  0  0  0
  147.7279  134.3498  157.8041 C   0  0  0  0  0  0  0  0  0  0  0  0
  146.5185  134.2052  157.6268 O   0  0  0  0  0  0  0  0  0  0  0  0
  148.5669  134.7928  156.8545 N   0  0  0  0  0  0  0  0  0  0  0  0
  148.1973  135.1189  155.4793 C   0  0  0  0  0  0  0  0  0  0  0  0
  147.9868  133.8647  154.5914 C   0  0  2  0  0  0  0  0  0  0  0  0
  149.2869  133.0393  154.4603 C   0  0  0  0  0  0  0  0  0  0  0  0
  147.4621  134.2454  153.2458 N   0  3  0  0  0  0  0  0  0  0  0  0
  147.2848  133.1257  152.2952 C   0  0  0  0  0  0  0  0  0  0  0  0
  146.3354  133.6358  151.2092 C   0  0  0  0  0  0  0  0  0  0  0  0
  145.5948  134.8188  151.8366 C   0  0  0  0  0  0  0  0  0  0  0  0
  146.1649  134.9570  153.2504 C   0  0  0  0  0  0  0  0  0  0  0  0
  146.4395  133.1630  161.4690 H   0  0  0  0  0  0  0  0  0  0  0  0
  146.2879  134.0910  162.9544 H   0  0  0  0  0  0  0  0  0  0  0  0
  147.8011  133.2706  162.5807 H   0  0  0  0  0  0  0  0  0  0  0  0
  148.6678  136.8737  157.9221 H   0  0  0  0  0  0  0  0  0  0  0  0
  150.0207  137.2760  158.9803 H   0  0  0  0  0  0  0  0  0  0  0  0
  148.5937  138.3137  158.9367 H   0  0  0  0  0  0  0  0  0  0  0  0
  149.4187  133.8690  159.0291 H   0  0  0  0  0  0  0  0  0  0  0  0
  147.9543  133.0670  159.5258 H   0  0  0  0  0  0  0  0  0  0  0  0
  149.5435  134.8811  157.0961 H   0  0  0  0  0  0  0  0  0  0  0  0
  147.2758  135.6956  155.5520 H   0  0  0  0  0  0  0  0  0  0  0  0
  148.9336  135.7842  155.0246 H   0  0  0  0  0  0  0  0  0  0  0  0
  147.2384  133.2324  155.0723 H   0  0  0  0  0  0  0  0  0  0  0  0
  149.6640  132.7226  155.4321 H   0  0  0  0  0  0  0  0  0  0  0  0
  150.0734  133.6161  153.9723 H   0  0  0  0  0  0  0  0  0  0  0  0
  149.1388  132.1243  153.8877 H   0  0  0  0  0  0  0  0  0  0  0  0
  148.2331  132.7920  151.8731 H   0  0  0  0  0  0  0  0  0  0  0  0
  146.8269  132.2797  152.8107 H   0  0  0  0  0  0  0  0  0  0  0  0
  146.9021  133.9734  150.3404 H   0  0  0  0  0  0  0  0  0  0  0  0
  145.6538  132.8537  150.8726 H   0  0  0  0  0  0  0  0  0  0  0  0
  145.7865  135.7240  151.2587 H   0  0  0  0  0  0  0  0  0  0  0  0
  144.5154  134.6642  151.8554 H   0  0  0  0  0  0  0  0  0  0  0  0
  145.4903  134.4788  153.9626 H   0  0  0  0  0  0  0  0  0  0  0  0
  146.2735  136.0033  153.5376 H   0  0  0  0  0  0  0  0  0  0  0  0
  148.1317  134.8742  152.8249 H   0  0  0  0  0  0  0  0  0  0  0  0
  1  2  1  0  0  0  0
  1 20  1  0  0  0  0
  1 21  1  0  0  0  0
  1 22  1  0  0  0  0
  2  7  1  0  0  0  0
  2  3  2  0  0  0  0
  3  4  1  0  0  0  0
  4  5  1  0  0  0  0
  5  6  1  0  0  0  0
  5  7  2  0  0  0  0
  6 23  1  0  0  0  0
  6 24  1  0  0  0  0
  6 25  1  0  0  0  0
  7  8  1  0  0  0  0
  8  9  1  0  0  0  0
  8 26  1  0  0  0  0
  8 27  1  0  0  0  0
  9 10  2  0  0  0  0
  9 11  1  0  0  0  0
 11 12  1  0  0  0  0
 11 28  1  0  0  0  0
 12 13  1  0  0  0  0
 12 29  1  0  0  0  0
 12 30  1  0  0  0  0
 13 14  1  0  0  0  0
 13 15  1  0  0  0  0
 13 31  1  0  0  0  0
 14 32  1  0  0  0  0
 14 33  1  0  0  0  0
 14 34  1  0  0  0  0
 15 19  1  0  0  0  0
 15 16  1  0  0  0  0
 15 43  1  0  0  0  0
 16 17  1  0  0  0  0
 16 35  1  0  0  0  0
 16 36  1  0  0  0  0
 17 18  1  0  0  0  0
 17 37  1  0  0  0  0
 17 38  1  0  0  0  0
 18 19  1  0  0  0  0
 18 39  1  0  0  0  0
 18 40  1  0  0  0  0
 19 41  1  0  0  0  0
 19 42  1  0  0  0  0
M  CHG  1  15   1
M  END
> <s_m_source_file>
AV-unprocessed.smi

> <i_m_source_file_index>
1139

> <i_lp_mmshare_version>
43012

> <i_f3d_flags>
0

> <s_epik_input>
W0NIM11jMW5vYyhbQ0gzXSljMVtDSDJdQyg9TylbTkhdW0NIMl1bQ0BIXShbQ0gzXSlOMltDSDJdW0NIMl1bQ0gyXVtDSDJdMg==

> <s_epik_cmdline>
J2VwaWtfcHl0aG9uJywgJy1waCcsICc3LjAnLCAnLXRuJywgJzgnLCAnLW1hJywgJzIwMCcsICctbWV0YWxfYmluZGluZycsICctaW1hZScsICc8aW5maWxlLm1hZT4nLCAnLW9tYWUnLCAnPG91dGZpbGUubWFlPic=

> <r_epik_Ionization_Penalty>
0.0050436

> <r_epik_Ionization_Penalty_Charging>
0.0050435

> <r_epik_Ionization_Penalty_Neutral>
9.69799e-08

> <r_epik_State_Penalty>
0.00366867

> <r_epik_Charging_Adjusted_Penalty>
0.00871217

> <i_epik_Tot_Q>
1

> <i_epik_Tot_abs_Q>
1

> <r_epik_Metal_State_Penalty>
-0

> <b_epik_Metal_Only>
0

> <s_lp_Force_Field>
OPLS_2005

> <r_lp_Energy>
25.3713

> <b_lp_Chiralities_Consistent>
1

> <s_lp_Variant>
AV-unprocessed.smi:1139-1

> <Gold.Version>
5.8.1

> <Gold.Id.Protein>
6NUR|6NUR_protein|mol2

> <Gold.PLP.Fitness>
39.0537

> <Gold.PLP.PLP>
-28.3126

> <Gold.PLP.part.hbond>
-3.0000

> <Gold.PLP.part.metal>
0.0000

> <Gold.PLP.part.buried>
-3.7685

> <Gold.PLP.part.nonpolar>
-21.5802

> <Gold.PLP.part.repulsive>
0.0346

> <Gold.PLP.ligand.clash>
0.0000

> <Gold.PLP.ligand.torsion>
0.4252

> <Gold.PLP.Chemscore.Hbond>
3.8400

> <Gold.PLP.Chemscore.CHOScore>
0.0000

> <Gold.PLP.Chemscore.Metal>
0.0000

> <Gold.Chemscore.Hbonds>
donor molecule, donor type, donor heavy atom, donor atom, acceptor molecule, acceptor atom, score
      L1  H    15    43       P1  7948  2.00
      P1  H  6931  6943       L1     4  0.99
      P1  H  6934  6947       L1     4  0.77

> <Gold.PLP.Chemscore.Internal.Correction>
0.0714

> <Gold.Rescore>
     Score         DG    S(hbond)    S(metal)    S(lipo)     H(rot)  DE(clash)    DE(int)     intcor
     16.22     -16.53       2.55        0.00      59.23       1.72       0.01       0.30       ----

> <Gold.Chemscore.Fitness>
16.2179

> <Gold.Chemscore.DG>
-16.5293

> <Gold.Chemscore.ZeroCoef>
-5.4800

> <Gold.Chemscore.Hbond>
2.5511

> <Gold.Chemscore.Metal>
0.0000

> <Gold.Chemscore.Lipo>
59.2343

> <Gold.Chemscore.Internal_Hbond>
0.0000

> <Gold.Chemscore.DEClash>
0.0073

> <Gold.Chemscore.DEInternal>
0.3041

> <Gold.Chemscore.Rot>
1.7195

> <Gold.Chemscore.Internal.Correction>
   9.000000E+99

> <Gold.Chemscore.Hbonds>
donor molecule, donor type, donor heavy atom, donor atom, acceptor molecule, acceptor atom, score
      L1  H    15    43       P1  7948  0.82
      P1  H  6931  6943       L1     4  0.72
      P1  H  6934  6947       L1     4  0.70

> <Gold.Chemscore.Hbond.Weighted>
-8.5208

> <Gold.Chemscore.Metal.Weighted>
-0.0000

> <Gold.Chemscore.Lipo.Weighted>
-6.9304

> <Gold.Chemscore.Internal_Hbond.Weighted>
0.0000

> <Gold.Chemscore.DEClash.Weighted>
0.0073

> <Gold.Chemscore.DEInternal.Weighted>
0.3041

> <Gold.Chemscore.Rot.Weighted>
4.4018

> <Gold.Chemscore.Internal.Correction.Weighted>
   9.000000E+99

> <Gold.Protein.RotatedTorsions>
[ 6907 6896 6895 6894 ] final -141.48 input  -60.11 | X-H torsion
[ 7974 7965 7964 7962 ] final  -15.68 input  175.53 | X-H torsion
[ 8008 7997 7996 7995 ] final  -82.91 input   59.86 | X-H torsion
[ 10167 10162 10161 10158 ] final  176.17 input  -65.29 | X-H torsion
[ 10718 10713 10712 10709 ] final  -38.27 input   66.30 | X-H torsion
[ 10763 10752 10751 10750 ] final  167.33 input  -60.55 | X-H torsion
[ 11005 11000 10999 10996 ] final   34.11 input  -57.11 | X-H torsion

> <Gold.Protein.ActiveResidues>
 VAL166  LYS551  ARG553  GLY616  TRP617  ASP618  TYR619  PRO620  LYS621  CYS622 
 ASP623  PHE694  ASN695  SER759  ASP760  ASP761  ALA762  ILE779  LEU786  VAL792 
 PHE793  MET794  SER795  GLU796  ALA797  LYS798  CYS799  TRP800  GLU811  SER814 

> <Gold.Protein.RotatedAtoms>
  151.0744  133.5440  159.2624 H   0  0  0  0  0  0  0  0  0  0  0  0  # atno 6907 bound_to 6896
  151.2367  135.0573  159.9019 H   0  0  0  0  0  0  0  0  0  0  0  0  # atno 6908 bound_to 6896
  152.5416  134.0525  159.8170 H   0  0  0  0  0  0  0  0  0  0  0  0  # atno 6909 bound_to 6896
  146.2021  140.3527  142.8419 H   0  0  0  0  0  0  0  0  0  0  0  0  # atno 7974 bound_to 7965
  154.6136  140.0626  156.9525 H   0  0  0  0  0  0  0  0  0  0  0  0  # atno 8008 bound_to 7997
  155.1933  140.3309  155.4336 H   0  0  0  0  0  0  0  0  0  0  0  0  # atno 8009 bound_to 7997
  156.2391  140.1877  156.7021 H   0  0  0  0  0  0  0  0  0  0  0  0  # atno 8010 bound_to 7997
  139.5204  144.2946  152.0433 H   0  0  0  0  0  0  0  0  0  0  0  0  # atno 10167 bound_to 10162
  156.3057  130.4246  149.8099 H   0  0  0  0  0  0  0  0  0  0  0  0  # atno 10718 bound_to 10713
  154.3522  135.2753  155.2365 H   0  0  0  0  0  0  0  0  0  0  0  0  # atno 10763 bound_to 10752
  154.4590  135.5912  153.6246 H   0  0  0  0  0  0  0  0  0  0  0  0  # atno 10764 bound_to 10752
  152.9849  135.6060  154.3734 H   0  0  0  0  0  0  0  0  0  0  0  0  # atno 10765 bound_to 10752
  140.2562  134.3246  155.7873 H   0  0  0  0  0  0  0  0  0  0  0  0  # atno 11005 bound_to 11000
  144.8708  140.7269  143.6048 LP  0  0  0  0  0  0  0  0  0  0  0  0  # atno 17320 bound_to 7965
  145.3447  139.1722  143.4467 LP  0  0  0  0  0  0  0  0  0  0  0  0  # atno 17321 bound_to 7965
  140.2396  144.4284  150.6266 LP  0  0  0  0  0  0  0  0  0  0  0  0  # atno 17342 bound_to 10162
  140.6300  143.2186  151.6516 LP  0  0  0  0  0  0  0  0  0  0  0  0  # atno 17343 bound_to 10162
  156.5461  130.8321  151.3284 LP  0  0  0  0  0  0  0  0  0  0  0  0  # atno 17370 bound_to 10713
  157.7379  130.9804  150.2220 LP  0  0  0  0  0  0  0  0  0  0  0  0  # atno 17371 bound_to 10713
  141.2196  133.7382  156.9115 LP  0  0  0  0  0  0  0  0  0  0  0  0  # atno 17394 bound_to 11000
  140.1509  134.9230  157.2592 LP  0  0  0  0  0  0  0  0  0  0  0  0  # atno 17395 bound_to 11000

$$$$
