AV-unprocessed.smi:213|AV-procd|sdf|1644|dock3
  -GOLD-   2262020 13D 1   1.00000     0.00000
 Structure written by MMmdl.
 58 61  0  0  0  0  0  0  0  0  1 V2000
  144.3786  137.4761  153.5474 C   0  0  0  0  0  0  0  0  0  0  0  0
  145.8173  137.0339  153.2122 C   0  0  1  0  0  0  0  0  0  0  0  0
  145.8981  136.2085  151.9050 C   0  0  0  0  0  0  0  0  0  0  0  0
  145.2245  134.9088  151.9259 N   0  0  0  0  0  0  0  0  0  0  0  0
  145.6725  134.0770  150.8139 C   0  0  0  0  0  0  0  0  0  0  0  0
  144.9979  132.6950  150.8168 C   0  0  0  0  0  0  0  0  0  0  0  0
  143.5845  132.8588  150.7828 O   0  0  0  0  0  0  0  0  0  0  0  0
  143.0971  133.6207  151.8820 C   0  0  0  0  0  0  0  0  0  0  0  0
  143.7681  135.0058  151.8969 C   0  0  0  0  0  0  0  0  0  0  0  0
  146.6917  138.2081  153.1424 N   0  0  0  0  0  0  0  0  0  0  0  0
  146.6133  139.1407  152.0200 C   0  0  0  0  0  0  0  0  0  0  0  0
  147.7118  138.3698  154.0266 C   0  0  0  0  0  0  0  0  0  0  0  0
  148.1272  137.2758  154.7188 N   0  0  0  0  0  0  0  0  0  0  0  0
  149.1325  137.3655  155.5937 C   0  0  0  0  0  0  0  0  0  0  0  0
  149.8498  138.4372  155.9323 N   0  0  0  0  0  0  0  0  0  0  0  0
  149.4308  139.5441  155.2564 C   0  0  0  0  0  0  0  0  0  0  0  0
  148.3804  139.6025  154.2950 C   0  0  0  0  0  0  0  0  0  0  0  0
  148.2412  140.9107  153.8424 N   0  0  0  0  0  0  0  0  0  0  0  0
  149.1565  141.5797  154.4863 C   0  0  0  0  0  0  0  0  0  0  0  0
  149.9129  140.8367  155.3620 N   0  0  0  0  0  0  0  0  0  0  0  0
  150.9847  141.3205  156.2131 C   0  0  0  0  0  0  0  0  0  0  0  0
  150.5207  142.3866  157.2287 C   0  0  1  0  0  0  0  0  0  0  0  0
  149.7098  141.7315  158.1835 O   0  0  0  0  0  0  0  0  0  0  0  0
  151.6688  143.1189  157.9589 C   0  0  2  0  0  0  0  0  0  0  0  0
  152.4023  142.2676  158.9983 C   0  0  0  0  0  0  0  0  0  0  0  0
  152.9834  143.2894  159.9632 C   0  0  0  0  0  0  0  0  0  0  0  0
  152.2224  144.5772  159.6412 C   0  0  0  0  0  0  0  0  0  0  0  0
  151.1761  144.1746  158.7707 O   0  0  0  0  0  0  0  0  0  0  0  0
  143.7120  136.6295  153.6988 H   0  0  0  0  0  0  0  0  0  0  0  0
  143.9459  138.0859  152.7541 H   0  0  0  0  0  0  0  0  0  0  0  0
  144.3593  138.0659  154.4645 H   0  0  0  0  0  0  0  0  0  0  0  0
  146.1462  136.4125  154.0448 H   0  0  0  0  0  0  0  0  0  0  0  0
  145.5412  136.8050  151.0640 H   0  0  0  0  0  0  0  0  0  0  0  0
  146.9529  136.0227  151.6954 H   0  0  0  0  0  0  0  0  0  0  0  0
  145.4596  134.5786  149.8687 H   0  0  0  0  0  0  0  0  0  0  0  0
  146.7543  133.9474  150.8609 H   0  0  0  0  0  0  0  0  0  0  0  0
  145.3118  132.1180  149.9470 H   0  0  0  0  0  0  0  0  0  0  0  0
  145.2862  132.1255  151.7016 H   0  0  0  0  0  0  0  0  0  0  0  0
  142.0156  133.7246  151.7933 H   0  0  0  0  0  0  0  0  0  0  0  0
  143.2918  133.0891  152.8147 H   0  0  0  0  0  0  0  0  0  0  0  0
  143.4128  135.5406  152.7760 H   0  0  0  0  0  0  0  0  0  0  0  0
  143.4500  135.5757  151.0229 H   0  0  0  0  0  0  0  0  0  0  0  0
  147.6084  139.4003  151.6566 H   0  0  0  0  0  0  0  0  0  0  0  0
  146.1059  140.0567  152.3232 H   0  0  0  0  0  0  0  0  0  0  0  0
  146.0626  138.7082  151.1847 H   0  0  0  0  0  0  0  0  0  0  0  0
  149.4003  136.4464  156.0937 H   0  0  0  0  0  0  0  0  0  0  0  0
  149.2962  142.6418  154.3469 H   0  0  0  0  0  0  0  0  0  0  0  0
  151.4143  140.4639  156.7345 H   0  0  0  0  0  0  0  0  0  0  0  0
  151.7729  141.7249  155.5760 H   0  0  0  0  0  0  0  0  0  0  0  0
  149.8948  143.1217  156.7214 H   0  0  0  0  0  0  0  0  0  0  0  0
  149.8949  142.0961  159.0352 H   0  0  0  0  0  0  0  0  0  0  0  0
  152.3826  143.5238  157.2389 H   0  0  0  0  0  0  0  0  0  0  0  0
  151.6933  141.6299  159.5282 H   0  0  0  0  0  0  0  0  0  0  0  0
  153.1637  141.6254  158.5549 H   0  0  0  0  0  0  0  0  0  0  0  0
  152.8323  142.9776  160.9973 H   0  0  0  0  0  0  0  0  0  0  0  0
  154.0535  143.4257  159.8054 H   0  0  0  0  0  0  0  0  0  0  0  0
  151.8253  145.0650  160.5316 H   0  0  0  0  0  0  0  0  0  0  0  0
  152.8684  145.2870  159.1222 H   0  0  0  0  0  0  0  0  0  0  0  0
  1  2  1  0  0  0  0
  1 29  1  0  0  0  0
  1 30  1  0  0  0  0
  1 31  1  0  0  0  0
  2  3  1  0  0  0  0
  2 10  1  0  0  0  0
  2 32  1  0  0  0  0
  3  4  1  0  0  0  0
  3 33  1  0  0  0  0
  3 34  1  0  0  0  0
  4  9  1  0  0  0  0
  4  5  1  0  0  0  0
  5  6  1  0  0  0  0
  5 35  1  0  0  0  0
  5 36  1  0  0  0  0
  6  7  1  0  0  0  0
  6 37  1  0  0  0  0
  6 38  1  0  0  0  0
  7  8  1  0  0  0  0
  8  9  1  0  0  0  0
  8 39  1  0  0  0  0
  8 40  1  0  0  0  0
  9 41  1  0  0  0  0
  9 42  1  0  0  0  0
 10 11  1  0  0  0  0
 10 12  1  0  0  0  0
 11 43  1  0  0  0  0
 11 44  1  0  0  0  0
 11 45  1  0  0  0  0
 12 17  1  0  0  0  0
 12 13  2  0  0  0  0
 13 14  1  0  0  0  0
 14 15  2  0  0  0  0
 14 46  1  0  0  0  0
 15 16  1  0  0  0  0
 16 20  1  0  0  0  0
 16 17  2  0  0  0  0
 17 18  1  0  0  0  0
 18 19  2  0  0  0  0
 19 20  1  0  0  0  0
 19 47  1  0  0  0  0
 20 21  1  0  0  0  0
 21 22  1  0  0  0  0
 21 48  1  0  0  0  0
 21 49  1  0  0  0  0
 22 23  1  0  0  0  0
 22 24  1  0  0  0  0
 22 50  1  0  0  0  0
 23 51  1  0  0  0  0
 24 28  1  0  0  0  0
 24 25  1  0  0  0  0
 24 52  1  0  0  0  0
 25 26  1  0  0  0  0
 25 53  1  0  0  0  0
 25 54  1  0  0  0  0
 26 27  1  0  0  0  0
 26 55  1  0  0  0  0
 26 56  1  0  0  0  0
 27 28  1  0  0  0  0
 27 57  1  0  0  0  0
 27 58  1  0  0  0  0
M  END
> <s_m_source_file>
AV-unprocessed.smi

> <i_m_source_file_index>
213

> <i_lp_mmshare_version>
43012

> <i_f3d_flags>
0

> <s_epik_input>
W0NIMl0xW0NIMl1PW0NIMl1bQ0gyXU4xW0NIMl1bQ0BASF0oW0NIM10pTihbQ0gzXSljKG5bY0hdbjIpYyhjMjMpbltjSF1uM1tDSDJdW0NASF0oW09IXSlbQ0BASF00W0NIMl1bQ0gyXVtDSDJdTzQ=

> <s_epik_cmdline>
J2VwaWtfcHl0aG9uJywgJy1waCcsICc3LjAnLCAnLXRuJywgJzgnLCAnLW1hJywgJzIwMCcsICctbWV0YWxfYmluZGluZycsICctaW1hZScsICc8aW5maWxlLm1hZT4nLCAnLW9tYWUnLCAnPG91dGZpbGUubWFlPic=

> <r_lp_tautomer_probability>
1

> <r_epik_Ionization_Penalty>
0.423322

> <r_epik_Ionization_Penalty_Charging>
0

> <r_epik_Ionization_Penalty_Neutral>
0.423322

> <r_epik_State_Penalty>
0.569486

> <r_epik_Charging_Adjusted_Penalty>
0.569486

> <i_epik_Tot_Q>
0

> <i_epik_Tot_abs_Q>
0

> <r_epik_Metal_State_Penalty>
0.568671

> <b_epik_Metal_Only>
0

> <s_lp_Force_Field>
OPLS_2005

> <r_lp_Energy>
52.699

> <b_lp_Chiralities_Consistent>
1

> <s_lp_Variant>
AV-unprocessed.smi:213-12

> <Gold.Version>
5.8.1

> <Gold.Id.Protein>
6NUR|6NUR_protein|mol2

> <Gold.PLP.Fitness>
46.3214

> <Gold.PLP.PLP>
-44.2695

> <Gold.PLP.part.hbond>
0.0000

> <Gold.PLP.part.metal>
0.0000

> <Gold.PLP.part.buried>
-1.7999

> <Gold.PLP.part.nonpolar>
-43.3864

> <Gold.PLP.part.repulsive>
0.9155

> <Gold.PLP.ligand.clash>
0.0000

> <Gold.PLP.ligand.torsion>
0.6017

> <Gold.PLP.Chemscore.Hbond>
0.0000

> <Gold.PLP.Chemscore.CHOScore>
1.0000

> <Gold.PLP.Chemscore.Metal>
0.0000

> <Gold.Chemscore.Hbonds>
donor molecule, donor type, donor heavy atom, donor atom, acceptor molecule, acceptor atom, score
      L1  C    19    47       P1  8028  1.00

> <Gold.PLP.Chemscore.Internal.Correction>
0.2553

> <Gold.Rescore>
     Score         DG    S(hbond)    S(metal)    S(lipo)     H(rot)  DE(clash)    DE(int)     intcor
      9.54     -11.50       0.00        0.00     111.33       2.74       0.45       1.50       ----

> <Gold.Chemscore.Fitness>
9.5437

> <Gold.Chemscore.DG>
-11.4971

> <Gold.Chemscore.ZeroCoef>
-5.4800

> <Gold.Chemscore.Hbond>
0.0000

> <Gold.Chemscore.Metal>
0.0000

> <Gold.Chemscore.Lipo>
111.3318

> <Gold.Chemscore.Internal_Hbond>
0.0000

> <Gold.Chemscore.DEClash>
0.4530

> <Gold.Chemscore.DEInternal>
1.5004

> <Gold.Chemscore.Rot>
2.7378

> <Gold.Chemscore.Internal.Correction>
   9.000000E+99

> <Gold.Chemscore.Hbond.Weighted>
-0.0000

> <Gold.Chemscore.Metal.Weighted>
-0.0000

> <Gold.Chemscore.Lipo.Weighted>
-13.0258

> <Gold.Chemscore.Internal_Hbond.Weighted>
0.0000

> <Gold.Chemscore.DEClash.Weighted>
0.4530

> <Gold.Chemscore.DEInternal.Weighted>
1.5004

> <Gold.Chemscore.Rot.Weighted>
7.0087

> <Gold.Chemscore.Internal.Correction.Weighted>
   9.000000E+99

> <Gold.Protein.RotatedTorsions>
[ 6907 6896 6895 6894 ] final   23.26 input  -60.11 | X-H torsion
[ 7974 7965 7964 7962 ] final   77.52 input  175.53 | X-H torsion
[ 8008 7997 7996 7995 ] final  127.66 input   59.86 | X-H torsion
[ 10167 10162 10161 10158 ] final  102.99 input  -65.29 | X-H torsion
[ 10718 10713 10712 10709 ] final   68.32 input   66.30 | X-H torsion
[ 10763 10752 10751 10750 ] final   48.64 input  -60.55 | X-H torsion
[ 11005 11000 10999 10996 ] final   42.80 input  -57.11 | X-H torsion

> <Gold.Protein.ActiveResidues>
 VAL166  LYS551  ARG553  GLY616  TRP617  ASP618  TYR619  PRO620  LYS621  CYS622 
 ASP623  PHE694  ASN695  SER759  ASP760  ASP761  ALA762  ILE779  LEU786  VAL792 
 PHE793  MET794  SER795  GLU796  ALA797  LYS798  CYS799  TRP800  GLU811  SER814 

> <Gold.Protein.RotatedAtoms>
  151.9396  135.0219  160.0534 H   0  0  0  0  0  0  0  0  0  0  0  0  # atno 6907 bound_to 6896
  152.2048  133.4863  159.5086 H   0  0  0  0  0  0  0  0  0  0  0  0  # atno 6908 bound_to 6896
  150.6962  134.1461  159.4165 H   0  0  0  0  0  0  0  0  0  0  0  0  # atno 6909 bound_to 6896
  145.6890  139.2546  143.1771 H   0  0  0  0  0  0  0  0  0  0  0  0  # atno 7974 bound_to 7965
  156.2896  140.2663  156.2309 H   0  0  0  0  0  0  0  0  0  0  0  0  # atno 8008 bound_to 7997
  155.0073  140.0387  157.2403 H   0  0  0  0  0  0  0  0  0  0  0  0  # atno 8009 bound_to 7997
  154.7549  140.2750  155.6267 H   0  0  0  0  0  0  0  0  0  0  0  0  # atno 8010 bound_to 7997
  139.7301  144.7038  151.0735 H   0  0  0  0  0  0  0  0  0  0  0  0  # atno 10167 bound_to 10162
  157.6282  130.9367  150.0362 H   0  0  0  0  0  0  0  0  0  0  0  0  # atno 10718 bound_to 10713
  152.9791  135.5937  154.3959 H   0  0  0  0  0  0  0  0  0  0  0  0  # atno 10763 bound_to 10752
  154.3609  135.2767  155.2322 H   0  0  0  0  0  0  0  0  0  0  0  0  # atno 10764 bound_to 10752
  154.4320  135.6034  153.6129 H   0  0  0  0  0  0  0  0  0  0  0  0  # atno 10765 bound_to 10752
  140.1705  134.4228  155.8260 H   0  0  0  0  0  0  0  0  0  0  0  0  # atno 11005 bound_to 11000
  146.0898  140.7668  142.9600 LP  0  0  0  0  0  0  0  0  0  0  0  0  # atno 17320 bound_to 7965
  144.7002  140.3620  143.7162 LP  0  0  0  0  0  0  0  0  0  0  0  0  # atno 17321 bound_to 7965
  140.7770  143.5054  150.9719 LP  0  0  0  0  0  0  0  0  0  0  0  0  # atno 17342 bound_to 10162
  139.8742  143.7154  152.3163 LP  0  0  0  0  0  0  0  0  0  0  0  0  # atno 17343 bound_to 10162
  156.1468  130.3642  149.9498 LP  0  0  0  0  0  0  0  0  0  0  0  0  # atno 17370 bound_to 10713
  156.7526  130.9121  151.3638 LP  0  0  0  0  0  0  0  0  0  0  0  0  # atno 17371 bound_to 10713
  141.2217  133.6954  156.7755 LP  0  0  0  0  0  0  0  0  0  0  0  0  # atno 17394 bound_to 11000
  140.2383  134.8633  157.3547 LP  0  0  0  0  0  0  0  0  0  0  0  0  # atno 17395 bound_to 11000

$$$$
