AV-unprocessed.smi:1467|AV-procd|sdf|5955|dock7
  -GOLD-   22720 6 43D 1   1.00000     0.00000
 Structure written by MMmdl.
 40 41  0  0  0  0  0  0  0  0  1 V2000
  151.9567  141.6283  158.3125 C   0  0  0  0  0  0  0  0  0  0  0  0
  152.1360  140.5152  157.2780 C   0  0  0  0  0  0  0  0  0  0  0  0
  152.9464  139.6216  157.5239 O   0  0  0  0  0  0  0  0  0  0  0  0
  151.4074  140.5487  156.1370 N   0  0  0  0  0  0  0  0  0  0  0  0
  150.3845  141.5425  155.7971 C   0  0  0  0  0  0  0  0  0  0  0  0
  149.0167  140.8394  155.6980 C   0  0  0  0  0  0  0  0  0  0  0  0
  149.0586  139.7845  154.6771 N   0  0  0  0  0  0  0  0  0  0  0  0
  147.7767  139.0879  154.5821 C   0  0  0  0  0  0  0  0  0  0  0  0
  147.1069  139.2812  153.2074 C   0  0  0  0  0  0  0  0  0  0  0  0
  147.1109  138.0417  152.4399 N   0  0  0  0  0  0  0  0  0  0  0  0
  146.0285  137.2908  152.1915 C   0  0  0  0  0  0  0  0  0  0  0  0
  144.8986  137.5736  152.5903 O   0  0  0  0  0  0  0  0  0  0  0  0
  146.3421  136.2070  151.4631 N   0  0  0  0  0  0  0  0  0  0  0  0
  145.4619  135.1888  151.0186 C   0  0  0  0  0  0  0  0  0  0  0  0
  145.7253  133.8072  150.7839 C   0  0  0  0  0  0  0  0  0  0  0  0
  144.6358  133.1749  150.3708 N   0  0  0  0  0  0  0  0  0  0  0  0
  143.6842  134.1348  150.3391 N   0  0  0  0  0  0  0  0  0  0  0  0
  144.1438  135.3743  150.7262 C   0  0  0  0  0  0  0  0  0  0  0  0
  150.1035  138.8117  155.0128 C   0  0  0  0  0  0  0  0  0  0  0  0
  151.4749  139.5077  155.1081 C   0  0  0  0  0  0  0  0  0  0  0  0
  142.7367  133.9300  150.0549 H   0  0  0  0  0  0  0  0  0  0  0  0
  150.9304  141.6533  158.6792 H   0  0  0  0  0  0  0  0  0  0  0  0
  152.2044  142.5991  157.8826 H   0  0  0  0  0  0  0  0  0  0  0  0
  152.6121  141.4666  159.1688 H   0  0  0  0  0  0  0  0  0  0  0  0
  150.3168  142.3604  156.5126 H   0  0  0  0  0  0  0  0  0  0  0  0
  150.6386  142.0071  154.8432 H   0  0  0  0  0  0  0  0  0  0  0  0
  148.7410  140.4159  156.6652 H   0  0  0  0  0  0  0  0  0  0  0  0
  148.2604  141.5816  155.4463 H   0  0  0  0  0  0  0  0  0  0  0  0
  147.9467  138.0194  154.7241 H   0  0  0  0  0  0  0  0  0  0  0  0
  147.1155  139.4079  155.3891 H   0  0  0  0  0  0  0  0  0  0  0  0
  146.0804  139.6358  153.3023 H   0  0  0  0  0  0  0  0  0  0  0  0
  147.6459  140.0353  152.6334 H   0  0  0  0  0  0  0  0  0  0  0  0
  148.0002  137.7353  152.0734 H   0  0  0  0  0  0  0  0  0  0  0  0
  147.3108  136.0982  151.2010 H   0  0  0  0  0  0  0  0  0  0  0  0
  146.6420  133.2471  150.8938 H   0  0  0  0  0  0  0  0  0  0  0  0
  143.5119  136.2497  150.7577 H   0  0  0  0  0  0  0  0  0  0  0  0
  149.8668  138.3164  155.9561 H   0  0  0  0  0  0  0  0  0  0  0  0
  150.1436  138.0381  154.2452 H   0  0  0  0  0  0  0  0  0  0  0  0
  151.7392  139.9594  154.1508 H   0  0  0  0  0  0  0  0  0  0  0  0
  152.2462  138.7639  155.3112 H   0  0  0  0  0  0  0  0  0  0  0  0
  1  2  1  0  0  0  0
  1 22  1  0  0  0  0
  1 23  1  0  0  0  0
  1 24  1  0  0  0  0
  2  3  2  0  0  0  0
  2  4  1  0  0  0  0
  4 20  1  0  0  0  0
  4  5  1  0  0  0  0
  5  6  1  0  0  0  0
  5 25  1  0  0  0  0
  5 26  1  0  0  0  0
  6  7  1  0  0  0  0
  6 27  1  0  0  0  0
  6 28  1  0  0  0  0
  7  8  1  0  0  0  0
  7 19  1  0  0  0  0
  8  9  1  0  0  0  0
  8 29  1  0  0  0  0
  8 30  1  0  0  0  0
  9 10  1  0  0  0  0
  9 31  1  0  0  0  0
  9 32  1  0  0  0  0
 10 11  1  0  0  0  0
 10 33  1  0  0  0  0
 11 12  2  0  0  0  0
 11 13  1  0  0  0  0
 13 14  1  0  0  0  0
 13 34  1  0  0  0  0
 14 18  2  0  0  0  0
 14 15  1  0  0  0  0
 15 16  2  0  0  0  0
 15 35  1  0  0  0  0
 16 17  1  0  0  0  0
 17 21  1  0  0  0  0
 17 18  1  0  0  0  0
 18 36  1  0  0  0  0
 19 20  1  0  0  0  0
 19 37  1  0  0  0  0
 19 38  1  0  0  0  0
 20 39  1  0  0  0  0
 20 40  1  0  0  0  0
M  END
> <s_m_source_file>
AV-unprocessed.smi

> <i_m_source_file_index>
1467

> <i_lp_mmshare_version>
43012

> <i_f3d_flags>
0

> <s_epik_input>
W0NIM11DKD1PKU4xW0NIMl1bQ0gyXU4oW0NIMl1bQ0gyXTEpW0NIMl1bQ0gyXVtOSF1DKD1PKVtOSF1jMltjSF1uW25IXVtjSF0y

> <s_epik_cmdline>
J2VwaWtfcHl0aG9uJywgJy1waCcsICc3LjAnLCAnLXRuJywgJzgnLCAnLW1hJywgJzIwMCcsICctbWV0YWxfYmluZGluZycsICctaW1hZScsICc8aW5maWxlLm1hZT4nLCAnLW9tYWUnLCAnPG91dGZpbGUubWFlPic=

> <r_lp_tautomer_probability>
0.5

> <r_epik_Ionization_Penalty>
0.251012

> <r_epik_Ionization_Penalty_Charging>
0

> <r_epik_Ionization_Penalty_Neutral>
0.251012

> <r_epik_State_Penalty>
0.242297

> <r_epik_Charging_Adjusted_Penalty>
0.242297

> <i_epik_Tot_Q>
0

> <i_epik_Tot_abs_Q>
0

> <r_epik_Metal_State_Penalty>
0.242296

> <b_epik_Metal_Only>
0

> <s_lp_Force_Field>
OPLS_2005

> <r_lp_Energy>
35.2163

> <b_lp_Chiralities_Consistent>
1

> <s_lp_Variant>
AV-unprocessed.smi:1467-1

> <Gold.Version>
5.8.1

> <Gold.Id.Protein>
6NUR|6NUR_protein|mol2

> <Gold.PLP.Fitness>
43.9216

> <Gold.PLP.PLP>
-32.3376

> <Gold.PLP.part.hbond>
-4.0000

> <Gold.PLP.part.metal>
0.0000

> <Gold.PLP.part.buried>
-4.8117

> <Gold.PLP.part.nonpolar>
-24.5710

> <Gold.PLP.part.repulsive>
0.9167

> <Gold.PLP.ligand.clash>
0.0000

> <Gold.PLP.ligand.torsion>
1.3524

> <Gold.PLP.Chemscore.Hbond>
3.7600

> <Gold.PLP.Chemscore.CHOScore>
1.0000

> <Gold.PLP.Chemscore.Metal>
0.0000

> <Gold.Chemscore.Hbonds>
donor molecule, donor type, donor heavy atom, donor atom, acceptor molecule, acceptor atom, score
      L1  H    10    33       P1  7948  0.83
      L1  H    13    34       P1  7948  0.88
      L1  H    17    21       P1 10186  1.00
      P1  H  7997  8010       L1     3  1.00
      L1  C    18    36       P1 10171  1.00

> <Gold.PLP.Chemscore.Internal.Correction>
0.0087

> <Gold.Rescore>
     Score         DG    S(hbond)    S(metal)    S(lipo)     H(rot)  DE(clash)    DE(int)     intcor
     19.01     -20.59       3.74        0.00      59.93       1.72       0.05       1.53       ----

> <Gold.Chemscore.Fitness>
19.0098

> <Gold.Chemscore.DG>
-20.5873

> <Gold.Chemscore.ZeroCoef>
-5.4800

> <Gold.Chemscore.Hbond>
3.7394

> <Gold.Chemscore.Metal>
0.0000

> <Gold.Chemscore.Lipo>
59.9344

> <Gold.Chemscore.Internal_Hbond>
0.0000

> <Gold.Chemscore.DEClash>
0.0455

> <Gold.Chemscore.DEInternal>
1.5320

> <Gold.Chemscore.Rot>
1.7167

> <Gold.Chemscore.Internal.Correction>
   9.000000E+99

> <Gold.Chemscore.Hbonds>
donor molecule, donor type, donor heavy atom, donor atom, acceptor molecule, acceptor atom, score
      L1  H    10    33       P1  7948  0.81
      L1  H    13    34       P1  7948  0.86
      L1  H    17    21       P1 10186  0.97
      P1  H  7997  8010       L1     3  0.60

> <Gold.Chemscore.Hbond.Weighted>
-12.4896

> <Gold.Chemscore.Metal.Weighted>
-0.0000

> <Gold.Chemscore.Lipo.Weighted>
-7.0123

> <Gold.Chemscore.Internal_Hbond.Weighted>
0.0000

> <Gold.Chemscore.DEClash.Weighted>
0.0455

> <Gold.Chemscore.DEInternal.Weighted>
1.5320

> <Gold.Chemscore.Rot.Weighted>
4.3947

> <Gold.Chemscore.Internal.Correction.Weighted>
   9.000000E+99

> <Gold.Protein.RotatedTorsions>
[ 6907 6896 6895 6894 ] final  127.15 input  -60.11 | X-H torsion
[ 7974 7965 7964 7962 ] final   82.91 input  175.53 | X-H torsion
[ 8008 7997 7996 7995 ] final   50.68 input   59.86 | X-H torsion
[ 10167 10162 10161 10158 ] final -111.88 input  -65.29 | X-H torsion
[ 10718 10713 10712 10709 ] final  -49.71 input   66.30 | X-H torsion
[ 10763 10752 10751 10750 ] final  -43.41 input  -60.55 | X-H torsion
[ 11005 11000 10999 10996 ] final   73.36 input  -57.11 | X-H torsion

> <Gold.Protein.ActiveResidues>
 VAL166  LYS551  ARG553  GLY616  TRP617  ASP618  TYR619  PRO620  LYS621  CYS622 
 ASP623  PHE694  ASN695  SER759  ASP760  ASP761  ALA762  ILE779  LEU786  VAL792 
 PHE793  MET794  SER795  GLU796  ALA797  LYS798  CYS799  TRP800  GLU811  SER814 

> <Gold.Protein.RotatedAtoms>
  152.3839  133.6584  159.6182 H   0  0  0  0  0  0  0  0  0  0  0  0  # atno 6907 bound_to 6896
  150.7763  133.9068  159.3366 H   0  0  0  0  0  0  0  0  0  0  0  0  # atno 6908 bound_to 6896
  151.6868  135.0954  160.0277 H   0  0  0  0  0  0  0  0  0  0  0  0  # atno 6909 bound_to 6896
  145.6188  139.2382  143.2150 H   0  0  0  0  0  0  0  0  0  0  0  0  # atno 7974 bound_to 7965
  155.4228  140.3447  155.4273 H   0  0  0  0  0  0  0  0  0  0  0  0  # atno 8008 bound_to 7997
  156.1383  140.1534  156.8991 H   0  0  0  0  0  0  0  0  0  0  0  0  # atno 8009 bound_to 7997
  154.4950  140.0830  156.7657 H   0  0  0  0  0  0  0  0  0  0  0  0  # atno 8010 bound_to 7997
  140.1288  143.4379  152.1642 H   0  0  0  0  0  0  0  0  0  0  0  0  # atno 10167 bound_to 10162
  156.1868  130.4151  149.9428 H   0  0  0  0  0  0  0  0  0  0  0  0  # atno 10718 bound_to 10713
  153.9951  135.6700  153.4756 H   0  0  0  0  0  0  0  0  0  0  0  0  # atno 10763 bound_to 10752
  153.0687  135.4986  154.8254 H   0  0  0  0  0  0  0  0  0  0  0  0  # atno 10764 bound_to 10752
  154.7086  135.3093  154.9195 H   0  0  0  0  0  0  0  0  0  0  0  0  # atno 10765 bound_to 10752
  139.9444  134.7340  156.1017 H   0  0  0  0  0  0  0  0  0  0  0  0  # atno 11005 bound_to 11000
  146.1447  140.7009  142.9350 LP  0  0  0  0  0  0  0  0  0  0  0  0  # atno 17320 bound_to 7965
  144.7239  140.4463  143.6987 LP  0  0  0  0  0  0  0  0  0  0  0  0  # atno 17321 bound_to 7965
  139.5530  144.7352  151.4377 LP  0  0  0  0  0  0  0  0  0  0  0  0  # atno 17342 bound_to 10162
  140.6829  143.8040  150.7146 LP  0  0  0  0  0  0  0  0  0  0  0  0  # atno 17343 bound_to 10162
  156.7181  130.8996  151.3615 LP  0  0  0  0  0  0  0  0  0  0  0  0  # atno 17370 bound_to 10713
  157.6904  130.9227  150.0497 LP  0  0  0  0  0  0  0  0  0  0  0  0  # atno 17371 bound_to 10713
  141.1089  133.6650  156.2931 LP  0  0  0  0  0  0  0  0  0  0  0  0  # atno 17394 bound_to 11000
  140.5872  134.5687  157.5492 LP  0  0  0  0  0  0  0  0  0  0  0  0  # atno 17395 bound_to 11000

$$$$
