AV-unprocessed.smi:866|AV-procd|sdf|3993|dock4
  -GOLD-   22720 1473D 1   1.00000     0.00000
 Structure written by MMmdl.
 34 34  0  0  0  0  0  0  0  0  2 V2000
  151.8273  145.7642  160.0173 C   0  0  0  0  0  0  0  0  0  0  0  0
  151.8402  144.4320  159.3243 C   0  0  0  0  0  0  0  0  0  0  0  0
  152.4700  143.2291  159.7535 C   0  0  0  0  0  0  0  0  0  0  0  0
  152.2904  142.2255  158.9100 N   0  0  0  0  0  0  0  0  0  0  0  0
  151.5449  142.7507  157.9153 N   0  0  0  0  0  0  0  0  0  0  0  0
  151.1454  141.9161  156.7990 C   0  0  0  0  0  0  0  0  0  0  0  0
  149.6258  141.6985  156.7637 C   0  0  0  0  0  0  0  0  0  0  0  0
  149.0696  142.0890  155.4512 N   0  3  0  0  0  0  0  0  0  0  0  0
  147.7546  141.4977  155.1140 C   0  0  1  0  0  0  0  0  0  0  0  0
  147.2353  142.0350  153.7652 C   0  0  0  0  0  0  0  0  0  0  0  0
  147.8762  139.9563  155.1217 C   0  0  0  0  0  0  0  0  0  0  0  0
  148.9255  139.4030  154.1495 C   0  0  0  0  0  0  0  0  0  0  0  0
  148.4968  138.5478  153.2180 N   0  0  0  0  0  0  0  0  0  0  0  0
  150.1037  139.7438  154.2311 O   0  0  0  0  0  0  0  0  0  0  0  0
  151.2566  144.0799  158.1404 C   0  0  0  0  0  0  0  0  0  0  0  0
  152.0769  145.6732  161.0746 H   0  0  0  0  0  0  0  0  0  0  0  0
  150.8479  146.2398  159.9598 H   0  0  0  0  0  0  0  0  0  0  0  0
  152.5468  146.4535  159.5754 H   0  0  0  0  0  0  0  0  0  0  0  0
  153.0490  143.0567  160.6491 H   0  0  0  0  0  0  0  0  0  0  0  0
  151.4873  142.3872  155.8762 H   0  0  0  0  0  0  0  0  0  0  0  0
  151.6643  140.9597  156.8782 H   0  0  0  0  0  0  0  0  0  0  0  0
  149.3988  140.6489  156.9556 H   0  0  0  0  0  0  0  0  0  0  0  0
  149.1513  142.2815  157.5528 H   0  0  0  0  0  0  0  0  0  0  0  0
  148.9971  143.0955  155.4073 H   0  0  0  0  0  0  0  0  0  0  0  0
  147.0569  141.7908  155.9004 H   0  0  0  0  0  0  0  0  0  0  0  0
  146.2655  141.6071  153.5109 H   0  0  0  0  0  0  0  0  0  0  0  0
  147.9232  141.7971  152.9532 H   0  0  0  0  0  0  0  0  0  0  0  0
  147.1030  143.1164  153.7827 H   0  0  0  0  0  0  0  0  0  0  0  0
  148.0900  139.6065  156.1332 H   0  0  0  0  0  0  0  0  0  0  0  0
  146.9197  139.5133  154.8409 H   0  0  0  0  0  0  0  0  0  0  0  0
  149.1458  138.1498  152.5543 H   0  0  0  0  0  0  0  0  0  0  0  0
  147.5188  138.2972  153.1823 H   0  0  0  0  0  0  0  0  0  0  0  0
  150.6659  144.6608  157.4472 H   0  0  0  0  0  0  0  0  0  0  0  0
  149.7277  141.7852  154.7478 H   0  0  0  0  0  0  0  0  0  0  0  0
  1  2  1  0  0  0  0
  1 16  1  0  0  0  0
  1 17  1  0  0  0  0
  1 18  1  0  0  0  0
  2 15  2  0  0  0  0
  2  3  1  0  0  0  0
  3  4  2  0  0  0  0
  3 19  1  0  0  0  0
  4  5  1  0  0  0  0
  5  6  1  0  0  0  0
  5 15  1  0  0  0  0
  6  7  1  0  0  0  0
  6 20  1  0  0  0  0
  6 21  1  0  0  0  0
  7  8  1  0  0  0  0
  7 22  1  0  0  0  0
  7 23  1  0  0  0  0
  8  9  1  0  0  0  0
  8 24  1  0  0  0  0
  8 34  1  0  0  0  0
  9 10  1  0  0  0  0
  9 11  1  0  0  0  0
  9 25  1  0  0  0  0
 10 26  1  0  0  0  0
 10 27  1  0  0  0  0
 10 28  1  0  0  0  0
 11 12  1  0  0  0  0
 11 29  1  0  0  0  0
 11 30  1  0  0  0  0
 12 13  1  0  0  0  0
 12 14  2  0  0  0  0
 13 31  1  0  0  0  0
 13 32  1  0  0  0  0
 15 33  1  0  0  0  0
M  CHG  1   8   1
M  END
> <s_m_source_file>
AV-unprocessed.smi

> <i_m_source_file_index>
866

> <i_lp_mmshare_version>
43012

> <i_f3d_flags>
0

> <s_epik_input>
W0NIM11jMVtjSF1ubihbY0hdMSlbQ0gyXVtDSDJdW05IXVtDQEhdKFtDSDNdKVtDSDJdQyg9TylbTkgyXQ==

> <s_epik_cmdline>
J2VwaWtfcHl0aG9uJywgJy1waCcsICc3LjAnLCAnLXRuJywgJzgnLCAnLW1hJywgJzIwMCcsICctbWV0YWxfYmluZGluZycsICctaW1hZScsICc8aW5maWxlLm1hZT4nLCAnLW9tYWUnLCAnPG91dGZpbGUubWFlPic=

> <r_lp_tautomer_probability>
1

> <r_epik_Ionization_Penalty>
0.0061413

> <r_epik_Ionization_Penalty_Charging>
0.00613574

> <r_epik_Ionization_Penalty_Neutral>
5.56035e-06

> <r_epik_State_Penalty>
0.00452343

> <r_epik_Charging_Adjusted_Penalty>
0.0106592

> <i_epik_Tot_Q>
1

> <i_epik_Tot_abs_Q>
1

> <r_epik_Metal_State_Penalty>
-0

> <b_epik_Metal_Only>
0

> <s_lp_Force_Field>
OPLS_2005

> <r_lp_Energy>
3.04196

> <b_lp_Chiralities_Consistent>
1

> <s_lp_Variant>
AV-unprocessed.smi:866-2

> <Gold.Version>
5.8.1

> <Gold.Id.Protein>
6NUR|6NUR_protein|mol2

> <Gold.PLP.Fitness>
47.5721

> <Gold.PLP.PLP>
-35.0954

> <Gold.PLP.part.hbond>
-4.0000

> <Gold.PLP.part.metal>
0.0000

> <Gold.PLP.part.buried>
-5.6185

> <Gold.PLP.part.nonpolar>
-25.7545

> <Gold.PLP.part.repulsive>
0.7528

> <Gold.PLP.ligand.clash>
0.0000

> <Gold.PLP.ligand.torsion>
0.5183

> <Gold.PLP.Chemscore.Hbond>
3.4758

> <Gold.PLP.Chemscore.CHOScore>
1.0000

> <Gold.PLP.Chemscore.Metal>
0.0000

> <Gold.Chemscore.Hbonds>
donor molecule, donor type, donor heavy atom, donor atom, acceptor molecule, acceptor atom, score
      L1  H     8    24       P1  8028  2.00
      L1  H    13    31       P1  7948  0.48
      P1  H  7989  7998       L1    14  1.00
      L1  C    15    33       P1  8028  1.00

> <Gold.PLP.Chemscore.Internal.Correction>
0.0860

> <Gold.Rescore>
     Score         DG    S(hbond)    S(metal)    S(lipo)     H(rot)  DE(clash)    DE(int)     intcor
     13.73     -15.82       2.44        0.00      79.33       2.77       0.21       1.88       ----

> <Gold.Chemscore.Fitness>
13.7279

> <Gold.Chemscore.DG>
-15.8235

> <Gold.Chemscore.ZeroCoef>
-5.4800

> <Gold.Chemscore.Hbond>
2.4442

> <Gold.Chemscore.Metal>
0.0000

> <Gold.Chemscore.Lipo>
79.3271

> <Gold.Chemscore.Internal_Hbond>
0.0000

> <Gold.Chemscore.DEClash>
0.2143

> <Gold.Chemscore.DEInternal>
1.8814

> <Gold.Chemscore.Rot>
2.7740

> <Gold.Chemscore.Internal.Correction>
   9.000000E+99

> <Gold.Chemscore.Hbonds>
donor molecule, donor type, donor heavy atom, donor atom, acceptor molecule, acceptor atom, score
      L1  H     8    24       P1  8028  1.00
      L1  H    13    31       P1  7948  0.44
      P1  H  7989  7998       L1    14  0.92

> <Gold.Chemscore.Hbond.Weighted>
-8.1637

> <Gold.Chemscore.Metal.Weighted>
-0.0000

> <Gold.Chemscore.Lipo.Weighted>
-9.2813

> <Gold.Chemscore.Internal_Hbond.Weighted>
0.0000

> <Gold.Chemscore.DEClash.Weighted>
0.2143

> <Gold.Chemscore.DEInternal.Weighted>
1.8814

> <Gold.Chemscore.Rot.Weighted>
7.1014

> <Gold.Chemscore.Internal.Correction.Weighted>
   9.000000E+99

> <Gold.Protein.RotatedTorsions>
[ 6907 6896 6895 6894 ] final  125.56 input  -60.11 | X-H torsion
[ 7974 7965 7964 7962 ] final -167.65 input  175.53 | X-H torsion
[ 8008 7997 7996 7995 ] final   13.89 input   59.86 | X-H torsion
[ 10167 10162 10161 10158 ] final  145.48 input  -65.29 | X-H torsion
[ 10718 10713 10712 10709 ] final -100.99 input   66.30 | X-H torsion
[ 10763 10752 10751 10750 ] final -163.86 input  -60.55 | X-H torsion
[ 11005 11000 10999 10996 ] final   91.43 input  -57.11 | X-H torsion

> <Gold.Protein.ActiveResidues>
 VAL166  LYS551  ARG553  GLY616  TRP617  ASP618  TYR619  PRO620  LYS621  CYS622 
 ASP623  PHE694  ASN695  SER759  ASP760  ASP761  ALA762  ILE779  LEU786  VAL792 
 PHE793  MET794  SER795  GLU796  ALA797  LYS798  CYS799  TRP800  GLU811  SER814 

> <Gold.Protein.RotatedAtoms>
  152.3981  133.6776  159.6292 H   0  0  0  0  0  0  0  0  0  0  0  0  # atno 6907 bound_to 6896
  150.7876  133.8839  159.3302 H   0  0  0  0  0  0  0  0  0  0  0  0  # atno 6908 bound_to 6896
  151.6611  135.0990  160.0231 H   0  0  0  0  0  0  0  0  0  0  0  0  # atno 6909 bound_to 6896
  144.7219  140.2488  143.6281 H   0  0  0  0  0  0  0  0  0  0  0  0  # atno 7974 bound_to 7965
  154.8408  140.2914  155.5660 H   0  0  0  0  0  0  0  0  0  0  0  0  # atno 8008 bound_to 7997
  156.3011  140.2514  156.3282 H   0  0  0  0  0  0  0  0  0  0  0  0  # atno 8009 bound_to 7997
  154.9127  140.0388  157.1944 H   0  0  0  0  0  0  0  0  0  0  0  0  # atno 8010 bound_to 7997
  139.4925  144.5899  151.6702 H   0  0  0  0  0  0  0  0  0  0  0  0  # atno 10167 bound_to 10162
  156.0180  130.5353  150.6898 H   0  0  0  0  0  0  0  0  0  0  0  0  # atno 10718 bound_to 10713
  154.7083  135.3001  154.9236 H   0  0  0  0  0  0  0  0  0  0  0  0  # atno 10763 bound_to 10752
  154.0146  135.6690  153.4772 H   0  0  0  0  0  0  0  0  0  0  0  0  # atno 10764 bound_to 10752
  153.0735  135.5048  154.8267 H   0  0  0  0  0  0  0  0  0  0  0  0  # atno 10765 bound_to 10752
  139.8839  134.8673  156.3427 H   0  0  0  0  0  0  0  0  0  0  0  0  # atno 11005 bound_to 11000
  145.8249  139.2060  143.1917 LP  0  0  0  0  0  0  0  0  0  0  0  0  # atno 17320 bound_to 7965
  146.0482  140.8096  142.9795 LP  0  0  0  0  0  0  0  0  0  0  0  0  # atno 17321 bound_to 7965
  140.5523  144.0405  150.6132 LP  0  0  0  0  0  0  0  0  0  0  0  0  # atno 17342 bound_to 10162
  140.3463  143.2989  152.0535 LP  0  0  0  0  0  0  0  0  0  0  0  0  # atno 17343 bound_to 10162
  157.4582  131.0880  151.0774 LP  0  0  0  0  0  0  0  0  0  0  0  0  # atno 17370 bound_to 10713
  157.1269  130.6086  149.5519 LP  0  0  0  0  0  0  0  0  0  0  0  0  # atno 17371 bound_to 10713
  140.9648  133.7365  156.0451 LP  0  0  0  0  0  0  0  0  0  0  0  0  # atno 17394 bound_to 11000
  140.7945  134.3579  157.5456 LP  0  0  0  0  0  0  0  0  0  0  0  0  # atno 17395 bound_to 11000

$$$$
