AV-unprocessed.smi:1677|AV-procd|sdf|6724|dock3
  -GOLD-   22720 7463D 1   1.00000     0.00000
 Structure written by MMmdl.
 36 37  0  0  0  0  0  0  0  0  1 V2000
  149.9918  139.9771  154.9180 C   0  0  0  0  0  0  0  0  0  0  0  0
  149.0110  141.0697  155.3650 C   0  0  2  0  0  0  0  0  0  0  0  0
  148.3030  141.7187  154.1574 C   0  0  0  0  0  0  0  0  0  0  0  0
  146.9994  142.2593  154.4982 N   0  0  0  0  0  0  0  0  0  0  0  0
  146.0942  142.8679  153.6390 C   0  0  0  0  0  0  0  0  0  0  0  0
  144.9973  143.2054  154.3990 C   0  0  0  0  0  0  0  0  0  0  0  0
  145.2065  142.8213  155.7216 N   0  0  0  0  0  0  0  0  0  0  0  0
  146.4136  142.2715  155.7036 C   0  0  0  0  0  0  0  0  0  0  0  0
  149.7378  142.0743  156.1405 N   0  0  0  0  0  0  0  0  0  0  0  0
  150.6715  141.8208  157.0719 C   0  0  0  0  0  0  0  0  0  0  0  0
  151.0541  140.6853  157.3558 O   0  0  0  0  0  0  0  0  0  0  0  0
  151.2434  143.0349  157.8142 C   0  0  2  0  0  0  0  0  0  0  0  0
  152.3984  142.6256  158.7569 C   0  0  0  0  0  0  0  0  0  0  0  0
  152.8036  143.7538  159.6888 C   0  0  0  0  0  0  0  0  0  0  0  0
  152.0419  144.8387  159.9110 C   0  0  0  0  0  0  0  0  0  0  0  0
  150.6884  145.0579  159.2584 C   0  0  0  0  0  0  0  0  0  0  0  0
  150.1433  143.7760  158.6007 C   0  0  0  0  0  0  0  0  0  0  0  0
  149.4775  139.1917  154.3635 H   0  0  0  0  0  0  0  0  0  0  0  0
  150.4758  139.5094  155.7762 H   0  0  0  0  0  0  0  0  0  0  0  0
  150.7729  140.3822  154.2735 H   0  0  0  0  0  0  0  0  0  0  0  0
  148.2588  140.5876  155.9922 H   0  0  0  0  0  0  0  0  0  0  0  0
  148.9163  142.5161  153.7349 H   0  0  0  0  0  0  0  0  0  0  0  0
  148.1610  140.9816  153.3660 H   0  0  0  0  0  0  0  0  0  0  0  0
  146.2971  142.9996  152.5866 H   0  0  0  0  0  0  0  0  0  0  0  0
  144.0809  143.6908  154.0979 H   0  0  0  0  0  0  0  0  0  0  0  0
  146.8784  141.8577  156.5866 H   0  0  0  0  0  0  0  0  0  0  0  0
  149.4902  143.0391  155.9758 H   0  0  0  0  0  0  0  0  0  0  0  0
  151.6432  143.7301  157.0733 H   0  0  0  0  0  0  0  0  0  0  0  0
  152.1245  141.7670  159.3715 H   0  0  0  0  0  0  0  0  0  0  0  0
  153.2681  142.3307  158.1687 H   0  0  0  0  0  0  0  0  0  0  0  0
  153.7504  143.6489  160.1977 H   0  0  0  0  0  0  0  0  0  0  0  0
  152.3925  145.6134  160.5771 H   0  0  0  0  0  0  0  0  0  0  0  0
  149.9823  145.4206  160.0057 H   0  0  0  0  0  0  0  0  0  0  0  0
  150.7964  145.8470  158.5135 H   0  0  0  0  0  0  0  0  0  0  0  0
  149.3017  144.0249  157.9522 H   0  0  0  0  0  0  0  0  0  0  0  0
  149.7470  143.1191  159.3769 H   0  0  0  0  0  0  0  0  0  0  0  0
  1  2  1  0  0  0  0
  1 18  1  0  0  0  0
  1 19  1  0  0  0  0
  1 20  1  0  0  0  0
  2  3  1  0  0  0  0
  2  9  1  0  0  0  0
  2 21  1  0  0  0  0
  3  4  1  0  0  0  0
  3 22  1  0  0  0  0
  3 23  1  0  0  0  0
  4  8  1  0  0  0  0
  4  5  1  0  0  0  0
  5  6  2  0  0  0  0
  5 24  1  0  0  0  0
  6  7  1  0  0  0  0
  6 25  1  0  0  0  0
  7  8  2  0  0  0  0
  8 26  1  0  0  0  0
  9 10  1  0  0  0  0
  9 27  1  0  0  0  0
 10 11  2  0  0  0  0
 10 12  1  0  0  0  0
 12 17  1  0  0  0  0
 12 13  1  0  0  0  0
 12 28  1  0  0  0  0
 13 14  1  0  0  0  0
 13 29  1  0  0  0  0
 13 30  1  0  0  0  0
 14 15  2  0  0  0  0
 14 31  1  0  0  0  0
 15 16  1  0  0  0  0
 15 32  1  0  0  0  0
 16 17  1  0  0  0  0
 16 33  1  0  0  0  0
 16 34  1  0  0  0  0
 17 35  1  0  0  0  0
 17 36  1  0  0  0  0
M  END
> <s_m_source_file>
AV-unprocessed.smi

> <i_m_source_file_index>
1677

> <i_lp_mmshare_version>
43012

> <i_f3d_flags>
0

> <s_epik_input>
W2NIXTFuW2NIXVtjSF1uMVtDSDJdW0NAQEhdKFtDSDNdKVtOSF1DKD1PKVtDQEBIXTJbQ0gyXVtDSF09W0NIXVtDSDJdW0NIMl0y

> <s_epik_cmdline>
J2VwaWtfcHl0aG9uJywgJy1waCcsICc3LjAnLCAnLXRuJywgJzgnLCAnLW1hJywgJzIwMCcsICctbWV0YWxfYmluZGluZycsICctaW1hZScsICc8aW5maWxlLm1hZT4nLCAnLW9tYWUnLCAnPG91dGZpbGUubWFlPic=

> <r_lp_tautomer_probability>
1

> <r_epik_Ionization_Penalty>
0.640435

> <r_epik_Ionization_Penalty_Charging>
0.640435

> <r_epik_Ionization_Penalty_Neutral>
2.11108e-08

> <r_epik_State_Penalty>
0.658069

> <r_epik_Charging_Adjusted_Penalty>
1.2985

> <i_epik_Tot_Q>
0

> <i_epik_Tot_abs_Q>
0

> <r_epik_Metal_State_Penalty>
0.311689

> <b_epik_Metal_Only>
0

> <s_lp_Force_Field>
OPLS_2005

> <r_lp_Energy>
9.8402

> <b_lp_Chiralities_Consistent>
1

> <s_lp_Variant>
AV-unprocessed.smi:1677-5

> <Gold.Version>
5.8.1

> <Gold.Id.Protein>
6NUR|6NUR_protein|mol2

> <Gold.PLP.Fitness>
43.4066

> <Gold.PLP.PLP>
-40.1731

> <Gold.PLP.part.hbond>
-1.0000

> <Gold.PLP.part.metal>
0.0000

> <Gold.PLP.part.buried>
-5.2277

> <Gold.PLP.part.nonpolar>
-35.3615

> <Gold.PLP.part.repulsive>
0.2436

> <Gold.PLP.ligand.clash>
0.0000

> <Gold.PLP.ligand.torsion>
0.5554

> <Gold.PLP.Chemscore.Hbond>
1.0000

> <Gold.PLP.Chemscore.CHOScore>
0.4398

> <Gold.PLP.Chemscore.Metal>
0.0000

> <Gold.Chemscore.Hbonds>
donor molecule, donor type, donor heavy atom, donor atom, acceptor molecule, acceptor atom, score
      L1  H     9    27       P1  8028  1.00
      L1  C     6    25       P1 10174  0.43

> <Gold.PLP.Chemscore.Internal.Correction>
0.0248

> <Gold.Rescore>
     Score         DG    S(hbond)    S(metal)    S(lipo)     H(rot)  DE(clash)    DE(int)     intcor
     14.12     -15.97       1.00        0.00      99.31       1.75       0.09       1.75       ----

> <Gold.Chemscore.Fitness>
14.1197

> <Gold.Chemscore.DG>
-15.9660

> <Gold.Chemscore.ZeroCoef>
-5.4800

> <Gold.Chemscore.Hbond>
1.0000

> <Gold.Chemscore.Metal>
0.0000

> <Gold.Chemscore.Lipo>
99.3123

> <Gold.Chemscore.Internal_Hbond>
0.0000

> <Gold.Chemscore.DEClash>
0.0922

> <Gold.Chemscore.DEInternal>
1.7540

> <Gold.Chemscore.Rot>
1.7475

> <Gold.Chemscore.Internal.Correction>
   9.000000E+99

> <Gold.Chemscore.Hbonds>
donor molecule, donor type, donor heavy atom, donor atom, acceptor molecule, acceptor atom, score
      L1  H     9    27       P1  8028  1.00

> <Gold.Chemscore.Hbond.Weighted>
-3.3399

> <Gold.Chemscore.Metal.Weighted>
-0.0000

> <Gold.Chemscore.Lipo.Weighted>
-11.6195

> <Gold.Chemscore.Internal_Hbond.Weighted>
0.0000

> <Gold.Chemscore.DEClash.Weighted>
0.0922

> <Gold.Chemscore.DEInternal.Weighted>
1.7540

> <Gold.Chemscore.Rot.Weighted>
4.4735

> <Gold.Chemscore.Internal.Correction.Weighted>
   9.000000E+99

> <Gold.Protein.RotatedTorsions>
[ 6907 6896 6895 6894 ] final -124.31 input  -60.11 | X-H torsion
[ 7974 7965 7964 7962 ] final -147.73 input  175.53 | X-H torsion
[ 8008 7997 7996 7995 ] final -142.18 input   59.86 | X-H torsion
[ 10167 10162 10161 10158 ] final  -11.57 input  -65.29 | X-H torsion
[ 10718 10713 10712 10709 ] final   46.31 input   66.30 | X-H torsion
[ 10763 10752 10751 10750 ] final -153.51 input  -60.55 | X-H torsion
[ 11005 11000 10999 10996 ] final -172.61 input  -57.11 | X-H torsion

> <Gold.Protein.ActiveResidues>
 VAL166  LYS551  ARG553  GLY616  TRP617  ASP618  TYR619  PRO620  LYS621  CYS622 
 ASP623  PHE694  ASN695  SER759  ASP760  ASP761  ALA762  ILE779  LEU786  VAL792 
 PHE793  MET794  SER795  GLU796  ALA797  LYS798  CYS799  TRP800  GLU811  SER814 

> <Gold.Protein.RotatedAtoms>
  150.8756  133.7444  159.2947 H   0  0  0  0  0  0  0  0  0  0  0  0  # atno 6907 bound_to 6896
  151.5042  135.1061  159.9846 H   0  0  0  0  0  0  0  0  0  0  0  0  # atno 6908 bound_to 6896
  152.4725  133.8017  159.7012 H   0  0  0  0  0  0  0  0  0  0  0  0  # atno 6909 bound_to 6896
  144.8074  140.5288  143.5665 H   0  0  0  0  0  0  0  0  0  0  0  0  # atno 7974 bound_to 7965
  155.4901  140.0567  157.2955 H   0  0  0  0  0  0  0  0  0  0  0  0  # atno 8008 bound_to 7997
  154.4627  140.2004  156.0153 H   0  0  0  0  0  0  0  0  0  0  0  0  # atno 8009 bound_to 7997
  156.0918  140.3232  155.7830 H   0  0  0  0  0  0  0  0  0  0  0  0  # atno 8010 bound_to 7997
  140.7141  143.5625  150.9180 H   0  0  0  0  0  0  0  0  0  0  0  0  # atno 10167 bound_to 10162
  157.4468  130.8114  149.7748 H   0  0  0  0  0  0  0  0  0  0  0  0  # atno 10718 bound_to 10713
  154.7923  135.3211  154.7749 H   0  0  0  0  0  0  0  0  0  0  0  0  # atno 10763 bound_to 10752
  153.8435  135.6869  153.4804 H   0  0  0  0  0  0  0  0  0  0  0  0  # atno 10764 bound_to 10752
  153.1598  135.4665  154.9697 H   0  0  0  0  0  0  0  0  0  0  0  0  # atno 10765 bound_to 10752
  140.4950  134.5948  157.4968 H   0  0  0  0  0  0  0  0  0  0  0  0  # atno 11005 bound_to 11000
  145.5405  139.1475  143.3450 LP  0  0  0  0  0  0  0  0  0  0  0  0  # atno 17320 bound_to 7965
  146.2368  140.5544  142.8951 LP  0  0  0  0  0  0  0  0  0  0  0  0  # atno 17321 bound_to 7965
  139.9351  143.6448  152.3067 LP  0  0  0  0  0  0  0  0  0  0  0  0  # atno 17342 bound_to 10162
  139.6912  144.7646  151.1435 LP  0  0  0  0  0  0  0  0  0  0  0  0  # atno 17343 bound_to 10162
  155.9970  130.3902  150.2755 LP  0  0  0  0  0  0  0  0  0  0  0  0  # atno 17370 bound_to 10713
  157.0924  131.0173  151.3117 LP  0  0  0  0  0  0  0  0  0  0  0  0  # atno 17371 bound_to 10713
  139.9746  134.7236  155.9974 LP  0  0  0  0  0  0  0  0  0  0  0  0  # atno 17394 bound_to 11000
  141.1464  133.6555  156.3882 LP  0  0  0  0  0  0  0  0  0  0  0  0  # atno 17395 bound_to 11000

$$$$
