AV-unprocessed.smi:2707|AV-procd|sdf|10457|dock1
  -GOLD-   2272014493D 1   1.00000     0.00000
 Structure written by MMmdl.
 44 45  0  0  0  0  0  0  0  0  1 V2000
  142.7814  140.2750  156.6876 C   0  0  0  0  0  0  0  0  0  0  0  0
  143.5865  140.8195  157.8893 C   0  0  2  0  0  0  0  0  0  0  0  0
  144.9835  141.0446  157.4991 N   0  0  0  0  0  0  0  0  0  0  0  0
  145.9600  141.6052  158.2320 C   0  0  0  0  0  0  0  0  0  0  0  0
  145.8069  142.0054  159.3860 O   0  0  0  0  0  0  0  0  0  0  0  0
  147.1089  141.6684  157.5367 N   0  0  0  0  0  0  0  0  0  0  0  0
  148.3523  142.2145  157.9506 C   0  0  0  0  0  0  0  0  0  0  0  0
  149.4731  141.8027  157.2016 C   0  0  0  0  0  0  0  0  0  0  0  0
  150.7353  142.3120  157.5499 C   0  0  0  0  0  0  0  0  0  0  0  0
  150.8050  143.2109  158.6382 C   0  0  0  0  0  0  0  0  0  0  0  0
  152.1195  143.8511  159.1199 C   0  0  0  0  0  0  0  0  0  0  0  0
  153.0764  142.7550  159.6328 C   0  0  0  0  0  0  0  0  0  0  0  0
  151.8225  144.8602  160.2486 C   0  0  0  0  0  0  0  0  0  0  0  0
  152.8509  144.6171  157.9943 C   0  0  0  0  0  0  0  0  0  0  0  0
  149.6909  143.5650  159.3242 N   0  0  0  0  0  0  0  0  0  0  0  0
  148.4933  143.0777  158.9876 N   0  0  0  0  0  0  0  0  0  0  0  0
  143.5631  139.7862  159.0419 C   0  0  0  0  0  0  0  0  0  0  0  0
  142.2216  139.8530  159.7859 C   0  0  0  0  0  0  0  0  0  0  0  0
  141.6300  141.5765  159.6140 S   0  0  0  0  0  0  0  0  0  0  0  0
  140.3374  141.5679  158.9125 O   0  0  0  0  0  0  0  0  0  0  0  0
  141.7936  142.2861  160.8919 O   0  0  0  0  0  0  0  0  0  0  0  0
  142.9484  142.1074  158.4582 C   0  0  0  0  0  0  0  0  0  0  0  0
  141.7557  140.0315  156.9651 H   0  0  0  0  0  0  0  0  0  0  0  0
  143.2344  139.3675  156.2872 H   0  0  0  0  0  0  0  0  0  0  0  0
  142.7257  140.9992  155.8748 H   0  0  0  0  0  0  0  0  0  0  0  0
  145.2266  140.7526  156.5639 H   0  0  0  0  0  0  0  0  0  0  0  0
  147.0879  141.2997  156.5977 H   0  0  0  0  0  0  0  0  0  0  0  0
  149.3716  141.1151  156.3745 H   0  0  0  0  0  0  0  0  0  0  0  0
  151.6029  142.0094  156.9846 H   0  0  0  0  0  0  0  0  0  0  0  0
  154.0244  143.1793  159.9653 H   0  0  0  0  0  0  0  0  0  0  0  0
  153.2975  142.0263  158.8522 H   0  0  0  0  0  0  0  0  0  0  0  0
  152.6542  142.2116  160.4787 H   0  0  0  0  0  0  0  0  0  0  0  0
  151.3628  144.3792  161.1125 H   0  0  0  0  0  0  0  0  0  0  0  0
  151.1435  145.6431  159.9092 H   0  0  0  0  0  0  0  0  0  0  0  0
  152.7342  145.3453  160.5992 H   0  0  0  0  0  0  0  0  0  0  0  0
  153.7782  145.0618  158.3577 H   0  0  0  0  0  0  0  0  0  0  0  0
  152.2421  145.4313  157.5989 H   0  0  0  0  0  0  0  0  0  0  0  0
  153.1167  143.9601  157.1652 H   0  0  0  0  0  0  0  0  0  0  0  0
  143.7741  138.7749  158.6922 H   0  0  0  0  0  0  0  0  0  0  0  0
  144.3503  140.0343  159.7558 H   0  0  0  0  0  0  0  0  0  0  0  0
  141.4851  139.1959  159.3235 H   0  0  0  0  0  0  0  0  0  0  0  0
  142.3089  139.5886  160.8399 H   0  0  0  0  0  0  0  0  0  0  0  0
  143.6727  142.6821  159.0365 H   0  0  0  0  0  0  0  0  0  0  0  0
  142.5299  142.7622  157.6932 H   0  0  0  0  0  0  0  0  0  0  0  0
  1  2  1  0  0  0  0
  1 23  1  0  0  0  0
  1 24  1  0  0  0  0
  1 25  1  0  0  0  0
  2 22  1  0  0  0  0
  2  3  1  0  0  0  0
  2 17  1  0  0  0  0
  3  4  1  0  0  0  0
  3 26  1  0  0  0  0
  4  5  2  0  0  0  0
  4  6  1  0  0  0  0
  6  7  1  0  0  0  0
  6 27  1  0  0  0  0
  7 16  1  0  0  0  0
  7  8  2  0  0  0  0
  8  9  1  0  0  0  0
  8 28  1  0  0  0  0
  9 10  2  0  0  0  0
  9 29  1  0  0  0  0
 10 11  1  0  0  0  0
 10 15  1  0  0  0  0
 11 12  1  0  0  0  0
 11 13  1  0  0  0  0
 11 14  1  0  0  0  0
 12 30  1  0  0  0  0
 12 31  1  0  0  0  0
 12 32  1  0  0  0  0
 13 33  1  0  0  0  0
 13 34  1  0  0  0  0
 13 35  1  0  0  0  0
 14 36  1  0  0  0  0
 14 37  1  0  0  0  0
 14 38  1  0  0  0  0
 15 16  2  0  0  0  0
 17 18  1  0  0  0  0
 17 39  1  0  0  0  0
 17 40  1  0  0  0  0
 18 19  1  0  0  0  0
 18 41  1  0  0  0  0
 18 42  1  0  0  0  0
 19 20  2  0  0  0  0
 19 21  2  0  0  0  0
 19 22  1  0  0  0  0
 22 43  1  0  0  0  0
 22 44  1  0  0  0  0
M  END
> <s_m_source_file>
AV-unprocessed.smi

> <i_m_source_file_index>
2707

> <i_lp_mmshare_version>
43012

> <i_f3d_flags>
0

> <s_epik_input>
Tz1TKD1PKShbQ0gyXTEpW0NIMl1bQ0gyXVtDQEBdMShbQ0gzXSlbTkhdQyg9TylbTkhdYzJbY0hdW2NIXWMobm4yKUMoW0NIM10pKFtDSDNdKVtDSDNd

> <s_epik_cmdline>
J2VwaWtfcHl0aG9uJywgJy1waCcsICc3LjAnLCAnLXRuJywgJzgnLCAnLW1hJywgJzIwMCcsICctbWV0YWxfYmluZGluZycsICctaW1hZScsICc8aW5maWxlLm1hZT4nLCAnLW9tYWUnLCAnPG91dGZpbGUubWFlPic=

> <r_lp_tautomer_probability>
1

> <r_epik_Ionization_Penalty>
0.00910408

> <r_epik_Ionization_Penalty_Charging>
0

> <r_epik_Ionization_Penalty_Neutral>
0.00910408

> <r_epik_State_Penalty>
-0

> <r_epik_Charging_Adjusted_Penalty>
0

> <i_epik_Tot_Q>
0

> <i_epik_Tot_abs_Q>
0

> <r_epik_Metal_State_Penalty>
-0

> <b_epik_Metal_Only>
0

> <s_lp_Force_Field>
OPLS_2005

> <r_lp_Energy>
10.6556

> <b_lp_Chiralities_Consistent>
1

> <s_lp_Variant>
AV-unprocessed.smi:2707-2

> <Gold.Version>
5.8.1

> <Gold.Id.Protein>
6NUR|6NUR_protein|mol2

> <Gold.PLP.Fitness>
32.6996

> <Gold.PLP.PLP>
-30.0692

> <Gold.PLP.part.hbond>
-3.5943

> <Gold.PLP.part.metal>
0.0000

> <Gold.PLP.part.buried>
-4.6930

> <Gold.PLP.part.nonpolar>
-22.4967

> <Gold.PLP.part.repulsive>
0.3783

> <Gold.PLP.ligand.clash>
0.0000

> <Gold.PLP.ligand.torsion>
0.1938

> <Gold.PLP.Chemscore.Hbond>
1.0000

> <Gold.PLP.Chemscore.CHOScore>
0.0000

> <Gold.PLP.Chemscore.Metal>
0.0000

> <Gold.Chemscore.Hbonds>
donor molecule, donor type, donor heavy atom, donor atom, acceptor molecule, acceptor atom, score
      P1  H  6934  6946       L1     5  0.91

> <Gold.PLP.Chemscore.Internal.Correction>
0.0180

> <Gold.Rescore>
     Score         DG    S(hbond)    S(metal)    S(lipo)     H(rot)  DE(clash)    DE(int)     intcor
     12.02     -14.00       0.96        0.00      72.11       1.22       0.00       1.98       ----

> <Gold.Chemscore.Fitness>
12.0171

> <Gold.Chemscore.DG>
-14.0029

> <Gold.Chemscore.ZeroCoef>
-5.4800

> <Gold.Chemscore.Hbond>
0.9640

> <Gold.Chemscore.Metal>
0.0000

> <Gold.Chemscore.Lipo>
72.1138

> <Gold.Chemscore.Internal_Hbond>
0.0000

> <Gold.Chemscore.DEClash>
0.0048

> <Gold.Chemscore.DEInternal>
1.9810

> <Gold.Chemscore.Rot>
1.2242

> <Gold.Chemscore.Internal.Correction>
   9.000000E+99

> <Gold.Chemscore.Hbonds>
donor molecule, donor type, donor heavy atom, donor atom, acceptor molecule, acceptor atom, score
      P1  H  6934  6946       L1     5  0.64

> <Gold.Chemscore.Hbond.Weighted>
-3.2196

> <Gold.Chemscore.Metal.Weighted>
-0.0000

> <Gold.Chemscore.Lipo.Weighted>
-8.4373

> <Gold.Chemscore.Internal_Hbond.Weighted>
0.0000

> <Gold.Chemscore.DEClash.Weighted>
0.0048

> <Gold.Chemscore.DEInternal.Weighted>
1.9810

> <Gold.Chemscore.Rot.Weighted>
3.1340

> <Gold.Chemscore.Internal.Correction.Weighted>
   9.000000E+99

> <Gold.Protein.RotatedTorsions>
[ 6907 6896 6895 6894 ] final  -18.81 input  -60.11 | X-H torsion
[ 7974 7965 7964 7962 ] final  179.13 input  175.53 | X-H torsion
[ 8008 7997 7996 7995 ] final  140.46 input   59.86 | X-H torsion
[ 10167 10162 10161 10158 ] final -135.19 input  -65.29 | X-H torsion
[ 10718 10713 10712 10709 ] final -176.53 input   66.30 | X-H torsion
[ 10763 10752 10751 10750 ] final -144.58 input  -60.55 | X-H torsion
[ 11005 11000 10999 10996 ] final  -50.98 input  -57.11 | X-H torsion

> <Gold.Protein.ActiveResidues>
 VAL166  LYS551  ARG553  GLY616  TRP617  ASP618  TYR619  PRO620  LYS621  CYS622 
 ASP623  PHE694  ASN695  SER759  ASP760  ASP761  ALA762  ILE779  LEU786  VAL792 
 PHE793  MET794  SER795  GLU796  ALA797  LYS798  CYS799  TRP800  GLU811  SER814 

> <Gold.Protein.RotatedAtoms>
  151.2726  135.0689  159.9139 H   0  0  0  0  0  0  0  0  0  0  0  0  # atno 6907 bound_to 6896
  152.5348  134.0115  159.7951 H   0  0  0  0  0  0  0  0  0  0  0  0  # atno 6908 bound_to 6896
  151.0356  133.5701  159.2687 H   0  0  0  0  0  0  0  0  0  0  0  0  # atno 6909 bound_to 6896
  144.7149  140.0502  143.6435 H   0  0  0  0  0  0  0  0  0  0  0  0  # atno 7974 bound_to 7965
  156.2979  140.2341  156.4404 H   0  0  0  0  0  0  0  0  0  0  0  0  # atno 8008 bound_to 7997
  154.8191  140.0439  157.1418 H   0  0  0  0  0  0  0  0  0  0  0  0  # atno 8009 bound_to 7997
  154.9336  140.3020  155.5159 H   0  0  0  0  0  0  0  0  0  0  0  0  # atno 8010 bound_to 7997
  139.8803  143.6847  152.2628 H   0  0  0  0  0  0  0  0  0  0  0  0  # atno 10167 bound_to 10162
  156.8161  130.9603  151.3114 H   0  0  0  0  0  0  0  0  0  0  0  0  # atno 10718 bound_to 10713
  154.8422  135.3436  154.6369 H   0  0  0  0  0  0  0  0  0  0  0  0  # atno 10763 bound_to 10752
  153.6979  135.6971  153.5076 H   0  0  0  0  0  0  0  0  0  0  0  0  # atno 10764 bound_to 10752
  153.2545  135.4342  155.0786 H   0  0  0  0  0  0  0  0  0  0  0  0  # atno 10765 bound_to 10752
  141.0846  133.6645  156.3810 H   0  0  0  0  0  0  0  0  0  0  0  0  # atno 11005 bound_to 11000
  145.9951  139.3046  143.0961 LP  0  0  0  0  0  0  0  0  0  0  0  0  # atno 17320 bound_to 7965
  145.8858  140.9334  143.0577 LP  0  0  0  0  0  0  0  0  0  0  0  0  # atno 17321 bound_to 7965
  139.7202  144.7604  151.0968 LP  0  0  0  0  0  0  0  0  0  0  0  0  # atno 17342 bound_to 10162
  140.7745  143.5218  150.9528 LP  0  0  0  0  0  0  0  0  0  0  0  0  # atno 17343 bound_to 10162
  157.6481  130.8861  149.9578 LP  0  0  0  0  0  0  0  0  0  0  0  0  # atno 17370 bound_to 10713
  156.1016  130.3655  150.0208 LP  0  0  0  0  0  0  0  0  0  0  0  0  # atno 17371 bound_to 10713
  140.5392  134.6137  157.5374 LP  0  0  0  0  0  0  0  0  0  0  0  0  # atno 17394 bound_to 11000
  139.9663  134.7368  156.0133 LP  0  0  0  0  0  0  0  0  0  0  0  0  # atno 17395 bound_to 11000

$$$$
