AV-unprocessed.smi:1345|AV-procd|sdf|5511|dock8
  -GOLD-   22720 5 93D 1   1.00000     0.00000
 Structure written by MMmdl.
 40 41  0  0  0  0  0  0  0  0  1 V2000
  150.8412  141.6452  157.0482 C   0  0  0  0  0  0  0  0  0  0  0  0
  151.1601  142.4089  158.3485 C   0  0  0  0  0  0  0  0  0  0  0  0
  151.2289  143.9178  158.0514 C   0  0  0  0  0  0  0  0  0  0  0  0
  152.4461  141.8815  159.0386 C   0  0  1  0  0  0  0  0  0  0  0  0
  152.7406  142.5694  160.3854 C   0  0  0  0  0  0  0  0  0  0  0  0
  152.3410  140.4407  159.2623 N   0  0  0  0  0  0  0  0  0  0  0  0
  152.5337  139.4853  158.3385 C   0  0  0  0  0  0  0  0  0  0  0  0
  152.8102  139.7215  157.1626 O   0  0  0  0  0  0  0  0  0  0  0  0
  152.3950  138.0391  158.8168 C   0  0  0  0  0  0  0  0  0  0  0  0
  150.9598  137.6039  158.7434 C   0  0  0  0  0  0  0  0  0  0  0  0
  150.0081  138.0508  157.8596 C   0  0  0  0  0  0  0  0  0  0  0  0
  148.4692  137.2731  158.1081 S   0  0  0  0  0  0  0  0  0  0  0  0
  149.1864  136.3526  159.4339 C   0  0  0  0  0  0  0  0  0  0  0  0
  148.5264  135.3828  160.2455 N   0  0  0  0  0  0  0  0  0  0  0  0
  148.5794  133.9576  159.9339 C   0  0  0  0  0  0  0  0  0  0  0  0
  147.7498  133.3102  161.0386 C   0  0  0  0  0  0  0  0  0  0  0  0
  147.3425  134.4529  161.8216 N   0  0  0  0  0  0  0  0  0  0  0  0
  147.7940  135.6184  161.3524 C   0  0  0  0  0  0  0  0  0  0  0  0
  147.5580  136.7069  161.8735 O   0  0  0  0  0  0  0  0  0  0  0  0
  150.4757  136.6426  159.6375 N   0  0  0  0  0  0  0  0  0  0  0  0
  151.6610  141.7239  156.3337 H   0  0  0  0  0  0  0  0  0  0  0  0
  149.9458  142.0421  156.5688 H   0  0  0  0  0  0  0  0  0  0  0  0
  150.6587  140.5862  157.2307 H   0  0  0  0  0  0  0  0  0  0  0  0
  150.3224  142.2499  159.0292 H   0  0  0  0  0  0  0  0  0  0  0  0
  152.0905  144.1602  157.4284 H   0  0  0  0  0  0  0  0  0  0  0  0
  151.2964  144.5092  158.9638 H   0  0  0  0  0  0  0  0  0  0  0  0
  150.3354  144.2546  157.5249 H   0  0  0  0  0  0  0  0  0  0  0  0
  153.2865  142.0704  158.3678 H   0  0  0  0  0  0  0  0  0  0  0  0
  152.9468  143.6318  160.2610 H   0  0  0  0  0  0  0  0  0  0  0  0
  153.6176  142.1350  160.8663 H   0  0  0  0  0  0  0  0  0  0  0  0
  151.9021  142.4675  161.0750 H   0  0  0  0  0  0  0  0  0  0  0  0
  152.1191  140.1448  160.2021 H   0  0  0  0  0  0  0  0  0  0  0  0
  153.0314  137.3971  158.2062 H   0  0  0  0  0  0  0  0  0  0  0  0
  152.7671  137.9585  159.8390 H   0  0  0  0  0  0  0  0  0  0  0  0
  150.1218  138.7840  157.0748 H   0  0  0  0  0  0  0  0  0  0  0  0
  148.1535  133.7620  158.9486 H   0  0  0  0  0  0  0  0  0  0  0  0
  149.6095  133.5981  159.9465 H   0  0  0  0  0  0  0  0  0  0  0  0
  146.8795  132.7844  160.6441 H   0  0  0  0  0  0  0  0  0  0  0  0
  148.3391  132.6205  161.6442 H   0  0  0  0  0  0  0  0  0  0  0  0
  146.7678  134.3655  162.6474 H   0  0  0  0  0  0  0  0  0  0  0  0
  1  2  1  0  0  0  0
  1 21  1  0  0  0  0
  1 22  1  0  0  0  0
  1 23  1  0  0  0  0
  2  3  1  0  0  0  0
  2  4  1  0  0  0  0
  2 24  1  0  0  0  0
  3 25  1  0  0  0  0
  3 26  1  0  0  0  0
  3 27  1  0  0  0  0
  4  5  1  0  0  0  0
  4  6  1  0  0  0  0
  4 28  1  0  0  0  0
  5 29  1  0  0  0  0
  5 30  1  0  0  0  0
  5 31  1  0  0  0  0
  6  7  1  0  0  0  0
  6 32  1  0  0  0  0
  7  8  2  0  0  0  0
  7  9  1  0  0  0  0
  9 10  1  0  0  0  0
  9 33  1  0  0  0  0
  9 34  1  0  0  0  0
 10 20  1  0  0  0  0
 10 11  2  0  0  0  0
 11 12  1  0  0  0  0
 11 35  1  0  0  0  0
 12 13  1  0  0  0  0
 13 14  1  0  0  0  0
 13 20  2  0  0  0  0
 14 18  1  0  0  0  0
 14 15  1  0  0  0  0
 15 16  1  0  0  0  0
 15 36  1  0  0  0  0
 15 37  1  0  0  0  0
 16 17  1  0  0  0  0
 16 38  1  0  0  0  0
 16 39  1  0  0  0  0
 17 18  1  0  0  0  0
 17 40  1  0  0  0  0
 18 19  2  0  0  0  0
M  END
> <s_m_source_file>
AV-unprocessed.smi

> <i_m_source_file_index>
1345

> <i_lp_mmshare_version>
43012

> <i_f3d_flags>
0

> <s_epik_input>
W0NIM11bQ0hdKFtDSDNdKVtDQEhdKFtDSDNdKVtOSF1DKD1PKVtDSDJdYzFbY0hdc2MobjEpTjJbQ0gyXVtDSDJdW05IXUMyPU8=

> <s_epik_cmdline>
J2VwaWtfcHl0aG9uJywgJy1waCcsICc3LjAnLCAnLXRuJywgJzgnLCAnLW1hJywgJzIwMCcsICctbWV0YWxfYmluZGluZycsICctaW1hZScsICc8aW5maWxlLm1hZT4nLCAnLW9tYWUnLCAnPG91dGZpbGUubWFlPic=

> <r_lp_tautomer_probability>
1

> <r_epik_Ionization_Penalty>
0.000122034

> <r_epik_Ionization_Penalty_Charging>
0

> <r_epik_Ionization_Penalty_Neutral>
0.000122034

> <r_epik_State_Penalty>
-0

> <r_epik_Charging_Adjusted_Penalty>
0

> <i_epik_Tot_Q>
0

> <i_epik_Tot_abs_Q>
0

> <r_epik_Metal_State_Penalty>
-0

> <b_epik_Metal_Only>
0

> <s_lp_Force_Field>
OPLS_2005

> <r_lp_Energy>
32.8432

> <b_lp_Chiralities_Consistent>
1

> <s_lp_Variant>
AV-unprocessed.smi:1345-2

> <Gold.Version>
5.8.1

> <Gold.Id.Protein>
6NUR|6NUR_protein|mol2

> <Gold.PLP.Fitness>
43.5823

> <Gold.PLP.PLP>
-38.9612

> <Gold.PLP.part.hbond>
-4.7750

> <Gold.PLP.part.metal>
0.0000

> <Gold.PLP.part.buried>
-5.4635

> <Gold.PLP.part.nonpolar>
-29.7567

> <Gold.PLP.part.repulsive>
0.2233

> <Gold.PLP.ligand.clash>
0.0000

> <Gold.PLP.ligand.torsion>
2.5379

> <Gold.PLP.Chemscore.Hbond>
3.2215

> <Gold.PLP.Chemscore.CHOScore>
0.0000

> <Gold.PLP.Chemscore.Metal>
0.0000

> <Gold.Chemscore.Hbonds>
donor molecule, donor type, donor heavy atom, donor atom, acceptor molecule, acceptor atom, score
      P1  H  6896  6909       L1    20  0.95
      P1  H  6931  6943       L1    19  0.75
      P1  H  7997  8010       L1     8  1.00

> <Gold.PLP.Chemscore.Internal.Correction>
0.0325

> <Gold.Rescore>
     Score         DG    S(hbond)    S(metal)    S(lipo)     H(rot)  DE(clash)    DE(int)     intcor
     17.73     -20.41       3.32        0.00      70.71       1.74       0.04       2.65       ----

> <Gold.Chemscore.Fitness>
17.7275

> <Gold.Chemscore.DG>
-20.4130

> <Gold.Chemscore.ZeroCoef>
-5.4800

> <Gold.Chemscore.Hbond>
3.3241

> <Gold.Chemscore.Metal>
0.0000

> <Gold.Chemscore.Lipo>
70.7080

> <Gold.Chemscore.Internal_Hbond>
0.0000

> <Gold.Chemscore.DEClash>
0.0368

> <Gold.Chemscore.DEInternal>
2.6486

> <Gold.Chemscore.Rot>
1.7353

> <Gold.Chemscore.Internal.Correction>
   9.000000E+99

> <Gold.Chemscore.Hbonds>
donor molecule, donor type, donor heavy atom, donor atom, acceptor molecule, acceptor atom, score
      P1  H  6896  6909       L1    20  0.22
      P1  H  6931  6943       L1    19  0.73
      P1  H  6934  6947       L1    19  0.01
      P1  H  7997  8010       L1     8  0.98

> <Gold.Chemscore.Hbond.Weighted>
-11.1024

> <Gold.Chemscore.Metal.Weighted>
-0.0000

> <Gold.Chemscore.Lipo.Weighted>
-8.2728

> <Gold.Chemscore.Internal_Hbond.Weighted>
0.0000

> <Gold.Chemscore.DEClash.Weighted>
0.0368

> <Gold.Chemscore.DEInternal.Weighted>
2.6486

> <Gold.Chemscore.Rot.Weighted>
4.4423

> <Gold.Chemscore.Internal.Correction.Weighted>
   9.000000E+99

> <Gold.Protein.RotatedTorsions>
[ 6907 6896 6895 6894 ] final   89.28 input  -60.11 | X-H torsion
[ 7974 7965 7964 7962 ] final -125.05 input  175.53 | X-H torsion
[ 8008 7997 7996 7995 ] final   54.24 input   59.86 | X-H torsion
[ 10167 10162 10161 10158 ] final  175.99 input  -65.29 | X-H torsion
[ 10718 10713 10712 10709 ] final -109.86 input   66.30 | X-H torsion
[ 10763 10752 10751 10750 ] final   -8.49 input  -60.55 | X-H torsion
[ 11005 11000 10999 10996 ] final   48.54 input  -57.11 | X-H torsion

> <Gold.Protein.ActiveResidues>
 VAL166  LYS551  ARG553  GLY616  TRP617  ASP618  TYR619  PRO620  LYS621  CYS622 
 ASP623  PHE694  ASN695  SER759  ASP760  ASP761  ALA762  ILE779  LEU786  VAL792 
 PHE793  MET794  SER795  GLU796  ALA797  LYS798  CYS799  TRP800  GLU811  SER814 

> <Gold.Protein.RotatedAtoms>
  152.5434  134.1991  159.8704 H   0  0  0  0  0  0  0  0  0  0  0  0  # atno 6907 bound_to 6896
  151.1981  133.4620  159.2603 H   0  0  0  0  0  0  0  0  0  0  0  0  # atno 6908 bound_to 6896
  151.1016  134.9988  159.8507 H   0  0  0  0  0  0  0  0  0  0  0  0  # atno 6909 bound_to 6896
  145.0017  140.7826  143.4492 H   0  0  0  0  0  0  0  0  0  0  0  0  # atno 7974 bound_to 7965
  155.4814  140.3468  155.4340 H   0  0  0  0  0  0  0  0  0  0  0  0  # atno 8008 bound_to 7997
  156.1037  140.1442  156.9462 H   0  0  0  0  0  0  0  0  0  0  0  0  # atno 8009 bound_to 7997
  154.4710  140.0901  156.7122 H   0  0  0  0  0  0  0  0  0  0  0  0  # atno 8010 bound_to 7997
  139.5198  144.2967  152.0415 H   0  0  0  0  0  0  0  0  0  0  0  0  # atno 10167 bound_to 10162
  156.0559  130.5785  150.8158 H   0  0  0  0  0  0  0  0  0  0  0  0  # atno 10718 bound_to 10713
  153.4413  135.7013  153.6167 H   0  0  0  0  0  0  0  0  0  0  0  0  # atno 10763 bound_to 10752
  153.4541  135.3751  155.2301 H   0  0  0  0  0  0  0  0  0  0  0  0  # atno 10764 bound_to 10752
  154.8727  135.4004  154.3811 H   0  0  0  0  0  0  0  0  0  0  0  0  # atno 10765 bound_to 10752
  140.1182  134.4865  155.8620 H   0  0  0  0  0  0  0  0  0  0  0  0  # atno 11005 bound_to 11000
  145.2144  139.2189  143.5126 LP  0  0  0  0  0  0  0  0  0  0  0  0  # atno 17320 bound_to 7965
  146.3453  140.1989  142.8589 LP  0  0  0  0  0  0  0  0  0  0  0  0  # atno 17321 bound_to 7965
  140.2416  144.4263  150.6258 LP  0  0  0  0  0  0  0  0  0  0  0  0  # atno 17342 bound_to 10162
  140.6287  143.2184  151.6542 LP  0  0  0  0  0  0  0  0  0  0  0  0  # atno 17343 bound_to 10162
  157.5529  131.0944  150.9670 LP  0  0  0  0  0  0  0  0  0  0  0  0  # atno 17370 bound_to 10713
  156.9925  130.5569  149.5304 LP  0  0  0  0  0  0  0  0  0  0  0  0  # atno 17371 bound_to 10713
  141.2146  133.6751  156.6837 LP  0  0  0  0  0  0  0  0  0  0  0  0  # atno 17394 bound_to 11000
  140.3000  134.8171  157.4090 LP  0  0  0  0  0  0  0  0  0  0  0  0  # atno 17395 bound_to 11000

$$$$
