AV-unprocessed.smi:352|AV-procd|sdf|2401|dock6
  -GOLD-   2262022333D 1   1.00000     0.00000
 Structure written by MMmdl.
 45 46  0  0  0  0  0  0  0  0  2 V2000
  139.6956  146.6770  154.7345 C   0  0  0  0  0  0  0  0  0  0  0  0
  140.8456  145.7429  154.8943 C   0  0  0  0  0  0  0  0  0  0  0  0
  141.2252  144.6135  154.2257 C   0  0  0  0  0  0  0  0  0  0  0  0
  142.4170  144.2261  154.9048 C   0  0  0  0  0  0  0  0  0  0  0  0
  143.2290  143.1019  154.6050 N   0  0  0  0  0  0  0  0  0  0  0  0
  144.1506  142.5073  155.3811 C   0  0  0  0  0  0  0  0  0  0  0  0
  144.4746  142.8720  156.5105 O   0  0  0  0  0  0  0  0  0  0  0  0
  144.6834  141.4405  154.7677 N   0  0  0  0  0  0  0  0  0  0  0  0
  145.7133  140.5611  155.3231 C   0  0  0  0  0  0  0  0  0  0  0  0
  146.5405  139.7948  154.2379 C   0  0  0  0  0  0  0  0  0  0  0  0
  145.6243  138.8174  153.5369 N   0  3  0  0  0  0  0  0  0  0  0  0
  144.8603  137.8827  154.4039 C   0  0  0  0  0  0  0  0  0  0  0  0
  146.2346  138.0794  152.3996 C   0  0  0  0  0  0  0  0  0  0  0  0
  147.1455  140.8166  153.2279 C   0  0  0  0  0  0  0  0  0  0  0  0
  148.2017  141.7524  153.8473 C   0  0  0  0  0  0  0  0  0  0  0  0
  149.3348  140.9653  154.5183 C   0  0  0  0  0  0  0  0  0  0  0  0
  148.7862  139.9738  155.5525 C   0  0  0  0  0  0  0  0  0  0  0  0
  147.7338  139.0453  154.9182 C   0  0  0  0  0  0  0  0  0  0  0  0
  142.7295  145.0452  155.8918 N   0  0  0  0  0  0  0  0  0  0  0  0
  141.7261  146.0210  155.8931 O   0  0  0  0  0  0  0  0  0  0  0  0
  139.1931  146.5156  153.7806 H   0  0  0  0  0  0  0  0  0  0  0  0
  140.0304  147.7140  154.7680 H   0  0  0  0  0  0  0  0  0  0  0  0
  138.9658  146.5299  155.5307 H   0  0  0  0  0  0  0  0  0  0  0  0
  140.7190  144.1547  153.3897 H   0  0  0  0  0  0  0  0  0  0  0  0
  143.0773  142.6955  153.6937 H   0  0  0  0  0  0  0  0  0  0  0  0
  144.3665  141.2311  153.8322 H   0  0  0  0  0  0  0  0  0  0  0  0
  146.3711  141.1908  155.9209 H   0  0  0  0  0  0  0  0  0  0  0  0
  145.2701  139.8870  156.0544 H   0  0  0  0  0  0  0  0  0  0  0  0
  145.5179  137.3018  155.0504 H   0  0  0  0  0  0  0  0  0  0  0  0
  144.2863  137.1781  153.8008 H   0  0  0  0  0  0  0  0  0  0  0  0
  144.1308  138.4080  155.0195 H   0  0  0  0  0  0  0  0  0  0  0  0
  146.9598  137.3421  152.7448 H   0  0  0  0  0  0  0  0  0  0  0  0
  146.7257  138.7385  151.6862 H   0  0  0  0  0  0  0  0  0  0  0  0
  145.4655  137.5426  151.8436 H   0  0  0  0  0  0  0  0  0  0  0  0
  147.6096  140.2866  152.3960 H   0  0  0  0  0  0  0  0  0  0  0  0
  146.3628  141.4359  152.7898 H   0  0  0  0  0  0  0  0  0  0  0  0
  148.6164  142.3976  153.0723 H   0  0  0  0  0  0  0  0  0  0  0  0
  147.7361  142.4191  154.5732 H   0  0  0  0  0  0  0  0  0  0  0  0
  149.8999  140.4237  153.7586 H   0  0  0  0  0  0  0  0  0  0  0  0
  150.0361  141.6515  154.9940 H   0  0  0  0  0  0  0  0  0  0  0  0
  149.6064  139.3752  155.9497 H   0  0  0  0  0  0  0  0  0  0  0  0
  148.3751  140.5099  156.4066 H   0  0  0  0  0  0  0  0  0  0  0  0
  147.3735  138.3323  155.6595 H   0  0  0  0  0  0  0  0  0  0  0  0
  148.2841  138.4580  154.1843 H   0  0  0  0  0  0  0  0  0  0  0  0
  144.9151  139.4006  153.1160 H   0  0  0  0  0  0  0  0  0  0  0  0
  1  2  1  0  0  0  0
  1 21  1  0  0  0  0
  1 22  1  0  0  0  0
  1 23  1  0  0  0  0
  2 20  1  0  0  0  0
  2  3  2  0  0  0  0
  3  4  1  0  0  0  0
  3 24  1  0  0  0  0
  4  5  1  0  0  0  0
  4 19  2  0  0  0  0
  5  6  1  0  0  0  0
  5 25  1  0  0  0  0
  6  7  2  0  0  0  0
  6  8  1  0  0  0  0
  8  9  1  0  0  0  0
  8 26  1  0  0  0  0
  9 10  1  0  0  0  0
  9 27  1  0  0  0  0
  9 28  1  0  0  0  0
 10 18  1  0  0  0  0
 10 11  1  0  0  0  0
 10 14  1  0  0  0  0
 11 12  1  0  0  0  0
 11 13  1  0  0  0  0
 11 45  1  0  0  0  0
 12 29  1  0  0  0  0
 12 30  1  0  0  0  0
 12 31  1  0  0  0  0
 13 32  1  0  0  0  0
 13 33  1  0  0  0  0
 13 34  1  0  0  0  0
 14 15  1  0  0  0  0
 14 35  1  0  0  0  0
 14 36  1  0  0  0  0
 15 16  1  0  0  0  0
 15 37  1  0  0  0  0
 15 38  1  0  0  0  0
 16 17  1  0  0  0  0
 16 39  1  0  0  0  0
 16 40  1  0  0  0  0
 17 18  1  0  0  0  0
 17 41  1  0  0  0  0
 17 42  1  0  0  0  0
 18 43  1  0  0  0  0
 18 44  1  0  0  0  0
 19 20  1  0  0  0  0
M  CHG  1  11   1
M  END
> <s_m_source_file>
AV-unprocessed.smi

> <i_m_source_file_index>
352

> <i_lp_mmshare_version>
43012

> <i_f3d_flags>
0

> <s_epik_input>
W0NIM11jMVtjSF1jKG5vMSlbTkhdQyg9TylbTkhdW0NIMl1DMihOKFtDSDNdKVtDSDNdKVtDSDJdW0NIMl1bQ0gyXVtDSDJdW0NIMl0y

> <s_epik_cmdline>
J2VwaWtfcHl0aG9uJywgJy1waCcsICc3LjAnLCAnLXRuJywgJzgnLCAnLW1hJywgJzIwMCcsICctbWV0YWxfYmluZGluZycsICctaW1hZScsICc8aW5maWxlLm1hZT4nLCAnLW9tYWUnLCAnPG91dGZpbGUubWFlPic=

> <r_epik_Ionization_Penalty>
0.00254175

> <r_epik_Ionization_Penalty_Charging>
0.00251809

> <r_epik_Ionization_Penalty_Neutral>
2.36624e-05

> <r_epik_State_Penalty>
0.00174714

> <r_epik_Charging_Adjusted_Penalty>
0.00426523

> <i_epik_Tot_Q>
1

> <i_epik_Tot_abs_Q>
1

> <r_epik_Metal_State_Penalty>
-0

> <b_epik_Metal_Only>
0

> <s_lp_Force_Field>
OPLS_2005

> <r_lp_Energy>
33.762

> <b_lp_Chiralities_Consistent>
1

> <s_lp_Variant>
AV-unprocessed.smi:352-1

> <Gold.Version>
5.8.1

> <Gold.Id.Protein>
6NUR|6NUR_protein|mol2

> <Gold.PLP.Fitness>
35.6415

> <Gold.PLP.PLP>
-24.1867

> <Gold.PLP.part.hbond>
-3.0000

> <Gold.PLP.part.metal>
0.0000

> <Gold.PLP.part.buried>
-2.9740

> <Gold.PLP.part.nonpolar>
-18.4223

> <Gold.PLP.part.repulsive>
0.0589

> <Gold.PLP.ligand.clash>
0.0000

> <Gold.PLP.ligand.torsion>
0.3264

> <Gold.PLP.Chemscore.Hbond>
4.0000

> <Gold.PLP.Chemscore.CHOScore>
0.0000

> <Gold.PLP.Chemscore.Metal>
0.0000

> <Gold.Chemscore.Hbonds>
donor molecule, donor type, donor heavy atom, donor atom, acceptor molecule, acceptor atom, score
      L1  H     5    25       P1 10174  1.00
      L1  H     8    26       P1 10175  1.00
      L1  H    11    45       P1 10175  2.00

> <Gold.PLP.Chemscore.Internal.Correction>
0.1076

> <Gold.Rescore>
     Score         DG    S(hbond)    S(metal)    S(lipo)     H(rot)  DE(clash)    DE(int)     intcor
     14.22     -15.94       2.25        0.00      59.01       1.55       0.01       1.71       ----

> <Gold.Chemscore.Fitness>
14.2235

> <Gold.Chemscore.DG>
-15.9404

> <Gold.Chemscore.ZeroCoef>
-5.4800

> <Gold.Chemscore.Hbond>
2.2500

> <Gold.Chemscore.Metal>
0.0000

> <Gold.Chemscore.Lipo>
59.0112

> <Gold.Chemscore.Internal_Hbond>
0.0000

> <Gold.Chemscore.DEClash>
0.0089

> <Gold.Chemscore.DEInternal>
1.7080

> <Gold.Chemscore.Rot>
1.5464

> <Gold.Chemscore.Internal.Correction>
   9.000000E+99

> <Gold.Chemscore.Hbonds>
donor molecule, donor type, donor heavy atom, donor atom, acceptor molecule, acceptor atom, score
      L1  H     5    25       P1 10174  0.44
      L1  H     8    26       P1 10175  0.45
      L1  H    11    45       P1 10175  1.00

> <Gold.Chemscore.Hbond.Weighted>
-7.5149

> <Gold.Chemscore.Metal.Weighted>
-0.0000

> <Gold.Chemscore.Lipo.Weighted>
-6.9043

> <Gold.Chemscore.Internal_Hbond.Weighted>
0.0000

> <Gold.Chemscore.DEClash.Weighted>
0.0089

> <Gold.Chemscore.DEInternal.Weighted>
1.7080

> <Gold.Chemscore.Rot.Weighted>
3.9588

> <Gold.Chemscore.Internal.Correction.Weighted>
   9.000000E+99

> <Gold.Protein.RotatedTorsions>
[ 6907 6896 6895 6894 ] final    9.38 input  -60.11 | X-H torsion
[ 7974 7965 7964 7962 ] final  -47.71 input  175.53 | X-H torsion
[ 8008 7997 7996 7995 ] final   31.53 input   59.86 | X-H torsion
[ 10167 10162 10161 10158 ] final  132.66 input  -65.29 | X-H torsion
[ 10718 10713 10712 10709 ] final -166.76 input   66.30 | X-H torsion
[ 10763 10752 10751 10750 ] final   30.36 input  -60.55 | X-H torsion
[ 11005 11000 10999 10996 ] final  -79.93 input  -57.11 | X-H torsion

> <Gold.Protein.ActiveResidues>
 VAL166  LYS551  ARG553  GLY616  TRP617  ASP618  TYR619  PRO620  LYS621  CYS622 
 ASP623  PHE694  ASN695  SER759  ASP760  ASP761  ALA762  ILE779  LEU786  VAL792 
 PHE793  MET794  SER795  GLU796  ALA797  LYS798  CYS799  TRP800  GLU811  SER814 

> <Gold.Protein.RotatedAtoms>
  151.7212  135.0894  160.0284 H   0  0  0  0  0  0  0  0  0  0  0  0  # atno 6907 bound_to 6896
  152.3601  133.6281  159.6017 H   0  0  0  0  0  0  0  0  0  0  0  0  # atno 6908 bound_to 6896
  150.7598  133.9354  159.3481 H   0  0  0  0  0  0  0  0  0  0  0  0  # atno 6909 bound_to 6896
  145.9588  140.7500  142.9468 H   0  0  0  0  0  0  0  0  0  0  0  0  # atno 7974 bound_to 7965
  155.1079  140.3236  155.4529 H   0  0  0  0  0  0  0  0  0  0  0  0  # atno 8008 bound_to 7997
  156.2699  140.2049  156.6152 H   0  0  0  0  0  0  0  0  0  0  0  0  # atno 8009 bound_to 7997
  154.6778  140.0529  157.0221 H   0  0  0  0  0  0  0  0  0  0  0  0  # atno 8010 bound_to 7997
  139.5330  144.6652  151.4884 H   0  0  0  0  0  0  0  0  0  0  0  0  # atno 10167 bound_to 10162
  156.6725  130.9090  151.3046 H   0  0  0  0  0  0  0  0  0  0  0  0  # atno 10718 bound_to 10713
  153.0376  135.6466  154.1033 H   0  0  0  0  0  0  0  0  0  0  0  0  # atno 10763 bound_to 10752
  154.0745  135.2878  155.3303 H   0  0  0  0  0  0  0  0  0  0  0  0  # atno 10764 bound_to 10752
  154.6572  135.5404  153.8038 H   0  0  0  0  0  0  0  0  0  0  0  0  # atno 10765 bound_to 10752
  141.1668  133.7127  156.8196 H   0  0  0  0  0  0  0  0  0  0  0  0  # atno 11005 bound_to 11000
  144.6810  140.2556  143.7326 LP  0  0  0  0  0  0  0  0  0  0  0  0  # atno 17320 bound_to 7965
  145.8069  139.1987  143.2015 LP  0  0  0  0  0  0  0  0  0  0  0  0  # atno 17321 bound_to 7965
  140.6520  143.8677  150.6795 LP  0  0  0  0  0  0  0  0  0  0  0  0  # atno 17342 bound_to 10162
  140.2045  143.3933  152.1766 LP  0  0  0  0  0  0  0  0  0  0  0  0  # atno 17343 bound_to 10162
  157.7072  130.9398  150.0969 LP  0  0  0  0  0  0  0  0  0  0  0  0  # atno 17370 bound_to 10713
  156.1928  130.3655  149.8888 LP  0  0  0  0  0  0  0  0  0  0  0  0  # atno 17371 bound_to 10713
  140.2129  134.8814  157.3294 LP  0  0  0  0  0  0  0  0  0  0  0  0  # atno 17394 bound_to 11000
  140.2068  134.4187  155.7633 LP  0  0  0  0  0  0  0  0  0  0  0  0  # atno 17395 bound_to 11000

$$$$
