AV-unprocessed.smi:3237|AV-procd|sdf|12374|dock5
  -GOLD-   2272018233D 1   1.00000     0.00000
 Structure written by MMmdl.
 36 38  0  0  0  0  0  0  0  0  3 V2000
  151.6439  145.2272  159.9255 C   0  0  0  0  0  0  0  0  0  0  0  0
  151.5431  143.9727  159.1277 C   0  0  0  0  0  0  0  0  0  0  0  0
  151.2180  143.7230  157.8244 C   0  0  0  0  0  0  0  0  0  0  0  0
  151.3189  142.3091  157.7329 C   0  0  0  0  0  0  0  0  0  0  0  0
  151.0515  141.6423  156.5079 N   0  0  0  0  0  0  0  0  0  0  0  0
  151.5579  140.4823  156.0510 C   0  0  0  0  0  0  0  0  0  0  0  0
  152.3669  139.8428  156.7332 O   0  0  0  0  0  0  0  0  0  0  0  0
  151.0738  140.1590  154.8199 N   0  5  0  0  0  0  0  0  0  0  0  0
  150.7192  138.8067  154.3853 C   0  0  1  0  0  0  0  0  0  0  0  0
  151.3537  137.7405  155.2792 C   0  0  0  0  0  0  0  0  0  0  0  0
  150.3975  136.5432  155.1798 C   0  0  0  0  0  0  0  0  0  0  0  0
  149.1281  137.0577  154.6136 N   0  3  1  0  0  0  0  0  0  0  0  0
  147.9116  136.5528  155.2858 C   0  0  0  0  0  0  0  0  0  0  0  0
  147.4110  135.2453  154.7205 C   0  0  0  0  0  0  0  0  0  0  0  0
  146.6911  136.5367  154.3971 C   0  0  0  0  0  0  0  0  0  0  0  0
  149.2278  138.5297  154.5649 C   0  0  0  0  0  0  0  0  0  0  0  0
  151.6745  141.7474  158.8789 N   0  0  0  0  0  0  0  0  0  0  0  0
  151.8194  142.8103  159.7783 O   0  0  0  0  0  0  0  0  0  0  0  0
  151.4875  146.1032  159.2956 H   0  0  0  0  0  0  0  0  0  0  0  0
  152.6277  145.3144  160.3868 H   0  0  0  0  0  0  0  0  0  0  0  0
  150.8952  145.2423  160.7176 H   0  0  0  0  0  0  0  0  0  0  0  0
  150.9514  144.4380  157.0604 H   0  0  0  0  0  0  0  0  0  0  0  0
  150.3955  142.1041  155.8958 H   0  0  0  0  0  0  0  0  0  0  0  0
  150.9863  138.5943  153.3487 H   0  0  0  0  0  0  0  0  0  0  0  0
  152.3702  137.4910  154.9732 H   0  0  0  0  0  0  0  0  0  0  0  0
  151.3945  138.0817  156.3154 H   0  0  0  0  0  0  0  0  0  0  0  0
  150.7910  135.7704  154.5176 H   0  0  0  0  0  0  0  0  0  0  0  0
  150.2507  136.0884  156.1608 H   0  0  0  0  0  0  0  0  0  0  0  0
  147.8201  136.7670  156.3493 H   0  0  0  0  0  0  0  0  0  0  0  0
  147.9841  134.7755  153.9229 H   0  0  0  0  0  0  0  0  0  0  0  0
  146.9190  134.5582  155.4060 H   0  0  0  0  0  0  0  0  0  0  0  0
  145.7235  136.6983  154.8682 H   0  0  0  0  0  0  0  0  0  0  0  0
  146.7864  136.9265  153.3852 H   0  0  0  0  0  0  0  0  0  0  0  0
  148.8698  138.9500  155.5073 H   0  0  0  0  0  0  0  0  0  0  0  0
  148.6240  138.9453  153.7577 H   0  0  0  0  0  0  0  0  0  0  0  0
  149.1024  136.7470  153.6531 H   0  0  0  0  0  0  0  0  0  0  0  0
  1  2  1  0  0  0  0
  1 19  1  0  0  0  0
  1 20  1  0  0  0  0
  1 21  1  0  0  0  0
  2 18  1  0  0  0  0
  2  3  2  0  0  0  0
  3  4  1  0  0  0  0
  3 22  1  0  0  0  0
  4  5  1  0  0  0  0
  4 17  2  0  0  0  0
  5  6  1  0  0  0  0
  5 23  1  0  0  0  0
  6  7  2  0  0  0  0
  6  8  1  0  0  0  0
  8  9  1  0  0  0  0
  9 16  1  0  0  0  0
  9 10  1  0  0  0  0
  9 24  1  0  0  0  0
 10 11  1  0  0  0  0
 10 25  1  0  0  0  0
 10 26  1  0  0  0  0
 11 12  1  0  0  0  0
 11 27  1  0  0  0  0
 11 28  1  0  0  0  0
 12 13  1  0  0  0  0
 12 16  1  0  0  0  0
 12 36  1  0  0  0  0
 13 15  1  0  0  0  0
 13 14  1  0  0  0  0
 13 29  1  0  0  0  0
 14 15  1  0  0  0  0
 14 30  1  0  0  0  0
 14 31  1  0  0  0  0
 15 32  1  0  0  0  0
 15 33  1  0  0  0  0
 16 34  1  0  0  0  0
 16 35  1  0  0  0  0
 17 18  1  0  0  0  0
M  CHG  1   8  -1
M  CHG  1  12   1
M  END
> <s_m_source_file>
AV-unprocessed.smi

> <i_m_source_file_index>
3237

> <i_lp_mmshare_version>
43012

> <i_f3d_flags>
0

> <s_epik_input>
W0NIM11jMVtjSF1jKG5vMSlbTkhdQyg9TylbTkhdW0NAQEhdMltDSDJdW0NIMl1OKFtDSDJdMilbQ0hdM1tDSDJdW0NIMl0z

> <s_epik_cmdline>
J2VwaWtfcHl0aG9uJywgJy1waCcsICc3LjAnLCAnLXRuJywgJzgnLCAnLW1hJywgJzIwMCcsICctbWV0YWxfYmluZGluZycsICctaW1hZScsICc8aW5maWxlLm1hZT4nLCAnLW9tYWUnLCAnPG91dGZpbGUubWFlPic=

> <r_epik_Ionization_Penalty>
6.76456

> <r_epik_Ionization_Penalty_Charging>
6.76456

> <r_epik_Ionization_Penalty_Neutral>
5.76722e-06

> <r_epik_State_Penalty>
6.78919

> <r_epik_Charging_Adjusted_Penalty>
13.5538

> <i_epik_Tot_Q>
0

> <i_epik_Tot_abs_Q>
2

> <r_epik_Metal_State_Penalty>
2.728

> <b_epik_Metal_Only>
1

> <s_lp_Force_Field>
OPLS_2005

> <r_lp_Energy>
31.1689

> <b_lp_Chiralities_Consistent>
1

> <s_lp_Variant>
AV-unprocessed.smi:3237-12

> <Gold.Version>
5.8.1

> <Gold.Id.Protein>
6NUR|6NUR_protein|mol2

> <Gold.PLP.Fitness>
41.8189

> <Gold.PLP.PLP>
-31.3402

> <Gold.PLP.part.hbond>
-2.9699

> <Gold.PLP.part.metal>
0.0000

> <Gold.PLP.part.buried>
-5.4529

> <Gold.PLP.part.nonpolar>
-23.1074

> <Gold.PLP.part.repulsive>
0.1864

> <Gold.PLP.ligand.clash>
0.0130

> <Gold.PLP.ligand.torsion>
1.3989

> <Gold.PLP.Chemscore.Hbond>
4.0000

> <Gold.PLP.Chemscore.CHOScore>
0.0000

> <Gold.PLP.Chemscore.Metal>
0.0000

> <Gold.Chemscore.Hbonds>
donor molecule, donor type, donor heavy atom, donor atom, acceptor molecule, acceptor atom, score
      L1  H    12    36       P1  7948  2.00
      P1  H  7989  7998       L1     8  1.00
      P1  H  7997  8008       L1     7  1.00

> <Gold.PLP.Chemscore.Internal.Correction>
1.2895

> <Gold.Rescore>
     Score         DG    S(hbond)    S(metal)    S(lipo)     H(rot)  DE(clash)    DE(int)     intcor
     14.85     -18.85       2.68        0.00      64.89       1.25       0.08       3.91       ----

> <Gold.Chemscore.Fitness>
14.8549

> <Gold.Chemscore.DG>
-18.8473

> <Gold.Chemscore.ZeroCoef>
-5.4800

> <Gold.Chemscore.Hbond>
2.6845

> <Gold.Chemscore.Metal>
0.0000

> <Gold.Chemscore.Lipo>
64.8878

> <Gold.Chemscore.Internal_Hbond>
0.0000

> <Gold.Chemscore.DEClash>
0.0839

> <Gold.Chemscore.DEInternal>
3.9085

> <Gold.Chemscore.Rot>
1.2464

> <Gold.Chemscore.Internal.Correction>
   9.000000E+99

> <Gold.Chemscore.Hbonds>
donor molecule, donor type, donor heavy atom, donor atom, acceptor molecule, acceptor atom, score
      L1  H    12    36       P1  7948  1.00
      P1  H  7989  7998       L1     8  0.48
      P1  H  7997  8008       L1     7  0.88

> <Gold.Chemscore.Hbond.Weighted>
-8.9663

> <Gold.Chemscore.Metal.Weighted>
-0.0000

> <Gold.Chemscore.Lipo.Weighted>
-7.5919

> <Gold.Chemscore.Internal_Hbond.Weighted>
0.0000

> <Gold.Chemscore.DEClash.Weighted>
0.0839

> <Gold.Chemscore.DEInternal.Weighted>
3.9085

> <Gold.Chemscore.Rot.Weighted>
3.1909

> <Gold.Chemscore.Internal.Correction.Weighted>
   9.000000E+99

> <Gold.Protein.RotatedTorsions>
[ 6907 6896 6895 6894 ] final  143.79 input  -60.11 | X-H torsion
[ 7974 7965 7964 7962 ] final   64.24 input  175.53 | X-H torsion
[ 8008 7997 7996 7995 ] final  -42.15 input   59.86 | X-H torsion
[ 10167 10162 10161 10158 ] final -174.67 input  -65.29 | X-H torsion
[ 10718 10713 10712 10709 ] final    3.15 input   66.30 | X-H torsion
[ 10763 10752 10751 10750 ] final  -95.85 input  -60.55 | X-H torsion
[ 11005 11000 10999 10996 ] final  147.93 input  -57.11 | X-H torsion

> <Gold.Protein.ActiveResidues>
 VAL166  LYS551  ARG553  GLY616  TRP617  ASP618  TYR619  PRO620  LYS621  CYS622 
 ASP623  PHE694  ASN695  SER759  ASP760  ASP761  ALA762  ILE779  LEU786  VAL792 
 PHE793  MET794  SER795  GLU796  ALA797  LYS798  CYS799  TRP800  GLU811  SER814 

> <Gold.Protein.RotatedAtoms>
  152.2019  133.4847  159.5062 H   0  0  0  0  0  0  0  0  0  0  0  0  # atno 6907 bound_to 6896
  150.6971  134.1579  159.4174 H   0  0  0  0  0  0  0  0  0  0  0  0  # atno 6908 bound_to 6896
  151.9497  135.0175  160.0592 H   0  0  0  0  0  0  0  0  0  0  0  0  # atno 6909 bound_to 6896
  145.8525  139.3263  143.0867 H   0  0  0  0  0  0  0  0  0  0  0  0  # atno 7974 bound_to 7965
  154.4000  140.1481  156.3308 H   0  0  0  0  0  0  0  0  0  0  0  0  # atno 8008 bound_to 7997
  155.8445  140.3460  155.5632 H   0  0  0  0  0  0  0  0  0  0  0  0  # atno 8009 bound_to 7997
  155.8051  140.0876  157.1926 H   0  0  0  0  0  0  0  0  0  0  0  0  # atno 8010 bound_to 7997
  139.5621  144.1844  152.1255 H   0  0  0  0  0  0  0  0  0  0  0  0  # atno 10167 bound_to 10162
  156.8735  130.5628  149.5656 H   0  0  0  0  0  0  0  0  0  0  0  0  # atno 10718 bound_to 10713
  154.7186  135.5105  153.8777 H   0  0  0  0  0  0  0  0  0  0  0  0  # atno 10763 bound_to 10752
  153.0842  135.6640  153.9991 H   0  0  0  0  0  0  0  0  0  0  0  0  # atno 10764 bound_to 10752
  153.9818  135.3028  155.3399 H   0  0  0  0  0  0  0  0  0  0  0  0  # atno 10765 bound_to 10752
  140.0917  134.9037  157.1661 H   0  0  0  0  0  0  0  0  0  0  0  0  # atno 11005 bound_to 11000
  145.9341  140.9027  143.0341 LP  0  0  0  0  0  0  0  0  0  0  0  0  # atno 17320 bound_to 7965
  144.6728  140.1458  143.7433 LP  0  0  0  0  0  0  0  0  0  0  0  0  # atno 17321 bound_to 7965
  140.1359  144.5246  150.6773 LP  0  0  0  0  0  0  0  0  0  0  0  0  # atno 17342 bound_to 10162
  140.6902  143.2372  151.5152 LP  0  0  0  0  0  0  0  0  0  0  0  0  # atno 17343 bound_to 10162
  156.0714  130.5746  150.9390 LP  0  0  0  0  0  0  0  0  0  0  0  0  # atno 17370 bound_to 10713
  157.6182  131.0932  150.8672 LP  0  0  0  0  0  0  0  0  0  0  0  0  # atno 17371 bound_to 10713
  140.3343  134.2775  155.7222 LP  0  0  0  0  0  0  0  0  0  0  0  0  # atno 17394 bound_to 11000
  141.2080  133.7790  157.0087 LP  0  0  0  0  0  0  0  0  0  0  0  0  # atno 17395 bound_to 11000

$$$$
