AV-unprocessed.smi:1410|AV-procd|sdf|5738|dock3
  -GOLD-   22720 5373D 1   1.00000     0.00000
 Structure written by MMmdl.
 40 41  0  0  0  0  0  0  0  0  4 V2000
  141.9293  141.0819  154.7080 N   0  5  0  0  0  0  0  0  0  0  0  0
  142.5621  141.5095  155.8191 C   0  0  0  0  0  0  0  0  0  0  0  0
  142.2426  142.4346  156.5623 O   0  0  0  0  0  0  0  0  0  0  0  0
  143.8250  140.6962  156.1218 C   0  0  0  0  0  0  0  0  0  0  0  0
  144.8703  140.9428  155.0954 N   0  3  2  0  0  0  0  0  0  0  0  0
  146.0761  140.1029  155.3068 C   0  0  0  0  0  0  0  0  0  0  0  0
  147.0756  140.2632  154.1479 C   0  0  0  0  0  0  0  0  0  0  0  0
  147.4715  141.7367  153.9250 C   0  0  2  0  0  0  0  0  0  0  0  0
  148.3123  142.2460  155.0086 N   0  0  0  0  0  0  0  0  0  0  0  0
  149.2664  141.5487  155.6426 C   0  0  0  0  0  0  0  0  0  0  0  0
  149.5367  140.3770  155.3811 O   0  0  0  0  0  0  0  0  0  0  0  0
  149.8567  142.2863  156.5991 N   0  0  0  0  0  0  0  0  0  0  0  0
  150.8996  141.9082  157.4881 C   0  0  0  0  0  0  0  0  0  0  0  0
  151.5353  142.9325  158.2247 C   0  0  0  0  0  0  0  0  0  0  0  0
  152.5849  142.6060  159.1074 C   0  0  0  0  0  0  0  0  0  0  0  0
  152.9812  141.3215  159.2349 N   0  3  0  0  0  0  0  0  0  0  0  0
  152.4150  140.3106  158.5415 C   0  0  0  0  0  0  0  0  0  0  0  0
  151.3608  140.5759  157.6438 C   0  0  0  0  0  0  0  0  0  0  0  0
  146.2033  142.5951  153.7777 C   0  0  0  0  0  0  0  0  0  0  0  0
  145.2201  142.3808  154.9432 C   0  0  0  0  0  0  0  0  0  0  0  0
  142.4740  140.6205  153.9698 H   0  0  0  0  0  0  0  0  0  0  0  0
  144.2058  140.9321  157.1169 H   0  0  0  0  0  0  0  0  0  0  0  0
  143.5490  139.6402  156.1379 H   0  0  0  0  0  0  0  0  0  0  0  0
  146.5455  140.3681  156.2554 H   0  0  0  0  0  0  0  0  0  0  0  0
  145.7842  139.0545  155.3810 H   0  0  0  0  0  0  0  0  0  0  0  0
  147.9579  139.6480  154.3272 H   0  0  0  0  0  0  0  0  0  0  0  0
  146.6218  139.8753  153.2349 H   0  0  0  0  0  0  0  0  0  0  0  0
  148.0401  141.8119  152.9961 H   0  0  0  0  0  0  0  0  0  0  0  0
  148.1607  143.2045  155.2872 H   0  0  0  0  0  0  0  0  0  0  0  0
  149.4703  143.2065  156.7514 H   0  0  0  0  0  0  0  0  0  0  0  0
  151.2204  143.9610  158.1225 H   0  0  0  0  0  0  0  0  0  0  0  0
  153.1163  143.3287  159.7091 H   0  0  0  0  0  0  0  0  0  0  0  0
  152.8235  139.3264  158.7189 H   0  0  0  0  0  0  0  0  0  0  0  0
  150.9369  139.7555  157.0850 H   0  0  0  0  0  0  0  0  0  0  0  0
  146.4663  143.6508  153.6976 H   0  0  0  0  0  0  0  0  0  0  0  0
  145.7043  142.3369  152.8426 H   0  0  0  0  0  0  0  0  0  0  0  0
  144.3215  142.9697  154.7578 H   0  0  0  0  0  0  0  0  0  0  0  0
  145.6498  142.7526  155.8746 H   0  0  0  0  0  0  0  0  0  0  0  0
  144.4621  140.6437  154.2205 H   0  0  0  0  0  0  0  0  0  0  0  0
  153.7437  141.1060  159.8780 H   0  0  0  0  0  0  0  0  0  0  0  0
  1  2  1  0  0  0  0
  1 21  1  0  0  0  0
  2  3  2  0  0  0  0
  2  4  1  0  0  0  0
  4  5  1  0  0  0  0
  4 22  1  0  0  0  0
  4 23  1  0  0  0  0
  5 20  1  0  0  0  0
  5  6  1  0  0  0  0
  5 39  1  0  0  0  0
  6  7  1  0  0  0  0
  6 24  1  0  0  0  0
  6 25  1  0  0  0  0
  7  8  1  0  0  0  0
  7 26  1  0  0  0  0
  7 27  1  0  0  0  0
  8  9  1  0  0  0  0
  8 19  1  0  0  0  0
  8 28  1  0  0  0  0
  9 10  1  0  0  0  0
  9 29  1  0  0  0  0
 10 11  2  0  0  0  0
 10 12  1  0  0  0  0
 12 13  1  0  0  0  0
 12 30  1  0  0  0  0
 13 18  1  0  0  0  0
 13 14  2  0  0  0  0
 14 15  1  0  0  0  0
 14 31  1  0  0  0  0
 15 16  2  0  0  0  0
 15 32  1  0  0  0  0
 16 17  1  0  0  0  0
 16 40  1  0  0  0  0
 17 18  2  0  0  0  0
 17 33  1  0  0  0  0
 18 34  1  0  0  0  0
 19 20  1  0  0  0  0
 19 35  1  0  0  0  0
 19 36  1  0  0  0  0
 20 37  1  0  0  0  0
 20 38  1  0  0  0  0
M  CHG  1   1  -1
M  CHG  1   5   1
M  CHG  1  16   1
M  END
> <s_m_source_file>
AV-unprocessed.smi

> <i_m_source_file_index>
1410

> <i_lp_mmshare_version>
43012

> <i_f3d_flags>
0

> <s_epik_input>
W05IMl1DKD1PKVtDSDJdTjFbQ0gyXVtDSDJdW0NIXShbQ0gyXVtDSDJdMSlbTkhdQyg9TylbTkhdYzJbY0hdW2NIXW5bY0hdW2NIXTI=

> <s_epik_cmdline>
J2VwaWtfcHl0aG9uJywgJy1waCcsICc3LjAnLCAnLXRuJywgJzgnLCAnLW1hJywgJzIwMCcsICctbWV0YWxfYmluZGluZycsICctaW1hZScsICc8aW5maWxlLm1hZT4nLCAnLW9tYWUnLCAnPG91dGZpbGUubWFlPic=

> <r_epik_Ionization_Penalty>
6.84067

> <r_epik_Ionization_Penalty_Charging>
6.84065

> <r_epik_Ionization_Penalty_Neutral>
1.84563e-05

> <r_epik_State_Penalty>
7.68217

> <r_epik_Charging_Adjusted_Penalty>
14.5228

> <i_epik_Tot_Q>
1

> <i_epik_Tot_abs_Q>
3

> <r_epik_Metal_State_Penalty>
3.74331

> <b_epik_Metal_Only>
1

> <s_lp_Force_Field>
OPLS_2005

> <r_lp_Energy>
20.5434

> <b_lp_Chiralities_Consistent>
1

> <s_lp_Variant>
AV-unprocessed.smi:1410-10

> <Gold.Version>
5.8.1

> <Gold.Id.Protein>
6NUR|6NUR_protein|mol2

> <Gold.PLP.Fitness>
45.3783

> <Gold.PLP.PLP>
-31.3643

> <Gold.PLP.part.hbond>
-5.0000

> <Gold.PLP.part.metal>
0.0000

> <Gold.PLP.part.buried>
-4.9592

> <Gold.PLP.part.nonpolar>
-20.7991

> <Gold.PLP.part.repulsive>
0.4589

> <Gold.PLP.ligand.clash>
0.0000

> <Gold.PLP.ligand.torsion>
0.4005

> <Gold.PLP.Chemscore.Hbond>
4.9280

> <Gold.PLP.Chemscore.CHOScore>
0.0000

> <Gold.PLP.Chemscore.Metal>
0.0000

> <Gold.Chemscore.Hbonds>
donor molecule, donor type, donor heavy atom, donor atom, acceptor molecule, acceptor atom, score
      L1  H     1    21       P1 10175  1.00
      L1  H     5    39       P1 10175  2.00
      L1  H     9    29       P1  8028  0.96
      L1  H    12    30       P1  8028  0.77

> <Gold.PLP.Chemscore.Internal.Correction>
0.0310

> <Gold.Rescore>
     Score         DG    S(hbond)    S(metal)    S(lipo)     H(rot)  DE(clash)    DE(int)     intcor
     17.61     -20.75       3.70        0.00      67.86       1.96       0.04       3.11       ----

> <Gold.Chemscore.Fitness>
17.6051

> <Gold.Chemscore.DG>
-20.7514

> <Gold.Chemscore.ZeroCoef>
-5.4800

> <Gold.Chemscore.Hbond>
3.6985

> <Gold.Chemscore.Metal>
0.0000

> <Gold.Chemscore.Lipo>
67.8571

> <Gold.Chemscore.Internal_Hbond>
0.0000

> <Gold.Chemscore.DEClash>
0.0382

> <Gold.Chemscore.DEInternal>
3.1081

> <Gold.Chemscore.Rot>
1.9612

> <Gold.Chemscore.Internal.Correction>
   9.000000E+99

> <Gold.Chemscore.Hbonds>
donor molecule, donor type, donor heavy atom, donor atom, acceptor molecule, acceptor atom, score
      L1  H     1    21       P1 10175  0.55
      L1  H     5    39       P1 10175  1.00
      L1  H     9    29       P1  8028  0.85
      L1  H    12    30       P1  8028  0.75

> <Gold.Chemscore.Hbond.Weighted>
-12.3529

> <Gold.Chemscore.Metal.Weighted>
-0.0000

> <Gold.Chemscore.Lipo.Weighted>
-7.9393

> <Gold.Chemscore.Internal_Hbond.Weighted>
0.0000

> <Gold.Chemscore.DEClash.Weighted>
0.0382

> <Gold.Chemscore.DEInternal.Weighted>
3.1081

> <Gold.Chemscore.Rot.Weighted>
5.0208

> <Gold.Chemscore.Internal.Correction.Weighted>
   9.000000E+99

> <Gold.Protein.RotatedTorsions>
[ 6907 6896 6895 6894 ] final  102.07 input  -60.11 | X-H torsion
[ 7974 7965 7964 7962 ] final  121.81 input  175.53 | X-H torsion
[ 8008 7997 7996 7995 ] final  -28.49 input   59.86 | X-H torsion
[ 10167 10162 10161 10158 ] final  151.63 input  -65.29 | X-H torsion
[ 10718 10713 10712 10709 ] final  110.95 input   66.30 | X-H torsion
[ 10763 10752 10751 10750 ] final  135.75 input  -60.55 | X-H torsion
[ 11005 11000 10999 10996 ] final   85.65 input  -57.11 | X-H torsion

> <Gold.Protein.ActiveResidues>
 VAL166  LYS551  ARG553  GLY616  TRP617  ASP618  TYR619  PRO620  LYS621  CYS622 
 ASP623  PHE694  ASN695  SER759  ASP760  ASP761  ALA762  ILE779  LEU786  VAL792 
 PHE793  MET794  SER795  GLU796  ALA797  LYS798  CYS799  TRP800  GLU811  SER814 

> <Gold.Protein.RotatedAtoms>
  152.5333  134.0030  159.7903 H   0  0  0  0  0  0  0  0  0  0  0  0  # atno 6907 bound_to 6896
  151.0246  133.5838  159.2674 H   0  0  0  0  0  0  0  0  0  0  0  0  # atno 6908 bound_to 6896
  151.2865  135.0736  159.9242 H   0  0  0  0  0  0  0  0  0  0  0  0  # atno 6909 bound_to 6896
  145.1149  139.3428  143.4744 H   0  0  0  0  0  0  0  0  0  0  0  0  # atno 7974 bound_to 7965
  154.4330  140.1844  156.1097 H   0  0  0  0  0  0  0  0  0  0  0  0  # atno 8008 bound_to 7997
  156.0227  140.3339  155.7030 H   0  0  0  0  0  0  0  0  0  0  0  0  # atno 8009 bound_to 7997
  155.5953  140.0635  157.2738 H   0  0  0  0  0  0  0  0  0  0  0  0  # atno 8010 bound_to 7997
  139.4839  144.5425  151.7541 H   0  0  0  0  0  0  0  0  0  0  0  0  # atno 10167 bound_to 10162
  157.6469  131.0942  150.6677 H   0  0  0  0  0  0  0  0  0  0  0  0  # atno 10718 bound_to 10713
  153.8452  135.3086  155.3429 H   0  0  0  0  0  0  0  0  0  0  0  0  # atno 10763 bound_to 10752
  154.7915  135.4780  154.0067 H   0  0  0  0  0  0  0  0  0  0  0  0  # atno 10764 bound_to 10752
  153.1551  135.6850  153.8916 H   0  0  0  0  0  0  0  0  0  0  0  0  # atno 10765 bound_to 10752
  139.8966  134.8301  156.2611 H   0  0  0  0  0  0  0  0  0  0  0  0  # atno 11005 bound_to 11000
  146.3524  140.1084  142.8605 LP  0  0  0  0  0  0  0  0  0  0  0  0  # atno 17320 bound_to 7965
  145.0805  140.9218  143.4828 LP  0  0  0  0  0  0  0  0  0  0  0  0  # atno 17321 bound_to 7965
  140.4966  144.1231  150.5961 LP  0  0  0  0  0  0  0  0  0  0  0  0  # atno 17342 bound_to 10162
  140.4110  143.2657  151.9832 LP  0  0  0  0  0  0  0  0  0  0  0  0  # atno 17343 bound_to 10162
  156.6993  130.4618  149.5577 LP  0  0  0  0  0  0  0  0  0  0  0  0  # atno 17370 bound_to 10713
  156.1806  130.6497  151.0947 LP  0  0  0  0  0  0  0  0  0  0  0  0  # atno 17371 bound_to 10713
  141.0162  133.7067  156.1192 LP  0  0  0  0  0  0  0  0  0  0  0  0  # atno 17394 bound_to 11000
  140.7299  134.4266  157.5567 LP  0  0  0  0  0  0  0  0  0  0  0  0  # atno 17395 bound_to 11000

$$$$
