AV-unprocessed.smi:316|AV-procd|sdf|2325|dock5
  -GOLD-   2262022223D 1   1.00000     0.00000
 Structure written by MMmdl.
 43 44  0  0  0  0  0  0  0  0  2 V2000
  148.2766  139.3779  153.2938 C   0  0  0  0  0  0  0  0  0  0  0  0
  149.4528  138.5256  153.3774 N   0  0  0  0  0  0  0  0  0  0  0  0
  150.6583  138.9423  153.7898 C   0  0  0  0  0  0  0  0  0  0  0  0
  150.8851  140.1005  154.1415 O   0  0  0  0  0  0  0  0  0  0  0  0
  151.7657  137.8835  153.8088 C   0  0  0  0  0  0  0  0  0  0  0  0
  151.4321  136.6666  154.6950 C   0  0  0  0  0  0  0  0  0  0  0  0
  150.5474  135.7290  154.0123 N   0  0  0  0  0  0  0  0  0  0  0  0
  150.4124  134.4335  154.3277 C   0  0  0  0  0  0  0  0  0  0  0  0
  151.0221  133.8882  155.2475 O   0  0  0  0  0  0  0  0  0  0  0  0
  149.5189  133.8262  153.5289 N   0  0  0  0  0  0  0  0  0  0  0  0
  149.0675  132.4780  153.5970 C   0  0  0  0  0  0  0  0  0  0  0  0
  149.8577  131.4735  154.2126 C   0  0  0  0  0  0  0  0  0  0  0  0
  149.4228  130.1351  154.2069 C   0  0  0  0  0  0  0  0  0  0  0  0
  148.2115  129.8166  153.5701 C   0  0  0  0  0  0  0  0  0  0  0  0
  147.4889  130.7922  152.9820 N   0  3  0  0  0  0  0  0  0  0  0  0
  147.8459  132.1009  152.9670 C   0  0  0  0  0  0  0  0  0  0  0  0
  146.9800  133.0133  152.3216 N   0  0  0  0  0  0  0  0  0  0  0  0
  145.8937  132.5294  151.4775 C   0  0  0  0  0  0  0  0  0  0  0  0
  144.9913  133.7409  151.2604 C   0  0  0  0  0  0  0  0  0  0  0  0
  145.1007  134.4746  152.5937 C   0  0  0  0  0  0  0  0  0  0  0  0
  146.5422  134.2067  153.0392 C   0  0  0  0  0  0  0  0  0  0  0  0
  147.4315  138.8082  152.9072 H   0  0  0  0  0  0  0  0  0  0  0  0
  148.4535  140.2216  152.6252 H   0  0  0  0  0  0  0  0  0  0  0  0
  148.0069  139.7633  154.2779 H   0  0  0  0  0  0  0  0  0  0  0  0
  149.3426  137.5584  153.1086 H   0  0  0  0  0  0  0  0  0  0  0  0
  151.9468  137.5638  152.7819 H   0  0  0  0  0  0  0  0  0  0  0  0
  152.6884  138.3481  154.1601 H   0  0  0  0  0  0  0  0  0  0  0  0
  152.3458  136.1309  154.9558 H   0  0  0  0  0  0  0  0  0  0  0  0
  150.9777  136.9834  155.6358 H   0  0  0  0  0  0  0  0  0  0  0  0
  150.0057  136.0946  153.2428 H   0  0  0  0  0  0  0  0  0  0  0  0
  149.0276  134.4199  152.8766 H   0  0  0  0  0  0  0  0  0  0  0  0
  150.8066  131.7066  154.6722 H   0  0  0  0  0  0  0  0  0  0  0  0
  150.0173  129.3631  154.6733 H   0  0  0  0  0  0  0  0  0  0  0  0
  147.8026  128.8185  153.5094 H   0  0  0  0  0  0  0  0  0  0  0  0
  146.2678  132.1289  150.5349 H   0  0  0  0  0  0  0  0  0  0  0  0
  145.3346  131.7440  151.9881 H   0  0  0  0  0  0  0  0  0  0  0  0
  145.3882  134.3647  150.4583 H   0  0  0  0  0  0  0  0  0  0  0  0
  143.9673  133.4682  151.0042 H   0  0  0  0  0  0  0  0  0  0  0  0
  144.8716  135.5380  152.5158 H   0  0  0  0  0  0  0  0  0  0  0  0
  144.4071  134.0340  153.3110 H   0  0  0  0  0  0  0  0  0  0  0  0
  146.6065  134.0844  154.1213 H   0  0  0  0  0  0  0  0  0  0  0  0
  147.1812  135.0424  152.7525 H   0  0  0  0  0  0  0  0  0  0  0  0
  146.6149  130.5289  152.5267 H   0  0  0  0  0  0  0  0  0  0  0  0
  1  2  1  0  0  0  0
  1 22  1  0  0  0  0
  1 23  1  0  0  0  0
  1 24  1  0  0  0  0
  2  3  1  0  0  0  0
  2 25  1  0  0  0  0
  3  4  2  0  0  0  0
  3  5  1  0  0  0  0
  5  6  1  0  0  0  0
  5 26  1  0  0  0  0
  5 27  1  0  0  0  0
  6  7  1  0  0  0  0
  6 28  1  0  0  0  0
  6 29  1  0  0  0  0
  7  8  1  0  0  0  0
  7 30  1  0  0  0  0
  8  9  2  0  0  0  0
  8 10  1  0  0  0  0
 10 11  1  0  0  0  0
 10 31  1  0  0  0  0
 11 16  1  0  0  0  0
 11 12  2  0  0  0  0
 12 13  1  0  0  0  0
 12 32  1  0  0  0  0
 13 14  2  0  0  0  0
 13 33  1  0  0  0  0
 14 15  1  0  0  0  0
 14 34  1  0  0  0  0
 15 16  2  0  0  0  0
 15 43  1  0  0  0  0
 16 17  1  0  0  0  0
 17 21  1  0  0  0  0
 17 18  1  0  0  0  0
 18 19  1  0  0  0  0
 18 35  1  0  0  0  0
 18 36  1  0  0  0  0
 19 20  1  0  0  0  0
 19 37  1  0  0  0  0
 19 38  1  0  0  0  0
 20 21  1  0  0  0  0
 20 39  1  0  0  0  0
 20 40  1  0  0  0  0
 21 41  1  0  0  0  0
 21 42  1  0  0  0  0
M  CHG  1  15   1
M  END
> <s_m_source_file>
AV-unprocessed.smi

> <i_m_source_file_index>
316

> <i_lp_mmshare_version>
43012

> <i_f3d_flags>
0

> <s_epik_input>
W0NIM11bTkhdQyg9TylbQ0gyXVtDSDJdW05IXUMoPU8pW05IXWMxW2NIXVtjSF1bY0hdbmMxTjJbQ0gyXVtDSDJdW0NIMl1bQ0gyXTI=

> <s_epik_cmdline>
J2VwaWtfcHl0aG9uJywgJy1waCcsICc3LjAnLCAnLXRuJywgJzgnLCAnLW1hJywgJzIwMCcsICctbWV0YWxfYmluZGluZycsICctaW1hZScsICc8aW5maWxlLm1hZT4nLCAnLW9tYWUnLCAnPG91dGZpbGUubWFlPic=

> <r_lp_tautomer_probability>
0.999994

> <r_epik_Ionization_Penalty>
1.15434

> <r_epik_Ionization_Penalty_Charging>
1.15432

> <r_epik_Ionization_Penalty_Neutral>
1.92607e-05

> <r_epik_State_Penalty>
1.21599

> <r_epik_Charging_Adjusted_Penalty>
2.37031

> <i_epik_Tot_Q>
1

> <i_epik_Tot_abs_Q>
1

> <r_epik_Metal_State_Penalty>
1.29606

> <b_epik_Metal_Only>
0

> <s_lp_Force_Field>
OPLS_2005

> <r_lp_Energy>
36.337

> <b_lp_Chiralities_Consistent>
1

> <s_lp_Variant>
AV-unprocessed.smi:316-2

> <Gold.Version>
5.8.1

> <Gold.Id.Protein>
6NUR|6NUR_protein|mol2

> <Gold.PLP.Fitness>
46.7233

> <Gold.PLP.PLP>
-36.4886

> <Gold.PLP.part.hbond>
-6.8042

> <Gold.PLP.part.metal>
0.0000

> <Gold.PLP.part.buried>
-1.2973

> <Gold.PLP.part.nonpolar>
-28.8247

> <Gold.PLP.part.repulsive>
0.4245

> <Gold.PLP.ligand.clash>
0.0000

> <Gold.PLP.ligand.torsion>
0.5497

> <Gold.PLP.Chemscore.Hbond>
3.6448

> <Gold.PLP.Chemscore.CHOScore>
0.0000

> <Gold.PLP.Chemscore.Metal>
0.0000

> <Gold.Chemscore.Hbonds>
donor molecule, donor type, donor heavy atom, donor atom, acceptor molecule, acceptor atom, score
      L1  H     2    25       P1  7948  1.00
      L1  H     7    30       P1  7948  0.35
      L1  H    10    31       P1  7948  0.33
      P1  H  7989  7998       L1     4  0.29

> <Gold.PLP.Chemscore.Internal.Correction>
0.3996

> <Gold.Rescore>
     Score         DG    S(hbond)    S(metal)    S(lipo)     H(rot)  DE(clash)    DE(int)     intcor
     12.55     -17.10       2.86        0.00      60.94       1.98       2.02       2.53       ----

> <Gold.Chemscore.Fitness>
12.5482

> <Gold.Chemscore.DG>
-17.1014

> <Gold.Chemscore.ZeroCoef>
-5.4800

> <Gold.Chemscore.Hbond>
2.8592

> <Gold.Chemscore.Metal>
0.0000

> <Gold.Chemscore.Lipo>
60.9425

> <Gold.Chemscore.Internal_Hbond>
0.0000

> <Gold.Chemscore.DEClash>
2.0246

> <Gold.Chemscore.DEInternal>
2.5286

> <Gold.Chemscore.Rot>
1.9760

> <Gold.Chemscore.Internal.Correction>
   9.000000E+99

> <Gold.Chemscore.Hbonds>
donor molecule, donor type, donor heavy atom, donor atom, acceptor molecule, acceptor atom, score
      L1  H     2    25       P1  7948  0.91
      L1  H     7    30       P1  7948  0.01
      L1  H    10    31       P1  7948  0.01
      P1  H  7989  7998       L1     4  0.29

> <Gold.Chemscore.Hbond.Weighted>
-9.5497

> <Gold.Chemscore.Metal.Weighted>
-0.0000

> <Gold.Chemscore.Lipo.Weighted>
-7.1303

> <Gold.Chemscore.Internal_Hbond.Weighted>
0.0000

> <Gold.Chemscore.DEClash.Weighted>
2.0246

> <Gold.Chemscore.DEInternal.Weighted>
2.5286

> <Gold.Chemscore.Rot.Weighted>
5.0585

> <Gold.Chemscore.Internal.Correction.Weighted>
   9.000000E+99

> <Gold.Protein.RotatedTorsions>
[ 6907 6896 6895 6894 ] final  -92.97 input  -60.11 | X-H torsion
[ 7974 7965 7964 7962 ] final   14.46 input  175.53 | X-H torsion
[ 8008 7997 7996 7995 ] final -140.58 input   59.86 | X-H torsion
[ 10167 10162 10161 10158 ] final  166.41 input  -65.29 | X-H torsion
[ 10718 10713 10712 10709 ] final -145.03 input   66.30 | X-H torsion
[ 10763 10752 10751 10750 ] final  -54.30 input  -60.55 | X-H torsion
[ 11005 11000 10999 10996 ] final -168.80 input  -57.11 | X-H torsion

> <Gold.Protein.ActiveResidues>
 VAL166  LYS551  ARG553  GLY616  TRP617  ASP618  TYR619  PRO620  LYS621  CYS622 
 ASP623  PHE694  ASN695  SER759  ASP760  ASP761  ALA762  ILE779  LEU786  VAL792 
 PHE793  MET794  SER795  GLU796  ALA797  LYS798  CYS799  TRP800  GLU811  SER814 

> <Gold.Protein.RotatedAtoms>
  150.6914  134.2040  159.4332 H   0  0  0  0  0  0  0  0  0  0  0  0  # atno 6907 bound_to 6896
  152.0005  134.9929  160.0574 H   0  0  0  0  0  0  0  0  0  0  0  0  # atno 6908 bound_to 6896
  152.1583  133.4531  159.4885 H   0  0  0  0  0  0  0  0  0  0  0  0  # atno 6909 bound_to 6896
  146.2304  139.9038  142.8535 H   0  0  0  0  0  0  0  0  0  0  0  0  # atno 7974 bound_to 7965
  155.4637  140.0547  157.2988 H   0  0  0  0  0  0  0  0  0  0  0  0  # atno 8008 bound_to 7997
  154.4726  140.2047  155.9910 H   0  0  0  0  0  0  0  0  0  0  0  0  # atno 8009 bound_to 7997
  156.1081  140.3208  155.8039 H   0  0  0  0  0  0  0  0  0  0  0  0  # atno 8010 bound_to 7997
  139.4924  144.4030  151.9388 H   0  0  0  0  0  0  0  0  0  0  0  0  # atno 10167 bound_to 10162
  156.3775  130.7820  151.2008 H   0  0  0  0  0  0  0  0  0  0  0  0  # atno 10718 bound_to 10713
  154.1726  135.6456  153.5013 H   0  0  0  0  0  0  0  0  0  0  0  0  # atno 10763 bound_to 10752
  153.0080  135.5387  154.6597 H   0  0  0  0  0  0  0  0  0  0  0  0  # atno 10764 bound_to 10752
  154.5940  135.2937  155.0578 H   0  0  0  0  0  0  0  0  0  0  0  0  # atno 10765 bound_to 10752
  140.5379  134.5551  157.5092 H   0  0  0  0  0  0  0  0  0  0  0  0  # atno 11005 bound_to 11000
  145.2297  140.9968  143.3998 LP  0  0  0  0  0  0  0  0  0  0  0  0  # atno 17320 bound_to 7965
  144.9541  139.4051  143.6388 LP  0  0  0  0  0  0  0  0  0  0  0  0  # atno 17321 bound_to 7965
  140.3469  144.3135  150.5956 LP  0  0  0  0  0  0  0  0  0  0  0  0  # atno 17342 bound_to 10162
  140.5518  143.2205  151.7914 LP  0  0  0  0  0  0  0  0  0  0  0  0  # atno 17343 bound_to 10162
  157.7489  131.0354  150.4361 LP  0  0  0  0  0  0  0  0  0  0  0  0  # atno 17370 bound_to 10713
  156.4599  130.4029  149.6583 LP  0  0  0  0  0  0  0  0  0  0  0  0  # atno 17371 bound_to 10713
  139.9519  134.7601  156.0428 LP  0  0  0  0  0  0  0  0  0  0  0  0  # atno 17394 bound_to 11000
  141.1244  133.6603  156.3298 LP  0  0  0  0  0  0  0  0  0  0  0  0  # atno 17395 bound_to 11000

$$$$
