AV-unprocessed.smi:21|AV-procd|sdf|163|dock4
  -GOLD-   2262015403D 1   1.00000     0.00000
 Structure written by MMmdl.
 61 64  0  0  0  0  0  0  0  0  1 V2000
  149.1172  144.2942  159.7786 C   0  0  0  0  0  0  0  0  0  0  0  0
  149.2940  143.1972  158.8965 O   0  0  0  0  0  0  0  0  0  0  0  0
  150.6250  143.0649  158.4176 C   0  0  1  0  0  0  0  0  0  0  0  0
  151.6266  143.1883  159.5769 C   0  0  0  0  0  0  0  0  0  0  0  0
  152.3401  141.8274  159.6218 C   0  0  2  0  0  0  0  0  0  0  0  0
  153.7758  141.8994  160.1852 C   0  0  0  0  0  0  0  0  0  0  0  0
  153.8037  141.8858  161.6509 N   0  0  0  0  0  0  0  0  0  0  0  0
  153.1941  143.0115  162.3482 C   0  0  0  0  0  0  0  0  0  0  0  0
  154.5847  140.9967  162.3322 C   0  0  0  0  0  0  0  0  0  0  0  0
  155.3145  141.4542  163.3852 N   0  0  0  0  0  0  0  0  0  0  0  0
  156.0971  140.6356  164.0915 C   0  0  0  0  0  0  0  0  0  0  0  0
  156.3039  139.3308  163.9214 N   0  0  0  0  0  0  0  0  0  0  0  0
  155.5837  138.8535  162.8678 C   0  0  0  0  0  0  0  0  0  0  0  0
  154.7084  139.6040  162.0271 C   0  0  0  0  0  0  0  0  0  0  0  0
  154.1548  138.7542  161.0727 N   0  0  0  0  0  0  0  0  0  0  0  0
  154.6707  137.5846  161.3304 C   0  0  0  0  0  0  0  0  0  0  0  0
  155.5366  137.5530  162.3969 N   0  0  0  0  0  0  0  0  0  0  0  0
  156.2495  136.3905  162.8988 C   0  0  0  0  0  0  0  0  0  0  0  0
  155.4482  135.5825  163.9509 C   0  0  2  0  0  0  0  0  0  0  0  0
  154.8366  136.5159  165.0276 C   0  0  0  0  0  0  0  0  0  0  0  0
  155.8263  137.2846  165.6786 O   0  0  0  0  0  0  0  0  0  0  0  0
  156.3444  134.4741  164.5700 C   0  0  1  0  0  0  0  0  0  0  0  0
  155.6837  133.5972  165.6203 C   0  0  0  0  0  0  0  0  0  0  0  0
  156.6110  132.3891  165.6678 C   0  0  0  0  0  0  0  0  0  0  0  0
  157.0973  132.2326  164.3410 O   0  0  0  0  0  0  0  0  0  0  0  0
  156.8118  133.4008  163.5781 C   0  0  0  0  0  0  0  0  0  0  0  0
  152.2473  141.3222  158.2613 N   0  0  0  0  0  0  0  0  0  0  0  0
  152.5114  139.8942  158.1430 C   0  0  0  0  0  0  0  0  0  0  0  0
  150.8973  141.6620  157.8577 C   0  0  0  0  0  0  0  0  0  0  0  0
  150.8465  143.8308  157.6719 H   0  0  0  0  0  0  0  0  0  0  0  0
  151.7500  141.1721  160.2655 H   0  0  0  0  0  0  0  0  0  0  0  0
  148.0808  144.3281  160.1143 H   0  0  0  0  0  0  0  0  0  0  0  0
  149.3402  145.2431  159.2900 H   0  0  0  0  0  0  0  0  0  0  0  0
  149.7516  144.1973  160.6606 H   0  0  0  0  0  0  0  0  0  0  0  0
  152.3332  143.9892  159.3567 H   0  0  0  0  0  0  0  0  0  0  0  0
  151.1476  143.4244  160.5279 H   0  0  0  0  0  0  0  0  0  0  0  0
  154.3426  141.0308  159.8510 H   0  0  0  0  0  0  0  0  0  0  0  0
  154.3039  142.7541  159.7633 H   0  0  0  0  0  0  0  0  0  0  0  0
  152.6173  142.6697  163.2080 H   0  0  0  0  0  0  0  0  0  0  0  0
  152.5132  143.5540  161.6918 H   0  0  0  0  0  0  0  0  0  0  0  0
  153.9567  143.7134  162.6866 H   0  0  0  0  0  0  0  0  0  0  0  0
  156.6335  141.0928  164.9098 H   0  0  0  0  0  0  0  0  0  0  0  0
  154.4298  136.7065  160.7489 H   0  0  0  0  0  0  0  0  0  0  0  0
  156.4924  135.7706  162.0359 H   0  0  0  0  0  0  0  0  0  0  0  0
  157.2015  136.7155  163.3197 H   0  0  0  0  0  0  0  0  0  0  0  0
  154.6250  135.0987  163.4226 H   0  0  0  0  0  0  0  0  0  0  0  0
  154.0877  137.1761  164.5887 H   0  0  0  0  0  0  0  0  0  0  0  0
  154.3338  135.9516  165.8115 H   0  0  0  0  0  0  0  0  0  0  0  0
  156.6618  137.1028  165.2757 H   0  0  0  0  0  0  0  0  0  0  0  0
  157.2268  134.9350  165.0174 H   0  0  0  0  0  0  0  0  0  0  0  0
  155.5922  134.0814  166.5926 H   0  0  0  0  0  0  0  0  0  0  0  0
  154.6889  133.2921  165.2929 H   0  0  0  0  0  0  0  0  0  0  0  0
  157.4569  132.5848  166.3277 H   0  0  0  0  0  0  0  0  0  0  0  0
  156.1074  131.4883  166.0190 H   0  0  0  0  0  0  0  0  0  0  0  0
  156.0190  133.1574  162.8693 H   0  0  0  0  0  0  0  0  0  0  0  0
  157.6879  133.7128  163.0092 H   0  0  0  0  0  0  0  0  0  0  0  0
  152.3660  139.5621  157.1146 H   0  0  0  0  0  0  0  0  0  0  0  0
  151.8463  139.3134  158.7834 H   0  0  0  0  0  0  0  0  0  0  0  0
  153.5395  139.6613  158.4196 H   0  0  0  0  0  0  0  0  0  0  0  0
  150.1927  140.9544  158.2987 H   0  0  0  0  0  0  0  0  0  0  0  0
  150.7776  141.6158  156.7747 H   0  0  0  0  0  0  0  0  0  0  0  0
  1  2  1  0  0  0  0
  1 32  1  0  0  0  0
  1 33  1  0  0  0  0
  1 34  1  0  0  0  0
  2  3  1  0  0  0  0
  3 30  1  0  0  0  0
  3 29  1  0  0  0  0
  3  4  1  0  0  0  0
  4  5  1  0  0  0  0
  4 35  1  0  0  0  0
  4 36  1  0  0  0  0
  5 31  1  0  0  0  0
  5  6  1  0  0  0  0
  5 27  1  0  0  0  0
  6  7  1  0  0  0  0
  6 37  1  0  0  0  0
  6 38  1  0  0  0  0
  7  8  1  0  0  0  0
  7  9  1  0  0  0  0
  8 39  1  0  0  0  0
  8 40  1  0  0  0  0
  8 41  1  0  0  0  0
  9 14  1  0  0  0  0
  9 10  2  0  0  0  0
 10 11  1  0  0  0  0
 11 12  2  0  0  0  0
 11 42  1  0  0  0  0
 12 13  1  0  0  0  0
 13 17  1  0  0  0  0
 13 14  2  0  0  0  0
 14 15  1  0  0  0  0
 15 16  2  0  0  0  0
 16 17  1  0  0  0  0
 16 43  1  0  0  0  0
 17 18  1  0  0  0  0
 18 19  1  0  0  0  0
 18 44  1  0  0  0  0
 18 45  1  0  0  0  0
 19 20  1  0  0  0  0
 19 22  1  0  0  0  0
 19 46  1  0  0  0  0
 20 21  1  0  0  0  0
 20 47  1  0  0  0  0
 20 48  1  0  0  0  0
 21 49  1  0  0  0  0
 22 26  1  0  0  0  0
 22 23  1  0  0  0  0
 22 50  1  0  0  0  0
 23 24  1  0  0  0  0
 23 51  1  0  0  0  0
 23 52  1  0  0  0  0
 24 25  1  0  0  0  0
 24 53  1  0  0  0  0
 24 54  1  0  0  0  0
 25 26  1  0  0  0  0
 26 55  1  0  0  0  0
 26 56  1  0  0  0  0
 27 28  1  0  0  0  0
 27 29  1  0  0  0  0
 28 57  1  0  0  0  0
 28 58  1  0  0  0  0
 28 59  1  0  0  0  0
 29 60  1  0  0  0  0
 29 61  1  0  0  0  0
M  END
> <s_m_source_file>
AV-unprocessed.smi

> <i_m_source_file_index>
21

> <i_lp_mmshare_version>
43012

> <i_f3d_flags>
0

> <s_epik_input>
W0NIM11PW0NASF0xW0NIMl1bQ0BIXShOKFtDSDNdKVtDSDJdMSlbQ0gyXU4oW0NIM10pYyhuW2NIXW4yKWMoYzIzKW5bY0hdbjNbQ0gyXVtDQEhdKFtDSDJdW09IXSlbQ0BASF00W0NIMl1bQ0gyXU9bQ0gyXTQ=

> <s_epik_cmdline>
J2VwaWtfcHl0aG9uJywgJy1waCcsICc3LjAnLCAnLXRuJywgJzgnLCAnLW1hJywgJzIwMCcsICctbWV0YWxfYmluZGluZycsICctaW1hZScsICc8aW5maWxlLm1hZT4nLCAnLW9tYWUnLCAnPG91dGZpbGUubWFlPic=

> <r_lp_tautomer_probability>
1

> <r_epik_Ionization_Penalty>
2.17574

> <r_epik_Ionization_Penalty_Charging>
0

> <r_epik_Ionization_Penalty_Neutral>
2.17574

> <r_epik_State_Penalty>
2.31336

> <r_epik_Charging_Adjusted_Penalty>
2.31336

> <i_epik_Tot_Q>
0

> <i_epik_Tot_abs_Q>
0

> <r_epik_Metal_State_Penalty>
2.31025

> <b_epik_Metal_Only>
0

> <s_lp_Force_Field>
OPLS_2005

> <r_lp_Energy>
69.6605

> <b_lp_Chiralities_Consistent>
1

> <s_lp_Variant>
AV-unprocessed.smi:21-43

> <Gold.Version>
5.8.1

> <Gold.Id.Protein>
6NUR|6NUR_protein|mol2

> <Gold.PLP.Fitness>
48.4992

> <Gold.PLP.PLP>
-50.7307

> <Gold.PLP.part.hbond>
-2.0000

> <Gold.PLP.part.metal>
0.0000

> <Gold.PLP.part.buried>
-6.7216

> <Gold.PLP.part.nonpolar>
-42.4677

> <Gold.PLP.part.repulsive>
0.1703

> <Gold.PLP.ligand.clash>
0.0119

> <Gold.PLP.ligand.torsion>
1.4416

> <Gold.PLP.Chemscore.Hbond>
0.0000

> <Gold.PLP.Chemscore.CHOScore>
0.0000

> <Gold.PLP.Chemscore.Metal>
0.0000

> <Gold.PLP.Chemscore.Internal.Correction>
0.6636

> <Gold.Rescore>
     Score         DG    S(hbond)    S(metal)    S(lipo)     H(rot)  DE(clash)    DE(int)     intcor
     10.43     -11.95       0.00        0.00     121.00       3.00       0.08       1.44       ----

> <Gold.Chemscore.Fitness>
10.4312

> <Gold.Chemscore.DG>
-11.9494

> <Gold.Chemscore.ZeroCoef>
-5.4800

> <Gold.Chemscore.Hbond>
0.0000

> <Gold.Chemscore.Metal>
0.0000

> <Gold.Chemscore.Lipo>
121.0032

> <Gold.Chemscore.Internal_Hbond>
0.0000

> <Gold.Chemscore.DEClash>
0.0766

> <Gold.Chemscore.DEInternal>
1.4416

> <Gold.Chemscore.Rot>
3.0031

> <Gold.Chemscore.Internal.Correction>
   9.000000E+99

> <Gold.Chemscore.Hbond.Weighted>
-0.0000

> <Gold.Chemscore.Metal.Weighted>
-0.0000

> <Gold.Chemscore.Lipo.Weighted>
-14.1574

> <Gold.Chemscore.Internal_Hbond.Weighted>
0.0000

> <Gold.Chemscore.DEClash.Weighted>
0.0766

> <Gold.Chemscore.DEInternal.Weighted>
1.4416

> <Gold.Chemscore.Rot.Weighted>
7.6880

> <Gold.Chemscore.Internal.Correction.Weighted>
   9.000000E+99

> <Gold.Protein.RotatedTorsions>
[ 6907 6896 6895 6894 ] final   63.46 input  -60.11 | X-H torsion
[ 7974 7965 7964 7962 ] final   71.47 input  175.53 | X-H torsion
[ 8008 7997 7996 7995 ] final -119.53 input   59.86 | X-H torsion
[ 10167 10162 10161 10158 ] final  -50.43 input  -65.29 | X-H torsion
[ 10718 10713 10712 10709 ] final  -57.42 input   66.30 | X-H torsion
[ 10763 10752 10751 10750 ] final -148.40 input  -60.55 | X-H torsion
[ 11005 11000 10999 10996 ] final  -94.43 input  -57.11 | X-H torsion

> <Gold.Protein.ActiveResidues>
 VAL166  LYS551  ARG553  GLY616  TRP617  ASP618  TYR619  PRO620  LYS621  CYS622 
 ASP623  PHE694  ASN695  SER759  ASP760  ASP761  ALA762  ILE779  LEU786  VAL792 
 PHE793  MET794  SER795  GLU796  ALA797  LYS798  CYS799  TRP800  GLU811  SER814 

> <Gold.Protein.RotatedAtoms>
  152.4255  134.5877  159.9965 H   0  0  0  0  0  0  0  0  0  0  0  0  # atno 6907 bound_to 6896
  151.6014  133.3350  159.3056 H   0  0  0  0  0  0  0  0  0  0  0  0  # atno 6908 bound_to 6896
  150.8144  134.7355  159.6782 H   0  0  0  0  0  0  0  0  0  0  0  0  # atno 6909 bound_to 6896
  145.7654  139.2819  143.1352 H   0  0  0  0  0  0  0  0  0  0  0  0  # atno 7974 bound_to 7965
  155.1172  140.0398  157.2740 H   0  0  0  0  0  0  0  0  0  0  0  0  # atno 8008 bound_to 7997
  154.6641  140.2597  155.7052 H   0  0  0  0  0  0  0  0  0  0  0  0  # atno 8009 bound_to 7997
  156.2631  140.2811  156.1124 H   0  0  0  0  0  0  0  0  0  0  0  0  # atno 8010 bound_to 7997
  140.6638  143.2658  151.4358 H   0  0  0  0  0  0  0  0  0  0  0  0  # atno 10167 bound_to 10162
  156.1212  130.4166  150.0439 H   0  0  0  0  0  0  0  0  0  0  0  0  # atno 10718 bound_to 10713
  154.8235  135.3335  154.6968 H   0  0  0  0  0  0  0  0  0  0  0  0  # atno 10763 bound_to 10752
  153.7597  135.6933  153.4932 H   0  0  0  0  0  0  0  0  0  0  0  0  # atno 10764 bound_to 10752
  153.2118  135.4479  155.0338 H   0  0  0  0  0  0  0  0  0  0  0  0  # atno 10765 bound_to 10752
  141.1470  133.7956  157.0297 H   0  0  0  0  0  0  0  0  0  0  0  0  # atno 11005 bound_to 11000
  146.0223  140.8337  142.9917 LP  0  0  0  0  0  0  0  0  0  0  0  0  # atno 17320 bound_to 7965
  144.6822  140.2646  143.7314 LP  0  0  0  0  0  0  0  0  0  0  0  0  # atno 17321 bound_to 7965
  139.5880  144.1562  152.2053 LP  0  0  0  0  0  0  0  0  0  0  0  0  # atno 17342 bound_to 10162
  140.0908  144.5622  150.7056 LP  0  0  0  0  0  0  0  0  0  0  0  0  # atno 17343 bound_to 10162
  156.8377  130.9414  151.3634 LP  0  0  0  0  0  0  0  0  0  0  0  0  # atno 17370 bound_to 10713
  157.6395  130.8794  149.9421 LP  0  0  0  0  0  0  0  0  0  0  0  0  # atno 17371 bound_to 10713
  140.0762  134.9674  157.1549 LP  0  0  0  0  0  0  0  0  0  0  0  0  # atno 17394 bound_to 11000
  140.3641  134.2462  155.7184 LP  0  0  0  0  0  0  0  0  0  0  0  0  # atno 17395 bound_to 11000

$$$$
