AV-unprocessed.smi:1007|AV-procd|sdf|4408|dock9
  -GOLD-   22720 2353D 1   1.00000     0.00000
 Structure written by MMmdl.
 57 59  0  0  0  0  0  0  0  0  3 V2000
  147.7183  136.2626  161.6393 C   0  0  0  0  0  0  0  0  0  0  0  0
  148.2285  137.2115  160.7188 O   0  0  0  0  0  0  0  0  0  0  0  0
  148.9099  136.6050  159.6333 C   0  0  0  0  0  0  0  0  0  0  0  0
  147.8983  135.8003  158.8028 C   0  0  0  0  0  0  0  0  0  0  0  0
  148.1080  135.9605  157.3414 N   0  3  2  0  0  0  0  0  0  0  0  0
  149.3133  135.2381  156.8632 C   0  0  0  0  0  0  0  0  0  0  0  0
  149.4480  135.3363  155.3314 C   0  0  0  0  0  0  0  0  0  0  0  0
  149.4730  136.7471  154.8713 N   0  3  2  0  0  0  0  0  0  0  0  0
  150.7730  137.4239  155.1260 C   0  0  0  0  0  0  0  0  0  0  0  0
  150.6534  138.9642  155.1546 C   0  0  2  0  0  0  0  0  0  0  0  0
  150.3906  139.4253  153.8452 O   0  0  0  0  0  0  0  0  0  0  0  0
  151.9269  139.6712  155.6597 C   0  0  0  0  0  0  0  0  0  0  0  0
  151.6270  140.8282  156.4834 N   0  0  0  0  0  0  0  0  0  0  0  0
  150.7804  141.8335  156.1893 C   0  0  0  0  0  0  0  0  0  0  0  0
  150.6322  142.7900  157.1008 N   0  0  0  0  0  0  0  0  0  0  0  0
  151.4911  142.3622  158.0985 C   0  0  0  0  0  0  0  0  0  0  0  0
  151.7961  142.9320  159.3538 C   0  0  0  0  0  0  0  0  0  0  0  0
  152.7107  142.3064  160.2309 C   0  0  0  0  0  0  0  0  0  0  0  0
  153.0089  142.9542  161.5717 C   0  0  0  0  0  0  0  0  0  0  0  0
  153.3373  141.0907  159.8557 C   0  0  0  0  0  0  0  0  0  0  0  0
  154.3244  140.4011  160.7809 C   0  0  0  0  0  0  0  0  0  0  0  0
  153.0456  140.5091  158.6045 C   0  0  0  0  0  0  0  0  0  0  0  0
  152.1322  141.1400  157.7415 C   0  0  0  0  0  0  0  0  0  0  0  0
  148.2786  137.4842  155.3631 C   0  0  0  0  0  0  0  0  0  0  0  0
  148.1119  137.3777  156.8936 C   0  0  0  0  0  0  0  0  0  0  0  0
  147.2051  136.7786  162.4509 H   0  0  0  0  0  0  0  0  0  0  0  0
  148.5200  135.6648  162.0749 H   0  0  0  0  0  0  0  0  0  0  0  0
  147.0026  135.5929  161.1603 H   0  0  0  0  0  0  0  0  0  0  0  0
  149.4179  137.3560  159.0279 H   0  0  0  0  0  0  0  0  0  0  0  0
  149.6786  135.9325  160.0165 H   0  0  0  0  0  0  0  0  0  0  0  0
  147.9405  134.7430  159.0682 H   0  0  0  0  0  0  0  0  0  0  0  0
  146.8974  136.1432  159.0695 H   0  0  0  0  0  0  0  0  0  0  0  0
  150.2014  135.6404  157.3533 H   0  0  0  0  0  0  0  0  0  0  0  0
  149.2463  134.1873  157.1478 H   0  0  0  0  0  0  0  0  0  0  0  0
  150.3384  134.8074  154.9887 H   0  0  0  0  0  0  0  0  0  0  0  0
  148.6004  134.8363  154.8607 H   0  0  0  0  0  0  0  0  0  0  0  0
  151.1900  137.0473  156.0582 H   0  0  0  0  0  0  0  0  0  0  0  0
  151.4883  137.1516  154.3486 H   0  0  0  0  0  0  0  0  0  0  0  0
  149.8224  139.2706  155.7890 H   0  0  0  0  0  0  0  0  0  0  0  0
  150.1202  138.6926  153.3121 H   0  0  0  0  0  0  0  0  0  0  0  0
  152.5444  138.9834  156.2391 H   0  0  0  0  0  0  0  0  0  0  0  0
  152.5363  140.0012  154.8169 H   0  0  0  0  0  0  0  0  0  0  0  0
  150.2341  141.8591  155.2573 H   0  0  0  0  0  0  0  0  0  0  0  0
  151.3194  143.8585  159.6394 H   0  0  0  0  0  0  0  0  0  0  0  0
  154.0741  143.1667  161.6663 H   0  0  0  0  0  0  0  0  0  0  0  0
  152.7130  142.2957  162.3884 H   0  0  0  0  0  0  0  0  0  0  0  0
  152.4701  143.8948  161.6885 H   0  0  0  0  0  0  0  0  0  0  0  0
  154.6882  139.4678  160.3505 H   0  0  0  0  0  0  0  0  0  0  0  0
  153.8554  140.1679  161.7371 H   0  0  0  0  0  0  0  0  0  0  0  0
  155.1864  141.0429  160.9651 H   0  0  0  0  0  0  0  0  0  0  0  0
  153.5173  139.5842  158.3073 H   0  0  0  0  0  0  0  0  0  0  0  0
  148.3061  138.5292  155.0580 H   0  0  0  0  0  0  0  0  0  0  0  0
  147.3991  137.0573  154.8793 H   0  0  0  0  0  0  0  0  0  0  0  0
  147.1782  137.8626  157.1759 H   0  0  0  0  0  0  0  0  0  0  0  0
  148.9075  137.9216  157.4046 H   0  0  0  0  0  0  0  0  0  0  0  0
  149.3950  136.7108  153.8641 H   0  0  0  0  0  0  0  0  0  0  0  0
  147.3193  135.5121  156.8963 H   0  0  0  0  0  0  0  0  0  0  0  0
  1  2  1  0  0  0  0
  1 26  1  0  0  0  0
  1 27  1  0  0  0  0
  1 28  1  0  0  0  0
  2  3  1  0  0  0  0
  3  4  1  0  0  0  0
  3 29  1  0  0  0  0
  3 30  1  0  0  0  0
  4  5  1  0  0  0  0
  4 31  1  0  0  0  0
  4 32  1  0  0  0  0
  5 25  1  0  0  0  0
  5  6  1  0  0  0  0
  5 57  1  0  0  0  0
  6  7  1  0  0  0  0
  6 33  1  0  0  0  0
  6 34  1  0  0  0  0
  7  8  1  0  0  0  0
  7 35  1  0  0  0  0
  7 36  1  0  0  0  0
  8  9  1  0  0  0  0
  8 24  1  0  0  0  0
  8 56  1  0  0  0  0
  9 10  1  0  0  0  0
  9 37  1  0  0  0  0
  9 38  1  0  0  0  0
 10 11  1  0  0  0  0
 10 12  1  0  0  0  0
 10 39  1  0  0  0  0
 11 40  1  0  0  0  0
 12 13  1  0  0  0  0
 12 41  1  0  0  0  0
 12 42  1  0  0  0  0
 13 23  1  0  0  0  0
 13 14  1  0  0  0  0
 14 15  2  0  0  0  0
 14 43  1  0  0  0  0
 15 16  1  0  0  0  0
 16 23  2  0  0  0  0
 16 17  1  0  0  0  0
 17 18  2  0  0  0  0
 17 44  1  0  0  0  0
 18 19  1  0  0  0  0
 18 20  1  0  0  0  0
 19 45  1  0  0  0  0
 19 46  1  0  0  0  0
 19 47  1  0  0  0  0
 20 21  1  0  0  0  0
 20 22  2  0  0  0  0
 21 48  1  0  0  0  0
 21 49  1  0  0  0  0
 21 50  1  0  0  0  0
 22 23  1  0  0  0  0
 22 51  1  0  0  0  0
 24 25  1  0  0  0  0
 24 52  1  0  0  0  0
 24 53  1  0  0  0  0
 25 54  1  0  0  0  0
 25 55  1  0  0  0  0
M  CHG  1   5   1
M  CHG  1   8   1
M  END
> <s_m_source_file>
AV-unprocessed.smi

> <i_m_source_file_index>
1007

> <i_lp_mmshare_version>
43012

> <i_f3d_flags>
0

> <s_epik_input>
W0NIM11PW0NIMl1bQ0gyXU4xW0NIMl1bQ0gyXU4oW0NIMl1bQ0gyXTEpW0NIMl1bQ0BIXShbT0hdKVtDSDJdbihbY0hdbjIpYyhjMjMpW2NIXWMoW0NIM10pYyhbY0hdMylbQ0gzXQ==

> <s_epik_cmdline>
J2VwaWtfcHl0aG9uJywgJy1waCcsICc3LjAnLCAnLXRuJywgJzgnLCAnLW1hJywgJzIwMCcsICctbWV0YWxfYmluZGluZycsICctaW1hZScsICc8aW5maWxlLm1hZT4nLCAnLW9tYWUnLCAnPG91dGZpbGUubWFlPic=

> <r_epik_Ionization_Penalty>
3.88944

> <r_epik_Ionization_Penalty_Charging>
3.80608

> <r_epik_Ionization_Penalty_Neutral>
0.0833653

> <r_epik_State_Penalty>
2.70739

> <r_epik_Charging_Adjusted_Penalty>
6.51347

> <i_epik_Tot_Q>
2

> <i_epik_Tot_abs_Q>
2

> <r_epik_Metal_State_Penalty>
2.62239

> <b_epik_Metal_Only>
0

> <s_lp_Force_Field>
OPLS_2005

> <r_lp_Energy>
30.4149

> <b_lp_Chiralities_Consistent>
1

> <s_lp_Variant>
AV-unprocessed.smi:1007-11

> <Gold.Version>
5.8.1

> <Gold.Id.Protein>
6NUR|6NUR_protein|mol2

> <Gold.PLP.Fitness>
56.1108

> <Gold.PLP.PLP>
-44.8151

> <Gold.PLP.part.hbond>
-5.0000

> <Gold.PLP.part.metal>
0.0000

> <Gold.PLP.part.buried>
-5.1936

> <Gold.PLP.part.nonpolar>
-35.0522

> <Gold.PLP.part.repulsive>
1.1329

> <Gold.PLP.ligand.clash>
0.0000

> <Gold.PLP.ligand.torsion>
1.3141

> <Gold.PLP.Chemscore.Hbond>
4.5840

> <Gold.PLP.Chemscore.CHOScore>
0.0000

> <Gold.PLP.Chemscore.Metal>
0.0000

> <Gold.Chemscore.Hbonds>
donor molecule, donor type, donor heavy atom, donor atom, acceptor molecule, acceptor atom, score
      L1  H     8    56       P1  7948  1.76
      P1  H  6931  6943       L1     2  0.75
      P1  H  6934  6947       L1     2  0.54
      P1  H  7989  7998       L1    11  1.00

> <Gold.PLP.Chemscore.Internal.Correction>
0.1718

> <Gold.Rescore>
     Score         DG    S(hbond)    S(metal)    S(lipo)     H(rot)  DE(clash)    DE(int)     intcor
     20.41     -21.71       2.98        0.00     111.16       2.63       0.01       1.28       ----

> <Gold.Chemscore.Fitness>
20.4132

> <Gold.Chemscore.DG>
-21.7100

> <Gold.Chemscore.ZeroCoef>
-5.4800

> <Gold.Chemscore.Hbond>
2.9847

> <Gold.Chemscore.Metal>
0.0000

> <Gold.Chemscore.Lipo>
111.1622

> <Gold.Chemscore.Internal_Hbond>
0.0000

> <Gold.Chemscore.DEClash>
0.0147

> <Gold.Chemscore.DEInternal>
1.2821

> <Gold.Chemscore.Rot>
2.6347

> <Gold.Chemscore.Internal.Correction>
   9.000000E+99

> <Gold.Chemscore.Hbonds>
donor molecule, donor type, donor heavy atom, donor atom, acceptor molecule, acceptor atom, score
      L1  H     8    56       P1  7948  0.79
      P1  H  6931  6943       L1     2  0.15
      P1  H  6934  6947       L1     2  0.39
      P1  H  7989  7998       L1    11  0.62

> <Gold.Chemscore.Hbond.Weighted>
-9.9688

> <Gold.Chemscore.Metal.Weighted>
-0.0000

> <Gold.Chemscore.Lipo.Weighted>
-13.0060

> <Gold.Chemscore.Internal_Hbond.Weighted>
0.0000

> <Gold.Chemscore.DEClash.Weighted>
0.0147

> <Gold.Chemscore.DEInternal.Weighted>
1.2821

> <Gold.Chemscore.Rot.Weighted>
6.7448

> <Gold.Chemscore.Internal.Correction.Weighted>
   9.000000E+99

> <Gold.Protein.RotatedTorsions>
[ 6907 6896 6895 6894 ] final   94.94 input  -60.11 | X-H torsion
[ 7974 7965 7964 7962 ] final -145.88 input  175.53 | X-H torsion
[ 8008 7997 7996 7995 ] final -109.26 input   59.86 | X-H torsion
[ 10167 10162 10161 10158 ] final   50.77 input  -65.29 | X-H torsion
[ 10718 10713 10712 10709 ] final -177.79 input   66.30 | X-H torsion
[ 10763 10752 10751 10750 ] final  -28.41 input  -60.55 | X-H torsion
[ 11005 11000 10999 10996 ] final -174.17 input  -57.11 | X-H torsion

> <Gold.Protein.ActiveResidues>
 VAL166  LYS551  ARG553  GLY616  TRP617  ASP618  TYR619  PRO620  LYS621  CYS622 
 ASP623  PHE694  ASN695  SER759  ASP760  ASP761  ALA762  ILE779  LEU786  VAL792 
 PHE793  MET794  SER795  GLU796  ALA797  LYS798  CYS799  TRP800  GLU811  SER814 

> <Gold.Protein.RotatedAtoms>
  152.5447  134.1116  159.8360 H   0  0  0  0  0  0  0  0  0  0  0  0  # atno 6907 bound_to 6896
  151.1182  133.5116  159.2610 H   0  0  0  0  0  0  0  0  0  0  0  0  # atno 6908 bound_to 6896
  151.1808  135.0369  159.8846 H   0  0  0  0  0  0  0  0  0  0  0  0  # atno 6909 bound_to 6896
  144.8197  140.5527  143.5586 H   0  0  0  0  0  0  0  0  0  0  0  0  # atno 7974 bound_to 7965
  154.9567  140.0400  157.2170 H   0  0  0  0  0  0  0  0  0  0  0  0  # atno 8008 bound_to 7997
  154.7927  140.2838  155.5957 H   0  0  0  0  0  0  0  0  0  0  0  0  # atno 8009 bound_to 7997
  156.2952  140.2570  156.2778 H   0  0  0  0  0  0  0  0  0  0  0  0  # atno 8010 bound_to 7997
  140.2689  144.3288  150.6296 H   0  0  0  0  0  0  0  0  0  0  0  0  # atno 10167 bound_to 10162
  156.8347  130.9665  151.3104 H   0  0  0  0  0  0  0  0  0  0  0  0  # atno 10718 bound_to 10713
  153.7479  135.6928  153.4952 H   0  0  0  0  0  0  0  0  0  0  0  0  # atno 10763 bound_to 10752
  153.2024  135.4432  155.0281 H   0  0  0  0  0  0  0  0  0  0  0  0  # atno 10764 bound_to 10752
  154.8198  135.3416  154.7001 H   0  0  0  0  0  0  0  0  0  0  0  0  # atno 10765 bound_to 10752
  140.4776  134.6106  157.4907 H   0  0  0  0  0  0  0  0  0  0  0  0  # atno 11005 bound_to 11000
  145.5133  139.1478  143.3593 LP  0  0  0  0  0  0  0  0  0  0  0  0  # atno 17320 bound_to 7965
  146.2502  140.5273  142.8896 LP  0  0  0  0  0  0  0  0  0  0  0  0  # atno 17321 bound_to 7965
  140.5905  143.2168  151.7261 LP  0  0  0  0  0  0  0  0  0  0  0  0  # atno 17342 bound_to 10162
  139.4994  144.3946  152.0245 LP  0  0  0  0  0  0  0  0  0  0  0  0  # atno 17343 bound_to 10162
  157.6388  130.8788  149.9409 LP  0  0  0  0  0  0  0  0  0  0  0  0  # atno 17370 bound_to 10713
  156.0914  130.3663  150.0387 LP  0  0  0  0  0  0  0  0  0  0  0  0  # atno 17371 bound_to 10713
  139.9846  134.7081  155.9796 LP  0  0  0  0  0  0  0  0  0  0  0  0  # atno 17394 bound_to 11000
  141.1547  133.6544  156.4123 LP  0  0  0  0  0  0  0  0  0  0  0  0  # atno 17395 bound_to 11000

$$$$
