AV-unprocessed.smi:3338|AV-procd|sdf|12872|dock8
  -GOLD-   2272019273D 1   1.00000     0.00000
 Structure written by MMmdl.
 44 45  0  0  0  0  0  0  0  0  2 V2000
  144.8384  134.6335  150.3293 C   0  0  0  0  0  0  0  0  0  0  0  0
  145.7717  135.3312  151.3287 C   0  0  1  0  0  0  0  0  0  0  0  0
  145.0580  136.4835  152.0550 C   0  0  0  0  0  0  0  0  0  0  0  0
  146.0089  137.1468  153.0589 C   0  0  0  0  0  0  0  0  0  0  0  0
  146.5876  136.1106  154.0353 C   0  0  0  0  0  0  0  0  0  0  0  0
  147.2725  135.0114  153.3066 N   0  3  1  0  0  0  0  0  0  0  0  0
  147.9579  134.0713  154.2290 C   0  0  0  0  0  0  0  0  0  0  0  0
  148.8569  134.7959  155.2496 C   0  0  0  0  0  0  0  0  0  0  0  0
  149.5511  135.9255  154.6433 N   0  0  0  0  0  0  0  0  0  0  0  0
  150.1629  136.9077  155.3252 C   0  0  0  0  0  0  0  0  0  0  0  0
  150.2164  136.9309  156.5556 O   0  0  0  0  0  0  0  0  0  0  0  0
  150.8176  138.0188  154.4852 C   0  0  2  0  0  0  0  0  0  0  0  0
  152.3137  138.2152  154.8050 C   0  0  0  0  0  0  0  0  0  0  0  0
  150.0725  139.2673  154.6068 N   0  0  0  0  0  0  0  0  0  0  0  0
  148.7481  139.5005  154.2957 C   0  0  0  0  0  0  0  0  0  0  0  0
  148.4799  140.8057  154.5936 C   0  0  0  0  0  0  0  0  0  0  0  0
  149.7162  141.2990  155.0950 C   0  0  0  0  0  0  0  0  0  0  0  0
  150.6647  140.3770  155.1068 N   0  0  0  0  0  0  0  0  0  0  0  0
  146.3534  134.3348  152.3517 C   0  0  0  0  0  0  0  0  0  0  0  0
  143.9789  134.1886  150.8316 H   0  0  0  0  0  0  0  0  0  0  0  0
  145.3589  133.8393  149.7934 H   0  0  0  0  0  0  0  0  0  0  0  0
  144.4622  135.3383  149.5870 H   0  0  0  0  0  0  0  0  0  0  0  0
  146.6020  135.7529  150.7602 H   0  0  0  0  0  0  0  0  0  0  0  0
  144.7017  137.2229  151.3368 H   0  0  0  0  0  0  0  0  0  0  0  0
  144.1778  136.1066  152.5781 H   0  0  0  0  0  0  0  0  0  0  0  0
  146.8211  137.6411  152.5241 H   0  0  0  0  0  0  0  0  0  0  0  0
  145.4827  137.9261  153.6109 H   0  0  0  0  0  0  0  0  0  0  0  0
  147.2917  136.6076  154.7039 H   0  0  0  0  0  0  0  0  0  0  0  0
  145.7946  135.6968  154.6603 H   0  0  0  0  0  0  0  0  0  0  0  0
  147.2043  133.5051  154.7783 H   0  0  0  0  0  0  0  0  0  0  0  0
  148.5316  133.3418  153.6552 H   0  0  0  0  0  0  0  0  0  0  0  0
  148.2691  135.1886  156.0783 H   0  0  0  0  0  0  0  0  0  0  0  0
  149.5804  134.1033  155.6832 H   0  0  0  0  0  0  0  0  0  0  0  0
  149.5483  135.9787  153.6346 H   0  0  0  0  0  0  0  0  0  0  0  0
  150.7502  137.7047  153.4424 H   0  0  0  0  0  0  0  0  0  0  0  0
  152.8745  137.2920  154.6544 H   0  0  0  0  0  0  0  0  0  0  0  0
  152.4727  138.5343  155.8359 H   0  0  0  0  0  0  0  0  0  0  0  0
  152.7534  138.9717  154.1545 H   0  0  0  0  0  0  0  0  0  0  0  0
  148.1123  138.7263  153.8918 H   0  0  0  0  0  0  0  0  0  0  0  0
  147.5426  141.3285  154.4734 H   0  0  0  0  0  0  0  0  0  0  0  0
  149.9505  142.2914  155.4514 H   0  0  0  0  0  0  0  0  0  0  0  0
  145.5489  133.8477  152.9057 H   0  0  0  0  0  0  0  0  0  0  0  0
  146.8832  133.5501  151.8134 H   0  0  0  0  0  0  0  0  0  0  0  0
  147.9976  135.4507  152.7574 H   0  0  0  0  0  0  0  0  0  0  0  0
  1  2  1  0  0  0  0
  1 20  1  0  0  0  0
  1 21  1  0  0  0  0
  1 22  1  0  0  0  0
  2 19  1  0  0  0  0
  2  3  1  0  0  0  0
  2 23  1  0  0  0  0
  3  4  1  0  0  0  0
  3 24  1  0  0  0  0
  3 25  1  0  0  0  0
  4  5  1  0  0  0  0
  4 26  1  0  0  0  0
  4 27  1  0  0  0  0
  5  6  1  0  0  0  0
  5 28  1  0  0  0  0
  5 29  1  0  0  0  0
  6  7  1  0  0  0  0
  6 19  1  0  0  0  0
  6 44  1  0  0  0  0
  7  8  1  0  0  0  0
  7 30  1  0  0  0  0
  7 31  1  0  0  0  0
  8  9  1  0  0  0  0
  8 32  1  0  0  0  0
  8 33  1  0  0  0  0
  9 10  1  0  0  0  0
  9 34  1  0  0  0  0
 10 11  2  0  0  0  0
 10 12  1  0  0  0  0
 12 13  1  0  0  0  0
 12 14  1  0  0  0  0
 12 35  1  0  0  0  0
 13 36  1  0  0  0  0
 13 37  1  0  0  0  0
 13 38  1  0  0  0  0
 14 18  1  0  0  0  0
 14 15  1  0  0  0  0
 15 16  2  0  0  0  0
 15 39  1  0  0  0  0
 16 17  1  0  0  0  0
 16 40  1  0  0  0  0
 17 18  2  0  0  0  0
 17 41  1  0  0  0  0
 19 42  1  0  0  0  0
 19 43  1  0  0  0  0
M  CHG  1   6   1
M  END
> <s_m_source_file>
AV-unprocessed.smi

> <i_m_source_file_index>
3338

> <i_lp_mmshare_version>
43012

> <i_f3d_flags>
0

> <s_epik_input>
W0NIM11bQ0BASF0xW0NIMl1bQ0gyXVtDSDJdTihbQ0gyXTEpW0NIMl1bQ0gyXVtOSF1DKD1PKVtDQEhdKFtDSDNdKW4yW2NIXVtjSF1bY0hdbjI=

> <s_epik_cmdline>
J2VwaWtfcHl0aG9uJywgJy1waCcsICc3LjAnLCAnLXRuJywgJzgnLCAnLW1hJywgJzIwMCcsICctbWV0YWxfYmluZGluZycsICctaW1hZScsICc8aW5maWxlLm1hZT4nLCAnLW9tYWUnLCAnPG91dGZpbGUubWFlPic=

> <r_lp_tautomer_probability>
1

> <r_epik_Ionization_Penalty>
0.00225707

> <r_epik_Ionization_Penalty_Charging>
0.00223709

> <r_epik_Ionization_Penalty_Neutral>
1.99775e-05

> <r_epik_State_Penalty>
0.00153978

> <r_epik_Charging_Adjusted_Penalty>
0.00377687

> <i_epik_Tot_Q>
1

> <i_epik_Tot_abs_Q>
1

> <r_epik_Metal_State_Penalty>
-0

> <b_epik_Metal_Only>
0

> <s_lp_Force_Field>
OPLS_2005

> <r_lp_Energy>
19.9397

> <b_lp_Chiralities_Consistent>
1

> <s_lp_Variant>
AV-unprocessed.smi:3338-4

> <Gold.Version>
5.8.1

> <Gold.Id.Protein>
6NUR|6NUR_protein|mol2

> <Gold.PLP.Fitness>
47.4288

> <Gold.PLP.PLP>
-33.1287

> <Gold.PLP.part.hbond>
-3.0000

> <Gold.PLP.part.metal>
0.0000

> <Gold.PLP.part.buried>
-3.0545

> <Gold.PLP.part.nonpolar>
-27.1279

> <Gold.PLP.part.repulsive>
0.1235

> <Gold.PLP.ligand.clash>
0.0000

> <Gold.PLP.ligand.torsion>
0.4055

> <Gold.PLP.Chemscore.Hbond>
4.0000

> <Gold.PLP.Chemscore.CHOScore>
1.0000

> <Gold.PLP.Chemscore.Metal>
0.0000

> <Gold.Chemscore.Hbonds>
donor molecule, donor type, donor heavy atom, donor atom, acceptor molecule, acceptor atom, score
      L1  H     6    44       P1  7948  1.89
      L1  H     9    34       P1  7948  1.00
      P1  H  7989  7998       L1    18  0.85
      L1  C    17    41       P1  8028  0.68

> <Gold.PLP.Chemscore.Internal.Correction>
0.1111

> <Gold.Rescore>
     Score         DG    S(hbond)    S(metal)    S(lipo)     H(rot)  DE(clash)    DE(int)     intcor
     17.50     -17.96       2.70        0.00      67.98       1.76       0.08       0.38       ----

> <Gold.Chemscore.Fitness>
17.4991

> <Gold.Chemscore.DG>
-17.9567

> <Gold.Chemscore.ZeroCoef>
-5.4800

> <Gold.Chemscore.Hbond>
2.7009

> <Gold.Chemscore.Metal>
0.0000

> <Gold.Chemscore.Lipo>
67.9791

> <Gold.Chemscore.Internal_Hbond>
0.0000

> <Gold.Chemscore.DEClash>
0.0756

> <Gold.Chemscore.DEInternal>
0.3820

> <Gold.Chemscore.Rot>
1.7570

> <Gold.Chemscore.Internal.Correction>
   9.000000E+99

> <Gold.Chemscore.Hbonds>
donor molecule, donor type, donor heavy atom, donor atom, acceptor molecule, acceptor atom, score
      L1  H     6    44       P1  7948  0.90
      L1  H     9    34       P1  7948  0.40
      P1  H  7989  7998       L1    18  0.04

> <Gold.Chemscore.Hbond.Weighted>
-9.0210

> <Gold.Chemscore.Metal.Weighted>
-0.0000

> <Gold.Chemscore.Lipo.Weighted>
-7.9536

> <Gold.Chemscore.Internal_Hbond.Weighted>
0.0000

> <Gold.Chemscore.DEClash.Weighted>
0.0756

> <Gold.Chemscore.DEInternal.Weighted>
0.3820

> <Gold.Chemscore.Rot.Weighted>
4.4979

> <Gold.Chemscore.Internal.Correction.Weighted>
   9.000000E+99

> <Gold.Protein.RotatedTorsions>
[ 6907 6896 6895 6894 ] final -119.65 input  -60.11 | X-H torsion
[ 7974 7965 7964 7962 ] final -101.19 input  175.53 | X-H torsion
[ 8008 7997 7996 7995 ] final   51.23 input   59.86 | X-H torsion
[ 10167 10162 10161 10158 ] final   26.16 input  -65.29 | X-H torsion
[ 10718 10713 10712 10709 ] final   81.00 input   66.30 | X-H torsion
[ 10763 10752 10751 10750 ] final -117.82 input  -60.55 | X-H torsion
[ 11005 11000 10999 10996 ] final  -34.61 input  -57.11 | X-H torsion

> <Gold.Protein.ActiveResidues>
 VAL166  LYS551  ARG553  GLY616  TRP617  ASP618  TYR619  PRO620  LYS621  CYS622 
 ASP623  PHE694  ASN695  SER759  ASP760  ASP761  ALA762  ILE779  LEU786  VAL792 
 PHE793  MET794  SER795  GLU796  ALA797  LYS798  CYS799  TRP800  GLU811  SER814 

> <Gold.Protein.RotatedAtoms>
  150.8324  133.8070  159.3093 H   0  0  0  0  0  0  0  0  0  0  0  0  # atno 6907 bound_to 6896
  151.5796  135.1057  160.0023 H   0  0  0  0  0  0  0  0  0  0  0  0  # atno 6908 bound_to 6896
  152.4401  133.7391  159.6687 H   0  0  0  0  0  0  0  0  0  0  0  0  # atno 6909 bound_to 6896
  145.2849  140.9337  143.2911 H   0  0  0  0  0  0  0  0  0  0  0  0  # atno 7974 bound_to 7965
  155.4318  140.3451  155.4281 H   0  0  0  0  0  0  0  0  0  0  0  0  # atno 8008 bound_to 7997
  156.1331  140.1520  156.9065 H   0  0  0  0  0  0  0  0  0  0  0  0  # atno 8009 bound_to 7997
  154.4911  140.0841  156.7575 H   0  0  0  0  0  0  0  0  0  0  0  0  # atno 8010 bound_to 7997
  140.5046  144.0260  150.6346 H   0  0  0  0  0  0  0  0  0  0  0  0  # atno 10167 bound_to 10162
  157.6821  130.9984  150.2162 H   0  0  0  0  0  0  0  0  0  0  0  0  # atno 10718 bound_to 10713
  154.8567  135.4296  154.2040 H   0  0  0  0  0  0  0  0  0  0  0  0  # atno 10763 bound_to 10752
  153.3080  135.6974  153.7147 H   0  0  0  0  0  0  0  0  0  0  0  0  # atno 10764 bound_to 10752
  153.6251  135.3495  155.2997 H   0  0  0  0  0  0  0  0  0  0  0  0  # atno 10765 bound_to 10752
  140.9730  133.7099  156.1555 H   0  0  0  0  0  0  0  0  0  0  0  0  # atno 11005 bound_to 11000
  144.9222  139.4398  143.6535 LP  0  0  0  0  0  0  0  0  0  0  0  0  # atno 17320 bound_to 7965
  146.3204  139.8088  142.8950 LP  0  0  0  0  0  0  0  0  0  0  0  0  # atno 17321 bound_to 7965
  140.3566  143.2932  152.0430 LP  0  0  0  0  0  0  0  0  0  0  0  0  # atno 17342 bound_to 10162
  139.4880  144.6334  151.7023 LP  0  0  0  0  0  0  0  0  0  0  0  0  # atno 17343 bound_to 10162
  156.2822  130.3735  149.7923 LP  0  0  0  0  0  0  0  0  0  0  0  0  # atno 17370 bound_to 10713
  156.5608  130.8383  151.3328 LP  0  0  0  0  0  0  0  0  0  0  0  0  # atno 17371 bound_to 10713
  140.7301  134.4264  157.5566 LP  0  0  0  0  0  0  0  0  0  0  0  0  # atno 17394 bound_to 11000
  139.8919  134.8767  156.2295 LP  0  0  0  0  0  0  0  0  0  0  0  0  # atno 17395 bound_to 11000

$$$$
