AV-unprocessed.smi:1999|AV-procd|sdf|8094|dock4
  -GOLD-   2272010313D 1   1.00000     0.00000
 Structure written by MMmdl.
 39 40  0  0  0  0  0  0  0  0  2 V2000
  146.0682  129.0329  152.5042 C   0  0  0  0  0  0  0  0  0  0  0  0
  146.6762  130.3806  152.6929 C   0  0  0  0  0  0  0  0  0  0  0  0
  147.9536  130.5506  153.0545 N   0  0  0  0  0  0  0  0  0  0  0  0
  148.2953  131.8911  153.1659 N   0  0  0  0  0  0  0  0  0  0  0  0
  147.2608  132.6953  152.8850 C   0  0  0  0  0  0  0  0  0  0  0  0
  147.3341  134.1133  152.9139 N   0  0  0  0  0  0  0  0  0  0  0  0
  146.5996  134.9689  153.6457 C   0  0  0  0  0  0  0  0  0  0  0  0
  145.6883  134.6517  154.4104 O   0  0  0  0  0  0  0  0  0  0  0  0
  146.9910  136.2371  153.4496 N   0  0  0  0  0  0  0  0  0  0  0  0
  146.3949  137.4268  154.0600 C   0  0  2  0  0  0  0  0  0  0  0  0
  144.8662  137.3087  153.9892 C   0  0  0  0  0  0  0  0  0  0  0  0
  146.8868  138.7240  153.3760 C   0  0  0  0  0  0  0  0  0  0  0  0
  146.2639  139.9518  153.9330 N   0  3  0  0  0  0  0  0  0  0  0  0
  146.2194  139.9605  155.4137 C   0  0  0  0  0  0  0  0  0  0  0  0
  145.4922  141.2198  155.9160 C   0  0  0  0  0  0  0  0  0  0  0  0
  146.1381  142.3811  155.4084 O   0  0  0  0  0  0  0  0  0  0  0  0
  146.1183  142.4240  153.9864 C   0  0  0  0  0  0  0  0  0  0  0  0
  146.8715  141.2064  153.4263 C   0  0  0  0  0  0  0  0  0  0  0  0
  145.7724  131.8715  152.4528 S   0  0  0  0  0  0  0  0  0  0  0  0
  146.2743  128.4027  153.3695 H   0  0  0  0  0  0  0  0  0  0  0  0
  146.4835  128.5574  151.6156 H   0  0  0  0  0  0  0  0  0  0  0  0
  144.9879  129.1167  152.3838 H   0  0  0  0  0  0  0  0  0  0  0  0
  148.0342  134.5216  152.3125 H   0  0  0  0  0  0  0  0  0  0  0  0
  147.7500  136.3984  152.8032 H   0  0  0  0  0  0  0  0  0  0  0  0
  146.6584  137.4535  155.1180 H   0  0  0  0  0  0  0  0  0  0  0  0
  144.3848  138.1618  154.4683 H   0  0  0  0  0  0  0  0  0  0  0  0
  144.5170  136.4086  154.4964 H   0  0  0  0  0  0  0  0  0  0  0  0
  144.5168  137.2665  152.9571 H   0  0  0  0  0  0  0  0  0  0  0  0
  147.9690  138.7832  153.5025 H   0  0  0  0  0  0  0  0  0  0  0  0
  146.7108  138.6846  152.2998 H   0  0  0  0  0  0  0  0  0  0  0  0
  145.7012  139.0716  155.7754 H   0  0  0  0  0  0  0  0  0  0  0  0
  147.2348  139.9269  155.8115 H   0  0  0  0  0  0  0  0  0  0  0  0
  144.4440  141.2109  155.6124 H   0  0  0  0  0  0  0  0  0  0  0  0
  145.5080  141.2537  157.0054 H   0  0  0  0  0  0  0  0  0  0  0  0
  145.0894  142.4472  153.6231 H   0  0  0  0  0  0  0  0  0  0  0  0
  146.5944  143.3465  153.6535 H   0  0  0  0  0  0  0  0  0  0  0  0
  147.9219  141.2513  153.7181 H   0  0  0  0  0  0  0  0  0  0  0  0
  146.8412  141.2320  152.3374 H   0  0  0  0  0  0  0  0  0  0  0  0
  145.3023  139.9479  153.6228 H   0  0  0  0  0  0  0  0  0  0  0  0
  1  2  1  0  0  0  0
  1 20  1  0  0  0  0
  1 21  1  0  0  0  0
  1 22  1  0  0  0  0
  2 19  1  0  0  0  0
  2  3  2  0  0  0  0
  3  4  1  0  0  0  0
  4  5  2  0  0  0  0
  5  6  1  0  0  0  0
  5 19  1  0  0  0  0
  6  7  1  0  0  0  0
  6 23  1  0  0  0  0
  7  8  2  0  0  0  0
  7  9  1  0  0  0  0
  9 10  1  0  0  0  0
  9 24  1  0  0  0  0
 10 11  1  0  0  0  0
 10 12  1  0  0  0  0
 10 25  1  0  0  0  0
 11 26  1  0  0  0  0
 11 27  1  0  0  0  0
 11 28  1  0  0  0  0
 12 13  1  0  0  0  0
 12 29  1  0  0  0  0
 12 30  1  0  0  0  0
 13 18  1  0  0  0  0
 13 14  1  0  0  0  0
 13 39  1  0  0  0  0
 14 15  1  0  0  0  0
 14 31  1  0  0  0  0
 14 32  1  0  0  0  0
 15 16  1  0  0  0  0
 15 33  1  0  0  0  0
 15 34  1  0  0  0  0
 16 17  1  0  0  0  0
 17 18  1  0  0  0  0
 17 35  1  0  0  0  0
 17 36  1  0  0  0  0
 18 37  1  0  0  0  0
 18 38  1  0  0  0  0
M  CHG  1  13   1
M  END
> <s_m_source_file>
AV-unprocessed.smi

> <i_m_source_file_index>
1999

> <i_lp_mmshare_version>
43012

> <i_f3d_flags>
0

> <s_epik_input>
W0NIM11jMW5uYyhzMSlbTkhdQyg9TylbTkhdW0NASF0oW0NIM10pW0NIMl1OMltDSDJdW0NIMl1PW0NIMl1bQ0gyXTI=

> <s_epik_cmdline>
J2VwaWtfcHl0aG9uJywgJy1waCcsICc3LjAnLCAnLXRuJywgJzgnLCAnLW1hJywgJzIwMCcsICctbWV0YWxfYmluZGluZycsICctaW1hZScsICc8aW5maWxlLm1hZT4nLCAnLW9tYWUnLCAnPG91dGZpbGUubWFlPic=

> <r_lp_tautomer_probability>
1

> <r_epik_Ionization_Penalty>
0.701298

> <r_epik_Ionization_Penalty_Charging>
0.695697

> <r_epik_Ionization_Penalty_Neutral>
0.00560124

> <r_epik_State_Penalty>
0.717972

> <r_epik_Charging_Adjusted_Penalty>
1.41367

> <i_epik_Tot_Q>
1

> <i_epik_Tot_abs_Q>
1

> <r_epik_Metal_State_Penalty>
1.07748

> <b_epik_Metal_Only>
0

> <s_lp_Force_Field>
OPLS_2005

> <r_lp_Energy>
20.3025

> <b_lp_Chiralities_Consistent>
1

> <s_lp_Variant>
AV-unprocessed.smi:1999-3

> <Gold.Version>
5.8.1

> <Gold.Id.Protein>
6NUR|6NUR_protein|mol2

> <Gold.PLP.Fitness>
35.5555

> <Gold.PLP.PLP>
-25.3228

> <Gold.PLP.part.hbond>
-3.0000

> <Gold.PLP.part.metal>
0.0000

> <Gold.PLP.part.buried>
-5.4975

> <Gold.PLP.part.nonpolar>
-17.8335

> <Gold.PLP.part.repulsive>
0.5986

> <Gold.PLP.ligand.clash>
0.0000

> <Gold.PLP.ligand.torsion>
0.7965

> <Gold.PLP.Chemscore.Hbond>
3.9280

> <Gold.PLP.Chemscore.CHOScore>
0.0000

> <Gold.PLP.Chemscore.Metal>
0.0000

> <Gold.Chemscore.Hbonds>
donor molecule, donor type, donor heavy atom, donor atom, acceptor molecule, acceptor atom, score
      L1  H     6    23       P1  7948  0.91
      L1  H     9    24       P1  7948  1.00
      L1  H    13    39       P1 10175  1.89

> <Gold.PLP.Chemscore.Internal.Correction>
0.0417

> <Gold.Rescore>
     Score         DG    S(hbond)    S(metal)    S(lipo)     H(rot)  DE(clash)    DE(int)     intcor
     14.81     -15.62       2.70        0.00      45.26       1.63       0.03       0.77       ----

> <Gold.Chemscore.Fitness>
14.8114

> <Gold.Chemscore.DG>
-15.6172

> <Gold.Chemscore.ZeroCoef>
-5.4800

> <Gold.Chemscore.Hbond>
2.7004

> <Gold.Chemscore.Metal>
0.0000

> <Gold.Chemscore.Lipo>
45.2587

> <Gold.Chemscore.Internal_Hbond>
0.0000

> <Gold.Chemscore.DEClash>
0.0318

> <Gold.Chemscore.DEInternal>
0.7740

> <Gold.Chemscore.Rot>
1.6317

> <Gold.Chemscore.Internal.Correction>
   9.000000E+99

> <Gold.Chemscore.Hbonds>
donor molecule, donor type, donor heavy atom, donor atom, acceptor molecule, acceptor atom, score
      L1  H     6    23       P1  7948  0.26
      L1  H     9    24       P1  7948  0.93
      L1  H    13    39       P1 10175  0.89

> <Gold.Chemscore.Hbond.Weighted>
-9.0192

> <Gold.Chemscore.Metal.Weighted>
-0.0000

> <Gold.Chemscore.Lipo.Weighted>
-5.2953

> <Gold.Chemscore.Internal_Hbond.Weighted>
0.0000

> <Gold.Chemscore.DEClash.Weighted>
0.0318

> <Gold.Chemscore.DEInternal.Weighted>
0.7740

> <Gold.Chemscore.Rot.Weighted>
4.1773

> <Gold.Chemscore.Internal.Correction.Weighted>
   9.000000E+99

> <Gold.Protein.RotatedTorsions>
[ 6907 6896 6895 6894 ] final -132.97 input  -60.11 | X-H torsion
[ 7974 7965 7964 7962 ] final -136.24 input  175.53 | X-H torsion
[ 8008 7997 7996 7995 ] final  -61.93 input   59.86 | X-H torsion
[ 10167 10162 10161 10158 ] final  -33.17 input  -65.29 | X-H torsion
[ 10718 10713 10712 10709 ] final -162.44 input   66.30 | X-H torsion
[ 10763 10752 10751 10750 ] final -139.50 input  -60.55 | X-H torsion
[ 11005 11000 10999 10996 ] final   40.70 input  -57.11 | X-H torsion

> <Gold.Protein.ActiveResidues>
 VAL166  LYS551  ARG553  GLY616  TRP617  ASP618  TYR619  PRO620  LYS621  CYS622 
 ASP623  PHE694  ASN695  SER759  ASP760  ASP761  ALA762  ILE779  LEU786  VAL792 
 PHE793  MET794  SER795  GLU796  ALA797  LYS798  CYS799  TRP800  GLU811  SER814 

> <Gold.Protein.RotatedAtoms>
  150.9686  133.6368  159.2741 H   0  0  0  0  0  0  0  0  0  0  0  0  # atno 6907 bound_to 6896
  151.3665  135.0913  159.9461 H   0  0  0  0  0  0  0  0  0  0  0  0  # atno 6908 bound_to 6896
  152.5174  133.9249  159.7607 H   0  0  0  0  0  0  0  0  0  0  0  0  # atno 6909 bound_to 6896
  144.8944  140.6687  143.5124 H   0  0  0  0  0  0  0  0  0  0  0  0  # atno 7974 bound_to 7965
  154.4473  140.1007  156.6508 H   0  0  0  0  0  0  0  0  0  0  0  0  # atno 8008 bound_to 7997
  155.5400  140.3483  155.4426 H   0  0  0  0  0  0  0  0  0  0  0  0  # atno 8009 bound_to 7997
  156.0604  140.1325  156.9937 H   0  0  0  0  0  0  0  0  0  0  0  0  # atno 8010 bound_to 7997
  140.7209  143.3640  151.1906 H   0  0  0  0  0  0  0  0  0  0  0  0  # atno 10167 bound_to 10162
  156.6105  130.8848  151.2935 H   0  0  0  0  0  0  0  0  0  0  0  0  # atno 10718 bound_to 10713
  154.8607  135.3581  154.5556 H   0  0  0  0  0  0  0  0  0  0  0  0  # atno 10763 bound_to 10752
  153.6173  135.7007  153.5329 H   0  0  0  0  0  0  0  0  0  0  0  0  # atno 10764 bound_to 10752
  153.3159  135.4165  155.1336 H   0  0  0  0  0  0  0  0  0  0  0  0  # atno 10765 bound_to 10752
  140.1905  134.3993  155.8149 H   0  0  0  0  0  0  0  0  0  0  0  0  # atno 11005 bound_to 11000
  145.3725  139.1655  143.4324 LP  0  0  0  0  0  0  0  0  0  0  0  0  # atno 17320 bound_to 7965
  146.3073  140.3798  142.8683 LP  0  0  0  0  0  0  0  0  0  0  0  0  # atno 17321 bound_to 7965
  139.7198  143.9241  152.2981 LP  0  0  0  0  0  0  0  0  0  0  0  0  # atno 17342 bound_to 10162
  139.8994  144.6920  150.8681 LP  0  0  0  0  0  0  0  0  0  0  0  0  # atno 17343 bound_to 10162
  157.7255  130.9617  150.1619 LP  0  0  0  0  0  0  0  0  0  0  0  0  # atno 17370 bound_to 10713
  156.2394  130.3689  149.8354 LP  0  0  0  0  0  0  0  0  0  0  0  0  # atno 17371 bound_to 10713
  141.2226  133.7044  156.8087 LP  0  0  0  0  0  0  0  0  0  0  0  0  # atno 17394 bound_to 11000
  140.2165  134.8789  157.3331 LP  0  0  0  0  0  0  0  0  0  0  0  0  # atno 17395 bound_to 11000

$$$$
