AV-unprocessed.smi:2505|AV-procd|sdf|9859|dock3
  -GOLD-   2272013493D 1   1.00000     0.00000
 Structure written by MMmdl.
 48 52  0  0  0  0  0  0  0  0  1 V2000
  148.2250  135.6450  156.0825 O   0  0  0  0  0  0  0  0  0  0  0  0
  148.4454  135.8391  154.8893 C   0  0  0  0  0  0  0  0  0  0  0  0
  149.0558  136.9296  154.3866 N   0  0  0  0  0  0  0  0  0  0  0  0
  149.5665  138.0580  155.0815 C   0  0  0  0  0  0  0  0  0  0  0  0
  149.5640  138.2203  156.4889 C   0  0  0  0  0  0  0  0  0  0  0  0
  150.0590  139.3322  157.0749 N   0  0  0  0  0  0  0  0  0  0  0  0
  150.5408  140.2810  156.2674 C   0  0  0  0  0  0  0  0  0  0  0  0
  151.1312  141.4884  156.9274 C   0  0  0  0  0  0  0  0  0  0  0  0
  151.2962  141.5426  158.4325 C   0  0  0  0  0  0  0  0  0  0  0  0
  150.2746  142.4183  157.7624 C   0  0  0  0  0  0  0  0  0  0  0  0
  150.5958  140.2379  154.9334 N   0  0  0  0  0  0  0  0  0  0  0  0
  150.0999  139.1319  154.3386 C   0  0  0  0  0  0  0  0  0  0  0  0
  148.0940  134.9335  153.9606 N   0  0  0  0  0  0  0  0  0  0  0  0
  147.4164  133.6458  154.1794 C   0  0  2  0  0  0  0  0  0  0  0  0
  148.3483  132.5246  154.6508 C   0  0  2  0  0  0  0  0  0  0  0  0
  149.6847  132.4572  155.2982 C   0  0  0  0  0  0  0  0  0  0  0  0
  150.2566  131.2920  154.4479 C   0  0  0  0  0  0  0  0  0  0  0  0
  149.3096  131.0832  153.3694 O   0  0  0  0  0  0  0  0  0  0  0  0
  148.7048  132.3494  153.1894 C   0  0  1  0  0  0  0  0  0  0  0  0
  147.2474  132.7670  152.8803 C   0  0  0  0  0  0  0  0  0  0  0  0
  146.1827  131.6510  152.8976 C   0  0  0  0  0  0  0  0  0  0  0  0
  145.2687  131.8404  151.6867 C   0  0  0  0  0  0  0  0  0  0  0  0
  146.1269  132.5945  150.6821 C   0  0  0  0  0  0  0  0  0  0  0  0
  146.9962  133.4963  151.5536 C   0  0  0  0  0  0  0  0  0  0  0  0
  149.2238  136.9208  153.3909 H   0  0  0  0  0  0  0  0  0  0  0  0
  149.1573  137.4826  157.1625 H   0  0  0  0  0  0  0  0  0  0  0  0
  151.9142  141.9310  156.3146 H   0  0  0  0  0  0  0  0  0  0  0  0
  150.9269  140.7009  159.0155 H   0  0  0  0  0  0  0  0  0  0  0  0
  152.1922  142.0214  158.8213 H   0  0  0  0  0  0  0  0  0  0  0  0
  150.4873  143.4837  157.7023 H   0  0  0  0  0  0  0  0  0  0  0  0
  149.2262  142.1591  157.8984 H   0  0  0  0  0  0  0  0  0  0  0  0
  150.1366  139.1025  153.2594 H   0  0  0  0  0  0  0  0  0  0  0  0
  148.3263  135.1530  153.0028 H   0  0  0  0  0  0  0  0  0  0  0  0
  146.4946  133.7238  154.7579 H   0  0  0  0  0  0  0  0  0  0  0  0
  147.7292  131.7038  155.0267 H   0  0  0  0  0  0  0  0  0  0  0  0
  150.2560  133.3768  155.1650 H   0  0  0  0  0  0  0  0  0  0  0  0
  149.6307  132.2184  156.3605 H   0  0  0  0  0  0  0  0  0  0  0  0
  151.2384  131.5489  154.0485 H   0  0  0  0  0  0  0  0  0  0  0  0
  150.3567  130.3745  155.0286 H   0  0  0  0  0  0  0  0  0  0  0  0
  149.4376  133.0707  152.8137 H   0  0  0  0  0  0  0  0  0  0  0  0
  146.6627  130.6737  152.8306 H   0  0  0  0  0  0  0  0  0  0  0  0
  145.5990  131.6480  153.8188 H   0  0  0  0  0  0  0  0  0  0  0  0
  144.8881  130.8973  151.2930 H   0  0  0  0  0  0  0  0  0  0  0  0
  144.4123  132.4548  151.9674 H   0  0  0  0  0  0  0  0  0  0  0  0
  146.7571  131.8910  150.1363 H   0  0  0  0  0  0  0  0  0  0  0  0
  145.5359  133.1514  149.9545 H   0  0  0  0  0  0  0  0  0  0  0  0
  146.4614  134.4291  151.7370 H   0  0  0  0  0  0  0  0  0  0  0  0
  147.9220  133.7609  151.0412 H   0  0  0  0  0  0  0  0  0  0  0  0
  1  2  2  0  0  0  0
  2  3  1  0  0  0  0
  2 13  1  0  0  0  0
  3  4  1  0  0  0  0
  3 25  1  0  0  0  0
  4 12  1  0  0  0  0
  4  5  2  0  0  0  0
  5  6  1  0  0  0  0
  5 26  1  0  0  0  0
  6  7  2  0  0  0  0
  7  8  1  0  0  0  0
  7 11  1  0  0  0  0
  8 10  1  0  0  0  0
  8  9  1  0  0  0  0
  8 27  1  0  0  0  0
  9 10  1  0  0  0  0
  9 28  1  0  0  0  0
  9 29  1  0  0  0  0
 10 30  1  0  0  0  0
 10 31  1  0  0  0  0
 11 12  2  0  0  0  0
 12 32  1  0  0  0  0
 13 14  1  0  0  0  0
 13 33  1  0  0  0  0
 14 20  1  0  0  0  0
 14 15  1  0  0  0  0
 14 34  1  0  0  0  0
 15 19  1  0  0  0  0
 15 16  1  0  0  0  0
 15 35  1  0  0  0  0
 16 17  1  0  0  0  0
 16 36  1  0  0  0  0
 16 37  1  0  0  0  0
 17 18  1  0  0  0  0
 17 38  1  0  0  0  0
 17 39  1  0  0  0  0
 18 19  1  0  0  0  0
 19 20  1  0  0  0  0
 19 40  1  0  0  0  0
 20 24  1  0  0  0  0
 20 21  1  0  0  0  0
 21 22  1  0  0  0  0
 21 41  1  0  0  0  0
 21 42  1  0  0  0  0
 22 23  1  0  0  0  0
 22 43  1  0  0  0  0
 22 44  1  0  0  0  0
 23 24  1  0  0  0  0
 23 45  1  0  0  0  0
 23 46  1  0  0  0  0
 24 47  1  0  0  0  0
 24 48  1  0  0  0  0
M  END
> <s_m_source_file>
AV-unprocessed.smi

> <i_m_source_file_index>
2505

> <i_lp_mmshare_version>
43012

> <i_f3d_flags>
0

> <s_epik_input>
W0NIMl0xW0NIMl1bQ0hdMWMobltjSF0yKW5bY0hdYzJbTkhdQyg9TylbTkhdW0NAQEhdM1tDQEBIXShbQ0gyXVtDSDJdTzQpW0NASF00QzM1W0NIMl1bQ0gyXVtDSDJdW0NIMl01

> <s_epik_cmdline>
J2VwaWtfcHl0aG9uJywgJy1waCcsICc3LjAnLCAnLXRuJywgJzgnLCAnLW1hJywgJzIwMCcsICctbWV0YWxfYmluZGluZycsICctaW1hZScsICc8aW5maWxlLm1hZT4nLCAnLW9tYWUnLCAnPG91dGZpbGUubWFlPic=

> <r_lp_tautomer_probability>
1

> <r_epik_Ionization_Penalty>
2.6075e-05

> <r_epik_Ionization_Penalty_Charging>
0

> <r_epik_Ionization_Penalty_Neutral>
2.6075e-05

> <r_epik_State_Penalty>
-0

> <r_epik_Charging_Adjusted_Penalty>
0

> <i_epik_Tot_Q>
0

> <i_epik_Tot_abs_Q>
0

> <r_epik_Metal_State_Penalty>
-0

> <b_epik_Metal_Only>
0

> <s_lp_Force_Field>
OPLS_2005

> <r_lp_Energy>
88.3916

> <b_lp_Chiralities_Consistent>
1

> <s_lp_Variant>
AV-unprocessed.smi:2505-7

> <Gold.Version>
5.8.1

> <Gold.Id.Protein>
6NUR|6NUR_protein|mol2

> <Gold.PLP.Fitness>
46.4983

> <Gold.PLP.PLP>
-34.5518

> <Gold.PLP.part.hbond>
-3.0000

> <Gold.PLP.part.metal>
0.0000

> <Gold.PLP.part.buried>
-4.2533

> <Gold.PLP.part.nonpolar>
-27.4780

> <Gold.PLP.part.repulsive>
0.1950

> <Gold.PLP.ligand.clash>
0.0000

> <Gold.PLP.ligand.torsion>
0.2204

> <Gold.PLP.Chemscore.Hbond>
3.0000

> <Gold.PLP.Chemscore.CHOScore>
1.0000

> <Gold.PLP.Chemscore.Metal>
0.0000

> <Gold.Chemscore.Hbonds>
donor molecule, donor type, donor heavy atom, donor atom, acceptor molecule, acceptor atom, score
      L1  H     3    25       P1  7948  1.00
      L1  H    13    33       P1  7948  1.00
      P1  H  7989  7998       L1    11  0.90
      L1  C    12    32       P1  7957  1.00

> <Gold.PLP.Chemscore.Internal.Correction>
0.3874

> <Gold.Rescore>
     Score         DG    S(hbond)    S(metal)    S(lipo)     H(rot)  DE(clash)    DE(int)     intcor
     19.56     -20.99       2.48        0.00      87.40       1.17       0.01       1.42       ----

> <Gold.Chemscore.Fitness>
19.5630

> <Gold.Chemscore.DG>
-20.9945

> <Gold.Chemscore.ZeroCoef>
-5.4800

> <Gold.Chemscore.Hbond>
2.4835

> <Gold.Chemscore.Metal>
0.0000

> <Gold.Chemscore.Lipo>
87.4017

> <Gold.Chemscore.Internal_Hbond>
0.0000

> <Gold.Chemscore.DEClash>
0.0069

> <Gold.Chemscore.DEInternal>
1.4245

> <Gold.Chemscore.Rot>
1.1744

> <Gold.Chemscore.Internal.Correction>
   9.000000E+99

> <Gold.Chemscore.Hbonds>
donor molecule, donor type, donor heavy atom, donor atom, acceptor molecule, acceptor atom, score
      L1  H     3    25       P1  7948  0.94
      L1  H    13    33       P1  7948  0.88
      P1  H  7989  7998       L1    11  0.18

> <Gold.Chemscore.Hbond.Weighted>
-8.2949

> <Gold.Chemscore.Metal.Weighted>
-0.0000

> <Gold.Chemscore.Lipo.Weighted>
-10.2260

> <Gold.Chemscore.Internal_Hbond.Weighted>
0.0000

> <Gold.Chemscore.DEClash.Weighted>
0.0069

> <Gold.Chemscore.DEInternal.Weighted>
1.4245

> <Gold.Chemscore.Rot.Weighted>
3.0064

> <Gold.Chemscore.Internal.Correction.Weighted>
   9.000000E+99

> <Gold.Protein.RotatedTorsions>
[ 6907 6896 6895 6894 ] final   17.34 input  -60.11 | X-H torsion
[ 7974 7965 7964 7962 ] final   34.86 input  175.53 | X-H torsion
[ 8008 7997 7996 7995 ] final  -55.02 input   59.86 | X-H torsion
[ 10167 10162 10161 10158 ] final  -79.02 input  -65.29 | X-H torsion
[ 10718 10713 10712 10709 ] final   -4.86 input   66.30 | X-H torsion
[ 10763 10752 10751 10750 ] final  -77.59 input  -60.55 | X-H torsion
[ 11005 11000 10999 10996 ] final  -67.61 input  -57.11 | X-H torsion

> <Gold.Protein.ActiveResidues>
 VAL166  LYS551  ARG553  GLY616  TRP617  ASP618  TYR619  PRO620  LYS621  CYS622 
 ASP623  PHE694  ASN695  SER759  ASP760  ASP761  ALA762  ILE779  LEU786  VAL792 
 PHE793  MET794  SER795  GLU796  ALA797  LYS798  CYS799  TRP800  GLU811  SER814 

> <Gold.Protein.RotatedAtoms>
  151.8481  135.0567  160.0455 H   0  0  0  0  0  0  0  0  0  0  0  0  # atno 6907 bound_to 6896
  152.2757  133.5419  159.5475 H   0  0  0  0  0  0  0  0  0  0  0  0  # atno 6908 bound_to 6896
  150.7169  134.0551  159.3854 H   0  0  0  0  0  0  0  0  0  0  0  0  # atno 6909 bound_to 6896
  146.1324  139.6216  142.9218 H   0  0  0  0  0  0  0  0  0  0  0  0  # atno 7974 bound_to 7965
  154.4181  140.1162  156.5409 H   0  0  0  0  0  0  0  0  0  0  0  0  # atno 8008 bound_to 7997
  155.6509  140.3496  155.4728 H   0  0  0  0  0  0  0  0  0  0  0  0  # atno 8009 bound_to 7997
  155.9794  140.1157  157.0730 H   0  0  0  0  0  0  0  0  0  0  0  0  # atno 8010 bound_to 7997
  140.4630  143.2448  151.8320 H   0  0  0  0  0  0  0  0  0  0  0  0  # atno 10167 bound_to 10162
  156.7550  130.5251  149.5796 H   0  0  0  0  0  0  0  0  0  0  0  0  # atno 10718 bound_to 10713
  154.5149  135.5759  153.6634 H   0  0  0  0  0  0  0  0  0  0  0  0  # atno 10763 bound_to 10752
  152.9905  135.6168  154.2830 H   0  0  0  0  0  0  0  0  0  0  0  0  # atno 10764 bound_to 10752
  154.2747  135.2852  155.2702 H   0  0  0  0  0  0  0  0  0  0  0  0  # atno 10765 bound_to 10752
  141.1512  133.6723  156.6319 H   0  0  0  0  0  0  0  0  0  0  0  0  # atno 11005 bound_to 11000
  145.5232  141.0431  143.2424 LP  0  0  0  0  0  0  0  0  0  0  0  0  # atno 17320 bound_to 7965
  144.7704  139.6749  143.7197 LP  0  0  0  0  0  0  0  0  0  0  0  0  # atno 17321 bound_to 7965
  139.4808  144.4984  151.9093 LP  0  0  0  0  0  0  0  0  0  0  0  0  # atno 17342 bound_to 10162
  140.4070  144.2419  150.5890 LP  0  0  0  0  0  0  0  0  0  0  0  0  # atno 17343 bound_to 10162
  156.1376  130.6222  151.0422 LP  0  0  0  0  0  0  0  0  0  0  0  0  # atno 17370 bound_to 10713
  157.6760  131.0850  150.7493 LP  0  0  0  0  0  0  0  0  0  0  0  0  # atno 17371 bound_to 10713
  140.3460  134.7808  157.4433 LP  0  0  0  0  0  0  0  0  0  0  0  0  # atno 17394 bound_to 11000
  140.0899  134.5615  155.8455 LP  0  0  0  0  0  0  0  0  0  0  0  0  # atno 17395 bound_to 11000

$$$$
