AV-unprocessed.smi:2327|AV-procd|sdf|9298|dock2
  -GOLD-   2272012513D 1   1.00000     0.00000
 Structure written by MMmdl.
 40 41  0  0  0  0  0  0  0  0  1 V2000
  154.4319  140.4620  161.3050 C   0  0  0  0  0  0  0  0  0  0  0  0
  153.5613  141.6742  161.1942 C   0  0  0  0  0  0  0  0  0  0  0  0
  152.9846  142.3733  162.2248 C   0  0  0  0  0  0  0  0  0  0  0  0
  152.0429  143.7206  161.6485 S   0  0  0  0  0  0  0  0  0  0  0  0
  152.4705  143.2762  159.9993 C   0  0  0  0  0  0  0  0  0  0  0  0
  152.0228  144.0551  158.7985 C   0  0  2  0  0  0  0  0  0  0  0  0
  152.4101  145.5378  158.8892 C   0  0  0  0  0  0  0  0  0  0  0  0
  150.5316  143.8387  158.4640 C   0  0  0  0  0  0  0  0  0  0  0  0
  150.3519  142.8956  157.3657 N   0  0  0  0  0  0  0  0  0  0  0  0
  150.8728  141.6592  157.3120 C   0  0  0  0  0  0  0  0  0  0  0  0
  151.6789  141.2264  158.1333 O   0  0  0  0  0  0  0  0  0  0  0  0
  150.4479  140.9197  156.2724 N   0  0  0  0  0  0  0  0  0  0  0  0
  150.8239  139.5450  155.9347 C   0  0  0  0  0  0  0  0  0  0  0  0
  152.3298  139.3491  156.1639 C   0  0  0  0  0  0  0  0  0  0  0  0
  152.7756  137.9585  155.6843 C   0  0  0  0  0  0  0  0  0  0  0  0
  152.4359  137.7855  154.3126 O   0  0  0  0  0  0  0  0  0  0  0  0
  151.0329  137.8410  154.0773 C   0  0  0  0  0  0  0  0  0  0  0  0
  150.4860  139.2233  154.4687 C   0  0  0  0  0  0  0  0  0  0  0  0
  153.2655  142.2035  159.9349 N   0  0  0  0  0  0  0  0  0  0  0  0
  154.4970  140.1105  162.3349 H   0  0  0  0  0  0  0  0  0  0  0  0
  155.4455  140.6730  160.9637 H   0  0  0  0  0  0  0  0  0  0  0  0
  154.0430  139.6410  160.7021 H   0  0  0  0  0  0  0  0  0  0  0  0
  153.0550  142.1779  163.2845 H   0  0  0  0  0  0  0  0  0  0  0  0
  152.5867  143.6524  157.9556 H   0  0  0  0  0  0  0  0  0  0  0  0
  153.4857  145.6547  159.0244 H   0  0  0  0  0  0  0  0  0  0  0  0
  151.9129  146.0273  159.7273 H   0  0  0  0  0  0  0  0  0  0  0  0
  152.1317  146.0716  157.9801 H   0  0  0  0  0  0  0  0  0  0  0  0
  150.0185  143.4248  159.3325 H   0  0  0  0  0  0  0  0  0  0  0  0
  150.0426  144.7881  158.2397 H   0  0  0  0  0  0  0  0  0  0  0  0
  149.7167  143.1719  156.6313 H   0  0  0  0  0  0  0  0  0  0  0  0
  149.8776  141.3961  155.5883 H   0  0  0  0  0  0  0  0  0  0  0  0
  150.2975  138.8449  156.5868 H   0  0  0  0  0  0  0  0  0  0  0  0
  152.8917  140.1112  155.6219 H   0  0  0  0  0  0  0  0  0  0  0  0
  152.5707  139.4745  157.2204 H   0  0  0  0  0  0  0  0  0  0  0  0
  153.8548  137.8527  155.7957 H   0  0  0  0  0  0  0  0  0  0  0  0
  152.3156  137.1731  156.2863 H   0  0  0  0  0  0  0  0  0  0  0  0
  150.8460  137.6507  153.0203 H   0  0  0  0  0  0  0  0  0  0  0  0
  150.5284  137.0513  154.6364 H   0  0  0  0  0  0  0  0  0  0  0  0
  149.4081  139.2537  154.3066 H   0  0  0  0  0  0  0  0  0  0  0  0
  150.9210  139.9796  153.8138 H   0  0  0  0  0  0  0  0  0  0  0  0
  1  2  1  0  0  0  0
  1 20  1  0  0  0  0
  1 21  1  0  0  0  0
  1 22  1  0  0  0  0
  2 19  1  0  0  0  0
  2  3  2  0  0  0  0
  3  4  1  0  0  0  0
  3 23  1  0  0  0  0
  4  5  1  0  0  0  0
  5  6  1  0  0  0  0
  5 19  2  0  0  0  0
  6  7  1  0  0  0  0
  6  8  1  0  0  0  0
  6 24  1  0  0  0  0
  7 25  1  0  0  0  0
  7 26  1  0  0  0  0
  7 27  1  0  0  0  0
  8  9  1  0  0  0  0
  8 28  1  0  0  0  0
  8 29  1  0  0  0  0
  9 10  1  0  0  0  0
  9 30  1  0  0  0  0
 10 11  2  0  0  0  0
 10 12  1  0  0  0  0
 12 13  1  0  0  0  0
 12 31  1  0  0  0  0
 13 18  1  0  0  0  0
 13 14  1  0  0  0  0
 13 32  1  0  0  0  0
 14 15  1  0  0  0  0
 14 33  1  0  0  0  0
 14 34  1  0  0  0  0
 15 16  1  0  0  0  0
 15 35  1  0  0  0  0
 15 36  1  0  0  0  0
 16 17  1  0  0  0  0
 17 18  1  0  0  0  0
 17 37  1  0  0  0  0
 17 38  1  0  0  0  0
 18 39  1  0  0  0  0
 18 40  1  0  0  0  0
M  END
> <s_m_source_file>
AV-unprocessed.smi

> <i_m_source_file_index>
2327

> <i_lp_mmshare_version>
43012

> <i_f3d_flags>
0

> <s_epik_input>
W0NIM11jMVtjSF1zYyhuMSlbQ0BIXShbQ0gzXSlbQ0gyXVtOSF1DKD1PKVtOSF1bQ0hdMltDSDJdW0NIMl1PW0NIMl1bQ0gyXTI=

> <s_epik_cmdline>
J2VwaWtfcHl0aG9uJywgJy1waCcsICc3LjAnLCAnLXRuJywgJzgnLCAnLW1hJywgJzIwMCcsICctbWV0YWxfYmluZGluZycsICctaW1hZScsICc8aW5maWxlLm1hZT4nLCAnLW9tYWUnLCAnPG91dGZpbGUubWFlPic=

> <r_epik_Ionization_Penalty>
0.0015425

> <r_epik_Ionization_Penalty_Charging>
0

> <r_epik_Ionization_Penalty_Neutral>
0.0015425

> <r_epik_State_Penalty>
0.000998134

> <r_epik_Charging_Adjusted_Penalty>
0.000998134

> <i_epik_Tot_Q>
0

> <i_epik_Tot_abs_Q>
0

> <r_epik_Metal_State_Penalty>
-0

> <b_epik_Metal_Only>
0

> <s_lp_Force_Field>
OPLS_2005

> <r_lp_Energy>
7.05585

> <b_lp_Chiralities_Consistent>
1

> <s_lp_Variant>
AV-unprocessed.smi:2327-1

> <Gold.Version>
5.8.1

> <Gold.Id.Protein>
6NUR|6NUR_protein|mol2

> <Gold.PLP.Fitness>
46.0009

> <Gold.PLP.PLP>
-44.2354

> <Gold.PLP.part.hbond>
-2.0000

> <Gold.PLP.part.metal>
0.0000

> <Gold.PLP.part.buried>
-4.2117

> <Gold.PLP.part.nonpolar>
-37.8623

> <Gold.PLP.part.repulsive>
0.1943

> <Gold.PLP.ligand.clash>
0.0000

> <Gold.PLP.ligand.torsion>
1.0778

> <Gold.PLP.Chemscore.Hbond>
1.2592

> <Gold.PLP.Chemscore.CHOScore>
0.0000

> <Gold.PLP.Chemscore.Metal>
0.0000

> <Gold.Chemscore.Hbonds>
donor molecule, donor type, donor heavy atom, donor atom, acceptor molecule, acceptor atom, score
      L1  H     9    30       P1  8028  0.90
      P1  H 10752 10764       L1    16  0.40

> <Gold.PLP.Chemscore.Internal.Correction>
0.1436

> <Gold.Rescore>
     Score         DG    S(hbond)    S(metal)    S(lipo)     H(rot)  DE(clash)    DE(int)     intcor
     12.82     -20.54       1.16        0.00     129.30       1.53       1.33       6.39       ----

> <Gold.Chemscore.Fitness>
12.8156

> <Gold.Chemscore.DG>
-20.5422

> <Gold.Chemscore.ZeroCoef>
-5.4800

> <Gold.Chemscore.Hbond>
1.1550

> <Gold.Chemscore.Metal>
0.0000

> <Gold.Chemscore.Lipo>
129.2971

> <Gold.Chemscore.Internal_Hbond>
0.0000

> <Gold.Chemscore.DEClash>
1.3344

> <Gold.Chemscore.DEInternal>
6.3921

> <Gold.Chemscore.Rot>
1.5325

> <Gold.Chemscore.Internal.Correction>
   9.000000E+99

> <Gold.Chemscore.Hbonds>
donor molecule, donor type, donor heavy atom, donor atom, acceptor molecule, acceptor atom, score
      L1  H     9    30       P1  8028  0.85
      P1  H 10752 10764       L1    16  0.06

> <Gold.Chemscore.Hbond.Weighted>
-3.8577

> <Gold.Chemscore.Metal.Weighted>
-0.0000

> <Gold.Chemscore.Lipo.Weighted>
-15.1278

> <Gold.Chemscore.Internal_Hbond.Weighted>
0.0000

> <Gold.Chemscore.DEClash.Weighted>
1.3344

> <Gold.Chemscore.DEInternal.Weighted>
6.3921

> <Gold.Chemscore.Rot.Weighted>
3.9233

> <Gold.Chemscore.Internal.Correction.Weighted>
   9.000000E+99

> <Gold.Protein.RotatedTorsions>
[ 6907 6896 6895 6894 ] final   84.28 input  -60.11 | X-H torsion
[ 7974 7965 7964 7962 ] final  -44.54 input  175.53 | X-H torsion
[ 8008 7997 7996 7995 ] final   59.66 input   59.86 | X-H torsion
[ 10167 10162 10161 10158 ] final  129.96 input  -65.29 | X-H torsion
[ 10718 10713 10712 10709 ] final   40.33 input   66.30 | X-H torsion
[ 10763 10752 10751 10750 ] final  -95.36 input  -60.55 | X-H torsion
[ 11005 11000 10999 10996 ] final -165.75 input  -57.11 | X-H torsion

> <Gold.Protein.ActiveResidues>
 VAL166  LYS551  ARG553  GLY616  TRP617  ASP618  TYR619  PRO620  LYS621  CYS622 
 ASP623  PHE694  ASN695  SER759  ASP760  ASP761  ALA762  ILE779  LEU786  VAL792 
 PHE793  MET794  SER795  GLU796  ALA797  LYS798  CYS799  TRP800  GLU811  SER814 

> <Gold.Protein.RotatedAtoms>
  152.5348  134.2766  159.8991 H   0  0  0  0  0  0  0  0  0  0  0  0  # atno 6907 bound_to 6896
  151.2721  133.4243  159.2629 H   0  0  0  0  0  0  0  0  0  0  0  0  # atno 6908 bound_to 6896
  151.0358  134.9587  159.8192 H   0  0  0  0  0  0  0  0  0  0  0  0  # atno 6909 bound_to 6896
  145.9910  140.7180  142.9317 H   0  0  0  0  0  0  0  0  0  0  0  0  # atno 7974 bound_to 7965
  155.5698  140.3489  155.4512 H   0  0  0  0  0  0  0  0  0  0  0  0  # atno 8008 bound_to 7997
  156.0453  140.1305  157.0136 H   0  0  0  0  0  0  0  0  0  0  0  0  # atno 8009 bound_to 7997
  154.4410  140.1016  156.6281 H   0  0  0  0  0  0  0  0  0  0  0  0  # atno 8010 bound_to 7997
  139.5452  144.6767  151.4494 H   0  0  0  0  0  0  0  0  0  0  0  0  # atno 10167 bound_to 10162
  157.3809  130.7753  149.7192 H   0  0  0  0  0  0  0  0  0  0  0  0  # atno 10718 bound_to 10713
  154.7141  135.5123  153.8711 H   0  0  0  0  0  0  0  0  0  0  0  0  # atno 10763 bound_to 10752
  153.0805  135.6630  154.0063 H   0  0  0  0  0  0  0  0  0  0  0  0  # atno 10764 bound_to 10752
  153.9900  135.3021  155.3392 H   0  0  0  0  0  0  0  0  0  0  0  0  # atno 10765 bound_to 10752
  140.5722  134.5226  157.5164 H   0  0  0  0  0  0  0  0  0  0  0  0  # atno 11005 bound_to 11000
  144.6889  140.3070  143.7254 LP  0  0  0  0  0  0  0  0  0  0  0  0  # atno 17320 bound_to 7965
  145.7630  139.1831  143.2256 LP  0  0  0  0  0  0  0  0  0  0  0  0  # atno 17321 bound_to 7965
  140.6698  143.8318  150.6985 LP  0  0  0  0  0  0  0  0  0  0  0  0  # atno 17342 bound_to 10162
  140.1739  143.4171  152.1981 LP  0  0  0  0  0  0  0  0  0  0  0  0  # atno 17343 bound_to 10162
  155.9775  130.4062  150.3705 LP  0  0  0  0  0  0  0  0  0  0  0  0  # atno 17370 bound_to 10713
  157.1809  131.0392  151.2749 LP  0  0  0  0  0  0  0  0  0  0  0  0  # atno 17371 bound_to 10713
  139.9356  134.7881  156.0811 LP  0  0  0  0  0  0  0  0  0  0  0  0  # atno 17394 bound_to 11000
  141.1049  133.6663  156.2840 LP  0  0  0  0  0  0  0  0  0  0  0  0  # atno 17395 bound_to 11000

$$$$
