AV-unprocessed.smi:3185|AV-procd|sdf|12169|dock9
  -GOLD-   2272018 03D 1   1.00000     0.00000
 Structure written by MMmdl.
 37 38  0  0  0  0  0  0  0  0  1 V2000
  157.3404  140.1541  158.5907 N   0  0  0  0  0  0  0  0  0  0  0  0
  156.7948  139.9925  159.5980 C   0  0  0  0  0  0  0  0  0  0  0  0
  156.1020  139.7869  160.8785 C   0  0  0  0  0  0  0  0  0  0  0  0
  154.5919  140.0421  160.7803 C   0  0  0  0  0  0  0  0  0  0  0  0
  154.2619  141.4964  160.4214 C   0  0  0  0  0  0  0  0  0  0  0  0
  152.8308  141.6295  160.1961 N   0  0  0  0  0  0  0  0  0  0  0  0
  152.4631  142.9488  159.6914 C   0  0  2  0  0  0  0  0  0  0  0  0
  152.4153  143.9600  160.8586 C   0  0  0  0  0  0  0  0  0  0  0  0
  151.9119  145.3358  160.3965 C   0  0  0  0  0  0  0  0  0  0  0  0
  150.5384  145.2257  159.7198 C   0  0  0  0  0  0  0  0  0  0  0  0
  150.5848  144.2411  158.5428 C   0  0  0  0  0  0  0  0  0  0  0  0
  151.0842  142.8500  158.9878 C   0  0  1  0  0  0  0  0  0  0  0  0
  151.1119  141.9243  157.8602 N   0  0  0  0  0  0  0  0  0  0  0  0
  150.8139  142.1853  156.5386 C   0  0  0  0  0  0  0  0  0  0  0  0
  150.9615  141.0175  155.8468 C   0  0  0  0  0  0  0  0  0  0  0  0
  151.3586  140.0829  156.8429 C   0  0  0  0  0  0  0  0  0  0  0  0
  151.4479  140.6269  158.0453 N   0  0  0  0  0  0  0  0  0  0  0  0
  156.2955  138.7646  161.2034 H   0  0  0  0  0  0  0  0  0  0  0  0
  156.5591  140.4512  161.6123 H   0  0  0  0  0  0  0  0  0  0  0  0
  154.1424  139.3626  160.0549 H   0  0  0  0  0  0  0  0  0  0  0  0
  154.1348  139.8055  161.7417 H   0  0  0  0  0  0  0  0  0  0  0  0
  154.5678  142.1546  161.2346 H   0  0  0  0  0  0  0  0  0  0  0  0
  154.8169  141.7950  159.5314 H   0  0  0  0  0  0  0  0  0  0  0  0
  152.3136  141.4158  161.0368 H   0  0  0  0  0  0  0  0  0  0  0  0
  153.2018  143.2776  158.9586 H   0  0  0  0  0  0  0  0  0  0  0  0
  151.7605  143.5860  161.6471 H   0  0  0  0  0  0  0  0  0  0  0  0
  153.4023  144.0766  161.3069 H   0  0  0  0  0  0  0  0  0  0  0  0
  151.8528  146.0151  161.2474 H   0  0  0  0  0  0  0  0  0  0  0  0
  152.6291  145.7730  159.7007 H   0  0  0  0  0  0  0  0  0  0  0  0
  149.7953  144.8955  160.4467 H   0  0  0  0  0  0  0  0  0  0  0  0
  150.2158  146.2069  159.3706 H   0  0  0  0  0  0  0  0  0  0  0  0
  149.5929  144.1559  158.0974 H   0  0  0  0  0  0  0  0  0  0  0  0
  151.2376  144.6445  157.7672 H   0  0  0  0  0  0  0  0  0  0  0  0
  150.3615  142.4578  159.7059 H   0  0  0  0  0  0  0  0  0  0  0  0
  150.5210  143.1697  156.2043 H   0  0  0  0  0  0  0  0  0  0  0  0
  150.8082  140.8555  154.7903 H   0  0  0  0  0  0  0  0  0  0  0  0
  151.5825  139.0327  156.7288 H   0  0  0  0  0  0  0  0  0  0  0  0
  1  2  3  0  0  0  0
  2  3  1  0  0  0  0
  3  4  1  0  0  0  0
  3 18  1  0  0  0  0
  3 19  1  0  0  0  0
  4  5  1  0  0  0  0
  4 20  1  0  0  0  0
  4 21  1  0  0  0  0
  5  6  1  0  0  0  0
  5 22  1  0  0  0  0
  5 23  1  0  0  0  0
  6  7  1  0  0  0  0
  6 24  1  0  0  0  0
  7 12  1  0  0  0  0
  7  8  1  0  0  0  0
  7 25  1  0  0  0  0
  8  9  1  0  0  0  0
  8 26  1  0  0  0  0
  8 27  1  0  0  0  0
  9 10  1  0  0  0  0
  9 28  1  0  0  0  0
  9 29  1  0  0  0  0
 10 11  1  0  0  0  0
 10 30  1  0  0  0  0
 10 31  1  0  0  0  0
 11 12  1  0  0  0  0
 11 32  1  0  0  0  0
 11 33  1  0  0  0  0
 12 13  1  0  0  0  0
 12 34  1  0  0  0  0
 13 17  1  0  0  0  0
 13 14  1  0  0  0  0
 14 15  2  0  0  0  0
 14 35  1  0  0  0  0
 15 16  1  0  0  0  0
 15 36  1  0  0  0  0
 16 17  2  0  0  0  0
 16 37  1  0  0  0  0
M  END
> <s_m_source_file>
AV-unprocessed.smi

> <i_m_source_file_index>
3185

> <i_lp_mmshare_version>
43012

> <i_f3d_flags>
0

> <s_epik_input>
TiNDW0NIMl1bQ0gyXVtDSDJdW05IXVtDQEBIXTFbQ0gyXVtDSDJdW0NIMl1bQ0gyXVtDQEhdMW4yW2NIXVtjSF1bY0hdbjI=

> <s_epik_cmdline>
J2VwaWtfcHl0aG9uJywgJy1waCcsICc3LjAnLCAnLXRuJywgJzgnLCAnLW1hJywgJzIwMCcsICctbWV0YWxfYmluZGluZycsICctaW1hZScsICc8aW5maWxlLm1hZT4nLCAnLW9tYWUnLCAnPG91dGZpbGUubWFlPic=

> <r_lp_tautomer_probability>
1

> <r_epik_Ionization_Penalty>
2.21326

> <r_epik_Ionization_Penalty_Charging>
0

> <r_epik_Ionization_Penalty_Neutral>
2.21326

> <r_epik_State_Penalty>
2.35651

> <r_epik_Charging_Adjusted_Penalty>
2.35651

> <i_epik_Tot_Q>
0

> <i_epik_Tot_abs_Q>
0

> <r_epik_Metal_State_Penalty>
2.3555

> <b_epik_Metal_Only>
0

> <s_lp_Force_Field>
OPLS_2005

> <r_lp_Energy>
16.739

> <b_lp_Chiralities_Consistent>
1

> <s_lp_Variant>
AV-unprocessed.smi:3185-5

> <Gold.Version>
5.8.1

> <Gold.Id.Protein>
6NUR|6NUR_protein|mol2

> <Gold.PLP.Fitness>
43.8889

> <Gold.PLP.PLP>
-38.3090

> <Gold.PLP.part.hbond>
-1.0000

> <Gold.PLP.part.metal>
0.0000

> <Gold.PLP.part.buried>
-5.8851

> <Gold.PLP.part.nonpolar>
-32.3380

> <Gold.PLP.part.repulsive>
0.0899

> <Gold.PLP.ligand.clash>
0.0000

> <Gold.PLP.ligand.torsion>
0.2324

> <Gold.PLP.Chemscore.Hbond>
1.0000

> <Gold.PLP.Chemscore.CHOScore>
1.0000

> <Gold.PLP.Chemscore.Metal>
0.0000

> <Gold.Chemscore.Hbonds>
donor molecule, donor type, donor heavy atom, donor atom, acceptor molecule, acceptor atom, score
      P1  H  7997  8008       L1     1  1.00
      L1  C    14    35       P1  8028  1.00

> <Gold.PLP.Chemscore.Internal.Correction>
0.0446

> <Gold.Rescore>
     Score         DG    S(hbond)    S(metal)    S(lipo)     H(rot)  DE(clash)    DE(int)     intcor
     15.23     -16.95       0.99        0.00     109.42       1.81       0.03       1.69       ----

> <Gold.Chemscore.Fitness>
15.2317

> <Gold.Chemscore.DG>
-16.9549

> <Gold.Chemscore.ZeroCoef>
-5.4800

> <Gold.Chemscore.Hbond>
0.9906

> <Gold.Chemscore.Metal>
0.0000

> <Gold.Chemscore.Lipo>
109.4219

> <Gold.Chemscore.Internal_Hbond>
0.0000

> <Gold.Chemscore.DEClash>
0.0295

> <Gold.Chemscore.DEInternal>
1.6936

> <Gold.Chemscore.Rot>
1.8110

> <Gold.Chemscore.Internal.Correction>
   9.000000E+99

> <Gold.Chemscore.Hbonds>
donor molecule, donor type, donor heavy atom, donor atom, acceptor molecule, acceptor atom, score
      P1  H  7997  8008       L1     1  0.57

> <Gold.Chemscore.Hbond.Weighted>
-3.3087

> <Gold.Chemscore.Metal.Weighted>
-0.0000

> <Gold.Chemscore.Lipo.Weighted>
-12.8024

> <Gold.Chemscore.Internal_Hbond.Weighted>
0.0000

> <Gold.Chemscore.DEClash.Weighted>
0.0295

> <Gold.Chemscore.DEInternal.Weighted>
1.6936

> <Gold.Chemscore.Rot.Weighted>
4.6362

> <Gold.Chemscore.Internal.Correction.Weighted>
   9.000000E+99

> <Gold.Protein.RotatedTorsions>
[ 6907 6896 6895 6894 ] final  -45.15 input  -60.11 | X-H torsion
[ 7974 7965 7964 7962 ] final   24.73 input  175.53 | X-H torsion
[ 8008 7997 7996 7995 ] final -169.31 input   59.86 | X-H torsion
[ 10167 10162 10161 10158 ] final  153.65 input  -65.29 | X-H torsion
[ 10718 10713 10712 10709 ] final  178.60 input   66.30 | X-H torsion
[ 10763 10752 10751 10750 ] final  -66.93 input  -60.55 | X-H torsion
[ 11005 11000 10999 10996 ] final -127.51 input  -57.11 | X-H torsion

> <Gold.Protein.ActiveResidues>
 VAL166  LYS551  ARG553  GLY616  TRP617  ASP618  TYR619  PRO620  LYS621  CYS622 
 ASP623  PHE694  ASN695  SER759  ASP760  ASP761  ALA762  ILE779  LEU786  VAL792 
 PHE793  MET794  SER795  GLU796  ALA797  LYS798  CYS799  TRP800  GLU811  SER814 

> <Gold.Protein.RotatedAtoms>
  150.9250  134.8667  159.7513 H   0  0  0  0  0  0  0  0  0  0  0  0  # atno 6907 bound_to 6896
  152.5011  134.4162  159.9475 H   0  0  0  0  0  0  0  0  0  0  0  0  # atno 6908 bound_to 6896
  151.4193  133.3663  159.2789 H   0  0  0  0  0  0  0  0  0  0  0  0  # atno 6909 bound_to 6896
  146.1923  139.7564  142.8822 H   0  0  0  0  0  0  0  0  0  0  0  0  # atno 7974 bound_to 7965
  155.9033  140.1044  157.1334 H   0  0  0  0  0  0  0  0  0  0  0  0  # atno 8008 bound_to 7997
  154.4029  140.1288  156.4528 H   0  0  0  0  0  0  0  0  0  0  0  0  # atno 8009 bound_to 7997
  155.7397  140.3467  155.5101 H   0  0  0  0  0  0  0  0  0  0  0  0  # atno 8010 bound_to 7997
  139.4826  144.5255  151.7808 H   0  0  0  0  0  0  0  0  0  0  0  0  # atno 10167 bound_to 10162
  156.8882  130.9838  151.3053 H   0  0  0  0  0  0  0  0  0  0  0  0  # atno 10718 bound_to 10713
  154.3671  135.6103  153.5720 H   0  0  0  0  0  0  0  0  0  0  0  0  # atno 10763 bound_to 10752
  152.9791  135.5829  154.4565 H   0  0  0  0  0  0  0  0  0  0  0  0  # atno 10764 bound_to 10752
  154.4313  135.2848  155.1888 H   0  0  0  0  0  0  0  0  0  0  0  0  # atno 10765 bound_to 10752
  140.9593  134.0958  157.3984 H   0  0  0  0  0  0  0  0  0  0  0  0  # atno 11005 bound_to 11000
  145.3753  141.0349  143.3208 LP  0  0  0  0  0  0  0  0  0  0  0  0  # atno 17320 bound_to 7965
  144.8511  139.5320  143.6856 LP  0  0  0  0  0  0  0  0  0  0  0  0  # atno 17321 bound_to 7965
  140.4774  144.1499  150.5927 LP  0  0  0  0  0  0  0  0  0  0  0  0  # atno 17342 bound_to 10162
  140.4315  143.2566  151.9589 LP  0  0  0  0  0  0  0  0  0  0  0  0  # atno 17343 bound_to 10162
  157.6100  130.8575  149.8936 LP  0  0  0  0  0  0  0  0  0  0  0  0  # atno 17370 bound_to 10713
  156.0642  130.3695  150.0914 LP  0  0  0  0  0  0  0  0  0  0  0  0  # atno 17371 bound_to 10713
  139.8873  135.0088  156.6550 LP  0  0  0  0  0  0  0  0  0  0  0  0  # atno 17394 bound_to 11000
  140.7490  133.8913  155.8333 LP  0  0  0  0  0  0  0  0  0  0  0  0  # atno 17395 bound_to 11000

$$$$
