AV-unprocessed.smi:54|AV-procd|sdf|549|dock1
  -GOLD-   2262016443D 1   1.00000     0.00000
 Structure written by MMmdl.
 43 45  0  0  0  0  0  0  0  0  2 V2000
  152.3810  142.7367  161.1162 C   0  0  0  0  0  0  0  0  0  0  0  0
  152.4142  143.4896  159.7756 C   0  0  0  0  0  0  0  0  0  0  0  0
  151.6808  144.8374  159.8737 C   0  0  0  0  0  0  0  0  0  0  0  0
  151.8199  142.6281  158.6521 C   0  0  0  0  0  0  0  0  0  0  0  0
  150.8412  143.0458  158.0294 O   0  0  0  0  0  0  0  0  0  0  0  0
  152.4524  141.4551  158.4280 N   0  0  0  0  0  0  0  0  0  0  0  0
  152.1601  140.4654  157.4831 C   0  0  0  0  0  0  0  0  0  0  0  0
  151.2029  140.8077  156.6554 N   0  0  0  0  0  0  0  0  0  0  0  0
  150.9447  139.8361  155.7068 C   0  0  0  0  0  0  0  0  0  0  0  0
  151.5591  138.6215  155.5682 C   0  0  0  0  0  0  0  0  0  0  0  0
  151.0105  137.8909  154.5224 N   0  0  0  0  0  0  0  0  0  0  0  0
  150.0707  138.7182  154.0699 C   0  0  0  0  0  0  0  0  0  0  0  0
  149.9889  139.9112  154.6964 N   0  0  0  0  0  0  0  0  0  0  0  0
  149.0065  141.0183  154.4394 C   0  0  2  0  0  0  0  0  0  0  0  0
  148.6103  141.5602  155.6680 O   0  0  0  0  0  0  0  0  0  0  0  0
  147.3268  141.0715  156.0457 C   0  0  2  0  0  0  0  0  0  0  0  0
  147.4753  139.7777  156.8782 C   0  0  0  0  0  0  0  0  0  0  0  0
  146.2146  139.1873  157.1193 O   0  0  0  0  0  0  0  0  0  0  0  0
  146.6207  140.9319  154.6905 C   0  0  2  0  0  0  0  0  0  0  0  0
  145.5595  139.9978  154.7132 O   0  0  0  0  0  0  0  0  0  0  0  0
  147.7332  140.4922  153.7449 C   0  0  1  0  0  0  0  0  0  0  0  0
  147.5466  141.0907  152.4778 O   0  0  0  0  0  0  0  0  0  0  0  0
  152.6381  138.3007  156.5317 C   0  0  0  0  0  0  0  0  0  0  0  0
  153.2184  137.2204  156.4426 O   0  0  0  0  0  0  0  0  0  0  0  0
  152.8996  139.2661  157.4625 N   0  5  0  0  0  0  0  0  0  0  0  0
  149.5741  141.7454  153.8572 H   0  0  0  0  0  0  0  0  0  0  0  0
  146.8412  141.8331  156.6573 H   0  0  0  0  0  0  0  0  0  0  0  0
  146.2347  141.9101  154.3987 H   0  0  0  0  0  0  0  0  0  0  0  0
  147.7662  139.4050  153.6591 H   0  0  0  0  0  0  0  0  0  0  0  0
  152.8867  141.7732  161.0423 H   0  0  0  0  0  0  0  0  0  0  0  0
  151.3587  142.5519  161.4481 H   0  0  0  0  0  0  0  0  0  0  0  0
  152.8823  143.3094  161.8969 H   0  0  0  0  0  0  0  0  0  0  0  0
  153.4588  143.6950  159.5358 H   0  0  0  0  0  0  0  0  0  0  0  0
  151.6943  145.3666  158.9198 H   0  0  0  0  0  0  0  0  0  0  0  0
  152.1536  145.4844  160.6130 H   0  0  0  0  0  0  0  0  0  0  0  0
  150.6387  144.7071  160.1679 H   0  0  0  0  0  0  0  0  0  0  0  0
  153.2877  141.3121  158.9760 H   0  0  0  0  0  0  0  0  0  0  0  0
  149.4193  138.4409  153.2547 H   0  0  0  0  0  0  0  0  0  0  0  0
  148.1373  139.0583  156.3951 H   0  0  0  0  0  0  0  0  0  0  0  0
  147.9077  140.0112  157.8508 H   0  0  0  0  0  0  0  0  0  0  0  0
  145.5439  139.7790  156.8138 H   0  0  0  0  0  0  0  0  0  0  0  0
  144.9471  140.2247  154.0300 H   0  0  0  0  0  0  0  0  0  0  0  0
  148.0332  140.5943  151.8380 H   0  0  0  0  0  0  0  0  0  0  0  0
  1  2  1  0  0  0  0
  1 30  1  0  0  0  0
  1 31  1  0  0  0  0
  1 32  1  0  0  0  0
  2  3  1  0  0  0  0
  2  4  1  0  0  0  0
  2 33  1  0  0  0  0
  3 34  1  0  0  0  0
  3 35  1  0  0  0  0
  3 36  1  0  0  0  0
  4  5  2  0  0  0  0
  4  6  1  0  0  0  0
  6 37  1  0  0  0  0
  6  7  1  0  0  0  0
  7 25  1  0  0  0  0
  7  8  2  0  0  0  0
  8  9  1  0  0  0  0
  9 13  1  0  0  0  0
  9 10  2  0  0  0  0
 10 11  1  0  0  0  0
 10 23  1  0  0  0  0
 11 12  2  0  0  0  0
 12 13  1  0  0  0  0
 12 38  1  0  0  0  0
 13 14  1  0  0  0  0
 14 26  1  0  0  0  0
 14 21  1  0  0  0  0
 14 15  1  0  0  0  0
 15 16  1  0  0  0  0
 16 27  1  0  0  0  0
 16 17  1  0  0  0  0
 16 19  1  0  0  0  0
 17 18  1  0  0  0  0
 17 39  1  0  0  0  0
 17 40  1  0  0  0  0
 18 41  1  0  0  0  0
 19 28  1  0  0  0  0
 19 20  1  0  0  0  0
 19 21  1  0  0  0  0
 20 42  1  0  0  0  0
 21 29  1  0  0  0  0
 21 22  1  0  0  0  0
 22 43  1  0  0  0  0
 23 24  2  0  0  0  0
 23 25  1  0  0  0  0
M  CHG  1  25  -1
M  END
> <s_m_source_file>
AV-unprocessed.smi

> <i_m_source_file_index>
54

> <i_lp_mmshare_version>
43012

> <i_f3d_flags>
0

> <s_epik_input>
W0NIM11bQ0hdKFtDSDNdKUMoPU8pW05IXWMobjEpW25IXWMoPU8pYyhjMTIpbltjSF1uMltDQEBIXTNPW0NASF0oW0NIMl1bT0hdKVtDQEBIXShbT0hdKVtDQEhdM1tPSF0=

> <s_epik_cmdline>
J2VwaWtfcHl0aG9uJywgJy1waCcsICc3LjAnLCAnLXRuJywgJzgnLCAnLW1hJywgJzIwMCcsICctbWV0YWxfYmluZGluZycsICctaW1hZScsICc8aW5maWxlLm1hZT4nLCAnLW9tYWUnLCAnPG91dGZpbGUubWFlPic=

> <r_lp_tautomer_probability>
0.85571

> <r_epik_Ionization_Penalty>
1.75936

> <r_epik_Ionization_Penalty_Charging>
4.55893e-11

> <r_epik_Ionization_Penalty_Neutral>
1.75936

> <r_epik_State_Penalty>
1.72072

> <r_epik_Charging_Adjusted_Penalty>
1.72072

> <i_epik_Tot_Q>
-1

> <i_epik_Tot_abs_Q>
1

> <r_epik_Metal_State_Penalty>
0.400338

> <b_epik_Metal_Only>
1

> <s_epik_Chemistry_Notes>
This compound contains an acetal/aminal-like group ( X-CH(R)-Y where X, Y are N, S, or O) that may be acid/base labile, releasing an aldehyde.

> <s_lp_Force_Field>
OPLS_2005

> <r_lp_Energy>
58.7514

> <b_lp_Chiralities_Consistent>
1

> <s_lp_Variant>
AV-unprocessed.smi:54-21

> <Gold.Version>
5.8.1

> <Gold.Id.Protein>
6NUR|6NUR_protein|mol2

> <Gold.PLP.Fitness>
52.6438

> <Gold.PLP.PLP>
-36.7509

> <Gold.PLP.part.hbond>
-4.0000

> <Gold.PLP.part.metal>
0.0000

> <Gold.PLP.part.buried>
0.1458

> <Gold.PLP.part.nonpolar>
-32.1614

> <Gold.PLP.part.repulsive>
0.5354

> <Gold.PLP.ligand.clash>
0.0000

> <Gold.PLP.ligand.torsion>
0.6896

> <Gold.PLP.Chemscore.Hbond>
4.4051

> <Gold.PLP.Chemscore.CHOScore>
1.3212

> <Gold.PLP.Chemscore.Metal>
0.0000

> <Gold.Chemscore.Hbonds>
donor molecule, donor type, donor heavy atom, donor atom, acceptor molecule, acceptor atom, score
      L1  H    20    42       P1 10175  1.00
      L1  H    22    43       P1  7957  1.00
      P1  H  7997  8008       L1    25  1.80
      P1  H 10752 10764       L1    24  0.48
      L1  C    12    38       P1  7948  0.78
      L1  C    12    38       P1  7957  0.51

> <Gold.PLP.Chemscore.Internal.Correction>
0.0933

> <Gold.Rescore>
     Score         DG    S(hbond)    S(metal)    S(lipo)     H(rot)  DE(clash)    DE(int)     intcor
      6.74     -11.46       2.95        0.00      54.89       4.02       1.45       3.27       ----

> <Gold.Chemscore.Fitness>
6.7389

> <Gold.Chemscore.DG>
-11.4591

> <Gold.Chemscore.ZeroCoef>
-5.4800

> <Gold.Chemscore.Hbond>
2.9481

> <Gold.Chemscore.Metal>
0.0000

> <Gold.Chemscore.Lipo>
54.8872

> <Gold.Chemscore.Internal_Hbond>
0.0000

> <Gold.Chemscore.DEClash>
1.4529

> <Gold.Chemscore.DEInternal>
3.2673

> <Gold.Chemscore.Rot>
4.0192

> <Gold.Chemscore.Internal.Correction>
   9.000000E+99

> <Gold.Chemscore.Hbonds>
donor molecule, donor type, donor heavy atom, donor atom, acceptor molecule, acceptor atom, score
      L1  H    20    42       P1 10175  0.94
      L1  H    22    43       P1  7957  0.95
      P1  H  7997  8008       L1    25  0.11
      P1  H 10752 10764       L1    24  0.47

> <Gold.Chemscore.Hbond.Weighted>
-9.8466

> <Gold.Chemscore.Metal.Weighted>
-0.0000

> <Gold.Chemscore.Lipo.Weighted>
-6.4218

> <Gold.Chemscore.Internal_Hbond.Weighted>
0.0000

> <Gold.Chemscore.DEClash.Weighted>
1.4529

> <Gold.Chemscore.DEInternal.Weighted>
3.2673

> <Gold.Chemscore.Rot.Weighted>
10.2893

> <Gold.Chemscore.Internal.Correction.Weighted>
   9.000000E+99

> <Gold.Protein.RotatedTorsions>
[ 6907 6896 6895 6894 ] final  -59.76 input  -60.11 | X-H torsion
[ 7974 7965 7964 7962 ] final   -9.17 input  175.53 | X-H torsion
[ 8008 7997 7996 7995 ] final  -90.38 input   59.86 | X-H torsion
[ 10167 10162 10161 10158 ] final   59.31 input  -65.29 | X-H torsion
[ 10718 10713 10712 10709 ] final -155.03 input   66.30 | X-H torsion
[ 10763 10752 10751 10750 ] final  -10.01 input  -60.55 | X-H torsion
[ 11005 11000 10999 10996 ] final   85.88 input  -57.11 | X-H torsion

> <Gold.Protein.ActiveResidues>
 VAL166  LYS551  ARG553  GLY616  TRP617  ASP618  TYR619  PRO620  LYS621  CYS622 
 ASP623  PHE694  ASN695  SER759  ASP760  ASP761  ALA762  ILE779  LEU786  VAL792 
 PHE793  MET794  SER795  GLU796  ALA797  LYS798  CYS799  TRP800  GLU811  SER814 

> <Gold.Protein.RotatedAtoms>
  150.7906  134.6926  159.6505 H   0  0  0  0  0  0  0  0  0  0  0  0  # atno 6907 bound_to 6896
  152.4011  134.6282  160.0078 H   0  0  0  0  0  0  0  0  0  0  0  0  # atno 6908 bound_to 6896
  151.6553  133.3282  159.3197 H   0  0  0  0  0  0  0  0  0  0  0  0  # atno 6909 bound_to 6896
  146.2259  140.2577  142.8350 H   0  0  0  0  0  0  0  0  0  0  0  0  # atno 7974 bound_to 7965
  154.6979  140.0531  157.0428 H   0  0  0  0  0  0  0  0  0  0  0  0  # atno 8008 bound_to 7997
  155.0726  140.3201  155.4607 H   0  0  0  0  0  0  0  0  0  0  0  0  # atno 8009 bound_to 7997
  156.2750  140.2079  156.5854 H   0  0  0  0  0  0  0  0  0  0  0  0  # atno 8010 bound_to 7997
  140.1777  144.4213  150.6630 H   0  0  0  0  0  0  0  0  0  0  0  0  # atno 10167 bound_to 10162
  156.5073  130.8418  151.2632 H   0  0  0  0  0  0  0  0  0  0  0  0  # atno 10718 bound_to 10713
  153.4630  135.7016  153.6039 H   0  0  0  0  0  0  0  0  0  0  0  0  # atno 10763 bound_to 10752
  153.4325  135.3799  155.2179 H   0  0  0  0  0  0  0  0  0  0  0  0  # atno 10764 bound_to 10752
  154.8727  135.3954  154.4058 H   0  0  0  0  0  0  0  0  0  0  0  0  # atno 10765 bound_to 10752
  139.8959  134.8317  156.2643 H   0  0  0  0  0  0  0  0  0  0  0  0  # atno 11005 bound_to 11000
  144.9363  140.8030  143.5658 LP  0  0  0  0  0  0  0  0  0  0  0  0  # atno 17320 bound_to 7965
  145.2524  139.2026  143.4935 LP  0  0  0  0  0  0  0  0  0  0  0  0  # atno 17321 bound_to 7965
  140.6540  143.2232  151.6012 LP  0  0  0  0  0  0  0  0  0  0  0  0  # atno 17342 bound_to 10162
  139.5309  144.2918  152.1146 LP  0  0  0  0  0  0  0  0  0  0  0  0  # atno 17343 bound_to 10162
  157.7455  130.9961  150.2769 LP  0  0  0  0  0  0  0  0  0  0  0  0  # atno 17370 bound_to 10713
  156.3275  130.3795  149.7520 LP  0  0  0  0  0  0  0  0  0  0  0  0  # atno 17371 bound_to 10713
  141.0142  133.7078  156.1161 LP  0  0  0  0  0  0  0  0  0  0  0  0  # atno 17394 bound_to 11000
  140.7325  134.4239  157.5564 LP  0  0  0  0  0  0  0  0  0  0  0  0  # atno 17395 bound_to 11000

$$$$
