AV-unprocessed.smi:2817|AV-procd|sdf|10846|dock1
  -GOLD-   2272015283D 1   1.00000     0.00000
 Structure written by MMmdl.
 42 44  0  0  0  0  0  0  0  0  1 V2000
  152.8762  139.6297  157.6585 O   0  0  0  0  0  0  0  0  0  0  0  0
  151.9227  140.4044  157.7369 C   0  0  0  0  0  0  0  0  0  0  0  0
  152.0917  141.8395  157.9667 C   0  0  0  0  0  0  0  0  0  0  0  0
  151.0200  142.6635  158.0436 C   0  0  0  0  0  0  0  0  0  0  0  0
  151.1963  144.1582  158.2979 C   0  0  0  0  0  0  0  0  0  0  0  0
  152.6152  144.6100  158.6839 C   0  0  0  0  0  0  0  0  0  0  0  0
  152.1666  144.7111  160.1462 C   0  0  0  0  0  0  0  0  0  0  0  0
  150.7097  144.6341  159.6755 C   0  0  0  0  0  0  0  0  0  0  0  0
  149.7215  142.1516  157.9175 N   0  0  0  0  0  0  0  0  0  0  0  0
  149.5442  140.8849  157.7172 C   0  0  0  0  0  0  0  0  0  0  0  0
  150.6281  139.9914  157.6163 N   0  0  0  0  0  0  0  0  0  0  0  0
  150.2925  138.5759  157.3952 C   0  0  0  0  0  0  0  0  0  0  0  0
  150.3244  137.7630  158.7101 C   0  0  2  0  0  0  0  0  0  0  0  0
  151.3553  136.7995  158.6329 O   0  0  0  0  0  0  0  0  0  0  0  0
  149.0123  137.0030  158.9570 C   0  0  0  0  0  0  0  0  0  0  0  0
  148.8072  136.8970  160.3596 O   0  0  0  0  0  0  0  0  0  0  0  0
  147.9642  135.9118  160.8258 C   0  0  0  0  0  0  0  0  0  0  0  0
  147.8114  134.7667  160.0168 C   0  0  0  0  0  0  0  0  0  0  0  0
  146.9694  133.7104  160.4139 C   0  0  0  0  0  0  0  0  0  0  0  0
  146.2679  133.7896  161.6309 C   0  0  0  0  0  0  0  0  0  0  0  0
  146.4108  134.9264  162.4480 C   0  0  0  0  0  0  0  0  0  0  0  0
  147.2533  135.9831  162.0509 C   0  0  0  0  0  0  0  0  0  0  0  0
  153.0897  142.2391  158.0746 H   0  0  0  0  0  0  0  0  0  0  0  0
  150.7834  144.7584  157.4857 H   0  0  0  0  0  0  0  0  0  0  0  0
  153.4056  143.8806  158.5021 H   0  0  0  0  0  0  0  0  0  0  0  0
  152.8713  145.5821  158.2603 H   0  0  0  0  0  0  0  0  0  0  0  0
  152.4652  143.8470  160.7412 H   0  0  0  0  0  0  0  0  0  0  0  0
  152.4328  145.6484  160.6359 H   0  0  0  0  0  0  0  0  0  0  0  0
  150.2313  145.6134  159.6339 H   0  0  0  0  0  0  0  0  0  0  0  0
  150.0983  143.9155  160.2228 H   0  0  0  0  0  0  0  0  0  0  0  0
  148.5548  140.4340  157.6199 H   0  0  0  0  0  0  0  0  0  0  0  0
  149.2954  138.5195  156.9543 H   0  0  0  0  0  0  0  0  0  0  0  0
  150.9362  138.1191  156.6411 H   0  0  0  0  0  0  0  0  0  0  0  0
  150.5203  138.4100  159.5662 H   0  0  0  0  0  0  0  0  0  0  0  0
  152.1699  137.2433  158.4529 H   0  0  0  0  0  0  0  0  0  0  0  0
  148.1794  137.5228  158.4800 H   0  0  0  0  0  0  0  0  0  0  0  0
  149.0802  136.0022  158.5266 H   0  0  0  0  0  0  0  0  0  0  0  0
  148.3461  134.6975  159.0807 H   0  0  0  0  0  0  0  0  0  0  0  0
  146.8621  132.8397  159.7840 H   0  0  0  0  0  0  0  0  0  0  0  0
  145.6212  132.9801  161.9364 H   0  0  0  0  0  0  0  0  0  0  0  0
  145.8723  134.9889  163.3821 H   0  0  0  0  0  0  0  0  0  0  0  0
  147.3360  136.8386  162.7037 H   0  0  0  0  0  0  0  0  0  0  0  0
  1  2  2  0  0  0  0
  2 11  1  0  0  0  0
  2  3  1  0  0  0  0
  3  4  2  0  0  0  0
  3 23  1  0  0  0  0
  4  5  1  0  0  0  0
  4  9  1  0  0  0  0
  5  8  1  0  0  0  0
  5  6  1  0  0  0  0
  5 24  1  0  0  0  0
  6  7  1  0  0  0  0
  6 25  1  0  0  0  0
  6 26  1  0  0  0  0
  7  8  1  0  0  0  0
  7 27  1  0  0  0  0
  7 28  1  0  0  0  0
  8 29  1  0  0  0  0
  8 30  1  0  0  0  0
  9 10  2  0  0  0  0
 10 11  1  0  0  0  0
 10 31  1  0  0  0  0
 11 12  1  0  0  0  0
 12 13  1  0  0  0  0
 12 32  1  0  0  0  0
 12 33  1  0  0  0  0
 13 14  1  0  0  0  0
 13 15  1  0  0  0  0
 13 34  1  0  0  0  0
 14 35  1  0  0  0  0
 15 16  1  0  0  0  0
 15 36  1  0  0  0  0
 15 37  1  0  0  0  0
 16 17  1  0  0  0  0
 17 22  1  0  0  0  0
 17 18  2  0  0  0  0
 18 19  1  0  0  0  0
 18 38  1  0  0  0  0
 19 20  2  0  0  0  0
 19 39  1  0  0  0  0
 20 21  1  0  0  0  0
 20 40  1  0  0  0  0
 21 22  2  0  0  0  0
 21 41  1  0  0  0  0
 22 42  1  0  0  0  0
M  END
> <s_m_source_file>
AV-unprocessed.smi

> <i_m_source_file_index>
2817

> <i_lp_mmshare_version>
43012

> <i_f3d_flags>
0

> <s_epik_input>
W0NIMl0xW0NIMl1bQ0gyXVtDSF0xYyhbY0hdYzI9TyluW2NIXW4yW0NIMl1bQ0BIXShbT0hdKVtDSDJdT2MzW2NIXVtjSF1bY0hdW2NIXVtjSF0z

> <s_epik_cmdline>
J2VwaWtfcHl0aG9uJywgJy1waCcsICc3LjAnLCAnLXRuJywgJzgnLCAnLW1hJywgJzIwMCcsICctbWV0YWxfYmluZGluZycsICctaW1hZScsICc8aW5maWxlLm1hZT4nLCAnLW9tYWUnLCAnPG91dGZpbGUubWFlPic=

> <r_lp_tautomer_probability>
1

> <r_epik_Ionization_Penalty>
2.12778e-05

> <r_epik_Ionization_Penalty_Charging>
7.42033e-08

> <r_epik_Ionization_Penalty_Neutral>
2.12036e-05

> <r_epik_State_Penalty>
-0

> <r_epik_Charging_Adjusted_Penalty>
7.42033e-08

> <i_epik_Tot_Q>
0

> <i_epik_Tot_abs_Q>
0

> <r_epik_Metal_State_Penalty>
-0

> <b_epik_Metal_Only>
0

> <s_lp_Force_Field>
OPLS_2005

> <r_lp_Energy>
32.2435

> <b_lp_Chiralities_Consistent>
1

> <s_lp_Variant>
AV-unprocessed.smi:2817-1

> <Gold.Version>
5.8.1

> <Gold.Id.Protein>
6NUR|6NUR_protein|mol2

> <Gold.PLP.Fitness>
52.2577

> <Gold.PLP.PLP>
-47.3966

> <Gold.PLP.part.hbond>
-3.0995

> <Gold.PLP.part.metal>
0.0000

> <Gold.PLP.part.buried>
-7.6516

> <Gold.PLP.part.nonpolar>
-38.1534

> <Gold.PLP.part.repulsive>
0.1142

> <Gold.PLP.ligand.clash>
0.0000

> <Gold.PLP.ligand.torsion>
2.0550

> <Gold.PLP.Chemscore.Hbond>
2.8160

> <Gold.PLP.Chemscore.CHOScore>
0.0000

> <Gold.PLP.Chemscore.Metal>
0.0000

> <Gold.Chemscore.Hbonds>
donor molecule, donor type, donor heavy atom, donor atom, acceptor molecule, acceptor atom, score
      P1  H  6896  6908       L1    14  0.73
      P1  H  6931  6943       L1    16  0.69
      P1  H  7997  8008       L1     1  1.00

> <Gold.PLP.Chemscore.Internal.Correction>
0.5231

> <Gold.Rescore>
     Score         DG    S(hbond)    S(metal)    S(lipo)     H(rot)  DE(clash)    DE(int)     intcor
     21.18     -23.22       2.81        0.00     124.39       2.42       0.13       1.91       ----

> <Gold.Chemscore.Fitness>
21.1803

> <Gold.Chemscore.DG>
-23.2233

> <Gold.Chemscore.ZeroCoef>
-5.4800

> <Gold.Chemscore.Hbond>
2.8134

> <Gold.Chemscore.Metal>
0.0000

> <Gold.Chemscore.Lipo>
124.3862

> <Gold.Chemscore.Internal_Hbond>
0.0000

> <Gold.Chemscore.DEClash>
0.1311

> <Gold.Chemscore.DEInternal>
1.9119

> <Gold.Chemscore.Rot>
2.4245

> <Gold.Chemscore.Internal.Correction>
   9.000000E+99

> <Gold.Chemscore.Hbonds>
donor molecule, donor type, donor heavy atom, donor atom, acceptor molecule, acceptor atom, score
      P1  H  6896  6908       L1    14  0.66
      P1  H  6931  6943       L1    16  0.40
      P1  H  7997  8008       L1     1  0.98

> <Gold.Chemscore.Hbond.Weighted>
-9.3967

> <Gold.Chemscore.Metal.Weighted>
-0.0000

> <Gold.Chemscore.Lipo.Weighted>
-14.5532

> <Gold.Chemscore.Internal_Hbond.Weighted>
0.0000

> <Gold.Chemscore.DEClash.Weighted>
0.1311

> <Gold.Chemscore.DEInternal.Weighted>
1.9119

> <Gold.Chemscore.Rot.Weighted>
6.2066

> <Gold.Chemscore.Internal.Correction.Weighted>
   9.000000E+99

> <Gold.Protein.RotatedTorsions>
[ 6907 6896 6895 6894 ] final -130.69 input  -60.11 | X-H torsion
[ 7974 7965 7964 7962 ] final  179.63 input  175.53 | X-H torsion
[ 8008 7997 7996 7995 ] final  -63.86 input   59.86 | X-H torsion
[ 10167 10162 10161 10158 ] final  163.79 input  -65.29 | X-H torsion
[ 10718 10713 10712 10709 ] final -173.85 input   66.30 | X-H torsion
[ 10763 10752 10751 10750 ] final -124.56 input  -60.55 | X-H torsion
[ 11005 11000 10999 10996 ] final  -69.18 input  -57.11 | X-H torsion

> <Gold.Protein.ActiveResidues>
 VAL166  LYS551  ARG553  GLY616  TRP617  ASP618  TYR619  PRO620  LYS621  CYS622 
 ASP623  PHE694  ASN695  SER759  ASP760  ASP761  ALA762  ILE779  LEU786  VAL792 
 PHE793  MET794  SER795  GLU796  ALA797  LYS798  CYS799  TRP800  GLU811  SER814 

> <Gold.Protein.RotatedAtoms>
  150.9426  133.6640  159.2787 H   0  0  0  0  0  0  0  0  0  0  0  0  # atno 6907 bound_to 6896
  151.4023  135.0972  159.9569 H   0  0  0  0  0  0  0  0  0  0  0  0  # atno 6908 bound_to 6896
  152.5076  133.8917  159.7452 H   0  0  0  0  0  0  0  0  0  0  0  0  # atno 6909 bound_to 6896
  144.7144  140.0578  143.6433 H   0  0  0  0  0  0  0  0  0  0  0  0  # atno 7974 bound_to 7965
  154.4578  140.0966  156.6808 H   0  0  0  0  0  0  0  0  0  0  0  0  # atno 8008 bound_to 7997
  155.5084  140.3475  155.4365 H   0  0  0  0  0  0  0  0  0  0  0  0  # atno 8009 bound_to 7997
  156.0812  140.1373  156.9698 H   0  0  0  0  0  0  0  0  0  0  0  0  # atno 8010 bound_to 7997
  139.4879  144.4301  151.9081 H   0  0  0  0  0  0  0  0  0  0  0  0  # atno 10167 bound_to 10162
  156.7764  130.9467  151.3120 H   0  0  0  0  0  0  0  0  0  0  0  0  # atno 10718 bound_to 10713
  154.8725  135.4059  154.3126 H   0  0  0  0  0  0  0  0  0  0  0  0  # atno 10763 bound_to 10752
  153.3967  135.7016  153.6461 H   0  0  0  0  0  0  0  0  0  0  0  0  # atno 10764 bound_to 10752
  153.5221  135.3685  155.2608 H   0  0  0  0  0  0  0  0  0  0  0  0  # atno 10765 bound_to 10752
  141.1548  133.6758  156.6560 H   0  0  0  0  0  0  0  0  0  0  0  0  # atno 11005 bound_to 11000
  145.9890  139.3000  143.0996 LP  0  0  0  0  0  0  0  0  0  0  0  0  # atno 17320 bound_to 7965
  145.8924  140.9295  143.0545 LP  0  0  0  0  0  0  0  0  0  0  0  0  # atno 17321 bound_to 7965
  140.3749  144.2809  150.5915 LP  0  0  0  0  0  0  0  0  0  0  0  0  # atno 17342 bound_to 10162
  140.5286  143.2248  151.8275 LP  0  0  0  0  0  0  0  0  0  0  0  0  # atno 17343 bound_to 10162
  157.6667  130.9014  149.9947 LP  0  0  0  0  0  0  0  0  0  0  0  0  # atno 17370 bound_to 10713
  156.1245  130.3645  149.9832 LP  0  0  0  0  0  0  0  0  0  0  0  0  # atno 17371 bound_to 10713
  140.3284  134.7950  157.4307 LP  0  0  0  0  0  0  0  0  0  0  0  0  # atno 17394 bound_to 11000
  140.1038  134.5437  155.8328 LP  0  0  0  0  0  0  0  0  0  0  0  0  # atno 17395 bound_to 11000

$$$$
