AV-unprocessed.smi:110|AV-procd|sdf|1078|dock7
  -GOLD-   2262018163D 1   1.00000     0.00000
 Structure written by MMmdl.
 46 50  0  0  0  0  0  0  0  0  1 V2000
  150.1355  134.7933  157.1254 O   0  0  0  0  0  0  0  0  0  0  0  0
  149.6470  136.0919  156.8660 C   0  0  0  0  0  0  0  0  0  0  0  0
  150.1484  136.5817  155.4986 C   0  0  2  0  0  0  0  0  0  0  0  0
  151.5312  136.9359  155.5738 O   0  0  0  0  0  0  0  0  0  0  0  0
  151.7933  138.1635  154.9560 C   0  0  2  0  0  0  0  0  0  0  0  0
  152.0658  139.2000  156.0162 N   0  0  0  0  0  0  0  0  0  0  0  0
  152.9798  139.1235  157.0459 C   0  0  0  0  0  0  0  0  0  0  0  0
  153.0037  140.1436  157.8574 N   0  0  0  0  0  0  0  0  0  0  0  0
  152.0000  140.9808  157.3881 C   0  0  0  0  0  0  0  0  0  0  0  0
  151.4765  142.2399  157.8092 C   0  0  0  0  0  0  0  0  0  0  0  0
  151.9661  142.9496  158.8610 N   0  0  0  0  0  0  0  0  0  0  0  0
  151.6410  144.3793  158.9860 C   0  0  0  0  0  0  0  0  0  0  0  0
  151.8672  144.7935  160.4498 C   0  0  0  0  0  0  0  0  0  0  0  0
  152.4476  143.5385  161.0110 C   0  0  0  0  0  0  0  0  0  0  0  0
  152.9291  143.3406  162.3166 C   0  0  0  0  0  0  0  0  0  0  0  0
  153.4544  142.0742  162.6473 C   0  0  0  0  0  0  0  0  0  0  0  0
  153.4956  141.0451  161.6792 C   0  0  0  0  0  0  0  0  0  0  0  0
  153.0080  141.2678  160.3722 C   0  0  0  0  0  0  0  0  0  0  0  0
  152.4676  142.5319  160.0486 C   0  0  0  0  0  0  0  0  0  0  0  0
  150.4458  142.7521  157.0892 N   0  0  0  0  0  0  0  0  0  0  0  0
  149.9487  142.0845  156.0464 C   0  0  0  0  0  0  0  0  0  0  0  0
  150.3372  140.9108  155.5494 N   0  0  0  0  0  0  0  0  0  0  0  0
  151.3855  140.3848  156.2474 C   0  0  0  0  0  0  0  0  0  0  0  0
  150.5244  138.5222  154.1705 C   0  0  1  0  0  0  0  0  0  0  0  0
  150.5910  138.0228  152.8476 O   0  0  0  0  0  0  0  0  0  0  0  0
  149.4534  137.8571  155.0198 C   0  0  1  0  0  0  0  0  0  0  0  0
  148.2593  137.6098  154.3024 O   0  0  0  0  0  0  0  0  0  0  0  0
  150.0361  135.8044  154.7403 H   0  0  0  0  0  0  0  0  0  0  0  0
  152.7084  138.1466  154.3629 H   0  0  0  0  0  0  0  0  0  0  0  0
  150.3726  139.5984  154.1027 H   0  0  0  0  0  0  0  0  0  0  0  0
  149.2288  138.4984  155.8739 H   0  0  0  0  0  0  0  0  0  0  0  0
  150.8792  134.6345  156.5644 H   0  0  0  0  0  0  0  0  0  0  0  0
  148.5578  136.0353  156.8650 H   0  0  0  0  0  0  0  0  0  0  0  0
  149.9325  136.7751  157.6657 H   0  0  0  0  0  0  0  0  0  0  0  0
  153.6402  138.2802  157.1853 H   0  0  0  0  0  0  0  0  0  0  0  0
  152.3024  144.9517  158.3348 H   0  0  0  0  0  0  0  0  0  0  0  0
  150.6132  144.5787  158.6796 H   0  0  0  0  0  0  0  0  0  0  0  0
  152.5605  145.6300  160.5425 H   0  0  0  0  0  0  0  0  0  0  0  0
  150.9320  145.0379  160.9544 H   0  0  0  0  0  0  0  0  0  0  0  0
  152.9010  144.1370  163.0457 H   0  0  0  0  0  0  0  0  0  0  0  0
  153.8324  141.8928  163.6428 H   0  0  0  0  0  0  0  0  0  0  0  0
  153.9079  140.0814  161.9391 H   0  0  0  0  0  0  0  0  0  0  0  0
  153.0646  140.4753  159.6415 H   0  0  0  0  0  0  0  0  0  0  0  0
  149.1237  142.5590  155.5361 H   0  0  0  0  0  0  0  0  0  0  0  0
  150.3190  138.7086  152.2565 H   0  0  0  0  0  0  0  0  0  0  0  0
  148.4742  137.1249  153.5203 H   0  0  0  0  0  0  0  0  0  0  0  0
  1  2  1  0  0  0  0
  1 32  1  0  0  0  0
  2  3  1  0  0  0  0
  2 33  1  0  0  0  0
  2 34  1  0  0  0  0
  3 28  1  0  0  0  0
  3 26  1  0  0  0  0
  3  4  1  0  0  0  0
  4  5  1  0  0  0  0
  5 29  1  0  0  0  0
  5  6  1  0  0  0  0
  5 24  1  0  0  0  0
  6 23  1  0  0  0  0
  6  7  1  0  0  0  0
  7  8  2  0  0  0  0
  7 35  1  0  0  0  0
  8  9  1  0  0  0  0
  9 23  2  0  0  0  0
  9 10  1  0  0  0  0
 10 11  1  0  0  0  0
 10 20  2  0  0  0  0
 11 19  1  0  0  0  0
 11 12  1  0  0  0  0
 12 13  1  0  0  0  0
 12 36  1  0  0  0  0
 12 37  1  0  0  0  0
 13 14  1  0  0  0  0
 13 38  1  0  0  0  0
 13 39  1  0  0  0  0
 14 19  2  0  0  0  0
 14 15  1  0  0  0  0
 15 16  2  0  0  0  0
 15 40  1  0  0  0  0
 16 17  1  0  0  0  0
 16 41  1  0  0  0  0
 17 18  2  0  0  0  0
 17 42  1  0  0  0  0
 18 19  1  0  0  0  0
 18 43  1  0  0  0  0
 20 21  1  0  0  0  0
 21 22  2  0  0  0  0
 21 44  1  0  0  0  0
 22 23  1  0  0  0  0
 24 30  1  0  0  0  0
 24 25  1  0  0  0  0
 24 26  1  0  0  0  0
 25 45  1  0  0  0  0
 26 31  1  0  0  0  0
 26 27  1  0  0  0  0
 27 46  1  0  0  0  0
M  END
> <s_m_source_file>
AV-unprocessed.smi

> <i_m_source_file_index>
110

> <i_lp_mmshare_version>
43012

> <i_f3d_flags>
0

> <s_epik_input>
W09IXVtDSDJdW0NASF0xT1tDQEhdKFtDQEhdKFtPSF0pW0NAQEhdMVtPSF0pbihbY0hdbjIpYyhjMjMpbltjSF1uYzNOKFtDSDJdW0NIMl00KWMoYzQ1KVtjSF1bY0hdW2NIXVtjSF01

> <s_epik_cmdline>
J2VwaWtfcHl0aG9uJywgJy1waCcsICc3LjAnLCAnLXRuJywgJzgnLCAnLW1hJywgJzIwMCcsICctbWV0YWxfYmluZGluZycsICctaW1hZScsICc8aW5maWxlLm1hZT4nLCAnLW9tYWUnLCAnPG91dGZpbGUubWFlPic=

> <r_lp_tautomer_probability>
1

> <r_epik_Ionization_Penalty>
0.00068475

> <r_epik_Ionization_Penalty_Charging>
0

> <r_epik_Ionization_Penalty_Neutral>
0.00068475

> <r_epik_State_Penalty>
0.000417442

> <r_epik_Charging_Adjusted_Penalty>
0.000417442

> <i_epik_Tot_Q>
0

> <i_epik_Tot_abs_Q>
0

> <r_epik_Metal_State_Penalty>
-0

> <b_epik_Metal_Only>
0

> <s_epik_Chemistry_Notes>
This compound contains an acetal/aminal-like group ( X-CH(R)-Y where X, Y are N, S, or O) that may be acid/base labile, releasing an aldehyde.

> <s_lp_Force_Field>
OPLS_2005

> <r_lp_Energy>
62.7544

> <b_lp_Chiralities_Consistent>
1

> <s_lp_Variant>
AV-unprocessed.smi:110-16

> <Gold.Version>
5.8.1

> <Gold.Id.Protein>
6NUR|6NUR_protein|mol2

> <Gold.PLP.Fitness>
57.7720

> <Gold.PLP.PLP>
-47.5098

> <Gold.PLP.part.hbond>
-6.3318

> <Gold.PLP.part.metal>
0.0000

> <Gold.PLP.part.buried>
4.0136

> <Gold.PLP.part.nonpolar>
-44.7215

> <Gold.PLP.part.repulsive>
1.0762

> <Gold.PLP.ligand.clash>
0.0000

> <Gold.PLP.ligand.torsion>
0.4890

> <Gold.PLP.Chemscore.Hbond>
3.0960

> <Gold.PLP.Chemscore.CHOScore>
0.6061

> <Gold.PLP.Chemscore.Metal>
0.0000

> <Gold.Chemscore.Hbonds>
donor molecule, donor type, donor heavy atom, donor atom, acceptor molecule, acceptor atom, score
      L1  H    25    45       P1  7957  0.55
      L1  H    27    46       P1  7948  1.00
      P1  H  6896  6909       L1     1  0.07
      P1  H  7989  7998       L1    22  0.01
      P1  H 10752 10763       L1     4  0.68
      L1  C    21    44       P1  8028  0.80

> <Gold.PLP.Chemscore.Internal.Correction>
0.1337

> <Gold.Rescore>
     Score         DG    S(hbond)    S(metal)    S(lipo)     H(rot)  DE(clash)    DE(int)     intcor
      9.60     -15.96       1.89        0.00     109.78       3.38       3.05       3.31       ----

> <Gold.Chemscore.Fitness>
9.6022

> <Gold.Chemscore.DG>
-15.9624

> <Gold.Chemscore.ZeroCoef>
-5.4800

> <Gold.Chemscore.Hbond>
1.8864

> <Gold.Chemscore.Metal>
0.0000

> <Gold.Chemscore.Lipo>
109.7763

> <Gold.Chemscore.Internal_Hbond>
0.0000

> <Gold.Chemscore.DEClash>
3.0487

> <Gold.Chemscore.DEInternal>
3.3115

> <Gold.Chemscore.Rot>
3.3837

> <Gold.Chemscore.Internal.Correction>
   9.000000E+99

> <Gold.Chemscore.Hbonds>
donor molecule, donor type, donor heavy atom, donor atom, acceptor molecule, acceptor atom, score
      L1  H    25    45       P1  7957  0.03
      L1  H    27    46       P1  7948  0.99
      P1  H  6896  6909       L1     1  0.05
      P1  H 10752 10763       L1     4  0.33

> <Gold.Chemscore.Hbond.Weighted>
-6.3007

> <Gold.Chemscore.Metal.Weighted>
-0.0000

> <Gold.Chemscore.Lipo.Weighted>
-12.8438

> <Gold.Chemscore.Internal_Hbond.Weighted>
0.0000

> <Gold.Chemscore.DEClash.Weighted>
3.0487

> <Gold.Chemscore.DEInternal.Weighted>
3.3115

> <Gold.Chemscore.Rot.Weighted>
8.6622

> <Gold.Chemscore.Internal.Correction.Weighted>
   9.000000E+99

> <Gold.Protein.RotatedTorsions>
[ 6907 6896 6895 6894 ] final   10.44 input  -60.11 | X-H torsion
[ 7974 7965 7964 7962 ] final  -89.91 input  175.53 | X-H torsion
[ 8008 7997 7996 7995 ] final  -27.48 input   59.86 | X-H torsion
[ 10167 10162 10161 10158 ] final   85.31 input  -65.29 | X-H torsion
[ 10718 10713 10712 10709 ] final  109.62 input   66.30 | X-H torsion
[ 10763 10752 10751 10750 ] final   69.78 input  -60.55 | X-H torsion
[ 11005 11000 10999 10996 ] final   89.01 input  -57.11 | X-H torsion

> <Gold.Protein.ActiveResidues>
 VAL166  LYS551  ARG553  GLY616  TRP617  ASP618  TYR619  PRO620  LYS621  CYS622 
 ASP623  PHE694  ASN695  SER759  ASP760  ASP761  ALA762  ILE779  LEU786  VAL792 
 PHE793  MET794  SER795  GLU796  ALA797  LYS798  CYS799  TRP800  GLU811  SER814 

> <Gold.Protein.RotatedAtoms>
  151.7383  135.0860  160.0311 H   0  0  0  0  0  0  0  0  0  0  0  0  # atno 6907 bound_to 6896
  152.3496  133.6159  159.5943 H   0  0  0  0  0  0  0  0  0  0  0  0  # atno 6908 bound_to 6896
  150.7531  133.9511  159.3527 H   0  0  0  0  0  0  0  0  0  0  0  0  # atno 6909 bound_to 6896
  145.4335  140.9556  143.2114 H   0  0  0  0  0  0  0  0  0  0  0  0  # atno 7974 bound_to 7965
  154.4375  140.1871  156.0938 H   0  0  0  0  0  0  0  0  0  0  0  0  # atno 8008 bound_to 7997
  156.0345  140.3327  155.7150 H   0  0  0  0  0  0  0  0  0  0  0  0  # atno 8009 bound_to 7997
  155.5791  140.0620  157.2778 H   0  0  0  0  0  0  0  0  0  0  0  0  # atno 8010 bound_to 7997
  139.8991  144.6340  150.8656 H   0  0  0  0  0  0  0  0  0  0  0  0  # atno 10167 bound_to 10162
  157.6533  131.0917  150.6480 H   0  0  0  0  0  0  0  0  0  0  0  0  # atno 10718 bound_to 10713
  153.0305  135.5198  154.7340 H   0  0  0  0  0  0  0  0  0  0  0  0  # atno 10763 bound_to 10752
  154.6359  135.2906  155.0163 H   0  0  0  0  0  0  0  0  0  0  0  0  # atno 10764 bound_to 10752
  154.1098  135.6624  153.4935 H   0  0  0  0  0  0  0  0  0  0  0  0  # atno 10765 bound_to 10752
  139.8884  134.8525  156.3082 H   0  0  0  0  0  0  0  0  0  0  0  0  # atno 11005 bound_to 11000
  144.8167  139.5864  143.7005 LP  0  0  0  0  0  0  0  0  0  0  0  0  # atno 17320 bound_to 7965
  146.2594  139.6376  142.9372 LP  0  0  0  0  0  0  0  0  0  0  0  0  # atno 17321 bound_to 7965
  140.7710  143.3450  151.2129 LP  0  0  0  0  0  0  0  0  0  0  0  0  # atno 17342 bound_to 10162
  139.7041  143.9484  152.2919 LP  0  0  0  0  0  0  0  0  0  0  0  0  # atno 17343 bound_to 10162
  156.6789  130.4561  149.5634 LP  0  0  0  0  0  0  0  0  0  0  0  0  # atno 17370 bound_to 10713
  156.1943  130.6580  151.1097 LP  0  0  0  0  0  0  0  0  0  0  0  0  # atno 17371 bound_to 10713
  140.9868  133.7233  156.0753 LP  0  0  0  0  0  0  0  0  0  0  0  0  # atno 17394 bound_to 11000
  140.7678  134.3867  157.5513 LP  0  0  0  0  0  0  0  0  0  0  0  0  # atno 17395 bound_to 11000

$$$$
