AV-unprocessed.smi:3244|AV-procd|sdf|12399|dock6
  -GOLD-   2272018273D 1   1.00000     0.00000
 Structure written by MMmdl.
 41 42  0  0  0  0  0  0  0  0  2 V2000
  146.9058  141.5762  153.8128 C   0  0  0  0  0  0  0  0  0  0  0  0
  148.2340  140.8583  153.5225 C   0  0  0  0  0  0  0  0  0  0  0  0
  148.2347  139.4726  154.0168 N   0  0  0  0  0  0  0  0  0  0  0  0
  147.3200  138.5434  153.6398 C   0  0  0  0  0  0  0  0  0  0  0  0
  147.1989  137.4654  154.2247 O   0  0  0  0  0  0  0  0  0  0  0  0
  146.4022  138.8334  152.4380 C   0  0  0  0  0  0  0  0  0  0  0  0
  146.3617  137.7253  151.4555 N   0  3  0  0  0  0  0  0  0  0  0  0
  145.5883  136.5234  151.8539 C   0  0  1  0  0  0  0  0  0  0  0  0
  144.3285  136.8963  152.6537 C   0  0  0  0  0  0  0  0  0  0  0  0
  145.2128  135.6988  150.6048 C   0  0  0  0  0  0  0  0  0  0  0  0
  145.2296  134.2629  150.8354 N   0  0  0  0  0  0  0  0  0  0  0  0
  144.1636  133.3873  150.8456 C   0  0  0  0  0  0  0  0  0  0  0  0
  144.6578  132.1469  151.1308 C   0  0  0  0  0  0  0  0  0  0  0  0
  146.0531  132.3681  151.2970 C   0  0  0  0  0  0  0  0  0  0  0  0
  146.3909  133.6360  151.1251 N   0  0  0  0  0  0  0  0  0  0  0  0
  149.1557  139.2641  155.1035 C   0  0  0  0  0  0  0  0  0  0  0  0
  150.6153  139.6160  154.9072 C   0  0  0  0  0  0  0  0  0  0  0  0
  150.2088  138.1710  155.0390 C   0  0  0  0  0  0  0  0  0  0  0  0
  146.9388  142.6046  153.4525 H   0  0  0  0  0  0  0  0  0  0  0  0
  146.7046  141.6106  154.8838 H   0  0  0  0  0  0  0  0  0  0  0  0
  146.0583  141.0889  153.3331 H   0  0  0  0  0  0  0  0  0  0  0  0
  148.4597  140.9008  152.4578 H   0  0  0  0  0  0  0  0  0  0  0  0
  149.0405  141.4209  153.9951 H   0  0  0  0  0  0  0  0  0  0  0  0
  145.3854  138.9686  152.8030 H   0  0  0  0  0  0  0  0  0  0  0  0
  146.6917  139.7600  151.9419 H   0  0  0  0  0  0  0  0  0  0  0  0
  146.0158  138.0783  150.5743 H   0  0  0  0  0  0  0  0  0  0  0  0
  146.2211  135.9043  152.4913 H   0  0  0  0  0  0  0  0  0  0  0  0
  143.7513  136.0072  152.9092 H   0  0  0  0  0  0  0  0  0  0  0  0
  143.6776  137.5611  152.0846 H   0  0  0  0  0  0  0  0  0  0  0  0
  144.5789  137.3931  153.5910 H   0  0  0  0  0  0  0  0  0  0  0  0
  144.2131  135.9690  150.2617 H   0  0  0  0  0  0  0  0  0  0  0  0
  145.8953  135.9255  149.7842 H   0  0  0  0  0  0  0  0  0  0  0  0
  143.1529  133.7141  150.6501 H   0  0  0  0  0  0  0  0  0  0  0  0
  144.1053  131.2228  151.2157 H   0  0  0  0  0  0  0  0  0  0  0  0
  146.8240  131.6512  151.5380 H   0  0  0  0  0  0  0  0  0  0  0  0
  148.7503  139.4606  156.0945 H   0  0  0  0  0  0  0  0  0  0  0  0
  150.9301  139.9577  153.9228 H   0  0  0  0  0  0  0  0  0  0  0  0
  151.1382  140.0703  155.7463 H   0  0  0  0  0  0  0  0  0  0  0  0
  150.4592  137.6621  155.9674 H   0  0  0  0  0  0  0  0  0  0  0  0
  150.2827  137.5605  154.1411 H   0  0  0  0  0  0  0  0  0  0  0  0
  147.3152  137.4195  151.3237 H   0  0  0  0  0  0  0  0  0  0  0  0
  1  2  1  0  0  0  0
  1 19  1  0  0  0  0
  1 20  1  0  0  0  0
  1 21  1  0  0  0  0
  2  3  1  0  0  0  0
  2 22  1  0  0  0  0
  2 23  1  0  0  0  0
  3  4  1  0  0  0  0
  3 16  1  0  0  0  0
  4  5  2  0  0  0  0
  4  6  1  0  0  0  0
  6  7  1  0  0  0  0
  6 24  1  0  0  0  0
  6 25  1  0  0  0  0
  7  8  1  0  0  0  0
  7 26  1  0  0  0  0
  7 41  1  0  0  0  0
  8  9  1  0  0  0  0
  8 10  1  0  0  0  0
  8 27  1  0  0  0  0
  9 28  1  0  0  0  0
  9 29  1  0  0  0  0
  9 30  1  0  0  0  0
 10 11  1  0  0  0  0
 10 31  1  0  0  0  0
 10 32  1  0  0  0  0
 11 15  1  0  0  0  0
 11 12  1  0  0  0  0
 12 13  2  0  0  0  0
 12 33  1  0  0  0  0
 13 14  1  0  0  0  0
 13 34  1  0  0  0  0
 14 15  2  0  0  0  0
 14 35  1  0  0  0  0
 16 18  1  0  0  0  0
 16 17  1  0  0  0  0
 16 36  1  0  0  0  0
 17 18  1  0  0  0  0
 17 37  1  0  0  0  0
 17 38  1  0  0  0  0
 18 39  1  0  0  0  0
 18 40  1  0  0  0  0
M  CHG  1   7   1
M  END
> <s_m_source_file>
AV-unprocessed.smi

> <i_m_source_file_index>
3244

> <i_lp_mmshare_version>
43012

> <i_f3d_flags>
0

> <s_epik_input>
W0NIMl0xW0NIMl1bQ0hdMU4oW0NIMl1bQ0gzXSlDKD1PKVtDSDJdW05IXVtDQEhdKFtDSDNdKVtDSDJdbjJbY0hdW2NIXVtjSF1uMg==

> <s_epik_cmdline>
J2VwaWtfcHl0aG9uJywgJy1waCcsICc3LjAnLCAnLXRuJywgJzgnLCAnLW1hJywgJzIwMCcsICctbWV0YWxfYmluZGluZycsICctaW1hZScsICc8aW5maWxlLm1hZT4nLCAnLW9tYWUnLCAnPG91dGZpbGUubWFlPic=

> <r_lp_tautomer_probability>
1

> <r_epik_Ionization_Penalty>
0.115625

> <r_epik_Ionization_Penalty_Charging>
0.115622

> <r_epik_Ionization_Penalty_Neutral>
3.43793e-06

> <r_epik_State_Penalty>
0.105255

> <r_epik_Charging_Adjusted_Penalty>
0.220877

> <i_epik_Tot_Q>
1

> <i_epik_Tot_abs_Q>
1

> <r_epik_Metal_State_Penalty>
0.105264

> <b_epik_Metal_Only>
0

> <s_lp_Force_Field>
OPLS_2005

> <r_lp_Energy>
36.1392

> <b_lp_Chiralities_Consistent>
1

> <s_lp_Variant>
AV-unprocessed.smi:3244-2

> <Gold.Version>
5.8.1

> <Gold.Id.Protein>
6NUR|6NUR_protein|mol2

> <Gold.PLP.Fitness>
44.4401

> <Gold.PLP.PLP>
-33.7087

> <Gold.PLP.part.hbond>
-1.7147

> <Gold.PLP.part.metal>
0.0000

> <Gold.PLP.part.buried>
-0.4863

> <Gold.PLP.part.nonpolar>
-32.3935

> <Gold.PLP.part.repulsive>
0.4119

> <Gold.PLP.ligand.clash>
0.0000

> <Gold.PLP.ligand.torsion>
1.0463

> <Gold.PLP.Chemscore.Hbond>
2.1352

> <Gold.PLP.Chemscore.CHOScore>
2.0000

> <Gold.PLP.Chemscore.Metal>
0.0000

> <Gold.Chemscore.Hbonds>
donor molecule, donor type, donor heavy atom, donor atom, acceptor molecule, acceptor atom, score
      L1  H     7    26       P1 10171  0.19
      L1  H     7    41       P1  7948  1.89
      L1  C    12    33       P1 10186  1.00
      L1  C    14    35       P1 10747  0.78

> <Gold.PLP.Chemscore.Internal.Correction>
0.4184

> <Gold.Rescore>
     Score         DG    S(hbond)    S(metal)    S(lipo)     H(rot)  DE(clash)    DE(int)     intcor
     11.17     -12.64       1.04        0.00      76.18       2.04       0.06       1.41       ----

> <Gold.Chemscore.Fitness>
11.1679

> <Gold.Chemscore.DG>
-12.6360

> <Gold.Chemscore.ZeroCoef>
-5.4800

> <Gold.Chemscore.Hbond>
1.0407

> <Gold.Chemscore.Metal>
0.0000

> <Gold.Chemscore.Lipo>
76.1762

> <Gold.Chemscore.Internal_Hbond>
0.0000

> <Gold.Chemscore.DEClash>
0.0607

> <Gold.Chemscore.DEInternal>
1.4074

> <Gold.Chemscore.Rot>
2.0440

> <Gold.Chemscore.Internal.Correction>
   9.000000E+99

> <Gold.Chemscore.Hbonds>
donor molecule, donor type, donor heavy atom, donor atom, acceptor molecule, acceptor atom, score
      L1  H     7    26       P1 10171  0.20
      L1  H     7    41       P1  7948  0.87

> <Gold.Chemscore.Hbond.Weighted>
-3.4760

> <Gold.Chemscore.Metal.Weighted>
-0.0000

> <Gold.Chemscore.Lipo.Weighted>
-8.9126

> <Gold.Chemscore.Internal_Hbond.Weighted>
0.0000

> <Gold.Chemscore.DEClash.Weighted>
0.0607

> <Gold.Chemscore.DEInternal.Weighted>
1.4074

> <Gold.Chemscore.Rot.Weighted>
5.2325

> <Gold.Chemscore.Internal.Correction.Weighted>
   9.000000E+99

> <Gold.Protein.RotatedTorsions>
[ 6907 6896 6895 6894 ] final   45.17 input  -60.11 | X-H torsion
[ 7974 7965 7964 7962 ] final  157.66 input  175.53 | X-H torsion
[ 8008 7997 7996 7995 ] final   99.18 input   59.86 | X-H torsion
[ 10167 10162 10161 10158 ] final  144.85 input  -65.29 | X-H torsion
[ 10718 10713 10712 10709 ] final -156.17 input   66.30 | X-H torsion
[ 10763 10752 10751 10750 ] final -114.59 input  -60.55 | X-H torsion
[ 11005 11000 10999 10996 ] final   34.99 input  -57.11 | X-H torsion

> <Gold.Protein.ActiveResidues>
 VAL166  LYS551  ARG553  GLY616  TRP617  ASP618  TYR619  PRO620  LYS621  CYS622 
 ASP623  PHE694  ASN695  SER759  ASP760  ASP761  ALA762  ILE779  LEU786  VAL792 
 PHE793  MET794  SER795  GLU796  ALA797  LYS798  CYS799  TRP800  GLU811  SER814 

> <Gold.Protein.RotatedAtoms>
  152.2414  134.8225  160.0459 H   0  0  0  0  0  0  0  0  0  0  0  0  # atno 6907 bound_to 6896
  151.8938  133.3517  159.3815 H   0  0  0  0  0  0  0  0  0  0  0  0  # atno 6908 bound_to 6896
  150.7055  134.4823  159.5520 H   0  0  0  0  0  0  0  0  0  0  0  0  # atno 6909 bound_to 6896
  144.7890  139.7372  143.6229 H   0  0  0  0  0  0  0  0  0  0  0  0  # atno 7974 bound_to 7965
  156.1079  140.3232  155.8032 H   0  0  0  0  0  0  0  0  0  0  0  0  # atno 8008 bound_to 7997
  155.4723  140.0547  157.2995 H   0  0  0  0  0  0  0  0  0  0  0  0  # atno 8009 bound_to 7997
  154.4740  140.2024  155.9938 H   0  0  0  0  0  0  0  0  0  0  0  0  # atno 8010 bound_to 7997
  139.4938  144.5943  151.6616 H   0  0  0  0  0  0  0  0  0  0  0  0  # atno 10167 bound_to 10162
  156.5229  130.8486  151.2688 H   0  0  0  0  0  0  0  0  0  0  0  0  # atno 10718 bound_to 10713
  154.8446  135.4412  154.1529 H   0  0  0  0  0  0  0  0  0  0  0  0  # atno 10763 bound_to 10752
  153.2685  135.6943  153.7510 H   0  0  0  0  0  0  0  0  0  0  0  0  # atno 10764 bound_to 10752
  153.6760  135.3411  155.3141 H   0  0  0  0  0  0  0  0  0  0  0  0  # atno 10765 bound_to 10752
  140.2473  134.3345  155.7903 H   0  0  0  0  0  0  0  0  0  0  0  0  # atno 11005 bound_to 11000
  146.2134  139.5507  142.9666 LP  0  0  0  0  0  0  0  0  0  0  0  0  # atno 17320 bound_to 7965
  145.5844  141.0378  143.2104 LP  0  0  0  0  0  0  0  0  0  0  0  0  # atno 17321 bound_to 7965
  140.5577  144.0320  150.6155 LP  0  0  0  0  0  0  0  0  0  0  0  0  # atno 17342 bound_to 10162
  140.3396  143.3028  152.0602 LP  0  0  0  0  0  0  0  0  0  0  0  0  # atno 17343 bound_to 10162
  157.7434  130.9911  150.2590 LP  0  0  0  0  0  0  0  0  0  0  0  0  # atno 17370 bound_to 10713
  156.3133  130.3775  149.7642 LP  0  0  0  0  0  0  0  0  0  0  0  0  # atno 17371 bound_to 10713
  141.2205  133.7333  156.8980 LP  0  0  0  0  0  0  0  0  0  0  0  0  # atno 17394 bound_to 11000
  140.1593  134.9176  157.2695 LP  0  0  0  0  0  0  0  0  0  0  0  0  # atno 17395 bound_to 11000

$$$$
