AV-unprocessed.smi:2393|AV-procd|sdf|9488|dock5
  -GOLD-   2272013113D 1   1.00000     0.00000
 Structure written by MMmdl.
 43 44  0  0  0  0  0  0  0  0  1 V2000
  144.1154  132.6393  150.5620 C   0  0  0  0  0  0  0  0  0  0  0  0
  144.0751  133.7964  151.5380 C   0  0  0  0  0  0  0  0  0  0  0  0
  142.8775  134.1545  152.1864 C   0  0  0  0  0  0  0  0  0  0  0  0
  142.9070  135.2386  153.0856 C   0  0  0  0  0  0  0  0  0  0  0  0
  141.6561  135.6789  153.8168 C   0  0  0  0  0  0  0  0  0  0  0  0
  144.0275  135.9426  153.3537 N   0  0  0  0  0  0  0  0  0  0  0  0
  145.1868  135.6063  152.7356 C   0  0  0  0  0  0  0  0  0  0  0  0
  146.4153  136.2885  152.9413 N   0  0  0  0  0  0  0  0  0  0  0  0
  146.7012  137.2212  153.8669 C   0  0  0  0  0  0  0  0  0  0  0  0
  145.9368  137.6012  154.7544 O   0  0  0  0  0  0  0  0  0  0  0  0
  147.9480  137.6916  153.7141 N   0  0  0  0  0  0  0  0  0  0  0  0
  148.5694  138.7087  154.5578 C   0  0  2  0  0  0  0  0  0  0  0  0
  148.4144  140.0910  153.9135 C   0  0  0  0  0  0  0  0  0  0  0  0
  149.1567  141.1525  154.7371 C   0  0  0  0  0  0  0  0  0  0  0  0
  150.5310  140.7994  154.8831 O   0  0  0  0  0  0  0  0  0  0  0  0
  150.7998  139.5438  155.5167 C   0  0  0  0  0  0  0  0  0  0  0  0
  152.3204  139.3518  155.3946 C   0  0  0  0  0  0  0  0  0  0  0  0
  150.4190  139.5903  157.0125 C   0  0  0  0  0  0  0  0  0  0  0  0
  150.0662  138.4112  154.7581 C   0  0  0  0  0  0  0  0  0  0  0  0
  145.2428  134.5351  151.8159 C   0  0  0  0  0  0  0  0  0  0  0  0
  143.1168  132.2428  150.3753 H   0  0  0  0  0  0  0  0  0  0  0  0
  144.7345  131.8344  150.9587 H   0  0  0  0  0  0  0  0  0  0  0  0
  144.5375  132.9605  149.6095 H   0  0  0  0  0  0  0  0  0  0  0  0
  141.9612  133.6134  151.9999 H   0  0  0  0  0  0  0  0  0  0  0  0
  140.7736  135.1647  153.4350 H   0  0  0  0  0  0  0  0  0  0  0  0
  141.5010  136.7516  153.6976 H   0  0  0  0  0  0  0  0  0  0  0  0
  141.7450  135.4606  154.8813 H   0  0  0  0  0  0  0  0  0  0  0  0
  147.1574  136.0482  152.3012 H   0  0  0  0  0  0  0  0  0  0  0  0
  148.5079  137.3227  152.9595 H   0  0  0  0  0  0  0  0  0  0  0  0
  148.0655  138.7236  155.5254 H   0  0  0  0  0  0  0  0  0  0  0  0
  148.8158  140.0777  152.8990 H   0  0  0  0  0  0  0  0  0  0  0  0
  147.3596  140.3550  153.8298 H   0  0  0  0  0  0  0  0  0  0  0  0
  149.1023  142.1164  154.2311 H   0  0  0  0  0  0  0  0  0  0  0  0
  148.6859  141.2912  155.7103 H   0  0  0  0  0  0  0  0  0  0  0  0
  152.6378  138.4059  155.8348 H   0  0  0  0  0  0  0  0  0  0  0  0
  152.8614  140.1514  155.9020 H   0  0  0  0  0  0  0  0  0  0  0  0
  152.6383  139.3544  154.3515 H   0  0  0  0  0  0  0  0  0  0  0  0
  150.7138  138.6700  157.5179 H   0  0  0  0  0  0  0  0  0  0  0  0
  149.3487  139.7103  157.1732 H   0  0  0  0  0  0  0  0  0  0  0  0
  150.9190  140.4170  157.5183 H   0  0  0  0  0  0  0  0  0  0  0  0
  150.1977  137.4632  155.2816 H   0  0  0  0  0  0  0  0  0  0  0  0
  150.5283  138.2812  153.7780 H   0  0  0  0  0  0  0  0  0  0  0  0
  146.1726  134.2780  151.3290 H   0  0  0  0  0  0  0  0  0  0  0  0
  1  2  1  0  0  0  0
  1 21  1  0  0  0  0
  1 22  1  0  0  0  0
  1 23  1  0  0  0  0
  2 20  1  0  0  0  0
  2  3  2  0  0  0  0
  3  4  1  0  0  0  0
  3 24  1  0  0  0  0
  4  5  1  0  0  0  0
  4  6  2  0  0  0  0
  5 25  1  0  0  0  0
  5 26  1  0  0  0  0
  5 27  1  0  0  0  0
  6  7  1  0  0  0  0
  7  8  1  0  0  0  0
  7 20  2  0  0  0  0
  8  9  1  0  0  0  0
  8 28  1  0  0  0  0
  9 10  2  0  0  0  0
  9 11  1  0  0  0  0
 11 12  1  0  0  0  0
 11 29  1  0  0  0  0
 12 19  1  0  0  0  0
 12 13  1  0  0  0  0
 12 30  1  0  0  0  0
 13 14  1  0  0  0  0
 13 31  1  0  0  0  0
 13 32  1  0  0  0  0
 14 15  1  0  0  0  0
 14 33  1  0  0  0  0
 14 34  1  0  0  0  0
 15 16  1  0  0  0  0
 16 17  1  0  0  0  0
 16 18  1  0  0  0  0
 16 19  1  0  0  0  0
 17 35  1  0  0  0  0
 17 36  1  0  0  0  0
 17 37  1  0  0  0  0
 18 38  1  0  0  0  0
 18 39  1  0  0  0  0
 18 40  1  0  0  0  0
 19 41  1  0  0  0  0
 19 42  1  0  0  0  0
 20 43  1  0  0  0  0
M  END
> <s_m_source_file>
AV-unprocessed.smi

> <i_m_source_file_index>
2393

> <i_lp_mmshare_version>
43012

> <i_f3d_flags>
0

> <s_epik_input>
W0NIM11jMVtjSF1jKFtDSDNdKW5jKFtjSF0xKVtOSF1DKD1PKVtOSF1bQ0BASF0oW0NIMl0yKVtDSDJdW0NIMl1PQzIoW0NIM10pW0NIM10=

> <s_epik_cmdline>
J2VwaWtfcHl0aG9uJywgJy1waCcsICc3LjAnLCAnLXRuJywgJzgnLCAnLW1hJywgJzIwMCcsICctbWV0YWxfYmluZGluZycsICctaW1hZScsICc8aW5maWxlLm1hZT4nLCAnLW9tYWUnLCAnPG91dGZpbGUubWFlPic=

> <r_lp_tautomer_probability>
1

> <r_epik_Ionization_Penalty>
0.000261351

> <r_epik_Ionization_Penalty_Charging>
0

> <r_epik_Ionization_Penalty_Neutral>
0.000261351

> <r_epik_State_Penalty>
-0

> <r_epik_Charging_Adjusted_Penalty>
0

> <i_epik_Tot_Q>
0

> <i_epik_Tot_abs_Q>
0

> <r_epik_Metal_State_Penalty>
-0

> <b_epik_Metal_Only>
0

> <s_lp_Force_Field>
OPLS_2005

> <r_lp_Energy>
12.7135

> <b_lp_Chiralities_Consistent>
1

> <s_lp_Variant>
AV-unprocessed.smi:2393-1

> <Gold.Version>
5.8.1

> <Gold.Id.Protein>
6NUR|6NUR_protein|mol2

> <Gold.PLP.Fitness>
38.6304

> <Gold.PLP.PLP>
-30.9269

> <Gold.PLP.part.hbond>
-3.0000

> <Gold.PLP.part.metal>
0.0000

> <Gold.PLP.part.buried>
-2.0310

> <Gold.PLP.part.nonpolar>
-26.1728

> <Gold.PLP.part.repulsive>
0.2464

> <Gold.PLP.ligand.clash>
0.0000

> <Gold.PLP.ligand.torsion>
0.3605

> <Gold.PLP.Chemscore.Hbond>
2.8080

> <Gold.PLP.Chemscore.CHOScore>
0.0000

> <Gold.PLP.Chemscore.Metal>
0.0000

> <Gold.Chemscore.Hbonds>
donor molecule, donor type, donor heavy atom, donor atom, acceptor molecule, acceptor atom, score
      L1  H     8    28       P1  7948  0.96
      L1  H    11    29       P1  7948  1.00
      P1  H  7989  7998       L1    15  0.83

> <Gold.PLP.Chemscore.Internal.Correction>
0.0004

> <Gold.Rescore>
     Score         DG    S(hbond)    S(metal)    S(lipo)     H(rot)  DE(clash)    DE(int)     intcor
     16.78     -18.52       2.09        0.00      73.66       1.00       0.16       1.58       ----

> <Gold.Chemscore.Fitness>
16.7834

> <Gold.Chemscore.DG>
-18.5221

> <Gold.Chemscore.ZeroCoef>
-5.4800

> <Gold.Chemscore.Hbond>
2.0911

> <Gold.Chemscore.Metal>
0.0000

> <Gold.Chemscore.Lipo>
73.6562

> <Gold.Chemscore.Internal_Hbond>
0.0000

> <Gold.Chemscore.DEClash>
0.1610

> <Gold.Chemscore.DEInternal>
1.5777

> <Gold.Chemscore.Rot>
1.0000

> <Gold.Chemscore.Internal.Correction>
   9.000000E+99

> <Gold.Chemscore.Hbonds>
donor molecule, donor type, donor heavy atom, donor atom, acceptor molecule, acceptor atom, score
      L1  H     8    28       P1  7948  0.92
      L1  H    11    29       P1  7948  0.98
      P1  H  7989  7998       L1    15  0.45

> <Gold.Chemscore.Hbond.Weighted>
-6.9843

> <Gold.Chemscore.Metal.Weighted>
-0.0000

> <Gold.Chemscore.Lipo.Weighted>
-8.6178

> <Gold.Chemscore.Internal_Hbond.Weighted>
0.0000

> <Gold.Chemscore.DEClash.Weighted>
0.1610

> <Gold.Chemscore.DEInternal.Weighted>
1.5777

> <Gold.Chemscore.Rot.Weighted>
2.5600

> <Gold.Chemscore.Internal.Correction.Weighted>
   9.000000E+99

> <Gold.Protein.RotatedTorsions>
[ 6907 6896 6895 6894 ] final  -87.70 input  -60.11 | X-H torsion
[ 7974 7965 7964 7962 ] final   19.57 input  175.53 | X-H torsion
[ 8008 7997 7996 7995 ] final -135.02 input   59.86 | X-H torsion
[ 10167 10162 10161 10158 ] final -106.14 input  -65.29 | X-H torsion
[ 10718 10713 10712 10709 ] final  -11.22 input   66.30 | X-H torsion
[ 10763 10752 10751 10750 ] final -108.76 input  -60.55 | X-H torsion
[ 11005 11000 10999 10996 ] final  -86.52 input  -57.11 | X-H torsion

> <Gold.Protein.ActiveResidues>
 VAL166  LYS551  ARG553  GLY616  TRP617  ASP618  TYR619  PRO620  LYS621  CYS622 
 ASP623  PHE694  ASN695  SER759  ASP760  ASP761  ALA762  ILE779  LEU786  VAL792 
 PHE793  MET794  SER795  GLU796  ALA797  LYS798  CYS799  TRP800  GLU811  SER814 

> <Gold.Protein.RotatedAtoms>
  150.6867  134.2856  159.4644 H   0  0  0  0  0  0  0  0  0  0  0  0  # atno 6907 bound_to 6896
  152.0766  134.9496  160.0583 H   0  0  0  0  0  0  0  0  0  0  0  0  # atno 6908 bound_to 6896
  152.0866  133.4144  159.4562 H   0  0  0  0  0  0  0  0  0  0  0  0  # atno 6909 bound_to 6896
  146.2144  139.8294  142.8663 H   0  0  0  0  0  0  0  0  0  0  0  0  # atno 7974 bound_to 7965
  155.3718  140.0489  157.3045 H   0  0  0  0  0  0  0  0  0  0  0  0  # atno 8008 bound_to 7997
  154.5126  140.2197  155.9090 H   0  0  0  0  0  0  0  0  0  0  0  0  # atno 8009 bound_to 7997
  156.1600  140.3118  155.8796 H   0  0  0  0  0  0  0  0  0  0  0  0  # atno 8010 bound_to 7997
  140.1910  143.3892  152.1206 H   0  0  0  0  0  0  0  0  0  0  0  0  # atno 10167 bound_to 10162
  156.6622  130.4985  149.6027 H   0  0  0  0  0  0  0  0  0  0  0  0  # atno 10718 bound_to 10713
  154.8154  135.4626  154.0629 H   0  0  0  0  0  0  0  0  0  0  0  0  # atno 10763 bound_to 10752
  153.2026  135.6871  153.8219 H   0  0  0  0  0  0  0  0  0  0  0  0  # atno 10764 bound_to 10752
  153.7698  135.3272  155.3327 H   0  0  0  0  0  0  0  0  0  0  0  0  # atno 10765 bound_to 10752
  141.1629  133.7459  156.9174 H   0  0  0  0  0  0  0  0  0  0  0  0  # atno 11005 bound_to 11000
  145.3013  141.0195  143.3607 LP  0  0  0  0  0  0  0  0  0  0  0  0  # atno 17320 bound_to 7965
  144.9004  139.4657  143.6635 LP  0  0  0  0  0  0  0  0  0  0  0  0  # atno 17321 bound_to 7965
  139.5256  144.7098  151.5243 LP  0  0  0  0  0  0  0  0  0  0  0  0  # atno 17342 bound_to 10162
  140.6456  143.8802  150.6734 LP  0  0  0  0  0  0  0  0  0  0  0  0  # atno 17343 bound_to 10162
  156.2002  130.6615  151.1159 LP  0  0  0  0  0  0  0  0  0  0  0  0  # atno 17370 bound_to 10713
  157.7106  131.0736  150.6514 LP  0  0  0  0  0  0  0  0  0  0  0  0  # atno 17371 bound_to 10713
  140.1475  134.9252  157.2549 LP  0  0  0  0  0  0  0  0  0  0  0  0  # atno 17394 bound_to 11000
  140.2762  134.3402  155.7357 LP  0  0  0  0  0  0  0  0  0  0  0  0  # atno 17395 bound_to 11000

$$$$
