AV-unprocessed.smi:2442|AV-procd|sdf|9629|dock5
  -GOLD-   2272013263D 1   1.00000     0.00000
 Structure written by MMmdl.
 47 48  0  0  0  0  0  0  0  0  2 V2000
  149.2115  137.7782  157.5466 C   0  0  0  0  0  0  0  0  0  0  0  0
  148.9175  138.3527  156.2826 O   0  0  0  0  0  0  0  0  0  0  0  0
  150.0637  138.7066  155.5125 C   0  0  2  0  0  0  0  0  0  0  0  0
  150.9934  139.6508  156.3058 C   0  0  0  0  0  0  0  0  0  0  0  0
  150.3249  141.0065  156.5886 C   0  0  0  0  0  0  0  0  0  0  0  0
  149.8477  141.6740  155.2897 C   0  0  0  0  0  0  0  0  0  0  0  0
  148.9153  140.7460  154.4954 C   0  0  0  0  0  0  0  0  0  0  0  0
  149.5900  139.3874  154.2099 C   0  0  2  0  0  0  0  0  0  0  0  0
  148.6949  138.4966  153.4759 N   0  0  0  0  0  0  0  0  0  0  0  0
  147.3723  138.4004  153.6678 C   0  0  0  0  0  0  0  0  0  0  0  0
  146.7461  139.0515  154.5042 O   0  0  0  0  0  0  0  0  0  0  0  0
  146.8110  137.5102  152.8392 N   0  0  0  0  0  0  0  0  0  0  0  0
  145.3892  137.1938  152.8166 C   0  0  0  0  0  0  0  0  0  0  0  0
  145.1326  135.7936  153.3901 C   0  0  0  0  0  0  0  0  0  0  0  0
  145.8522  134.7118  152.5985 C   0  0  0  0  0  0  0  0  0  0  0  0
  146.8068  133.9029  153.2556 C   0  0  0  0  0  0  0  0  0  0  0  0
  147.4865  132.9024  152.5331 C   0  0  0  0  0  0  0  0  0  0  0  0
  147.2207  132.7250  151.2219 N   0  3  0  0  0  0  0  0  0  0  0  0
  146.3187  133.4734  150.5513 C   0  0  0  0  0  0  0  0  0  0  0  0
  145.6049  134.4942  151.2173 C   0  0  0  0  0  0  0  0  0  0  0  0
  144.5993  135.3258  150.4410 C   0  0  0  0  0  0  0  0  0  0  0  0
  148.2814  137.5069  158.0456 H   0  0  0  0  0  0  0  0  0  0  0  0
  149.7430  138.4722  158.1968 H   0  0  0  0  0  0  0  0  0  0  0  0
  149.8078  136.8714  157.4395 H   0  0  0  0  0  0  0  0  0  0  0  0
  150.6121  137.8016  155.2442 H   0  0  0  0  0  0  0  0  0  0  0  0
  151.3154  139.1915  157.2396 H   0  0  0  0  0  0  0  0  0  0  0  0
  151.9044  139.8184  155.7299 H   0  0  0  0  0  0  0  0  0  0  0  0
  149.4776  140.8651  157.2607 H   0  0  0  0  0  0  0  0  0  0  0  0
  151.0234  141.6635  157.1073 H   0  0  0  0  0  0  0  0  0  0  0  0
  149.3359  142.6095  155.5178 H   0  0  0  0  0  0  0  0  0  0  0  0
  150.7105  141.9358  154.6758 H   0  0  0  0  0  0  0  0  0  0  0  0
  147.9908  140.5932  155.0540 H   0  0  0  0  0  0  0  0  0  0  0  0
  148.6328  141.2318  153.5608 H   0  0  0  0  0  0  0  0  0  0  0  0
  150.4738  139.5681  153.5944 H   0  0  0  0  0  0  0  0  0  0  0  0
  149.1200  137.9148  152.7687 H   0  0  0  0  0  0  0  0  0  0  0  0
  147.4054  137.0192  152.1874 H   0  0  0  0  0  0  0  0  0  0  0  0
  144.8514  137.9469  153.3939 H   0  0  0  0  0  0  0  0  0  0  0  0
  145.0132  137.2446  151.7930 H   0  0  0  0  0  0  0  0  0  0  0  0
  145.4767  135.7537  154.4247 H   0  0  0  0  0  0  0  0  0  0  0  0
  144.0628  135.5885  153.4277 H   0  0  0  0  0  0  0  0  0  0  0  0
  147.0203  134.0494  154.3047 H   0  0  0  0  0  0  0  0  0  0  0  0
  148.2295  132.2450  152.9610 H   0  0  0  0  0  0  0  0  0  0  0  0
  146.1979  133.2332  149.5048 H   0  0  0  0  0  0  0  0  0  0  0  0
  144.6426  135.1022  149.3745 H   0  0  0  0  0  0  0  0  0  0  0  0
  144.7975  136.3904  150.5661 H   0  0  0  0  0  0  0  0  0  0  0  0
  143.5862  135.1177  150.7861 H   0  0  0  0  0  0  0  0  0  0  0  0
  147.7231  131.9954  150.7154 H   0  0  0  0  0  0  0  0  0  0  0  0
  1  2  1  0  0  0  0
  1 22  1  0  0  0  0
  1 23  1  0  0  0  0
  1 24  1  0  0  0  0
  2  3  1  0  0  0  0
  3  8  1  0  0  0  0
  3  4  1  0  0  0  0
  3 25  1  0  0  0  0
  4  5  1  0  0  0  0
  4 26  1  0  0  0  0
  4 27  1  0  0  0  0
  5  6  1  0  0  0  0
  5 28  1  0  0  0  0
  5 29  1  0  0  0  0
  6  7  1  0  0  0  0
  6 30  1  0  0  0  0
  6 31  1  0  0  0  0
  7  8  1  0  0  0  0
  7 32  1  0  0  0  0
  7 33  1  0  0  0  0
  8  9  1  0  0  0  0
  8 34  1  0  0  0  0
  9 10  1  0  0  0  0
  9 35  1  0  0  0  0
 10 11  2  0  0  0  0
 10 12  1  0  0  0  0
 12 13  1  0  0  0  0
 12 36  1  0  0  0  0
 13 14  1  0  0  0  0
 13 37  1  0  0  0  0
 13 38  1  0  0  0  0
 14 15  1  0  0  0  0
 14 39  1  0  0  0  0
 14 40  1  0  0  0  0
 15 20  1  0  0  0  0
 15 16  2  0  0  0  0
 16 17  1  0  0  0  0
 16 41  1  0  0  0  0
 17 18  2  0  0  0  0
 17 42  1  0  0  0  0
 18 19  1  0  0  0  0
 18 47  1  0  0  0  0
 19 20  2  0  0  0  0
 19 43  1  0  0  0  0
 20 21  1  0  0  0  0
 21 44  1  0  0  0  0
 21 45  1  0  0  0  0
 21 46  1  0  0  0  0
M  CHG  1  18   1
M  END
> <s_m_source_file>
AV-unprocessed.smi

> <i_m_source_file_index>
2442

> <i_lp_mmshare_version>
43012

> <i_f3d_flags>
0

> <s_epik_input>
W0NIM11PW0NAQEhdMVtDSDJdW0NIMl1bQ0gyXVtDSDJdW0NASF0xW05IXUMoPU8pW05IXVtDSDJdW0NIMl1jMltjSF1bY0hdbltjSF1jMltDSDNd

> <s_epik_cmdline>
J2VwaWtfcHl0aG9uJywgJy1waCcsICc3LjAnLCAnLXRuJywgJzgnLCAnLW1hJywgJzIwMCcsICctbWV0YWxfYmluZGluZycsICctaW1hZScsICc8aW5maWxlLm1hZT4nLCAnLW9tYWUnLCAnPG91dGZpbGUubWFlPic=

> <r_epik_Ionization_Penalty>
1.07145

> <r_epik_Ionization_Penalty_Charging>
1.0714

> <r_epik_Ionization_Penalty_Neutral>
4.9109e-05

> <r_epik_State_Penalty>
1.12601

> <r_epik_Charging_Adjusted_Penalty>
2.19741

> <i_epik_Tot_Q>
1

> <i_epik_Tot_abs_Q>
1

> <r_epik_Metal_State_Penalty>
1.2173

> <b_epik_Metal_Only>
0

> <s_lp_Force_Field>
OPLS_2005

> <r_lp_Energy>
16.8817

> <b_lp_Chiralities_Consistent>
1

> <s_lp_Variant>
AV-unprocessed.smi:2442-7

> <Gold.Version>
5.8.1

> <Gold.Id.Protein>
6NUR|6NUR_protein|mol2

> <Gold.PLP.Fitness>
39.4689

> <Gold.PLP.PLP>
-31.5277

> <Gold.PLP.part.hbond>
-4.0000

> <Gold.PLP.part.metal>
0.0000

> <Gold.PLP.part.buried>
-3.0729

> <Gold.PLP.part.nonpolar>
-25.1536

> <Gold.PLP.part.repulsive>
0.2494

> <Gold.PLP.ligand.clash>
0.0000

> <Gold.PLP.ligand.torsion>
0.4090

> <Gold.PLP.Chemscore.Hbond>
2.8960

> <Gold.PLP.Chemscore.CHOScore>
0.0000

> <Gold.PLP.Chemscore.Metal>
0.0000

> <Gold.Chemscore.Hbonds>
donor molecule, donor type, donor heavy atom, donor atom, acceptor molecule, acceptor atom, score
      L1  H     9    35       P1  7948  0.90
      L1  H    12    36       P1  7948  0.99
      L1  H    18    47       P1 10747  1.00

> <Gold.PLP.Chemscore.Internal.Correction>
0.0712

> <Gold.Rescore>
     Score         DG    S(hbond)    S(metal)    S(lipo)     H(rot)  DE(clash)    DE(int)     intcor
     17.79     -19.81       2.83        0.00      79.38       1.72       0.04       1.99       ----

> <Gold.Chemscore.Fitness>
17.7873

> <Gold.Chemscore.DG>
-19.8149

> <Gold.Chemscore.ZeroCoef>
-5.4800

> <Gold.Chemscore.Hbond>
2.8329

> <Gold.Chemscore.Metal>
0.0000

> <Gold.Chemscore.Lipo>
79.3801

> <Gold.Chemscore.Internal_Hbond>
0.0000

> <Gold.Chemscore.DEClash>
0.0423

> <Gold.Chemscore.DEInternal>
1.9852

> <Gold.Chemscore.Rot>
1.7244

> <Gold.Chemscore.Internal.Correction>
   9.000000E+99

> <Gold.Chemscore.Hbonds>
donor molecule, donor type, donor heavy atom, donor atom, acceptor molecule, acceptor atom, score
      L1  H     9    35       P1  7948  0.87
      L1  H    12    36       P1  7948  0.94
      L1  H    18    47       P1 10747  1.00

> <Gold.Chemscore.Hbond.Weighted>
-9.4619

> <Gold.Chemscore.Metal.Weighted>
-0.0000

> <Gold.Chemscore.Lipo.Weighted>
-9.2875

> <Gold.Chemscore.Internal_Hbond.Weighted>
0.0000

> <Gold.Chemscore.DEClash.Weighted>
0.0423

> <Gold.Chemscore.DEInternal.Weighted>
1.9852

> <Gold.Chemscore.Rot.Weighted>
4.4145

> <Gold.Chemscore.Internal.Correction.Weighted>
   9.000000E+99

> <Gold.Protein.RotatedTorsions>
[ 6907 6896 6895 6894 ] final   10.81 input  -60.11 | X-H torsion
[ 7974 7965 7964 7962 ] final  143.38 input  175.53 | X-H torsion
[ 8008 7997 7996 7995 ] final -103.13 input   59.86 | X-H torsion
[ 10167 10162 10161 10158 ] final  -70.63 input  -65.29 | X-H torsion
[ 10718 10713 10712 10709 ] final   40.31 input   66.30 | X-H torsion
[ 10763 10752 10751 10750 ] final   34.67 input  -60.55 | X-H torsion
[ 11005 11000 10999 10996 ] final  -34.22 input  -57.11 | X-H torsion

> <Gold.Protein.ActiveResidues>
 VAL166  LYS551  ARG553  GLY616  TRP617  ASP618  TYR619  PRO620  LYS621  CYS622 
 ASP623  PHE694  ASN695  SER759  ASP760  ASP761  ALA762  ILE779  LEU786  VAL792 
 PHE793  MET794  SER795  GLU796  ALA797  LYS798  CYS799  TRP800  GLU811  SER814 

> <Gold.Protein.RotatedAtoms>
  151.7442  135.0847  160.0320 H   0  0  0  0  0  0  0  0  0  0  0  0  # atno 6907 bound_to 6896
  152.3459  133.6118  159.5918 H   0  0  0  0  0  0  0  0  0  0  0  0  # atno 6908 bound_to 6896
  150.7509  133.9565  159.3544 H   0  0  0  0  0  0  0  0  0  0  0  0  # atno 6909 bound_to 6896
  144.8926  139.5537  143.5791 H   0  0  0  0  0  0  0  0  0  0  0  0  # atno 7974 bound_to 7965
  154.8665  140.0424  157.1698 H   0  0  0  0  0  0  0  0  0  0  0  0  # atno 8008 bound_to 7997
  154.8784  140.2969  155.5419 H   0  0  0  0  0  0  0  0  0  0  0  0  # atno 8009 bound_to 7997
  156.2999  140.2416  156.3783 H   0  0  0  0  0  0  0  0  0  0  0  0  # atno 8010 bound_to 7997
  140.5337  143.2319  151.7215 H   0  0  0  0  0  0  0  0  0  0  0  0  # atno 10167 bound_to 10162
  157.3806  130.7751  149.7190 H   0  0  0  0  0  0  0  0  0  0  0  0  # atno 10718 bound_to 10713
  153.0153  135.6354  154.1705 H   0  0  0  0  0  0  0  0  0  0  0  0  # atno 10763 bound_to 10752
  154.1444  135.2832  155.3154 H   0  0  0  0  0  0  0  0  0  0  0  0  # atno 10764 bound_to 10752
  154.6100  135.5559  153.7524 H   0  0  0  0  0  0  0  0  0  0  0  0  # atno 10765 bound_to 10752
  140.9699  133.7116  156.1506 H   0  0  0  0  0  0  0  0  0  0  0  0  # atno 11005 bound_to 11000
  146.3062  139.7590  142.9054 LP  0  0  0  0  0  0  0  0  0  0  0  0  # atno 17320 bound_to 7965
  145.3757  141.0350  143.3206 LP  0  0  0  0  0  0  0  0  0  0  0  0  # atno 17321 bound_to 7965
  139.4963  144.4075  152.0116 LP  0  0  0  0  0  0  0  0  0  0  0  0  # atno 17342 bound_to 10162
  140.3179  144.3462  150.6017 LP  0  0  0  0  0  0  0  0  0  0  0  0  # atno 17343 bound_to 10162
  155.9775  130.4062  150.3708 LP  0  0  0  0  0  0  0  0  0  0  0  0  # atno 17370 bound_to 10713
  157.1812  131.0392  151.2747 LP  0  0  0  0  0  0  0  0  0  0  0  0  # atno 17371 bound_to 10713
  140.7345  134.4218  157.5562 LP  0  0  0  0  0  0  0  0  0  0  0  0  # atno 17394 bound_to 11000
  139.8908  134.8795  156.2351 LP  0  0  0  0  0  0  0  0  0  0  0  0  # atno 17395 bound_to 11000

$$$$
