AV-unprocessed.smi:2999|AV-procd|sdf|11428|dock3
  -GOLD-   2272016353D 1   1.00000     0.00000
 Structure written by MMmdl.
 37 39  0  0  0  0  0  0  0  0  3 V2000
  147.6788  132.9766  158.0918 O   0  0  0  0  0  0  0  0  0  0  0  0
  148.4503  133.9329  157.9897 C   0  0  0  0  0  0  0  0  0  0  0  0
  149.1090  134.1383  156.8429 N   0  0  0  0  0  0  0  0  0  0  0  0
  149.0078  133.3029  155.6531 C   0  0  0  0  0  0  0  0  0  0  0  0
  148.3116  134.0534  154.5081 C   0  0  1  0  0  0  0  0  0  0  0  0
  147.8938  133.1262  153.3466 C   0  0  0  0  0  0  0  0  0  0  0  0
  147.1637  133.8928  152.3122 N   0  3  1  0  0  0  0  0  0  0  0  0
  146.7792  133.0562  151.1552 C   0  0  0  0  0  0  0  0  0  0  0  0
  145.6028  133.6000  150.3787 C   0  0  0  0  0  0  0  0  0  0  0  0
  145.4201  132.4115  151.2967 C   0  0  0  0  0  0  0  0  0  0  0  0
  146.0089  134.6022  152.9069 C   0  0  0  0  0  0  0  0  0  0  0  0
  146.4729  135.4818  154.0786 C   0  0  0  0  0  0  0  0  0  0  0  0
  147.1465  134.6776  155.0394 O   0  0  0  0  0  0  0  0  0  0  0  0
  148.7291  134.8476  158.9451 N   0  5  0  0  0  0  0  0  0  0  0  0
  148.0805  134.8089  160.1207 C   0  0  0  0  0  0  0  0  0  0  0  0
  147.5772  133.6827  160.6391 N   0  0  0  0  0  0  0  0  0  0  0  0
  146.9414  133.8727  161.8675 C   0  0  0  0  0  0  0  0  0  0  0  0
  146.9521  135.1757  162.2894 C   0  0  0  0  0  0  0  0  0  0  0  0
  147.7659  136.2093  161.1498 S   0  0  0  0  0  0  0  0  0  0  0  0
  149.7247  134.9369  156.7984 H   0  0  0  0  0  0  0  0  0  0  0  0
  150.0017  132.9816  155.3368 H   0  0  0  0  0  0  0  0  0  0  0  0
  148.4453  132.4028  155.9051 H   0  0  0  0  0  0  0  0  0  0  0  0
  148.9869  134.8264  154.1357 H   0  0  0  0  0  0  0  0  0  0  0  0
  148.7721  132.6626  152.8960 H   0  0  0  0  0  0  0  0  0  0  0  0
  147.2611  132.3177  153.7175 H   0  0  0  0  0  0  0  0  0  0  0  0
  147.5869  132.5357  150.6433 H   0  0  0  0  0  0  0  0  0  0  0  0
  145.1705  134.5485  150.6931 H   0  0  0  0  0  0  0  0  0  0  0  0
  145.5774  133.4101  149.3074 H   0  0  0  0  0  0  0  0  0  0  0  0
  145.2741  131.4398  150.8294 H   0  0  0  0  0  0  0  0  0  0  0  0
  144.8670  132.5711  152.2206 H   0  0  0  0  0  0  0  0  0  0  0  0
  145.5229  135.2181  152.1496 H   0  0  0  0  0  0  0  0  0  0  0  0
  145.2712  133.8764  153.2531 H   0  0  0  0  0  0  0  0  0  0  0  0
  147.1285  136.2821  153.7310 H   0  0  0  0  0  0  0  0  0  0  0  0
  145.6149  135.9570  154.5544 H   0  0  0  0  0  0  0  0  0  0  0  0
  146.5071  133.0227  162.3724 H   0  0  0  0  0  0  0  0  0  0  0  0
  146.5336  135.5887  163.1943 H   0  0  0  0  0  0  0  0  0  0  0  0
  147.7989  134.5986  151.9679 H   0  0  0  0  0  0  0  0  0  0  0  0
  1  2  2  0  0  0  0
  2  3  1  0  0  0  0
  2 14  1  0  0  0  0
  3  4  1  0  0  0  0
  3 20  1  0  0  0  0
  4  5  1  0  0  0  0
  4 21  1  0  0  0  0
  4 22  1  0  0  0  0
  5 13  1  0  0  0  0
  5  6  1  0  0  0  0
  5 23  1  0  0  0  0
  6  7  1  0  0  0  0
  6 24  1  0  0  0  0
  6 25  1  0  0  0  0
  7  8  1  0  0  0  0
  7 11  1  0  0  0  0
  7 37  1  0  0  0  0
  8 10  1  0  0  0  0
  8  9  1  0  0  0  0
  8 26  1  0  0  0  0
  9 10  1  0  0  0  0
  9 27  1  0  0  0  0
  9 28  1  0  0  0  0
 10 29  1  0  0  0  0
 10 30  1  0  0  0  0
 11 12  1  0  0  0  0
 11 31  1  0  0  0  0
 11 32  1  0  0  0  0
 12 13  1  0  0  0  0
 12 33  1  0  0  0  0
 12 34  1  0  0  0  0
 14 15  1  0  0  0  0
 15 19  1  0  0  0  0
 15 16  2  0  0  0  0
 16 17  1  0  0  0  0
 17 18  2  0  0  0  0
 17 35  1  0  0  0  0
 18 19  1  0  0  0  0
 18 36  1  0  0  0  0
M  CHG  1   7   1
M  CHG  1  14  -1
M  END
> <s_m_source_file>
AV-unprocessed.smi

> <i_m_source_file_index>
2999

> <i_lp_mmshare_version>
43012

> <i_f3d_flags>
0

> <s_epik_input>
czFbY0hdW2NIXW5jMVtOSF1DKD1PKVtOSF1bQ0gyXVtDQEBIXTJbQ0gyXU4oW0NIMl1bQ0gyXU8yKVtDSF0zW0NIMl1bQ0gyXTM=

> <s_epik_cmdline>
J2VwaWtfcHl0aG9uJywgJy1waCcsICc3LjAnLCAnLXRuJywgJzgnLCAnLW1hJywgJzIwMCcsICctbWV0YWxfYmluZGluZycsICctaW1hZScsICc8aW5maWxlLm1hZT4nLCAnLW9tYWUnLCAnPG91dGZpbGUubWFlPic=

> <r_lp_tautomer_probability>
0.999

> <r_epik_Ionization_Penalty>
7.79196

> <r_epik_Ionization_Penalty_Charging>
6.93299

> <r_epik_Ionization_Penalty_Neutral>
0.858963

> <r_epik_State_Penalty>
7.05108

> <r_epik_Charging_Adjusted_Penalty>
13.9841

> <i_epik_Tot_Q>
0

> <i_epik_Tot_abs_Q>
2

> <r_epik_Metal_State_Penalty>
3.05936

> <b_epik_Metal_Only>
1

> <s_lp_Force_Field>
OPLS_2005

> <r_lp_Energy>
14.293

> <b_lp_Chiralities_Consistent>
1

> <s_lp_Variant>
AV-unprocessed.smi:2999-12

> <Gold.Version>
5.8.1

> <Gold.Id.Protein>
6NUR|6NUR_protein|mol2

> <Gold.PLP.Fitness>
39.0847

> <Gold.PLP.PLP>
-27.5997

> <Gold.PLP.part.hbond>
-2.0000

> <Gold.PLP.part.metal>
0.0000

> <Gold.PLP.part.buried>
-2.1764

> <Gold.PLP.part.nonpolar>
-23.4777

> <Gold.PLP.part.repulsive>
0.1361

> <Gold.PLP.ligand.clash>
0.0071

> <Gold.PLP.ligand.torsion>
0.9129

> <Gold.PLP.Chemscore.Hbond>
4.0000

> <Gold.PLP.Chemscore.CHOScore>
0.0000

> <Gold.PLP.Chemscore.Metal>
0.0000

> <Gold.Chemscore.Hbonds>
donor molecule, donor type, donor heavy atom, donor atom, acceptor molecule, acceptor atom, score
      L1  H     7    37       P1  7948  2.00
      P1  H  6896  6909       L1    14  1.98

> <Gold.PLP.Chemscore.Internal.Correction>
1.3177

> <Gold.Rescore>
     Score         DG    S(hbond)    S(metal)    S(lipo)     H(rot)  DE(clash)    DE(int)     intcor
     11.66     -14.32       1.80        0.00      58.22       1.55       0.08       2.58       ----

> <Gold.Chemscore.Fitness>
11.6620

> <Gold.Chemscore.DG>
-14.3233

> <Gold.Chemscore.ZeroCoef>
-5.4800

> <Gold.Chemscore.Hbond>
1.7967

> <Gold.Chemscore.Metal>
0.0000

> <Gold.Chemscore.Lipo>
58.2174

> <Gold.Chemscore.Internal_Hbond>
0.0000

> <Gold.Chemscore.DEClash>
0.0775

> <Gold.Chemscore.DEInternal>
2.5838

> <Gold.Chemscore.Rot>
1.5504

> <Gold.Chemscore.Internal.Correction>
   9.000000E+99

> <Gold.Chemscore.Hbonds>
donor molecule, donor type, donor heavy atom, donor atom, acceptor molecule, acceptor atom, score
      L1  H     7    37       P1  7948  0.34
      P1  H  6896  6909       L1    14  0.09

> <Gold.Chemscore.Hbond.Weighted>
-6.0009

> <Gold.Chemscore.Metal.Weighted>
-0.0000

> <Gold.Chemscore.Lipo.Weighted>
-6.8114

> <Gold.Chemscore.Internal_Hbond.Weighted>
0.0000

> <Gold.Chemscore.DEClash.Weighted>
0.0775

> <Gold.Chemscore.DEInternal.Weighted>
2.5838

> <Gold.Chemscore.Rot.Weighted>
3.9690

> <Gold.Chemscore.Internal.Correction.Weighted>
   9.000000E+99

> <Gold.Protein.RotatedTorsions>
[ 6907 6896 6895 6894 ] final   31.49 input  -60.11 | X-H torsion
[ 7974 7965 7964 7962 ] final  -87.20 input  175.53 | X-H torsion
[ 8008 7997 7996 7995 ] final  -25.08 input   59.86 | X-H torsion
[ 10167 10162 10161 10158 ] final    7.36 input  -65.29 | X-H torsion
[ 10718 10713 10712 10709 ] final   39.30 input   66.30 | X-H torsion
[ 10763 10752 10751 10750 ] final   -7.16 input  -60.55 | X-H torsion
[ 11005 11000 10999 10996 ] final   42.79 input  -57.11 | X-H torsion

> <Gold.Protein.ActiveResidues>
 VAL166  LYS551  ARG553  GLY616  TRP617  ASP618  TYR619  PRO620  LYS621  CYS622 
 ASP623  PHE694  ASN695  SER759  ASP760  ASP761  ALA762  ILE779  LEU786  VAL792 
 PHE793  MET794  SER795  GLU796  ALA797  LYS798  CYS799  TRP800  GLU811  SER814 

> <Gold.Protein.RotatedAtoms>
  152.0610  134.9594  160.0574 H   0  0  0  0  0  0  0  0  0  0  0  0  # atno 6907 bound_to 6896
  152.0958  133.4219  159.4573 H   0  0  0  0  0  0  0  0  0  0  0  0  # atno 6908 bound_to 6896
  150.6838  134.2738  159.4642 H   0  0  0  0  0  0  0  0  0  0  0  0  # atno 6909 bound_to 6896
  145.4697  140.9560  143.1924 H   0  0  0  0  0  0  0  0  0  0  0  0  # atno 7974 bound_to 7965
  154.4495  140.1936  156.0564 H   0  0  0  0  0  0  0  0  0  0  0  0  # atno 8008 bound_to 7997
  156.0616  140.3296  155.7441 H   0  0  0  0  0  0  0  0  0  0  0  0  # atno 8009 bound_to 7997
  155.5403  140.0586  157.2862 H   0  0  0  0  0  0  0  0  0  0  0  0  # atno 8010 bound_to 7997
  140.6376  143.7849  150.7382 H   0  0  0  0  0  0  0  0  0  0  0  0  # atno 10167 bound_to 10162
  157.3689  130.7690  149.7104 H   0  0  0  0  0  0  0  0  0  0  0  0  # atno 10718 bound_to 10713
  153.4225  135.7010  153.6285 H   0  0  0  0  0  0  0  0  0  0  0  0  # atno 10763 bound_to 10752
  153.4733  135.3710  155.2403 H   0  0  0  0  0  0  0  0  0  0  0  0  # atno 10764 bound_to 10752
  154.8722  135.4048  154.3595 H   0  0  0  0  0  0  0  0  0  0  0  0  # atno 10765 bound_to 10752
  140.1706  134.4227  155.8260 H   0  0  0  0  0  0  0  0  0  0  0  0  # atno 11005 bound_to 11000
  144.7953  139.6247  143.7095 LP  0  0  0  0  0  0  0  0  0  0  0  0  # atno 17320 bound_to 7965
  146.2404  139.5989  142.9495 LP  0  0  0  0  0  0  0  0  0  0  0  0  # atno 17321 bound_to 7965
  140.1474  143.4388  152.2154 LP  0  0  0  0  0  0  0  0  0  0  0  0  # atno 17342 bound_to 10162
  139.5586  144.7390  151.4221 LP  0  0  0  0  0  0  0  0  0  0  0  0  # atno 17343 bound_to 10162
  155.9751  130.4093  150.3869 LP  0  0  0  0  0  0  0  0  0  0  0  0  # atno 17370 bound_to 10713
  157.1958  131.0426  151.2676 LP  0  0  0  0  0  0  0  0  0  0  0  0  # atno 17371 bound_to 10713
  141.2217  133.6954  156.7756 LP  0  0  0  0  0  0  0  0  0  0  0  0  # atno 17394 bound_to 11000
  140.2382  134.8634  157.3546 LP  0  0  0  0  0  0  0  0  0  0  0  0  # atno 17395 bound_to 11000

$$$$
