AV-unprocessed.smi:2759|AV-procd|sdf|10626|dock4
  -GOLD-   2272015 73D 1   1.00000     0.00000
 Structure written by MMmdl.
 43 44  0  0  0  0  0  0  0  0  1 V2000
  144.3656  133.7092  150.0849 C   0  0  0  0  0  0  0  0  0  0  0  0
  145.6579  132.9695  150.4832 C   0  0  0  0  0  0  0  0  0  0  0  0
  145.3750  131.4557  150.5189 C   0  0  0  0  0  0  0  0  0  0  0  0
  146.2377  133.5023  151.8207 C   0  0  2  0  0  0  0  0  0  0  0  0
  146.6354  134.8499  151.6400 O   0  0  0  0  0  0  0  0  0  0  0  0
  147.4720  132.7263  152.3322 C   0  0  0  0  0  0  0  0  0  0  0  0
  148.1696  133.4241  153.4538 C   0  0  0  0  0  0  0  0  0  0  0  0
  149.4830  133.5421  153.6319 N   0  0  0  0  0  0  0  0  0  0  0  0
  149.5272  134.3389  154.7361 C   0  0  0  0  0  0  0  0  0  0  0  0
  150.8106  134.8029  155.3487 C   0  0  0  0  0  0  0  0  0  0  0  0
  150.9448  136.3234  155.2344 C   0  0  0  0  0  0  0  0  0  0  0  0
  150.7934  137.0315  156.2296 O   0  0  0  0  0  0  0  0  0  0  0  0
  151.2327  136.8112  154.0170 N   0  0  0  0  0  0  0  0  0  0  0  0
  151.3587  138.2267  153.6832 C   0  0  0  0  0  0  0  0  0  0  0  0
  152.4420  138.8958  154.5509 C   0  0  0  0  0  0  0  0  0  0  0  0
  151.8163  140.1826  155.0917 C   0  0  0  0  0  0  0  0  0  0  0  0
  150.3268  139.8674  155.1854 C   0  0  0  0  0  0  0  0  0  0  0  0
  150.0509  138.9941  153.9611 C   0  0  0  0  0  0  0  0  0  0  0  0
  148.3510  134.7007  155.2360 N   0  0  0  0  0  0  0  0  0  0  0  0
  147.4302  134.1004  154.3654 O   0  0  0  0  0  0  0  0  0  0  0  0
  143.5949  133.5979  150.8483 H   0  0  0  0  0  0  0  0  0  0  0  0
  143.9624  133.3211  149.1490 H   0  0  0  0  0  0  0  0  0  0  0  0
  144.5363  134.7756  149.9372 H   0  0  0  0  0  0  0  0  0  0  0  0
  146.3927  133.1477  149.6966 H   0  0  0  0  0  0  0  0  0  0  0  0
  144.7199  131.1944  151.3506 H   0  0  0  0  0  0  0  0  0  0  0  0
  146.2879  130.8687  150.6108 H   0  0  0  0  0  0  0  0  0  0  0  0
  144.8879  131.1267  149.6006 H   0  0  0  0  0  0  0  0  0  0  0  0
  145.4525  133.4729  152.5778 H   0  0  0  0  0  0  0  0  0  0  0  0
  147.5771  134.8976  151.7071 H   0  0  0  0  0  0  0  0  0  0  0  0
  147.1858  131.7460  152.7087 H   0  0  0  0  0  0  0  0  0  0  0  0
  148.1801  132.5469  151.5221 H   0  0  0  0  0  0  0  0  0  0  0  0
  150.8489  134.5029  156.3969 H   0  0  0  0  0  0  0  0  0  0  0  0
  151.6530  134.3225  154.8492 H   0  0  0  0  0  0  0  0  0  0  0  0
  151.3483  136.1535  153.2594 H   0  0  0  0  0  0  0  0  0  0  0  0
  151.6243  138.3315  152.6296 H   0  0  0  0  0  0  0  0  0  0  0  0
  152.7135  138.2545  155.3912 H   0  0  0  0  0  0  0  0  0  0  0  0
  153.3560  139.0922  153.9897 H   0  0  0  0  0  0  0  0  0  0  0  0
  152.2424  140.4876  156.0478 H   0  0  0  0  0  0  0  0  0  0  0  0
  151.9750  140.9952  154.3815 H   0  0  0  0  0  0  0  0  0  0  0  0
  150.1279  139.2991  156.0951 H   0  0  0  0  0  0  0  0  0  0  0  0
  149.7071  140.7642  155.2092 H   0  0  0  0  0  0  0  0  0  0  0  0
  149.8245  139.6342  153.1076 H   0  0  0  0  0  0  0  0  0  0  0  0
  149.1871  138.3447  154.1101 H   0  0  0  0  0  0  0  0  0  0  0  0
  1  2  1  0  0  0  0
  1 21  1  0  0  0  0
  1 22  1  0  0  0  0
  1 23  1  0  0  0  0
  2  3  1  0  0  0  0
  2  4  1  0  0  0  0
  2 24  1  0  0  0  0
  3 25  1  0  0  0  0
  3 26  1  0  0  0  0
  3 27  1  0  0  0  0
  4  5  1  0  0  0  0
  4  6  1  0  0  0  0
  4 28  1  0  0  0  0
  5 29  1  0  0  0  0
  6  7  1  0  0  0  0
  6 30  1  0  0  0  0
  6 31  1  0  0  0  0
  7 20  1  0  0  0  0
  7  8  2  0  0  0  0
  8  9  1  0  0  0  0
  9 10  1  0  0  0  0
  9 19  2  0  0  0  0
 10 11  1  0  0  0  0
 10 32  1  0  0  0  0
 10 33  1  0  0  0  0
 11 12  2  0  0  0  0
 11 13  1  0  0  0  0
 13 14  1  0  0  0  0
 13 34  1  0  0  0  0
 14 18  1  0  0  0  0
 14 15  1  0  0  0  0
 14 35  1  0  0  0  0
 15 16  1  0  0  0  0
 15 36  1  0  0  0  0
 15 37  1  0  0  0  0
 16 17  1  0  0  0  0
 16 38  1  0  0  0  0
 16 39  1  0  0  0  0
 17 18  1  0  0  0  0
 17 40  1  0  0  0  0
 17 41  1  0  0  0  0
 18 42  1  0  0  0  0
 18 43  1  0  0  0  0
 19 20  1  0  0  0  0
M  END
> <s_m_source_file>
AV-unprocessed.smi

> <i_m_source_file_index>
2759

> <i_lp_mmshare_version>
43012

> <i_f3d_flags>
0

> <s_epik_input>
W0NIM11bQ0hdKFtDSDNdKVtDQEhdKFtPSF0pW0NIMl1jMW5jKG5vMSlbQ0gyXUMoPU8pW05IXVtDSF0yW0NIMl1bQ0gyXVtDSDJdW0NIMl0y

> <s_epik_cmdline>
J2VwaWtfcHl0aG9uJywgJy1waCcsICc3LjAnLCAnLXRuJywgJzgnLCAnLW1hJywgJzIwMCcsICctbWV0YWxfYmluZGluZycsICctaW1hZScsICc8aW5maWxlLm1hZT4nLCAnLW9tYWUnLCAnPG91dGZpbGUubWFlPic=

> <r_lp_tautomer_probability>
1

> <r_epik_Ionization_Penalty>
1.20032e-07

> <r_epik_Ionization_Penalty_Charging>
0

> <r_epik_Ionization_Penalty_Neutral>
1.20032e-07

> <r_epik_State_Penalty>
-0

> <r_epik_Charging_Adjusted_Penalty>
0

> <i_epik_Tot_Q>
0

> <i_epik_Tot_abs_Q>
0

> <r_epik_Metal_State_Penalty>
-0

> <b_epik_Metal_Only>
0

> <s_lp_Force_Field>
OPLS_2005

> <r_lp_Energy>
19.5735

> <b_lp_Chiralities_Consistent>
1

> <s_lp_Variant>
AV-unprocessed.smi:2759-1

> <Gold.Version>
5.8.1

> <Gold.Id.Protein>
6NUR|6NUR_protein|mol2

> <Gold.PLP.Fitness>
40.6152

> <Gold.PLP.PLP>
-35.8813

> <Gold.PLP.part.hbond>
-2.4403

> <Gold.PLP.part.metal>
0.0000

> <Gold.PLP.part.buried>
-4.8383

> <Gold.PLP.part.nonpolar>
-29.3831

> <Gold.PLP.part.repulsive>
0.4096

> <Gold.PLP.ligand.clash>
0.0000

> <Gold.PLP.ligand.torsion>
0.6014

> <Gold.PLP.Chemscore.Hbond>
1.9440

> <Gold.PLP.Chemscore.CHOScore>
0.0000

> <Gold.PLP.Chemscore.Metal>
0.0000

> <Gold.Chemscore.Hbonds>
donor molecule, donor type, donor heavy atom, donor atom, acceptor molecule, acceptor atom, score
      L1  H     5    29       P1  7948  0.80
      L1  H    13    34       P1  7949  0.86

> <Gold.PLP.Chemscore.Internal.Correction>
0.1047

> <Gold.Rescore>
     Score         DG    S(hbond)    S(metal)    S(lipo)     H(rot)  DE(clash)    DE(int)     intcor
      7.14      -9.94       0.80        0.00      73.51       2.65       0.29       2.51       ----

> <Gold.Chemscore.Fitness>
7.1392

> <Gold.Chemscore.DG>
-9.9411

> <Gold.Chemscore.ZeroCoef>
-5.4800

> <Gold.Chemscore.Hbond>
0.7951

> <Gold.Chemscore.Metal>
0.0000

> <Gold.Chemscore.Lipo>
73.5078

> <Gold.Chemscore.Internal_Hbond>
0.0000

> <Gold.Chemscore.DEClash>
0.2929

> <Gold.Chemscore.DEInternal>
2.5090

> <Gold.Chemscore.Rot>
2.6543

> <Gold.Chemscore.Internal.Correction>
   9.000000E+99

> <Gold.Chemscore.Hbonds>
donor molecule, donor type, donor heavy atom, donor atom, acceptor molecule, acceptor atom, score
      L1  H     5    29       P1  7948  0.48
      L1  H    13    34       P1  7949  0.59

> <Gold.Chemscore.Hbond.Weighted>
-2.6557

> <Gold.Chemscore.Metal.Weighted>
-0.0000

> <Gold.Chemscore.Lipo.Weighted>
-8.6004

> <Gold.Chemscore.Internal_Hbond.Weighted>
0.0000

> <Gold.Chemscore.DEClash.Weighted>
0.2929

> <Gold.Chemscore.DEInternal.Weighted>
2.5090

> <Gold.Chemscore.Rot.Weighted>
6.7950

> <Gold.Chemscore.Internal.Correction.Weighted>
   9.000000E+99

> <Gold.Protein.RotatedTorsions>
[ 6907 6896 6895 6894 ] final -129.27 input  -60.11 | X-H torsion
[ 7974 7965 7964 7962 ] final  -72.77 input  175.53 | X-H torsion
[ 8008 7997 7996 7995 ] final  133.99 input   59.86 | X-H torsion
[ 10167 10162 10161 10158 ] final    7.82 input  -65.29 | X-H torsion
[ 10718 10713 10712 10709 ] final    7.43 input   66.30 | X-H torsion
[ 10763 10752 10751 10750 ] final  -10.48 input  -60.55 | X-H torsion
[ 11005 11000 10999 10996 ] final   70.60 input  -57.11 | X-H torsion

> <Gold.Protein.ActiveResidues>
 VAL166  LYS551  ARG553  GLY616  TRP617  ASP618  TYR619  PRO620  LYS621  CYS622 
 ASP623  PHE694  ASN695  SER759  ASP760  ASP761  ALA762  ILE779  LEU786  VAL792 
 PHE793  MET794  SER795  GLU796  ALA797  LYS798  CYS799  TRP800  GLU811  SER814 

> <Gold.Protein.RotatedAtoms>
  150.9269  133.6813  159.2819 H   0  0  0  0  0  0  0  0  0  0  0  0  # atno 6907 bound_to 6896
  151.4249  135.1001  159.9634 H   0  0  0  0  0  0  0  0  0  0  0  0  # atno 6908 bound_to 6896
  152.5007  133.8712  159.7354 H   0  0  0  0  0  0  0  0  0  0  0  0  # atno 6909 bound_to 6896
  145.6608  140.9253  143.0934 H   0  0  0  0  0  0  0  0  0  0  0  0  # atno 7974 bound_to 7965
  156.2996  140.2507  156.3343 H   0  0  0  0  0  0  0  0  0  0  0  0  # atno 8008 bound_to 7997
  154.9115  140.0403  157.1968 H   0  0  0  0  0  0  0  0  0  0  0  0  # atno 8009 bound_to 7997
  154.8400  140.2889  155.5669 H   0  0  0  0  0  0  0  0  0  0  0  0  # atno 8010 bound_to 7997
  140.6350  143.7907  150.7347 H   0  0  0  0  0  0  0  0  0  0  0  0  # atno 10167 bound_to 10162
  156.9367  130.5846  149.5651 H   0  0  0  0  0  0  0  0  0  0  0  0  # atno 10718 bound_to 10713
  153.4699  135.7016  153.6000 H   0  0  0  0  0  0  0  0  0  0  0  0  # atno 10763 bound_to 10752
  153.4258  135.3814  155.2140 H   0  0  0  0  0  0  0  0  0  0  0  0  # atno 10764 bound_to 10752
  154.8725  135.3939  154.4135 H   0  0  0  0  0  0  0  0  0  0  0  0  # atno 10765 bound_to 10752
  139.9589  134.7096  156.0691 H   0  0  0  0  0  0  0  0  0  0  0  0  # atno 11005 bound_to 11000
  144.7089  139.8447  143.7421 LP  0  0  0  0  0  0  0  0  0  0  0  0  # atno 17320 bound_to 7965
  146.1126  139.4133  143.0278 LP  0  0  0  0  0  0  0  0  0  0  0  0  # atno 17321 bound_to 7965
  140.1526  143.4344  152.2121 LP  0  0  0  0  0  0  0  0  0  0  0  0  # atno 17342 bound_to 10162
  139.5561  144.7373  151.4291 LP  0  0  0  0  0  0  0  0  0  0  0  0  # atno 17343 bound_to 10162
  156.0422  130.5503  150.8798 LP  0  0  0  0  0  0  0  0  0  0  0  0  # atno 17370 bound_to 10713
  157.5811  131.0946  150.9269 LP  0  0  0  0  0  0  0  0  0  0  0  0  # atno 17371 bound_to 10713
  141.1263  133.6598  156.3346 LP  0  0  0  0  0  0  0  0  0  0  0  0  # atno 17394 bound_to 11000
  140.5546  134.5994  157.5417 LP  0  0  0  0  0  0  0  0  0  0  0  0  # atno 17395 bound_to 11000

$$$$
