AV-unprocessed.smi:1507|AV-procd|sdf|6084|dock3
  -GOLD-   22720 6203D 1   1.00000     0.00000
 Structure written by MMmdl.
 32 33  0  0  0  0  0  0  0  0  3 V2000
  150.3315  135.5037  153.8665 N   0  5  0  0  0  0  0  0  0  0  0  0
  151.3381  136.2299  154.9077 S   0  0  0  0  0  0  0  0  0  0  0  0
  150.5638  137.0500  155.8518 O   0  0  0  0  0  0  0  0  0  0  0  0
  152.2594  135.2615  155.5277 O   0  0  0  0  0  0  0  0  0  0  0  0
  152.0714  137.1922  153.8115 N   0  5  0  0  0  0  0  0  0  0  0  0
  151.5759  138.5278  153.4874 C   0  0  0  0  0  0  0  0  0  0  0  0
  151.6638  139.4632  154.6850 C   0  0  0  0  0  0  0  0  0  0  0  0
  150.5289  140.1625  155.1490 C   0  0  0  0  0  0  0  0  0  0  0  0
  150.6600  141.0179  156.2606 C   0  0  0  0  0  0  0  0  0  0  0  0
  151.9240  141.1574  156.8810 C   0  0  0  0  0  0  0  0  0  0  0  0
  152.0782  142.0150  157.9924 N   0  0  0  0  0  0  0  0  0  0  0  0
  151.0420  143.0184  158.2308 C   0  0  0  0  0  0  0  0  0  0  0  0
  151.5077  144.0281  159.2934 C   0  0  0  0  0  0  0  0  0  0  0  0
  151.8846  143.3363  160.4790 O   0  0  0  0  0  0  0  0  0  0  0  0
  152.9693  142.4433  160.2487 C   0  0  0  0  0  0  0  0  0  0  0  0
  152.5591  141.3788  159.2165 C   0  0  0  0  0  0  0  0  0  0  0  0
  153.0106  140.4783  156.4377 N   0  0  0  0  0  0  0  0  0  0  0  0
  152.8831  139.6608  155.3695 C   0  0  0  0  0  0  0  0  0  0  0  0
  150.1193  136.1655  153.1107 H   0  0  0  0  0  0  0  0  0  0  0  0
  152.1374  138.9796  152.6689 H   0  0  0  0  0  0  0  0  0  0  0  0
  150.5384  138.5075  153.1512 H   0  0  0  0  0  0  0  0  0  0  0  0
  149.5634  140.0557  154.6733 H   0  0  0  0  0  0  0  0  0  0  0  0
  149.7912  141.5435  156.6270 H   0  0  0  0  0  0  0  0  0  0  0  0
  150.8096  143.5487  157.3064 H   0  0  0  0  0  0  0  0  0  0  0  0
  150.1288  142.5225  158.5625 H   0  0  0  0  0  0  0  0  0  0  0  0
  152.3445  144.6235  158.9245 H   0  0  0  0  0  0  0  0  0  0  0  0
  150.7018  144.7230  159.5289 H   0  0  0  0  0  0  0  0  0  0  0  0
  153.8453  142.9976  159.9080 H   0  0  0  0  0  0  0  0  0  0  0  0
  153.2414  141.9663  161.1904 H   0  0  0  0  0  0  0  0  0  0  0  0
  151.7637  140.7526  159.6228 H   0  0  0  0  0  0  0  0  0  0  0  0
  153.4093  140.7257  159.0256 H   0  0  0  0  0  0  0  0  0  0  0  0
  153.7912  139.1568  155.0671 H   0  0  0  0  0  0  0  0  0  0  0  0
  1  2  1  0  0  0  0
  1 19  1  0  0  0  0
  2  3  2  0  0  0  0
  2  4  2  0  0  0  0
  2  5  1  0  0  0  0
  5  6  1  0  0  0  0
  6  7  1  0  0  0  0
  6 20  1  0  0  0  0
  6 21  1  0  0  0  0
  7 18  1  0  0  0  0
  7  8  2  0  0  0  0
  8  9  1  0  0  0  0
  8 22  1  0  0  0  0
  9 10  2  0  0  0  0
  9 23  1  0  0  0  0
 10 11  1  0  0  0  0
 10 17  1  0  0  0  0
 11 16  1  0  0  0  0
 11 12  1  0  0  0  0
 12 13  1  0  0  0  0
 12 24  1  0  0  0  0
 12 25  1  0  0  0  0
 13 14  1  0  0  0  0
 13 26  1  0  0  0  0
 13 27  1  0  0  0  0
 14 15  1  0  0  0  0
 15 16  1  0  0  0  0
 15 28  1  0  0  0  0
 15 29  1  0  0  0  0
 16 30  1  0  0  0  0
 16 31  1  0  0  0  0
 17 18  2  0  0  0  0
 18 32  1  0  0  0  0
M  CHG  1   1  -1
M  CHG  1   5  -1
M  END
> <s_m_source_file>
AV-unprocessed.smi

> <i_m_source_file_index>
1507

> <i_lp_mmshare_version>
43012

> <i_f3d_flags>
0

> <s_epik_input>
W05IMl1TKD1PKSg9TylbTkhdW0NIMl1jMVtjSF1bY0hdYyhuW2NIXTEpTjJbQ0gyXVtDSDJdT1tDSDJdW0NIMl0y

> <s_epik_cmdline>
J2VwaWtfcHl0aG9uJywgJy1waCcsICc3LjAnLCAnLXRuJywgJzgnLCAnLW1hJywgJzIwMCcsICctbWV0YWxfYmluZGluZycsICctaW1hZScsICc8aW5maWxlLm1hZT4nLCAnLW9tYWUnLCAnPG91dGZpbGUubWFlPic=

> <r_lp_tautomer_probability>
1

> <r_epik_Ionization_Penalty>
9.15309

> <r_epik_Ionization_Penalty_Charging>
9.0542

> <r_epik_Ionization_Penalty_Neutral>
0.0988946

> <r_epik_State_Penalty>
4.65345

> <r_epik_Charging_Adjusted_Penalty>
13.7077

> <i_epik_Tot_Q>
-2

> <i_epik_Tot_abs_Q>
2

> <r_epik_Metal_State_Penalty>
1.24006

> <b_epik_Metal_Only>
1

> <s_lp_Force_Field>
OPLS_2005

> <r_lp_Energy>
23.9695

> <b_lp_Chiralities_Consistent>
1

> <s_lp_Variant>
AV-unprocessed.smi:1507-5

> <Gold.Version>
5.8.1

> <Gold.Id.Protein>
6NUR|6NUR_protein|mol2

> <Gold.PLP.Fitness>
44.6468

> <Gold.PLP.PLP>
-32.8700

> <Gold.PLP.part.hbond>
-3.0000

> <Gold.PLP.part.metal>
0.0000

> <Gold.PLP.part.buried>
-1.5392

> <Gold.PLP.part.nonpolar>
-26.4242

> <Gold.PLP.part.repulsive>
0.2331

> <Gold.PLP.ligand.clash>
0.0000

> <Gold.PLP.ligand.torsion>
0.7852

> <Gold.PLP.Chemscore.Hbond>
4.0000

> <Gold.PLP.Chemscore.CHOScore>
0.0000

> <Gold.PLP.Chemscore.Metal>
0.0000

> <Gold.Chemscore.Hbonds>
donor molecule, donor type, donor heavy atom, donor atom, acceptor molecule, acceptor atom, score
      L1  H     1    19       P1  7948  0.11
      P1  H  7997  8008       L1    17  0.38
      P1  H 10752 10764       L1     4  0.01

> <Gold.PLP.Chemscore.Internal.Correction>
1.3472

> <Gold.Rescore>
     Score         DG    S(hbond)    S(metal)    S(lipo)     H(rot)  DE(clash)    DE(int)     intcor
     16.51     -17.59       2.44        0.00      74.54       1.86       0.21       0.87       ----

> <Gold.Chemscore.Fitness>
16.5134

> <Gold.Chemscore.DG>
-17.5863

> <Gold.Chemscore.ZeroCoef>
-5.4800

> <Gold.Chemscore.Hbond>
2.4397

> <Gold.Chemscore.Metal>
0.0000

> <Gold.Chemscore.Lipo>
74.5379

> <Gold.Chemscore.Internal_Hbond>
0.0000

> <Gold.Chemscore.DEClash>
0.2065

> <Gold.Chemscore.DEInternal>
0.8664

> <Gold.Chemscore.Rot>
1.8606

> <Gold.Chemscore.Internal.Correction>
   9.000000E+99

> <Gold.Chemscore.Hbonds>
donor molecule, donor type, donor heavy atom, donor atom, acceptor molecule, acceptor atom, score
      P1  H  7997  8008       L1    17  0.06

> <Gold.Chemscore.Hbond.Weighted>
-8.1484

> <Gold.Chemscore.Metal.Weighted>
-0.0000

> <Gold.Chemscore.Lipo.Weighted>
-8.7209

> <Gold.Chemscore.Internal_Hbond.Weighted>
0.0000

> <Gold.Chemscore.DEClash.Weighted>
0.2065

> <Gold.Chemscore.DEInternal.Weighted>
0.8664

> <Gold.Chemscore.Rot.Weighted>
4.7631

> <Gold.Chemscore.Internal.Correction.Weighted>
   9.000000E+99

> <Gold.Protein.RotatedTorsions>
[ 6907 6896 6895 6894 ] final -154.03 input  -60.11 | X-H torsion
[ 7974 7965 7964 7962 ] final   71.49 input  175.53 | X-H torsion
[ 8008 7997 7996 7995 ] final  -73.67 input   59.86 | X-H torsion
[ 10167 10162 10161 10158 ] final  -64.00 input  -65.29 | X-H torsion
[ 10718 10713 10712 10709 ] final   49.48 input   66.30 | X-H torsion
[ 10763 10752 10751 10750 ] final  -63.74 input  -60.55 | X-H torsion
[ 11005 11000 10999 10996 ] final  168.41 input  -57.11 | X-H torsion

> <Gold.Protein.ActiveResidues>
 VAL166  LYS551  ARG553  GLY616  TRP617  ASP618  TYR619  PRO620  LYS621  CYS622 
 ASP623  PHE694  ASN695  SER759  ASP760  ASP761  ALA762  ILE779  LEU786  VAL792 
 PHE793  MET794  SER795  GLU796  ALA797  LYS798  CYS799  TRP800  GLU811  SER814 

> <Gold.Protein.RotatedAtoms>
  151.2514  133.4348  159.2611 H   0  0  0  0  0  0  0  0  0  0  0  0  # atno 6907 bound_to 6896
  151.0614  134.9739  159.8272 H   0  0  0  0  0  0  0  0  0  0  0  0  # atno 6908 bound_to 6896
  152.5399  134.2464  159.8934 H   0  0  0  0  0  0  0  0  0  0  0  0  # atno 6909 bound_to 6896
  145.7652  139.2818  143.1353 H   0  0  0  0  0  0  0  0  0  0  0  0  # atno 7974 bound_to 7965
  154.5267  140.0775  156.8271 H   0  0  0  0  0  0  0  0  0  0  0  0  # atno 8008 bound_to 7997
  155.3461  140.3410  155.4221 H   0  0  0  0  0  0  0  0  0  0  0  0  # atno 8009 bound_to 7997
  156.1739  140.1629  156.8385 H   0  0  0  0  0  0  0  0  0  0  0  0  # atno 8010 bound_to 7997
  140.5832  143.2330  151.6299 H   0  0  0  0  0  0  0  0  0  0  0  0  # atno 10167 bound_to 10162
  157.4790  130.8303  149.8072 H   0  0  0  0  0  0  0  0  0  0  0  0  # atno 10718 bound_to 10713
  154.3196  135.6199  153.5501 H   0  0  0  0  0  0  0  0  0  0  0  0  # atno 10763 bound_to 10752
  152.9821  135.5720  154.5085 H   0  0  0  0  0  0  0  0  0  0  0  0  # atno 10764 bound_to 10752
  154.4751  135.2861  155.1590 H   0  0  0  0  0  0  0  0  0  0  0  0  # atno 10765 bound_to 10752
  140.2869  134.7705  157.3806 H   0  0  0  0  0  0  0  0  0  0  0  0  # atno 11005 bound_to 11000
  146.0224  140.8335  142.9916 LP  0  0  0  0  0  0  0  0  0  0  0  0  # atno 17320 bound_to 7965
  144.6823  140.2649  143.7314 LP  0  0  0  0  0  0  0  0  0  0  0  0  # atno 17321 bound_to 7965
  139.5182  144.3292  152.0841 LP  0  0  0  0  0  0  0  0  0  0  0  0  # atno 17342 bound_to 10162
  140.2445  144.4234  150.6246 LP  0  0  0  0  0  0  0  0  0  0  0  0  # atno 17343 bound_to 10162
  156.0112  130.3832  150.2260 LP  0  0  0  0  0  0  0  0  0  0  0  0  # atno 17370 bound_to 10713
  157.0445  131.0045  151.3273 LP  0  0  0  0  0  0  0  0  0  0  0  0  # atno 17371 bound_to 10713
  140.1231  134.5193  155.8167 LP  0  0  0  0  0  0  0  0  0  0  0  0  # atno 17394 bound_to 11000
  141.2153  133.6763  156.6902 LP  0  0  0  0  0  0  0  0  0  0  0  0  # atno 17395 bound_to 11000

$$$$
