AV-unprocessed.smi:2865|AV-procd|sdf|11018|dock2
  -GOLD-   2272015483D 1   1.00000     0.00000
 Structure written by MMmdl.
 38 41  0  0  0  0  0  0  0  0  1 V2000
  150.5838  140.6629  156.5817 O   0  0  0  0  0  0  0  0  0  0  0  0
  150.1209  141.7301  156.1861 C   0  0  0  0  0  0  0  0  0  0  0  0
  149.1183  141.8500  155.2937 N   0  0  0  0  0  0  0  0  0  0  0  0
  148.4366  140.8296  154.5777 C   0  0  0  0  0  0  0  0  0  0  0  0
  147.3328  141.1849  153.7741 C   0  0  0  0  0  0  0  0  0  0  0  0
  146.6476  140.2720  153.0528 N   0  0  0  0  0  0  0  0  0  0  0  0
  147.0605  139.0046  153.1365 C   0  0  0  0  0  0  0  0  0  0  0  0
  146.3246  138.0007  152.3045 C   0  0  0  0  0  0  0  0  0  0  0  0
  144.9184  137.5707  152.6698 C   0  0  0  0  0  0  0  0  0  0  0  0
  146.0587  136.6040  152.8280 C   0  0  0  0  0  0  0  0  0  0  0  0
  148.1010  138.5519  153.8412 N   0  0  0  0  0  0  0  0  0  0  0  0
  148.7916  139.4578  154.5671 C   0  0  0  0  0  0  0  0  0  0  0  0
  150.5800  142.9028  156.6566 N   0  0  0  0  0  0  0  0  0  0  0  0
  151.6517  143.1269  157.6283 C   0  0  1  0  0  0  0  0  0  0  0  0
  151.7575  144.5911  158.0750 C   0  0  0  0  0  0  0  0  0  0  0  0
  151.5558  144.4751  159.5918 C   0  0  2  0  0  0  0  0  0  0  0  0
  152.7469  143.7966  160.2846 C   0  0  0  0  0  0  0  0  0  0  0  0
  152.5738  142.3396  159.8551 C   0  0  0  0  0  0  0  0  0  0  0  0
  151.3309  142.4264  158.9596 C   0  0  1  0  0  0  0  0  0  0  0  0
  150.5985  143.4329  159.6391 O   0  0  0  0  0  0  0  0  0  0  0  0
  148.7900  142.7896  155.1248 H   0  0  0  0  0  0  0  0  0  0  0  0
  146.9958  142.2090  153.7062 H   0  0  0  0  0  0  0  0  0  0  0  0
  146.5650  138.1106  151.2487 H   0  0  0  0  0  0  0  0  0  0  0  0
  144.4804  137.9804  153.5781 H   0  0  0  0  0  0  0  0  0  0  0  0
  144.2201  137.3949  151.8542 H   0  0  0  0  0  0  0  0  0  0  0  0
  146.1233  135.7819  152.1182 H   0  0  0  0  0  0  0  0  0  0  0  0
  146.3796  136.3707  153.8415 H   0  0  0  0  0  0  0  0  0  0  0  0
  149.6346  139.0650  155.1126 H   0  0  0  0  0  0  0  0  0  0  0  0
  150.1155  143.7344  156.3210 H   0  0  0  0  0  0  0  0  0  0  0  0
  152.5968  142.7542  157.2291 H   0  0  0  0  0  0  0  0  0  0  0  0
  152.7167  145.0415  157.8175 H   0  0  0  0  0  0  0  0  0  0  0  0
  150.9688  145.2034  157.6355 H   0  0  0  0  0  0  0  0  0  0  0  0
  151.2353  145.4023  160.0675 H   0  0  0  0  0  0  0  0  0  0  0  0
  153.7026  144.2201  159.9743 H   0  0  0  0  0  0  0  0  0  0  0  0
  152.6687  143.8862  161.3688 H   0  0  0  0  0  0  0  0  0  0  0  0
  153.4432  141.9445  159.3287 H   0  0  0  0  0  0  0  0  0  0  0  0
  152.3822  141.7059  160.7216 H   0  0  0  0  0  0  0  0  0  0  0  0
  150.8028  141.4778  158.8549 H   0  0  0  0  0  0  0  0  0  0  0  0
  1  2  2  0  0  0  0
  2  3  1  0  0  0  0
  2 13  1  0  0  0  0
  3  4  1  0  0  0  0
  3 21  1  0  0  0  0
  4 12  1  0  0  0  0
  4  5  2  0  0  0  0
  5  6  1  0  0  0  0
  5 22  1  0  0  0  0
  6  7  2  0  0  0  0
  7  8  1  0  0  0  0
  7 11  1  0  0  0  0
  8 10  1  0  0  0  0
  8  9  1  0  0  0  0
  8 23  1  0  0  0  0
  9 10  1  0  0  0  0
  9 24  1  0  0  0  0
  9 25  1  0  0  0  0
 10 26  1  0  0  0  0
 10 27  1  0  0  0  0
 11 12  2  0  0  0  0
 12 28  1  0  0  0  0
 13 14  1  0  0  0  0
 13 29  1  0  0  0  0
 14 19  1  0  0  0  0
 14 15  1  0  0  0  0
 14 30  1  0  0  0  0
 15 16  1  0  0  0  0
 15 31  1  0  0  0  0
 15 32  1  0  0  0  0
 16 20  1  0  0  0  0
 16 17  1  0  0  0  0
 16 33  1  0  0  0  0
 17 18  1  0  0  0  0
 17 34  1  0  0  0  0
 17 35  1  0  0  0  0
 18 19  1  0  0  0  0
 18 36  1  0  0  0  0
 18 37  1  0  0  0  0
 19 20  1  0  0  0  0
 19 38  1  0  0  0  0
M  END
> <s_m_source_file>
AV-unprocessed.smi

> <i_m_source_file_index>
2865

> <i_lp_mmshare_version>
43012

> <i_f3d_flags>
0

> <s_epik_input>
W0NIMl0xW0NIMl1bQ0BIXShPMilbQ0BASF0oW0NIMl1bQ0BASF0xMilbTkhdQyg9TylbTkhdYzNbY0hdbmMobltjSF0zKVtDSF00W0NIMl1bQ0gyXTQ=

> <s_epik_cmdline>
J2VwaWtfcHl0aG9uJywgJy1waCcsICc3LjAnLCAnLXRuJywgJzgnLCAnLW1hJywgJzIwMCcsICctbWV0YWxfYmluZGluZycsICctaW1hZScsICc8aW5maWxlLm1hZT4nLCAnLW9tYWUnLCAnPG91dGZpbGUubWFlPic=

> <r_lp_tautomer_probability>
1

> <r_epik_Ionization_Penalty>
2.43104e-05

> <r_epik_Ionization_Penalty_Charging>
0

> <r_epik_Ionization_Penalty_Neutral>
2.43104e-05

> <r_epik_State_Penalty>
-0

> <r_epik_Charging_Adjusted_Penalty>
0

> <i_epik_Tot_Q>
0

> <i_epik_Tot_abs_Q>
0

> <r_epik_Metal_State_Penalty>
-0

> <b_epik_Metal_Only>
0

> <s_lp_Force_Field>
OPLS_2005

> <r_lp_Energy>
45.9934

> <b_lp_Chiralities_Consistent>
1

> <s_lp_Variant>
AV-unprocessed.smi:2865-4

> <Gold.Version>
5.8.1

> <Gold.Id.Protein>
6NUR|6NUR_protein|mol2

> <Gold.PLP.Fitness>
42.0190

> <Gold.PLP.PLP>
-36.8586

> <Gold.PLP.part.hbond>
-2.5898

> <Gold.PLP.part.metal>
0.0000

> <Gold.PLP.part.buried>
-3.1262

> <Gold.PLP.part.nonpolar>
-33.3075

> <Gold.PLP.part.repulsive>
1.5371

> <Gold.PLP.ligand.clash>
0.0000

> <Gold.PLP.ligand.torsion>
0.4581

> <Gold.PLP.Chemscore.Hbond>
1.9760

> <Gold.PLP.Chemscore.CHOScore>
0.0000

> <Gold.PLP.Chemscore.Metal>
0.0000

> <Gold.Chemscore.Hbonds>
donor molecule, donor type, donor heavy atom, donor atom, acceptor molecule, acceptor atom, score
      L1  H     3    21       P1  8028  0.96
      L1  H    13    29       P1  8028  1.00

> <Gold.PLP.Chemscore.Internal.Correction>
0.1485

> <Gold.Rescore>
     Score         DG    S(hbond)    S(metal)    S(lipo)     H(rot)  DE(clash)    DE(int)     intcor
     19.70     -21.05       1.97        0.00     103.27       1.20       0.21       1.14       ----

> <Gold.Chemscore.Fitness>
19.7038

> <Gold.Chemscore.DG>
-21.0513

> <Gold.Chemscore.ZeroCoef>
-5.4800

> <Gold.Chemscore.Hbond>
1.9652

> <Gold.Chemscore.Metal>
0.0000

> <Gold.Chemscore.Lipo>
103.2695

> <Gold.Chemscore.Internal_Hbond>
0.0000

> <Gold.Chemscore.DEClash>
0.2124

> <Gold.Chemscore.DEInternal>
1.1351

> <Gold.Chemscore.Rot>
1.2012

> <Gold.Chemscore.Internal.Correction>
   9.000000E+99

> <Gold.Chemscore.Hbonds>
donor molecule, donor type, donor heavy atom, donor atom, acceptor molecule, acceptor atom, score
      L1  H     3    21       P1  8028  0.89
      L1  H    13    29       P1  8028  1.00

> <Gold.Chemscore.Hbond.Weighted>
-6.5639

> <Gold.Chemscore.Metal.Weighted>
-0.0000

> <Gold.Chemscore.Lipo.Weighted>
-12.0825

> <Gold.Chemscore.Internal_Hbond.Weighted>
0.0000

> <Gold.Chemscore.DEClash.Weighted>
0.2124

> <Gold.Chemscore.DEInternal.Weighted>
1.1351

> <Gold.Chemscore.Rot.Weighted>
3.0752

> <Gold.Chemscore.Internal.Correction.Weighted>
   9.000000E+99

> <Gold.Protein.RotatedTorsions>
[ 6907 6896 6895 6894 ] final  -59.01 input  -60.11 | X-H torsion
[ 7974 7965 7964 7962 ] final -136.78 input  175.53 | X-H torsion
[ 8008 7997 7996 7995 ] final  157.33 input   59.86 | X-H torsion
[ 10167 10162 10161 10158 ] final  153.73 input  -65.29 | X-H torsion
[ 10718 10713 10712 10709 ] final   23.54 input   66.30 | X-H torsion
[ 10763 10752 10751 10750 ] final   51.54 input  -60.55 | X-H torsion
[ 11005 11000 10999 10996 ] final   17.29 input  -57.11 | X-H torsion

> <Gold.Protein.ActiveResidues>
 VAL166  LYS551  ARG553  GLY616  TRP617  ASP618  TYR619  PRO620  LYS621  CYS622 
 ASP623  PHE694  ASN695  SER759  ASP760  ASP761  ALA762  ILE779  LEU786  VAL792 
 PHE793  MET794  SER795  GLU796  ALA797  LYS798  CYS799  TRP800  GLU811  SER814 

> <Gold.Protein.RotatedAtoms>
  150.7963  134.7025  159.6557 H   0  0  0  0  0  0  0  0  0  0  0  0  # atno 6907 bound_to 6896
  152.4075  134.6178  160.0052 H   0  0  0  0  0  0  0  0  0  0  0  0  # atno 6908 bound_to 6896
  151.6430  133.3288  159.3170 H   0  0  0  0  0  0  0  0  0  0  0  0  # atno 6909 bound_to 6896
  144.8897  140.6625  143.5153 H   0  0  0  0  0  0  0  0  0  0  0  0  # atno 7974 bound_to 7965
  156.2370  140.1888  156.7091 H   0  0  0  0  0  0  0  0  0  0  0  0  # atno 8008 bound_to 7997
  154.6126  140.0620  156.9540 H   0  0  0  0  0  0  0  0  0  0  0  0  # atno 8009 bound_to 7997
  155.1992  140.3291  155.4348 H   0  0  0  0  0  0  0  0  0  0  0  0  # atno 8010 bound_to 7997
  139.4826  144.5248  151.7818 H   0  0  0  0  0  0  0  0  0  0  0  0  # atno 10167 bound_to 10162
  157.1675  130.6745  149.6066 H   0  0  0  0  0  0  0  0  0  0  0  0  # atno 10718 bound_to 10713
  152.9785  135.5842  154.4432 H   0  0  0  0  0  0  0  0  0  0  0  0  # atno 10763 bound_to 10752
  154.4031  135.2769  155.2086 H   0  0  0  0  0  0  0  0  0  0  0  0  # atno 10764 bound_to 10752
  154.3908  135.6125  153.5896 H   0  0  0  0  0  0  0  0  0  0  0  0  # atno 10765 bound_to 10752
  140.4376  134.1355  155.7687 H   0  0  0  0  0  0  0  0  0  0  0  0  # atno 11005 bound_to 11000
  145.3805  139.1638  143.4283 LP  0  0  0  0  0  0  0  0  0  0  0  0  # atno 17320 bound_to 7965
  146.3046  140.3885  142.8692 LP  0  0  0  0  0  0  0  0  0  0  0  0  # atno 17321 bound_to 7965
  140.4767  144.1509  150.5926 LP  0  0  0  0  0  0  0  0  0  0  0  0  # atno 17342 bound_to 10162
  140.4323  143.2563  151.9580 LP  0  0  0  0  0  0  0  0  0  0  0  0  # atno 17343 bound_to 10162
  155.9743  130.4690  150.6381 LP  0  0  0  0  0  0  0  0  0  0  0  0  # atno 17370 bound_to 10713
  157.4074  131.0819  151.1252 LP  0  0  0  0  0  0  0  0  0  0  0  0  # atno 17371 bound_to 10713
  141.1719  133.8591  157.1543 LP  0  0  0  0  0  0  0  0  0  0  0  0  # atno 17394 bound_to 11000
  140.0091  134.9995  157.0357 LP  0  0  0  0  0  0  0  0  0  0  0  0  # atno 17395 bound_to 11000

$$$$
