AV-unprocessed.smi:112|AV-procd|sdf|1085|dock7
  -GOLD-   2262018183D 1   1.00000     0.00000
 Structure written by MMmdl.
 54 57  0  0  0  0  0  0  0  0  3 V2000
  146.1470  128.3729  152.7710 C   0  0  0  0  0  0  0  0  0  0  0  0
  146.6999  129.7894  152.7874 C   0  0  0  0  0  0  0  0  0  0  0  0
  146.3197  130.7199  151.8816 C   0  0  0  0  0  0  0  0  0  0  0  0
  146.8016  132.0166  151.8711 N   0  0  0  0  0  0  0  0  0  0  0  0
  146.3301  133.0411  150.8624 C   0  0  2  0  0  0  0  0  0  0  0  0
  145.6059  134.1955  151.5727 C   0  0  0  0  0  0  0  0  0  0  0  0
  144.4209  134.4453  150.6612 C   0  0  2  0  0  0  0  0  0  0  0  0
  143.3344  134.9914  151.3807 O   0  0  0  0  0  0  0  0  0  0  0  0
  144.1354  133.0300  150.1549 C   0  0  1  0  0  0  0  0  0  0  0  0
  143.2931  132.8988  148.8743 C   0  0  0  0  0  0  0  0  0  0  0  0
  143.4830  133.9942  148.0035 O   0  0  0  0  0  0  0  0  0  0  0  0
  145.4228  132.4500  149.9759 O   0  0  0  0  0  0  0  0  0  0  0  0
  147.7252  132.4250  152.8531 C   0  0  0  0  0  0  0  0  0  0  0  0
  148.1413  133.5856  152.8821 O   0  0  0  0  0  0  0  0  0  0  0  0
  148.1503  131.4748  153.8083 N   0  0  0  0  0  0  0  0  0  0  0  0
  149.1090  131.9050  154.8513 C   0  0  0  0  0  0  0  0  0  0  0  0
  148.4397  132.2932  156.1887 C   0  0  0  0  0  0  0  0  0  0  0  0
  147.6430  131.5081  156.7041 O   0  0  0  0  0  0  0  0  0  0  0  0
  148.7698  133.4874  156.7405 N   0  0  0  0  0  0  0  0  0  0  0  0
  149.7321  134.4246  156.1352 C   0  0  0  0  0  0  0  0  0  0  0  0
  149.8370  135.6242  157.1017 C   0  0  0  0  0  0  0  0  0  0  0  0
  148.8690  135.2676  158.1905 C   0  0  0  0  0  0  0  0  0  0  0  0
  148.5621  136.0376  159.3248 C   0  0  0  0  0  0  0  0  0  0  0  0
  147.6184  135.5385  160.2564 C   0  0  0  0  0  0  0  0  0  0  0  0
  147.2722  136.3195  161.4605 N   0  3  0  0  0  0  0  0  0  0  0  0
  146.6632  135.7565  162.3645 O   0  0  0  0  0  0  0  0  0  0  0  0
  147.6092  137.4984  161.5046 O   0  5  0  0  0  0  0  0  0  0  0  0
  147.0112  134.2773  160.0152 C   0  0  0  0  0  0  0  0  0  0  0  0
  147.3307  133.5170  158.8689 C   0  0  0  0  0  0  0  0  0  0  0  0
  148.2746  134.0335  157.9547 C   0  0  0  0  0  0  0  0  0  0  0  0
  147.6672  130.1434  153.8293 C   0  0  0  0  0  0  0  0  0  0  0  0
  148.0476  129.3508  154.6930 O   0  0  0  0  0  0  0  0  0  0  0  0
  145.4515  128.2174  151.9458 H   0  0  0  0  0  0  0  0  0  0  0  0
  145.6153  128.1618  153.6993 H   0  0  0  0  0  0  0  0  0  0  0  0
  146.9547  127.6478  152.6652 H   0  0  0  0  0  0  0  0  0  0  0  0
  145.5973  130.4214  151.1374 H   0  0  0  0  0  0  0  0  0  0  0  0
  147.2108  133.3504  150.2970 H   0  0  0  0  0  0  0  0  0  0  0  0
  145.2728  133.8644  152.5585 H   0  0  0  0  0  0  0  0  0  0  0  0
  146.2598  135.0598  151.6922 H   0  0  0  0  0  0  0  0  0  0  0  0
  144.7149  135.1136  149.8513 H   0  0  0  0  0  0  0  0  0  0  0  0
  142.5315  134.6505  151.0165 H   0  0  0  0  0  0  0  0  0  0  0  0
  143.6462  132.4620  150.9486 H   0  0  0  0  0  0  0  0  0  0  0  0
  143.5289  131.9707  148.3532 H   0  0  0  0  0  0  0  0  0  0  0  0
  142.2349  132.8591  149.1336 H   0  0  0  0  0  0  0  0  0  0  0  0
  144.3655  133.9589  147.6668 H   0  0  0  0  0  0  0  0  0  0  0  0
  149.8477  131.1263  155.0459 H   0  0  0  0  0  0  0  0  0  0  0  0
  149.6984  132.7454  154.4831 H   0  0  0  0  0  0  0  0  0  0  0  0
  150.7072  133.9541  156.0018 H   0  0  0  0  0  0  0  0  0  0  0  0
  149.3764  134.7607  155.1602 H   0  0  0  0  0  0  0  0  0  0  0  0
  150.8431  135.7304  157.5086 H   0  0  0  0  0  0  0  0  0  0  0  0
  149.5486  136.5605  156.6227 H   0  0  0  0  0  0  0  0  0  0  0  0
  149.0463  136.9922  159.4704 H   0  0  0  0  0  0  0  0  0  0  0  0
  146.2887  133.8776  160.7115 H   0  0  0  0  0  0  0  0  0  0  0  0
  146.8453  132.5649  158.7229 H   0  0  0  0  0  0  0  0  0  0  0  0
  1  2  1  0  0  0  0
  1 33  1  0  0  0  0
  1 34  1  0  0  0  0
  1 35  1  0  0  0  0
  2 31  1  0  0  0  0
  2  3  2  0  0  0  0
  3  4  1  0  0  0  0
  3 36  1  0  0  0  0
  4  5  1  0  0  0  0
  4 13  1  0  0  0  0
  5 12  1  0  0  0  0
  5  6  1  0  0  0  0
  5 37  1  0  0  0  0
  6  7  1  0  0  0  0
  6 38  1  0  0  0  0
  6 39  1  0  0  0  0
  7  8  1  0  0  0  0
  7  9  1  0  0  0  0
  7 40  1  0  0  0  0
  8 41  1  0  0  0  0
  9 10  1  0  0  0  0
  9 12  1  0  0  0  0
  9 42  1  0  0  0  0
 10 11  1  0  0  0  0
 10 43  1  0  0  0  0
 10 44  1  0  0  0  0
 11 45  1  0  0  0  0
 13 14  2  0  0  0  0
 13 15  1  0  0  0  0
 15 16  1  0  0  0  0
 15 31  1  0  0  0  0
 16 17  1  0  0  0  0
 16 46  1  0  0  0  0
 16 47  1  0  0  0  0
 17 18  2  0  0  0  0
 17 19  1  0  0  0  0
 19 30  1  0  0  0  0
 19 20  1  0  0  0  0
 20 21  1  0  0  0  0
 20 48  1  0  0  0  0
 20 49  1  0  0  0  0
 21 22  1  0  0  0  0
 21 50  1  0  0  0  0
 21 51  1  0  0  0  0
 22 30  2  0  0  0  0
 22 23  1  0  0  0  0
 23 24  2  0  0  0  0
 23 52  1  0  0  0  0
 24 25  1  0  0  0  0
 24 28  1  0  0  0  0
 25 26  2  0  0  0  0
 25 27  1  0  0  0  0
 28 29  2  0  0  0  0
 28 53  1  0  0  0  0
 29 30  1  0  0  0  0
 29 54  1  0  0  0  0
 31 32  2  0  0  0  0
M  CHG  1  25   1
M  CHG  1  27  -1
M  END
> <s_m_source_file>
AV-unprocessed.smi

> <i_m_source_file_index>
112

> <i_lp_mmshare_version>
43012

> <i_f3d_flags>
0

> <s_epik_input>
W09IXVtDSDJdW0NAQEhdKE8xKVtDQEhdKFtPSF0pW0NIMl1bQ0BIXTFuKFtjSF1jMltDSDNdKWMoPU8pbihjMj1PKVtDSDJdQyg9TylOKFtDSDJdW0NIMl0zKWMoYzM0KVtjSF1bY0hdYyhbY0hdNClbTitdKD1PKVtPLV0=

> <s_epik_cmdline>
J2VwaWtfcHl0aG9uJywgJy1waCcsICc3LjAnLCAnLXRuJywgJzgnLCAnLW1hJywgJzIwMCcsICctbWV0YWxfYmluZGluZycsICctaW1hZScsICc8aW5maWxlLm1hZT4nLCAnLW9tYWUnLCAnPG91dGZpbGUubWFlPic=

> <r_lp_tautomer_probability>
1

> <r_epik_Ionization_Penalty>
2.5696e-07

> <r_epik_Ionization_Penalty_Charging>
1.04886e-08

> <r_epik_Ionization_Penalty_Neutral>
2.46472e-07

> <r_epik_State_Penalty>
-0

> <r_epik_Charging_Adjusted_Penalty>
1.04886e-08

> <i_epik_Tot_Q>
0

> <i_epik_Tot_abs_Q>
2

> <r_epik_Metal_State_Penalty>
-0

> <b_epik_Metal_Only>
0

> <s_epik_Chemistry_Notes>
This compound contains an acetal/aminal-like group ( X-CH(R)-Y where X, Y are N, S, or O) that may be acid/base labile, releasing an aldehyde.

> <s_lp_Force_Field>
OPLS_2005

> <r_lp_Energy>
57.8842

> <b_lp_Chiralities_Consistent>
1

> <s_lp_Variant>
AV-unprocessed.smi:112-3

> <Gold.Version>
5.8.1

> <Gold.Id.Protein>
6NUR|6NUR_protein|mol2

> <Gold.PLP.Fitness>
54.8988

> <Gold.PLP.PLP>
-43.4456

> <Gold.PLP.part.hbond>
-6.8849

> <Gold.PLP.part.metal>
0.0000

> <Gold.PLP.part.buried>
-0.3704

> <Gold.PLP.part.nonpolar>
-38.1484

> <Gold.PLP.part.repulsive>
1.6649

> <Gold.PLP.ligand.clash>
0.0000

> <Gold.PLP.ligand.torsion>
0.8538

> <Gold.PLP.Chemscore.Hbond>
4.3806

> <Gold.PLP.Chemscore.CHOScore>
0.0000

> <Gold.PLP.Chemscore.Metal>
0.0000

> <Gold.Chemscore.Hbonds>
donor molecule, donor type, donor heavy atom, donor atom, acceptor molecule, acceptor atom, score
      L1  H     8    41       P1 10186  0.44
      L1  H    11    45       P1  7921  0.94
      P1  H  6931  6943       L1    27  0.82
      P1  H  6934  6947       L1    27  0.74
      P1  H 10192 10197       L1    11  0.93

> <Gold.PLP.Chemscore.Internal.Correction>
0.0190

> <Gold.Rescore>
     Score         DG    S(hbond)    S(metal)    S(lipo)     H(rot)  DE(clash)    DE(int)     intcor
     13.28     -19.62       3.67        0.00      88.12       3.29       2.57       3.77       ----

> <Gold.Chemscore.Fitness>
13.2817

> <Gold.Chemscore.DG>
-19.6194

> <Gold.Chemscore.ZeroCoef>
-5.4800

> <Gold.Chemscore.Hbond>
3.6694

> <Gold.Chemscore.Metal>
0.0000

> <Gold.Chemscore.Lipo>
88.1196

> <Gold.Chemscore.Internal_Hbond>
0.0000

> <Gold.Chemscore.DEClash>
2.5714

> <Gold.Chemscore.DEInternal>
3.7662

> <Gold.Chemscore.Rot>
3.2916

> <Gold.Chemscore.Internal.Correction>
   9.000000E+99

> <Gold.Chemscore.Hbonds>
donor molecule, donor type, donor heavy atom, donor atom, acceptor molecule, acceptor atom, score
      L1  H     8    41       P1 10186  0.02
      L1  H    11    45       P1  7921  0.90
      P1  H  6931  6943       L1    27  0.81
      P1  H  6934  6947       L1    27  0.74
      P1  H 10192 10197       L1    11  0.88

> <Gold.Chemscore.Hbond.Weighted>
-12.2559

> <Gold.Chemscore.Metal.Weighted>
-0.0000

> <Gold.Chemscore.Lipo.Weighted>
-10.3100

> <Gold.Chemscore.Internal_Hbond.Weighted>
0.0000

> <Gold.Chemscore.DEClash.Weighted>
2.5714

> <Gold.Chemscore.DEInternal.Weighted>
3.7662

> <Gold.Chemscore.Rot.Weighted>
8.4265

> <Gold.Chemscore.Internal.Correction.Weighted>
   9.000000E+99

> <Gold.Protein.RotatedTorsions>
[ 6907 6896 6895 6894 ] final   64.12 input  -60.11 | X-H torsion
[ 7974 7965 7964 7962 ] final   -5.80 input  175.53 | X-H torsion
[ 8008 7997 7996 7995 ] final  -83.57 input   59.86 | X-H torsion
[ 10167 10162 10161 10158 ] final   14.73 input  -65.29 | X-H torsion
[ 10718 10713 10712 10709 ] final -167.46 input   66.30 | X-H torsion
[ 10763 10752 10751 10750 ] final -110.18 input  -60.55 | X-H torsion
[ 11005 11000 10999 10996 ] final  102.44 input  -57.11 | X-H torsion

> <Gold.Protein.ActiveResidues>
 VAL166  LYS551  ARG553  GLY616  TRP617  ASP618  TYR619  PRO620  LYS621  CYS622 
 ASP623  PHE694  ASN695  SER759  ASP760  ASP761  ALA762  ILE779  LEU786  VAL792 
 PHE793  MET794  SER795  GLU796  ALA797  LYS798  CYS799  TRP800  GLU811  SER814 

> <Gold.Protein.RotatedAtoms>
  152.4307  134.5783  159.9940 H   0  0  0  0  0  0  0  0  0  0  0  0  # atno 6907 bound_to 6896
  151.5908  133.3361  159.3035 H   0  0  0  0  0  0  0  0  0  0  0  0  # atno 6908 bound_to 6896
  150.8199  134.7438  159.6828 H   0  0  0  0  0  0  0  0  0  0  0  0  # atno 6909 bound_to 6896
  146.2345  140.2075  142.8334 H   0  0  0  0  0  0  0  0  0  0  0  0  # atno 7974 bound_to 7965
  154.6205  140.0617  156.9609 H   0  0  0  0  0  0  0  0  0  0  0  0  # atno 8008 bound_to 7997
  155.1825  140.3300  155.4354 H   0  0  0  0  0  0  0  0  0  0  0  0  # atno 8009 bound_to 7997
  156.2429  140.1895  156.6921 H   0  0  0  0  0  0  0  0  0  0  0  0  # atno 8010 bound_to 7997
  140.5916  143.8785  150.6878 H   0  0  0  0  0  0  0  0  0  0  0  0  # atno 10167 bound_to 10162
  156.6827  130.9128  151.3059 H   0  0  0  0  0  0  0  0  0  0  0  0  # atno 10718 bound_to 10713
  154.8234  135.4573  154.0846 H   0  0  0  0  0  0  0  0  0  0  0  0  # atno 10763 bound_to 10752
  153.2181  135.6890  153.8040 H   0  0  0  0  0  0  0  0  0  0  0  0  # atno 10764 bound_to 10752
  153.7467  135.3304  155.3290 H   0  0  0  0  0  0  0  0  0  0  0  0  # atno 10765 bound_to 10752
  139.8777  134.9224  156.5058 H   0  0  0  0  0  0  0  0  0  0  0  0  # atno 11005 bound_to 11000
  144.9733  140.8390  143.5442 LP  0  0  0  0  0  0  0  0  0  0  0  0  # atno 17320 bound_to 7965
  145.2059  139.2229  143.5168 LP  0  0  0  0  0  0  0  0  0  0  0  0  # atno 17321 bound_to 7965
  140.2309  143.3736  152.1566 LP  0  0  0  0  0  0  0  0  0  0  0  0  # atno 17342 bound_to 10162
  139.5231  144.7067  151.5332 LP  0  0  0  0  0  0  0  0  0  0  0  0  # atno 17343 bound_to 10162
  157.7037  130.9362  150.0865 LP  0  0  0  0  0  0  0  0  0  0  0  0  # atno 17370 bound_to 10713
  156.1855  130.3652  149.8978 LP  0  0  0  0  0  0  0  0  0  0  0  0  # atno 17371 bound_to 10713
  140.8556  133.8098  155.9213 LP  0  0  0  0  0  0  0  0  0  0  0  0  # atno 17394 bound_to 11000
  140.9100  134.2272  157.4991 LP  0  0  0  0  0  0  0  0  0  0  0  0  # atno 17395 bound_to 11000

$$$$
