AV-unprocessed.smi:2792|AV-procd|sdf|10772|dock2
  -GOLD-   2272015203D 1   1.00000     0.00000
 Structure written by MMmdl.
 44 46  0  0  0  0  0  0  0  0  1 V2000
  152.3928  142.2871  159.6962 C   0  0  0  0  0  0  0  0  0  0  0  0
  152.2223  141.8780  158.2232 C   0  0  0  0  0  0  0  0  0  0  0  0
  150.9175  142.3520  157.5370 C   0  0  1  0  0  0  0  0  0  0  0  0
  149.6667  141.6633  158.1237 C   0  0  0  0  0  0  0  0  0  0  0  0
  150.7841  143.7415  157.7692 O   0  0  0  0  0  0  0  0  0  0  0  0
  151.0398  142.1342  156.0058 C   0  0  0  0  0  0  0  0  0  0  0  0
  150.6187  140.8184  155.5470 N   0  0  0  0  0  0  0  0  0  0  0  0
  149.3876  140.4841  155.0269 C   0  0  0  0  0  0  0  0  0  0  0  0
  149.2469  139.2322  154.6850 N   0  0  0  0  0  0  0  0  0  0  0  0
  150.4704  138.6581  155.0052 C   0  0  0  0  0  0  0  0  0  0  0  0
  150.9999  137.3465  154.8963 C   0  0  0  0  0  0  0  0  0  0  0  0
  150.2626  136.3343  154.3881 N   0  0  0  0  0  0  0  0  0  0  0  0
  150.2341  135.0354  155.0531 C   0  0  0  0  0  0  0  0  0  0  0  0
  149.3267  134.0023  154.4036 C   0  0  0  0  0  0  0  0  0  0  0  0
  149.8082  132.7068  154.1160 C   0  0  0  0  0  0  0  0  0  0  0  0
  148.9614  131.7528  153.5188 C   0  0  0  0  0  0  0  0  0  0  0  0
  147.6309  132.0904  153.2041 C   0  0  0  0  0  0  0  0  0  0  0  0
  147.1482  133.3834  153.4848 C   0  0  0  0  0  0  0  0  0  0  0  0
  147.9949  134.3379  154.0815 C   0  0  0  0  0  0  0  0  0  0  0  0
  152.2716  137.1399  155.3293 N   0  0  0  0  0  0  0  0  0  0  0  0
  152.9830  138.1557  155.8279 C   0  0  0  0  0  0  0  0  0  0  0  0
  152.6207  139.4312  155.9841 N   0  0  0  0  0  0  0  0  0  0  0  0
  151.3432  139.6391  155.5538 C   0  0  0  0  0  0  0  0  0  0  0  0
  153.3667  141.9691  160.0689 H   0  0  0  0  0  0  0  0  0  0  0  0
  151.6396  141.8268  160.3348 H   0  0  0  0  0  0  0  0  0  0  0  0
  152.3317  143.3679  159.8242 H   0  0  0  0  0  0  0  0  0  0  0  0
  153.0779  142.2581  157.6629 H   0  0  0  0  0  0  0  0  0  0  0  0
  152.2874  140.7911  158.1586 H   0  0  0  0  0  0  0  0  0  0  0  0
  149.7055  140.5844  157.9710 H   0  0  0  0  0  0  0  0  0  0  0  0
  148.7474  142.0290  157.6661 H   0  0  0  0  0  0  0  0  0  0  0  0
  149.5667  141.8429  159.1937 H   0  0  0  0  0  0  0  0  0  0  0  0
  150.4067  144.1405  156.9999 H   0  0  0  0  0  0  0  0  0  0  0  0
  150.4600  142.8846  155.4662 H   0  0  0  0  0  0  0  0  0  0  0  0
  152.0760  142.2766  155.6959 H   0  0  0  0  0  0  0  0  0  0  0  0
  148.5942  141.2064  154.9006 H   0  0  0  0  0  0  0  0  0  0  0  0
  149.8707  136.3580  153.4578 H   0  0  0  0  0  0  0  0  0  0  0  0
  151.2504  134.6460  155.1271 H   0  0  0  0  0  0  0  0  0  0  0  0
  149.8923  135.1889  156.0768 H   0  0  0  0  0  0  0  0  0  0  0  0
  150.8273  132.4402  154.3551 H   0  0  0  0  0  0  0  0  0  0  0  0
  149.3327  130.7618  153.3023 H   0  0  0  0  0  0  0  0  0  0  0  0
  146.9810  131.3589  152.7470 H   0  0  0  0  0  0  0  0  0  0  0  0
  146.1280  133.6431  153.2433 H   0  0  0  0  0  0  0  0  0  0  0  0
  147.6165  135.3266  154.2966 H   0  0  0  0  0  0  0  0  0  0  0  0
  153.9855  137.9115  156.1469 H   0  0  0  0  0  0  0  0  0  0  0  0
  1  2  1  0  0  0  0
  1 24  1  0  0  0  0
  1 25  1  0  0  0  0
  1 26  1  0  0  0  0
  2  3  1  0  0  0  0
  2 27  1  0  0  0  0
  2 28  1  0  0  0  0
  3  4  1  0  0  0  0
  3  5  1  0  0  0  0
  3  6  1  0  0  0  0
  4 29  1  0  0  0  0
  4 30  1  0  0  0  0
  4 31  1  0  0  0  0
  5 32  1  0  0  0  0
  6  7  1  0  0  0  0
  6 33  1  0  0  0  0
  6 34  1  0  0  0  0
  7 23  1  0  0  0  0
  7  8  1  0  0  0  0
  8  9  2  0  0  0  0
  8 35  1  0  0  0  0
  9 10  1  0  0  0  0
 10 23  2  0  0  0  0
 10 11  1  0  0  0  0
 11 12  1  0  0  0  0
 11 20  2  0  0  0  0
 12 13  1  0  0  0  0
 12 36  1  0  0  0  0
 13 14  1  0  0  0  0
 13 37  1  0  0  0  0
 13 38  1  0  0  0  0
 14 19  1  0  0  0  0
 14 15  2  0  0  0  0
 15 16  1  0  0  0  0
 15 39  1  0  0  0  0
 16 17  2  0  0  0  0
 16 40  1  0  0  0  0
 17 18  1  0  0  0  0
 17 41  1  0  0  0  0
 18 19  2  0  0  0  0
 18 42  1  0  0  0  0
 19 43  1  0  0  0  0
 20 21  1  0  0  0  0
 21 22  2  0  0  0  0
 21 44  1  0  0  0  0
 22 23  1  0  0  0  0
M  END
> <s_m_source_file>
AV-unprocessed.smi

> <i_m_source_file_index>
2792

> <i_lp_mmshare_version>
43012

> <i_f3d_flags>
0

> <s_epik_input>
W0NIM11bQ0gyXVtDQEBdKFtDSDNdKShbT0hdKVtDSDJdbihbY0hdbjEpYyhjMTIpbltjSF1uYzJbTkhdW0NIMl1jM1tjSF1bY0hdW2NIXVtjSF1bY0hdMw==

> <s_epik_cmdline>
J2VwaWtfcHl0aG9uJywgJy1waCcsICc3LjAnLCAnLXRuJywgJzgnLCAnLW1hJywgJzIwMCcsICctbWV0YWxfYmluZGluZycsICctaW1hZScsICc8aW5maWxlLm1hZT4nLCAnLW9tYWUnLCAnPG91dGZpbGUubWFlPic=

> <r_lp_tautomer_probability>
1

> <r_epik_Ionization_Penalty>
0.00163025

> <r_epik_Ionization_Penalty_Charging>
0

> <r_epik_Ionization_Penalty_Neutral>
0.00163025

> <r_epik_State_Penalty>
-0

> <r_epik_Charging_Adjusted_Penalty>
0

> <i_epik_Tot_Q>
0

> <i_epik_Tot_abs_Q>
0

> <r_epik_Metal_State_Penalty>
-0

> <b_epik_Metal_Only>
0

> <s_lp_Force_Field>
OPLS_2005

> <r_lp_Energy>
13.0485

> <b_lp_Chiralities_Consistent>
1

> <s_lp_Variant>
AV-unprocessed.smi:2792-1

> <Gold.Version>
5.8.1

> <Gold.Id.Protein>
6NUR|6NUR_protein|mol2

> <Gold.PLP.Fitness>
50.5134

> <Gold.PLP.PLP>
-41.6843

> <Gold.PLP.part.hbond>
-4.7575

> <Gold.PLP.part.metal>
0.0000

> <Gold.PLP.part.buried>
-4.7247

> <Gold.PLP.part.nonpolar>
-32.7260

> <Gold.PLP.part.repulsive>
0.2266

> <Gold.PLP.ligand.clash>
0.0000

> <Gold.PLP.ligand.torsion>
1.2951

> <Gold.PLP.Chemscore.Hbond>
3.7140

> <Gold.PLP.Chemscore.CHOScore>
0.0000

> <Gold.PLP.Chemscore.Metal>
0.0000

> <Gold.Chemscore.Hbonds>
donor molecule, donor type, donor heavy atom, donor atom, acceptor molecule, acceptor atom, score
      L1  H     5    32       P1  8028  0.86
      L1  H    12    36       P1  7948  0.85
      P1  H  7997  8009       L1    22  0.85
      P1  H 10752 10765       L1    20  0.80

> <Gold.PLP.Chemscore.Internal.Correction>
0.2772

> <Gold.Rescore>
     Score         DG    S(hbond)    S(metal)    S(lipo)     H(rot)  DE(clash)    DE(int)     intcor
     16.36     -17.77       2.80        0.00      80.36       2.52       0.15       1.26       ----

> <Gold.Chemscore.Fitness>
16.3593

> <Gold.Chemscore.DG>
-17.7681

> <Gold.Chemscore.ZeroCoef>
-5.4800

> <Gold.Chemscore.Hbond>
2.7993

> <Gold.Chemscore.Metal>
0.0000

> <Gold.Chemscore.Lipo>
80.3616

> <Gold.Chemscore.Internal_Hbond>
0.0000

> <Gold.Chemscore.DEClash>
0.1505

> <Gold.Chemscore.DEInternal>
1.2584

> <Gold.Chemscore.Rot>
2.5250

> <Gold.Chemscore.Internal.Correction>
   9.000000E+99

> <Gold.Chemscore.Hbonds>
donor molecule, donor type, donor heavy atom, donor atom, acceptor molecule, acceptor atom, score
      L1  H     5    32       P1  8028  0.80
      L1  H    12    36       P1  7948  0.15
      P1  H  7997  8009       L1    22  0.15
      P1  H 10752 10765       L1    20  0.62

> <Gold.Chemscore.Hbond.Weighted>
-9.3498

> <Gold.Chemscore.Metal.Weighted>
-0.0000

> <Gold.Chemscore.Lipo.Weighted>
-9.4023

> <Gold.Chemscore.Internal_Hbond.Weighted>
0.0000

> <Gold.Chemscore.DEClash.Weighted>
0.1505

> <Gold.Chemscore.DEInternal.Weighted>
1.2584

> <Gold.Chemscore.Rot.Weighted>
6.4639

> <Gold.Chemscore.Internal.Correction.Weighted>
   9.000000E+99

> <Gold.Protein.RotatedTorsions>
[ 6907 6896 6895 6894 ] final   22.65 input  -60.11 | X-H torsion
[ 7974 7965 7964 7962 ] final -105.27 input  175.53 | X-H torsion
[ 8008 7997 7996 7995 ] final -161.63 input   59.86 | X-H torsion
[ 10167 10162 10161 10158 ] final  -21.13 input  -65.29 | X-H torsion
[ 10718 10713 10712 10709 ] final   27.72 input   66.30 | X-H torsion
[ 10763 10752 10751 10750 ] final -178.87 input  -60.55 | X-H torsion
[ 11005 11000 10999 10996 ] final  -38.08 input  -57.11 | X-H torsion

> <Gold.Protein.ActiveResidues>
 VAL166  LYS551  ARG553  GLY616  TRP617  ASP618  TYR619  PRO620  LYS621  CYS622 
 ASP623  PHE694  ASN695  SER759  ASP760  ASP761  ALA762  ILE779  LEU786  VAL792 
 PHE793  MET794  SER795  GLU796  ALA797  LYS798  CYS799  TRP800  GLU811  SER814 

> <Gold.Protein.RotatedAtoms>
  151.9304  135.0259  160.0528 H   0  0  0  0  0  0  0  0  0  0  0  0  # atno 6907 bound_to 6896
  152.2123  133.4916  159.5125 H   0  0  0  0  0  0  0  0  0  0  0  0  # atno 6908 bound_to 6896
  150.6979  134.1368  159.4133 H   0  0  0  0  0  0  0  0  0  0  0  0  # atno 6909 bound_to 6896
  145.2326  140.9176  143.3195 H   0  0  0  0  0  0  0  0  0  0  0  0  # atno 7974 bound_to 7965
  155.7950  140.0883  157.1988 H   0  0  0  0  0  0  0  0  0  0  0  0  # atno 8008 bound_to 7997
  154.3984  140.1483  156.3266 H   0  0  0  0  0  0  0  0  0  0  0  0  # atno 8009 bound_to 7997
  155.8520  140.3434  155.5702 H   0  0  0  0  0  0  0  0  0  0  0  0  # atno 8010 bound_to 7997
  140.7280  143.4656  151.0318 H   0  0  0  0  0  0  0  0  0  0  0  0  # atno 10167 bound_to 10162
  157.2240  130.6992  149.6283 H   0  0  0  0  0  0  0  0  0  0  0  0  # atno 10718 bound_to 10713
  154.5422  135.2807  155.1085 H   0  0  0  0  0  0  0  0  0  0  0  0  # atno 10763 bound_to 10752
  154.2563  135.6330  153.5262 H   0  0  0  0  0  0  0  0  0  0  0  0  # atno 10764 bound_to 10752
  152.9982  135.5595  154.5965 H   0  0  0  0  0  0  0  0  0  0  0  0  # atno 10765 bound_to 10752
  141.0000  133.6960  156.2005 H   0  0  0  0  0  0  0  0  0  0  0  0  # atno 11005 bound_to 11000
  144.9662  139.3928  143.6331 LP  0  0  0  0  0  0  0  0  0  0  0  0  # atno 17320 bound_to 7965
  146.3349  139.8738  142.8835 LP  0  0  0  0  0  0  0  0  0  0  0  0  # atno 17321 bound_to 7965
  139.8344  143.7647  152.3180 LP  0  0  0  0  0  0  0  0  0  0  0  0  # atno 17342 bound_to 10162
  139.7774  144.7456  151.0137 LP  0  0  0  0  0  0  0  0  0  0  0  0  # atno 17343 bound_to 10162
  155.9680  130.4510  150.5721 LP  0  0  0  0  0  0  0  0  0  0  0  0  # atno 17370 bound_to 10713
  157.3547  131.0739  151.1685 LP  0  0  0  0  0  0  0  0  0  0  0  0  # atno 17371 bound_to 10713
  140.6904  134.4672  157.5588 LP  0  0  0  0  0  0  0  0  0  0  0  0  # atno 17394 bound_to 11000
  139.9034  134.8504  156.1803 LP  0  0  0  0  0  0  0  0  0  0  0  0  # atno 17395 bound_to 11000

$$$$
