AV-unprocessed.smi:3330|AV-procd|sdf|12804|dock5
  -GOLD-   2272019163D 1   1.00000     0.00000
 Structure written by MMmdl.
 39 40  0  0  0  0  0  0  0  0  2 V2000
  144.6599  135.5707  153.7444 C   0  0  0  0  0  0  0  0  0  0  0  0
  145.8991  135.7852  152.8593 C   0  0  1  0  0  0  0  0  0  0  0  0
  146.8598  136.6361  153.6011 N   0  3  0  0  0  0  0  0  0  0  0  0
  146.3835  138.0011  153.9036 C   0  0  0  0  0  0  0  0  0  0  0  0
  147.0805  139.0365  153.0097 C   0  0  0  0  0  0  0  0  0  0  0  0
  147.8183  140.0149  153.8122 N   0  0  0  0  0  0  0  0  0  0  0  0
  148.9481  139.7475  154.4795 C   0  0  0  0  0  0  0  0  0  0  0  0
  149.5500  138.6757  154.5317 O   0  0  0  0  0  0  0  0  0  0  0  0
  149.3857  141.0028  155.2024 C   0  0  0  0  0  0  0  0  0  0  0  0
  148.3123  141.8887  154.8045 N   0  0  0  0  0  0  0  0  0  0  0  0
  147.4220  141.2862  154.0060 C   0  0  0  0  0  0  0  0  0  0  0  0
  146.4113  141.8132  153.5437 O   0  0  0  0  0  0  0  0  0  0  0  0
  146.5637  134.4473  152.4297 C   0  0  1  0  0  0  0  0  0  0  0  0
  147.0095  133.5771  153.6203 C   0  0  0  0  0  0  0  0  0  0  0  0
  145.6908  133.6759  151.5506 N   0  0  0  0  0  0  0  0  0  0  0  0
  145.9644  132.5148  150.8533 C   0  0  0  0  0  0  0  0  0  0  0  0
  144.8173  132.1418  150.2138 C   0  0  0  0  0  0  0  0  0  0  0  0
  143.8792  133.1425  150.5901 C   0  0  0  0  0  0  0  0  0  0  0  0
  144.4018  134.0526  151.3956 N   0  0  0  0  0  0  0  0  0  0  0  0
  143.8659  135.0494  153.2098 H   0  0  0  0  0  0  0  0  0  0  0  0
  144.2450  136.5245  154.0723 H   0  0  0  0  0  0  0  0  0  0  0  0
  144.9021  134.9904  154.6353 H   0  0  0  0  0  0  0  0  0  0  0  0
  145.5698  136.3202  151.9666 H   0  0  0  0  0  0  0  0  0  0  0  0
  147.0799  136.1839  154.4768 H   0  0  0  0  0  0  0  0  0  0  0  0
  145.3060  138.0589  153.7532 H   0  0  0  0  0  0  0  0  0  0  0  0
  146.5698  138.2177  154.9561 H   0  0  0  0  0  0  0  0  0  0  0  0
  147.7547  138.5363  152.3122 H   0  0  0  0  0  0  0  0  0  0  0  0
  146.3422  139.5512  152.3920 H   0  0  0  0  0  0  0  0  0  0  0  0
  149.4098  140.8591  156.2829 H   0  0  0  0  0  0  0  0  0  0  0  0
  150.3535  141.3570  154.8463 H   0  0  0  0  0  0  0  0  0  0  0  0
  148.2499  142.8491  155.1107 H   0  0  0  0  0  0  0  0  0  0  0  0
  147.4643  134.6861  151.8602 H   0  0  0  0  0  0  0  0  0  0  0  0
  147.8155  134.0476  154.1826 H   0  0  0  0  0  0  0  0  0  0  0  0
  147.3846  132.6111  153.2804 H   0  0  0  0  0  0  0  0  0  0  0  0
  146.1872  133.3893  154.3113 H   0  0  0  0  0  0  0  0  0  0  0  0
  146.9395  132.0509  150.8732 H   0  0  0  0  0  0  0  0  0  0  0  0
  144.6686  131.2820  149.5776 H   0  0  0  0  0  0  0  0  0  0  0  0
  142.8399  133.2301  150.3100 H   0  0  0  0  0  0  0  0  0  0  0  0
  147.7061  136.7016  153.0527 H   0  0  0  0  0  0  0  0  0  0  0  0
  1  2  1  0  0  0  0
  1 20  1  0  0  0  0
  1 21  1  0  0  0  0
  1 22  1  0  0  0  0
  2  3  1  0  0  0  0
  2 13  1  0  0  0  0
  2 23  1  0  0  0  0
  3  4  1  0  0  0  0
  3 24  1  0  0  0  0
  3 39  1  0  0  0  0
  4  5  1  0  0  0  0
  4 25  1  0  0  0  0
  4 26  1  0  0  0  0
  5  6  1  0  0  0  0
  5 27  1  0  0  0  0
  5 28  1  0  0  0  0
  6 11  1  0  0  0  0
  6  7  1  0  0  0  0
  7  8  2  0  0  0  0
  7  9  1  0  0  0  0
  9 10  1  0  0  0  0
  9 29  1  0  0  0  0
  9 30  1  0  0  0  0
 10 11  1  0  0  0  0
 10 31  1  0  0  0  0
 11 12  2  0  0  0  0
 13 14  1  0  0  0  0
 13 15  1  0  0  0  0
 13 32  1  0  0  0  0
 14 33  1  0  0  0  0
 14 34  1  0  0  0  0
 14 35  1  0  0  0  0
 15 19  1  0  0  0  0
 15 16  1  0  0  0  0
 16 17  2  0  0  0  0
 16 36  1  0  0  0  0
 17 18  1  0  0  0  0
 17 37  1  0  0  0  0
 18 19  2  0  0  0  0
 18 38  1  0  0  0  0
M  CHG  1   3   1
M  END
> <s_m_source_file>
AV-unprocessed.smi

> <i_m_source_file_index>
3330

> <i_lp_mmshare_version>
43012

> <i_f3d_flags>
0

> <s_epik_input>
bjFbY0hdW2NIXVtjSF1uMVtDQEBIXShbQ0gzXSlbQ0BIXShbQ0gzXSlbTkhdW0NIMl1bQ0gyXU4yQyg9TylbQ0gyXVtOSF1DMj1P

> <s_epik_cmdline>
J2VwaWtfcHl0aG9uJywgJy1waCcsICc3LjAnLCAnLXRuJywgJzgnLCAnLW1hJywgJzIwMCcsICctbWV0YWxfYmluZGluZycsICctaW1hZScsICc8aW5maWxlLm1hZT4nLCAnLW9tYWUnLCAnPG91dGZpbGUubWFlPic=

> <r_lp_tautomer_probability>
1

> <r_epik_Ionization_Penalty>
0.0124905

> <r_epik_Ionization_Penalty_Charging>
0.0123685

> <r_epik_Ionization_Penalty_Neutral>
0.000122059

> <r_epik_State_Penalty>
0.00957041

> <r_epik_Charging_Adjusted_Penalty>
0.0219389

> <i_epik_Tot_Q>
1

> <i_epik_Tot_abs_Q>
1

> <r_epik_Metal_State_Penalty>
0.0858301

> <b_epik_Metal_Only>
0

> <s_lp_Force_Field>
OPLS_2005

> <r_lp_Energy>
25.1369

> <b_lp_Chiralities_Consistent>
1

> <s_lp_Variant>
AV-unprocessed.smi:3330-4

> <Gold.Version>
5.8.1

> <Gold.Id.Protein>
6NUR|6NUR_protein|mol2

> <Gold.PLP.Fitness>
41.8207

> <Gold.PLP.PLP>
-28.5706

> <Gold.PLP.part.hbond>
-2.0000

> <Gold.PLP.part.metal>
0.0000

> <Gold.PLP.part.buried>
-2.4033

> <Gold.PLP.part.nonpolar>
-24.2064

> <Gold.PLP.part.repulsive>
0.7184

> <Gold.PLP.ligand.clash>
0.0000

> <Gold.PLP.ligand.torsion>
0.9776

> <Gold.PLP.Chemscore.Hbond>
3.0000

> <Gold.PLP.Chemscore.CHOScore>
2.0000

> <Gold.PLP.Chemscore.Metal>
0.0000

> <Gold.Chemscore.Hbonds>
donor molecule, donor type, donor heavy atom, donor atom, acceptor molecule, acceptor atom, score
      L1  H     3    39       P1  7948  2.00
      L1  H    10    31       P1  8028  1.00
      L1  C    16    36       P1 10747  1.00
      L1  C    18    38       P1 10186  1.00

> <Gold.PLP.Chemscore.Internal.Correction>
0.2054

> <Gold.Rescore>
     Score         DG    S(hbond)    S(metal)    S(lipo)     H(rot)  DE(clash)    DE(int)     intcor
      9.98     -11.42       1.99        0.00      52.27       2.67       0.05       1.39       ----

> <Gold.Chemscore.Fitness>
9.9754

> <Gold.Chemscore.DG>
-11.4154

> <Gold.Chemscore.ZeroCoef>
-5.4800

> <Gold.Chemscore.Hbond>
1.9900

> <Gold.Chemscore.Metal>
0.0000

> <Gold.Chemscore.Lipo>
52.2675

> <Gold.Chemscore.Internal_Hbond>
0.0000

> <Gold.Chemscore.DEClash>
0.0456

> <Gold.Chemscore.DEInternal>
1.3943

> <Gold.Chemscore.Rot>
2.6666

> <Gold.Chemscore.Internal.Correction>
   9.000000E+99

> <Gold.Chemscore.Hbonds>
donor molecule, donor type, donor heavy atom, donor atom, acceptor molecule, acceptor atom, score
      L1  H     3    39       P1  7948  0.99
      L1  H    10    31       P1  8028  0.92

> <Gold.Chemscore.Hbond.Weighted>
-6.6465

> <Gold.Chemscore.Metal.Weighted>
-0.0000

> <Gold.Chemscore.Lipo.Weighted>
-6.1153

> <Gold.Chemscore.Internal_Hbond.Weighted>
0.0000

> <Gold.Chemscore.DEClash.Weighted>
0.0456

> <Gold.Chemscore.DEInternal.Weighted>
1.3943

> <Gold.Chemscore.Rot.Weighted>
6.8265

> <Gold.Chemscore.Internal.Correction.Weighted>
   9.000000E+99

> <Gold.Protein.RotatedTorsions>
[ 6907 6896 6895 6894 ] final   15.26 input  -60.11 | X-H torsion
[ 7974 7965 7964 7962 ] final  -74.42 input  175.53 | X-H torsion
[ 8008 7997 7996 7995 ] final   50.75 input   59.86 | X-H torsion
[ 10167 10162 10161 10158 ] final -141.82 input  -65.29 | X-H torsion
[ 10718 10713 10712 10709 ] final  -26.93 input   66.30 | X-H torsion
[ 10763 10752 10751 10750 ] final  -55.69 input  -60.55 | X-H torsion
[ 11005 11000 10999 10996 ] final  -68.22 input  -57.11 | X-H torsion

> <Gold.Protein.ActiveResidues>
 VAL166  LYS551  ARG553  GLY616  TRP617  ASP618  TYR619  PRO620  LYS621  CYS622 
 ASP623  PHE694  ASN695  SER759  ASP760  ASP761  ALA762  ILE779  LEU786  VAL792 
 PHE793  MET794  SER795  GLU796  ALA797  LYS798  CYS799  TRP800  GLU811  SER814 

> <Gold.Protein.RotatedAtoms>
  151.8153  135.0668  160.0417 H   0  0  0  0  0  0  0  0  0  0  0  0  # atno 6907 bound_to 6896
  152.2991  133.5633  159.5615 H   0  0  0  0  0  0  0  0  0  0  0  0  # atno 6908 bound_to 6896
  150.7265  134.0234  159.3751 H   0  0  0  0  0  0  0  0  0  0  0  0  # atno 6909 bound_to 6896
  145.6394  140.9315  143.1044 H   0  0  0  0  0  0  0  0  0  0  0  0  # atno 7974 bound_to 7965
  155.4239  140.3447  155.4274 H   0  0  0  0  0  0  0  0  0  0  0  0  # atno 8008 bound_to 7997
  156.1376  140.1532  156.9001 H   0  0  0  0  0  0  0  0  0  0  0  0  # atno 8009 bound_to 7997
  154.4945  140.0832  156.7646 H   0  0  0  0  0  0  0  0  0  0  0  0  # atno 8010 bound_to 7997
  139.8147  143.7654  152.2664 H   0  0  0  0  0  0  0  0  0  0  0  0  # atno 10167 bound_to 10162
  156.4448  130.4471  149.7029 H   0  0  0  0  0  0  0  0  0  0  0  0  # atno 10718 bound_to 10713
  154.1947  135.6421  153.5070 H   0  0  0  0  0  0  0  0  0  0  0  0  # atno 10763 bound_to 10752
  153.0026  135.5437  154.6378 H   0  0  0  0  0  0  0  0  0  0  0  0  # atno 10764 bound_to 10752
  154.5776  135.2922  155.0738 H   0  0  0  0  0  0  0  0  0  0  0  0  # atno 10765 bound_to 10752
  141.1527  133.6736  156.6412 H   0  0  0  0  0  0  0  0  0  0  0  0  # atno 11005 bound_to 11000
  144.7163  139.8185  143.7397 LP  0  0  0  0  0  0  0  0  0  0  0  0  # atno 17320 bound_to 7965
  146.1293  139.4325  143.0179 LP  0  0  0  0  0  0  0  0  0  0  0  0  # atno 17321 bound_to 7965
  139.7814  144.7443  151.0083 LP  0  0  0  0  0  0  0  0  0  0  0  0  # atno 17342 bound_to 10162
  140.7816  143.4538  151.0375 LP  0  0  0  0  0  0  0  0  0  0  0  0  # atno 17343 bound_to 10162
  156.3879  130.7612  151.2610 LP  0  0  0  0  0  0  0  0  0  0  0  0  # atno 17370 bound_to 10713
  157.7505  131.0276  150.4014 LP  0  0  0  0  0  0  0  0  0  0  0  0  # atno 17371 bound_to 10713
  140.3392  134.7864  157.4384 LP  0  0  0  0  0  0  0  0  0  0  0  0  # atno 17394 bound_to 11000
  140.0952  134.5546  155.8405 LP  0  0  0  0  0  0  0  0  0  0  0  0  # atno 17395 bound_to 11000

$$$$
