AV-unprocessed.smi:1047|AV-procd|sdf|4591|dock3
  -GOLD-   22720 3 73D 1   1.00000     0.00000
 Structure written by MMmdl.
 57 59  0  0  0  0  0  0  0  0  3 V2000
  145.0997  145.2976  159.3193 C   0  0  0  0  0  0  0  0  0  0  0  0
  143.9105  145.2105  158.3517 C   0  0  0  0  0  0  0  0  0  0  0  0
  144.2702  145.1513  156.9359 N   0  0  0  0  0  0  0  0  0  0  0  0
  143.0993  145.3560  156.0903 C   0  0  0  0  0  0  0  0  0  0  0  0
  143.4528  145.2928  154.5948 C   0  0  0  0  0  0  0  0  0  0  0  0
  144.0818  144.0480  154.3078 O   0  0  0  0  0  0  0  0  0  0  0  0
  145.2659  143.8329  155.0724 C   0  0  2  0  0  0  0  0  0  0  0  0
  145.8544  142.4731  154.6728 C   0  0  0  0  0  0  0  0  0  0  0  0
  147.2788  142.3786  155.0484 N   0  3  0  0  0  0  0  0  0  0  0  0
  148.1123  141.6496  154.0711 C   0  0  0  0  0  0  0  0  0  0  0  0
  149.1614  140.7714  154.7737 C   0  0  1  0  0  0  0  0  0  0  0  0
  150.1130  140.3428  153.8185 O   0  0  0  0  0  0  0  0  0  0  0  0
  149.8743  141.5245  155.9146 C   0  0  0  0  0  0  0  0  0  0  0  0
  150.7688  140.6586  156.6971 N   0  0  0  0  0  0  0  0  0  0  0  0
  151.0846  139.3477  156.5124 C   0  0  0  0  0  0  0  0  0  0  0  0
  151.9558  138.9912  157.4958 N   0  3  0  0  0  0  0  0  0  0  0  0
  152.2006  140.0894  158.3223 C   0  0  0  0  0  0  0  0  0  0  0  0
  153.0097  140.2190  159.4447 C   0  0  0  0  0  0  0  0  0  0  0  0
  153.0453  141.4848  160.0716 C   0  0  0  0  0  0  0  0  0  0  0  0
  153.9206  141.6609  161.3009 C   0  0  0  0  0  0  0  0  0  0  0  0
  152.2826  142.5699  159.5679 C   0  0  0  0  0  0  0  0  0  0  0  0
  152.3287  143.9266  160.2505 C   0  0  0  0  0  0  0  0  0  0  0  0
  151.4659  142.4181  158.4243 C   0  0  0  0  0  0  0  0  0  0  0  0
  151.4414  141.1638  157.8177 C   0  0  0  0  0  0  0  0  0  0  0  0
  144.9037  143.8868  156.5705 C   0  0  0  0  0  0  0  0  0  0  0  0
  144.7507  145.4478  160.3411 H   0  0  0  0  0  0  0  0  0  0  0  0
  145.7516  146.1344  159.0670 H   0  0  0  0  0  0  0  0  0  0  0  0
  145.6988  144.3873  159.3141 H   0  0  0  0  0  0  0  0  0  0  0  0
  143.2896  144.3526  158.6137 H   0  0  0  0  0  0  0  0  0  0  0  0
  143.2892  146.0914  158.5192 H   0  0  0  0  0  0  0  0  0  0  0  0
  142.3446  144.6001  156.3135 H   0  0  0  0  0  0  0  0  0  0  0  0
  142.6467  146.3231  156.3122 H   0  0  0  0  0  0  0  0  0  0  0  0
  142.5526  145.3863  153.9873 H   0  0  0  0  0  0  0  0  0  0  0  0
  144.1134  146.1158  154.3178 H   0  0  0  0  0  0  0  0  0  0  0  0
  145.9892  144.6194  154.8488 H   0  0  0  0  0  0  0  0  0  0  0  0
  145.3088  141.6733  155.1753 H   0  0  0  0  0  0  0  0  0  0  0  0
  145.7435  142.3141  153.5992 H   0  0  0  0  0  0  0  0  0  0  0  0
  147.6442  143.3150  155.1491 H   0  0  0  0  0  0  0  0  0  0  0  0
  147.4797  141.0443  153.4200 H   0  0  0  0  0  0  0  0  0  0  0  0
  148.6131  142.3824  153.4370 H   0  0  0  0  0  0  0  0  0  0  0  0
  148.6732  139.8877  155.1875 H   0  0  0  0  0  0  0  0  0  0  0  0
  149.7013  140.3196  152.9681 H   0  0  0  0  0  0  0  0  0  0  0  0
  150.4340  142.3811  155.5383 H   0  0  0  0  0  0  0  0  0  0  0  0
  149.1360  141.9268  156.6093 H   0  0  0  0  0  0  0  0  0  0  0  0
  150.7124  138.7052  155.7273 H   0  0  0  0  0  0  0  0  0  0  0  0
  153.5879  139.3883  159.8225 H   0  0  0  0  0  0  0  0  0  0  0  0
  153.3141  141.9264  162.1671 H   0  0  0  0  0  0  0  0  0  0  0  0
  154.6572  142.4480  161.1382 H   0  0  0  0  0  0  0  0  0  0  0  0
  154.4612  140.7448  161.5406 H   0  0  0  0  0  0  0  0  0  0  0  0
  151.6708  144.6442  159.7597 H   0  0  0  0  0  0  0  0  0  0  0  0
  153.3404  144.3323  160.2273 H   0  0  0  0  0  0  0  0  0  0  0  0
  152.0121  143.8432  161.2906 H   0  0  0  0  0  0  0  0  0  0  0  0
  150.8898  143.2476  158.0433 H   0  0  0  0  0  0  0  0  0  0  0  0
  145.8128  143.7411  157.1536 H   0  0  0  0  0  0  0  0  0  0  0  0
  144.2387  143.0570  156.8159 H   0  0  0  0  0  0  0  0  0  0  0  0
  147.3483  141.9101  155.9408 H   0  0  0  0  0  0  0  0  0  0  0  0
  152.3531  138.0656  157.5939 H   0  0  0  0  0  0  0  0  0  0  0  0
  1  2  1  0  0  0  0
  1 26  1  0  0  0  0
  1 27  1  0  0  0  0
  1 28  1  0  0  0  0
  2  3  1  0  0  0  0
  2 29  1  0  0  0  0
  2 30  1  0  0  0  0
  3 25  1  0  0  0  0
  3  4  1  0  0  0  0
  4  5  1  0  0  0  0
  4 31  1  0  0  0  0
  4 32  1  0  0  0  0
  5  6  1  0  0  0  0
  5 33  1  0  0  0  0
  5 34  1  0  0  0  0
  6  7  1  0  0  0  0
  7  8  1  0  0  0  0
  7 25  1  0  0  0  0
  7 35  1  0  0  0  0
  8  9  1  0  0  0  0
  8 36  1  0  0  0  0
  8 37  1  0  0  0  0
  9 10  1  0  0  0  0
  9 38  1  0  0  0  0
  9 56  1  0  0  0  0
 10 11  1  0  0  0  0
 10 39  1  0  0  0  0
 10 40  1  0  0  0  0
 11 12  1  0  0  0  0
 11 13  1  0  0  0  0
 11 41  1  0  0  0  0
 12 42  1  0  0  0  0
 13 14  1  0  0  0  0
 13 43  1  0  0  0  0
 13 44  1  0  0  0  0
 14 24  1  0  0  0  0
 14 15  1  0  0  0  0
 15 16  2  0  0  0  0
 15 45  1  0  0  0  0
 16 17  1  0  0  0  0
 16 57  1  0  0  0  0
 17 24  2  0  0  0  0
 17 18  1  0  0  0  0
 18 19  2  0  0  0  0
 18 46  1  0  0  0  0
 19 20  1  0  0  0  0
 19 21  1  0  0  0  0
 20 47  1  0  0  0  0
 20 48  1  0  0  0  0
 20 49  1  0  0  0  0
 21 22  1  0  0  0  0
 21 23  2  0  0  0  0
 22 50  1  0  0  0  0
 22 51  1  0  0  0  0
 22 52  1  0  0  0  0
 23 24  1  0  0  0  0
 23 53  1  0  0  0  0
 25 54  1  0  0  0  0
 25 55  1  0  0  0  0
M  CHG  1   9   1
M  CHG  1  16   1
M  END
> <s_m_source_file>
AV-unprocessed.smi

> <i_m_source_file_index>
1047

> <i_lp_mmshare_version>
43012

> <i_f3d_flags>
0

> <s_epik_input>
W0NIM11bQ0gyXU4xW0NIMl1bQ0gyXU9bQ0BIXShbQ0gyXTEpW0NIMl1bTkhdW0NIMl1bQ0BIXShbT0hdKVtDSDJdbihbY0hdbjIpYyhjMjMpW2NIXWMoW0NIM10pYyhbY0hdMylbQ0gzXQ==

> <s_epik_cmdline>
J2VwaWtfcHl0aG9uJywgJy1waCcsICc3LjAnLCAnLXRuJywgJzgnLCAnLW1hJywgJzIwMCcsICctbWV0YWxfYmluZGluZycsICctaW1hZScsICc8aW5maWxlLm1hZT4nLCAnLW9tYWUnLCAnPG91dGZpbGUubWFlPic=

> <r_epik_Ionization_Penalty>
1.75732

> <r_epik_Ionization_Penalty_Charging>
1.18089

> <r_epik_Ionization_Penalty_Neutral>
0.576429

> <r_epik_State_Penalty>
1.69377

> <r_epik_Charging_Adjusted_Penalty>
2.87466

> <i_epik_Tot_Q>
2

> <i_epik_Tot_abs_Q>
2

> <r_epik_Metal_State_Penalty>
5.70174

> <b_epik_Metal_Only>
0

> <s_lp_Force_Field>
OPLS_2005

> <r_lp_Energy>
38.6305

> <b_lp_Chiralities_Consistent>
1

> <s_lp_Variant>
AV-unprocessed.smi:1047-32

> <Gold.Version>
5.8.1

> <Gold.Id.Protein>
6NUR|6NUR_protein|mol2

> <Gold.PLP.Fitness>
57.1967

> <Gold.PLP.PLP>
-47.5497

> <Gold.PLP.part.hbond>
-2.8721

> <Gold.PLP.part.metal>
0.0000

> <Gold.PLP.part.buried>
-7.1290

> <Gold.PLP.part.nonpolar>
-38.1169

> <Gold.PLP.part.repulsive>
0.7640

> <Gold.PLP.ligand.clash>
0.0000

> <Gold.PLP.ligand.torsion>
0.8949

> <Gold.PLP.Chemscore.Hbond>
3.7520

> <Gold.PLP.Chemscore.CHOScore>
0.0000

> <Gold.PLP.Chemscore.Metal>
0.0000

> <Gold.Chemscore.Hbonds>
donor molecule, donor type, donor heavy atom, donor atom, acceptor molecule, acceptor atom, score
      L1  H     9    38       P1  8028  2.00
      L1  H    12    42       P1  7957  1.00
      P1  H  7989  7998       L1    12  0.74

> <Gold.PLP.Chemscore.Internal.Correction>
0.1809

> <Gold.Rescore>
     Score         DG    S(hbond)    S(metal)    S(lipo)     H(rot)  DE(clash)    DE(int)     intcor
     19.01     -20.09       2.10        0.00     123.86       2.69       0.23       0.85       ----

> <Gold.Chemscore.Fitness>
19.0145

> <Gold.Chemscore.DG>
-20.0908

> <Gold.Chemscore.ZeroCoef>
-5.4800

> <Gold.Chemscore.Hbond>
2.0986

> <Gold.Chemscore.Metal>
0.0000

> <Gold.Chemscore.Lipo>
123.8635

> <Gold.Chemscore.Internal_Hbond>
0.0000

> <Gold.Chemscore.DEClash>
0.2267

> <Gold.Chemscore.DEInternal>
0.8496

> <Gold.Chemscore.Rot>
2.6917

> <Gold.Chemscore.Internal.Correction>
   9.000000E+99

> <Gold.Chemscore.Hbonds>
donor molecule, donor type, donor heavy atom, donor atom, acceptor molecule, acceptor atom, score
      L1  H     9    38       P1  8028  0.34
      L1  H    12    42       P1  7957  0.99
      P1  H  7989  7998       L1    12  0.25

> <Gold.Chemscore.Hbond.Weighted>
-7.0094

> <Gold.Chemscore.Metal.Weighted>
-0.0000

> <Gold.Chemscore.Lipo.Weighted>
-14.4920

> <Gold.Chemscore.Internal_Hbond.Weighted>
0.0000

> <Gold.Chemscore.DEClash.Weighted>
0.2267

> <Gold.Chemscore.DEInternal.Weighted>
0.8496

> <Gold.Chemscore.Rot.Weighted>
6.8907

> <Gold.Chemscore.Internal.Correction.Weighted>
   9.000000E+99

> <Gold.Protein.RotatedTorsions>
[ 6907 6896 6895 6894 ] final  151.74 input  -60.11 | X-H torsion
[ 7974 7965 7964 7962 ] final -120.07 input  175.53 | X-H torsion
[ 8008 7997 7996 7995 ] final  -86.60 input   59.86 | X-H torsion
[ 10167 10162 10161 10158 ] final  -95.23 input  -65.29 | X-H torsion
[ 10718 10713 10712 10709 ] final   94.68 input   66.30 | X-H torsion
[ 10763 10752 10751 10750 ] final  115.93 input  -60.55 | X-H torsion
[ 11005 11000 10999 10996 ] final  172.46 input  -57.11 | X-H torsion

> <Gold.Protein.ActiveResidues>
 VAL166  LYS551  ARG553  GLY616  TRP617  ASP618  TYR619  PRO620  LYS621  CYS622 
 ASP623  PHE694  ASN695  SER759  ASP760  ASP761  ALA762  ILE779  LEU786  VAL792 
 PHE793  MET794  SER795  GLU796  ALA797  LYS798  CYS799  TRP800  GLU811  SER814 

> <Gold.Protein.RotatedAtoms>
  152.0964  133.4227  159.4566 H   0  0  0  0  0  0  0  0  0  0  0  0  # atno 6907 bound_to 6896
  150.6863  134.2812  159.4637 H   0  0  0  0  0  0  0  0  0  0  0  0  # atno 6908 bound_to 6896
  152.0668  134.9559  160.0625 H   0  0  0  0  0  0  0  0  0  0  0  0  # atno 6909 bound_to 6896
  145.0555  140.8251  143.4184 H   0  0  0  0  0  0  0  0  0  0  0  0  # atno 7974 bound_to 7965
  154.6537  140.0576  156.9985 H   0  0  0  0  0  0  0  0  0  0  0  0  # atno 8008 bound_to 7997
  155.1332  140.3258  155.4450 H   0  0  0  0  0  0  0  0  0  0  0  0  # atno 8009 bound_to 7997
  156.2588  140.1977  156.6450 H   0  0  0  0  0  0  0  0  0  0  0  0  # atno 8010 bound_to 7997
  140.3063  143.3132  152.0196 H   0  0  0  0  0  0  0  0  0  0  0  0  # atno 10167 bound_to 10162
  157.6946  131.0520  150.4223 H   0  0  0  0  0  0  0  0  0  0  0  0  # atno 10718 bound_to 10713
  153.5296  135.3581  155.2669 H   0  0  0  0  0  0  0  0  0  0  0  0  # atno 10763 bound_to 10752
  154.8728  135.4065  154.3166 H   0  0  0  0  0  0  0  0  0  0  0  0  # atno 10764 bound_to 10752
  153.3853  135.7070  153.6603 H   0  0  0  0  0  0  0  0  0  0  0  0  # atno 10765 bound_to 10752
  140.3299  134.7366  157.4127 H   0  0  0  0  0  0  0  0  0  0  0  0  # atno 11005 bound_to 11000
  145.1474  139.2535  143.5459 LP  0  0  0  0  0  0  0  0  0  0  0  0  # atno 17320 bound_to 7965
  146.3521  140.1167  142.8602 LP  0  0  0  0  0  0  0  0  0  0  0  0  # atno 17321 bound_to 7965
  139.4903  144.6418  151.6861 LP  0  0  0  0  0  0  0  0  0  0  0  0  # atno 17342 bound_to 10162
  140.5607  144.0273  150.6168 LP  0  0  0  0  0  0  0  0  0  0  0  0  # atno 17343 bound_to 10162
  156.4597  130.4029  149.6584 LP  0  0  0  0  0  0  0  0  0  0  0  0  # atno 17370 bound_to 10713
  156.3703  130.7527  151.2510 LP  0  0  0  0  0  0  0  0  0  0  0  0  # atno 17371 bound_to 10713
  140.0869  134.5654  155.8483 LP  0  0  0  0  0  0  0  0  0  0  0  0  # atno 17394 bound_to 11000
  141.2066  133.6656  156.6251 LP  0  0  0  0  0  0  0  0  0  0  0  0  # atno 17395 bound_to 11000

$$$$
