AV-unprocessed.smi:1934|AV-procd|sdf|7824|dock10
  -GOLD-   22720 9573D 1   1.00000     0.00000
 Structure written by MMmdl.
 46 47  0  0  0  0  0  0  0  0  2 V2000
  151.8656  141.7068  158.6802 C   0  0  0  0  0  0  0  0  0  0  0  0
  151.5472  140.9991  157.3961 C   0  0  0  0  0  0  0  0  0  0  0  0
  150.3906  141.1445  156.5755 C   0  0  0  0  0  0  0  0  0  0  0  0
  150.6362  140.2703  155.5521 C   0  0  0  0  0  0  0  0  0  0  0  0
  149.8721  139.9921  154.4625 N   0  0  0  0  0  0  0  0  0  0  0  0
  148.6573  139.4185  154.4118 C   0  0  0  0  0  0  0  0  0  0  0  0
  148.0095  139.0255  155.3823 O   0  0  0  0  0  0  0  0  0  0  0  0
  148.2234  139.3132  153.1474 N   0  0  0  0  0  0  0  0  0  0  0  0
  146.9452  138.7363  152.7474 C   0  0  0  0  0  0  0  0  0  0  0  0
  146.6145  137.4727  153.5653 C   0  0  0  0  0  0  0  0  0  0  0  0
  146.3237  136.3008  152.7015 N   0  3  2  0  0  0  0  0  0  0  0  0
  145.3652  136.6276  151.6140 C   0  0  0  0  0  0  0  0  0  0  0  0
  145.2026  135.4465  150.6442 C   0  0  0  0  0  0  0  0  0  0  0  0
  144.7752  134.1753  151.3909 C   0  0  0  0  0  0  0  0  0  0  0  0
  145.7311  133.8651  152.5578 C   0  0  1  0  0  0  0  0  0  0  0  0
  147.0870  133.3092  152.0882 C   0  0  0  0  0  0  0  0  0  0  0  0
  145.8920  135.1002  153.4683 C   0  0  0  0  0  0  0  0  0  0  0  0
  151.8525  139.6619  155.7686 N   0  0  0  0  0  0  0  0  0  0  0  0
  152.5433  138.6706  154.9672 C   0  0  0  0  0  0  0  0  0  0  0  0
  152.4124  140.1162  156.9104 N   0  0  0  0  0  0  0  0  0  0  0  0
  151.0715  142.4011  158.9553 H   0  0  0  0  0  0  0  0  0  0  0  0
  152.7903  142.2778  158.5950 H   0  0  0  0  0  0  0  0  0  0  0  0
  151.9851  140.9979  159.5000 H   0  0  0  0  0  0  0  0  0  0  0  0
  149.5389  141.7896  156.7296 H   0  0  0  0  0  0  0  0  0  0  0  0
  150.2815  140.2475  153.5759 H   0  0  0  0  0  0  0  0  0  0  0  0
  148.8174  139.6631  152.4094 H   0  0  0  0  0  0  0  0  0  0  0  0
  146.1518  139.4784  152.8527 H   0  0  0  0  0  0  0  0  0  0  0  0
  147.0148  138.5062  151.6852 H   0  0  0  0  0  0  0  0  0  0  0  0
  147.4245  137.2331  154.2561 H   0  0  0  0  0  0  0  0  0  0  0  0
  145.7395  137.6842  154.1816 H   0  0  0  0  0  0  0  0  0  0  0  0
  144.4004  136.8978  152.0464 H   0  0  0  0  0  0  0  0  0  0  0  0
  145.7182  137.4964  151.0571 H   0  0  0  0  0  0  0  0  0  0  0  0
  144.4638  135.6932  149.8811 H   0  0  0  0  0  0  0  0  0  0  0  0
  146.1398  135.2718  150.1152 H   0  0  0  0  0  0  0  0  0  0  0  0
  143.7665  134.3154  151.7816 H   0  0  0  0  0  0  0  0  0  0  0  0
  144.7212  133.3306  150.7032 H   0  0  0  0  0  0  0  0  0  0  0  0
  145.2679  133.0780  153.1545 H   0  0  0  0  0  0  0  0  0  0  0  0
  147.6477  134.0391  151.5042 H   0  0  0  0  0  0  0  0  0  0  0  0
  146.9529  132.4216  151.4692 H   0  0  0  0  0  0  0  0  0  0  0  0
  147.7068  133.0233  152.9385 H   0  0  0  0  0  0  0  0  0  0  0  0
  146.6055  134.8707  154.2588 H   0  0  0  0  0  0  0  0  0  0  0  0
  144.9440  135.3179  153.9632 H   0  0  0  0  0  0  0  0  0  0  0  0
  151.8577  137.8636  154.7075 H   0  0  0  0  0  0  0  0  0  0  0  0
  153.3860  138.2513  155.5188 H   0  0  0  0  0  0  0  0  0  0  0  0
  152.9124  139.1343  154.0524 H   0  0  0  0  0  0  0  0  0  0  0  0
  147.1923  136.0627  152.2445 H   0  0  0  0  0  0  0  0  0  0  0  0
  1  2  1  0  0  0  0
  1 21  1  0  0  0  0
  1 22  1  0  0  0  0
  1 23  1  0  0  0  0
  2 20  2  0  0  0  0
  2  3  1  0  0  0  0
  3  4  2  0  0  0  0
  3 24  1  0  0  0  0
  4  5  1  0  0  0  0
  4 18  1  0  0  0  0
  5  6  1  0  0  0  0
  5 25  1  0  0  0  0
  6  7  2  0  0  0  0
  6  8  1  0  0  0  0
  8  9  1  0  0  0  0
  8 26  1  0  0  0  0
  9 10  1  0  0  0  0
  9 27  1  0  0  0  0
  9 28  1  0  0  0  0
 10 11  1  0  0  0  0
 10 29  1  0  0  0  0
 10 30  1  0  0  0  0
 11 17  1  0  0  0  0
 11 12  1  0  0  0  0
 11 46  1  0  0  0  0
 12 13  1  0  0  0  0
 12 31  1  0  0  0  0
 12 32  1  0  0  0  0
 13 14  1  0  0  0  0
 13 33  1  0  0  0  0
 13 34  1  0  0  0  0
 14 15  1  0  0  0  0
 14 35  1  0  0  0  0
 14 36  1  0  0  0  0
 15 16  1  0  0  0  0
 15 17  1  0  0  0  0
 15 37  1  0  0  0  0
 16 38  1  0  0  0  0
 16 39  1  0  0  0  0
 16 40  1  0  0  0  0
 17 41  1  0  0  0  0
 17 42  1  0  0  0  0
 18 19  1  0  0  0  0
 18 20  1  0  0  0  0
 19 43  1  0  0  0  0
 19 44  1  0  0  0  0
 19 45  1  0  0  0  0
M  CHG  1  11   1
M  END
> <s_m_source_file>
AV-unprocessed.smi

> <i_m_source_file_index>
1934

> <i_lp_mmshare_version>
43012

> <i_f3d_flags>
0

> <s_epik_input>
W0NIM11jMVtjSF1jKG4objEpW0NIM10pW05IXUMoPU8pW05IXVtDSDJdW0NIMl1OMltDSDJdW0NIMl1bQ0gyXVtDQEBIXShbQ0gzXSlbQ0gyXTI=

> <s_epik_cmdline>
J2VwaWtfcHl0aG9uJywgJy1waCcsICc3LjAnLCAnLXRuJywgJzgnLCAnLW1hJywgJzIwMCcsICctbWV0YWxfYmluZGluZycsICctaW1hZScsICc8aW5maWxlLm1hZT4nLCAnLW9tYWUnLCAnPG91dGZpbGUubWFlPic=

> <r_lp_tautomer_probability>
1

> <r_epik_Ionization_Penalty>
0.00202955

> <r_epik_Ionization_Penalty_Charging>
0.00195276

> <r_epik_Ionization_Penalty_Neutral>
7.67968e-05

> <r_epik_State_Penalty>
0.00133177

> <r_epik_Charging_Adjusted_Penalty>
0.00328452

> <i_epik_Tot_Q>
1

> <i_epik_Tot_abs_Q>
1

> <r_epik_Metal_State_Penalty>
-0

> <b_epik_Metal_Only>
0

> <s_lp_Force_Field>
OPLS_2005

> <r_lp_Energy>
20.6023

> <b_lp_Chiralities_Consistent>
1

> <s_lp_Variant>
AV-unprocessed.smi:1934-2

> <Gold.Version>
5.8.1

> <Gold.Id.Protein>
6NUR|6NUR_protein|mol2

> <Gold.PLP.Fitness>
43.8590

> <Gold.PLP.PLP>
-34.1349

> <Gold.PLP.part.hbond>
-3.0943

> <Gold.PLP.part.metal>
0.0000

> <Gold.PLP.part.buried>
-1.4250

> <Gold.PLP.part.nonpolar>
-29.7332

> <Gold.PLP.part.repulsive>
0.6107

> <Gold.PLP.ligand.clash>
0.0000

> <Gold.PLP.ligand.torsion>
1.1559

> <Gold.PLP.Chemscore.Hbond>
4.0000

> <Gold.PLP.Chemscore.CHOScore>
0.0000

> <Gold.PLP.Chemscore.Metal>
0.0000

> <Gold.Chemscore.Hbonds>
donor molecule, donor type, donor heavy atom, donor atom, acceptor molecule, acceptor atom, score
      L1  H     8    26       P1  7957  0.98
      L1  H    11    46       P1  7948  2.00
      P1  H  7997  8010       L1    20  1.00

> <Gold.PLP.Chemscore.Internal.Correction>
0.0359

> <Gold.Rescore>
     Score         DG    S(hbond)    S(metal)    S(lipo)     H(rot)  DE(clash)    DE(int)     intcor
     16.52     -19.27       2.96        0.00      65.92       1.48       0.01       2.74       ----

> <Gold.Chemscore.Fitness>
16.5162

> <Gold.Chemscore.DG>
-19.2700

> <Gold.Chemscore.ZeroCoef>
-5.4800

> <Gold.Chemscore.Hbond>
2.9567

> <Gold.Chemscore.Metal>
0.0000

> <Gold.Chemscore.Lipo>
65.9236

> <Gold.Chemscore.Internal_Hbond>
0.0000

> <Gold.Chemscore.DEClash>
0.0095

> <Gold.Chemscore.DEInternal>
2.7443

> <Gold.Chemscore.Rot>
1.4838

> <Gold.Chemscore.Internal.Correction>
   9.000000E+99

> <Gold.Chemscore.Hbonds>
donor molecule, donor type, donor heavy atom, donor atom, acceptor molecule, acceptor atom, score
      L1  H     5    25       P1  7957  0.01
      L1  H     8    26       P1  7957  0.91
      L1  H    11    46       P1  7948  0.99
      P1  H  7997  8010       L1    20  0.62

> <Gold.Chemscore.Hbond.Weighted>
-9.8754

> <Gold.Chemscore.Metal.Weighted>
-0.0000

> <Gold.Chemscore.Lipo.Weighted>
-7.7131

> <Gold.Chemscore.Internal_Hbond.Weighted>
0.0000

> <Gold.Chemscore.DEClash.Weighted>
0.0095

> <Gold.Chemscore.DEInternal.Weighted>
2.7443

> <Gold.Chemscore.Rot.Weighted>
3.7985

> <Gold.Chemscore.Internal.Correction.Weighted>
   9.000000E+99

> <Gold.Protein.RotatedTorsions>
[ 6907 6896 6895 6894 ] final -126.07 input  -60.11 | X-H torsion
[ 7974 7965 7964 7962 ] final   14.85 input  175.53 | X-H torsion
[ 8008 7997 7996 7995 ] final   57.46 input   59.86 | X-H torsion
[ 10167 10162 10161 10158 ] final   69.03 input  -65.29 | X-H torsion
[ 10718 10713 10712 10709 ] final  126.18 input   66.30 | X-H torsion
[ 10763 10752 10751 10750 ] final  -12.20 input  -60.55 | X-H torsion
[ 11005 11000 10999 10996 ] final  174.05 input  -57.11 | X-H torsion

> <Gold.Protein.ActiveResidues>
 VAL166  LYS551  ARG553  GLY616  TRP617  ASP618  TYR619  PRO620  LYS621  CYS622 
 ASP623  PHE694  ASN695  SER759  ASP760  ASP761  ALA762  ILE779  LEU786  VAL792 
 PHE793  MET794  SER795  GLU796  ALA797  LYS798  CYS799  TRP800  GLU811  SER814 

> <Gold.Protein.RotatedAtoms>
  150.8931  133.7216  159.2898 H   0  0  0  0  0  0  0  0  0  0  0  0  # atno 6907 bound_to 6896
  151.4760  135.1047  159.9774 H   0  0  0  0  0  0  0  0  0  0  0  0  # atno 6908 bound_to 6896
  152.4832  133.8260  159.7134 H   0  0  0  0  0  0  0  0  0  0  0  0  # atno 6909 bound_to 6896
  146.2294  139.8981  142.8544 H   0  0  0  0  0  0  0  0  0  0  0  0  # atno 7974 bound_to 7965
  155.5341  140.3483  155.4432 H   0  0  0  0  0  0  0  0  0  0  0  0  # atno 8008 bound_to 7997
  156.0697  140.1360  156.9870 H   0  0  0  0  0  0  0  0  0  0  0  0  # atno 8009 bound_to 7997
  154.4522  140.0968  156.6626 H   0  0  0  0  0  0  0  0  0  0  0  0  # atno 8010 bound_to 7997
  140.0722  144.5143  150.7219 H   0  0  0  0  0  0  0  0  0  0  0  0  # atno 10167 bound_to 10162
  157.5441  131.1096  150.8811 H   0  0  0  0  0  0  0  0  0  0  0  0  # atno 10718 bound_to 10713
  153.4950  135.7017  153.5863 H   0  0  0  0  0  0  0  0  0  0  0  0  # atno 10763 bound_to 10752
  153.4019  135.3870  155.1993 H   0  0  0  0  0  0  0  0  0  0  0  0  # atno 10764 bound_to 10752
  154.8714  135.3883  154.4415 H   0  0  0  0  0  0  0  0  0  0  0  0  # atno 10765 bound_to 10752
  140.3472  134.7226  157.4243 H   0  0  0  0  0  0  0  0  0  0  0  0  # atno 11005 bound_to 11000
  145.2351  140.9988  143.3968 LP  0  0  0  0  0  0  0  0  0  0  0  0  # atno 17320 bound_to 7965
  144.9498  139.4095  143.6408 LP  0  0  0  0  0  0  0  0  0  0  0  0  # atno 17321 bound_to 7965
  140.7120  143.2513  151.4552 LP  0  0  0  0  0  0  0  0  0  0  0  0  # atno 17342 bound_to 10162
  139.5829  144.1669  152.1992 LP  0  0  0  0  0  0  0  0  0  0  0  0  # atno 17343 bound_to 10162
  156.9355  130.5365  149.5279 LP  0  0  0  0  0  0  0  0  0  0  0  0  # atno 17370 bound_to 10713
  156.0521  130.5588  150.9012 LP  0  0  0  0  0  0  0  0  0  0  0  0  # atno 17371 bound_to 10713
  140.0733  134.5832  155.8618 LP  0  0  0  0  0  0  0  0  0  0  0  0  # atno 17394 bound_to 11000
  141.2022  133.6624  156.5995 LP  0  0  0  0  0  0  0  0  0  0  0  0  # atno 17395 bound_to 11000

$$$$
