AV-unprocessed.smi:82|AV-procd|sdf|799|dock5
  -GOLD-   2262017183D 1   1.00000     0.00000
 Structure written by MMmdl.
 58 61  0  0  0  0  0  0  0  0  1 V2000
  152.2096  143.8781  158.7085 C   0  0  0  0  0  0  0  0  0  0  0  0
  150.9825  143.5468  158.0821 O   0  0  0  0  0  0  0  0  0  0  0  0
  150.9145  142.1814  157.7063 C   0  0  0  0  0  0  0  0  0  0  0  0
  149.5795  141.9378  156.9834 C   0  0  0  0  0  0  0  0  0  0  0  0
  149.4145  140.6036  156.3908 N   0  0  0  0  0  0  0  0  0  0  0  0
  149.0517  139.6208  157.4201 C   0  0  0  0  0  0  0  0  0  0  0  0
  148.8977  138.1997  156.8608 C   0  0  0  0  0  0  0  0  0  0  0  0
  147.9028  138.1963  155.7933 N   0  0  0  0  0  0  0  0  0  0  0  0
  147.4383  136.9985  155.3548 C   0  0  0  0  0  0  0  0  0  0  0  0
  147.8029  135.8526  155.9906 N   0  0  0  0  0  0  0  0  0  0  0  0
  147.3603  134.6687  155.5571 C   0  0  0  0  0  0  0  0  0  0  0  0
  146.5523  134.4060  154.5286 N   0  0  0  0  0  0  0  0  0  0  0  0
  146.1705  135.5513  153.8942 C   0  0  0  0  0  0  0  0  0  0  0  0
  146.5674  136.8756  154.2353 C   0  0  0  0  0  0  0  0  0  0  0  0
  145.9810  137.7835  153.3610 N   0  0  0  0  0  0  0  0  0  0  0  0
  145.2916  137.0383  152.5413 C   0  0  0  0  0  0  0  0  0  0  0  0
  145.3249  135.6881  152.8069 N   0  0  0  0  0  0  0  0  0  0  0  0
  144.6909  134.6503  152.0481 C   0  0  0  0  0  0  0  0  0  0  0  0
  145.0632  133.1806  152.2534 C   0  0  0  0  0  0  0  0  0  0  0  0
  144.7788  132.9073  150.7588 C   0  0  0  0  0  0  0  0  0  0  0  0
  145.7832  131.9974  150.0304 C   0  0  0  0  0  0  0  0  0  0  0  0
  147.1191  132.3098  150.3672 O   0  0  0  0  0  0  0  0  0  0  0  0
  143.3423  132.4726  150.3986 C   0  0  0  0  0  0  0  0  0  0  0  0
  143.1579  132.3345  149.0047 O   0  0  0  0  0  0  0  0  0  0  0  0
  145.0377  134.4198  150.5752 C   0  0  0  0  0  0  0  0  0  0  0  0
  148.2066  139.1632  154.7427 C   0  0  0  0  0  0  0  0  0  0  0  0
  148.3871  140.5830  155.3279 C   0  0  2  0  0  0  0  0  0  0  0  0
  148.6673  141.5418  154.1531 C   0  0  0  0  0  0  0  0  0  0  0  0
  152.2154  144.9369  158.9667 H   0  0  0  0  0  0  0  0  0  0  0  0
  153.0546  143.6891  158.0454 H   0  0  0  0  0  0  0  0  0  0  0  0
  152.3506  143.3068  159.6271 H   0  0  0  0  0  0  0  0  0  0  0  0
  151.7482  141.9361  157.0463 H   0  0  0  0  0  0  0  0  0  0  0  0
  150.9986  141.5599  158.5982 H   0  0  0  0  0  0  0  0  0  0  0  0
  148.7518  142.1494  157.6619 H   0  0  0  0  0  0  0  0  0  0  0  0
  149.5276  142.6910  156.1993 H   0  0  0  0  0  0  0  0  0  0  0  0
  149.8143  139.5857  158.1966 H   0  0  0  0  0  0  0  0  0  0  0  0
  148.1234  139.9208  157.9094 H   0  0  0  0  0  0  0  0  0  0  0  0
  149.8536  137.8412  156.4760 H   0  0  0  0  0  0  0  0  0  0  0  0
  148.5923  137.5239  157.6608 H   0  0  0  0  0  0  0  0  0  0  0  0
  147.7014  133.8091  156.1150 H   0  0  0  0  0  0  0  0  0  0  0  0
  144.7291  137.4585  151.7202 H   0  0  0  0  0  0  0  0  0  0  0  0
  143.6170  134.7974  152.1758 H   0  0  0  0  0  0  0  0  0  0  0  0
  146.1156  133.0474  152.5117 H   0  0  0  0  0  0  0  0  0  0  0  0
  144.4209  132.6459  152.9537 H   0  0  0  0  0  0  0  0  0  0  0  0
  145.5985  130.9457  150.2506 H   0  0  0  0  0  0  0  0  0  0  0  0
  145.6884  132.1042  148.9493 H   0  0  0  0  0  0  0  0  0  0  0  0
  147.5856  131.5043  150.5283 H   0  0  0  0  0  0  0  0  0  0  0  0
  143.0953  131.5144  150.8559 H   0  0  0  0  0  0  0  0  0  0  0  0
  142.6093  133.1847  150.7790 H   0  0  0  0  0  0  0  0  0  0  0  0
  142.5777  133.0188  148.7084 H   0  0  0  0  0  0  0  0  0  0  0  0
  144.3703  134.9188  149.8717 H   0  0  0  0  0  0  0  0  0  0  0  0
  146.0803  134.6565  150.3545 H   0  0  0  0  0  0  0  0  0  0  0  0
  149.1178  138.8500  154.2304 H   0  0  0  0  0  0  0  0  0  0  0  0
  147.4181  139.1790  153.9913 H   0  0  0  0  0  0  0  0  0  0  0  0
  147.4318  140.8778  155.7654 H   0  0  0  0  0  0  0  0  0  0  0  0
  147.9531  141.3877  153.3437 H   0  0  0  0  0  0  0  0  0  0  0  0
  149.6662  141.3869  153.7440 H   0  0  0  0  0  0  0  0  0  0  0  0
  148.5767  142.5882  154.4426 H   0  0  0  0  0  0  0  0  0  0  0  0
  1  2  1  0  0  0  0
  1 29  1  0  0  0  0
  1 30  1  0  0  0  0
  1 31  1  0  0  0  0
  2  3  1  0  0  0  0
  3  4  1  0  0  0  0
  3 32  1  0  0  0  0
  3 33  1  0  0  0  0
  4  5  1  0  0  0  0
  4 34  1  0  0  0  0
  4 35  1  0  0  0  0
  5 27  1  0  0  0  0
  5  6  1  0  0  0  0
  6  7  1  0  0  0  0
  6 36  1  0  0  0  0
  6 37  1  0  0  0  0
  7  8  1  0  0  0  0
  7 38  1  0  0  0  0
  7 39  1  0  0  0  0
  8  9  1  0  0  0  0
  8 26  1  0  0  0  0
  9 14  1  0  0  0  0
  9 10  2  0  0  0  0
 10 11  1  0  0  0  0
 11 12  2  0  0  0  0
 11 40  1  0  0  0  0
 12 13  1  0  0  0  0
 13 17  1  0  0  0  0
 13 14  2  0  0  0  0
 14 15  1  0  0  0  0
 15 16  2  0  0  0  0
 16 17  1  0  0  0  0
 16 41  1  0  0  0  0
 17 18  1  0  0  0  0
 18 25  1  0  0  0  0
 18 19  1  0  0  0  0
 18 42  1  0  0  0  0
 19 20  1  0  0  0  0
 19 43  1  0  0  0  0
 19 44  1  0  0  0  0
 20 21  1  0  0  0  0
 20 23  1  0  0  0  0
 20 25  1  0  0  0  0
 21 22  1  0  0  0  0
 21 45  1  0  0  0  0
 21 46  1  0  0  0  0
 22 47  1  0  0  0  0
 23 24  1  0  0  0  0
 23 48  1  0  0  0  0
 23 49  1  0  0  0  0
 24 50  1  0  0  0  0
 25 51  1  0  0  0  0
 25 52  1  0  0  0  0
 26 27  1  0  0  0  0
 26 53  1  0  0  0  0
 26 54  1  0  0  0  0
 27 28  1  0  0  0  0
 27 55  1  0  0  0  0
 28 56  1  0  0  0  0
 28 57  1  0  0  0  0
 28 58  1  0  0  0  0
M  END
> <s_m_source_file>
AV-unprocessed.smi

> <i_m_source_file_index>
82

> <i_lp_mmshare_version>
43012

> <i_f3d_flags>
0

> <s_epik_input>
W0NIM11PW0NIMl1bQ0gyXU4xW0NIMl1bQ0gyXU4oW0NIMl1bQ0BIXTFbQ0gzXSljKG5bY0hdbjIpYyhjMjMpbltjSF1uM1tDSF0oW0NIMl00KVtDSDJdQzQoW0NIMl1bT0hdKVtDSDJdW09IXQ==

> <s_epik_cmdline>
J2VwaWtfcHl0aG9uJywgJy1waCcsICc3LjAnLCAnLXRuJywgJzgnLCAnLW1hJywgJzIwMCcsICctbWV0YWxfYmluZGluZycsICctaW1hZScsICc8aW5maWxlLm1hZT4nLCAnLW9tYWUnLCAnPG91dGZpbGUubWFlPic=

> <r_lp_tautomer_probability>
1

> <r_epik_Ionization_Penalty>
0.549054

> <r_epik_Ionization_Penalty_Charging>
0

> <r_epik_Ionization_Penalty_Neutral>
0.549054

> <r_epik_State_Penalty>
0.552556

> <r_epik_Charging_Adjusted_Penalty>
0.552556

> <i_epik_Tot_Q>
0

> <i_epik_Tot_abs_Q>
0

> <r_epik_Metal_State_Penalty>
0.545162

> <b_epik_Metal_Only>
0

> <s_lp_Force_Field>
OPLS_2005

> <r_lp_Energy>
68.3354

> <b_lp_Chiralities_Consistent>
1

> <s_lp_Variant>
AV-unprocessed.smi:82-6

> <Gold.Version>
5.8.1

> <Gold.Id.Protein>
6NUR|6NUR_protein|mol2

> <Gold.PLP.Fitness>
46.7027

> <Gold.PLP.PLP>
-36.8395

> <Gold.PLP.part.hbond>
-4.5243

> <Gold.PLP.part.metal>
0.0000

> <Gold.PLP.part.buried>
-3.6274

> <Gold.PLP.part.nonpolar>
-29.5691

> <Gold.PLP.part.repulsive>
0.5478

> <Gold.PLP.ligand.clash>
0.0000

> <Gold.PLP.ligand.torsion>
0.9110

> <Gold.PLP.Chemscore.Hbond>
2.5600

> <Gold.PLP.Chemscore.CHOScore>
0.9996

> <Gold.PLP.Chemscore.Metal>
0.0000

> <Gold.Chemscore.Hbonds>
donor molecule, donor type, donor heavy atom, donor atom, acceptor molecule, acceptor atom, score
      L1  H    22    47       P1 10747  0.80
      L1  H    24    50       P1 10186  0.35
      P1  H 10785 10796       L1    24  0.57
      L1  C    16    41       P1 10171  1.00

> <Gold.PLP.Chemscore.Internal.Correction>
1.0065

> <Gold.Rescore>
     Score         DG    S(hbond)    S(metal)    S(lipo)     H(rot)  DE(clash)    DE(int)     intcor
     11.89     -13.74       2.42        0.00      85.67       3.84       0.09       1.76       ----

> <Gold.Chemscore.Fitness>
11.8913

> <Gold.Chemscore.DG>
-13.7408

> <Gold.Chemscore.ZeroCoef>
-5.4800

> <Gold.Chemscore.Hbond>
2.4181

> <Gold.Chemscore.Metal>
0.0000

> <Gold.Chemscore.Lipo>
85.6691

> <Gold.Chemscore.Internal_Hbond>
0.0000

> <Gold.Chemscore.DEClash>
0.0937

> <Gold.Chemscore.DEInternal>
1.7558

> <Gold.Chemscore.Rot>
3.8434

> <Gold.Chemscore.Internal.Correction>
   9.000000E+99

> <Gold.Chemscore.Hbonds>
donor molecule, donor type, donor heavy atom, donor atom, acceptor molecule, acceptor atom, score
      L1  H    22    47       P1 10747  0.76
      L1  H    24    50       P1 10186  0.35
      P1  H 10785 10796       L1    24  0.21

> <Gold.Chemscore.Hbond.Weighted>
-8.0766

> <Gold.Chemscore.Metal.Weighted>
-0.0000

> <Gold.Chemscore.Lipo.Weighted>
-10.0233

> <Gold.Chemscore.Internal_Hbond.Weighted>
0.0000

> <Gold.Chemscore.DEClash.Weighted>
0.0937

> <Gold.Chemscore.DEInternal.Weighted>
1.7558

> <Gold.Chemscore.Rot.Weighted>
9.8391

> <Gold.Chemscore.Internal.Correction.Weighted>
   9.000000E+99

> <Gold.Protein.RotatedTorsions>
[ 6907 6896 6895 6894 ] final  -37.09 input  -60.11 | X-H torsion
[ 7974 7965 7964 7962 ] final  -36.85 input  175.53 | X-H torsion
[ 8008 7997 7996 7995 ] final  -14.96 input   59.86 | X-H torsion
[ 10167 10162 10161 10158 ] final  -60.55 input  -65.29 | X-H torsion
[ 10718 10713 10712 10709 ] final -130.16 input   66.30 | X-H torsion
[ 10763 10752 10751 10750 ] final  178.38 input  -60.55 | X-H torsion
[ 11005 11000 10999 10996 ] final -166.12 input  -57.11 | X-H torsion

> <Gold.Protein.ActiveResidues>
 VAL166  LYS551  ARG553  GLY616  TRP617  ASP618  TYR619  PRO620  LYS621  CYS622 
 ASP623  PHE694  ASN695  SER759  ASP760  ASP761  ALA762  ILE779  LEU786  VAL792 
 PHE793  MET794  SER795  GLU796  ALA797  LYS798  CYS799  TRP800  GLU811  SER814 

> <Gold.Protein.RotatedAtoms>
  151.0190  134.9455  159.8048 H   0  0  0  0  0  0  0  0  0  0  0  0  # atno 6907 bound_to 6896
  152.5320  134.2928  159.9059 H   0  0  0  0  0  0  0  0  0  0  0  0  # atno 6908 bound_to 6896
  151.2935  133.4112  159.2669 H   0  0  0  0  0  0  0  0  0  0  0  0  # atno 6909 bound_to 6896
  146.0626  140.6327  142.8990 H   0  0  0  0  0  0  0  0  0  0  0  0  # atno 7974 bound_to 7965
  154.5168  140.2209  155.9050 H   0  0  0  0  0  0  0  0  0  0  0  0  # atno 8008 bound_to 7997
  156.1617  140.3141  155.8784 H   0  0  0  0  0  0  0  0  0  0  0  0  # atno 8009 bound_to 7997
  155.3738  140.0468  157.3035 H   0  0  0  0  0  0  0  0  0  0  0  0  # atno 8010 bound_to 7997
  140.6064  143.2374  151.5811 H   0  0  0  0  0  0  0  0  0  0  0  0  # atno 10167 bound_to 10162
  156.2117  130.6922  151.0657 H   0  0  0  0  0  0  0  0  0  0  0  0  # atno 10718 bound_to 10713
  154.5069  135.2786  155.1375 H   0  0  0  0  0  0  0  0  0  0  0  0  # atno 10763 bound_to 10752
  154.2986  135.6252  153.5419 H   0  0  0  0  0  0  0  0  0  0  0  0  # atno 10764 bound_to 10752
  152.9912  135.5691  154.5525 H   0  0  0  0  0  0  0  0  0  0  0  0  # atno 10765 bound_to 10752
  140.5680  134.5266  157.5156 H   0  0  0  0  0  0  0  0  0  0  0  0  # atno 11005 bound_to 11000
  144.7183  140.4288  143.7027 LP  0  0  0  0  0  0  0  0  0  0  0  0  # atno 17320 bound_to 7965
  145.6534  139.1569  143.2849 LP  0  0  0  0  0  0  0  0  0  0  0  0  # atno 17321 bound_to 7965
  139.5328  144.2866  152.1186 LP  0  0  0  0  0  0  0  0  0  0  0  0  # atno 17342 bound_to 10162
  140.2057  144.4613  150.6410 LP  0  0  0  0  0  0  0  0  0  0  0  0  # atno 17343 bound_to 10162
  157.7042  131.0763  150.6723 LP  0  0  0  0  0  0  0  0  0  0  0  0  # atno 17370 bound_to 10713
  156.6782  130.4559  149.5636 LP  0  0  0  0  0  0  0  0  0  0  0  0  # atno 17371 bound_to 10713
  139.9375  134.7847  156.0763 LP  0  0  0  0  0  0  0  0  0  0  0  0  # atno 17394 bound_to 11000
  141.1074  133.6655  156.2896 LP  0  0  0  0  0  0  0  0  0  0  0  0  # atno 17395 bound_to 11000

$$$$
