AV-unprocessed.smi:79|AV-procd|sdf|783|dock10
  -GOLD-   2262017143D 1   1.00000     0.00000
 Structure written by MMmdl.
 56 59  0  0  0  0  0  0  0  0  2 V2000
  145.8053  131.9075  149.5024 C   0  0  0  0  0  0  0  0  0  0  0  0
  145.8265  132.5007  150.9191 C   0  0  2  0  0  0  0  0  0  0  0  0
  146.9250  131.9483  151.6128 O   0  0  0  0  0  0  0  0  0  0  0  0
  144.5440  132.1990  151.7205 C   0  0  0  0  0  0  0  0  0  0  0  0
  144.1853  133.2881  152.6645 N   0  3  1  0  0  0  0  0  0  0  0  0
  145.3330  133.7016  153.5120 C   0  0  0  0  0  0  0  0  0  0  0  0
  144.9050  134.7481  154.5546 C   0  0  0  0  0  0  0  0  0  0  0  0
  144.2439  135.8789  153.9070 N   0  0  0  0  0  0  0  0  0  0  0  0
  145.0626  136.9077  153.5636 C   0  0  0  0  0  0  0  0  0  0  0  0
  145.4871  137.0419  152.2788 N   0  0  0  0  0  0  0  0  0  0  0  0
  146.3004  138.0454  151.9366 C   0  0  0  0  0  0  0  0  0  0  0  0
  146.8027  139.0112  152.7076 N   0  0  0  0  0  0  0  0  0  0  0  0
  146.3782  138.8858  153.9973 C   0  0  0  0  0  0  0  0  0  0  0  0
  145.5162  137.8735  154.5055 C   0  0  0  0  0  0  0  0  0  0  0  0
  145.2974  138.0771  155.8626 N   0  0  0  0  0  0  0  0  0  0  0  0
  145.9950  139.1442  156.1421 C   0  0  0  0  0  0  0  0  0  0  0  0
  146.6840  139.6898  155.0820 N   0  0  0  0  0  0  0  0  0  0  0  0
  147.5308  140.8728  155.1083 C   0  0  0  0  0  0  0  0  0  0  0  0
  149.0148  140.5704  155.3882 C   0  0  0  0  0  0  0  0  0  0  0  0
  149.5260  139.5857  154.3170 C   0  0  0  0  0  0  0  0  0  0  0  0
  150.9095  139.3222  154.4397 O   0  0  0  0  0  0  0  0  0  0  0  0
  149.8889  141.8058  155.6477 C   0  0  0  0  0  0  0  0  0  0  0  0
  150.3740  141.2742  156.9005 O   0  0  0  0  0  0  0  0  0  0  0  0
  149.3757  140.2317  156.8418 C   0  0  0  0  0  0  0  0  0  0  0  0
  143.1198  135.5352  153.0297 C   0  0  2  0  0  0  0  0  0  0  0  0
  141.8848  135.1086  153.8418 C   0  0  0  0  0  0  0  0  0  0  0  0
  143.5329  134.4528  152.0057 C   0  0  0  0  0  0  0  0  0  0  0  0
  144.9967  132.3332  148.9077 H   0  0  0  0  0  0  0  0  0  0  0  0
  145.6680  130.8257  149.5245 H   0  0  0  0  0  0  0  0  0  0  0  0
  146.7384  132.1141  148.9770 H   0  0  0  0  0  0  0  0  0  0  0  0
  146.0000  133.5747  150.8598 H   0  0  0  0  0  0  0  0  0  0  0  0
  147.6488  131.8511  151.0126 H   0  0  0  0  0  0  0  0  0  0  0  0
  143.7264  132.0457  151.0142 H   0  0  0  0  0  0  0  0  0  0  0  0
  144.6464  131.2639  152.2739 H   0  0  0  0  0  0  0  0  0  0  0  0
  145.7491  132.8341  154.0252 H   0  0  0  0  0  0  0  0  0  0  0  0
  146.1235  134.1061  152.8774 H   0  0  0  0  0  0  0  0  0  0  0  0
  144.2170  134.3019  155.2727 H   0  0  0  0  0  0  0  0  0  0  0  0
  145.7757  135.0632  155.1291 H   0  0  0  0  0  0  0  0  0  0  0  0
  146.5906  138.0797  150.8969 H   0  0  0  0  0  0  0  0  0  0  0  0
  146.0233  139.5651  157.1365 H   0  0  0  0  0  0  0  0  0  0  0  0
  147.4187  141.3997  154.1597 H   0  0  0  0  0  0  0  0  0  0  0  0
  147.1289  141.5465  155.8662 H   0  0  0  0  0  0  0  0  0  0  0  0
  149.0107  138.6278  154.3842 H   0  0  0  0  0  0  0  0  0  0  0  0
  149.3437  139.9743  153.3145 H   0  0  0  0  0  0  0  0  0  0  0  0
  151.0210  138.4323  154.7372 H   0  0  0  0  0  0  0  0  0  0  0  0
  150.6858  141.9571  154.9189 H   0  0  0  0  0  0  0  0  0  0  0  0
  149.3232  142.7272  155.7937 H   0  0  0  0  0  0  0  0  0  0  0  0
  148.5712  140.4109  157.5557 H   0  0  0  0  0  0  0  0  0  0  0  0
  149.7996  139.2360  156.9773 H   0  0  0  0  0  0  0  0  0  0  0  0
  142.8177  136.4258  152.4768 H   0  0  0  0  0  0  0  0  0  0  0  0
  141.0311  134.9338  153.1865 H   0  0  0  0  0  0  0  0  0  0  0  0
  141.5977  135.8858  154.5506 H   0  0  0  0  0  0  0  0  0  0  0  0
  142.0587  134.1920  154.4053 H   0  0  0  0  0  0  0  0  0  0  0  0
  144.2270  134.8763  151.2789 H   0  0  0  0  0  0  0  0  0  0  0  0
  142.6561  134.1377  151.4415 H   0  0  0  0  0  0  0  0  0  0  0  0
  143.5038  132.8975  153.2994 H   0  0  0  0  0  0  0  0  0  0  0  0
  1  2  1  0  0  0  0
  1 28  1  0  0  0  0
  1 29  1  0  0  0  0
  1 30  1  0  0  0  0
  2  3  1  0  0  0  0
  2  4  1  0  0  0  0
  2 31  1  0  0  0  0
  3 32  1  0  0  0  0
  4  5  1  0  0  0  0
  4 33  1  0  0  0  0
  4 34  1  0  0  0  0
  5 27  1  0  0  0  0
  5  6  1  0  0  0  0
  5 56  1  0  0  0  0
  6  7  1  0  0  0  0
  6 35  1  0  0  0  0
  6 36  1  0  0  0  0
  7  8  1  0  0  0  0
  7 37  1  0  0  0  0
  7 38  1  0  0  0  0
  8  9  1  0  0  0  0
  8 25  1  0  0  0  0
  9 14  1  0  0  0  0
  9 10  2  0  0  0  0
 10 11  1  0  0  0  0
 11 12  2  0  0  0  0
 11 39  1  0  0  0  0
 12 13  1  0  0  0  0
 13 17  1  0  0  0  0
 13 14  2  0  0  0  0
 14 15  1  0  0  0  0
 15 16  2  0  0  0  0
 16 17  1  0  0  0  0
 16 40  1  0  0  0  0
 17 18  1  0  0  0  0
 18 19  1  0  0  0  0
 18 41  1  0  0  0  0
 18 42  1  0  0  0  0
 19 24  1  0  0  0  0
 19 20  1  0  0  0  0
 19 22  1  0  0  0  0
 20 21  1  0  0  0  0
 20 43  1  0  0  0  0
 20 44  1  0  0  0  0
 21 45  1  0  0  0  0
 22 23  1  0  0  0  0
 22 46  1  0  0  0  0
 22 47  1  0  0  0  0
 23 24  1  0  0  0  0
 24 48  1  0  0  0  0
 24 49  1  0  0  0  0
 25 26  1  0  0  0  0
 25 27  1  0  0  0  0
 25 50  1  0  0  0  0
 26 51  1  0  0  0  0
 26 52  1  0  0  0  0
 26 53  1  0  0  0  0
 27 54  1  0  0  0  0
 27 55  1  0  0  0  0
M  CHG  1   5   1
M  END
> <s_m_source_file>
AV-unprocessed.smi

> <i_m_source_file_index>
79

> <i_lp_mmshare_version>
43012

> <i_f3d_flags>
0

> <s_epik_input>
W0NIM11bQ0BIXShbT0hdKVtDSDJdTjFbQ0gyXVtDSDJdTihbQ0BASF0oW0NIM10pW0NIMl0xKWMobltjSF1uMiljKGMyMyluW2NIXW4zW0NIMl1DNChbQ0gyXVtPSF0pW0NIMl1PW0NIMl00

> <s_epik_cmdline>
J2VwaWtfcHl0aG9uJywgJy1waCcsICc3LjAnLCAnLXRuJywgJzgnLCAnLW1hJywgJzIwMCcsICctbWV0YWxfYmluZGluZycsICctaW1hZScsICc8aW5maWxlLm1hZT4nLCAnLW9tYWUnLCAnPG91dGZpbGUubWFlPic=

> <r_lp_tautomer_probability>
1

> <r_epik_Ionization_Penalty>
0.00515943

> <r_epik_Ionization_Penalty_Charging>
0.00509693

> <r_epik_Ionization_Penalty_Neutral>
6.25007e-05

> <r_epik_State_Penalty>
-0

> <r_epik_Charging_Adjusted_Penalty>
0.00509693

> <i_epik_Tot_Q>
1

> <i_epik_Tot_abs_Q>
1

> <r_epik_Metal_State_Penalty>
-0

> <b_epik_Metal_Only>
0

> <s_lp_Force_Field>
OPLS_2005

> <r_lp_Energy>
51.2807

> <b_lp_Chiralities_Consistent>
1

> <s_lp_Variant>
AV-unprocessed.smi:79-7

> <Gold.Version>
5.8.1

> <Gold.Id.Protein>
6NUR|6NUR_protein|mol2

> <Gold.PLP.Fitness>
41.9276

> <Gold.PLP.PLP>
-32.2785

> <Gold.PLP.part.hbond>
-3.0000

> <Gold.PLP.part.metal>
0.0000

> <Gold.PLP.part.buried>
-6.1910

> <Gold.PLP.part.nonpolar>
-26.0807

> <Gold.PLP.part.repulsive>
0.6221

> <Gold.PLP.ligand.clash>
0.0000

> <Gold.PLP.ligand.torsion>
1.5643

> <Gold.PLP.Chemscore.Hbond>
3.9500

> <Gold.PLP.Chemscore.CHOScore>
0.0000

> <Gold.PLP.Chemscore.Metal>
0.0000

> <Gold.Chemscore.Hbonds>
donor molecule, donor type, donor heavy atom, donor atom, acceptor molecule, acceptor atom, score
      L1  H     3    32       P1 10747  1.00
      L1  H     5    56       P1 10957  1.98
      P1  H  7989  7998       L1    21  1.00

> <Gold.PLP.Chemscore.Internal.Correction>
0.9278

> <Gold.Rescore>
     Score         DG    S(hbond)    S(metal)    S(lipo)     H(rot)  DE(clash)    DE(int)     intcor
      9.95     -11.99       2.20        0.00      74.21       3.72       0.40       1.64       ----

> <Gold.Chemscore.Fitness>
9.9546

> <Gold.Chemscore.DG>
-11.9942

> <Gold.Chemscore.ZeroCoef>
-5.4800

> <Gold.Chemscore.Hbond>
2.2042

> <Gold.Chemscore.Metal>
0.0000

> <Gold.Chemscore.Lipo>
74.2052

> <Gold.Chemscore.Internal_Hbond>
0.0000

> <Gold.Chemscore.DEClash>
0.4034

> <Gold.Chemscore.DEInternal>
1.6362

> <Gold.Chemscore.Rot>
3.7226

> <Gold.Chemscore.Internal.Correction>
   9.000000E+99

> <Gold.Chemscore.Hbonds>
donor molecule, donor type, donor heavy atom, donor atom, acceptor molecule, acceptor atom, score
      L1  H     3    32       P1 10747  0.95
      L1  H     5    56       P1 10957  0.60
      P1  H  7989  7998       L1    21  0.25

> <Gold.Chemscore.Hbond.Weighted>
-7.3620

> <Gold.Chemscore.Metal.Weighted>
-0.0000

> <Gold.Chemscore.Lipo.Weighted>
-8.6820

> <Gold.Chemscore.Internal_Hbond.Weighted>
0.0000

> <Gold.Chemscore.DEClash.Weighted>
0.4034

> <Gold.Chemscore.DEInternal.Weighted>
1.6362

> <Gold.Chemscore.Rot.Weighted>
9.5298

> <Gold.Chemscore.Internal.Correction.Weighted>
   9.000000E+99

> <Gold.Protein.RotatedTorsions>
[ 6907 6896 6895 6894 ] final -157.70 input  -60.11 | X-H torsion
[ 7974 7965 7964 7962 ] final   37.90 input  175.53 | X-H torsion
[ 8008 7997 7996 7995 ] final -103.14 input   59.86 | X-H torsion
[ 10167 10162 10161 10158 ] final -108.43 input  -65.29 | X-H torsion
[ 10718 10713 10712 10709 ] final  -91.16 input   66.30 | X-H torsion
[ 10763 10752 10751 10750 ] final   61.67 input  -60.55 | X-H torsion
[ 11005 11000 10999 10996 ] final  -61.77 input  -57.11 | X-H torsion

> <Gold.Protein.ActiveResidues>
 VAL166  LYS551  ARG553  GLY616  TRP617  ASP618  TYR619  PRO620  LYS621  CYS622 
 ASP623  PHE694  ASN695  SER759  ASP760  ASP761  ALA762  ILE779  LEU786  VAL792 
 PHE793  MET794  SER795  GLU796  ALA797  LYS798  CYS799  TRP800  GLU811  SER814 

> <Gold.Protein.RotatedAtoms>
  151.3069  133.4097  159.2643 H   0  0  0  0  0  0  0  0  0  0  0  0  # atno 6907 bound_to 6896
  151.0147  134.9424  159.8037 H   0  0  0  0  0  0  0  0  0  0  0  0  # atno 6908 bound_to 6896
  152.5309  134.3033  159.9139 H   0  0  0  0  0  0  0  0  0  0  0  0  # atno 6909 bound_to 6896
  146.1103  139.5838  142.9357 H   0  0  0  0  0  0  0  0  0  0  0  0  # atno 7974 bound_to 7965
  154.8666  140.0424  157.1699 H   0  0  0  0  0  0  0  0  0  0  0  0  # atno 8008 bound_to 7997
  154.8783  140.2968  155.5420 H   0  0  0  0  0  0  0  0  0  0  0  0  # atno 8009 bound_to 7997
  156.2999  140.2416  156.3782 H   0  0  0  0  0  0  0  0  0  0  0  0  # atno 8010 bound_to 7997
  140.1663  143.4079  152.1388 H   0  0  0  0  0  0  0  0  0  0  0  0  # atno 10167 bound_to 10162
  155.9992  130.4937  150.5432 H   0  0  0  0  0  0  0  0  0  0  0  0  # atno 10718 bound_to 10713
  152.9958  135.5492  154.6070 H   0  0  0  0  0  0  0  0  0  0  0  0  # atno 10763 bound_to 10752
  154.5399  135.2819  155.1107 H   0  0  0  0  0  0  0  0  0  0  0  0  # atno 10764 bound_to 10752
  154.2388  135.6420  153.5253 H   0  0  0  0  0  0  0  0  0  0  0  0  # atno 10765 bound_to 10752
  141.1336  133.6633  156.5426 H   0  0  0  0  0  0  0  0  0  0  0  0  # atno 11005 bound_to 11000
  145.5677  141.0397  143.2191 LP  0  0  0  0  0  0  0  0  0  0  0  0  # atno 17320 bound_to 7965
  144.7506  139.7205  143.7275 LP  0  0  0  0  0  0  0  0  0  0  0  0  # atno 17321 bound_to 7965
  139.5358  144.7208  151.4898 LP  0  0  0  0  0  0  0  0  0  0  0  0  # atno 17342 bound_to 10162
  140.6611  143.8497  150.6889 LP  0  0  0  0  0  0  0  0  0  0  0  0  # atno 17343 bound_to 10162
  157.3366  131.0709  151.1820 LP  0  0  0  0  0  0  0  0  0  0  0  0  # atno 17370 bound_to 10713
  157.2683  130.6692  149.6007 LP  0  0  0  0  0  0  0  0  0  0  0  0  # atno 17371 bound_to 10713
  140.4127  134.7258  157.4845 LP  0  0  0  0  0  0  0  0  0  0  0  0  # atno 17394 bound_to 11000
  140.0416  134.6260  155.8974 LP  0  0  0  0  0  0  0  0  0  0  0  0  # atno 17395 bound_to 11000

$$$$
