AV-unprocessed.smi:571|AV-procd|sdf|2963|dock7
  -GOLD-   2262023463D 1   1.00000     0.00000
 Structure written by MMmdl.
 44 45  0  0  0  0  0  0  0  0  2 V2000
  149.8576  133.6497  154.3714 C   0  0  0  0  0  0  0  0  0  0  0  0
  149.0195  134.8383  154.8702 C   0  0  2  0  0  0  0  0  0  0  0  0
  147.5026  134.6382  154.6160 C   0  0  0  0  0  0  0  0  0  0  0  0
  147.1672  134.4457  153.1810 N   0  3  0  0  0  0  0  0  0  0  0  0
  147.4273  133.0616  152.7097 C   0  0  0  0  0  0  0  0  0  0  0  0
  147.2417  132.9572  151.1867 C   0  0  0  0  0  0  0  0  0  0  0  0
  145.8393  133.4217  150.7718 C   0  0  0  0  0  0  0  0  0  0  0  0
  145.5760  134.8366  151.3044 C   0  0  0  0  0  0  0  0  0  0  0  0
  145.7992  134.9049  152.8246 C   0  0  0  0  0  0  0  0  0  0  0  0
  149.5346  136.1105  154.3523 N   0  0  0  0  0  0  0  0  0  0  0  0
  150.6622  136.7391  154.7251 C   0  0  0  0  0  0  0  0  0  0  0  0
  151.4039  136.3252  155.6164 O   0  0  0  0  0  0  0  0  0  0  0  0
  151.0005  138.0237  153.9582 C   0  0  0  0  0  0  0  0  0  0  0  0
  150.6349  139.2352  154.7093 N   0  0  0  0  0  0  0  0  0  0  0  0
  149.4693  139.9086  154.2908 C   0  0  0  0  0  0  0  0  0  0  0  0
  149.0454  141.0332  154.8884 C   0  0  0  0  0  0  0  0  0  0  0  0
  149.8189  141.5523  155.9915 C   0  0  0  0  0  0  0  0  0  0  0  0
  150.9379  140.9190  156.3964 C   0  0  0  0  0  0  0  0  0  0  0  0
  151.4090  139.6931  155.7414 C   0  0  0  0  0  0  0  0  0  0  0  0
  152.4374  139.1169  156.0962 O   0  0  0  0  0  0  0  0  0  0  0  0
  149.5353  132.7208  154.8427 H   0  0  0  0  0  0  0  0  0  0  0  0
  150.9137  133.7876  154.6055 H   0  0  0  0  0  0  0  0  0  0  0  0
  149.7709  133.5183  153.2925 H   0  0  0  0  0  0  0  0  0  0  0  0
  149.1662  134.8940  155.9489 H   0  0  0  0  0  0  0  0  0  0  0  0
  147.1771  133.7569  155.1706 H   0  0  0  0  0  0  0  0  0  0  0  0
  146.9304  135.4726  155.0245 H   0  0  0  0  0  0  0  0  0  0  0  0
  148.4475  132.7707  152.9629 H   0  0  0  0  0  0  0  0  0  0  0  0
  146.7604  132.3679  153.2240 H   0  0  0  0  0  0  0  0  0  0  0  0
  147.9942  133.5669  150.6843 H   0  0  0  0  0  0  0  0  0  0  0  0
  147.4073  131.9303  150.8595 H   0  0  0  0  0  0  0  0  0  0  0  0
  145.7399  133.4021  149.6860 H   0  0  0  0  0  0  0  0  0  0  0  0
  145.0909  132.7336  151.1670 H   0  0  0  0  0  0  0  0  0  0  0  0
  146.2392  135.5447  150.8052 H   0  0  0  0  0  0  0  0  0  0  0  0
  144.5577  135.1429  151.0624 H   0  0  0  0  0  0  0  0  0  0  0  0
  145.0601  134.2922  153.3430 H   0  0  0  0  0  0  0  0  0  0  0  0
  145.6485  135.9315  153.1573 H   0  0  0  0  0  0  0  0  0  0  0  0
  148.9863  136.5465  153.6244 H   0  0  0  0  0  0  0  0  0  0  0  0
  152.0688  138.0464  153.7353 H   0  0  0  0  0  0  0  0  0  0  0  0
  150.5082  137.9887  152.9853 H   0  0  0  0  0  0  0  0  0  0  0  0
  148.9532  139.4570  153.4557 H   0  0  0  0  0  0  0  0  0  0  0  0
  148.1517  141.5377  154.5518 H   0  0  0  0  0  0  0  0  0  0  0  0
  149.4990  142.4527  156.4948 H   0  0  0  0  0  0  0  0  0  0  0  0
  151.5039  141.3225  157.2233 H   0  0  0  0  0  0  0  0  0  0  0  0
  147.8114  135.0325  152.6702 H   0  0  0  0  0  0  0  0  0  0  0  0
  1  2  1  0  0  0  0
  1 21  1  0  0  0  0
  1 22  1  0  0  0  0
  1 23  1  0  0  0  0
  2  3  1  0  0  0  0
  2 10  1  0  0  0  0
  2 24  1  0  0  0  0
  3  4  1  0  0  0  0
  3 25  1  0  0  0  0
  3 26  1  0  0  0  0
  4  9  1  0  0  0  0
  4  5  1  0  0  0  0
  4 44  1  0  0  0  0
  5  6  1  0  0  0  0
  5 27  1  0  0  0  0
  5 28  1  0  0  0  0
  6  7  1  0  0  0  0
  6 29  1  0  0  0  0
  6 30  1  0  0  0  0
  7  8  1  0  0  0  0
  7 31  1  0  0  0  0
  7 32  1  0  0  0  0
  8  9  1  0  0  0  0
  8 33  1  0  0  0  0
  8 34  1  0  0  0  0
  9 35  1  0  0  0  0
  9 36  1  0  0  0  0
 10 11  1  0  0  0  0
 10 37  1  0  0  0  0
 11 12  2  0  0  0  0
 11 13  1  0  0  0  0
 13 14  1  0  0  0  0
 13 38  1  0  0  0  0
 13 39  1  0  0  0  0
 14 19  1  0  0  0  0
 14 15  1  0  0  0  0
 15 16  2  0  0  0  0
 15 40  1  0  0  0  0
 16 17  1  0  0  0  0
 16 41  1  0  0  0  0
 17 18  2  0  0  0  0
 17 42  1  0  0  0  0
 18 19  1  0  0  0  0
 18 43  1  0  0  0  0
 19 20  2  0  0  0  0
M  CHG  1   4   1
M  END
> <s_m_source_file>
AV-unprocessed.smi

> <i_m_source_file_index>
571

> <i_lp_mmshare_version>
43012

> <i_f3d_flags>
0

> <s_epik_input>
W0NIMl0xW0NIMl1bQ0gyXVtDSDJdW0NIMl1OMVtDSDJdW0NAQEhdKFtDSDNdKVtOSF1DKD1PKVtDSDJdbjJbY0hdW2NIXVtjSF1bY0hdYzI9Tw==

> <s_epik_cmdline>
J2VwaWtfcHl0aG9uJywgJy1waCcsICc3LjAnLCAnLXRuJywgJzgnLCAnLW1hJywgJzIwMCcsICctbWV0YWxfYmluZGluZycsICctaW1hZScsICc8aW5maWxlLm1hZT4nLCAnLW9tYWUnLCAnPG91dGZpbGUubWFlPic=

> <r_lp_tautomer_probability>
1

> <r_epik_Ionization_Penalty>
0.00237248

> <r_epik_Ionization_Penalty_Charging>
0.0023724

> <r_epik_Ionization_Penalty_Neutral>
8.2065e-08

> <r_epik_State_Penalty>
0.00163922

> <r_epik_Charging_Adjusted_Penalty>
0.00401161

> <i_epik_Tot_Q>
1

> <i_epik_Tot_abs_Q>
1

> <r_epik_Metal_State_Penalty>
-0

> <b_epik_Metal_Only>
0

> <s_lp_Force_Field>
OPLS_2005

> <r_lp_Energy>
32.5109

> <b_lp_Chiralities_Consistent>
1

> <s_lp_Variant>
AV-unprocessed.smi:571-1

> <Gold.Version>
5.8.1

> <Gold.Id.Protein>
6NUR|6NUR_protein|mol2

> <Gold.PLP.Fitness>
54.5155

> <Gold.PLP.PLP>
-39.7680

> <Gold.PLP.part.hbond>
-4.0000

> <Gold.PLP.part.metal>
0.0000

> <Gold.PLP.part.buried>
-3.1858

> <Gold.PLP.part.nonpolar>
-32.1973

> <Gold.PLP.part.repulsive>
0.0866

> <Gold.PLP.ligand.clash>
0.0000

> <Gold.PLP.ligand.torsion>
0.9928

> <Gold.PLP.Chemscore.Hbond>
4.5440

> <Gold.PLP.Chemscore.CHOScore>
0.9860

> <Gold.PLP.Chemscore.Metal>
0.0000

> <Gold.Chemscore.Hbonds>
donor molecule, donor type, donor heavy atom, donor atom, acceptor molecule, acceptor atom, score
      L1  H     4    44       P1  7948  2.00
      L1  H    10    37       P1  7948  0.58
      P1  H  7997  8009       L1    20  0.62
      P1  H 10752 10765       L1    12  1.00
      L1  C    15    40       P1  7957  0.80

> <Gold.PLP.Chemscore.Internal.Correction>
0.1430

> <Gold.Rescore>
     Score         DG    S(hbond)    S(metal)    S(lipo)     H(rot)  DE(clash)    DE(int)     intcor
     15.09     -15.79       2.01        0.00      70.93       1.84       0.00       0.70       ----

> <Gold.Chemscore.Fitness>
15.0909

> <Gold.Chemscore.DG>
-15.7893

> <Gold.Chemscore.ZeroCoef>
-5.4800

> <Gold.Chemscore.Hbond>
2.0131

> <Gold.Chemscore.Metal>
0.0000

> <Gold.Chemscore.Lipo>
70.9342

> <Gold.Chemscore.Internal_Hbond>
0.0000

> <Gold.Chemscore.DEClash>
0.0000

> <Gold.Chemscore.DEInternal>
0.6984

> <Gold.Chemscore.Rot>
1.8413

> <Gold.Chemscore.Internal.Correction>
   9.000000E+99

> <Gold.Chemscore.Hbonds>
donor molecule, donor type, donor heavy atom, donor atom, acceptor molecule, acceptor atom, score
      L1  H     4    44       P1  7948  0.98
      L1  H    10    37       P1  7948  0.58
      P1  H  7997  8009       L1    20  0.62
      P1  H 10752 10765       L1    12  0.87

> <Gold.Chemscore.Hbond.Weighted>
-6.7237

> <Gold.Chemscore.Metal.Weighted>
-0.0000

> <Gold.Chemscore.Lipo.Weighted>
-8.2993

> <Gold.Chemscore.Internal_Hbond.Weighted>
0.0000

> <Gold.Chemscore.DEClash.Weighted>
0.0000

> <Gold.Chemscore.DEInternal.Weighted>
0.6984

> <Gold.Chemscore.Rot.Weighted>
4.7137

> <Gold.Chemscore.Internal.Correction.Weighted>
   9.000000E+99

> <Gold.Protein.RotatedTorsions>
[ 6907 6896 6895 6894 ] final  -26.97 input  -60.11 | X-H torsion
[ 7974 7965 7964 7962 ] final   -6.29 input  175.53 | X-H torsion
[ 8008 7997 7996 7995 ] final -172.93 input   59.86 | X-H torsion
[ 10167 10162 10161 10158 ] final   10.15 input  -65.29 | X-H torsion
[ 10718 10713 10712 10709 ] final   38.31 input   66.30 | X-H torsion
[ 10763 10752 10751 10750 ] final -157.15 input  -60.55 | X-H torsion
[ 11005 11000 10999 10996 ] final  -41.79 input  -57.11 | X-H torsion

> <Gold.Protein.ActiveResidues>
 VAL166  LYS551  ARG553  GLY616  TRP617  ASP618  TYR619  PRO620  LYS621  CYS622 
 ASP623  PHE694  ASN695  SER759  ASP760  ASP761  ALA762  ILE779  LEU786  VAL792 
 PHE793  MET794  SER795  GLU796  ALA797  LYS798  CYS799  TRP800  GLU811  SER814 

> <Gold.Protein.RotatedAtoms>
  151.1535  135.0239  159.8678 H   0  0  0  0  0  0  0  0  0  0  0  0  # atno 6907 bound_to 6896
  152.5452  134.1361  159.8469 H   0  0  0  0  0  0  0  0  0  0  0  0  # atno 6908 bound_to 6896
  151.1449  133.4900  159.2629 H   0  0  0  0  0  0  0  0  0  0  0  0  # atno 6909 bound_to 6896
  146.2334  140.2148  142.8336 H   0  0  0  0  0  0  0  0  0  0  0  0  # atno 7974 bound_to 7965
  155.9509  140.1126  157.0978 H   0  0  0  0  0  0  0  0  0  0  0  0  # atno 8008 bound_to 7997
  154.4109  140.1201  156.5117 H   0  0  0  0  0  0  0  0  0  0  0  0  # atno 8009 bound_to 7997
  155.6844  140.3473  155.4870 H   0  0  0  0  0  0  0  0  0  0  0  0  # atno 8010 bound_to 7997
  140.6212  143.8200  150.7177 H   0  0  0  0  0  0  0  0  0  0  0  0  # atno 10167 bound_to 10162
  157.3573  130.7630  149.7021 H   0  0  0  0  0  0  0  0  0  0  0  0  # atno 10718 bound_to 10713
  154.7658  135.3131  154.8288 H   0  0  0  0  0  0  0  0  0  0  0  0  # atno 10763 bound_to 10752
  153.9037  135.6813  153.4758 H   0  0  0  0  0  0  0  0  0  0  0  0  # atno 10764 bound_to 10752
  153.1264  135.4799  154.9212 H   0  0  0  0  0  0  0  0  0  0  0  0  # atno 10765 bound_to 10752
  141.0270  133.6837  156.2505 H   0  0  0  0  0  0  0  0  0  0  0  0  # atno 11005 bound_to 11000
  144.9678  140.8339  143.5474 LP  0  0  0  0  0  0  0  0  0  0  0  0  # atno 17320 bound_to 7965
  145.2126  139.2197  143.5135 LP  0  0  0  0  0  0  0  0  0  0  0  0  # atno 17321 bound_to 7965
  140.1791  143.4130  152.1946 LP  0  0  0  0  0  0  0  0  0  0  0  0  # atno 17342 bound_to 10162
  139.5440  144.7282  151.4642 LP  0  0  0  0  0  0  0  0  0  0  0  0  # atno 17343 bound_to 10162
  155.9731  130.4124  150.4029 LP  0  0  0  0  0  0  0  0  0  0  0  0  # atno 17370 bound_to 10713
  157.2100  131.0458  151.2604 LP  0  0  0  0  0  0  0  0  0  0  0  0  # atno 17371 bound_to 10713
  140.6473  134.5103  157.5574 LP  0  0  0  0  0  0  0  0  0  0  0  0  # atno 17394 bound_to 11000
  139.9183  134.8201  156.1295 LP  0  0  0  0  0  0  0  0  0  0  0  0  # atno 17395 bound_to 11000

$$$$
