AV-unprocessed.smi:2158|AV-procd|sdf|8789|dock3
  -GOLD-   2272011563D 1   1.00000     0.00000
 Structure written by MMmdl.
 30 30  0  0  0  0  0  0  0  0  2 V2000
  152.7382  143.5290  162.4089 C   0  0  0  0  0  0  0  0  0  0  0  0
  152.8965  142.2155  161.6289 C   0  0  0  0  0  0  0  0  0  0  0  0
  153.0902  142.4159  160.1140 C   0  0  2  0  0  0  0  0  0  0  0  0
  152.5276  143.7657  159.6423 C   0  0  0  0  0  0  0  0  0  0  0  0
  152.4551  141.3263  159.3769 N   0  0  0  0  0  0  0  0  0  0  0  0
  153.0988  140.3499  158.7191 C   0  0  0  0  0  0  0  0  0  0  0  0
  154.3257  140.2865  158.6311 O   0  0  0  0  0  0  0  0  0  0  0  0
  152.2146  139.3021  158.0313 C   0  0  0  0  0  0  0  0  0  0  0  0
  151.3895  139.8793  156.9585 N   0  0  0  0  0  0  0  0  0  0  0  0
  150.0994  140.3279  157.2928 C   0  0  0  0  0  0  0  0  0  0  0  0
  149.2786  140.8757  156.3764 C   0  0  0  0  0  0  0  0  0  0  0  0
  149.7582  140.9980  155.0053 C   0  0  0  0  0  0  0  0  0  0  0  0
  149.0202  141.4917  154.1545 O   0  0  0  0  0  0  0  0  0  0  0  0
  151.0191  140.5517  154.7315 N   0  5  0  0  0  0  0  0  0  0  0  0
  151.8441  139.9995  155.6745 C   0  0  0  0  0  0  0  0  0  0  0  0
  152.9805  139.6062  155.4070 O   0  0  0  0  0  0  0  0  0  0  0  0
  152.5587  143.3316  163.4658 H   0  0  0  0  0  0  0  0  0  0  0  0
  151.8967  144.1107  162.0321 H   0  0  0  0  0  0  0  0  0  0  0  0
  153.6318  144.1498  162.3375 H   0  0  0  0  0  0  0  0  0  0  0  0
  153.7364  141.6529  162.0385 H   0  0  0  0  0  0  0  0  0  0  0  0
  152.0105  141.6025  161.7981 H   0  0  0  0  0  0  0  0  0  0  0  0
  154.1634  142.4072  159.9140 H   0  0  0  0  0  0  0  0  0  0  0  0
  153.0051  144.5940  160.1663 H   0  0  0  0  0  0  0  0  0  0  0  0
  151.4542  143.8328  159.8219 H   0  0  0  0  0  0  0  0  0  0  0  0
  152.6973  143.9129  158.5751 H   0  0  0  0  0  0  0  0  0  0  0  0
  151.4458  141.2964  159.3914 H   0  0  0  0  0  0  0  0  0  0  0  0
  152.8293  138.4903  157.6369 H   0  0  0  0  0  0  0  0  0  0  0  0
  151.5840  138.8396  158.7913 H   0  0  0  0  0  0  0  0  0  0  0  0
  149.8247  140.2072  158.3303 H   0  0  0  0  0  0  0  0  0  0  0  0
  148.2918  141.2188  156.6498 H   0  0  0  0  0  0  0  0  0  0  0  0
  1  2  1  0  0  0  0
  1 17  1  0  0  0  0
  1 18  1  0  0  0  0
  1 19  1  0  0  0  0
  2  3  1  0  0  0  0
  2 20  1  0  0  0  0
  2 21  1  0  0  0  0
  3  4  1  0  0  0  0
  3  5  1  0  0  0  0
  3 22  1  0  0  0  0
  4 23  1  0  0  0  0
  4 24  1  0  0  0  0
  4 25  1  0  0  0  0
  5  6  1  0  0  0  0
  5 26  1  0  0  0  0
  6  7  2  0  0  0  0
  6  8  1  0  0  0  0
  8  9  1  0  0  0  0
  8 27  1  0  0  0  0
  8 28  1  0  0  0  0
  9 15  1  0  0  0  0
  9 10  1  0  0  0  0
 10 11  2  0  0  0  0
 10 29  1  0  0  0  0
 11 12  1  0  0  0  0
 11 30  1  0  0  0  0
 12 13  2  0  0  0  0
 12 14  1  0  0  0  0
 14 15  1  0  0  0  0
 15 16  2  0  0  0  0
M  CHG  1  14  -1
M  END
> <s_m_source_file>
AV-unprocessed.smi

> <i_m_source_file_index>
2158

> <i_lp_mmshare_version>
43012

> <i_f3d_flags>
0

> <s_epik_input>
W0NIM11bQ0gyXVtDQEhdKFtDSDNdKVtOSF1DKD1PKVtDSDJdbjFbY0hdW2NIXWMoPU8pW25IXWMxPU8=

> <s_epik_cmdline>
J2VwaWtfcHl0aG9uJywgJy1waCcsICc3LjAnLCAnLXRuJywgJzgnLCAnLW1hJywgJzIwMCcsICctbWV0YWxfYmluZGluZycsICctaW1hZScsICc8aW5maWxlLm1hZT4nLCAnLW9tYWUnLCAnPG91dGZpbGUubWFlPic=

> <r_lp_tautomer_probability>
0.999537

> <r_epik_Ionization_Penalty>
3.08395

> <r_epik_Ionization_Penalty_Charging>
2.76809e-08

> <r_epik_Ionization_Penalty_Neutral>
3.08395

> <r_epik_State_Penalty>
3.08299

> <r_epik_Charging_Adjusted_Penalty>
3.08299

> <i_epik_Tot_Q>
-1

> <i_epik_Tot_abs_Q>
1

> <r_epik_Metal_State_Penalty>
0.460296

> <b_epik_Metal_Only>
1

> <s_lp_Force_Field>
OPLS_2005

> <r_lp_Energy>
12.2606

> <b_lp_Chiralities_Consistent>
1

> <s_lp_Variant>
AV-unprocessed.smi:2158-3

> <Gold.Version>
5.8.1

> <Gold.Id.Protein>
6NUR|6NUR_protein|mol2

> <Gold.PLP.Fitness>
42.5893

> <Gold.PLP.PLP>
-34.3886

> <Gold.PLP.part.hbond>
-4.7200

> <Gold.PLP.part.metal>
0.0000

> <Gold.PLP.part.buried>
-3.3848

> <Gold.PLP.part.nonpolar>
-25.1995

> <Gold.PLP.part.repulsive>
0.3904

> <Gold.PLP.ligand.clash>
0.0000

> <Gold.PLP.ligand.torsion>
0.9587

> <Gold.PLP.Chemscore.Hbond>
3.3680

> <Gold.PLP.Chemscore.CHOScore>
0.0000

> <Gold.PLP.Chemscore.Metal>
0.0000

> <Gold.Chemscore.Hbonds>
donor molecule, donor type, donor heavy atom, donor atom, acceptor molecule, acceptor atom, score
      P1  H  7989  7998       L1    14  0.70
      P1  H  7997  8008       L1     7  0.69
      P1  H  7997  8009       L1    16  1.00
      P1  H  8011  8017       L1    13  0.41

> <Gold.PLP.Chemscore.Internal.Correction>
0.0140

> <Gold.Rescore>
     Score         DG    S(hbond)    S(metal)    S(lipo)     H(rot)  DE(clash)    DE(int)     intcor
     15.15     -16.60       2.69        0.00      60.69       1.94       0.40       1.05       ----

> <Gold.Chemscore.Fitness>
15.1503

> <Gold.Chemscore.DG>
-16.5976

> <Gold.Chemscore.ZeroCoef>
-5.4800

> <Gold.Chemscore.Hbond>
2.6933

> <Gold.Chemscore.Metal>
0.0000

> <Gold.Chemscore.Lipo>
60.6937

> <Gold.Chemscore.Internal_Hbond>
0.0000

> <Gold.Chemscore.DEClash>
0.3982

> <Gold.Chemscore.DEInternal>
1.0491

> <Gold.Chemscore.Rot>
1.9449

> <Gold.Chemscore.Internal.Correction>
   9.000000E+99

> <Gold.Chemscore.Hbonds>
donor molecule, donor type, donor heavy atom, donor atom, acceptor molecule, acceptor atom, score
      P1  H  7989  7998       L1    14  0.60
      P1  H  7997  8008       L1     7  0.65
      P1  H  7997  8009       L1    16  0.98
      P1  H  8011  8017       L1    13  0.41

> <Gold.Chemscore.Hbond.Weighted>
-8.9955

> <Gold.Chemscore.Metal.Weighted>
-0.0000

> <Gold.Chemscore.Lipo.Weighted>
-7.1012

> <Gold.Chemscore.Internal_Hbond.Weighted>
0.0000

> <Gold.Chemscore.DEClash.Weighted>
0.3982

> <Gold.Chemscore.DEInternal.Weighted>
1.0491

> <Gold.Chemscore.Rot.Weighted>
4.9791

> <Gold.Chemscore.Internal.Correction.Weighted>
   9.000000E+99

> <Gold.Protein.RotatedTorsions>
[ 6907 6896 6895 6894 ] final  -33.69 input  -60.11 | X-H torsion
[ 7974 7965 7964 7962 ] final   58.08 input  175.53 | X-H torsion
[ 8008 7997 7996 7995 ] final -126.61 input   59.86 | X-H torsion
[ 10167 10162 10161 10158 ] final   90.69 input  -65.29 | X-H torsion
[ 10718 10713 10712 10709 ] final   -0.21 input   66.30 | X-H torsion
[ 10763 10752 10751 10750 ] final -143.67 input  -60.55 | X-H torsion
[ 11005 11000 10999 10996 ] final   21.04 input  -57.11 | X-H torsion

> <Gold.Protein.ActiveResidues>
 VAL166  LYS551  ARG553  GLY616  TRP617  ASP618  TYR619  PRO620  LYS621  CYS622 
 ASP623  PHE694  ASN695  SER759  ASP760  ASP761  ALA762  ILE779  LEU786  VAL792 
 PHE793  MET794  SER795  GLU796  ALA797  LYS798  CYS799  TRP800  GLU811  SER814 

> <Gold.Protein.RotatedAtoms>
  151.0623  134.9744  159.8266 H   0  0  0  0  0  0  0  0  0  0  0  0  # atno 6907 bound_to 6896
  152.5397  134.2402  159.8869 H   0  0  0  0  0  0  0  0  0  0  0  0  # atno 6908 bound_to 6896
  151.2423  133.4350  159.2641 H   0  0  0  0  0  0  0  0  0  0  0  0  # atno 6909 bound_to 6896
  145.9221  139.3738  143.0472 H   0  0  0  0  0  0  0  0  0  0  0  0  # atno 7974 bound_to 7965
  155.2325  140.0426  157.2964 H   0  0  0  0  0  0  0  0  0  0  0  0  # atno 8008 bound_to 7997
  154.5879  140.2419  155.7932 H   0  0  0  0  0  0  0  0  0  0  0  0  # atno 8009 bound_to 7997
  156.2239  140.2961  156.0027 H   0  0  0  0  0  0  0  0  0  0  0  0  # atno 8010 bound_to 7997
  139.8448  144.6623  150.9240 H   0  0  0  0  0  0  0  0  0  0  0  0  # atno 10167 bound_to 10162
  156.8238  130.5465  149.5694 H   0  0  0  0  0  0  0  0  0  0  0  0  # atno 10718 bound_to 10713
  154.8460  135.3461  154.6224 H   0  0  0  0  0  0  0  0  0  0  0  0  # atno 10763 bound_to 10752
  153.6833  135.6979  153.5116 H   0  0  0  0  0  0  0  0  0  0  0  0  # atno 10764 bound_to 10752
  153.2651  135.4310  155.0889 H   0  0  0  0  0  0  0  0  0  0  0  0  # atno 10765 bound_to 10752
  140.3960  134.1769  155.7663 H   0  0  0  0  0  0  0  0  0  0  0  0  # atno 11005 bound_to 11000
  145.8537  140.9514  143.0736 LP  0  0  0  0  0  0  0  0  0  0  0  0  # atno 17320 bound_to 7965
  144.6754  140.0440  143.7480 LP  0  0  0  0  0  0  0  0  0  0  0  0  # atno 17321 bound_to 7965
  140.7794  143.3880  151.1359 LP  0  0  0  0  0  0  0  0  0  0  0  0  # atno 17342 bound_to 10162
  139.7523  143.8759  152.3080 LP  0  0  0  0  0  0  0  0  0  0  0  0  # atno 17343 bound_to 10162
  156.0973  130.5942  150.9836 LP  0  0  0  0  0  0  0  0  0  0  0  0  # atno 17370 bound_to 10713
  157.6443  131.0906  150.8186 LP  0  0  0  0  0  0  0  0  0  0  0  0  # atno 17371 bound_to 10713
  141.1874  133.8282  157.1034 LP  0  0  0  0  0  0  0  0  0  0  0  0  # atno 17394 bound_to 11000
  140.0371  134.9873  157.0892 LP  0  0  0  0  0  0  0  0  0  0  0  0  # atno 17395 bound_to 11000

$$$$
