AV-unprocessed.smi:2993|AV-procd|sdf|11403|dock4
  -GOLD-   2272016323D 1   1.00000     0.00000
 Structure written by MMmdl.
 34 35  0  0  0  0  0  0  0  0  1 V2000
  153.0867  136.9214  156.9713 C   0  0  0  0  0  0  0  0  0  0  0  0
  152.4970  138.1587  156.3575 C   0  0  0  0  0  0  0  0  0  0  0  0
  152.5784  138.3297  155.0489 N   0  0  0  0  0  0  0  0  0  0  0  0
  151.9628  139.5563  154.7826 O   0  0  0  0  0  0  0  0  0  0  0  0
  151.5321  140.0837  155.9566 C   0  0  0  0  0  0  0  0  0  0  0  0
  150.8492  141.4075  155.8877 C   0  0  0  0  0  0  0  0  0  0  0  0
  151.8350  139.2480  156.9960 C   0  0  0  0  0  0  0  0  0  0  0  0
  151.5463  139.4399  158.4628 C   0  0  0  0  0  0  0  0  0  0  0  0
  152.5555  140.4217  159.0566 C   0  0  0  0  0  0  0  0  0  0  0  0
  153.7620  140.2076  158.9419 O   0  0  0  0  0  0  0  0  0  0  0  0
  152.0457  141.4849  159.6976 N   0  0  0  0  0  0  0  0  0  0  0  0
  152.8198  142.5114  160.3861 C   0  0  1  0  0  0  0  0  0  0  0  0
  152.5921  143.8541  159.6784 C   0  0  0  0  0  0  0  0  0  0  0  0
  152.4912  142.6180  161.8658 C   0  0  0  0  0  0  0  0  0  0  0  0
  152.8143  143.8704  162.6453 C   0  0  0  0  0  0  0  0  0  0  0  0
  153.5746  142.5927  162.9180 C   0  0  0  0  0  0  0  0  0  0  0  0
  154.1757  136.9712  156.9767 H   0  0  0  0  0  0  0  0  0  0  0  0
  152.7955  136.0285  156.4177 H   0  0  0  0  0  0  0  0  0  0  0  0
  152.7575  136.7899  158.0015 H   0  0  0  0  0  0  0  0  0  0  0  0
  151.2007  142.0642  156.6838 H   0  0  0  0  0  0  0  0  0  0  0  0
  149.7710  141.2904  155.9968 H   0  0  0  0  0  0  0  0  0  0  0  0
  151.0428  141.9006  154.9348 H   0  0  0  0  0  0  0  0  0  0  0  0
  150.5397  139.8291  158.6207 H   0  0  0  0  0  0  0  0  0  0  0  0
  151.5909  138.4975  159.0095 H   0  0  0  0  0  0  0  0  0  0  0  0
  151.0408  141.5741  159.7352 H   0  0  0  0  0  0  0  0  0  0  0  0
  153.8803  142.2700  160.2907 H   0  0  0  0  0  0  0  0  0  0  0  0
  153.1967  144.6422  160.1282 H   0  0  0  0  0  0  0  0  0  0  0  0
  151.5479  144.1624  159.7387 H   0  0  0  0  0  0  0  0  0  0  0  0
  152.8632  143.7950  158.6236 H   0  0  0  0  0  0  0  0  0  0  0  0
  151.5579  142.1276  162.1377 H   0  0  0  0  0  0  0  0  0  0  0  0
  153.3439  144.6681  162.1280 H   0  0  0  0  0  0  0  0  0  0  0  0
  152.0928  144.1968  163.3916 H   0  0  0  0  0  0  0  0  0  0  0  0
  153.3592  142.0648  163.8448 H   0  0  0  0  0  0  0  0  0  0  0  0
  154.6093  142.5457  162.5844 H   0  0  0  0  0  0  0  0  0  0  0  0
  1  2  1  0  0  0  0
  1 17  1  0  0  0  0
  1 18  1  0  0  0  0
  1 19  1  0  0  0  0
  2  7  1  0  0  0  0
  2  3  2  0  0  0  0
  3  4  1  0  0  0  0
  4  5  1  0  0  0  0
  5  6  1  0  0  0  0
  5  7  2  0  0  0  0
  6 20  1  0  0  0  0
  6 21  1  0  0  0  0
  6 22  1  0  0  0  0
  7  8  1  0  0  0  0
  8  9  1  0  0  0  0
  8 23  1  0  0  0  0
  8 24  1  0  0  0  0
  9 10  2  0  0  0  0
  9 11  1  0  0  0  0
 11 12  1  0  0  0  0
 11 25  1  0  0  0  0
 12 13  1  0  0  0  0
 12 14  1  0  0  0  0
 12 26  1  0  0  0  0
 13 27  1  0  0  0  0
 13 28  1  0  0  0  0
 13 29  1  0  0  0  0
 14 16  1  0  0  0  0
 14 15  1  0  0  0  0
 14 30  1  0  0  0  0
 15 16  1  0  0  0  0
 15 31  1  0  0  0  0
 15 32  1  0  0  0  0
 16 33  1  0  0  0  0
 16 34  1  0  0  0  0
M  END
> <s_m_source_file>
AV-unprocessed.smi

> <i_m_source_file_index>
2993

> <i_lp_mmshare_version>
43012

> <i_f3d_flags>
0

> <s_epik_input>
W0NIM11jMW5vYyhbQ0gzXSljMVtDSDJdQyg9TylbTkhdW0NASF0oW0NIM10pW0NIXTJbQ0gyXVtDSDJdMg==

> <s_epik_cmdline>
J2VwaWtfcHl0aG9uJywgJy1waCcsICc3LjAnLCAnLXRuJywgJzgnLCAnLW1hJywgJzIwMCcsICctbWV0YWxfYmluZGluZycsICctaW1hZScsICc8aW5maWxlLm1hZT4nLCAnLW9tYWUnLCAnPG91dGZpbGUubWFlPic=

> <r_lp_tautomer_probability>
1

> <r_epik_Ionization_Penalty>
1.92533e-08

> <r_epik_Ionization_Penalty_Charging>
0

> <r_epik_Ionization_Penalty_Neutral>
1.92533e-08

> <r_epik_State_Penalty>
-0

> <r_epik_Charging_Adjusted_Penalty>
0

> <i_epik_Tot_Q>
0

> <i_epik_Tot_abs_Q>
0

> <r_epik_Metal_State_Penalty>
-0

> <b_epik_Metal_Only>
0

> <s_lp_Force_Field>
OPLS_2005

> <r_lp_Energy>
6.29181

> <b_lp_Chiralities_Consistent>
1

> <s_lp_Variant>
AV-unprocessed.smi:2993-2

> <Gold.Version>
5.8.1

> <Gold.Id.Protein>
6NUR|6NUR_protein|mol2

> <Gold.PLP.Fitness>
39.1069

> <Gold.PLP.PLP>
-34.7681

> <Gold.PLP.part.hbond>
-2.0000

> <Gold.PLP.part.metal>
0.0000

> <Gold.PLP.part.buried>
-3.7906

> <Gold.PLP.part.nonpolar>
-27.8696

> <Gold.PLP.part.repulsive>
0.2156

> <Gold.PLP.ligand.clash>
0.0000

> <Gold.PLP.ligand.torsion>
1.1933

> <Gold.PLP.Chemscore.Hbond>
1.8880

> <Gold.PLP.Chemscore.CHOScore>
0.0000

> <Gold.PLP.Chemscore.Metal>
0.0000

> <Gold.Chemscore.Hbonds>
donor molecule, donor type, donor heavy atom, donor atom, acceptor molecule, acceptor atom, score
      P1  H  7989  7998       L1     4  0.94
      P1  H  7997  8009       L1    10  0.93

> <Gold.PLP.Chemscore.Internal.Correction>
1.0614

> <Gold.Rescore>
     Score         DG    S(hbond)    S(metal)    S(lipo)     H(rot)  DE(clash)    DE(int)     intcor
     17.36     -18.75       1.82        0.00      93.29       1.46       0.21       1.18       ----

> <Gold.Chemscore.Fitness>
17.3566

> <Gold.Chemscore.DG>
-18.7537

> <Gold.Chemscore.ZeroCoef>
-5.4800

> <Gold.Chemscore.Hbond>
1.8241

> <Gold.Chemscore.Metal>
0.0000

> <Gold.Chemscore.Lipo>
93.2872

> <Gold.Chemscore.Internal_Hbond>
0.0000

> <Gold.Chemscore.DEClash>
0.2140

> <Gold.Chemscore.DEInternal>
1.1830

> <Gold.Chemscore.Rot>
1.4584

> <Gold.Chemscore.Internal.Correction>
   9.000000E+99

> <Gold.Chemscore.Hbonds>
donor molecule, donor type, donor heavy atom, donor atom, acceptor molecule, acceptor atom, score
      P1  H  7989  7998       L1     4  0.50
      P1  H  7997  8009       L1    10  0.84

> <Gold.Chemscore.Hbond.Weighted>
-6.0925

> <Gold.Chemscore.Metal.Weighted>
-0.0000

> <Gold.Chemscore.Lipo.Weighted>
-10.9146

> <Gold.Chemscore.Internal_Hbond.Weighted>
0.0000

> <Gold.Chemscore.DEClash.Weighted>
0.2140

> <Gold.Chemscore.DEInternal.Weighted>
1.1830

> <Gold.Chemscore.Rot.Weighted>
3.7334

> <Gold.Chemscore.Internal.Correction.Weighted>
   9.000000E+99

> <Gold.Protein.RotatedTorsions>
[ 6907 6896 6895 6894 ] final  -53.11 input  -60.11 | X-H torsion
[ 7974 7965 7964 7962 ] final   15.17 input  175.53 | X-H torsion
[ 8008 7997 7996 7995 ] final  132.95 input   59.86 | X-H torsion
[ 10167 10162 10161 10158 ] final   17.00 input  -65.29 | X-H torsion
[ 10718 10713 10712 10709 ] final  160.52 input   66.30 | X-H torsion
[ 10763 10752 10751 10750 ] final -163.42 input  -60.55 | X-H torsion
[ 11005 11000 10999 10996 ] final  -48.56 input  -57.11 | X-H torsion

> <Gold.Protein.ActiveResidues>
 VAL166  LYS551  ARG553  GLY616  TRP617  ASP618  TYR619  PRO620  LYS621  CYS622 
 ASP623  PHE694  ASN695  SER759  ASP760  ASP761  ALA762  ILE779  LEU786  VAL792 
 PHE793  MET794  SER795  GLU796  ALA797  LYS798  CYS799  TRP800  GLU811  SER814 

> <Gold.Protein.RotatedAtoms>
  150.8457  134.7765  159.6967 H   0  0  0  0  0  0  0  0  0  0  0  0  # atno 6907 bound_to 6896
  152.4534  134.5341  159.9829 H   0  0  0  0  0  0  0  0  0  0  0  0  # atno 6908 bound_to 6896
  151.5472  133.3385  159.2982 H   0  0  0  0  0  0  0  0  0  0  0  0  # atno 6909 bound_to 6896
  146.2285  139.8933  142.8551 H   0  0  0  0  0  0  0  0  0  0  0  0  # atno 7974 bound_to 7965
  156.2988  140.2533  156.3174 H   0  0  0  0  0  0  0  0  0  0  0  0  # atno 8008 bound_to 7997
  154.9268  140.0399  157.2046 H   0  0  0  0  0  0  0  0  0  0  0  0  # atno 8009 bound_to 7997
  154.8257  140.2867  155.5761 H   0  0  0  0  0  0  0  0  0  0  0  0  # atno 8010 bound_to 7997
  140.5757  143.9077  150.6748 H   0  0  0  0  0  0  0  0  0  0  0  0  # atno 10167 bound_to 10162
  157.1492  131.0560  151.2288 H   0  0  0  0  0  0  0  0  0  0  0  0  # atno 10718 bound_to 10713
  154.7124  135.3009  154.9176 H   0  0  0  0  0  0  0  0  0  0  0  0  # atno 10763 bound_to 10752
  154.0074  135.6699  153.4767 H   0  0  0  0  0  0  0  0  0  0  0  0  # atno 10764 bound_to 10752
  153.0766  135.5032  154.8330 H   0  0  0  0  0  0  0  0  0  0  0  0  # atno 10765 bound_to 10752
  141.0708  133.6679  156.3459 H   0  0  0  0  0  0  0  0  0  0  0  0  # atno 11005 bound_to 11000
  145.2395  141.0004  143.3944 LP  0  0  0  0  0  0  0  0  0  0  0  0  # atno 17320 bound_to 7965
  144.9463  139.4132  143.6424 LP  0  0  0  0  0  0  0  0  0  0  0  0  # atno 17321 bound_to 7965
  140.2563  143.3556  152.1361 LP  0  0  0  0  0  0  0  0  0  0  0  0  # atno 17342 bound_to 10162
  139.5141  144.6943  151.5673 LP  0  0  0  0  0  0  0  0  0  0  0  0  # atno 17343 bound_to 10162
  157.4236  130.7451  149.6933 LP  0  0  0  0  0  0  0  0  0  0  0  0  # atno 17370 bound_to 10713
  155.9774  130.4064  150.3717 LP  0  0  0  0  0  0  0  0  0  0  0  0  # atno 17371 bound_to 10713
  140.5677  134.5871  157.5450 LP  0  0  0  0  0  0  0  0  0  0  0  0  # atno 17394 bound_to 11000
  139.9522  134.7598  156.0423 LP  0  0  0  0  0  0  0  0  0  0  0  0  # atno 17395 bound_to 11000

$$$$
