AV-unprocessed.smi:3077|AV-procd|sdf|11729|dock1
  -GOLD-   2272017123D 1   1.00000     0.00000
 Structure written by MMmdl.
 28 29  0  0  0  0  0  0  0  0  2 V2000
  141.9125  136.9790  153.6615 C   0  0  0  0  0  0  0  0  0  0  0  0
  141.9673  135.5656  153.8160 C   0  0  0  0  0  0  0  0  0  0  0  0
  142.8404  134.9971  153.0000 N   0  0  0  0  0  0  0  0  0  0  0  0
  143.3745  136.0250  152.3060 N   0  0  0  0  0  0  0  0  0  0  0  0
  144.3786  135.7634  151.2907 C   0  0  0  0  0  0  0  0  0  0  0  0
  144.4648  134.2757  150.8922 C   0  0  2  0  0  0  0  0  0  0  0  0
  145.8875  133.6892  151.0425 C   0  0  0  0  0  0  0  0  0  0  0  0
  145.9424  132.2246  150.5808 C   0  0  0  0  0  0  0  0  0  0  0  0
  145.4013  132.0939  149.1504 C   0  0  0  0  0  0  0  0  0  0  0  0
  143.9899  132.6933  149.0470 C   0  0  0  0  0  0  0  0  0  0  0  0
  143.9847  134.1012  149.5014 N   0  3  0  0  0  0  0  0  0  0  0  0
  142.8270  137.2343  152.6805 C   0  0  0  0  0  0  0  0  0  0  0  0
  141.2954  137.6933  154.1864 H   0  0  0  0  0  0  0  0  0  0  0  0
  141.4010  134.9400  154.4900 H   0  0  0  0  0  0  0  0  0  0  0  0
  144.1462  136.3768  150.4188 H   0  0  0  0  0  0  0  0  0  0  0  0
  145.3429  136.1085  151.6664 H   0  0  0  0  0  0  0  0  0  0  0  0
  143.7895  133.7107  151.5373 H   0  0  0  0  0  0  0  0  0  0  0  0
  146.5947  134.2817  150.4605 H   0  0  0  0  0  0  0  0  0  0  0  0
  146.2174  133.7483  152.0802 H   0  0  0  0  0  0  0  0  0  0  0  0
  146.9657  131.8515  150.6320 H   0  0  0  0  0  0  0  0  0  0  0  0
  145.3509  131.6042  151.2556 H   0  0  0  0  0  0  0  0  0  0  0  0
  146.0701  132.6052  148.4567 H   0  0  0  0  0  0  0  0  0  0  0  0
  145.3857  131.0458  148.8499 H   0  0  0  0  0  0  0  0  0  0  0  0
  143.6353  132.6508  148.0170 H   0  0  0  0  0  0  0  0  0  0  0  0
  143.2868  132.1179  149.6507 H   0  0  0  0  0  0  0  0  0  0  0  0
  143.0423  134.4592  149.4362 H   0  0  0  0  0  0  0  0  0  0  0  0
  143.1297  138.1653  152.2240 H   0  0  0  0  0  0  0  0  0  0  0  0
  144.5797  134.6385  148.8873 H   0  0  0  0  0  0  0  0  0  0  0  0
  1 12  2  0  0  0  0
  1  2  1  0  0  0  0
  1 13  1  0  0  0  0
  2  3  2  0  0  0  0
  2 14  1  0  0  0  0
  3  4  1  0  0  0  0
  4  5  1  0  0  0  0
  4 12  1  0  0  0  0
  5  6  1  0  0  0  0
  5 15  1  0  0  0  0
  5 16  1  0  0  0  0
  6 11  1  0  0  0  0
  6  7  1  0  0  0  0
  6 17  1  0  0  0  0
  7  8  1  0  0  0  0
  7 18  1  0  0  0  0
  7 19  1  0  0  0  0
  8  9  1  0  0  0  0
  8 20  1  0  0  0  0
  8 21  1  0  0  0  0
  9 10  1  0  0  0  0
  9 22  1  0  0  0  0
  9 23  1  0  0  0  0
 10 11  1  0  0  0  0
 10 24  1  0  0  0  0
 10 25  1  0  0  0  0
 11 26  1  0  0  0  0
 11 28  1  0  0  0  0
 12 27  1  0  0  0  0
M  CHG  1  11   1
M  END
> <s_m_source_file>
AV-unprocessed.smi

> <i_m_source_file_index>
3077

> <i_lp_mmshare_version>
43012

> <i_f3d_flags>
0

> <s_epik_input>
W2NIXTFbY0hdW2NIXW5uMVtDSDJdW0NAQEhdMltDSDJdW0NIMl1bQ0gyXVtDSDJdW05IXTI=

> <s_epik_cmdline>
J2VwaWtfcHl0aG9uJywgJy1waCcsICc3LjAnLCAnLXRuJywgJzgnLCAnLW1hJywgJzIwMCcsICctbWV0YWxfYmluZGluZycsICctaW1hZScsICc8aW5maWxlLm1hZT4nLCAnLW9tYWUnLCAnPG91dGZpbGUubWFlPic=

> <r_lp_tautomer_probability>
1

> <r_epik_Ionization_Penalty>
0.000655985

> <r_epik_Ionization_Penalty_Charging>
0.000651447

> <r_epik_Ionization_Penalty_Neutral>
4.5377e-06

> <r_epik_State_Penalty>
0.000412577

> <r_epik_Charging_Adjusted_Penalty>
0.00106402

> <i_epik_Tot_Q>
1

> <i_epik_Tot_abs_Q>
1

> <r_epik_Metal_State_Penalty>
-0

> <b_epik_Metal_Only>
0

> <s_lp_Force_Field>
OPLS_2005

> <r_lp_Energy>
13.5088

> <b_lp_Chiralities_Consistent>
1

> <s_lp_Variant>
AV-unprocessed.smi:3077-1

> <Gold.Version>
5.8.1

> <Gold.Id.Protein>
6NUR|6NUR_protein|mol2

> <Gold.PLP.Fitness>
43.1568

> <Gold.PLP.PLP>
-27.1283

> <Gold.PLP.part.hbond>
-2.0000

> <Gold.PLP.part.metal>
0.0000

> <Gold.PLP.part.buried>
-4.1487

> <Gold.PLP.part.nonpolar>
-21.1416

> <Gold.PLP.part.repulsive>
0.2521

> <Gold.PLP.ligand.clash>
0.0000

> <Gold.PLP.ligand.torsion>
0.9138

> <Gold.PLP.Chemscore.Hbond>
3.0000

> <Gold.PLP.Chemscore.CHOScore>
2.9507

> <Gold.PLP.Chemscore.Metal>
0.0000

> <Gold.Chemscore.Hbonds>
donor molecule, donor type, donor heavy atom, donor atom, acceptor molecule, acceptor atom, score
      L1  H    11    26       P1 10186  2.00
      L1  H    11    28       P1  7921  1.00
      L1  C     2    14       P1 11000  0.98
      L1  C    12    27       P1 10171  0.97
      L1  C    12    27       P1 10175  1.00

> <Gold.PLP.Chemscore.Internal.Correction>
0.0041

> <Gold.Rescore>
     Score         DG    S(hbond)    S(metal)    S(lipo)     H(rot)  DE(clash)    DE(int)     intcor
     16.16     -16.91       1.93        0.00      68.79       1.19       0.02       0.73       ----

> <Gold.Chemscore.Fitness>
16.1630

> <Gold.Chemscore.DG>
-16.9145

> <Gold.Chemscore.ZeroCoef>
-5.4800

> <Gold.Chemscore.Hbond>
1.9256

> <Gold.Chemscore.Metal>
0.0000

> <Gold.Chemscore.Lipo>
68.7883

> <Gold.Chemscore.Internal_Hbond>
0.0000

> <Gold.Chemscore.DEClash>
0.0207

> <Gold.Chemscore.DEInternal>
0.7308

> <Gold.Chemscore.Rot>
1.1896

> <Gold.Chemscore.Internal.Correction>
   9.000000E+99

> <Gold.Chemscore.Hbonds>
donor molecule, donor type, donor heavy atom, donor atom, acceptor molecule, acceptor atom, score
      L1  H    11    26       P1 10186  0.92
      L1  H    11    28       P1  7921  0.92

> <Gold.Chemscore.Hbond.Weighted>
-6.4316

> <Gold.Chemscore.Metal.Weighted>
-0.0000

> <Gold.Chemscore.Lipo.Weighted>
-8.0482

> <Gold.Chemscore.Internal_Hbond.Weighted>
0.0000

> <Gold.Chemscore.DEClash.Weighted>
0.0207

> <Gold.Chemscore.DEInternal.Weighted>
0.7308

> <Gold.Chemscore.Rot.Weighted>
3.0453

> <Gold.Chemscore.Internal.Correction.Weighted>
   9.000000E+99

> <Gold.Protein.RotatedTorsions>
[ 6907 6896 6895 6894 ] final -155.25 input  -60.11 | X-H torsion
[ 7974 7965 7964 7962 ] final   92.53 input  175.53 | X-H torsion
[ 8008 7997 7996 7995 ] final  -51.42 input   59.86 | X-H torsion
[ 10167 10162 10161 10158 ] final  148.85 input  -65.29 | X-H torsion
[ 10718 10713 10712 10709 ] final   69.52 input   66.30 | X-H torsion
[ 10763 10752 10751 10750 ] final -100.40 input  -60.55 | X-H torsion
[ 11005 11000 10999 10996 ] final -111.06 input  -57.11 | X-H torsion

> <Gold.Protein.ActiveResidues>
 VAL166  LYS551  ARG553  GLY616  TRP617  ASP618  TYR619  PRO620  LYS621  CYS622 
 ASP623  PHE694  ASN695  SER759  ASP760  ASP761  ALA762  ILE779  LEU786  VAL792 
 PHE793  MET794  SER795  GLU796  ALA797  LYS798  CYS799  TRP800  GLU811  SER814 

> <Gold.Protein.RotatedAtoms>
  151.2697  133.4261  159.2620 H   0  0  0  0  0  0  0  0  0  0  0  0  # atno 6907 bound_to 6896
  151.0456  134.9638  159.8195 H   0  0  0  0  0  0  0  0  0  0  0  0  # atno 6908 bound_to 6896
  152.5373  134.2654  159.9003 H   0  0  0  0  0  0  0  0  0  0  0  0  # atno 6909 bound_to 6896
  145.4911  139.2276  143.2829 H   0  0  0  0  0  0  0  0  0  0  0  0  # atno 7974 bound_to 7965
  154.4082  140.1248  156.4826 H   0  0  0  0  0  0  0  0  0  0  0  0  # atno 8008 bound_to 7997
  155.7070  140.3494  155.4938 H   0  0  0  0  0  0  0  0  0  0  0  0  # atno 8009 bound_to 7997
  155.9334  140.1074  157.1104 H   0  0  0  0  0  0  0  0  0  0  0  0  # atno 8010 bound_to 7997
  139.4869  144.5647  151.7166 H   0  0  0  0  0  0  0  0  0  0  0  0  # atno 10167 bound_to 10162
  157.6350  130.9430  150.0524 H   0  0  0  0  0  0  0  0  0  0  0  0  # atno 10718 bound_to 10713
  154.7576  135.4936  153.9403 H   0  0  0  0  0  0  0  0  0  0  0  0  # atno 10763 bound_to 10752
  153.1214  135.6732  153.9338 H   0  0  0  0  0  0  0  0  0  0  0  0  # atno 10764 bound_to 10752
  153.9069  135.3103  155.3427 H   0  0  0  0  0  0  0  0  0  0  0  0  # atno 10765 bound_to 10752
  141.0756  133.9306  157.2396 H   0  0  0  0  0  0  0  0  0  0  0  0  # atno 11005 bound_to 11000
  146.2284  140.5705  142.8986 LP  0  0  0  0  0  0  0  0  0  0  0  0  # atno 17320 bound_to 7965
  144.7833  140.5886  143.6590 LP  0  0  0  0  0  0  0  0  0  0  0  0  # atno 17321 bound_to 7965
  140.5223  144.0859  150.6026 LP  0  0  0  0  0  0  0  0  0  0  0  0  # atno 17342 bound_to 10162
  140.3821  143.2797  152.0158 LP  0  0  0  0  0  0  0  0  0  0  0  0  # atno 17343 bound_to 10162
  156.1582  130.3643  149.9338 LP  0  0  0  0  0  0  0  0  0  0  0  0  # atno 17370 bound_to 10713
  156.7342  130.9055  151.3628 LP  0  0  0  0  0  0  0  0  0  0  0  0  # atno 17371 bound_to 10713
  139.9568  135.0163  156.9152 LP  0  0  0  0  0  0  0  0  0  0  0  0  # atno 17394 bound_to 11000
  140.5580  134.0562  155.7390 LP  0  0  0  0  0  0  0  0  0  0  0  0  # atno 17395 bound_to 11000

$$$$
