AV-unprocessed.smi:1514|AV-procd|sdf|6115|dock8
  -GOLD-   22720 6253D 1   1.00000     0.00000
 Structure written by MMmdl.
 48 49  0  0  0  0  0  0  0  0  2 V2000
  144.0188  131.8800  150.5932 C   0  0  0  0  0  0  0  0  0  0  0  0
  144.8908  132.2315  151.8073 C   0  0  0  0  0  0  0  0  0  0  0  0
  146.1915  132.7755  151.4101 N   0  0  0  0  0  0  0  0  0  0  0  0
  146.0658  133.9054  150.4865 C   0  0  0  0  0  0  0  0  0  0  0  0
  145.5228  135.1690  151.1867 C   0  0  0  0  0  0  0  0  0  0  0  0
  146.3986  135.5574  152.3186 N   0  3  0  0  0  0  0  0  0  0  0  0
  145.9545  136.8136  152.9716 C   0  0  0  0  0  0  0  0  0  0  0  0
  146.1946  138.0535  152.0887 C   0  0  0  0  0  0  0  0  0  0  0  0
  147.4888  138.6662  152.3655 N   0  0  0  0  0  0  0  0  0  0  0  0
  147.8770  139.1252  153.5641 C   0  0  0  0  0  0  0  0  0  0  0  0
  147.1616  139.0834  154.5653 O   0  0  0  0  0  0  0  0  0  0  0  0
  149.1240  139.6258  153.5141 N   0  0  0  0  0  0  0  0  0  0  0  0
  149.8563  140.1826  154.5152 C   0  0  0  0  0  0  0  0  0  0  0  0
  149.6466  141.3572  155.1848 C   0  0  0  0  0  0  0  0  0  0  0  0
  150.7351  141.3925  156.1042 C   0  0  0  0  0  0  0  0  0  0  0  0
  151.0518  142.4498  157.1203 C   0  0  0  0  0  0  0  0  0  0  0  0
  151.5306  140.3340  155.9980 N   0  0  0  0  0  0  0  0  0  0  0  0
  150.9900  139.5814  155.0155 N   0  0  0  0  0  0  0  0  0  0  0  0
  151.6146  138.3302  154.6322 C   0  0  0  0  0  0  0  0  0  0  0  0
  146.5466  134.4189  153.2603 C   0  0  0  0  0  0  0  0  0  0  0  0
  147.0657  133.1677  152.5209 C   0  0  0  0  0  0  0  0  0  0  0  0
  143.0143  131.6046  150.9144 H   0  0  0  0  0  0  0  0  0  0  0  0
  144.4178  131.0360  150.0316 H   0  0  0  0  0  0  0  0  0  0  0  0
  143.9257  132.7277  149.9135 H   0  0  0  0  0  0  0  0  0  0  0  0
  144.3650  132.9902  152.3885 H   0  0  0  0  0  0  0  0  0  0  0  0
  144.9968  131.3642  152.4578 H   0  0  0  0  0  0  0  0  0  0  0  0
  147.0469  134.1179  150.0596 H   0  0  0  0  0  0  0  0  0  0  0  0
  145.4227  133.6283  149.6502 H   0  0  0  0  0  0  0  0  0  0  0  0
  145.4845  135.9840  150.4630 H   0  0  0  0  0  0  0  0  0  0  0  0
  144.5011  135.0171  151.5376 H   0  0  0  0  0  0  0  0  0  0  0  0
  144.8852  136.7492  153.1793 H   0  0  0  0  0  0  0  0  0  0  0  0
  146.4496  136.9147  153.9388 H   0  0  0  0  0  0  0  0  0  0  0  0
  146.1386  137.8075  151.0279 H   0  0  0  0  0  0  0  0  0  0  0  0
  145.4203  138.7982  152.2753 H   0  0  0  0  0  0  0  0  0  0  0  0
  148.1373  138.7357  151.5944 H   0  0  0  0  0  0  0  0  0  0  0  0
  149.5841  139.5881  152.6166 H   0  0  0  0  0  0  0  0  0  0  0  0
  148.8575  142.0824  155.0568 H   0  0  0  0  0  0  0  0  0  0  0  0
  150.2499  143.1853  157.1864 H   0  0  0  0  0  0  0  0  0  0  0  0
  151.9681  142.9802  156.8605 H   0  0  0  0  0  0  0  0  0  0  0  0
  151.1856  142.0162  158.1117 H   0  0  0  0  0  0  0  0  0  0  0  0
  151.8939  138.3679  153.5791 H   0  0  0  0  0  0  0  0  0  0  0  0
  150.9148  137.5088  154.7873 H   0  0  0  0  0  0  0  0  0  0  0  0
  152.5099  138.1486  155.2285 H   0  0  0  0  0  0  0  0  0  0  0  0
  147.2571  134.6748  154.0454 H   0  0  0  0  0  0  0  0  0  0  0  0
  145.5982  134.2156  153.7590 H   0  0  0  0  0  0  0  0  0  0  0  0
  147.1942  132.3408  153.2182 H   0  0  0  0  0  0  0  0  0  0  0  0
  148.0585  133.3738  152.1189 H   0  0  0  0  0  0  0  0  0  0  0  0
  147.3102  135.7374  151.9230 H   0  0  0  0  0  0  0  0  0  0  0  0
  1  2  1  0  0  0  0
  1 22  1  0  0  0  0
  1 23  1  0  0  0  0
  1 24  1  0  0  0  0
  2  3  1  0  0  0  0
  2 25  1  0  0  0  0
  2 26  1  0  0  0  0
  3 21  1  0  0  0  0
  3  4  1  0  0  0  0
  4  5  1  0  0  0  0
  4 27  1  0  0  0  0
  4 28  1  0  0  0  0
  5  6  1  0  0  0  0
  5 29  1  0  0  0  0
  5 30  1  0  0  0  0
  6  7  1  0  0  0  0
  6 20  1  0  0  0  0
  6 48  1  0  0  0  0
  7  8  1  0  0  0  0
  7 31  1  0  0  0  0
  7 32  1  0  0  0  0
  8  9  1  0  0  0  0
  8 33  1  0  0  0  0
  8 34  1  0  0  0  0
  9 10  1  0  0  0  0
  9 35  1  0  0  0  0
 10 11  2  0  0  0  0
 10 12  1  0  0  0  0
 12 13  1  0  0  0  0
 12 36  1  0  0  0  0
 13 18  1  0  0  0  0
 13 14  2  0  0  0  0
 14 15  1  0  0  0  0
 14 37  1  0  0  0  0
 15 16  1  0  0  0  0
 15 17  2  0  0  0  0
 16 38  1  0  0  0  0
 16 39  1  0  0  0  0
 16 40  1  0  0  0  0
 17 18  1  0  0  0  0
 18 19  1  0  0  0  0
 19 41  1  0  0  0  0
 19 42  1  0  0  0  0
 19 43  1  0  0  0  0
 20 21  1  0  0  0  0
 20 44  1  0  0  0  0
 20 45  1  0  0  0  0
 21 46  1  0  0  0  0
 21 47  1  0  0  0  0
M  CHG  1   6   1
M  END
> <s_m_source_file>
AV-unprocessed.smi

> <i_m_source_file_index>
1514

> <i_lp_mmshare_version>
43012

> <i_f3d_flags>
0

> <s_epik_input>
W0NIM11bQ0gyXU4xW0NIMl1bQ0gyXU4oW0NIMl1bQ0gyXTEpW0NIMl1bQ0gyXVtOSF1DKD1PKVtOSF1jMltjSF1jKFtDSDNdKW5uMltDSDNd

> <s_epik_cmdline>
J2VwaWtfcHl0aG9uJywgJy1waCcsICc3LjAnLCAnLXRuJywgJzgnLCAnLW1hJywgJzIwMCcsICctbWV0YWxfYmluZGluZycsICctaW1hZScsICc8aW5maWxlLm1hZT4nLCAnLW9tYWUnLCAnPG91dGZpbGUubWFlPic=

> <r_epik_Ionization_Penalty>
0.237948

> <r_epik_Ionization_Penalty_Charging>
0.236594

> <r_epik_Ionization_Penalty_Neutral>
0.00135429

> <r_epik_State_Penalty>
1.1865

> <r_epik_Charging_Adjusted_Penalty>
1.42309

> <i_epik_Tot_Q>
1

> <i_epik_Tot_abs_Q>
1

> <r_epik_Metal_State_Penalty>
1.18651

> <b_epik_Metal_Only>
0

> <s_lp_Force_Field>
OPLS_2005

> <r_lp_Energy>
18.1448

> <b_lp_Chiralities_Consistent>
1

> <s_lp_Variant>
AV-unprocessed.smi:1514-2

> <Gold.Version>
5.8.1

> <Gold.Id.Protein>
6NUR|6NUR_protein|mol2

> <Gold.PLP.Fitness>
50.0007

> <Gold.PLP.PLP>
-40.8223

> <Gold.PLP.part.hbond>
-3.7376

> <Gold.PLP.part.metal>
0.0000

> <Gold.PLP.part.buried>
-2.1898

> <Gold.PLP.part.nonpolar>
-34.2003

> <Gold.PLP.part.repulsive>
0.4699

> <Gold.PLP.ligand.clash>
0.0000

> <Gold.PLP.ligand.torsion>
0.9570

> <Gold.PLP.Chemscore.Hbond>
3.6800

> <Gold.PLP.Chemscore.CHOScore>
0.0000

> <Gold.PLP.Chemscore.Metal>
0.0000

> <Gold.Chemscore.Hbonds>
donor molecule, donor type, donor heavy atom, donor atom, acceptor molecule, acceptor atom, score
      L1  H     6    48       P1  7948  2.00
      L1  H     9    35       P1  7957  0.69
      L1  H    12    36       P1  7957  0.95

> <Gold.PLP.Chemscore.Internal.Correction>
0.0524

> <Gold.Rescore>
     Score         DG    S(hbond)    S(metal)    S(lipo)     H(rot)  DE(clash)    DE(int)     intcor
     17.78     -19.84       2.95        0.00      75.45       1.69       0.13       1.93       ----

> <Gold.Chemscore.Fitness>
17.7775

> <Gold.Chemscore.DG>
-19.8439

> <Gold.Chemscore.ZeroCoef>
-5.4800

> <Gold.Chemscore.Hbond>
2.9539

> <Gold.Chemscore.Metal>
0.0000

> <Gold.Chemscore.Lipo>
75.4505

> <Gold.Chemscore.Internal_Hbond>
0.0000

> <Gold.Chemscore.DEClash>
0.1321

> <Gold.Chemscore.DEInternal>
1.9343

> <Gold.Chemscore.Rot>
1.6914

> <Gold.Chemscore.Internal.Correction>
   9.000000E+99

> <Gold.Chemscore.Hbonds>
donor molecule, donor type, donor heavy atom, donor atom, acceptor molecule, acceptor atom, score
      L1  H     6    48       P1  7948  1.00
      L1  H     9    35       P1  7957  0.44
      L1  H    12    36       P1  7957  0.86

> <Gold.Chemscore.Hbond.Weighted>
-9.8661

> <Gold.Chemscore.Metal.Weighted>
-0.0000

> <Gold.Chemscore.Lipo.Weighted>
-8.8277

> <Gold.Chemscore.Internal_Hbond.Weighted>
0.0000

> <Gold.Chemscore.DEClash.Weighted>
0.1321

> <Gold.Chemscore.DEInternal.Weighted>
1.9343

> <Gold.Chemscore.Rot.Weighted>
4.3299

> <Gold.Chemscore.Internal.Correction.Weighted>
   9.000000E+99

> <Gold.Protein.RotatedTorsions>
[ 6907 6896 6895 6894 ] final   16.77 input  -60.11 | X-H torsion
[ 7974 7965 7964 7962 ] final   -5.70 input  175.53 | X-H torsion
[ 8008 7997 7996 7995 ] final  100.41 input   59.86 | X-H torsion
[ 10167 10162 10161 10158 ] final -126.80 input  -65.29 | X-H torsion
[ 10718 10713 10712 10709 ] final  133.45 input   66.30 | X-H torsion
[ 10763 10752 10751 10750 ] final  177.35 input  -60.55 | X-H torsion
[ 11005 11000 10999 10996 ] final -130.40 input  -57.11 | X-H torsion

> <Gold.Protein.ActiveResidues>
 VAL166  LYS551  ARG553  GLY616  TRP617  ASP618  TYR619  PRO620  LYS621  CYS622 
 ASP623  PHE694  ASN695  SER759  ASP760  ASP761  ALA762  ILE779  LEU786  VAL792 
 PHE793  MET794  SER795  GLU796  ALA797  LYS798  CYS799  TRP800  GLU811  SER814 

> <Gold.Protein.RotatedAtoms>
  151.8391  135.0596  160.0445 H   0  0  0  0  0  0  0  0  0  0  0  0  # atno 6907 bound_to 6896
  152.2822  133.5477  159.5513 H   0  0  0  0  0  0  0  0  0  0  0  0  # atno 6908 bound_to 6896
  150.7194  134.0464  159.3825 H   0  0  0  0  0  0  0  0  0  0  0  0  # atno 6909 bound_to 6896
  146.2347  140.2060  142.8334 H   0  0  0  0  0  0  0  0  0  0  0  0  # atno 7974 bound_to 7965
  156.1201  140.3213  155.8195 H   0  0  0  0  0  0  0  0  0  0  0  0  # atno 8008 bound_to 7997
  155.4520  140.0533  157.3017 H   0  0  0  0  0  0  0  0  0  0  0  0  # atno 8009 bound_to 7997
  154.4821  140.2057  155.9753 H   0  0  0  0  0  0  0  0  0  0  0  0  # atno 8010 bound_to 7997
  139.9676  143.5881  152.2424 H   0  0  0  0  0  0  0  0  0  0  0  0  # atno 10167 bound_to 10162
  157.4772  131.1083  150.9728 H   0  0  0  0  0  0  0  0  0  0  0  0  # atno 10718 bound_to 10713
  154.4933  135.2780  155.1479 H   0  0  0  0  0  0  0  0  0  0  0  0  # atno 10763 bound_to 10752
  154.3142  135.6223  153.5483 H   0  0  0  0  0  0  0  0  0  0  0  0  # atno 10764 bound_to 10752
  152.9891  135.5727  154.5359 H   0  0  0  0  0  0  0  0  0  0  0  0  # atno 10765 bound_to 10752
  140.9349  134.1270  157.4202 H   0  0  0  0  0  0  0  0  0  0  0  0  # atno 11005 bound_to 11000
  144.9744  140.8399  143.5435 LP  0  0  0  0  0  0  0  0  0  0  0  0  # atno 17320 bound_to 7965
  145.2046  139.2235  143.5175 LP  0  0  0  0  0  0  0  0  0  0  0  0  # atno 17321 bound_to 7965
  139.6506  144.7660  151.2156 LP  0  0  0  0  0  0  0  0  0  0  0  0  # atno 17342 bound_to 10162
  140.7533  143.6167  150.8552 LP  0  0  0  0  0  0  0  0  0  0  0  0  # atno 17343 bound_to 10162
  157.0474  130.5773  149.5365 LP  0  0  0  0  0  0  0  0  0  0  0  0  # atno 17370 bound_to 10713
  156.0103  130.5193  150.7965 LP  0  0  0  0  0  0  0  0  0  0  0  0  # atno 17371 bound_to 10713
  139.8805  135.0017  156.6085 LP  0  0  0  0  0  0  0  0  0  0  0  0  # atno 17394 bound_to 11000
  140.7813  133.8658  155.8570 LP  0  0  0  0  0  0  0  0  0  0  0  0  # atno 17395 bound_to 11000

$$$$
