AV-unprocessed.smi:1800|AV-procd|sdf|7266|dock5
  -GOLD-   22720 8523D 1   1.00000     0.00000
 Structure written by MMmdl.
 35 36  0  0  0  0  0  0  0  0  2 V2000
  150.2118  141.0205  157.5794 C   0  0  0  0  0  0  0  0  0  0  0  0
  151.6978  141.3732  157.4266 C   0  0  1  0  0  0  0  0  0  0  0  0
  152.3036  141.9046  158.7508 C   0  0  0  0  0  0  0  0  0  0  0  0
  151.9655  143.2926  159.0552 N   0  0  0  0  0  0  0  0  0  0  0  0
  151.1685  144.1669  158.3400 C   0  0  0  0  0  0  0  0  0  0  0  0
  151.1407  145.3490  159.0225 C   0  0  0  0  0  0  0  0  0  0  0  0
  151.9497  145.0980  160.1651 C   0  0  0  0  0  0  0  0  0  0  0  0
  152.4277  143.8652  160.1915 N   0  0  0  0  0  0  0  0  0  0  0  0
  152.4213  140.1891  156.9839 N   0  5  0  0  0  0  0  0  0  0  0  0
  152.1510  139.5884  155.5015 S   0  0  0  0  0  0  0  0  0  0  0  0
  151.0020  140.2338  154.8461 O   0  0  0  0  0  0  0  0  0  0  0  0
  153.3837  139.4627  154.7058 O   0  0  0  0  0  0  0  0  0  0  0  0
  151.6154  137.8621  155.9339 C   0  0  0  0  0  0  0  0  0  0  0  0
  150.9456  137.1654  154.7419 C   0  0  0  0  0  0  0  0  0  0  0  0
  149.4477  137.4959  154.8300 C   0  0  0  0  0  0  0  0  0  0  0  0
  149.2164  138.1003  156.2228 C   0  0  0  0  0  0  0  0  0  0  0  0
  150.5137  137.8640  156.9988 C   0  0  0  0  0  0  0  0  0  0  0  0
  149.6357  141.8898  157.8967 H   0  0  0  0  0  0  0  0  0  0  0  0
  150.0616  140.2347  158.3210 H   0  0  0  0  0  0  0  0  0  0  0  0
  149.7894  140.6748  156.6350 H   0  0  0  0  0  0  0  0  0  0  0  0
  151.7573  142.1768  156.6910 H   0  0  0  0  0  0  0  0  0  0  0  0
  151.9499  141.2948  159.5829 H   0  0  0  0  0  0  0  0  0  0  0  0
  153.3900  141.7987  158.7394 H   0  0  0  0  0  0  0  0  0  0  0  0
  150.7023  143.8790  157.4094 H   0  0  0  0  0  0  0  0  0  0  0  0
  150.6238  146.2553  158.7458 H   0  0  0  0  0  0  0  0  0  0  0  0
  152.1977  145.7687  160.9743 H   0  0  0  0  0  0  0  0  0  0  0  0
  152.4948  137.3226  156.2863 H   0  0  0  0  0  0  0  0  0  0  0  0
  151.3813  137.4577  153.7860 H   0  0  0  0  0  0  0  0  0  0  0  0
  151.0799  136.0875  154.8368 H   0  0  0  0  0  0  0  0  0  0  0  0
  149.1580  138.2068  154.0552 H   0  0  0  0  0  0  0  0  0  0  0  0
  148.8492  136.5962  154.6848 H   0  0  0  0  0  0  0  0  0  0  0  0
  149.0350  139.1719  156.1310 H   0  0  0  0  0  0  0  0  0  0  0  0
  148.3523  137.6658  156.7257 H   0  0  0  0  0  0  0  0  0  0  0  0
  150.4743  136.8832  157.4742 H   0  0  0  0  0  0  0  0  0  0  0  0
  150.6697  138.5980  157.7891 H   0  0  0  0  0  0  0  0  0  0  0  0
  1  2  1  0  0  0  0
  1 18  1  0  0  0  0
  1 19  1  0  0  0  0
  1 20  1  0  0  0  0
  2  3  1  0  0  0  0
  2  9  1  0  0  0  0
  2 21  1  0  0  0  0
  3  4  1  0  0  0  0
  3 22  1  0  0  0  0
  3 23  1  0  0  0  0
  4  8  1  0  0  0  0
  4  5  1  0  0  0  0
  5  6  2  0  0  0  0
  5 24  1  0  0  0  0
  6  7  1  0  0  0  0
  6 25  1  0  0  0  0
  7  8  2  0  0  0  0
  7 26  1  0  0  0  0
  9 10  1  0  0  0  0
 10 11  2  0  0  0  0
 10 12  2  0  0  0  0
 10 13  1  0  0  0  0
 13 17  1  0  0  0  0
 13 14  1  0  0  0  0
 13 27  1  0  0  0  0
 14 15  1  0  0  0  0
 14 28  1  0  0  0  0
 14 29  1  0  0  0  0
 15 16  1  0  0  0  0
 15 30  1  0  0  0  0
 15 31  1  0  0  0  0
 16 17  1  0  0  0  0
 16 32  1  0  0  0  0
 16 33  1  0  0  0  0
 17 34  1  0  0  0  0
 17 35  1  0  0  0  0
M  CHG  1   9  -1
M  END
> <s_m_source_file>
AV-unprocessed.smi

> <i_m_source_file_index>
1800

> <i_lp_mmshare_version>
43012

> <i_f3d_flags>
0

> <s_epik_input>
bjFbY0hdW2NIXVtjSF1uMVtDSDJdW0NAQEhdKFtDSDNdKVtOSF1TKD1PKSg9TylbQ0hdMltDSDJdW0NIMl1bQ0gyXVtDSDJdMg==

> <s_epik_cmdline>
J2VwaWtfcHl0aG9uJywgJy1waCcsICc3LjAnLCAnLXRuJywgJzgnLCAnLW1hJywgJzIwMCcsICctbWV0YWxfYmluZGluZycsICctaW1hZScsICc8aW5maWxlLm1hZT4nLCAnLW9tYWUnLCAnPG91dGZpbGUubWFlPic=

> <r_lp_tautomer_probability>
1

> <r_epik_Ionization_Penalty>
6.58538

> <r_epik_Ionization_Penalty_Charging>
6.58536

> <r_epik_Ionization_Penalty_Neutral>
2.3841e-05

> <r_epik_State_Penalty>
6.58535

> <r_epik_Charging_Adjusted_Penalty>
13.1707

> <i_epik_Tot_Q>
-1

> <i_epik_Tot_abs_Q>
1

> <r_epik_Metal_State_Penalty>
2.50999

> <b_epik_Metal_Only>
1

> <s_lp_Force_Field>
OPLS_2005

> <r_lp_Energy>
15.5507

> <b_lp_Chiralities_Consistent>
1

> <s_lp_Variant>
AV-unprocessed.smi:1800-4

> <Gold.Version>
5.8.1

> <Gold.Id.Protein>
6NUR|6NUR_protein|mol2

> <Gold.PLP.Fitness>
40.9154

> <Gold.PLP.PLP>
-32.0104

> <Gold.PLP.part.hbond>
-3.9977

> <Gold.PLP.part.metal>
0.0000

> <Gold.PLP.part.buried>
-3.5566

> <Gold.PLP.part.nonpolar>
-23.7025

> <Gold.PLP.part.repulsive>
0.1203

> <Gold.PLP.ligand.clash>
0.0000

> <Gold.PLP.ligand.torsion>
1.1666

> <Gold.PLP.Chemscore.Hbond>
2.6085

> <Gold.PLP.Chemscore.CHOScore>
0.7717

> <Gold.PLP.Chemscore.Metal>
0.0000

> <Gold.Chemscore.Hbonds>
donor molecule, donor type, donor heavy atom, donor atom, acceptor molecule, acceptor atom, score
      P1  H  7989  7998       L1    11  1.00
      P1  H  7997  8008       L1     9  0.95
      P1  H  7997  8009       L1    12  0.34
      L1  C     5    24       P1  8028  0.74

> <Gold.PLP.Chemscore.Internal.Correction>
1.0976

> <Gold.Rescore>
     Score         DG    S(hbond)    S(metal)    S(lipo)     H(rot)  DE(clash)    DE(int)     intcor
     14.71     -16.15       1.65        0.00      77.31       1.51       0.10       1.34       ----

> <Gold.Chemscore.Fitness>
14.7098

> <Gold.Chemscore.DG>
-16.1526

> <Gold.Chemscore.ZeroCoef>
-5.4800

> <Gold.Chemscore.Hbond>
1.6483

> <Gold.Chemscore.Metal>
0.0000

> <Gold.Chemscore.Lipo>
77.3051

> <Gold.Chemscore.Internal_Hbond>
0.0000

> <Gold.Chemscore.DEClash>
0.0994

> <Gold.Chemscore.DEInternal>
1.3435

> <Gold.Chemscore.Rot>
1.5146

> <Gold.Chemscore.Internal.Correction>
   9.000000E+99

> <Gold.Chemscore.Hbonds>
donor molecule, donor type, donor heavy atom, donor atom, acceptor molecule, acceptor atom, score
      P1  H  7989  7998       L1    11  0.44
      P1  H  7997  8008       L1     9  0.08
      P1  H  7997  8009       L1    12  0.33

> <Gold.Chemscore.Hbond.Weighted>
-5.5053

> <Gold.Chemscore.Metal.Weighted>
-0.0000

> <Gold.Chemscore.Lipo.Weighted>
-9.0447

> <Gold.Chemscore.Internal_Hbond.Weighted>
0.0000

> <Gold.Chemscore.DEClash.Weighted>
0.0994

> <Gold.Chemscore.DEInternal.Weighted>
1.3435

> <Gold.Chemscore.Rot.Weighted>
3.8773

> <Gold.Chemscore.Internal.Correction.Weighted>
   9.000000E+99

> <Gold.Protein.RotatedTorsions>
[ 6907 6896 6895 6894 ] final -157.38 input  -60.11 | X-H torsion
[ 7974 7965 7964 7962 ] final  156.37 input  175.53 | X-H torsion
[ 8008 7997 7996 7995 ] final  -81.44 input   59.86 | X-H torsion
[ 10167 10162 10161 10158 ] final  -95.94 input  -65.29 | X-H torsion
[ 10718 10713 10712 10709 ] final -174.57 input   66.30 | X-H torsion
[ 10763 10752 10751 10750 ] final -156.64 input  -60.55 | X-H torsion
[ 11005 11000 10999 10996 ] final -175.39 input  -57.11 | X-H torsion

> <Gold.Protein.ActiveResidues>
 VAL166  LYS551  ARG553  GLY616  TRP617  ASP618  TYR619  PRO620  LYS621  CYS622 
 ASP623  PHE694  ASN695  SER759  ASP760  ASP761  ALA762  ILE779  LEU786  VAL792 
 PHE793  MET794  SER795  GLU796  ALA797  LYS798  CYS799  TRP800  GLU811  SER814 

> <Gold.Protein.RotatedAtoms>
  151.3019  133.4118  159.2640 H   0  0  0  0  0  0  0  0  0  0  0  0  # atno 6907 bound_to 6896
  151.0188  134.9453  159.8058 H   0  0  0  0  0  0  0  0  0  0  0  0  # atno 6908 bound_to 6896
  152.5319  134.2983  159.9121 H   0  0  0  0  0  0  0  0  0  0  0  0  # atno 6909 bound_to 6896
  144.7967  139.7195  143.6199 H   0  0  0  0  0  0  0  0  0  0  0  0  # atno 7974 bound_to 7965
  154.5984  140.0648  156.9335 H   0  0  0  0  0  0  0  0  0  0  0  0  # atno 8008 bound_to 7997
  155.2175  140.3327  155.4302 H   0  0  0  0  0  0  0  0  0  0  0  0  # atno 8009 bound_to 7997
  156.2302  140.1837  156.7246 H   0  0  0  0  0  0  0  0  0  0  0  0  # atno 8010 bound_to 7997
  140.2989  143.3174  152.0269 H   0  0  0  0  0  0  0  0  0  0  0  0  # atno 10167 bound_to 10162
  156.7871  130.9504  151.3120 H   0  0  0  0  0  0  0  0  0  0  0  0  # atno 10718 bound_to 10713
  154.7697  135.3141  154.8214 H   0  0  0  0  0  0  0  0  0  0  0  0  # atno 10763 bound_to 10752
  153.8952  135.6821  153.4762 H   0  0  0  0  0  0  0  0  0  0  0  0  # atno 10764 bound_to 10752
  153.1309  135.4780  154.9281 H   0  0  0  0  0  0  0  0  0  0  0  0  # atno 10765 bound_to 10752
  140.4638  134.6229  157.4854 H   0  0  0  0  0  0  0  0  0  0  0  0  # atno 11005 bound_to 11000
  146.2237  139.5683  142.9601 LP  0  0  0  0  0  0  0  0  0  0  0  0  # atno 17320 bound_to 7965
  145.5656  141.0400  143.2202 LP  0  0  0  0  0  0  0  0  0  0  0  0  # atno 17321 bound_to 7965
  139.4920  144.6470  151.6757 LP  0  0  0  0  0  0  0  0  0  0  0  0  # atno 17342 bound_to 10162
  140.5668  144.0176  150.6196 LP  0  0  0  0  0  0  0  0  0  0  0  0  # atno 17343 bound_to 10162
  157.6619  130.8973  149.9847 LP  0  0  0  0  0  0  0  0  0  0  0  0  # atno 17370 bound_to 10713
  156.1182  130.3647  149.9932 LP  0  0  0  0  0  0  0  0  0  0  0  0  # atno 17371 bound_to 10713
  139.9928  134.6958  155.9660 LP  0  0  0  0  0  0  0  0  0  0  0  0  # atno 17394 bound_to 11000
  141.1609  133.6539  156.4314 LP  0  0  0  0  0  0  0  0  0  0  0  0  # atno 17395 bound_to 11000

$$$$
