AV-unprocessed.smi:2746|AV-procd|sdf|10572|dock3
  -GOLD-   2272015 23D 1   1.00000     0.00000
 Structure written by MMmdl.
 38 39  0  0  0  0  0  0  0  0  1 V2000
  151.9731  144.9146  158.9634 C   0  0  0  0  0  0  0  0  0  0  0  0
  152.1492  143.7402  159.5872 C   0  0  0  0  0  0  0  0  0  0  0  0
  152.5287  142.4462  158.8911 C   0  0  1  0  0  0  0  0  0  0  0  0
  152.6531  141.2937  159.8958 C   0  0  0  0  0  0  0  0  0  0  0  0
  151.5334  142.1032  157.8815 N   0  0  0  0  0  0  0  0  0  0  0  0
  151.6069  141.0632  157.0328 C   0  0  0  0  0  0  0  0  0  0  0  0
  152.5554  140.2775  157.0074 O   0  0  0  0  0  0  0  0  0  0  0  0
  150.4641  140.9290  156.0622 C   0  0  0  0  0  0  0  0  0  0  0  0
  149.1922  141.4497  156.3967 C   0  0  0  0  0  0  0  0  0  0  0  0
  148.1339  141.3298  155.4684 C   0  0  0  0  0  0  0  0  0  0  0  0
  146.8495  141.8238  155.7338 N   0  0  0  0  0  0  0  0  0  0  0  0
  146.6903  142.3488  157.0839 C   0  0  0  0  0  0  0  0  0  0  0  0
  145.2249  142.7540  157.3205 C   0  0  0  0  0  0  0  0  0  0  0  0
  144.8196  143.6877  156.3233 O   0  0  0  0  0  0  0  0  0  0  0  0
  144.9098  143.1409  155.0105 C   0  0  0  0  0  0  0  0  0  0  0  0
  146.3675  142.7471  154.7149 C   0  0  0  0  0  0  0  0  0  0  0  0
  148.3911  140.6968  154.2370 C   0  0  0  0  0  0  0  0  0  0  0  0
  149.6888  140.2119  153.9891 C   0  0  0  0  0  0  0  0  0  0  0  0
  150.7025  140.3233  154.8726 N   0  0  0  0  0  0  0  0  0  0  0  0
  152.0954  145.0051  157.8939 H   0  0  0  0  0  0  0  0  0  0  0  0
  151.7032  145.8021  159.5164 H   0  0  0  0  0  0  0  0  0  0  0  0
  152.0182  143.6890  160.6585 H   0  0  0  0  0  0  0  0  0  0  0  0
  153.4984  142.5773  158.4068 H   0  0  0  0  0  0  0  0  0  0  0  0
  153.4088  141.5127  160.6509 H   0  0  0  0  0  0  0  0  0  0  0  0
  152.9466  140.3693  159.3971 H   0  0  0  0  0  0  0  0  0  0  0  0
  151.7100  141.1092  160.4120 H   0  0  0  0  0  0  0  0  0  0  0  0
  150.7205  142.6991  157.8181 H   0  0  0  0  0  0  0  0  0  0  0  0
  149.0280  141.9340  157.3487 H   0  0  0  0  0  0  0  0  0  0  0  0
  146.9919  141.5943  157.8115 H   0  0  0  0  0  0  0  0  0  0  0  0
  147.3392  143.2140  157.2265 H   0  0  0  0  0  0  0  0  0  0  0  0
  144.5717  141.8801  157.3019 H   0  0  0  0  0  0  0  0  0  0  0  0
  145.1151  143.2129  158.3030 H   0  0  0  0  0  0  0  0  0  0  0  0
  144.2477  142.2784  154.9183 H   0  0  0  0  0  0  0  0  0  0  0  0
  144.5670  143.8840  154.2906 H   0  0  0  0  0  0  0  0  0  0  0  0
  146.9952  143.6392  154.6971 H   0  0  0  0  0  0  0  0  0  0  0  0
  146.4376  142.2821  153.7307 H   0  0  0  0  0  0  0  0  0  0  0  0
  147.6127  140.5843  153.4966 H   0  0  0  0  0  0  0  0  0  0  0  0
  149.9195  139.7218  153.0549 H   0  0  0  0  0  0  0  0  0  0  0  0
  1  2  2  0  0  0  0
  1 20  1  0  0  0  0
  1 21  1  0  0  0  0
  2  3  1  0  0  0  0
  2 22  1  0  0  0  0
  3  4  1  0  0  0  0
  3  5  1  0  0  0  0
  3 23  1  0  0  0  0
  4 24  1  0  0  0  0
  4 25  1  0  0  0  0
  4 26  1  0  0  0  0
  5  6  1  0  0  0  0
  5 27  1  0  0  0  0
  6  7  2  0  0  0  0
  6  8  1  0  0  0  0
  8 19  1  0  0  0  0
  8  9  2  0  0  0  0
  9 10  1  0  0  0  0
  9 28  1  0  0  0  0
 10 11  1  0  0  0  0
 10 17  2  0  0  0  0
 11 16  1  0  0  0  0
 11 12  1  0  0  0  0
 12 13  1  0  0  0  0
 12 29  1  0  0  0  0
 12 30  1  0  0  0  0
 13 14  1  0  0  0  0
 13 31  1  0  0  0  0
 13 32  1  0  0  0  0
 14 15  1  0  0  0  0
 15 16  1  0  0  0  0
 15 33  1  0  0  0  0
 15 34  1  0  0  0  0
 16 35  1  0  0  0  0
 16 36  1  0  0  0  0
 17 18  1  0  0  0  0
 17 37  1  0  0  0  0
 18 19  2  0  0  0  0
 18 38  1  0  0  0  0
M  END
> <s_m_source_file>
AV-unprocessed.smi

> <i_m_source_file_index>
2746

> <i_lp_mmshare_version>
43012

> <i_f3d_flags>
0

> <s_epik_input>
W0NIMl09W0NIXVtDQEhdKFtDSDNdKVtOSF1DKD1PKWMxW2NIXWMoW2NIXVtjSF1uMSlOMltDSDJdW0NIMl1PW0NIMl1bQ0gyXTI=

> <s_epik_cmdline>
J2VwaWtfcHl0aG9uJywgJy1waCcsICc3LjAnLCAnLXRuJywgJzgnLCAnLW1hJywgJzIwMCcsICctbWV0YWxfYmluZGluZycsICctaW1hZScsICc8aW5maWxlLm1hZT4nLCAnLW9tYWUnLCAnPG91dGZpbGUubWFlPic=

> <r_lp_tautomer_probability>
1

> <r_epik_Ionization_Penalty>
0.373275

> <r_epik_Ionization_Penalty_Charging>
0

> <r_epik_Ionization_Penalty_Neutral>
0.373275

> <r_epik_State_Penalty>
0.370855

> <r_epik_Charging_Adjusted_Penalty>
0.370855

> <i_epik_Tot_Q>
0

> <i_epik_Tot_abs_Q>
0

> <r_epik_Metal_State_Penalty>
0.225885

> <b_epik_Metal_Only>
0

> <s_lp_Force_Field>
OPLS_2005

> <r_lp_Energy>
21.8565

> <b_lp_Chiralities_Consistent>
1

> <s_lp_Variant>
AV-unprocessed.smi:2746-2

> <Gold.Version>
5.8.1

> <Gold.Id.Protein>
6NUR|6NUR_protein|mol2

> <Gold.PLP.Fitness>
41.6745

> <Gold.PLP.PLP>
-35.3581

> <Gold.PLP.part.hbond>
-2.0000

> <Gold.PLP.part.metal>
0.0000

> <Gold.PLP.part.buried>
-1.0426

> <Gold.PLP.part.nonpolar>
-31.1661

> <Gold.PLP.part.repulsive>
0.3613

> <Gold.PLP.ligand.clash>
0.1504

> <Gold.PLP.ligand.torsion>
0.3528

> <Gold.PLP.Chemscore.Hbond>
1.3500

> <Gold.PLP.Chemscore.CHOScore>
0.9979

> <Gold.PLP.Chemscore.Metal>
0.0000

> <Gold.Chemscore.Hbonds>
donor molecule, donor type, donor heavy atom, donor atom, acceptor molecule, acceptor atom, score
      P1  H  7989  7998       L1    19  0.25
      P1  H  7997  8010       L1     7  0.98
      L1  C    18    38       P1  7957  0.78

> <Gold.PLP.Chemscore.Internal.Correction>
0.1286

> <Gold.Rescore>
     Score         DG    S(hbond)    S(metal)    S(lipo)     H(rot)  DE(clash)    DE(int)     intcor
     15.57     -16.34       1.06        0.00      90.53       1.27       0.41       0.35       ----

> <Gold.Chemscore.Fitness>
15.5709

> <Gold.Chemscore.DG>
-16.3360

> <Gold.Chemscore.ZeroCoef>
-5.4800

> <Gold.Chemscore.Hbond>
1.0556

> <Gold.Chemscore.Metal>
0.0000

> <Gold.Chemscore.Lipo>
90.5316

> <Gold.Chemscore.Internal_Hbond>
0.0000

> <Gold.Chemscore.DEClash>
0.4119

> <Gold.Chemscore.DEInternal>
0.3532

> <Gold.Chemscore.Rot>
1.2742

> <Gold.Chemscore.Internal.Correction>
   9.000000E+99

> <Gold.Chemscore.Hbonds>
donor molecule, donor type, donor heavy atom, donor atom, acceptor molecule, acceptor atom, score
      P1  H  7997  8010       L1     7  0.93

> <Gold.Chemscore.Hbond.Weighted>
-3.5257

> <Gold.Chemscore.Metal.Weighted>
-0.0000

> <Gold.Chemscore.Lipo.Weighted>
-10.5922

> <Gold.Chemscore.Internal_Hbond.Weighted>
0.0000

> <Gold.Chemscore.DEClash.Weighted>
0.4119

> <Gold.Chemscore.DEInternal.Weighted>
0.3532

> <Gold.Chemscore.Rot.Weighted>
3.2619

> <Gold.Chemscore.Internal.Correction.Weighted>
   9.000000E+99

> <Gold.Protein.RotatedTorsions>
[ 6907 6896 6895 6894 ] final   -5.79 input  -60.11 | X-H torsion
[ 7974 7965 7964 7962 ] final  -51.48 input  175.53 | X-H torsion
[ 8008 7997 7996 7995 ] final   70.63 input   59.86 | X-H torsion
[ 10167 10162 10161 10158 ] final  166.09 input  -65.29 | X-H torsion
[ 10718 10713 10712 10709 ] final  159.72 input   66.30 | X-H torsion
[ 10763 10752 10751 10750 ] final  165.45 input  -60.55 | X-H torsion
[ 11005 11000 10999 10996 ] final  101.38 input  -57.11 | X-H torsion

> <Gold.Protein.ActiveResidues>
 VAL166  LYS551  ARG553  GLY616  TRP617  ASP618  TYR619  PRO620  LYS621  CYS622 
 ASP623  PHE694  ASN695  SER759  ASP760  ASP761  ALA762  ILE779  LEU786  VAL792 
 PHE793  MET794  SER795  GLU796  ALA797  LYS798  CYS799  TRP800  GLU811  SER814 

> <Gold.Protein.RotatedAtoms>
  151.4759  135.1049  159.9763 H   0  0  0  0  0  0  0  0  0  0  0  0  # atno 6907 bound_to 6896
  152.4798  133.8223  159.7070 H   0  0  0  0  0  0  0  0  0  0  0  0  # atno 6908 bound_to 6896
  150.8862  133.7243  159.2944 H   0  0  0  0  0  0  0  0  0  0  0  0  # atno 6909 bound_to 6896
  145.9185  140.7854  142.9659 H   0  0  0  0  0  0  0  0  0  0  0  0  # atno 7974 bound_to 7965
  155.7417  140.3490  155.5107 H   0  0  0  0  0  0  0  0  0  0  0  0  # atno 8008 bound_to 7997
  155.9088  140.1047  157.1316 H   0  0  0  0  0  0  0  0  0  0  0  0  # atno 8009 bound_to 7997
  154.4053  140.1272  156.4517 H   0  0  0  0  0  0  0  0  0  0  0  0  # atno 8010 bound_to 7997
  139.4918  144.4064  151.9350 H   0  0  0  0  0  0  0  0  0  0  0  0  # atno 10167 bound_to 10162
  157.1603  131.0585  151.2236 H   0  0  0  0  0  0  0  0  0  0  0  0  # atno 10718 bound_to 10713
  154.3242  135.2755  155.2504 H   0  0  0  0  0  0  0  0  0  0  0  0  # atno 10763 bound_to 10752
  154.4844  135.5850  153.6417 H   0  0  0  0  0  0  0  0  0  0  0  0  # atno 10764 bound_to 10752
  152.9873  135.6119  154.3429 H   0  0  0  0  0  0  0  0  0  0  0  0  # atno 10765 bound_to 10752
  139.8773  134.9180  156.4898 H   0  0  0  0  0  0  0  0  0  0  0  0  # atno 11005 bound_to 11000
  144.6750  140.1938  143.7394 LP  0  0  0  0  0  0  0  0  0  0  0  0  # atno 17320 bound_to 7965
  145.8580  139.2208  143.1733 LP  0  0  0  0  0  0  0  0  0  0  0  0  # atno 17321 bound_to 7965
  140.3504  144.3095  150.5950 LP  0  0  0  0  0  0  0  0  0  0  0  0  # atno 17342 bound_to 10162
  140.5490  143.2210  151.7959 LP  0  0  0  0  0  0  0  0  0  0  0  0  # atno 17343 bound_to 10162
  157.4139  130.7400  149.6860 LP  0  0  0  0  0  0  0  0  0  0  0  0  # atno 17370 bound_to 10713
  155.9755  130.4088  150.3845 LP  0  0  0  0  0  0  0  0  0  0  0  0  # atno 17371 bound_to 10713
  140.8666  133.8019  155.9321 LP  0  0  0  0  0  0  0  0  0  0  0  0  # atno 17394 bound_to 11000
  140.8995  134.2396  157.5050 LP  0  0  0  0  0  0  0  0  0  0  0  0  # atno 17395 bound_to 11000

$$$$
