AV-unprocessed.smi:241|AV-procd|sdf|1841|dock1
  -GOLD-   2262020453D 1   1.00000     0.00000
 Structure written by MMmdl.
 54 57  0  0  0  0  0  0  0  0  1 V2000
  140.9917  139.0203  154.6771 C   0  0  0  0  0  0  0  0  0  0  0  0
  142.3365  138.7436  155.0249 O   0  0  0  0  0  0  0  0  0  0  0  0
  142.5987  138.9539  156.4021 C   0  0  0  0  0  0  0  0  0  0  0  0
  144.1032  138.8009  156.6959 C   0  0  1  0  0  0  0  0  0  0  0  0
  144.4309  139.0182  158.1752 C   0  0  0  0  0  0  0  0  0  0  0  0
  145.7639  138.2875  158.3333 C   0  0  1  0  0  0  0  0  0  0  0  0
  146.0310  137.8759  159.6659 O   0  0  0  0  0  0  0  0  0  0  0  0
  144.9739  137.1335  160.2519 C   0  0  0  0  0  0  0  0  0  0  0  0
  145.5959  137.0745  157.4146 C   0  0  0  0  0  0  0  0  0  0  0  0
  144.6070  137.4564  156.4117 N   0  0  0  0  0  0  0  0  0  0  0  0
  144.8677  137.0472  155.1440 C   0  0  0  0  0  0  0  0  0  0  0  0
  145.9228  137.5630  154.4599 N   0  0  0  0  0  0  0  0  0  0  0  0
  146.1886  137.1530  153.2165 C   0  0  0  0  0  0  0  0  0  0  0  0
  145.5435  136.2450  152.4822 N   0  0  0  0  0  0  0  0  0  0  0  0
  144.4871  135.7179  153.1647 C   0  0  0  0  0  0  0  0  0  0  0  0
  144.0794  136.0629  154.4842 C   0  0  0  0  0  0  0  0  0  0  0  0
  142.9483  135.3355  154.8353 N   0  0  0  0  0  0  0  0  0  0  0  0
  142.7023  134.6022  153.7841 C   0  0  0  0  0  0  0  0  0  0  0  0
  143.5956  134.7460  152.7464 N   0  0  0  0  0  0  0  0  0  0  0  0
  143.5466  134.0922  151.4722 C   0  0  0  0  0  0  0  0  0  0  0  0
  143.8572  132.6006  151.3334 C   0  0  0  0  0  0  0  0  0  0  0  0
  144.4591  132.8620  149.9341 C   0  0  0  0  0  0  0  0  0  0  0  0
  145.7685  132.1233  149.6073 C   0  0  0  0  0  0  0  0  0  0  0  0
  146.7254  132.2791  150.6342 O   0  0  0  0  0  0  0  0  0  0  0  0
  143.4932  132.7400  148.7372 C   0  0  0  0  0  0  0  0  0  0  0  0
  143.3851  133.9480  148.0121 O   0  0  0  0  0  0  0  0  0  0  0  0
  144.6505  134.3106  150.4351 C   0  0  0  0  0  0  0  0  0  0  0  0
  144.6679  139.5361  156.1205 H   0  0  0  0  0  0  0  0  0  0  0  0
  146.5749  138.9091  157.9487 H   0  0  0  0  0  0  0  0  0  0  0  0
  140.8454  138.8434  153.6118 H   0  0  0  0  0  0  0  0  0  0  0  0
  140.7360  140.0603  154.8840 H   0  0  0  0  0  0  0  0  0  0  0  0
  140.3027  138.3742  155.2230 H   0  0  0  0  0  0  0  0  0  0  0  0
  142.2806  139.9652  156.6610 H   0  0  0  0  0  0  0  0  0  0  0  0
  142.0179  138.2652  157.0185 H   0  0  0  0  0  0  0  0  0  0  0  0
  144.4859  140.0734  158.4443 H   0  0  0  0  0  0  0  0  0  0  0  0
  143.6743  138.5464  158.8044 H   0  0  0  0  0  0  0  0  0  0  0  0
  145.2339  136.8792  161.2794 H   0  0  0  0  0  0  0  0  0  0  0  0
  144.7918  136.2024  159.7146 H   0  0  0  0  0  0  0  0  0  0  0  0
  144.0495  137.7122  160.2739 H   0  0  0  0  0  0  0  0  0  0  0  0
  146.5507  136.7759  156.9790 H   0  0  0  0  0  0  0  0  0  0  0  0
  145.2011  136.2239  157.9714 H   0  0  0  0  0  0  0  0  0  0  0  0
  147.0423  137.6162  152.7443 H   0  0  0  0  0  0  0  0  0  0  0  0
  141.8606  133.9263  153.7417 H   0  0  0  0  0  0  0  0  0  0  0  0
  142.5669  134.3238  151.0509 H   0  0  0  0  0  0  0  0  0  0  0  0
  144.6019  132.2587  152.0547 H   0  0  0  0  0  0  0  0  0  0  0  0
  142.9787  131.9546  151.3455 H   0  0  0  0  0  0  0  0  0  0  0  0
  145.5944  131.0598  149.4431 H   0  0  0  0  0  0  0  0  0  0  0  0
  146.2130  132.5062  148.6884 H   0  0  0  0  0  0  0  0  0  0  0  0
  147.5341  131.8803  150.3495 H   0  0  0  0  0  0  0  0  0  0  0  0
  143.8260  131.9700  148.0410 H   0  0  0  0  0  0  0  0  0  0  0  0
  142.4979  132.4390  149.0656 H   0  0  0  0  0  0  0  0  0  0  0  0
  144.2421  134.3427  147.9570 H   0  0  0  0  0  0  0  0  0  0  0  0
  144.4299  135.0853  149.7001 H   0  0  0  0  0  0  0  0  0  0  0  0
  145.6232  134.4831  150.8996 H   0  0  0  0  0  0  0  0  0  0  0  0
  1  2  1  0  0  0  0
  1 30  1  0  0  0  0
  1 31  1  0  0  0  0
  1 32  1  0  0  0  0
  2  3  1  0  0  0  0
  3  4  1  0  0  0  0
  3 33  1  0  0  0  0
  3 34  1  0  0  0  0
  4 28  1  0  0  0  0
  4 10  1  0  0  0  0
  4  5  1  0  0  0  0
  5  6  1  0  0  0  0
  5 35  1  0  0  0  0
  5 36  1  0  0  0  0
  6 29  1  0  0  0  0
  6  7  1  0  0  0  0
  6  9  1  0  0  0  0
  7  8  1  0  0  0  0
  8 37  1  0  0  0  0
  8 38  1  0  0  0  0
  8 39  1  0  0  0  0
  9 10  1  0  0  0  0
  9 40  1  0  0  0  0
  9 41  1  0  0  0  0
 10 11  1  0  0  0  0
 11 16  1  0  0  0  0
 11 12  2  0  0  0  0
 12 13  1  0  0  0  0
 13 14  2  0  0  0  0
 13 42  1  0  0  0  0
 14 15  1  0  0  0  0
 15 19  1  0  0  0  0
 15 16  2  0  0  0  0
 16 17  1  0  0  0  0
 17 18  2  0  0  0  0
 18 19  1  0  0  0  0
 18 43  1  0  0  0  0
 19 20  1  0  0  0  0
 20 27  1  0  0  0  0
 20 21  1  0  0  0  0
 20 44  1  0  0  0  0
 21 22  1  0  0  0  0
 21 45  1  0  0  0  0
 21 46  1  0  0  0  0
 22 23  1  0  0  0  0
 22 25  1  0  0  0  0
 22 27  1  0  0  0  0
 23 24  1  0  0  0  0
 23 47  1  0  0  0  0
 23 48  1  0  0  0  0
 24 49  1  0  0  0  0
 25 26  1  0  0  0  0
 25 50  1  0  0  0  0
 25 51  1  0  0  0  0
 26 52  1  0  0  0  0
 27 53  1  0  0  0  0
 27 54  1  0  0  0  0
M  END
> <s_m_source_file>
AV-unprocessed.smi

> <i_m_source_file_index>
241

> <i_lp_mmshare_version>
43012

> <i_f3d_flags>
0

> <s_epik_input>
W0NIM11PW0NIMl1bQ0BASF0xW0NIMl1bQ0BASF0oT1tDSDNdKVtDSDJdTjFjKG5bY0hdbjIpYyhjMjMpbltjSF1uM1tDSF0oW0NIMl00KVtDSDJdQzQoW0NIMl1bT0hdKVtDSDJdW09IXQ==

> <s_epik_cmdline>
J2VwaWtfcHl0aG9uJywgJy1waCcsICc3LjAnLCAnLXRuJywgJzgnLCAnLW1hJywgJzIwMCcsICctbWV0YWxfYmluZGluZycsICctaW1hZScsICc8aW5maWxlLm1hZT4nLCAnLW9tYWUnLCAnPG91dGZpbGUubWFlPic=

> <r_lp_tautomer_probability>
1

> <r_epik_Ionization_Penalty>
0.00568677

> <r_epik_Ionization_Penalty_Charging>
0

> <r_epik_Ionization_Penalty_Neutral>
0.00568677

> <r_epik_State_Penalty>
0.00400877

> <r_epik_Charging_Adjusted_Penalty>
0.00400877

> <i_epik_Tot_Q>
0

> <i_epik_Tot_abs_Q>
0

> <r_epik_Metal_State_Penalty>
-0

> <b_epik_Metal_Only>
0

> <s_lp_Force_Field>
OPLS_2005

> <r_lp_Energy>
53.235

> <b_lp_Chiralities_Consistent>
1

> <s_lp_Variant>
AV-unprocessed.smi:241-2

> <Gold.Version>
5.8.1

> <Gold.Id.Protein>
6NUR|6NUR_protein|mol2

> <Gold.PLP.Fitness>
44.4623

> <Gold.PLP.PLP>
-30.7975

> <Gold.PLP.part.hbond>
-5.9455

> <Gold.PLP.part.metal>
0.0000

> <Gold.PLP.part.buried>
-3.0107

> <Gold.PLP.part.nonpolar>
-22.6732

> <Gold.PLP.part.repulsive>
0.4298

> <Gold.PLP.ligand.clash>
0.0000

> <Gold.PLP.ligand.torsion>
1.3274

> <Gold.PLP.Chemscore.Hbond>
3.8318

> <Gold.PLP.Chemscore.CHOScore>
1.3187

> <Gold.PLP.Chemscore.Metal>
0.0000

> <Gold.Chemscore.Hbonds>
donor molecule, donor type, donor heavy atom, donor atom, acceptor molecule, acceptor atom, score
      L1  H    24    49       P1 10747  1.00
      L1  H    26    52       P1  7921  1.00
      P1  H  6934  6947       L1     7  0.86
      P1  H 10192 10197       L1    26  1.00
      L1  C    13    42       P1  7948  0.83
      L1  C    18    43       P1 10957  0.54

> <Gold.PLP.Chemscore.Internal.Correction>
0.8682

> <Gold.Rescore>
     Score         DG    S(hbond)    S(metal)    S(lipo)     H(rot)  DE(clash)    DE(int)     intcor
     11.92     -14.76       3.71        0.00      60.30       3.97       0.32       2.52       ----

> <Gold.Chemscore.Fitness>
11.9209

> <Gold.Chemscore.DG>
-14.7586

> <Gold.Chemscore.ZeroCoef>
-5.4800

> <Gold.Chemscore.Hbond>
3.7108

> <Gold.Chemscore.Metal>
0.0000

> <Gold.Chemscore.Lipo>
60.2979

> <Gold.Chemscore.Internal_Hbond>
0.0000

> <Gold.Chemscore.DEClash>
0.3179

> <Gold.Chemscore.DEInternal>
2.5199

> <Gold.Chemscore.Rot>
3.9727

> <Gold.Chemscore.Internal.Correction>
   9.000000E+99

> <Gold.Chemscore.Hbonds>
donor molecule, donor type, donor heavy atom, donor atom, acceptor molecule, acceptor atom, score
      L1  H    24    49       P1 10747  1.00
      L1  H    26    52       P1  7921  0.99
      P1  H  6934  6947       L1     7  0.74
      P1  H 10192 10197       L1    26  0.70

> <Gold.Chemscore.Hbond.Weighted>
-12.3940

> <Gold.Chemscore.Metal.Weighted>
-0.0000

> <Gold.Chemscore.Lipo.Weighted>
-7.0549

> <Gold.Chemscore.Internal_Hbond.Weighted>
0.0000

> <Gold.Chemscore.DEClash.Weighted>
0.3179

> <Gold.Chemscore.DEInternal.Weighted>
2.5199

> <Gold.Chemscore.Rot.Weighted>
10.1702

> <Gold.Chemscore.Internal.Correction.Weighted>
   9.000000E+99

> <Gold.Protein.RotatedTorsions>
[ 6907 6896 6895 6894 ] final  -34.26 input  -60.11 | X-H torsion
[ 7974 7965 7964 7962 ] final   99.32 input  175.53 | X-H torsion
[ 8008 7997 7996 7995 ] final  -58.57 input   59.86 | X-H torsion
[ 10167 10162 10161 10158 ] final  -31.67 input  -65.29 | X-H torsion
[ 10718 10713 10712 10709 ] final  -11.75 input   66.30 | X-H torsion
[ 10763 10752 10751 10750 ] final  -36.35 input  -60.55 | X-H torsion
[ 11005 11000 10999 10996 ] final -132.68 input  -57.11 | X-H torsion

> <Gold.Protein.ActiveResidues>
 VAL166  LYS551  ARG553  GLY616  TRP617  ASP618  TYR619  PRO620  LYS621  CYS622 
 ASP623  PHE694  ASN695  SER759  ASP760  ASP761  ALA762  ILE779  LEU786  VAL792 
 PHE793  MET794  SER795  GLU796  ALA797  LYS798  CYS799  TRP800  GLU811  SER814 

> <Gold.Protein.RotatedAtoms>
  151.0549  134.9697  159.8230 H   0  0  0  0  0  0  0  0  0  0  0  0  # atno 6907 bound_to 6896
  152.5386  134.2491  159.8902 H   0  0  0  0  0  0  0  0  0  0  0  0  # atno 6908 bound_to 6896
  151.2508  133.4308  159.2645 H   0  0  0  0  0  0  0  0  0  0  0  0  # atno 6909 bound_to 6896
  145.4004  139.2348  143.3303 H   0  0  0  0  0  0  0  0  0  0  0  0  # atno 7974 bound_to 7965
  154.4314  140.1081  156.5978 H   0  0  0  0  0  0  0  0  0  0  0  0  # atno 8008 bound_to 7997
  155.5943  140.3492  155.4556 H   0  0  0  0  0  0  0  0  0  0  0  0  # atno 8009 bound_to 7997
  156.0222  140.1242  157.0335 H   0  0  0  0  0  0  0  0  0  0  0  0  # atno 8010 bound_to 7997
  140.7233  143.3753  151.1701 H   0  0  0  0  0  0  0  0  0  0  0  0  # atno 10167 bound_to 10162
  156.6545  130.4964  149.6051 H   0  0  0  0  0  0  0  0  0  0  0  0  # atno 10718 bound_to 10713
  153.8782  135.6824  153.4769 H   0  0  0  0  0  0  0  0  0  0  0  0  # atno 10763 bound_to 10752
  153.1248  135.4723  154.9253 H   0  0  0  0  0  0  0  0  0  0  0  0  # atno 10764 bound_to 10752
  154.7681  135.3230  154.8196 H   0  0  0  0  0  0  0  0  0  0  0  0  # atno 10765 bound_to 10752
  140.9148  134.1521  157.4361 H   0  0  0  0  0  0  0  0  0  0  0  0  # atno 11005 bound_to 11000
  146.2754  140.4701  142.8797 LP  0  0  0  0  0  0  0  0  0  0  0  0  # atno 17320 bound_to 7965
  144.8378  140.6809  143.6249 LP  0  0  0  0  0  0  0  0  0  0  0  0  # atno 17321 bound_to 7965
  139.7332  143.9040  152.3026 LP  0  0  0  0  0  0  0  0  0  0  0  0  # atno 17342 bound_to 10162
  139.8836  144.7004  150.8850 LP  0  0  0  0  0  0  0  0  0  0  0  0  # atno 17343 bound_to 10162
  156.2058  130.6648  151.1217 LP  0  0  0  0  0  0  0  0  0  0  0  0  # atno 17370 bound_to 10713
  157.7130  131.0724  150.6432 LP  0  0  0  0  0  0  0  0  0  0  0  0  # atno 17371 bound_to 10713
  139.8764  134.9949  156.5718 LP  0  0  0  0  0  0  0  0  0  0  0  0  # atno 17394 bound_to 11000
  140.8064  133.8464  155.8771 LP  0  0  0  0  0  0  0  0  0  0  0  0  # atno 17395 bound_to 11000

$$$$
