AV-unprocessed.smi:1823|AV-procd|sdf|7392|dock6
  -GOLD-   22720 9 63D 1   1.00000     0.00000
 Structure written by MMmdl.
 43 44  0  0  0  0  0  0  0  0  1 V2000
  147.4281  133.7810  162.1230 C   0  0  0  0  0  0  0  0  0  0  0  0
  147.6012  135.0721  161.3994 C   0  0  0  0  0  0  0  0  0  0  0  0
  147.5008  136.2321  162.0366 N   0  0  0  0  0  0  0  0  0  0  0  0
  147.7367  137.1764  161.0273 O   0  0  0  0  0  0  0  0  0  0  0  0
  147.9391  136.4629  159.8930 C   0  0  0  0  0  0  0  0  0  0  0  0
  148.2878  137.1906  158.6342 C   0  0  0  0  0  0  0  0  0  0  0  0
  149.6853  136.8541  158.0772 C   0  0  0  0  0  0  0  0  0  0  0  0
  150.1410  137.8189  157.0783 N   0  0  0  0  0  0  0  0  0  0  0  0
  151.1430  137.6196  156.2072 C   0  0  0  0  0  0  0  0  0  0  0  0
  151.7749  136.5648  156.1335 O   0  0  0  0  0  0  0  0  0  0  0  0
  151.5017  138.7991  155.2901 C   0  0  1  0  0  0  0  0  0  0  0  0
  150.3283  139.1481  154.3534 C   0  0  0  0  0  0  0  0  0  0  0  0
  149.8048  140.4651  154.9020 C   0  0  0  0  0  0  0  0  0  0  0  0
  148.7813  141.0025  154.4818 O   0  0  0  0  0  0  0  0  0  0  0  0
  150.5889  140.9176  155.8878 N   0  0  0  0  0  0  0  0  0  0  0  0
  150.4036  142.1433  156.6627 C   0  0  0  0  0  0  0  0  0  0  0  0
  151.5943  142.4460  157.6004 C   0  0  0  0  0  0  0  0  0  0  0  0
  151.6426  141.5355  158.8401 C   0  0  0  0  0  0  0  0  0  0  0  0
  151.5865  143.9239  158.0189 C   0  0  0  0  0  0  0  0  0  0  0  0
  151.7736  140.0974  156.0786 C   0  0  0  0  0  0  0  0  0  0  0  0
  147.8710  135.1453  160.0668 N   0  0  0  0  0  0  0  0  0  0  0  0
  146.4307  133.7234  162.5593 H   0  0  0  0  0  0  0  0  0  0  0  0
  148.1636  133.6953  162.9232 H   0  0  0  0  0  0  0  0  0  0  0  0
  147.5572  132.9371  161.4447 H   0  0  0  0  0  0  0  0  0  0  0  0
  147.5301  136.9647  157.8833 H   0  0  0  0  0  0  0  0  0  0  0  0
  148.2177  138.2619  158.8265 H   0  0  0  0  0  0  0  0  0  0  0  0
  150.4036  136.7828  158.8956 H   0  0  0  0  0  0  0  0  0  0  0  0
  149.6624  135.8692  157.6109 H   0  0  0  0  0  0  0  0  0  0  0  0
  149.6769  138.7157  157.0673 H   0  0  0  0  0  0  0  0  0  0  0  0
  152.3836  138.5374  154.7029 H   0  0  0  0  0  0  0  0  0  0  0  0
  150.6722  139.2923  153.3290 H   0  0  0  0  0  0  0  0  0  0  0  0
  149.5372  138.3965  154.3410 H   0  0  0  0  0  0  0  0  0  0  0  0
  150.2643  142.9711  155.9660 H   0  0  0  0  0  0  0  0  0  0  0  0
  149.4795  142.0815  157.2403 H   0  0  0  0  0  0  0  0  0  0  0  0
  152.5130  142.2767  157.0371 H   0  0  0  0  0  0  0  0  0  0  0  0
  150.7187  141.6003  159.4157 H   0  0  0  0  0  0  0  0  0  0  0  0
  152.4653  141.8142  159.4990 H   0  0  0  0  0  0  0  0  0  0  0  0
  151.7950  140.4915  158.5663 H   0  0  0  0  0  0  0  0  0  0  0  0
  150.6962  144.1663  158.6004 H   0  0  0  0  0  0  0  0  0  0  0  0
  151.6049  144.5801  157.1482 H   0  0  0  0  0  0  0  0  0  0  0  0
  152.4581  144.1652  158.6284 H   0  0  0  0  0  0  0  0  0  0  0  0
  151.9603  139.9231  157.1397 H   0  0  0  0  0  0  0  0  0  0  0  0
  152.6417  140.6199  155.6740 H   0  0  0  0  0  0  0  0  0  0  0  0
  1  2  1  0  0  0  0
  1 22  1  0  0  0  0
  1 23  1  0  0  0  0
  1 24  1  0  0  0  0
  2 21  1  0  0  0  0
  2  3  2  0  0  0  0
  3  4  1  0  0  0  0
  4  5  1  0  0  0  0
  5  6  1  0  0  0  0
  5 21  2  0  0  0  0
  6  7  1  0  0  0  0
  6 25  1  0  0  0  0
  6 26  1  0  0  0  0
  7  8  1  0  0  0  0
  7 27  1  0  0  0  0
  7 28  1  0  0  0  0
  8  9  1  0  0  0  0
  8 29  1  0  0  0  0
  9 10  2  0  0  0  0
  9 11  1  0  0  0  0
 11 20  1  0  0  0  0
 11 12  1  0  0  0  0
 11 30  1  0  0  0  0
 12 13  1  0  0  0  0
 12 31  1  0  0  0  0
 12 32  1  0  0  0  0
 13 14  2  0  0  0  0
 13 15  1  0  0  0  0
 15 16  1  0  0  0  0
 15 20  1  0  0  0  0
 16 17  1  0  0  0  0
 16 33  1  0  0  0  0
 16 34  1  0  0  0  0
 17 18  1  0  0  0  0
 17 19  1  0  0  0  0
 17 35  1  0  0  0  0
 18 36  1  0  0  0  0
 18 37  1  0  0  0  0
 18 38  1  0  0  0  0
 19 39  1  0  0  0  0
 19 40  1  0  0  0  0
 19 41  1  0  0  0  0
 20 42  1  0  0  0  0
 20 43  1  0  0  0  0
M  END
> <s_m_source_file>
AV-unprocessed.smi

> <i_m_source_file_index>
1823

> <i_lp_mmshare_version>
43012

> <i_f3d_flags>
0

> <s_epik_input>
W0NIM11jMW5vYyhuMSlbQ0gyXVtDSDJdW05IXUMoPU8pW0NAQEhdMltDSDJdQyg9TylOKFtDSDJdMilbQ0gyXVtDSF0oW0NIM10pW0NIM10=

> <s_epik_cmdline>
J2VwaWtfcHl0aG9uJywgJy1waCcsICc3LjAnLCAnLXRuJywgJzgnLCAnLW1hJywgJzIwMCcsICctbWV0YWxfYmluZGluZycsICctaW1hZScsICc8aW5maWxlLm1hZT4nLCAnLW9tYWUnLCAnPG91dGZpbGUubWFlPic=

> <r_lp_tautomer_probability>
1

> <r_epik_Ionization_Penalty>
3.64678e-08

> <r_epik_Ionization_Penalty_Charging>
0

> <r_epik_Ionization_Penalty_Neutral>
3.64678e-08

> <r_epik_State_Penalty>
-0

> <r_epik_Charging_Adjusted_Penalty>
0

> <i_epik_Tot_Q>
0

> <i_epik_Tot_abs_Q>
0

> <r_epik_Metal_State_Penalty>
-0

> <b_epik_Metal_Only>
0

> <s_lp_Force_Field>
OPLS_2005

> <r_lp_Energy>
11.154

> <b_lp_Chiralities_Consistent>
1

> <s_lp_Variant>
AV-unprocessed.smi:1823-2

> <Gold.Version>
5.8.1

> <Gold.Id.Protein>
6NUR|6NUR_protein|mol2

> <Gold.PLP.Fitness>
46.1876

> <Gold.PLP.PLP>
-38.4722

> <Gold.PLP.part.hbond>
-3.0000

> <Gold.PLP.part.metal>
0.0000

> <Gold.PLP.part.buried>
-5.4749

> <Gold.PLP.part.nonpolar>
-30.2916

> <Gold.PLP.part.repulsive>
0.1440

> <Gold.PLP.ligand.clash>
0.0000

> <Gold.PLP.ligand.torsion>
0.3946

> <Gold.PLP.Chemscore.Hbond>
2.7920

> <Gold.PLP.Chemscore.CHOScore>
0.0000

> <Gold.PLP.Chemscore.Metal>
0.0000

> <Gold.Chemscore.Hbonds>
donor molecule, donor type, donor heavy atom, donor atom, acceptor molecule, acceptor atom, score
      P1  H  6931  6943       L1     4  0.91
      P1  H  6934  6947       L1     4  0.86
      P1  H 10752 10763       L1    10  0.94

> <Gold.PLP.Chemscore.Internal.Correction>
0.1286

> <Gold.Rescore>
     Score         DG    S(hbond)    S(metal)    S(lipo)     H(rot)  DE(clash)    DE(int)     intcor
     14.48     -15.34       2.21        0.00      73.65       2.40       0.12       0.74       ----

> <Gold.Chemscore.Fitness>
14.4792

> <Gold.Chemscore.DG>
-15.3405

> <Gold.Chemscore.ZeroCoef>
-5.4800

> <Gold.Chemscore.Hbond>
2.2085

> <Gold.Chemscore.Metal>
0.0000

> <Gold.Chemscore.Lipo>
73.6482

> <Gold.Chemscore.Internal_Hbond>
0.0000

> <Gold.Chemscore.DEClash>
0.1192

> <Gold.Chemscore.DEInternal>
0.7421

> <Gold.Chemscore.Rot>
2.3957

> <Gold.Chemscore.Internal.Correction>
   9.000000E+99

> <Gold.Chemscore.Hbonds>
donor molecule, donor type, donor heavy atom, donor atom, acceptor molecule, acceptor atom, score
      P1  H  6931  6943       L1     4  0.23
      P1  H  6934  6947       L1     4  0.83
      P1  H 10752 10763       L1    10  0.90

> <Gold.Chemscore.Hbond.Weighted>
-7.3765

> <Gold.Chemscore.Metal.Weighted>
-0.0000

> <Gold.Chemscore.Lipo.Weighted>
-8.6168

> <Gold.Chemscore.Internal_Hbond.Weighted>
0.0000

> <Gold.Chemscore.DEClash.Weighted>
0.1192

> <Gold.Chemscore.DEInternal.Weighted>
0.7421

> <Gold.Chemscore.Rot.Weighted>
6.1329

> <Gold.Chemscore.Internal.Correction.Weighted>
   9.000000E+99

> <Gold.Protein.RotatedTorsions>
[ 6907 6896 6895 6894 ] final   31.70 input  -60.11 | X-H torsion
[ 7974 7965 7964 7962 ] final   32.01 input  175.53 | X-H torsion
[ 8008 7997 7996 7995 ] final  100.46 input   59.86 | X-H torsion
[ 10167 10162 10161 10158 ] final  -23.02 input  -65.29 | X-H torsion
[ 10718 10713 10712 10709 ] final -102.41 input   66.30 | X-H torsion
[ 10763 10752 10751 10750 ] final   88.79 input  -60.55 | X-H torsion
[ 11005 11000 10999 10996 ] final -170.92 input  -57.11 | X-H torsion

> <Gold.Protein.ActiveResidues>
 VAL166  LYS551  ARG553  GLY616  TRP617  ASP618  TYR619  PRO620  LYS621  CYS622 
 ASP623  PHE694  ASN695  SER759  ASP760  ASP761  ALA762  ILE779  LEU786  VAL792 
 PHE793  MET794  SER795  GLU796  ALA797  LYS798  CYS799  TRP800  GLU811  SER814 

> <Gold.Protein.RotatedAtoms>
  152.0640  134.9576  160.0574 H   0  0  0  0  0  0  0  0  0  0  0  0  # atno 6907 bound_to 6896
  152.0928  133.4204  159.4560 H   0  0  0  0  0  0  0  0  0  0  0  0  # atno 6908 bound_to 6896
  150.6837  134.2771  159.4655 H   0  0  0  0  0  0  0  0  0  0  0  0  # atno 6909 bound_to 6896
  146.1514  139.6582  142.9096 H   0  0  0  0  0  0  0  0  0  0  0  0  # atno 7974 bound_to 7965
  156.1205  140.3213  155.8202 H   0  0  0  0  0  0  0  0  0  0  0  0  # atno 8008 bound_to 7997
  155.4512  140.0532  157.3018 H   0  0  0  0  0  0  0  0  0  0  0  0  # atno 8009 bound_to 7997
  154.4824  140.2058  155.9746 H   0  0  0  0  0  0  0  0  0  0  0  0  # atno 8010 bound_to 7997
  140.7287  143.4481  151.0557 H   0  0  0  0  0  0  0  0  0  0  0  0  # atno 10167 bound_to 10162
  156.0228  130.5419  150.7105 H   0  0  0  0  0  0  0  0  0  0  0  0  # atno 10718 bound_to 10713
  153.1804  135.4494  155.0020 H   0  0  0  0  0  0  0  0  0  0  0  0  # atno 10763 bound_to 10752
  154.8026  135.3261  154.7514 H   0  0  0  0  0  0  0  0  0  0  0  0  # atno 10764 bound_to 10752
  153.7979  135.6965  153.4915 H   0  0  0  0  0  0  0  0  0  0  0  0  # atno 10765 bound_to 10752
  140.5140  134.5774  157.5027 H   0  0  0  0  0  0  0  0  0  0  0  0  # atno 11005 bound_to 11000
  145.4814  141.0438  143.2644 LP  0  0  0  0  0  0  0  0  0  0  0  0  # atno 17320 bound_to 7965
  144.7909  139.6331  143.7114 LP  0  0  0  0  0  0  0  0  0  0  0  0  # atno 17321 bound_to 7965
  139.8155  143.7892  152.3174 LP  0  0  0  0  0  0  0  0  0  0  0  0  # atno 17342 bound_to 10162
  139.7957  144.7393  150.9894 LP  0  0  0  0  0  0  0  0  0  0  0  0  # atno 17343 bound_to 10162
  157.4744  131.0896  151.0607 LP  0  0  0  0  0  0  0  0  0  0  0  0  # atno 17370 bound_to 10713
  157.1058  130.6001  149.5470 LP  0  0  0  0  0  0  0  0  0  0  0  0  # atno 17371 bound_to 10713
  139.9643  134.7400  156.0172 LP  0  0  0  0  0  0  0  0  0  0  0  0  # atno 17394 bound_to 11000
  141.1370  133.6573  156.3622 LP  0  0  0  0  0  0  0  0  0  0  0  0  # atno 17395 bound_to 11000

$$$$
