AV-unprocessed.smi:2831|AV-procd|sdf|10908|dock8
  -GOLD-   2272015353D 1   1.00000     0.00000
 Structure written by MMmdl.
 30 31  0  0  0  0  0  0  0  0  1 V2000
  147.1018  133.6503  162.3035 C   0  0  0  0  0  0  0  0  0  0  0  0
  147.4755  134.8953  161.5740 C   0  0  0  0  0  0  0  0  0  0  0  0
  147.1701  136.1179  162.0255 N   0  0  0  0  0  0  0  0  0  0  0  0
  147.6155  137.1195  161.1743 N   0  0  0  0  0  0  0  0  0  0  0  0
  148.2442  136.6205  160.1010 C   0  0  0  0  0  0  0  0  0  0  0  0
  148.7951  137.4209  159.0656 N   0  0  0  0  0  0  0  0  0  0  0  0
  150.0495  137.4111  158.5816 C   0  0  0  0  0  0  0  0  0  0  0  0
  150.9534  136.6693  158.9667 O   0  0  0  0  0  0  0  0  0  0  0  0
  150.1979  138.3260  157.6092 N   0  0  0  0  0  0  0  0  0  0  0  0
  151.4097  138.6069  156.8304 C   0  0  1  0  0  0  0  0  0  0  0  0
  152.6187  138.8061  157.7699 C   0  0  0  0  0  0  0  0  0  0  0  0
  151.6680  137.4474  155.8563 C   0  0  0  0  0  0  0  0  0  0  0  0
  151.4854  138.0561  154.4686 C   0  0  0  0  0  0  0  0  0  0  0  0
  151.8328  139.4135  154.6645 O   0  0  0  0  0  0  0  0  0  0  0  0
  151.2176  139.8081  155.8790 C   0  0  0  0  0  0  0  0  0  0  0  0
  148.3457  134.8689  160.0449 S   0  0  0  0  0  0  0  0  0  0  0  0
  147.0281  133.8423  163.3744 H   0  0  0  0  0  0  0  0  0  0  0  0
  147.8533  132.8778  162.1397 H   0  0  0  0  0  0  0  0  0  0  0  0
  146.1394  133.2848  161.9453 H   0  0  0  0  0  0  0  0  0  0  0  0
  148.1589  138.0826  158.6460 H   0  0  0  0  0  0  0  0  0  0  0  0
  149.3896  138.8839  157.3764 H   0  0  0  0  0  0  0  0  0  0  0  0
  153.5346  138.9754  157.2026 H   0  0  0  0  0  0  0  0  0  0  0  0
  152.7778  137.9305  158.4003 H   0  0  0  0  0  0  0  0  0  0  0  0
  152.4864  139.6658  158.4269 H   0  0  0  0  0  0  0  0  0  0  0  0
  152.6903  137.0798  155.9540 H   0  0  0  0  0  0  0  0  0  0  0  0
  151.0086  136.5915  156.0070 H   0  0  0  0  0  0  0  0  0  0  0  0
  152.1138  137.5829  153.7139 H   0  0  0  0  0  0  0  0  0  0  0  0
  150.4457  137.9868  154.1446 H   0  0  0  0  0  0  0  0  0  0  0  0
  150.1620  139.9996  155.6780 H   0  0  0  0  0  0  0  0  0  0  0  0
  151.6540  140.7316  156.2604 H   0  0  0  0  0  0  0  0  0  0  0  0
  1  2  1  0  0  0  0
  1 17  1  0  0  0  0
  1 18  1  0  0  0  0
  1 19  1  0  0  0  0
  2 16  1  0  0  0  0
  2  3  2  0  0  0  0
  3  4  1  0  0  0  0
  4  5  2  0  0  0  0
  5  6  1  0  0  0  0
  5 16  1  0  0  0  0
  6  7  1  0  0  0  0
  6 20  1  0  0  0  0
  7  8  2  0  0  0  0
  7  9  1  0  0  0  0
  9 10  1  0  0  0  0
  9 21  1  0  0  0  0
 10 15  1  0  0  0  0
 10 11  1  0  0  0  0
 10 12  1  0  0  0  0
 11 22  1  0  0  0  0
 11 23  1  0  0  0  0
 11 24  1  0  0  0  0
 12 13  1  0  0  0  0
 12 25  1  0  0  0  0
 12 26  1  0  0  0  0
 13 14  1  0  0  0  0
 13 27  1  0  0  0  0
 13 28  1  0  0  0  0
 14 15  1  0  0  0  0
 15 29  1  0  0  0  0
 15 30  1  0  0  0  0
M  END
> <s_m_source_file>
AV-unprocessed.smi

> <i_m_source_file_index>
2831

> <i_lp_mmshare_version>
43012

> <i_f3d_flags>
0

> <s_epik_input>
W0NIM11jMW5uYyhzMSlbTkhdQyg9TylbTkhdW0NAQF0yKFtDSDNdKVtDSDJdW0NIMl1PW0NIMl0y

> <s_epik_cmdline>
J2VwaWtfcHl0aG9uJywgJy1waCcsICc3LjAnLCAnLXRuJywgJzgnLCAnLW1hJywgJzIwMCcsICctbWV0YWxfYmluZGluZycsICctaW1hZScsICc8aW5maWxlLm1hZT4nLCAnLW9tYWUnLCAnPG91dGZpbGUubWFlPic=

> <r_lp_tautomer_probability>
1

> <r_epik_Ionization_Penalty>
0.00277018

> <r_epik_Ionization_Penalty_Charging>
0

> <r_epik_Ionization_Penalty_Neutral>
0.00277018

> <r_epik_State_Penalty>
-0

> <r_epik_Charging_Adjusted_Penalty>
0

> <i_epik_Tot_Q>
0

> <i_epik_Tot_abs_Q>
0

> <r_epik_Metal_State_Penalty>
0.356997

> <b_epik_Metal_Only>
0

> <s_lp_Force_Field>
OPLS_2005

> <r_lp_Energy>
15.109

> <b_lp_Chiralities_Consistent>
1

> <s_lp_Variant>
AV-unprocessed.smi:2831-1

> <Gold.Version>
5.8.1

> <Gold.Id.Protein>
6NUR|6NUR_protein|mol2

> <Gold.PLP.Fitness>
36.1073

> <Gold.PLP.PLP>
-25.7729

> <Gold.PLP.part.hbond>
-4.0000

> <Gold.PLP.part.metal>
0.0000

> <Gold.PLP.part.buried>
-4.6007

> <Gold.PLP.part.nonpolar>
-17.4405

> <Gold.PLP.part.repulsive>
0.3186

> <Gold.PLP.ligand.clash>
0.0000

> <Gold.PLP.ligand.torsion>
0.6066

> <Gold.PLP.Chemscore.Hbond>
3.8400

> <Gold.PLP.Chemscore.CHOScore>
0.0000

> <Gold.PLP.Chemscore.Metal>
0.0000

> <Gold.Chemscore.Hbonds>
donor molecule, donor type, donor heavy atom, donor atom, acceptor molecule, acceptor atom, score
      P1  H  6896  6909       L1     8  1.00
      P1  H  6931  6943       L1     4  0.96
      P1  H  6934  6947       L1     4  0.91
      P1  H  7989  7998       L1    14  1.00

> <Gold.PLP.Chemscore.Internal.Correction>
0.0275

> <Gold.Rescore>
     Score         DG    S(hbond)    S(metal)    S(lipo)     H(rot)  DE(clash)    DE(int)     intcor
     16.58     -18.28       2.86        0.00      49.78       1.00       0.02       1.68       ----

> <Gold.Chemscore.Fitness>
16.5838

> <Gold.Chemscore.DG>
-18.2840

> <Gold.Chemscore.ZeroCoef>
-5.4800

> <Gold.Chemscore.Hbond>
2.8563

> <Gold.Chemscore.Metal>
0.0000

> <Gold.Chemscore.Lipo>
49.7777

> <Gold.Chemscore.Internal_Hbond>
0.0000

> <Gold.Chemscore.DEClash>
0.0240

> <Gold.Chemscore.DEInternal>
1.6762

> <Gold.Chemscore.Rot>
1.0000

> <Gold.Chemscore.Internal.Correction>
   9.000000E+99

> <Gold.Chemscore.Hbonds>
donor molecule, donor type, donor heavy atom, donor atom, acceptor molecule, acceptor atom, score
      P1  H  6896  6909       L1     8  0.96
      P1  H  6931  6943       L1     4  0.21
      P1  H  6934  6947       L1     4  0.68
      P1  H  7989  7998       L1    14  0.58

> <Gold.Chemscore.Hbond.Weighted>
-9.5400

> <Gold.Chemscore.Metal.Weighted>
-0.0000

> <Gold.Chemscore.Lipo.Weighted>
-5.8240

> <Gold.Chemscore.Internal_Hbond.Weighted>
0.0000

> <Gold.Chemscore.DEClash.Weighted>
0.0240

> <Gold.Chemscore.DEInternal.Weighted>
1.6762

> <Gold.Chemscore.Rot.Weighted>
2.5600

> <Gold.Chemscore.Internal.Correction.Weighted>
   9.000000E+99

> <Gold.Protein.RotatedTorsions>
[ 6907 6896 6895 6894 ] final   93.25 input  -60.11 | X-H torsion
[ 7974 7965 7964 7962 ] final  -21.81 input  175.53 | X-H torsion
[ 8008 7997 7996 7995 ] final  -55.22 input   59.86 | X-H torsion
[ 10167 10162 10161 10158 ] final  -10.73 input  -65.29 | X-H torsion
[ 10718 10713 10712 10709 ] final -175.07 input   66.30 | X-H torsion
[ 10763 10752 10751 10750 ] final  -26.83 input  -60.55 | X-H torsion
[ 11005 11000 10999 10996 ] final -104.38 input  -57.11 | X-H torsion

> <Gold.Protein.ActiveResidues>
 VAL166  LYS551  ARG553  GLY616  TRP617  ASP618  TYR619  PRO620  LYS621  CYS622 
 ASP623  PHE694  ASN695  SER759  ASP760  ASP761  ALA762  ILE779  LEU786  VAL792 
 PHE793  MET794  SER795  GLU796  ALA797  LYS798  CYS799  TRP800  GLU811  SER814 

> <Gold.Protein.RotatedAtoms>
  152.5452  134.1377  159.8465 H   0  0  0  0  0  0  0  0  0  0  0  0  # atno 6907 bound_to 6896
  151.1416  133.4960  159.2604 H   0  0  0  0  0  0  0  0  0  0  0  0  # atno 6908 bound_to 6896
  151.1566  135.0263  159.8747 H   0  0  0  0  0  0  0  0  0  0  0  0  # atno 6909 bound_to 6896
  146.1712  140.4392  142.8532 H   0  0  0  0  0  0  0  0  0  0  0  0  # atno 7974 bound_to 7965
  154.4187  140.1158  156.5441 H   0  0  0  0  0  0  0  0  0  0  0  0  # atno 8008 bound_to 7997
  155.6478  140.3496  155.4718 H   0  0  0  0  0  0  0  0  0  0  0  0  # atno 8009 bound_to 7997
  155.9818  140.1161  157.0709 H   0  0  0  0  0  0  0  0  0  0  0  0  # atno 8010 bound_to 7997
  140.7121  143.5716  150.9087 H   0  0  0  0  0  0  0  0  0  0  0  0  # atno 10167 bound_to 10162
  156.7944  130.9529  151.3120 H   0  0  0  0  0  0  0  0  0  0  0  0  # atno 10718 bound_to 10713
  153.7223  135.6944  153.5010 H   0  0  0  0  0  0  0  0  0  0  0  0  # atno 10763 bound_to 10752
  153.2195  135.4375  155.0472 H   0  0  0  0  0  0  0  0  0  0  0  0  # atno 10764 bound_to 10752
  154.8280  135.3457  154.6756 H   0  0  0  0  0  0  0  0  0  0  0  0  # atno 10765 bound_to 10752
  141.1103  133.8719  157.1604 H   0  0  0  0  0  0  0  0  0  0  0  0  # atno 11005 bound_to 11000
  144.8166  140.6477  143.6380 LP  0  0  0  0  0  0  0  0  0  0  0  0  # atno 17320 bound_to 7965
  145.4336  139.1545  143.4009 LP  0  0  0  0  0  0  0  0  0  0  0  0  # atno 17321 bound_to 7965
  139.9442  143.6347  152.3046 LP  0  0  0  0  0  0  0  0  0  0  0  0  # atno 17342 bound_to 10162
  139.6842  144.7653  151.1553 LP  0  0  0  0  0  0  0  0  0  0  0  0  # atno 17343 bound_to 10162
  157.6585  130.8945  149.9779 LP  0  0  0  0  0  0  0  0  0  0  0  0  # atno 17370 bound_to 10713
  156.1139  130.3648  150.0001 LP  0  0  0  0  0  0  0  0  0  0  0  0  # atno 17371 bound_to 10713
  139.9993  135.0034  157.0154 LP  0  0  0  0  0  0  0  0  0  0  0  0  # atno 17394 bound_to 11000
  140.4793  134.1306  155.7214 LP  0  0  0  0  0  0  0  0  0  0  0  0  # atno 17395 bound_to 11000

$$$$
