AV-unprocessed.smi:1794|AV-procd|sdf|7232|dock7
  -GOLD-   22720 8473D 1   1.00000     0.00000
 Structure written by MMmdl.
 54 56  0  0  0  0  0  0  0  0  1 V2000
  149.0064  139.6336  154.1992 C   0  0  0  0  0  0  0  0  0  0  0  0
  149.5346  139.0612  155.5396 C   0  0  0  0  0  0  0  0  0  0  0  0
  148.3697  138.2808  156.1952 C   0  0  0  0  0  0  0  0  0  0  0  0
  150.6327  138.0235  155.1662 C   0  0  0  0  0  0  0  0  0  0  0  0
  150.0792  136.8553  154.4824 N   0  0  0  0  0  0  0  0  0  0  0  0
  150.0635  135.6011  154.9534 C   0  0  0  0  0  0  0  0  0  0  0  0
  150.5494  135.2708  156.0348 O   0  0  0  0  0  0  0  0  0  0  0  0
  149.4608  134.7724  154.0847 N   0  0  0  0  0  0  0  0  0  0  0  0
  149.3004  133.3591  154.1622 C   0  0  0  0  0  0  0  0  0  0  0  0
  150.0730  132.5368  155.0185 C   0  0  0  0  0  0  0  0  0  0  0  0
  149.8344  131.1505  155.0359 C   0  0  0  0  0  0  0  0  0  0  0  0
  148.8243  130.6346  154.2045 C   0  0  0  0  0  0  0  0  0  0  0  0
  148.0684  131.4051  153.3962 N   0  0  0  0  0  0  0  0  0  0  0  0
  148.2951  132.7413  153.3743 C   0  0  0  0  0  0  0  0  0  0  0  0
  147.4880  133.5265  152.5317 N   0  0  0  0  0  0  0  0  0  0  0  0
  146.6642  132.8014  151.5795 C   0  0  0  0  0  0  0  0  0  0  0  0
  145.6606  133.8306  151.0565 C   0  0  0  0  0  0  0  0  0  0  0  0
  145.5746  134.8904  152.1623 C   0  0  0  0  0  0  0  0  0  0  0  0
  146.5988  134.4516  153.2138 C   0  0  0  0  0  0  0  0  0  0  0  0
  150.0725  140.1450  156.4098 N   0  0  0  0  0  0  0  0  0  0  0  0
  150.8615  141.1659  155.7096 C   0  0  0  0  0  0  0  0  0  0  0  0
  151.2797  142.3146  156.6433 C   0  0  0  0  0  0  0  0  0  0  0  0
  152.0087  141.7930  157.7474 O   0  0  0  0  0  0  0  0  0  0  0  0
  151.2578  140.8412  158.4912 C   0  0  0  0  0  0  0  0  0  0  0  0
  150.8364  139.6806  157.5738 C   0  0  0  0  0  0  0  0  0  0  0  0
  148.7747  138.8390  153.4890 H   0  0  0  0  0  0  0  0  0  0  0  0
  149.7379  140.2883  153.7243 H   0  0  0  0  0  0  0  0  0  0  0  0
  148.0866  140.2044  154.3260 H   0  0  0  0  0  0  0  0  0  0  0  0
  147.9934  137.5057  155.5265 H   0  0  0  0  0  0  0  0  0  0  0  0
  147.5237  138.9251  156.4329 H   0  0  0  0  0  0  0  0  0  0  0  0
  148.6750  137.7805  157.1140 H   0  0  0  0  0  0  0  0  0  0  0  0
  151.3915  138.4648  154.5207 H   0  0  0  0  0  0  0  0  0  0  0  0
  151.1788  137.7250  156.0631 H   0  0  0  0  0  0  0  0  0  0  0  0
  149.6504  137.0267  153.5847 H   0  0  0  0  0  0  0  0  0  0  0  0
  149.1702  135.1865  153.2111 H   0  0  0  0  0  0  0  0  0  0  0  0
  150.8314  132.9405  155.6707 H   0  0  0  0  0  0  0  0  0  0  0  0
  150.4095  130.4984  155.6763 H   0  0  0  0  0  0  0  0  0  0  0  0
  148.6123  129.5759  154.1942 H   0  0  0  0  0  0  0  0  0  0  0  0
  147.2683  132.3836  150.7736 H   0  0  0  0  0  0  0  0  0  0  0  0
  146.1387  131.9807  152.0700 H   0  0  0  0  0  0  0  0  0  0  0  0
  146.0348  134.2858  150.1386 H   0  0  0  0  0  0  0  0  0  0  0  0
  144.6939  133.3781  150.8334 H   0  0  0  0  0  0  0  0  0  0  0  0
  145.8329  135.8711  151.7610 H   0  0  0  0  0  0  0  0  0  0  0  0
  144.5738  134.9593  152.5895 H   0  0  0  0  0  0  0  0  0  0  0  0
  146.0956  133.9547  154.0444 H   0  0  0  0  0  0  0  0  0  0  0  0
  147.1515  135.3015  153.6149 H   0  0  0  0  0  0  0  0  0  0  0  0
  151.7578  140.7202  155.2779 H   0  0  0  0  0  0  0  0  0  0  0  0
  150.2960  141.6001  154.8873 H   0  0  0  0  0  0  0  0  0  0  0  0
  151.9063  143.0287  156.1088 H   0  0  0  0  0  0  0  0  0  0  0  0
  150.4045  142.8604  156.9995 H   0  0  0  0  0  0  0  0  0  0  0  0
  151.8692  140.4702  159.3139 H   0  0  0  0  0  0  0  0  0  0  0  0
  150.3831  141.3213  158.9327 H   0  0  0  0  0  0  0  0  0  0  0  0
  150.2512  138.9835  158.1704 H   0  0  0  0  0  0  0  0  0  0  0  0
  151.7311  139.1484  157.2503 H   0  0  0  0  0  0  0  0  0  0  0  0
  1  2  1  0  0  0  0
  1 26  1  0  0  0  0
  1 27  1  0  0  0  0
  1 28  1  0  0  0  0
  2  3  1  0  0  0  0
  2  4  1  0  0  0  0
  2 20  1  0  0  0  0
  3 29  1  0  0  0  0
  3 30  1  0  0  0  0
  3 31  1  0  0  0  0
  4  5  1  0  0  0  0
  4 32  1  0  0  0  0
  4 33  1  0  0  0  0
  5  6  1  0  0  0  0
  5 34  1  0  0  0  0
  6  7  2  0  0  0  0
  6  8  1  0  0  0  0
  8  9  1  0  0  0  0
  8 35  1  0  0  0  0
  9 14  1  0  0  0  0
  9 10  2  0  0  0  0
 10 11  1  0  0  0  0
 10 36  1  0  0  0  0
 11 12  2  0  0  0  0
 11 37  1  0  0  0  0
 12 13  1  0  0  0  0
 12 38  1  0  0  0  0
 13 14  2  0  0  0  0
 14 15  1  0  0  0  0
 15 19  1  0  0  0  0
 15 16  1  0  0  0  0
 16 17  1  0  0  0  0
 16 39  1  0  0  0  0
 16 40  1  0  0  0  0
 17 18  1  0  0  0  0
 17 41  1  0  0  0  0
 17 42  1  0  0  0  0
 18 19  1  0  0  0  0
 18 43  1  0  0  0  0
 18 44  1  0  0  0  0
 19 45  1  0  0  0  0
 19 46  1  0  0  0  0
 20 25  1  0  0  0  0
 20 21  1  0  0  0  0
 21 22  1  0  0  0  0
 21 47  1  0  0  0  0
 21 48  1  0  0  0  0
 22 23  1  0  0  0  0
 22 49  1  0  0  0  0
 22 50  1  0  0  0  0
 23 24  1  0  0  0  0
 24 25  1  0  0  0  0
 24 51  1  0  0  0  0
 24 52  1  0  0  0  0
 25 53  1  0  0  0  0
 25 54  1  0  0  0  0
M  END
> <s_m_source_file>
AV-unprocessed.smi

> <i_m_source_file_index>
1794

> <i_lp_mmshare_version>
43012

> <i_f3d_flags>
0

> <s_epik_input>
W0NIMl0xW0NIMl1PW0NIMl1bQ0gyXU4xQyhbQ0gzXSkoW0NIM10pW0NIMl1bTkhdQyg9TylbTkhdYzJbY0hdW2NIXVtjSF1uYzJOM1tDSDJdW0NIMl1bQ0gyXVtDSDJdMw==

> <s_epik_cmdline>
J2VwaWtfcHl0aG9uJywgJy1waCcsICc3LjAnLCAnLXRuJywgJzgnLCAnLW1hJywgJzIwMCcsICctbWV0YWxfYmluZGluZycsICctaW1hZScsICc8aW5maWxlLm1hZT4nLCAnLW9tYWUnLCAnPG91dGZpbGUubWFlPic=

> <r_lp_tautomer_probability>
1

> <r_epik_Ionization_Penalty>
0.366523

> <r_epik_Ionization_Penalty_Charging>
0

> <r_epik_Ionization_Penalty_Neutral>
0.366523

> <r_epik_State_Penalty>
0.351681

> <r_epik_Charging_Adjusted_Penalty>
0.351681

> <i_epik_Tot_Q>
0

> <i_epik_Tot_abs_Q>
0

> <r_epik_Metal_State_Penalty>
0.334668

> <b_epik_Metal_Only>
0

> <s_lp_Force_Field>
OPLS_2005

> <r_lp_Energy>
72.3516

> <b_lp_Chiralities_Consistent>
1

> <s_lp_Variant>
AV-unprocessed.smi:1794-1

> <Gold.Version>
5.8.1

> <Gold.Id.Protein>
6NUR|6NUR_protein|mol2

> <Gold.PLP.Fitness>
39.7342

> <Gold.PLP.PLP>
-35.5800

> <Gold.PLP.part.hbond>
-2.0541

> <Gold.PLP.part.metal>
0.0000

> <Gold.PLP.part.buried>
-4.8661

> <Gold.PLP.part.nonpolar>
-29.5737

> <Gold.PLP.part.repulsive>
0.6248

> <Gold.PLP.ligand.clash>
0.0000

> <Gold.PLP.ligand.torsion>
0.6477

> <Gold.PLP.Chemscore.Hbond>
1.7780

> <Gold.PLP.Chemscore.CHOScore>
0.0000

> <Gold.PLP.Chemscore.Metal>
0.0000

> <Gold.Chemscore.Hbonds>
donor molecule, donor type, donor heavy atom, donor atom, acceptor molecule, acceptor atom, score
      L1  H     5    34       P1  7948  0.93
      L1  H     8    35       P1  7948  0.85

> <Gold.PLP.Chemscore.Internal.Correction>
0.1156

> <Gold.Rescore>
     Score         DG    S(hbond)    S(metal)    S(lipo)     H(rot)  DE(clash)    DE(int)     intcor
     11.61     -14.46       1.14        0.00      78.13       1.55       0.04       2.81       ----

> <Gold.Chemscore.Fitness>
11.6127

> <Gold.Chemscore.DG>
-14.4609

> <Gold.Chemscore.ZeroCoef>
-5.4800

> <Gold.Chemscore.Hbond>
1.1395

> <Gold.Chemscore.Metal>
0.0000

> <Gold.Chemscore.Lipo>
78.1262

> <Gold.Chemscore.Internal_Hbond>
0.0000

> <Gold.Chemscore.DEClash>
0.0408

> <Gold.Chemscore.DEInternal>
2.8074

> <Gold.Chemscore.Rot>
1.5491

> <Gold.Chemscore.Internal.Correction>
   9.000000E+99

> <Gold.Chemscore.Hbonds>
donor molecule, donor type, donor heavy atom, donor atom, acceptor molecule, acceptor atom, score
      L1  H     5    34       P1  7948  0.65
      L1  H     8    35       P1  7948  0.15

> <Gold.Chemscore.Hbond.Weighted>
-3.8059

> <Gold.Chemscore.Metal.Weighted>
-0.0000

> <Gold.Chemscore.Lipo.Weighted>
-9.1408

> <Gold.Chemscore.Internal_Hbond.Weighted>
0.0000

> <Gold.Chemscore.DEClash.Weighted>
0.0408

> <Gold.Chemscore.DEInternal.Weighted>
2.8074

> <Gold.Chemscore.Rot.Weighted>
3.9657

> <Gold.Chemscore.Internal.Correction.Weighted>
   9.000000E+99

> <Gold.Protein.RotatedTorsions>
[ 6907 6896 6895 6894 ] final -177.10 input  -60.11 | X-H torsion
[ 7974 7965 7964 7962 ] final   55.02 input  175.53 | X-H torsion
[ 8008 7997 7996 7995 ] final -178.85 input   59.86 | X-H torsion
[ 10167 10162 10161 10158 ] final  114.45 input  -65.29 | X-H torsion
[ 10718 10713 10712 10709 ] final  -73.11 input   66.30 | X-H torsion
[ 10763 10752 10751 10750 ] final  117.47 input  -60.55 | X-H torsion
[ 11005 11000 10999 10996 ] final -172.90 input  -57.11 | X-H torsion

> <Gold.Protein.ActiveResidues>
 VAL166  LYS551  ARG553  GLY616  TRP617  ASP618  TYR619  PRO620  LYS621  CYS622 
 ASP623  PHE694  ASN695  SER759  ASP760  ASP761  ALA762  ILE779  LEU786  VAL792 
 PHE793  MET794  SER795  GLU796  ALA797  LYS798  CYS799  TRP800  GLU811  SER814 

> <Gold.Protein.RotatedAtoms>
  151.6155  133.3343  159.3076 H   0  0  0  0  0  0  0  0  0  0  0  0  # atno 6907 bound_to 6896
  150.8133  134.7305  159.6719 H   0  0  0  0  0  0  0  0  0  0  0  0  # atno 6908 bound_to 6896
  152.4230  134.5926  160.0030 H   0  0  0  0  0  0  0  0  0  0  0  0  # atno 6909 bound_to 6896
  145.9548  139.4004  143.0284 H   0  0  0  0  0  0  0  0  0  0  0  0  # atno 7974 bound_to 7965
  156.0237  140.1266  157.0331 H   0  0  0  0  0  0  0  0  0  0  0  0  # atno 8008 bound_to 7997
  154.4321  140.1063  156.6070 H   0  0  0  0  0  0  0  0  0  0  0  0  # atno 8009 bound_to 7997
  155.5908  140.3469  155.4568 H   0  0  0  0  0  0  0  0  0  0  0  0  # atno 8010 bound_to 7997
  139.6388  144.7122  151.2280 H   0  0  0  0  0  0  0  0  0  0  0  0  # atno 10167 bound_to 10162
  156.0293  130.4387  150.2693 H   0  0  0  0  0  0  0  0  0  0  0  0  # atno 10718 bound_to 10713
  153.5529  135.3536  155.2767 H   0  0  0  0  0  0  0  0  0  0  0  0  # atno 10763 bound_to 10752
  154.8704  135.4118  154.2917 H   0  0  0  0  0  0  0  0  0  0  0  0  # atno 10764 bound_to 10752
  153.3647  135.7061  153.6753 H   0  0  0  0  0  0  0  0  0  0  0  0  # atno 10765 bound_to 10752
  140.4918  134.5977  157.4957 H   0  0  0  0  0  0  0  0  0  0  0  0  # atno 11005 bound_to 11000
  145.8122  140.9720  143.0943 LP  0  0  0  0  0  0  0  0  0  0  0  0  # atno 17320 bound_to 7965
  144.6803  139.9935  143.7484 LP  0  0  0  0  0  0  0  0  0  0  0  0  # atno 17321 bound_to 7965
  140.7479  143.6349  150.8388 LP  0  0  0  0  0  0  0  0  0  0  0  0  # atno 17342 bound_to 10162
  139.9984  143.5771  152.2885 LP  0  0  0  0  0  0  0  0  0  0  0  0  # atno 17343 bound_to 10162
  157.0796  131.0139  151.3161 LP  0  0  0  0  0  0  0  0  0  0  0  0  # atno 17370 bound_to 10713
  157.4937  130.7838  149.7534 LP  0  0  0  0  0  0  0  0  0  0  0  0  # atno 17371 bound_to 10713
  139.9764  134.7208  155.9941 LP  0  0  0  0  0  0  0  0  0  0  0  0  # atno 17394 bound_to 11000
  141.1480  133.6553  156.3926 LP  0  0  0  0  0  0  0  0  0  0  0  0  # atno 17395 bound_to 11000

$$$$
