AV-unprocessed.smi:1005|AV-procd|sdf|4380|dock8
  -GOLD-   22720 2303D 1   1.00000     0.00000
 Structure written by MMmdl.
 58 60  0  0  0  0  0  0  0  0  4 V2000
  152.5543  143.2510  161.4851 C   0  0  0  0  0  0  0  0  0  0  0  0
  152.2858  142.5397  160.1696 C   0  0  0  0  0  0  0  0  0  0  0  0
  151.3047  143.0712  159.3027 C   0  0  0  0  0  0  0  0  0  0  0  0
  151.0797  142.3961  158.1088 C   0  0  0  0  0  0  0  0  0  0  0  0
  150.1946  142.6614  157.0620 N   0  3  0  0  0  0  0  0  0  0  0  0
  150.3318  141.7096  156.0982 C   0  0  0  0  0  0  0  0  0  0  0  0
  151.2980  140.8438  156.5097 N   0  0  0  0  0  0  0  0  0  0  0  0
  151.8097  139.6342  155.8493 C   0  0  0  0  0  0  0  0  0  0  0  0
  151.4336  138.3328  156.5859 C   0  0  2  0  0  0  0  0  0  0  0  0
  152.6384  137.7530  157.0431 O   0  0  0  0  0  0  0  0  0  0  0  0
  150.6907  137.3127  155.6952 C   0  0  0  0  0  0  0  0  0  0  0  0
  149.9288  136.3055  156.4823 N   0  3  2  0  0  0  0  0  0  0  0  0
  150.6895  135.0609  156.7494 C   0  0  0  0  0  0  0  0  0  0  0  0
  150.7103  134.1473  155.5123 C   0  0  0  0  0  0  0  0  0  0  0  0
  149.3736  133.8557  155.1231 O   0  0  0  0  0  0  0  0  0  0  0  0
  148.6452  135.0190  154.7435 C   0  0  1  0  0  0  0  0  0  0  0  0
  147.2391  134.5713  154.3003 C   0  0  0  0  0  0  0  0  0  0  0  0
  147.1830  134.1629  152.8725 N   0  3  0  0  0  0  0  0  0  0  0  0
  145.8046  133.9575  152.3699 C   0  0  0  0  0  0  0  0  0  0  0  0
  148.0389  132.9872  152.5975 C   0  0  0  0  0  0  0  0  0  0  0  0
  148.5790  135.9857  155.9493 C   0  0  0  0  0  0  0  0  0  0  0  0
  151.7893  141.2291  157.7635 C   0  0  0  0  0  0  0  0  0  0  0  0
  152.7589  140.6919  158.6078 C   0  0  0  0  0  0  0  0  0  0  0  0
  153.0044  141.3656  159.8255 C   0  0  0  0  0  0  0  0  0  0  0  0
  154.0572  140.8028  160.7652 C   0  0  0  0  0  0  0  0  0  0  0  0
  151.9313  144.1393  161.5941 H   0  0  0  0  0  0  0  0  0  0  0  0
  153.5961  143.5664  161.5458 H   0  0  0  0  0  0  0  0  0  0  0  0
  152.3423  142.5911  162.3268 H   0  0  0  0  0  0  0  0  0  0  0  0
  150.7507  143.9622  159.5605 H   0  0  0  0  0  0  0  0  0  0  0  0
  149.7693  141.6481  155.1772 H   0  0  0  0  0  0  0  0  0  0  0  0
  151.4728  139.6154  154.8126 H   0  0  0  0  0  0  0  0  0  0  0  0
  152.8954  139.7359  155.8103 H   0  0  0  0  0  0  0  0  0  0  0  0
  150.8333  138.5927  157.4574 H   0  0  0  0  0  0  0  0  0  0  0  0
  153.0678  137.3182  156.3225 H   0  0  0  0  0  0  0  0  0  0  0  0
  150.0153  137.8203  155.0086 H   0  0  0  0  0  0  0  0  0  0  0  0
  151.4290  136.8082  155.0700 H   0  0  0  0  0  0  0  0  0  0  0  0
  151.7025  135.2895  157.0829 H   0  0  0  0  0  0  0  0  0  0  0  0
  150.2083  134.5354  157.5755 H   0  0  0  0  0  0  0  0  0  0  0  0
  151.2563  134.6066  154.6869 H   0  0  0  0  0  0  0  0  0  0  0  0
  151.2191  133.2123  155.7474 H   0  0  0  0  0  0  0  0  0  0  0  0
  149.1522  135.5104  153.9138 H   0  0  0  0  0  0  0  0  0  0  0  0
  146.9353  133.7313  154.9274 H   0  0  0  0  0  0  0  0  0  0  0  0
  146.5102  135.3635  154.4777 H   0  0  0  0  0  0  0  0  0  0  0  0
  145.2986  133.1685  152.9276 H   0  0  0  0  0  0  0  0  0  0  0  0
  145.8198  133.6704  151.3179 H   0  0  0  0  0  0  0  0  0  0  0  0
  145.2084  134.8660  152.4443 H   0  0  0  0  0  0  0  0  0  0  0  0
  147.6923  132.1128  153.1498 H   0  0  0  0  0  0  0  0  0  0  0  0
  149.0732  133.1844  152.8816 H   0  0  0  0  0  0  0  0  0  0  0  0
  148.0322  132.7446  151.5341 H   0  0  0  0  0  0  0  0  0  0  0  0
  148.0071  135.5202  156.7536 H   0  0  0  0  0  0  0  0  0  0  0  0
  148.0401  136.8942  155.6833 H   0  0  0  0  0  0  0  0  0  0  0  0
  153.3057  139.7965  158.3524 H   0  0  0  0  0  0  0  0  0  0  0  0
  154.5237  139.9074  160.3532 H   0  0  0  0  0  0  0  0  0  0  0  0
  153.6108  140.5348  161.7232 H   0  0  0  0  0  0  0  0  0  0  0  0
  154.8445  141.5360  160.9428 H   0  0  0  0  0  0  0  0  0  0  0  0
  147.5815  134.9226  152.3384 H   0  0  0  0  0  0  0  0  0  0  0  0
  149.7898  136.7348  157.3863 H   0  0  0  0  0  0  0  0  0  0  0  0
  149.5343  143.4272  157.0130 H   0  0  0  0  0  0  0  0  0  0  0  0
  1  2  1  0  0  0  0
  1 26  1  0  0  0  0
  1 27  1  0  0  0  0
  1 28  1  0  0  0  0
  2 24  1  0  0  0  0
  2  3  2  0  0  0  0
  3  4  1  0  0  0  0
  3 29  1  0  0  0  0
  4 22  2  0  0  0  0
  4  5  1  0  0  0  0
  5  6  2  0  0  0  0
  5 58  1  0  0  0  0
  6  7  1  0  0  0  0
  6 30  1  0  0  0  0
  7  8  1  0  0  0  0
  7 22  1  0  0  0  0
  8  9  1  0  0  0  0
  8 31  1  0  0  0  0
  8 32  1  0  0  0  0
  9 10  1  0  0  0  0
  9 11  1  0  0  0  0
  9 33  1  0  0  0  0
 10 34  1  0  0  0  0
 11 12  1  0  0  0  0
 11 35  1  0  0  0  0
 11 36  1  0  0  0  0
 12 21  1  0  0  0  0
 12 13  1  0  0  0  0
 12 57  1  0  0  0  0
 13 14  1  0  0  0  0
 13 37  1  0  0  0  0
 13 38  1  0  0  0  0
 14 15  1  0  0  0  0
 14 39  1  0  0  0  0
 14 40  1  0  0  0  0
 15 16  1  0  0  0  0
 16 17  1  0  0  0  0
 16 21  1  0  0  0  0
 16 41  1  0  0  0  0
 17 18  1  0  0  0  0
 17 42  1  0  0  0  0
 17 43  1  0  0  0  0
 18 19  1  0  0  0  0
 18 20  1  0  0  0  0
 18 56  1  0  0  0  0
 19 44  1  0  0  0  0
 19 45  1  0  0  0  0
 19 46  1  0  0  0  0
 20 47  1  0  0  0  0
 20 48  1  0  0  0  0
 20 49  1  0  0  0  0
 21 50  1  0  0  0  0
 21 51  1  0  0  0  0
 22 23  1  0  0  0  0
 23 24  2  0  0  0  0
 23 52  1  0  0  0  0
 24 25  1  0  0  0  0
 25 53  1  0  0  0  0
 25 54  1  0  0  0  0
 25 55  1  0  0  0  0
M  CHG  1   5   1
M  CHG  1  12   1
M  CHG  1  18   1
M  END
> <s_m_source_file>
AV-unprocessed.smi

> <i_m_source_file_index>
1005

> <i_lp_mmshare_version>
43012

> <i_f3d_flags>
0

> <s_epik_input>
W0NIM11jKFtjSF0xKWMoW0NIM10pW2NIXWMoYzEyKW4oW2NIXW4yKVtDSDJdW0NASF0oW09IXSlbQ0gyXU4zW0NIMl1bQ0gyXU9bQ0BIXShbQ0gyXTMpW0NIMl1OKFtDSDNdKVtDSDNd

> <s_epik_cmdline>
J2VwaWtfcHl0aG9uJywgJy1waCcsICc3LjAnLCAnLXRuJywgJzgnLCAnLW1hJywgJzIwMCcsICctbWV0YWxfYmluZGluZycsICctaW1hZScsICc8aW5maWxlLm1hZT4nLCAnLW9tYWUnLCAnPG91dGZpbGUubWFlPic=

> <r_epik_Ionization_Penalty>
2.30802

> <r_epik_Ionization_Penalty_Charging>
2.30798

> <r_epik_Ionization_Penalty_Neutral>
3.4851e-05

> <r_epik_State_Penalty>
2.52618

> <r_epik_Charging_Adjusted_Penalty>
4.83416

> <i_epik_Tot_Q>
3

> <i_epik_Tot_abs_Q>
3

> <r_epik_Metal_State_Penalty>
6.53149

> <b_epik_Metal_Only>
0

> <s_lp_Force_Field>
OPLS_2005

> <r_lp_Energy>
52.3538

> <b_lp_Chiralities_Consistent>
1

> <s_lp_Variant>
AV-unprocessed.smi:1005-19

> <Gold.Version>
5.8.1

> <Gold.Id.Protein>
6NUR|6NUR_protein|mol2

> <Gold.PLP.Fitness>
51.0787

> <Gold.PLP.PLP>
-42.5877

> <Gold.PLP.part.hbond>
-2.0000

> <Gold.PLP.part.metal>
0.0000

> <Gold.PLP.part.buried>
-4.7772

> <Gold.PLP.part.nonpolar>
-35.7142

> <Gold.PLP.part.repulsive>
0.1458

> <Gold.PLP.ligand.clash>
0.0000

> <Gold.PLP.ligand.torsion>
1.8234

> <Gold.PLP.Chemscore.Hbond>
4.0000

> <Gold.PLP.Chemscore.CHOScore>
0.0000

> <Gold.PLP.Chemscore.Metal>
0.0000

> <Gold.Chemscore.Hbonds>
donor molecule, donor type, donor heavy atom, donor atom, acceptor molecule, acceptor atom, score
      L1  H     5    58       P1  8028  1.54
      L1  H    18    56       P1  7948  2.00

> <Gold.PLP.Chemscore.Internal.Correction>
0.1377

> <Gold.Rescore>
     Score         DG    S(hbond)    S(metal)    S(lipo)     H(rot)  DE(clash)    DE(int)     intcor
     16.06     -19.10       1.91        0.00     117.77       2.56       0.11       2.93       ----

> <Gold.Chemscore.Fitness>
16.0616

> <Gold.Chemscore.DG>
-19.1033

> <Gold.Chemscore.ZeroCoef>
-5.4800

> <Gold.Chemscore.Hbond>
1.9130

> <Gold.Chemscore.Metal>
0.0000

> <Gold.Chemscore.Lipo>
117.7663

> <Gold.Chemscore.Internal_Hbond>
0.0000

> <Gold.Chemscore.DEClash>
0.1094

> <Gold.Chemscore.DEInternal>
2.9323

> <Gold.Chemscore.Rot>
2.5566

> <Gold.Chemscore.Internal.Correction>
   9.000000E+99

> <Gold.Chemscore.Hbonds>
donor molecule, donor type, donor heavy atom, donor atom, acceptor molecule, acceptor atom, score
      L1  H     5    58       P1  8028  0.73
      L1  H    18    56       P1  7948  0.93

> <Gold.Chemscore.Hbond.Weighted>
-6.3896

> <Gold.Chemscore.Metal.Weighted>
-0.0000

> <Gold.Chemscore.Lipo.Weighted>
-13.7787

> <Gold.Chemscore.Internal_Hbond.Weighted>
0.0000

> <Gold.Chemscore.DEClash.Weighted>
0.1094

> <Gold.Chemscore.DEInternal.Weighted>
2.9323

> <Gold.Chemscore.Rot.Weighted>
6.5450

> <Gold.Chemscore.Internal.Correction.Weighted>
   9.000000E+99

> <Gold.Protein.RotatedTorsions>
[ 6907 6896 6895 6894 ] final  135.36 input  -60.11 | X-H torsion
[ 7974 7965 7964 7962 ] final  -70.13 input  175.53 | X-H torsion
[ 8008 7997 7996 7995 ] final  169.54 input   59.86 | X-H torsion
[ 10167 10162 10161 10158 ] final    0.47 input  -65.29 | X-H torsion
[ 10718 10713 10712 10709 ] final   11.59 input   66.30 | X-H torsion
[ 10763 10752 10751 10750 ] final -161.96 input  -60.55 | X-H torsion
[ 11005 11000 10999 10996 ] final -162.59 input  -57.11 | X-H torsion

> <Gold.Protein.ActiveResidues>
 VAL166  LYS551  ARG553  GLY616  TRP617  ASP618  TYR619  PRO620  LYS621  CYS622 
 ASP623  PHE694  ASN695  SER759  ASP760  ASP761  ALA762  ILE779  LEU786  VAL792 
 PHE793  MET794  SER795  GLU796  ALA797  LYS798  CYS799  TRP800  GLU811  SER814 

> <Gold.Protein.RotatedAtoms>
  152.3012  133.5657  159.5619 H   0  0  0  0  0  0  0  0  0  0  0  0  # atno 6907 bound_to 6896
  150.7279  134.0288  159.3735 H   0  0  0  0  0  0  0  0  0  0  0  0  # atno 6908 bound_to 6896
  151.8188  135.0658  160.0473 H   0  0  0  0  0  0  0  0  0  0  0  0  # atno 6909 bound_to 6896
  145.6949  140.9139  143.0762 H   0  0  0  0  0  0  0  0  0  0  0  0  # atno 7974 bound_to 7965
  156.1448  140.1561  156.8864 H   0  0  0  0  0  0  0  0  0  0  0  0  # atno 8008 bound_to 7997
  154.5019  140.0823  156.7852 H   0  0  0  0  0  0  0  0  0  0  0  0  # atno 8009 bound_to 7997
  155.4009  140.3414  155.4259 H   0  0  0  0  0  0  0  0  0  0  0  0  # atno 8010 bound_to 7997
  140.6727  143.7004  150.7956 H   0  0  0  0  0  0  0  0  0  0  0  0  # atno 10167 bound_to 10162
  156.9978  130.6068  149.5693 H   0  0  0  0  0  0  0  0  0  0  0  0  # atno 10718 bound_to 10713
  154.7257  135.3035  154.8975 H   0  0  0  0  0  0  0  0  0  0  0  0  # atno 10763 bound_to 10752
  153.9833  135.6727  153.4755 H   0  0  0  0  0  0  0  0  0  0  0  0  # atno 10764 bound_to 10752
  153.0873  135.4977  154.8540 H   0  0  0  0  0  0  0  0  0  0  0  0  # atno 10765 bound_to 10752
  140.6075  134.4883  157.5212 H   0  0  0  0  0  0  0  0  0  0  0  0  # atno 11005 bound_to 11000
  144.6985  139.8871  143.7451 LP  0  0  0  0  0  0  0  0  0  0  0  0  # atno 17320 bound_to 7965
  146.0849  139.3837  143.0442 LP  0  0  0  0  0  0  0  0  0  0  0  0  # atno 17321 bound_to 7965
  140.0692  143.5078  152.2589 LP  0  0  0  0  0  0  0  0  0  0  0  0  # atno 17342 bound_to 10162
  139.6003  144.7580  151.3188 LP  0  0  0  0  0  0  0  0  0  0  0  0  # atno 17343 bound_to 10162
  156.0182  130.5277  150.8199 LP  0  0  0  0  0  0  0  0  0  0  0  0  # atno 17370 bound_to 10713
  157.5412  131.0941  150.9825 LP  0  0  0  0  0  0  0  0  0  0  0  0  # atno 17371 bound_to 10713
  139.9206  134.8157  156.1224 LP  0  0  0  0  0  0  0  0  0  0  0  0  # atno 17394 bound_to 11000
  141.0830  133.6746  156.2377 LP  0  0  0  0  0  0  0  0  0  0  0  0  # atno 17395 bound_to 11000

$$$$
