AV-unprocessed.smi:2556|AV-procd|sdf|10024|dock10
  -GOLD-   2272014 73D 1   1.00000     0.00000
 Structure written by MMmdl.
 35 37  0  0  0  0  0  0  0  0  1 V2000
  146.1318  141.9440  155.3413 C   0  0  0  0  0  0  0  0  0  0  0  0
  147.4717  141.3970  155.1185 N   0  0  0  0  0  0  0  0  0  0  0  0
  147.8349  140.8273  153.9222 C   0  0  0  0  0  0  0  0  0  0  0  0
  147.0657  140.7440  152.9653 O   0  0  0  0  0  0  0  0  0  0  0  0
  149.1094  140.3393  153.8104 N   0  0  0  0  0  0  0  0  0  0  0  0
  150.0830  140.3518  154.7533 C   0  0  0  0  0  0  0  0  0  0  0  0
  151.2099  139.8925  154.5788 O   0  0  0  0  0  0  0  0  0  0  0  0
  149.6529  140.9750  156.0084 C   0  0  0  0  0  0  0  0  0  0  0  0
  148.4042  141.4775  156.1899 C   0  0  0  0  0  0  0  0  0  0  0  0
  148.2583  142.0113  157.4656 N   0  0  0  0  0  0  0  0  0  0  0  0
  149.4637  141.7954  157.9973 C   0  0  0  0  0  0  0  0  0  0  0  0
  150.3556  141.1824  157.1915 N   0  0  0  0  0  0  0  0  0  0  0  0
  151.7288  140.8325  157.5188 C   0  0  0  0  0  0  0  0  0  0  0  0
  152.0547  141.0318  159.0127 C   0  0  1  0  0  0  0  0  0  0  0  0
  153.2601  140.3651  159.3364 O   0  0  0  0  0  0  0  0  0  0  0  0
  152.0949  142.5083  159.3747 C   0  0  0  0  0  0  0  0  0  0  0  0
  151.9417  143.5001  158.3804 C   0  0  0  0  0  0  0  0  0  0  0  0
  151.9710  144.8646  158.7280 C   0  0  0  0  0  0  0  0  0  0  0  0
  152.1500  145.2461  160.0714 C   0  0  0  0  0  0  0  0  0  0  0  0
  152.2990  144.2619  161.0672 C   0  0  0  0  0  0  0  0  0  0  0  0
  152.2702  142.8970  160.7203 C   0  0  0  0  0  0  0  0  0  0  0  0
  149.3513  139.9230  152.9231 H   0  0  0  0  0  0  0  0  0  0  0  0
  145.4527  141.8154  154.4978 H   0  0  0  0  0  0  0  0  0  0  0  0
  146.1960  143.0122  155.5501 H   0  0  0  0  0  0  0  0  0  0  0  0
  145.6711  141.4615  156.2040 H   0  0  0  0  0  0  0  0  0  0  0  0
  149.7072  142.0960  159.0060 H   0  0  0  0  0  0  0  0  0  0  0  0
  151.8992  139.7942  157.2307 H   0  0  0  0  0  0  0  0  0  0  0  0
  152.3948  141.4337  156.8991 H   0  0  0  0  0  0  0  0  0  0  0  0
  151.2750  140.5596  159.6111 H   0  0  0  0  0  0  0  0  0  0  0  0
  153.2314  139.4978  158.9618 H   0  0  0  0  0  0  0  0  0  0  0  0
  151.7982  143.2184  157.3473 H   0  0  0  0  0  0  0  0  0  0  0  0
  151.8539  145.6187  157.9637 H   0  0  0  0  0  0  0  0  0  0  0  0
  152.1707  146.2926  160.3377 H   0  0  0  0  0  0  0  0  0  0  0  0
  152.4336  144.5541  162.0983 H   0  0  0  0  0  0  0  0  0  0  0  0
  152.3807  142.1492  161.4922 H   0  0  0  0  0  0  0  0  0  0  0  0
  1  2  1  0  0  0  0
  1 23  1  0  0  0  0
  1 24  1  0  0  0  0
  1 25  1  0  0  0  0
  2  9  1  0  0  0  0
  2  3  1  0  0  0  0
  3  4  2  0  0  0  0
  3  5  1  0  0  0  0
  5 22  1  0  0  0  0
  5  6  1  0  0  0  0
  6  7  2  0  0  0  0
  6  8  1  0  0  0  0
  8 12  1  0  0  0  0
  8  9  2  0  0  0  0
  9 10  1  0  0  0  0
 10 11  2  0  0  0  0
 11 12  1  0  0  0  0
 11 26  1  0  0  0  0
 12 13  1  0  0  0  0
 13 14  1  0  0  0  0
 13 27  1  0  0  0  0
 13 28  1  0  0  0  0
 14 15  1  0  0  0  0
 14 16  1  0  0  0  0
 14 29  1  0  0  0  0
 15 30  1  0  0  0  0
 16 21  1  0  0  0  0
 16 17  2  0  0  0  0
 17 18  1  0  0  0  0
 17 31  1  0  0  0  0
 18 19  2  0  0  0  0
 18 32  1  0  0  0  0
 19 20  1  0  0  0  0
 19 33  1  0  0  0  0
 20 21  2  0  0  0  0
 20 34  1  0  0  0  0
 21 35  1  0  0  0  0
M  END
> <s_m_source_file>
AV-unprocessed.smi

> <i_m_source_file_index>
2556

> <i_lp_mmshare_version>
43012

> <i_f3d_flags>
0

> <s_epik_input>
Tz1jMVtuSF1jKD1PKW4oW0NIM10pYyhjMTIpbltjSF1uMltDSDJdW0NASF0oW09IXSljM1tjSF1bY0hdW2NIXVtjSF1bY0hdMw==

> <s_epik_cmdline>
J2VwaWtfcHl0aG9uJywgJy1waCcsICc3LjAnLCAnLXRuJywgJzgnLCAnLW1hJywgJzIwMCcsICctbWV0YWxfYmluZGluZycsICctaW1hZScsICc8aW5maWxlLm1hZT4nLCAnLW9tYWUnLCAnPG91dGZpbGUubWFlPic=

> <r_lp_tautomer_probability>
1

> <r_epik_Ionization_Penalty>
0.000177505

> <r_epik_Ionization_Penalty_Charging>
0.000176585

> <r_epik_Ionization_Penalty_Neutral>
9.19728e-07

> <r_epik_State_Penalty>
-0

> <r_epik_Charging_Adjusted_Penalty>
0.000176585

> <i_epik_Tot_Q>
0

> <i_epik_Tot_abs_Q>
0

> <r_epik_Metal_State_Penalty>
0.122509

> <b_epik_Metal_Only>
0

> <s_lp_Force_Field>
OPLS_2005

> <r_lp_Energy>
28.4521

> <b_lp_Chiralities_Consistent>
1

> <s_lp_Variant>
AV-unprocessed.smi:2556-2

> <Gold.Version>
5.8.1

> <Gold.Id.Protein>
6NUR|6NUR_protein|mol2

> <Gold.PLP.Fitness>
48.1708

> <Gold.PLP.PLP>
-42.8415

> <Gold.PLP.part.hbond>
-1.9947

> <Gold.PLP.part.metal>
0.0000

> <Gold.PLP.part.buried>
-6.6398

> <Gold.PLP.part.nonpolar>
-35.5931

> <Gold.PLP.part.repulsive>
0.5894

> <Gold.PLP.ligand.clash>
0.0000

> <Gold.PLP.ligand.torsion>
0.1847

> <Gold.PLP.Chemscore.Hbond>
1.8921

> <Gold.PLP.Chemscore.CHOScore>
0.0000

> <Gold.PLP.Chemscore.Metal>
0.0000

> <Gold.Chemscore.Hbonds>
donor molecule, donor type, donor heavy atom, donor atom, acceptor molecule, acceptor atom, score
      L1  H     5    22       P1  7957  1.00
      P1  H  7989  7998       L1     7  0.81

> <Gold.PLP.Chemscore.Internal.Correction>
0.0224

> <Gold.Rescore>
     Score         DG    S(hbond)    S(metal)    S(lipo)     H(rot)  DE(clash)    DE(int)     intcor
     14.92     -15.87       1.53        0.00      95.78       2.31       0.68       0.28       ----

> <Gold.Chemscore.Fitness>
14.9160

> <Gold.Chemscore.DG>
-15.8743

> <Gold.Chemscore.ZeroCoef>
-5.4800

> <Gold.Chemscore.Hbond>
1.5284

> <Gold.Chemscore.Metal>
0.0000

> <Gold.Chemscore.Lipo>
95.7840

> <Gold.Chemscore.Internal_Hbond>
0.0000

> <Gold.Chemscore.DEClash>
0.6783

> <Gold.Chemscore.DEInternal>
0.2801

> <Gold.Chemscore.Rot>
2.3115

> <Gold.Chemscore.Internal.Correction>
   9.000000E+99

> <Gold.Chemscore.Hbonds>
donor molecule, donor type, donor heavy atom, donor atom, acceptor molecule, acceptor atom, score
      L1  H     5    22       P1  7957  0.95
      P1  H  7989  7998       L1     7  0.13

> <Gold.Chemscore.Hbond.Weighted>
-5.1050

> <Gold.Chemscore.Metal.Weighted>
-0.0000

> <Gold.Chemscore.Lipo.Weighted>
-11.2067

> <Gold.Chemscore.Internal_Hbond.Weighted>
0.0000

> <Gold.Chemscore.DEClash.Weighted>
0.6783

> <Gold.Chemscore.DEInternal.Weighted>
0.2801

> <Gold.Chemscore.Rot.Weighted>
5.9174

> <Gold.Chemscore.Internal.Correction.Weighted>
   9.000000E+99

> <Gold.Protein.RotatedTorsions>
[ 6907 6896 6895 6894 ] final  -79.80 input  -60.11 | X-H torsion
[ 7974 7965 7964 7962 ] final  109.11 input  175.53 | X-H torsion
[ 8008 7997 7996 7995 ] final  160.41 input   59.86 | X-H torsion
[ 10167 10162 10161 10158 ] final -158.81 input  -65.29 | X-H torsion
[ 10718 10713 10712 10709 ] final  155.60 input   66.30 | X-H torsion
[ 10763 10752 10751 10750 ] final  -84.42 input  -60.55 | X-H torsion
[ 11005 11000 10999 10996 ] final   22.51 input  -57.11 | X-H torsion

> <Gold.Protein.ActiveResidues>
 VAL166  LYS551  ARG553  GLY616  TRP617  ASP618  TYR619  PRO620  LYS621  CYS622 
 ASP623  PHE694  ASN695  SER759  ASP760  ASP761  ALA762  ILE779  LEU786  VAL792 
 PHE793  MET794  SER795  GLU796  ALA797  LYS798  CYS799  TRP800  GLU811  SER814 

> <Gold.Protein.RotatedAtoms>
  150.6942  134.4066  159.5142 H   0  0  0  0  0  0  0  0  0  0  0  0  # atno 6907 bound_to 6896
  152.1831  134.8734  160.0533 H   0  0  0  0  0  0  0  0  0  0  0  0  # atno 6908 bound_to 6896
  151.9717  133.3693  159.4110 H   0  0  0  0  0  0  0  0  0  0  0  0  # atno 6909 bound_to 6896
  145.2720  139.2663  143.3961 H   0  0  0  0  0  0  0  0  0  0  0  0  # atno 7974 bound_to 7965
  156.2174  140.1805  156.7557 H   0  0  0  0  0  0  0  0  0  0  0  0  # atno 8008 bound_to 7997
  154.5812  140.0666  156.9136 H   0  0  0  0  0  0  0  0  0  0  0  0  # atno 8009 bound_to 7997
  155.2499  140.3328  155.4286 H   0  0  0  0  0  0  0  0  0  0  0  0  # atno 8010 bound_to 7997
  139.6663  143.9823  152.2257 H   0  0  0  0  0  0  0  0  0  0  0  0  # atno 10167 bound_to 10162
  157.2162  131.0708  151.1940 H   0  0  0  0  0  0  0  0  0  0  0  0  # atno 10718 bound_to 10713
  154.5993  135.5521  153.7358 H   0  0  0  0  0  0  0  0  0  0  0  0  # atno 10763 bound_to 10752
  153.0148  135.6362  154.1737 H   0  0  0  0  0  0  0  0  0  0  0  0  # atno 10764 bound_to 10752
  154.1677  135.2894  155.3070 H   0  0  0  0  0  0  0  0  0  0  0  0  # atno 10765 bound_to 10752
  140.3798  134.1933  155.7664 H   0  0  0  0  0  0  0  0  0  0  0  0  # atno 11005 bound_to 11000
  146.3243  140.3165  142.8630 LP  0  0  0  0  0  0  0  0  0  0  0  0  # atno 17320 bound_to 7965
  144.9327  140.7993  143.5679 LP  0  0  0  0  0  0  0  0  0  0  0  0  # atno 17321 bound_to 7965
  139.9576  144.6579  150.8111 LP  0  0  0  0  0  0  0  0  0  0  0  0  # atno 17342 bound_to 10162
  140.7600  143.3142  151.2771 LP  0  0  0  0  0  0  0  0  0  0  0  0  # atno 17343 bound_to 10162
  157.3623  130.7137  149.6510 LP  0  0  0  0  0  0  0  0  0  0  0  0  # atno 17370 bound_to 10713
  155.9686  130.4222  150.4505 LP  0  0  0  0  0  0  0  0  0  0  0  0  # atno 17371 bound_to 10713
  141.1927  133.8167  157.0828 LP  0  0  0  0  0  0  0  0  0  0  0  0  # atno 17394 bound_to 11000
  140.0487  134.9817  157.1097 LP  0  0  0  0  0  0  0  0  0  0  0  0  # atno 17395 bound_to 11000

$$$$
