AV-unprocessed.smi:1017|AV-procd|sdf|4439|dock6
  -GOLD-   22720 2403D 1   1.00000     0.00000
 Structure written by MMmdl.
 43 44  0  0  0  0  0  0  0  0  2 V2000
  149.3266  141.3740  154.6435 C   0  0  0  0  0  0  0  0  0  0  0  0
  150.2854  140.3706  154.3487 O   0  0  0  0  0  0  0  0  0  0  0  0
  149.7264  139.0834  154.1256 C   0  0  0  0  0  0  0  0  0  0  0  0
  150.5933  137.9667  154.7391 C   0  0  0  0  0  0  0  0  0  0  0  0
  150.9827  138.2864  156.1160 N   0  0  0  0  0  0  0  0  0  0  0  0
  150.3081  137.5549  157.0786 N   0  0  0  0  0  0  0  0  0  0  0  0
  150.5613  137.7334  158.3351 C   0  0  0  0  0  0  0  0  0  0  0  0
  149.8310  136.9441  159.3774 C   0  0  0  0  0  0  0  0  0  0  0  0
  150.3883  136.8845  160.4799 O   0  0  0  0  0  0  0  0  0  0  0  0
  148.6366  136.3609  159.0520 N   0  5  0  0  0  0  0  0  0  0  0  0
  147.5969  135.7966  159.9427 C   0  0  0  0  0  0  0  0  0  0  0  0
  146.2270  136.2442  159.3410 C   0  0  0  0  0  0  0  0  0  0  0  0
  145.1863  135.8080  160.0479 F   0  0  0  0  0  0  0  0  0  0  0  0
  146.1511  137.5764  159.2946 F   0  0  0  0  0  0  0  0  0  0  0  0
  146.0898  135.7812  158.0963 F   0  0  0  0  0  0  0  0  0  0  0  0
  147.7177  134.2370  159.9825 C   0  0  0  0  0  0  0  0  0  0  0  0
  146.8709  133.5368  161.0755 C   0  0  0  0  0  0  0  0  0  0  0  0
  147.1353  134.1035  162.4839 C   0  0  0  0  0  0  0  0  0  0  0  0
  146.9363  135.6315  162.4834 C   0  0  0  0  0  0  0  0  0  0  0  0
  147.7826  136.3431  161.3972 C   0  0  0  0  0  0  0  0  0  0  0  0
  151.5621  138.7080  158.7540 C   0  0  0  0  0  0  0  0  0  0  0  0
  152.2122  139.4130  157.8028 C   0  0  0  0  0  0  0  0  0  0  0  0
  151.9412  139.2243  156.3779 C   0  0  0  0  0  0  0  0  0  0  0  0
  152.5246  139.8502  155.4928 O   0  0  0  0  0  0  0  0  0  0  0  0
  149.8390  142.3133  154.8512 H   0  0  0  0  0  0  0  0  0  0  0  0
  148.7387  141.1135  155.5246 H   0  0  0  0  0  0  0  0  0  0  0  0
  148.6485  141.5467  153.8080 H   0  0  0  0  0  0  0  0  0  0  0  0
  148.7447  139.0705  154.6003 H   0  0  0  0  0  0  0  0  0  0  0  0
  149.5548  138.9194  153.0607 H   0  0  0  0  0  0  0  0  0  0  0  0
  150.0719  137.0091  154.7177 H   0  0  0  0  0  0  0  0  0  0  0  0
  151.4844  137.8250  154.1247 H   0  0  0  0  0  0  0  0  0  0  0  0
  147.4682  133.8177  159.0074 H   0  0  0  0  0  0  0  0  0  0  0  0
  148.7509  133.9439  160.1648 H   0  0  0  0  0  0  0  0  0  0  0  0
  145.8074  133.6020  160.8445 H   0  0  0  0  0  0  0  0  0  0  0  0
  147.0991  132.4705  161.0721 H   0  0  0  0  0  0  0  0  0  0  0  0
  146.4761  133.6334  163.2141 H   0  0  0  0  0  0  0  0  0  0  0  0
  148.1571  133.8691  162.7852 H   0  0  0  0  0  0  0  0  0  0  0  0
  145.8781  135.8664  162.3676 H   0  0  0  0  0  0  0  0  0  0  0  0
  147.2109  136.0260  163.4621 H   0  0  0  0  0  0  0  0  0  0  0  0
  148.8214  136.2424  161.7084 H   0  0  0  0  0  0  0  0  0  0  0  0
  147.5780  137.4136  161.4230 H   0  0  0  0  0  0  0  0  0  0  0  0
  151.7912  138.8763  159.7959 H   0  0  0  0  0  0  0  0  0  0  0  0
  152.9551  140.1374  158.1022 H   0  0  0  0  0  0  0  0  0  0  0  0
  1  2  1  0  0  0  0
  1 25  1  0  0  0  0
  1 26  1  0  0  0  0
  1 27  1  0  0  0  0
  2  3  1  0  0  0  0
  3  4  1  0  0  0  0
  3 28  1  0  0  0  0
  3 29  1  0  0  0  0
  4  5  1  0  0  0  0
  4 30  1  0  0  0  0
  4 31  1  0  0  0  0
  5 23  1  0  0  0  0
  5  6  1  0  0  0  0
  6  7  2  0  0  0  0
  7  8  1  0  0  0  0
  7 21  1  0  0  0  0
  8  9  2  0  0  0  0
  8 10  1  0  0  0  0
 10 11  1  0  0  0  0
 11 20  1  0  0  0  0
 11 12  1  0  0  0  0
 11 16  1  0  0  0  0
 12 13  1  0  0  0  0
 12 14  1  0  0  0  0
 12 15  1  0  0  0  0
 16 17  1  0  0  0  0
 16 32  1  0  0  0  0
 16 33  1  0  0  0  0
 17 18  1  0  0  0  0
 17 34  1  0  0  0  0
 17 35  1  0  0  0  0
 18 19  1  0  0  0  0
 18 36  1  0  0  0  0
 18 37  1  0  0  0  0
 19 20  1  0  0  0  0
 19 38  1  0  0  0  0
 19 39  1  0  0  0  0
 20 40  1  0  0  0  0
 20 41  1  0  0  0  0
 21 22  2  0  0  0  0
 21 42  1  0  0  0  0
 22 23  1  0  0  0  0
 22 43  1  0  0  0  0
 23 24  2  0  0  0  0
M  CHG  1  10  -1
M  END
> <s_m_source_file>
AV-unprocessed.smi

> <i_m_source_file_index>
1017

> <i_lp_mmshare_version>
43012

> <i_f3d_flags>
0

> <s_epik_input>
W0NIM11PW0NIMl1bQ0gyXW4xbmMoW2NIXVtjSF1jMT1PKUMoPU8pW05IXUMyKEMoRikoRilGKVtDSDJdW0NIMl1bQ0gyXVtDSDJdW0NIMl0y

> <s_epik_cmdline>
J2VwaWtfcHl0aG9uJywgJy1waCcsICc3LjAnLCAnLXRuJywgJzgnLCAnLW1hJywgJzIwMCcsICctbWV0YWxfYmluZGluZycsICctaW1hZScsICc8aW5maWxlLm1hZT4nLCAnLW9tYWUnLCAnPG91dGZpbGUubWFlPic=

> <r_lp_tautomer_probability>
1

> <r_epik_Ionization_Penalty>
6.5547

> <r_epik_Ionization_Penalty_Charging>
6.5547

> <r_epik_Ionization_Penalty_Neutral>
1.08437e-11

> <r_epik_State_Penalty>
6.55469

> <r_epik_Charging_Adjusted_Penalty>
13.1094

> <i_epik_Tot_Q>
-1

> <i_epik_Tot_abs_Q>
1

> <r_epik_Metal_State_Penalty>
2.48023

> <b_epik_Metal_Only>
1

> <s_lp_Force_Field>
OPLS_2005

> <r_lp_Energy>
56.1946

> <b_lp_Chiralities_Consistent>
1

> <s_lp_Variant>
AV-unprocessed.smi:1017-2

> <Gold.Version>
5.8.1

> <Gold.Id.Protein>
6NUR|6NUR_protein|mol2

> <Gold.PLP.Fitness>
39.5535

> <Gold.PLP.PLP>
-33.8889

> <Gold.PLP.part.hbond>
-4.7603

> <Gold.PLP.part.metal>
0.0000

> <Gold.PLP.part.buried>
-0.6892

> <Gold.PLP.part.nonpolar>
-29.6042

> <Gold.PLP.part.repulsive>
0.1193

> <Gold.PLP.ligand.clash>
0.0000

> <Gold.PLP.ligand.torsion>
1.1017

> <Gold.PLP.Chemscore.Hbond>
2.5845

> <Gold.PLP.Chemscore.CHOScore>
0.0000

> <Gold.PLP.Chemscore.Metal>
0.0000

> <Gold.Chemscore.Hbonds>
donor molecule, donor type, donor heavy atom, donor atom, acceptor molecule, acceptor atom, score
      P1  H  6896  6907       L1     9  0.59
      P1  H  6931  6943       L1     9  0.05
      P1  H  7989  7998       L1     2  0.98
      P1  H  7997  8010       L1    24  1.00

> <Gold.PLP.Chemscore.Internal.Correction>
0.1146

> <Gold.Rescore>
     Score         DG    S(hbond)    S(metal)    S(lipo)     H(rot)  DE(clash)    DE(int)     intcor
     12.31     -17.22       2.23        0.00      73.03       1.67       0.97       3.94       ----

> <Gold.Chemscore.Fitness>
12.3053

> <Gold.Chemscore.DG>
-17.2165

> <Gold.Chemscore.ZeroCoef>
-5.4800

> <Gold.Chemscore.Hbond>
2.2322

> <Gold.Chemscore.Metal>
0.0000

> <Gold.Chemscore.Lipo>
73.0340

> <Gold.Chemscore.Internal_Hbond>
0.0000

> <Gold.Chemscore.DEClash>
0.9684

> <Gold.Chemscore.DEInternal>
3.9428

> <Gold.Chemscore.Rot>
1.6657

> <Gold.Chemscore.Internal.Correction>
   9.000000E+99

> <Gold.Chemscore.Hbonds>
donor molecule, donor type, donor heavy atom, donor atom, acceptor molecule, acceptor atom, score
      P1  H  6896  6907       L1     9  0.05
      P1  H  6931  6943       L1     9  0.03
      P1  H  7989  7998       L1     2  0.83
      P1  H  7997  8010       L1    24  0.80

> <Gold.Chemscore.Hbond.Weighted>
-7.4556

> <Gold.Chemscore.Metal.Weighted>
-0.0000

> <Gold.Chemscore.Lipo.Weighted>
-8.5450

> <Gold.Chemscore.Internal_Hbond.Weighted>
0.0000

> <Gold.Chemscore.DEClash.Weighted>
0.9684

> <Gold.Chemscore.DEInternal.Weighted>
3.9428

> <Gold.Chemscore.Rot.Weighted>
4.2641

> <Gold.Chemscore.Internal.Correction.Weighted>
   9.000000E+99

> <Gold.Protein.RotatedTorsions>
[ 6907 6896 6895 6894 ] final   -6.90 input  -60.11 | X-H torsion
[ 7974 7965 7964 7962 ] final  -84.20 input  175.53 | X-H torsion
[ 8008 7997 7996 7995 ] final  101.94 input   59.86 | X-H torsion
[ 10167 10162 10161 10158 ] final -147.19 input  -65.29 | X-H torsion
[ 10718 10713 10712 10709 ] final -119.06 input   66.30 | X-H torsion
[ 10763 10752 10751 10750 ] final   25.70 input  -60.55 | X-H torsion
[ 11005 11000 10999 10996 ] final  145.47 input  -57.11 | X-H torsion

> <Gold.Protein.ActiveResidues>
 VAL166  LYS551  ARG553  GLY616  TRP617  ASP618  TYR619  PRO620  LYS621  CYS622 
 ASP623  PHE694  ASN695  SER759  ASP760  ASP761  ALA762  ILE779  LEU786  VAL792 
 PHE793  MET794  SER795  GLU796  ALA797  LYS798  CYS799  TRP800  GLU811  SER814 

> <Gold.Protein.RotatedAtoms>
  151.4581  135.1036  159.9716 H   0  0  0  0  0  0  0  0  0  0  0  0  # atno 6907 bound_to 6896
  152.4863  133.8378  159.7147 H   0  0  0  0  0  0  0  0  0  0  0  0  # atno 6908 bound_to 6896
  150.8975  133.7101  159.2915 H   0  0  0  0  0  0  0  0  0  0  0  0  # atno 6909 bound_to 6896
  145.5097  140.9541  143.1714 H   0  0  0  0  0  0  0  0  0  0  0  0  # atno 7974 bound_to 7965
  156.1347  140.3189  155.8402 H   0  0  0  0  0  0  0  0  0  0  0  0  # atno 8008 bound_to 7997
  155.4267  140.0516  157.3039 H   0  0  0  0  0  0  0  0  0  0  0  0  # atno 8009 bound_to 7997
  154.4927  140.2098  155.9526 H   0  0  0  0  0  0  0  0  0  0  0  0  # atno 8010 bound_to 7997
  139.7645  143.8328  152.2613 H   0  0  0  0  0  0  0  0  0  0  0  0  # atno 10167 bound_to 10162
  156.1153  130.6281  150.9369 H   0  0  0  0  0  0  0  0  0  0  0  0  # atno 10718 bound_to 10713
  153.0674  135.6577  154.0324 H   0  0  0  0  0  0  0  0  0  0  0  0  # atno 10763 bound_to 10752
  153.9978  135.2940  155.3407 H   0  0  0  0  0  0  0  0  0  0  0  0  # atno 10764 bound_to 10752
  154.7036  135.5234  153.8632 H   0  0  0  0  0  0  0  0  0  0  0  0  # atno 10765 bound_to 10752
  140.0715  134.9149  157.1352 H   0  0  0  0  0  0  0  0  0  0  0  0  # atno 11005 bound_to 11000
  144.7734  139.6684  143.7185 LP  0  0  0  0  0  0  0  0  0  0  0  0  # atno 17320 bound_to 7965
  146.2174  139.5574  142.9641 LP  0  0  0  0  0  0  0  0  0  0  0  0  # atno 17321 bound_to 7965
  139.8344  144.7239  150.9409 LP  0  0  0  0  0  0  0  0  0  0  0  0  # atno 17342 bound_to 10162
  140.7810  143.4040  151.1102 LP  0  0  0  0  0  0  0  0  0  0  0  0  # atno 17343 bound_to 10162
  157.6336  131.0918  150.8393 LP  0  0  0  0  0  0  0  0  0  0  0  0  # atno 17370 bound_to 10713
  156.8498  130.5076  149.5313 LP  0  0  0  0  0  0  0  0  0  0  0  0  # atno 17371 bound_to 10713
  140.3621  134.2483  155.7186 LP  0  0  0  0  0  0  0  0  0  0  0  0  # atno 17394 bound_to 11000
  141.2013  133.7965  157.0445 LP  0  0  0  0  0  0  0  0  0  0  0  0  # atno 17395 bound_to 11000

$$$$
