AV-unprocessed.smi:661|AV-procd|sdf|3241|dock4
  -GOLD-   22720 0193D 1   1.00000     0.00000
 Structure written by MMmdl.
 30 31  0  0  0  0  0  0  0  0  1 V2000
  152.2645  138.9413  154.9786 C   0  0  0  0  0  0  0  0  0  0  0  0
  151.0433  139.6173  154.5793 N   0  0  0  0  0  0  0  0  0  0  0  0
  150.2044  139.8393  155.7454 C   0  0  0  0  0  0  0  0  0  0  0  0
  150.8621  140.7221  156.7604 C   0  0  0  0  0  0  0  0  0  0  0  0
  150.7785  142.0511  156.6906 N   0  0  0  0  0  0  0  0  0  0  0  0
  151.5117  142.4598  157.7874 C   0  0  0  0  0  0  0  0  0  0  0  0
  151.8023  143.7572  158.2667 C   0  0  0  0  0  0  0  0  0  0  0  0
  152.5871  143.9310  159.4255 C   0  0  0  0  0  0  0  0  0  0  0  0
  153.0920  142.8127  160.1200 C   0  0  0  0  0  0  0  0  0  0  0  0
  152.8139  141.5112  159.6598 C   0  0  0  0  0  0  0  0  0  0  0  0
  152.0292  141.3433  158.5033 C   0  0  0  0  0  0  0  0  0  0  0  0
  151.5824  140.2292  157.8003 N   0  0  0  0  0  0  0  0  0  0  0  0
  151.8586  138.8407  158.1375 C   0  0  0  0  0  0  0  0  0  0  0  0
  150.5693  138.0653  158.4410 C   0  0  0  0  0  0  0  0  0  0  0  0
  150.8706  136.7017  158.6410 O   0  0  0  0  0  0  0  0  0  0  0  0
  152.8922  138.7640  154.1052 H   0  0  0  0  0  0  0  0  0  0  0  0
  152.0440  137.9778  155.4397 H   0  0  0  0  0  0  0  0  0  0  0  0
  152.8310  139.5468  155.6870 H   0  0  0  0  0  0  0  0  0  0  0  0
  150.5450  139.0310  153.9248 H   0  0  0  0  0  0  0  0  0  0  0  0
  149.2680  140.3018  155.4299 H   0  0  0  0  0  0  0  0  0  0  0  0
  149.9416  138.8895  156.2119 H   0  0  0  0  0  0  0  0  0  0  0  0
  151.4206  144.6203  157.7418 H   0  0  0  0  0  0  0  0  0  0  0  0
  152.8030  144.9272  159.7826 H   0  0  0  0  0  0  0  0  0  0  0  0
  153.6931  142.9548  161.0063 H   0  0  0  0  0  0  0  0  0  0  0  0
  153.1996  140.6519  160.1883 H   0  0  0  0  0  0  0  0  0  0  0  0
  152.3831  138.3835  157.2975 H   0  0  0  0  0  0  0  0  0  0  0  0
  152.5422  138.7948  158.9847 H   0  0  0  0  0  0  0  0  0  0  0  0
  150.0812  138.4551  159.3343 H   0  0  0  0  0  0  0  0  0  0  0  0
  149.8612  138.1544  157.6166 H   0  0  0  0  0  0  0  0  0  0  0  0
  150.8722  136.2686  157.8009 H   0  0  0  0  0  0  0  0  0  0  0  0
  1  2  1  0  0  0  0
  1 16  1  0  0  0  0
  1 17  1  0  0  0  0
  1 18  1  0  0  0  0
  2  3  1  0  0  0  0
  2 19  1  0  0  0  0
  3  4  1  0  0  0  0
  3 20  1  0  0  0  0
  3 21  1  0  0  0  0
  4 12  1  0  0  0  0
  4  5  2  0  0  0  0
  5  6  1  0  0  0  0
  6 11  2  0  0  0  0
  6  7  1  0  0  0  0
  7  8  2  0  0  0  0
  7 22  1  0  0  0  0
  8  9  1  0  0  0  0
  8 23  1  0  0  0  0
  9 10  2  0  0  0  0
  9 24  1  0  0  0  0
 10 11  1  0  0  0  0
 10 25  1  0  0  0  0
 11 12  1  0  0  0  0
 12 13  1  0  0  0  0
 13 14  1  0  0  0  0
 13 26  1  0  0  0  0
 13 27  1  0  0  0  0
 14 15  1  0  0  0  0
 14 28  1  0  0  0  0
 14 29  1  0  0  0  0
 15 30  1  0  0  0  0
M  END
> <s_m_source_file>
AV-unprocessed.smi

> <i_m_source_file_index>
661

> <i_lp_mmshare_version>
43012

> <i_f3d_flags>
0

> <s_epik_input>
W0NIM11bTkhdW0NIMl1jKG4xKW4oW0NIMl1bQ0gyXVtPSF0pYyhjMTIpW2NIXVtjSF1bY0hdW2NIXTI=

> <s_epik_cmdline>
J2VwaWtfcHl0aG9uJywgJy1waCcsICc3LjAnLCAnLXRuJywgJzgnLCAnLW1hJywgJzIwMCcsICctbWV0YWxfYmluZGluZycsICctaW1hZScsICc8aW5maWxlLm1hZT4nLCAnLW9tYWUnLCAnPG91dGZpbGUubWFlPic=

> <r_epik_Ionization_Penalty>
1.98932

> <r_epik_Ionization_Penalty_Charging>
0

> <r_epik_Ionization_Penalty_Neutral>
1.98932

> <r_epik_State_Penalty>
1.95598

> <r_epik_Charging_Adjusted_Penalty>
1.95598

> <i_epik_Tot_Q>
0

> <i_epik_Tot_abs_Q>
0

> <r_epik_Metal_State_Penalty>
1.80219

> <b_epik_Metal_Only>
0

> <s_lp_Force_Field>
OPLS_2005

> <r_lp_Energy>
9.98392

> <b_lp_Chiralities_Consistent>
1

> <s_lp_Variant>
AV-unprocessed.smi:661-2

> <Gold.Version>
5.8.1

> <Gold.Id.Protein>
6NUR|6NUR_protein|mol2

> <Gold.PLP.Fitness>
38.3260

> <Gold.PLP.PLP>
-33.3740

> <Gold.PLP.part.hbond>
-2.0000

> <Gold.PLP.part.metal>
0.0000

> <Gold.PLP.part.buried>
-5.5668

> <Gold.PLP.part.nonpolar>
-27.0799

> <Gold.PLP.part.repulsive>
0.0878

> <Gold.PLP.ligand.clash>
0.0000

> <Gold.PLP.ligand.torsion>
0.3736

> <Gold.PLP.Chemscore.Hbond>
1.8968

> <Gold.PLP.Chemscore.CHOScore>
0.0000

> <Gold.PLP.Chemscore.Metal>
0.0000

> <Gold.Chemscore.Hbonds>
donor molecule, donor type, donor heavy atom, donor atom, acceptor molecule, acceptor atom, score
      P1  H  6896  6909       L1    15  0.90
      P1  H  7989  7998       L1     2  1.00

> <Gold.PLP.Chemscore.Internal.Correction>
0.0088

> <Gold.Rescore>
     Score         DG    S(hbond)    S(metal)    S(lipo)     H(rot)  DE(clash)    DE(int)     intcor
     11.25     -11.64       0.74        0.00      81.93       2.30       0.00       0.40       ----

> <Gold.Chemscore.Fitness>
11.2469

> <Gold.Chemscore.DG>
-11.6422

> <Gold.Chemscore.ZeroCoef>
-5.4800

> <Gold.Chemscore.Hbond>
0.7403

> <Gold.Chemscore.Metal>
0.0000

> <Gold.Chemscore.Lipo>
81.9278

> <Gold.Chemscore.Internal_Hbond>
0.0000

> <Gold.Chemscore.DEClash>
0.0000

> <Gold.Chemscore.DEInternal>
0.3953

> <Gold.Chemscore.Rot>
2.3031

> <Gold.Chemscore.Internal.Correction>
   9.000000E+99

> <Gold.Chemscore.Hbonds>
donor molecule, donor type, donor heavy atom, donor atom, acceptor molecule, acceptor atom, score
      P1  H  6896  6909       L1    15  0.18
      P1  H  7989  7998       L1     2  0.09

> <Gold.Chemscore.Hbond.Weighted>
-2.4727

> <Gold.Chemscore.Metal.Weighted>
-0.0000

> <Gold.Chemscore.Lipo.Weighted>
-9.5855

> <Gold.Chemscore.Internal_Hbond.Weighted>
0.0000

> <Gold.Chemscore.DEClash.Weighted>
0.0000

> <Gold.Chemscore.DEInternal.Weighted>
0.3953

> <Gold.Chemscore.Rot.Weighted>
5.8960

> <Gold.Chemscore.Internal.Correction.Weighted>
   9.000000E+99

> <Gold.Protein.RotatedTorsions>
[ 6907 6896 6895 6894 ] final   91.26 input  -60.11 | X-H torsion
[ 7974 7965 7964 7962 ] final  148.93 input  175.53 | X-H torsion
[ 8008 7997 7996 7995 ] final   76.07 input   59.86 | X-H torsion
[ 10167 10162 10161 10158 ] final  -12.25 input  -65.29 | X-H torsion
[ 10718 10713 10712 10709 ] final  168.85 input   66.30 | X-H torsion
[ 10763 10752 10751 10750 ] final  125.14 input  -60.55 | X-H torsion
[ 11005 11000 10999 10996 ] final -114.07 input  -57.11 | X-H torsion

> <Gold.Protein.ActiveResidues>
 VAL166  LYS551  ARG553  GLY616  TRP617  ASP618  TYR619  PRO620  LYS621  CYS622 
 ASP623  PHE694  ASN695  SER759  ASP760  ASP761  ALA762  ILE779  LEU786  VAL792 
 PHE793  MET794  SER795  GLU796  ALA797  LYS798  CYS799  TRP800  GLU811  SER814 

> <Gold.Protein.RotatedAtoms>
  152.5449  134.1683  159.8586 H   0  0  0  0  0  0  0  0  0  0  0  0  # atno 6907 bound_to 6896
  151.1696  133.4786  159.2601 H   0  0  0  0  0  0  0  0  0  0  0  0  # atno 6908 bound_to 6896
  151.1289  135.0131  159.8628 H   0  0  0  0  0  0  0  0  0  0  0  0  # atno 6909 bound_to 6896
  144.8476  139.6216  143.5988 H   0  0  0  0  0  0  0  0  0  0  0  0  # atno 7974 bound_to 7965
  155.8220  140.3469  155.5520 H   0  0  0  0  0  0  0  0  0  0  0  0  # atno 8008 bound_to 7997
  155.8332  140.0930  157.1800 H   0  0  0  0  0  0  0  0  0  0  0  0  # atno 8009 bound_to 7997
  154.4004  140.1408  156.3626 H   0  0  0  0  0  0  0  0  0  0  0  0  # atno 8010 bound_to 7997
  140.7157  143.5552  150.9257 H   0  0  0  0  0  0  0  0  0  0  0  0  # atno 10167 bound_to 10162
  157.0312  131.0260  151.2744 H   0  0  0  0  0  0  0  0  0  0  0  0  # atno 10718 bound_to 10713
  153.6725  135.3328  155.3157 H   0  0  0  0  0  0  0  0  0  0  0  0  # atno 10763 bound_to 10752
  154.8487  135.4390  154.1690 H   0  0  0  0  0  0  0  0  0  0  0  0  # atno 10764 bound_to 10752
  153.2685  135.6998  153.7581 H   0  0  0  0  0  0  0  0  0  0  0  0  # atno 10765 bound_to 10752
  141.0575  133.9589  157.2727 H   0  0  0  0  0  0  0  0  0  0  0  0  # atno 11005 bound_to 11000
  146.2757  139.6748  142.9264 LP  0  0  0  0  0  0  0  0  0  0  0  0  # atno 17320 bound_to 7965
  145.4565  141.0431  143.2775 LP  0  0  0  0  0  0  0  0  0  0  0  0  # atno 17321 bound_to 7965
  139.9277  143.6531  152.3083 LP  0  0  0  0  0  0  0  0  0  0  0  0  # atno 17342 bound_to 10162
  139.6970  144.7640  151.1339 LP  0  0  0  0  0  0  0  0  0  0  0  0  # atno 17343 bound_to 10162
  157.5176  130.7978  149.7773 LP  0  0  0  0  0  0  0  0  0  0  0  0  # atno 17370 bound_to 10713
  156.0069  130.3851  150.2400 LP  0  0  0  0  0  0  0  0  0  0  0  0  # atno 17371 bound_to 10713
  139.9403  135.0192  156.8687 LP  0  0  0  0  0  0  0  0  0  0  0  0  # atno 17394 bound_to 11000
  140.5935  134.0239  155.7509 LP  0  0  0  0  0  0  0  0  0  0  0  0  # atno 17395 bound_to 11000

$$$$
