AV-unprocessed.smi:3231|AV-procd|sdf|12333|dock5
  -GOLD-   2272018183D 1   1.00000     0.00000
 Structure written by MMmdl.
 41 42  0  0  0  0  0  0  0  0  2 V2000
  146.2892  139.8360  150.9473 O   0  0  0  0  0  0  0  0  0  0  0  0
  146.9532  139.2188  152.0320 C   0  0  2  0  0  0  0  0  0  0  0  0
  146.1039  138.0097  152.4577 C   0  0  0  0  0  0  0  0  0  0  0  0
  145.9065  137.0846  151.3470 N   0  0  0  0  0  0  0  0  0  0  0  0
  145.1616  135.8833  151.7128 C   0  0  0  0  0  0  0  0  0  0  0  0
  144.6773  135.1191  150.4703 C   0  0  0  0  0  0  0  0  0  0  0  0
  144.8089  133.6809  150.6247 N   0  0  0  0  0  0  0  0  0  0  0  0
  143.8260  132.7176  150.5392 C   0  0  0  0  0  0  0  0  0  0  0  0
  144.4241  131.5074  150.7441 C   0  0  0  0  0  0  0  0  0  0  0  0
  145.7925  131.8374  150.9512 C   0  0  0  0  0  0  0  0  0  0  0  0
  146.0204  133.1386  150.8764 N   0  0  0  0  0  0  0  0  0  0  0  0
  147.1109  140.2551  153.1668 C   0  0  0  0  0  0  0  0  0  0  0  0
  148.4939  140.3208  153.7040 N   0  3  0  0  0  0  0  0  0  0  0  0
  148.6302  141.3205  154.7900 C   0  0  0  0  0  0  0  0  0  0  0  0
  150.0870  141.3925  155.2780 C   0  0  0  0  0  0  0  0  0  0  0  0
  150.5113  140.1051  155.7072 O   0  0  0  0  0  0  0  0  0  0  0  0
  150.4694  139.1526  154.6522 C   0  0  0  0  0  0  0  0  0  0  0  0
  149.0250  139.0063  154.1442 C   0  0  0  0  0  0  0  0  0  0  0  0
  145.5182  139.3338  150.7338 H   0  0  0  0  0  0  0  0  0  0  0  0
  147.9205  138.8617  151.6788 H   0  0  0  0  0  0  0  0  0  0  0  0
  146.5711  137.4978  153.3001 H   0  0  0  0  0  0  0  0  0  0  0  0
  145.1320  138.3606  152.8083 H   0  0  0  0  0  0  0  0  0  0  0  0
  145.4295  137.5572  150.5852 H   0  0  0  0  0  0  0  0  0  0  0  0
  145.7923  135.2294  152.3159 H   0  0  0  0  0  0  0  0  0  0  0  0
  144.3040  136.1461  152.3335 H   0  0  0  0  0  0  0  0  0  0  0  0
  143.6387  135.3669  150.2448 H   0  0  0  0  0  0  0  0  0  0  0  0
  145.2641  135.4196  149.6015 H   0  0  0  0  0  0  0  0  0  0  0  0
  142.7953  132.9706  150.3389 H   0  0  0  0  0  0  0  0  0  0  0  0
  143.9557  130.5346  150.7457 H   0  0  0  0  0  0  0  0  0  0  0  0
  146.6214  131.1743  151.1506 H   0  0  0  0  0  0  0  0  0  0  0  0
  146.8168  141.2341  152.7849 H   0  0  0  0  0  0  0  0  0  0  0  0
  146.4274  140.0366  153.9887 H   0  0  0  0  0  0  0  0  0  0  0  0
  148.3165  142.3019  154.4319 H   0  0  0  0  0  0  0  0  0  0  0  0
  147.9711  141.0544  155.6178 H   0  0  0  0  0  0  0  0  0  0  0  0
  150.7450  141.7623  154.4898 H   0  0  0  0  0  0  0  0  0  0  0  0
  150.1693  142.0878  156.1136 H   0  0  0  0  0  0  0  0  0  0  0  0
  151.1386  139.4552  153.8450 H   0  0  0  0  0  0  0  0  0  0  0  0
  150.8345  138.1961  155.0262 H   0  0  0  0  0  0  0  0  0  0  0  0
  148.3931  138.6029  154.9370 H   0  0  0  0  0  0  0  0  0  0  0  0
  149.0046  138.2891  153.3250 H   0  0  0  0  0  0  0  0  0  0  0  0
  149.0819  140.6435  152.9491 H   0  0  0  0  0  0  0  0  0  0  0  0
  1  2  1  0  0  0  0
  1 19  1  0  0  0  0
  2  3  1  0  0  0  0
  2 12  1  0  0  0  0
  2 20  1  0  0  0  0
  3  4  1  0  0  0  0
  3 21  1  0  0  0  0
  3 22  1  0  0  0  0
  4  5  1  0  0  0  0
  4 23  1  0  0  0  0
  5  6  1  0  0  0  0
  5 24  1  0  0  0  0
  5 25  1  0  0  0  0
  6  7  1  0  0  0  0
  6 26  1  0  0  0  0
  6 27  1  0  0  0  0
  7 11  1  0  0  0  0
  7  8  1  0  0  0  0
  8  9  2  0  0  0  0
  8 28  1  0  0  0  0
  9 10  1  0  0  0  0
  9 29  1  0  0  0  0
 10 11  2  0  0  0  0
 10 30  1  0  0  0  0
 12 13  1  0  0  0  0
 12 31  1  0  0  0  0
 12 32  1  0  0  0  0
 13 18  1  0  0  0  0
 13 14  1  0  0  0  0
 13 41  1  0  0  0  0
 14 15  1  0  0  0  0
 14 33  1  0  0  0  0
 14 34  1  0  0  0  0
 15 16  1  0  0  0  0
 15 35  1  0  0  0  0
 15 36  1  0  0  0  0
 16 17  1  0  0  0  0
 17 18  1  0  0  0  0
 17 37  1  0  0  0  0
 17 38  1  0  0  0  0
 18 39  1  0  0  0  0
 18 40  1  0  0  0  0
M  CHG  1  13   1
M  END
> <s_m_source_file>
AV-unprocessed.smi

> <i_m_source_file_index>
3231

> <i_lp_mmshare_version>
43012

> <i_f3d_flags>
0

> <s_epik_input>
W0NIMl0xW0NIMl1PW0NIMl1bQ0gyXU4xW0NIMl1bQ0BIXShbT0hdKVtDSDJdW05IXVtDSDJdW0NIMl1uMltjSF1bY0hdW2NIXW4y

> <s_epik_cmdline>
J2VwaWtfcHl0aG9uJywgJy1waCcsICc3LjAnLCAnLXRuJywgJzgnLCAnLW1hJywgJzIwMCcsICctbWV0YWxfYmluZGluZycsICctaW1hZScsICc8aW5maWxlLm1hZT4nLCAnLW9tYWUnLCAnPG91dGZpbGUubWFlPic=

> <r_epik_Ionization_Penalty>
0.33973

> <r_epik_Ionization_Penalty_Charging>
0.202493

> <r_epik_Ionization_Penalty_Neutral>
0.137237

> <r_epik_State_Penalty>
0.943915

> <r_epik_Charging_Adjusted_Penalty>
1.14641

> <i_epik_Tot_Q>
1

> <i_epik_Tot_abs_Q>
1

> <r_epik_Metal_State_Penalty>
0.94313

> <b_epik_Metal_Only>
0

> <s_lp_Force_Field>
OPLS_2005

> <r_lp_Energy>
21.8008

> <b_lp_Chiralities_Consistent>
1

> <s_lp_Variant>
AV-unprocessed.smi:3231-3

> <Gold.Version>
5.8.1

> <Gold.Id.Protein>
6NUR|6NUR_protein|mol2

> <Gold.PLP.Fitness>
50.9232

> <Gold.PLP.PLP>
-38.5978

> <Gold.PLP.part.hbond>
-4.6550

> <Gold.PLP.part.metal>
0.0000

> <Gold.PLP.part.buried>
-0.2285

> <Gold.PLP.part.nonpolar>
-33.5018

> <Gold.PLP.part.repulsive>
0.3155

> <Gold.PLP.ligand.clash>
0.0000

> <Gold.PLP.ligand.torsion>
1.0514

> <Gold.PLP.Chemscore.Hbond>
2.7680

> <Gold.PLP.Chemscore.CHOScore>
2.0000

> <Gold.PLP.Chemscore.Metal>
0.0000

> <Gold.Chemscore.Hbonds>
donor molecule, donor type, donor heavy atom, donor atom, acceptor molecule, acceptor atom, score
      L1  H     1    19       P1 10171  1.00
      L1  H     4    23       P1 10171  1.00
      L1  H    13    41       P1  7957  0.77
      L1  C     8    28       P1 10186  1.00
      L1  C    10    30       P1 10747  1.00

> <Gold.PLP.Chemscore.Internal.Correction>
0.1243

> <Gold.Rescore>
     Score         DG    S(hbond)    S(metal)    S(lipo)     H(rot)  DE(clash)    DE(int)     intcor
     16.15     -19.07       2.90        0.00      95.49       2.84       1.91       1.01       ----

> <Gold.Chemscore.Fitness>
16.1484

> <Gold.Chemscore.DG>
-19.0729

> <Gold.Chemscore.ZeroCoef>
-5.4800

> <Gold.Chemscore.Hbond>
2.9012

> <Gold.Chemscore.Metal>
0.0000

> <Gold.Chemscore.Lipo>
95.4906

> <Gold.Chemscore.Internal_Hbond>
0.0000

> <Gold.Chemscore.DEClash>
1.9148

> <Gold.Chemscore.DEInternal>
1.0097

> <Gold.Chemscore.Rot>
2.8397

> <Gold.Chemscore.Internal.Correction>
   9.000000E+99

> <Gold.Chemscore.Hbonds>
donor molecule, donor type, donor heavy atom, donor atom, acceptor molecule, acceptor atom, score
      L1  H     1    19       P1 10171  0.96
      L1  H     4    23       P1 10171  0.92
      L1  H    13    41       P1  7957  0.75

> <Gold.Chemscore.Hbond.Weighted>
-9.6901

> <Gold.Chemscore.Metal.Weighted>
-0.0000

> <Gold.Chemscore.Lipo.Weighted>
-11.1724

> <Gold.Chemscore.Internal_Hbond.Weighted>
0.0000

> <Gold.Chemscore.DEClash.Weighted>
1.9148

> <Gold.Chemscore.DEInternal.Weighted>
1.0097

> <Gold.Chemscore.Rot.Weighted>
7.2696

> <Gold.Chemscore.Internal.Correction.Weighted>
   9.000000E+99

> <Gold.Protein.RotatedTorsions>
[ 6907 6896 6895 6894 ] final   51.38 input  -60.11 | X-H torsion
[ 7974 7965 7964 7962 ] final -153.07 input  175.53 | X-H torsion
[ 8008 7997 7996 7995 ] final   -8.16 input   59.86 | X-H torsion
[ 10167 10162 10161 10158 ] final   46.53 input  -65.29 | X-H torsion
[ 10718 10713 10712 10709 ] final  -74.87 input   66.30 | X-H torsion
[ 10763 10752 10751 10750 ] final   56.49 input  -60.55 | X-H torsion
[ 11005 11000 10999 10996 ] final  123.70 input  -57.11 | X-H torsion

> <Gold.Protein.ActiveResidues>
 VAL166  LYS551  ARG553  GLY616  TRP617  ASP618  TYR619  PRO620  LYS621  CYS622 
 ASP623  PHE694  ASN695  SER759  ASP760  ASP761  ALA762  ILE779  LEU786  VAL792 
 PHE793  MET794  SER795  GLU796  ALA797  LYS798  CYS799  TRP800  GLU811  SER814 

> <Gold.Protein.RotatedAtoms>
  152.3120  134.7486  160.0333 H   0  0  0  0  0  0  0  0  0  0  0  0  # atno 6907 bound_to 6896
  151.7963  133.3359  159.3522 H   0  0  0  0  0  0  0  0  0  0  0  0  # atno 6908 bound_to 6896
  150.7325  134.5726  159.5942 H   0  0  0  0  0  0  0  0  0  0  0  0  # atno 6909 bound_to 6896
  144.7760  140.4576  143.5873 H   0  0  0  0  0  0  0  0  0  0  0  0  # atno 7974 bound_to 7965
  154.5768  140.2388  155.8111 H   0  0  0  0  0  0  0  0  0  0  0  0  # atno 8008 bound_to 7997
  156.2149  140.3015  155.9773 H   0  0  0  0  0  0  0  0  0  0  0  0  # atno 8009 bound_to 7997
  155.2613  140.0414  157.2988 H   0  0  0  0  0  0  0  0  0  0  0  0  # atno 8010 bound_to 7997
  140.3130  144.2798  150.6196 H   0  0  0  0  0  0  0  0  0  0  0  0  # atno 10167 bound_to 10162
  156.0227  130.4427  150.2957 H   0  0  0  0  0  0  0  0  0  0  0  0  # atno 10718 bound_to 10713
  152.9833  135.5674  154.5237 H   0  0  0  0  0  0  0  0  0  0  0  0  # atno 10763 bound_to 10752
  154.4720  135.2785  155.1637 H   0  0  0  0  0  0  0  0  0  0  0  0  # atno 10764 bound_to 10752
  154.3181  135.6274  153.5549 H   0  0  0  0  0  0  0  0  0  0  0  0  # atno 10765 bound_to 10752
  139.9324  134.9641  156.8298 H   0  0  0  0  0  0  0  0  0  0  0  0  # atno 11005 bound_to 11000
  145.6184  139.1521  143.3036 LP  0  0  0  0  0  0  0  0  0  0  0  0  # atno 17320 bound_to 7965
  146.1940  140.6296  142.9132 LP  0  0  0  0  0  0  0  0  0  0  0  0  # atno 17321 bound_to 7965
  140.5551  143.2200  151.7860 LP  0  0  0  0  0  0  0  0  0  0  0  0  # atno 17342 bound_to 10162
  139.4890  144.4424  151.9749 LP  0  0  0  0  0  0  0  0  0  0  0  0  # atno 17343 bound_to 10162
  157.1061  131.0208  151.3066 LP  0  0  0  0  0  0  0  0  0  0  0  0  # atno 17370 bound_to 10713
  157.4742  130.7726  149.7352 LP  0  0  0  0  0  0  0  0  0  0  0  0  # atno 17371 bound_to 10713
  140.6165  134.0034  155.7599 LP  0  0  0  0  0  0  0  0  0  0  0  0  # atno 17394 bound_to 11000
  141.0921  133.9901  157.3221 LP  0  0  0  0  0  0  0  0  0  0  0  0  # atno 17395 bound_to 11000

$$$$
