AV-unprocessed.smi:1710|AV-procd|sdf|6899|dock8
  -GOLD-   22720 8103D 1   1.00000     0.00000
 Structure written by MMmdl.
 36 37  0  0  0  0  0  0  0  0  1 V2000
  150.2828  137.3992  157.7497 C   0  0  0  0  0  0  0  0  0  0  0  0
  150.3434  136.6471  156.0724 S   0  0  0  0  0  0  0  0  0  0  0  0
  151.6851  136.0776  155.8735 O   0  0  0  0  0  0  0  0  0  0  0  0
  149.1573  135.7926  155.9094 O   0  0  0  0  0  0  0  0  0  0  0  0
  150.1754  138.0026  154.9937 N   0  0  0  0  0  0  0  0  0  0  0  0
  148.8854  138.7156  154.8999 C   0  0  0  0  0  0  0  0  0  0  0  0
  148.9053  140.0379  155.6870 C   0  0  0  0  0  0  0  0  0  0  0  0
  150.0896  140.9233  155.2651 C   0  0  0  0  0  0  0  0  0  0  0  0
  150.1361  142.1431  156.0664 N   0  0  0  0  0  0  0  0  0  0  0  0
  150.6319  142.2300  157.3091 C   0  0  0  0  0  0  0  0  0  0  0  0
  151.1058  141.2727  157.9213 O   0  0  0  0  0  0  0  0  0  0  0  0
  150.5486  143.4841  157.7827 N   0  0  0  0  0  0  0  0  0  0  0  0
  150.9587  143.9506  159.0574 C   0  0  0  0  0  0  0  0  0  0  0  0
  151.7091  143.1904  159.9953 C   0  0  0  0  0  0  0  0  0  0  0  0
  151.9509  143.8850  161.0980 N   0  0  0  0  0  0  0  0  0  0  0  0
  151.3645  145.0822  160.8718 N   0  0  0  0  0  0  0  0  0  0  0  0
  150.7494  145.1680  159.6424 C   0  0  0  0  0  0  0  0  0  0  0  0
  151.3961  140.1346  155.4327 C   0  0  0  0  0  0  0  0  0  0  0  0
  151.3570  138.8152  154.6414 C   0  0  0  0  0  0  0  0  0  0  0  0
  151.3938  145.8234  161.5576 H   0  0  0  0  0  0  0  0  0  0  0  0
  150.3708  136.6098  158.4958 H   0  0  0  0  0  0  0  0  0  0  0  0
  149.3350  137.9151  157.8914 H   0  0  0  0  0  0  0  0  0  0  0  0
  151.1102  138.0955  157.8737 H   0  0  0  0  0  0  0  0  0  0  0  0
  148.6830  138.9221  153.8485 H   0  0  0  0  0  0  0  0  0  0  0  0
  148.0728  138.0794  155.2493 H   0  0  0  0  0  0  0  0  0  0  0  0
  147.9657  140.5674  155.5250 H   0  0  0  0  0  0  0  0  0  0  0  0
  148.9573  139.8335  156.7560 H   0  0  0  0  0  0  0  0  0  0  0  0
  149.9819  141.1872  154.2111 H   0  0  0  0  0  0  0  0  0  0  0  0
  149.7682  142.9817  155.6411 H   0  0  0  0  0  0  0  0  0  0  0  0
  150.1525  144.1791  157.1669 H   0  0  0  0  0  0  0  0  0  0  0  0
  152.0782  142.1786  159.9146 H   0  0  0  0  0  0  0  0  0  0  0  0
  150.2397  146.0609  159.3123 H   0  0  0  0  0  0  0  0  0  0  0  0
  152.2399  140.7362  155.0926 H   0  0  0  0  0  0  0  0  0  0  0  0
  151.5745  139.9300  156.4880 H   0  0  0  0  0  0  0  0  0  0  0  0
  152.2723  138.2469  154.8050 H   0  0  0  0  0  0  0  0  0  0  0  0
  151.3177  139.0326  153.5735 H   0  0  0  0  0  0  0  0  0  0  0  0
  1  2  1  0  0  0  0
  1 21  1  0  0  0  0
  1 22  1  0  0  0  0
  1 23  1  0  0  0  0
  2  3  2  0  0  0  0
  2  4  2  0  0  0  0
  2  5  1  0  0  0  0
  5 19  1  0  0  0  0
  5  6  1  0  0  0  0
  6  7  1  0  0  0  0
  6 24  1  0  0  0  0
  6 25  1  0  0  0  0
  7  8  1  0  0  0  0
  7 26  1  0  0  0  0
  7 27  1  0  0  0  0
  8  9  1  0  0  0  0
  8 18  1  0  0  0  0
  8 28  1  0  0  0  0
  9 10  1  0  0  0  0
  9 29  1  0  0  0  0
 10 11  2  0  0  0  0
 10 12  1  0  0  0  0
 12 13  1  0  0  0  0
 12 30  1  0  0  0  0
 13 17  2  0  0  0  0
 13 14  1  0  0  0  0
 14 15  2  0  0  0  0
 14 31  1  0  0  0  0
 15 16  1  0  0  0  0
 16 20  1  0  0  0  0
 16 17  1  0  0  0  0
 17 32  1  0  0  0  0
 18 19  1  0  0  0  0
 18 33  1  0  0  0  0
 18 34  1  0  0  0  0
 19 35  1  0  0  0  0
 19 36  1  0  0  0  0
M  END
> <s_m_source_file>
AV-unprocessed.smi

> <i_m_source_file_index>
1710

> <i_lp_mmshare_version>
43012

> <i_f3d_flags>
0

> <s_epik_input>
W0NIM11TKD1PKSg9TylOMVtDSDJdW0NIMl1bQ0hdKFtDSDJdW0NIMl0xKVtOSF1DKD1PKVtOSF1jMltjSF1uW25IXVtjSF0y

> <s_epik_cmdline>
J2VwaWtfcHl0aG9uJywgJy1waCcsICc3LjAnLCAnLXRuJywgJzgnLCAnLW1hJywgJzIwMCcsICctbWV0YWxfYmluZGluZycsICctaW1hZScsICc8aW5maWxlLm1hZT4nLCAnLW9tYWUnLCAnPG91dGZpbGUubWFlPic=

> <r_lp_tautomer_probability>
1

> <r_epik_Ionization_Penalty>
5.00334e-05

> <r_epik_Ionization_Penalty_Charging>
0

> <r_epik_Ionization_Penalty_Neutral>
5.00334e-05

> <r_epik_State_Penalty>
-0

> <r_epik_Charging_Adjusted_Penalty>
0

> <i_epik_Tot_Q>
0

> <i_epik_Tot_abs_Q>
0

> <r_epik_Metal_State_Penalty>
-0

> <b_epik_Metal_Only>
0

> <s_lp_Force_Field>
OPLS_2005

> <r_lp_Energy>
2.71919

> <b_lp_Chiralities_Consistent>
1

> <s_lp_Variant>
AV-unprocessed.smi:1710-1

> <Gold.Version>
5.8.1

> <Gold.Id.Protein>
6NUR|6NUR_protein|mol2

> <Gold.PLP.Fitness>
40.2048

> <Gold.PLP.PLP>
-31.7809

> <Gold.PLP.part.hbond>
-3.9341

> <Gold.PLP.part.metal>
0.0000

> <Gold.PLP.part.buried>
-5.1339

> <Gold.PLP.part.nonpolar>
-23.6703

> <Gold.PLP.part.repulsive>
0.4387

> <Gold.PLP.ligand.clash>
0.0000

> <Gold.PLP.ligand.torsion>
1.3138

> <Gold.PLP.Chemscore.Hbond>
3.0000

> <Gold.PLP.Chemscore.CHOScore>
0.0000

> <Gold.PLP.Chemscore.Metal>
0.0000

> <Gold.Chemscore.Hbonds>
donor molecule, donor type, donor heavy atom, donor atom, acceptor molecule, acceptor atom, score
      L1  H     9    29       P1  8028  1.00
      L1  H    12    30       P1  8028  1.00
      P1  H 10752 10764       L1     3  1.00

> <Gold.PLP.Chemscore.Internal.Correction>
2.0515

> <Gold.Rescore>
     Score         DG    S(hbond)    S(metal)    S(lipo)     H(rot)  DE(clash)    DE(int)     intcor
     15.78     -19.72       2.83        0.00      62.78       1.00       0.23       3.72       ----

> <Gold.Chemscore.Fitness>
15.7790

> <Gold.Chemscore.DG>
-19.7245

> <Gold.Chemscore.ZeroCoef>
-5.4800

> <Gold.Chemscore.Hbond>
2.8322

> <Gold.Chemscore.Metal>
0.0000

> <Gold.Chemscore.Lipo>
62.7762

> <Gold.Chemscore.Internal_Hbond>
0.0000

> <Gold.Chemscore.DEClash>
0.2261

> <Gold.Chemscore.DEInternal>
3.7194

> <Gold.Chemscore.Rot>
1.0000

> <Gold.Chemscore.Internal.Correction>
   9.000000E+99

> <Gold.Chemscore.Hbonds>
donor molecule, donor type, donor heavy atom, donor atom, acceptor molecule, acceptor atom, score
      L1  H     9    29       P1  8028  0.97
      L1  H    12    30       P1  8028  0.75
      P1  H 10752 10764       L1     3  0.96

> <Gold.Chemscore.Hbond.Weighted>
-9.4597

> <Gold.Chemscore.Metal.Weighted>
-0.0000

> <Gold.Chemscore.Lipo.Weighted>
-7.3448

> <Gold.Chemscore.Internal_Hbond.Weighted>
0.0000

> <Gold.Chemscore.DEClash.Weighted>
0.2261

> <Gold.Chemscore.DEInternal.Weighted>
3.7194

> <Gold.Chemscore.Rot.Weighted>
2.5600

> <Gold.Chemscore.Internal.Correction.Weighted>
   9.000000E+99

> <Gold.Protein.RotatedTorsions>
[ 6907 6896 6895 6894 ] final -129.91 input  -60.11 | X-H torsion
[ 7974 7965 7964 7962 ] final -152.24 input  175.53 | X-H torsion
[ 8008 7997 7996 7995 ] final -165.71 input   59.86 | X-H torsion
[ 10167 10162 10161 10158 ] final   -4.69 input  -65.29 | X-H torsion
[ 10718 10713 10712 10709 ] final  141.05 input   66.30 | X-H torsion
[ 10763 10752 10751 10750 ] final  -19.37 input  -60.55 | X-H torsion
[ 11005 11000 10999 10996 ] final  -39.73 input  -57.11 | X-H torsion

> <Gold.Protein.ActiveResidues>
 VAL166  LYS551  ARG553  GLY616  TRP617  ASP618  TYR619  PRO620  LYS621  CYS622 
 ASP623  PHE694  ASN695  SER759  ASP760  ASP761  ALA762  ILE779  LEU786  VAL792 
 PHE793  MET794  SER795  GLU796  ALA797  LYS798  CYS799  TRP800  GLU811  SER814 

> <Gold.Protein.RotatedAtoms>
  150.9339  133.6734  159.2804 H   0  0  0  0  0  0  0  0  0  0  0  0  # atno 6907 bound_to 6896
  151.4146  135.0988  159.9605 H   0  0  0  0  0  0  0  0  0  0  0  0  # atno 6908 bound_to 6896
  152.5039  133.8805  159.7398 H   0  0  0  0  0  0  0  0  0  0  0  0  # atno 6909 bound_to 6896
  144.7805  140.4688  143.5843 H   0  0  0  0  0  0  0  0  0  0  0  0  # atno 7974 bound_to 7965
  155.8537  140.0967  157.1658 H   0  0  0  0  0  0  0  0  0  0  0  0  # atno 8008 bound_to 7997
  154.3986  140.1378  156.3937 H   0  0  0  0  0  0  0  0  0  0  0  0  # atno 8009 bound_to 7997
  155.7933  140.3455  155.5364 H   0  0  0  0  0  0  0  0  0  0  0  0  # atno 8010 bound_to 7997
  140.6936  143.6394  150.8449 H   0  0  0  0  0  0  0  0  0  0  0  0  # atno 10167 bound_to 10162
  157.3964  131.1011  151.0595 H   0  0  0  0  0  0  0  0  0  0  0  0  # atno 10718 bound_to 10713
  153.6038  135.6998  153.5374 H   0  0  0  0  0  0  0  0  0  0  0  0  # atno 10763 bound_to 10752
  153.3074  135.4111  155.1306 H   0  0  0  0  0  0  0  0  0  0  0  0  # atno 10764 bound_to 10752
  154.8577  135.3664  154.5574 H   0  0  0  0  0  0  0  0  0  0  0  0  # atno 10765 bound_to 10752
  141.0123  133.6902  156.2226 H   0  0  0  0  0  0  0  0  0  0  0  0  # atno 11005 bound_to 11000
  145.6064  139.1509  143.3100 LP  0  0  0  0  0  0  0  0  0  0  0  0  # atno 17320 bound_to 7965
  146.2010  140.6183  142.9102 LP  0  0  0  0  0  0  0  0  0  0  0  0  # atno 17321 bound_to 7965
  140.0110  143.5643  152.2839 LP  0  0  0  0  0  0  0  0  0  0  0  0  # atno 17342 bound_to 10162
  139.6366  144.7650  151.2424 LP  0  0  0  0  0  0  0  0  0  0  0  0  # atno 17343 bound_to 10162
  157.1610  130.6225  149.5611 LP  0  0  0  0  0  0  0  0  0  0  0  0  # atno 17370 bound_to 10713
  155.9811  130.4817  150.6812 LP  0  0  0  0  0  0  0  0  0  0  0  0  # atno 17371 bound_to 10713
  140.6713  134.4865  157.5587 LP  0  0  0  0  0  0  0  0  0  0  0  0  # atno 17394 bound_to 11000
  139.9097  134.8372  156.1574 LP  0  0  0  0  0  0  0  0  0  0  0  0  # atno 17395 bound_to 11000

$$$$
