AV-unprocessed.smi:1350|AV-procd|sdf|5522|dock7
  -GOLD-   22720 5113D 1   1.00000     0.00000
 Structure written by MMmdl.
 44 46  0  0  0  0  0  0  0  0  2 V2000
  146.8364  137.7145  163.3745 C   0  0  0  0  0  0  0  0  0  0  0  0
  147.2431  137.3250  162.0706 O   0  0  0  0  0  0  0  0  0  0  0  0
  147.3016  135.9783  161.7725 C   0  0  0  0  0  0  0  0  0  0  0  0
  146.8413  134.9670  162.6554 C   0  0  0  0  0  0  0  0  0  0  0  0
  146.9246  133.6079  162.2990 C   0  0  0  0  0  0  0  0  0  0  0  0
  147.4671  133.2371  161.0567 C   0  0  0  0  0  0  0  0  0  0  0  0
  147.9269  134.2287  160.1723 C   0  0  0  0  0  0  0  0  0  0  0  0
  147.8505  135.5931  160.5230 C   0  0  0  0  0  0  0  0  0  0  0  0
  148.3499  136.6230  159.5226 C   0  0  0  0  0  0  0  0  0  0  0  0
  149.7662  136.6316  159.4514 O   0  0  0  0  0  0  0  0  0  0  0  0
  150.2514  137.2151  158.2533 C   0  0  0  0  0  0  0  0  0  0  0  0
  150.3599  138.7343  158.4437 C   0  0  2  0  0  0  0  0  0  0  0  0
  149.0779  139.3049  158.2699 O   0  0  0  0  0  0  0  0  0  0  0  0
  151.3546  139.3829  157.4600 C   0  0  0  0  0  0  0  0  0  0  0  0
  151.0708  140.8038  157.2225 N   0  0  0  0  0  0  0  0  0  0  0  0
  150.2997  141.3978  156.2716 C   0  0  0  0  0  0  0  0  0  0  0  0
  150.3521  142.7427  156.4814 N   0  3  0  0  0  0  0  0  0  0  0  0
  151.1696  143.0115  157.5816 C   0  0  0  0  0  0  0  0  0  0  0  0
  151.5275  144.2156  158.1801 C   0  0  0  0  0  0  0  0  0  0  0  0
  152.3847  144.1363  159.2976 C   0  0  0  0  0  0  0  0  0  0  0  0
  152.8522  142.8958  159.7794 C   0  0  0  0  0  0  0  0  0  0  0  0
  152.4833  141.6812  159.1645 C   0  0  0  0  0  0  0  0  0  0  0  0
  151.6357  141.7692  158.0612 C   0  0  0  0  0  0  0  0  0  0  0  0
  146.8482  138.8021  163.4441 H   0  0  0  0  0  0  0  0  0  0  0  0
  147.5151  137.3291  164.1365 H   0  0  0  0  0  0  0  0  0  0  0  0
  145.8203  137.3825  163.5916 H   0  0  0  0  0  0  0  0  0  0  0  0
  146.4163  135.2072  163.6180 H   0  0  0  0  0  0  0  0  0  0  0  0
  146.5693  132.8492  162.9805 H   0  0  0  0  0  0  0  0  0  0  0  0
  147.5287  132.1946  160.7814 H   0  0  0  0  0  0  0  0  0  0  0  0
  148.3405  133.9393  159.2172 H   0  0  0  0  0  0  0  0  0  0  0  0
  147.9357  136.3712  158.5452 H   0  0  0  0  0  0  0  0  0  0  0  0
  147.9920  137.6230  159.7672 H   0  0  0  0  0  0  0  0  0  0  0  0
  151.2213  136.7920  157.9863 H   0  0  0  0  0  0  0  0  0  0  0  0
  149.5596  136.9906  157.4394 H   0  0  0  0  0  0  0  0  0  0  0  0
  150.6695  138.9385  159.4692 H   0  0  0  0  0  0  0  0  0  0  0  0
  148.7811  139.6357  159.1038 H   0  0  0  0  0  0  0  0  0  0  0  0
  152.3800  139.2933  157.8217 H   0  0  0  0  0  0  0  0  0  0  0  0
  151.3219  138.8749  156.4953 H   0  0  0  0  0  0  0  0  0  0  0  0
  149.7428  140.8936  155.4951 H   0  0  0  0  0  0  0  0  0  0  0  0
  151.1707  145.1671  157.8141 H   0  0  0  0  0  0  0  0  0  0  0  0
  152.6890  145.0454  159.7960 H   0  0  0  0  0  0  0  0  0  0  0  0
  153.5065  142.8750  160.6388 H   0  0  0  0  0  0  0  0  0  0  0  0
  152.8440  140.7352  159.5409 H   0  0  0  0  0  0  0  0  0  0  0  0
  149.8623  143.4241  155.9157 H   0  0  0  0  0  0  0  0  0  0  0  0
  1  2  1  0  0  0  0
  1 24  1  0  0  0  0
  1 25  1  0  0  0  0
  1 26  1  0  0  0  0
  2  3  1  0  0  0  0
  3  8  1  0  0  0  0
  3  4  2  0  0  0  0
  4  5  1  0  0  0  0
  4 27  1  0  0  0  0
  5  6  2  0  0  0  0
  5 28  1  0  0  0  0
  6  7  1  0  0  0  0
  6 29  1  0  0  0  0
  7  8  2  0  0  0  0
  7 30  1  0  0  0  0
  8  9  1  0  0  0  0
  9 10  1  0  0  0  0
  9 31  1  0  0  0  0
  9 32  1  0  0  0  0
 10 11  1  0  0  0  0
 11 12  1  0  0  0  0
 11 33  1  0  0  0  0
 11 34  1  0  0  0  0
 12 13  1  0  0  0  0
 12 14  1  0  0  0  0
 12 35  1  0  0  0  0
 13 36  1  0  0  0  0
 14 15  1  0  0  0  0
 14 37  1  0  0  0  0
 14 38  1  0  0  0  0
 15 23  1  0  0  0  0
 15 16  1  0  0  0  0
 16 17  2  0  0  0  0
 16 39  1  0  0  0  0
 17 18  1  0  0  0  0
 17 44  1  0  0  0  0
 18 23  2  0  0  0  0
 18 19  1  0  0  0  0
 19 20  2  0  0  0  0
 19 40  1  0  0  0  0
 20 21  1  0  0  0  0
 20 41  1  0  0  0  0
 21 22  2  0  0  0  0
 21 42  1  0  0  0  0
 22 23  1  0  0  0  0
 22 43  1  0  0  0  0
M  CHG  1  17   1
M  END
> <s_m_source_file>
AV-unprocessed.smi

> <i_m_source_file_index>
1350

> <i_lp_mmshare_version>
43012

> <i_f3d_flags>
0

> <s_epik_input>
W0NIM11PYzFbY0hdW2NIXVtjSF1bY0hdYzFbQ0gyXU9bQ0gyXVtDQEhdKFtPSF0pW0NIMl1uKFtjSF1uMiljKGMyMylbY0hdW2NIXVtjSF1bY0hdMw==

> <s_epik_cmdline>
J2VwaWtfcHl0aG9uJywgJy1waCcsICc3LjAnLCAnLXRuJywgJzgnLCAnLW1hJywgJzIwMCcsICctbWV0YWxfYmluZGluZycsICctaW1hZScsICc8aW5maWxlLm1hZT4nLCAnLW9tYWUnLCAnPG91dGZpbGUubWFlPic=

> <r_lp_tautomer_probability>
1

> <r_epik_Ionization_Penalty>
1.28975

> <r_epik_Ionization_Penalty_Charging>
1.28975

> <r_epik_Ionization_Penalty_Neutral>
1.07667e-06

> <r_epik_State_Penalty>
1.36276

> <r_epik_Charging_Adjusted_Penalty>
2.65251

> <i_epik_Tot_Q>
1

> <i_epik_Tot_abs_Q>
1

> <r_epik_Metal_State_Penalty>
5.39298

> <b_epik_Metal_Only>
0

> <s_lp_Force_Field>
OPLS_2005

> <r_lp_Energy>
23.7531

> <b_lp_Chiralities_Consistent>
1

> <s_lp_Variant>
AV-unprocessed.smi:1350-3

> <Gold.Version>
5.8.1

> <Gold.Id.Protein>
6NUR|6NUR_protein|mol2

> <Gold.PLP.Fitness>
64.2467

> <Gold.PLP.PLP>
-53.4137

> <Gold.PLP.part.hbond>
-4.2404

> <Gold.PLP.part.metal>
0.0000

> <Gold.PLP.part.buried>
-5.2231

> <Gold.PLP.part.nonpolar>
-44.3306

> <Gold.PLP.part.repulsive>
0.0738

> <Gold.PLP.ligand.clash>
0.0000

> <Gold.PLP.ligand.torsion>
1.3059

> <Gold.PLP.Chemscore.Hbond>
4.4240

> <Gold.PLP.Chemscore.CHOScore>
0.0000

> <Gold.PLP.Chemscore.Metal>
0.0000

> <Gold.Chemscore.Hbonds>
donor molecule, donor type, donor heavy atom, donor atom, acceptor molecule, acceptor atom, score
      L1  H    17    44       P1  8028  2.00
      P1  H  6896  6909       L1    10  0.93
      P1  H  6931  6943       L1     2  0.78
      P1  H  6934  6947       L1     2  0.70

> <Gold.PLP.Chemscore.Internal.Correction>
0.1727

> <Gold.Rescore>
     Score         DG    S(hbond)    S(metal)    S(lipo)     H(rot)  DE(clash)    DE(int)     intcor
     18.66     -20.32       1.87        0.00     133.35       2.74       0.09       1.57       ----

> <Gold.Chemscore.Fitness>
18.6555

> <Gold.Chemscore.DG>
-20.3171

> <Gold.Chemscore.ZeroCoef>
-5.4800

> <Gold.Chemscore.Hbond>
1.8705

> <Gold.Chemscore.Metal>
0.0000

> <Gold.Chemscore.Lipo>
133.3460

> <Gold.Chemscore.Internal_Hbond>
0.0000

> <Gold.Chemscore.DEClash>
0.0888

> <Gold.Chemscore.DEInternal>
1.5728

> <Gold.Chemscore.Rot>
2.7390

> <Gold.Chemscore.Internal.Correction>
   9.000000E+99

> <Gold.Chemscore.Hbonds>
donor molecule, donor type, donor heavy atom, donor atom, acceptor molecule, acceptor atom, score
      L1  H    17    44       P1  8028  0.98
      P1  H  6896  6909       L1    10  0.49
      P1  H  6931  6943       L1     2  0.20
      P1  H  6934  6947       L1     2  0.32

> <Gold.Chemscore.Hbond.Weighted>
-6.2474

> <Gold.Chemscore.Metal.Weighted>
-0.0000

> <Gold.Chemscore.Lipo.Weighted>
-15.6015

> <Gold.Chemscore.Internal_Hbond.Weighted>
0.0000

> <Gold.Chemscore.DEClash.Weighted>
0.0888

> <Gold.Chemscore.DEInternal.Weighted>
1.5728

> <Gold.Chemscore.Rot.Weighted>
7.0118

> <Gold.Chemscore.Internal.Correction.Weighted>
   9.000000E+99

> <Gold.Protein.RotatedTorsions>
[ 6907 6896 6895 6894 ] final   78.47 input  -60.11 | X-H torsion
[ 7974 7965 7964 7962 ] final   74.37 input  175.53 | X-H torsion
[ 8008 7997 7996 7995 ] final -150.21 input   59.86 | X-H torsion
[ 10167 10162 10161 10158 ] final  -33.14 input  -65.29 | X-H torsion
[ 10718 10713 10712 10709 ] final   23.90 input   66.30 | X-H torsion
[ 10763 10752 10751 10750 ] final  -86.76 input  -60.55 | X-H torsion
[ 11005 11000 10999 10996 ] final   94.92 input  -57.11 | X-H torsion

> <Gold.Protein.ActiveResidues>
 VAL166  LYS551  ARG553  GLY616  TRP617  ASP618  TYR619  PRO620  LYS621  CYS622 
 ASP623  PHE694  ASN695  SER759  ASP760  ASP761  ALA762  ILE779  LEU786  VAL792 
 PHE793  MET794  SER795  GLU796  ALA797  LYS798  CYS799  TRP800  GLU811  SER814 

> <Gold.Protein.RotatedAtoms>
  152.5161  134.3659  159.9300 H   0  0  0  0  0  0  0  0  0  0  0  0  # atno 6907 bound_to 6896
  151.3612  133.3882  159.2697 H   0  0  0  0  0  0  0  0  0  0  0  0  # atno 6908 bound_to 6896
  150.9650  134.9051  159.7812 H   0  0  0  0  0  0  0  0  0  0  0  0  # atno 6909 bound_to 6896
  145.7292  139.2677  143.1551 H   0  0  0  0  0  0  0  0  0  0  0  0  # atno 7974 bound_to 7965
  155.6200  140.0680  157.2681 H   0  0  0  0  0  0  0  0  0  0  0  0  # atno 8008 bound_to 7997
  154.4231  140.1786  156.1410 H   0  0  0  0  0  0  0  0  0  0  0  0  # atno 8009 bound_to 7997
  156.0017  140.3335  155.6855 H   0  0  0  0  0  0  0  0  0  0  0  0  # atno 8010 bound_to 7997
  140.7209  143.3642  151.1903 H   0  0  0  0  0  0  0  0  0  0  0  0  # atno 10167 bound_to 10162
  157.1724  130.6766  149.6083 H   0  0  0  0  0  0  0  0  0  0  0  0  # atno 10718 bound_to 10713
  154.6261  135.5437  153.7628 H   0  0  0  0  0  0  0  0  0  0  0  0  # atno 10763 bound_to 10752
  153.0261  135.6424  154.1370 H   0  0  0  0  0  0  0  0  0  0  0  0  # atno 10764 bound_to 10752
  154.1302  135.2915  155.3167 H   0  0  0  0  0  0  0  0  0  0  0  0  # atno 10765 bound_to 10752
  139.8794  134.8871  156.3935 H   0  0  0  0  0  0  0  0  0  0  0  0  # atno 11005 bound_to 11000
  146.0554  140.8026  142.9761 LP  0  0  0  0  0  0  0  0  0  0  0  0  # atno 17320 bound_to 7965
  144.6897  140.3115  143.7247 LP  0  0  0  0  0  0  0  0  0  0  0  0  # atno 17321 bound_to 7965
  139.7201  143.9238  152.2982 LP  0  0  0  0  0  0  0  0  0  0  0  0  # atno 17342 bound_to 10162
  139.8992  144.6922  150.8684 LP  0  0  0  0  0  0  0  0  0  0  0  0  # atno 17343 bound_to 10162
  155.9736  130.4674  150.6324 LP  0  0  0  0  0  0  0  0  0  0  0  0  # atno 17370 bound_to 10713
  157.4030  131.0812  151.1291 LP  0  0  0  0  0  0  0  0  0  0  0  0  # atno 17371 bound_to 10713
  140.9316  133.7575  156.0032 LP  0  0  0  0  0  0  0  0  0  0  0  0  # atno 17394 bound_to 11000
  140.8323  134.3163  157.5344 LP  0  0  0  0  0  0  0  0  0  0  0  0  # atno 17395 bound_to 11000

$$$$
