AV-unprocessed.smi:2089|AV-procd|sdf|8531|dock9
  -GOLD-   2272011253D 1   1.00000     0.00000
 Structure written by MMmdl.
 40 41  0  0  0  0  0  0  0  0  2 V2000
  152.4177  137.8941  156.7118 C   0  0  0  0  0  0  0  0  0  0  0  0
  151.9903  138.5341  155.0413 S   0  0  0  0  0  0  0  0  0  0  0  0
  152.8259  139.7070  154.7423 O   0  0  0  0  0  0  0  0  0  0  0  0
  151.9643  137.3964  154.1092 O   0  0  0  0  0  0  0  0  0  0  0  0
  150.3612  139.0860  155.2495 N   0  0  0  0  0  0  0  0  0  0  0  0
  150.1043  140.5326  155.2140 C   0  0  0  0  0  0  0  0  0  0  0  0
  149.0259  140.7336  154.1537 C   0  0  0  0  0  0  0  0  0  0  0  0
  148.2232  139.4444  154.2322 C   0  0  0  0  0  0  0  0  0  0  0  0
  149.2885  138.3770  154.5304 C   0  0  2  0  0  0  0  0  0  0  0  0
  148.7290  137.1728  155.2973 C   0  0  0  0  0  0  0  0  0  0  0  0
  148.3225  137.3031  156.4523 O   0  0  0  0  0  0  0  0  0  0  0  0
  148.7384  135.9966  154.6539 N   0  0  0  0  0  0  0  0  0  0  0  0
  148.3003  134.7386  155.2407 C   0  0  0  0  0  0  0  0  0  0  0  0
  148.5843  133.5673  154.2910 C   0  0  0  0  0  0  0  0  0  0  0  0
  147.4021  133.2618  153.3914 C   0  0  0  0  0  0  0  0  0  0  0  0
  146.7327  132.0189  153.4243 C   0  0  0  0  0  0  0  0  0  0  0  0
  145.6457  131.7990  152.5527 C   0  0  0  0  0  0  0  0  0  0  0  0
  145.2528  132.8233  151.6665 C   0  0  0  0  0  0  0  0  0  0  0  0
  145.9577  134.0441  151.6744 C   0  0  0  0  0  0  0  0  0  0  0  0
  146.9934  134.2169  152.5248 N   0  3  0  0  0  0  0  0  0  0  0  0
  153.4306  137.4924  156.6973 H   0  0  0  0  0  0  0  0  0  0  0  0
  151.7197  137.1041  156.9874 H   0  0  0  0  0  0  0  0  0  0  0  0
  152.3609  138.7000  157.4428 H   0  0  0  0  0  0  0  0  0  0  0  0
  149.7453  140.8469  156.1946 H   0  0  0  0  0  0  0  0  0  0  0  0
  151.0070  141.1000  154.9859 H   0  0  0  0  0  0  0  0  0  0  0  0
  148.4200  141.6229  154.3282 H   0  0  0  0  0  0  0  0  0  0  0  0
  149.4862  140.8254  153.1688 H   0  0  0  0  0  0  0  0  0  0  0  0
  147.4902  139.5200  155.0372 H   0  0  0  0  0  0  0  0  0  0  0  0
  147.6820  139.2433  153.3072 H   0  0  0  0  0  0  0  0  0  0  0  0
  149.6980  138.0396  153.5761 H   0  0  0  0  0  0  0  0  0  0  0  0
  149.0983  135.9699  153.7107 H   0  0  0  0  0  0  0  0  0  0  0  0
  148.8194  134.5885  156.1886 H   0  0  0  0  0  0  0  0  0  0  0  0
  147.2328  134.7915  155.4610 H   0  0  0  0  0  0  0  0  0  0  0  0
  149.4557  133.7896  153.6732 H   0  0  0  0  0  0  0  0  0  0  0  0
  148.8321  132.6718  154.8630 H   0  0  0  0  0  0  0  0  0  0  0  0
  147.0473  131.2419  154.1060 H   0  0  0  0  0  0  0  0  0  0  0  0
  145.1201  130.8553  152.5628 H   0  0  0  0  0  0  0  0  0  0  0  0
  144.4235  132.6741  150.9903 H   0  0  0  0  0  0  0  0  0  0  0  0
  145.7266  134.8806  151.0308 H   0  0  0  0  0  0  0  0  0  0  0  0
  147.4905  135.1082  152.5127 H   0  0  0  0  0  0  0  0  0  0  0  0
  1  2  1  0  0  0  0
  1 21  1  0  0  0  0
  1 22  1  0  0  0  0
  1 23  1  0  0  0  0
  2  3  2  0  0  0  0
  2  4  2  0  0  0  0
  2  5  1  0  0  0  0
  5  9  1  0  0  0  0
  5  6  1  0  0  0  0
  6  7  1  0  0  0  0
  6 24  1  0  0  0  0
  6 25  1  0  0  0  0
  7  8  1  0  0  0  0
  7 26  1  0  0  0  0
  7 27  1  0  0  0  0
  8  9  1  0  0  0  0
  8 28  1  0  0  0  0
  8 29  1  0  0  0  0
  9 10  1  0  0  0  0
  9 30  1  0  0  0  0
 10 11  2  0  0  0  0
 10 12  1  0  0  0  0
 12 13  1  0  0  0  0
 12 31  1  0  0  0  0
 13 14  1  0  0  0  0
 13 32  1  0  0  0  0
 13 33  1  0  0  0  0
 14 15  1  0  0  0  0
 14 34  1  0  0  0  0
 14 35  1  0  0  0  0
 15 20  1  0  0  0  0
 15 16  2  0  0  0  0
 16 17  1  0  0  0  0
 16 36  1  0  0  0  0
 17 18  2  0  0  0  0
 17 37  1  0  0  0  0
 18 19  1  0  0  0  0
 18 38  1  0  0  0  0
 19 20  2  0  0  0  0
 19 39  1  0  0  0  0
 20 40  1  0  0  0  0
M  CHG  1  20   1
M  END
> <s_m_source_file>
AV-unprocessed.smi

> <i_m_source_file_index>
2089

> <i_lp_mmshare_version>
43012

> <i_f3d_flags>
0

> <s_epik_input>
W0NIM11TKD1PKSg9TylOMVtDSDJdW0NIMl1bQ0gyXVtDQEhdMUMoPU8pW05IXVtDSDJdW0NIMl1jMltjSF1bY0hdW2NIXVtjSF1uMg==

> <s_epik_cmdline>
J2VwaWtfcHl0aG9uJywgJy1waCcsICc3LjAnLCAnLXRuJywgJzgnLCAnLW1hJywgJzIwMCcsICctbWV0YWxfYmluZGluZycsICctaW1hZScsICc8aW5maWxlLm1hZT4nLCAnLW9tYWUnLCAnPG91dGZpbGUubWFlPic=

> <r_epik_Ionization_Penalty>
1.90116

> <r_epik_Ionization_Penalty_Charging>
1.90116

> <r_epik_Ionization_Penalty_Neutral>
1.4017e-07

> <r_epik_State_Penalty>
2.02245

> <r_epik_Charging_Adjusted_Penalty>
3.9236

> <i_epik_Tot_Q>
1

> <i_epik_Tot_abs_Q>
1

> <r_epik_Metal_State_Penalty>
2.04621

> <b_epik_Metal_Only>
0

> <s_lp_Force_Field>
OPLS_2005

> <r_lp_Energy>
13.4041

> <b_lp_Chiralities_Consistent>
1

> <s_lp_Variant>
AV-unprocessed.smi:2089-4

> <Gold.Version>
5.8.1

> <Gold.Id.Protein>
6NUR|6NUR_protein|mol2

> <Gold.PLP.Fitness>
47.0058

> <Gold.PLP.PLP>
-32.3026

> <Gold.PLP.part.hbond>
-5.0000

> <Gold.PLP.part.metal>
0.0000

> <Gold.PLP.part.buried>
-4.2066

> <Gold.PLP.part.nonpolar>
-24.8340

> <Gold.PLP.part.repulsive>
0.2928

> <Gold.PLP.ligand.clash>
0.0000

> <Gold.PLP.ligand.torsion>
0.5340

> <Gold.PLP.Chemscore.Hbond>
5.0942

> <Gold.PLP.Chemscore.CHOScore>
0.0000

> <Gold.PLP.Chemscore.Metal>
0.0000

> <Gold.Chemscore.Hbonds>
donor molecule, donor type, donor heavy atom, donor atom, acceptor molecule, acceptor atom, score
      L1  H    12    31       P1  7948  1.00
      L1  H    20    40       P1  7948  1.95
      P1  H  7989  7998       L1     3  0.44
      P1  H  7997  8008       L1     3  0.78
      P1  H 10752 10764       L1     4  0.85

> <Gold.PLP.Chemscore.Internal.Correction>
0.4886

> <Gold.Rescore>
     Score         DG    S(hbond)    S(metal)    S(lipo)     H(rot)  DE(clash)    DE(int)     intcor
     18.76     -19.58       3.63        0.00      60.69       2.00       0.00       0.82       ----

> <Gold.Chemscore.Fitness>
18.7595

> <Gold.Chemscore.DG>
-19.5847

> <Gold.Chemscore.ZeroCoef>
-5.4800

> <Gold.Chemscore.Hbond>
3.6333

> <Gold.Chemscore.Metal>
0.0000

> <Gold.Chemscore.Lipo>
60.6882

> <Gold.Chemscore.Internal_Hbond>
0.0000

> <Gold.Chemscore.DEClash>
0.0015

> <Gold.Chemscore.DEInternal>
0.8238

> <Gold.Chemscore.Rot>
2.0043

> <Gold.Chemscore.Internal.Correction>
   9.000000E+99

> <Gold.Chemscore.Hbonds>
donor molecule, donor type, donor heavy atom, donor atom, acceptor molecule, acceptor atom, score
      L1  H    12    31       P1  7948  0.88
      L1  H    20    40       P1  7948  0.93
      P1  H  7989  7998       L1     3  0.20
      P1  H  7997  8008       L1     3  0.71
      P1  H 10752 10764       L1     4  0.77

> <Gold.Chemscore.Hbond.Weighted>
-12.1351

> <Gold.Chemscore.Metal.Weighted>
-0.0000

> <Gold.Chemscore.Lipo.Weighted>
-7.1005

> <Gold.Chemscore.Internal_Hbond.Weighted>
0.0000

> <Gold.Chemscore.DEClash.Weighted>
0.0015

> <Gold.Chemscore.DEInternal.Weighted>
0.8238

> <Gold.Chemscore.Rot.Weighted>
5.1309

> <Gold.Chemscore.Internal.Correction.Weighted>
   9.000000E+99

> <Gold.Protein.RotatedTorsions>
[ 6907 6896 6895 6894 ] final  134.22 input  -60.11 | X-H torsion
[ 7974 7965 7964 7962 ] final -166.02 input  175.53 | X-H torsion
[ 8008 7997 7996 7995 ] final  -31.86 input   59.86 | X-H torsion
[ 10167 10162 10161 10158 ] final   47.68 input  -65.29 | X-H torsion
[ 10718 10713 10712 10709 ] final   85.13 input   66.30 | X-H torsion
[ 10763 10752 10751 10750 ] final  -68.92 input  -60.55 | X-H torsion
[ 11005 11000 10999 10996 ] final -139.56 input  -57.11 | X-H torsion

> <Gold.Protein.ActiveResidues>
 VAL166  LYS551  ARG553  GLY616  TRP617  ASP618  TYR619  PRO620  LYS621  CYS622 
 ASP623  PHE694  ASN695  SER759  ASP760  ASP761  ALA762  ILE779  LEU786  VAL792 
 PHE793  MET794  SER795  GLU796  ALA797  LYS798  CYS799  TRP800  GLU811  SER814 

> <Gold.Protein.RotatedAtoms>
  152.3136  133.5778  159.5696 H   0  0  0  0  0  0  0  0  0  0  0  0  # atno 6907 bound_to 6896
  150.7335  134.0116  159.3680 H   0  0  0  0  0  0  0  0  0  0  0  0  # atno 6908 bound_to 6896
  151.8006  135.0710  160.0451 H   0  0  0  0  0  0  0  0  0  0  0  0  # atno 6909 bound_to 6896
  144.7255  140.2728  143.6248 H   0  0  0  0  0  0  0  0  0  0  0  0  # atno 7974 bound_to 7965
  154.4199  140.1753  156.1634 H   0  0  0  0  0  0  0  0  0  0  0  0  # atno 8008 bound_to 7997
  155.9820  140.3376  155.6647 H   0  0  0  0  0  0  0  0  0  0  0  0  # atno 8009 bound_to 7997
  155.6488  140.0688  157.2585 H   0  0  0  0  0  0  0  0  0  0  0  0  # atno 8010 bound_to 7997
  140.3012  144.2932  150.6219 H   0  0  0  0  0  0  0  0  0  0  0  0  # atno 10167 bound_to 10162
  157.6910  131.0162  150.2777 H   0  0  0  0  0  0  0  0  0  0  0  0  # atno 10718 bound_to 10713
  154.3960  135.6042  153.5870 H   0  0  0  0  0  0  0  0  0  0  0  0  # atno 10763 bound_to 10752
  152.9787  135.5895  154.4241 H   0  0  0  0  0  0  0  0  0  0  0  0  # atno 10764 bound_to 10752
  154.4033  135.2843  155.2061 H   0  0  0  0  0  0  0  0  0  0  0  0  # atno 10765 bound_to 10752
  140.8507  134.2289  157.4761 H   0  0  0  0  0  0  0  0  0  0  0  0  # atno 11005 bound_to 11000
  145.8026  139.1970  143.2039 LP  0  0  0  0  0  0  0  0  0  0  0  0  # atno 17320 bound_to 7965
  146.0663  140.7916  142.9710 LP  0  0  0  0  0  0  0  0  0  0  0  0  # atno 17321 bound_to 7965
  140.5650  143.2187  151.7700 LP  0  0  0  0  0  0  0  0  0  0  0  0  # atno 17342 bound_to 10162
  139.4915  144.4297  151.9886 LP  0  0  0  0  0  0  0  0  0  0  0  0  # atno 17343 bound_to 10162
  156.3329  130.3803  149.7475 LP  0  0  0  0  0  0  0  0  0  0  0  0  # atno 17370 bound_to 10713
  156.5009  130.8128  151.3132 LP  0  0  0  0  0  0  0  0  0  0  0  0  # atno 17371 bound_to 10713
  139.8704  134.9682  156.4623 LP  0  0  0  0  0  0  0  0  0  0  0  0  # atno 17394 bound_to 11000
  140.8793  133.7930  155.9449 LP  0  0  0  0  0  0  0  0  0  0  0  0  # atno 17395 bound_to 11000

$$$$
