AV-unprocessed.smi:3005|AV-procd|sdf|11443|dock9
  -GOLD-   2272016373D 1   1.00000     0.00000
 Structure written by MMmdl.
 33 34  0  0  0  0  0  0  0  0  1 V2000
  146.9971  141.7894  154.1199 C   0  0  0  0  0  0  0  0  0  0  0  0
  148.0626  140.7602  154.3440 C   0  0  0  0  0  0  0  0  0  0  0  0
  149.2607  141.1322  154.9599 N   0  0  0  0  0  0  0  0  0  0  0  0
  150.1103  140.1112  155.0965 C   0  0  0  0  0  0  0  0  0  0  0  0
  151.7135  140.1881  155.8260 S   0  0  0  0  0  0  0  0  0  0  0  0
  151.2580  140.5311  157.5508 C   0  0  0  0  0  0  0  0  0  0  0  0
  152.4895  140.6527  158.4528 C   0  0  0  0  0  0  0  0  0  0  0  0
  153.2541  139.6966  158.5821 O   0  0  0  0  0  0  0  0  0  0  0  0
  152.7388  141.8839  159.0664 N   0  0  0  0  0  0  0  0  0  0  0  0
  153.1760  141.9728  160.4517 C   0  0  0  0  0  0  0  0  0  0  0  0
  152.4476  143.3202  160.4824 C   0  0  0  0  0  0  0  0  0  0  0  0
  151.6767  142.8643  159.2396 C   0  0  0  0  0  0  0  0  0  0  0  0
  149.4802  138.6004  154.4591 S   0  0  0  0  0  0  0  0  0  0  0  0
  148.0096  139.4268  154.0088 C   0  0  0  0  0  0  0  0  0  0  0  0
  146.8900  138.6863  153.3461 C   0  0  0  0  0  0  0  0  0  0  0  0
  146.8229  139.0098  151.8519 C   0  0  0  0  0  0  0  0  0  0  0  0
  146.7949  140.2999  151.5082 N   0  0  0  0  0  0  0  0  0  0  0  0
  146.7926  138.1076  151.0172 O   0  0  0  0  0  0  0  0  0  0  0  0
  146.0869  141.5355  154.6634 H   0  0  0  0  0  0  0  0  0  0  0  0
  146.7413  141.8659  153.0630 H   0  0  0  0  0  0  0  0  0  0  0  0
  147.3130  142.7783  154.4534 H   0  0  0  0  0  0  0  0  0  0  0  0
  150.7035  141.4690  157.5951 H   0  0  0  0  0  0  0  0  0  0  0  0
  150.5864  139.7457  157.8956 H   0  0  0  0  0  0  0  0  0  0  0  0
  152.7214  141.2219  161.1012 H   0  0  0  0  0  0  0  0  0  0  0  0
  154.2577  142.0396  160.5744 H   0  0  0  0  0  0  0  0  0  0  0  0
  151.8257  143.4730  161.3649 H   0  0  0  0  0  0  0  0  0  0  0  0
  153.1045  144.1717  160.2959 H   0  0  0  0  0  0  0  0  0  0  0  0
  151.6221  143.6042  158.4405 H   0  0  0  0  0  0  0  0  0  0  0  0
  150.7051  142.4248  159.4751 H   0  0  0  0  0  0  0  0  0  0  0  0
  147.0109  137.6127  153.4976 H   0  0  0  0  0  0  0  0  0  0  0  0
  145.9376  138.9560  153.8039 H   0  0  0  0  0  0  0  0  0  0  0  0
  146.7510  140.5630  150.5345 H   0  0  0  0  0  0  0  0  0  0  0  0
  146.8182  141.0091  152.2266 H   0  0  0  0  0  0  0  0  0  0  0  0
  1  2  1  0  0  0  0
  1 19  1  0  0  0  0
  1 20  1  0  0  0  0
  1 21  1  0  0  0  0
  2 14  2  0  0  0  0
  2  3  1  0  0  0  0
  3  4  2  0  0  0  0
  4  5  1  0  0  0  0
  4 13  1  0  0  0  0
  5  6  1  0  0  0  0
  6  7  1  0  0  0  0
  6 22  1  0  0  0  0
  6 23  1  0  0  0  0
  7  8  2  0  0  0  0
  7  9  1  0  0  0  0
  9 12  1  0  0  0  0
  9 10  1  0  0  0  0
 10 11  1  0  0  0  0
 10 24  1  0  0  0  0
 10 25  1  0  0  0  0
 11 12  1  0  0  0  0
 11 26  1  0  0  0  0
 11 27  1  0  0  0  0
 12 28  1  0  0  0  0
 12 29  1  0  0  0  0
 13 14  1  0  0  0  0
 14 15  1  0  0  0  0
 15 16  1  0  0  0  0
 15 30  1  0  0  0  0
 15 31  1  0  0  0  0
 16 17  1  0  0  0  0
 16 18  2  0  0  0  0
 17 32  1  0  0  0  0
 17 33  1  0  0  0  0
M  END
> <s_m_source_file>
AV-unprocessed.smi

> <i_m_source_file_index>
3005

> <i_lp_mmshare_version>
43012

> <i_f3d_flags>
0

> <s_epik_input>
W05IMl1DKD1PKVtDSDJdYzFzYyhuYzFbQ0gzXSlTW0NIMl1DKD1PKU4yW0NIMl1bQ0gyXVtDSDJdMg==

> <s_epik_cmdline>
J2VwaWtfcHl0aG9uJywgJy1waCcsICc3LjAnLCAnLXRuJywgJzgnLCAnLW1hJywgJzIwMCcsICctbWV0YWxfYmluZGluZycsICctaW1hZScsICc8aW5maWxlLm1hZT4nLCAnLW9tYWUnLCAnPG91dGZpbGUubWFlPic=

> <r_lp_tautomer_probability>
1

> <r_epik_Ionization_Penalty>
8.1701e-07

> <r_epik_Ionization_Penalty_Charging>
0

> <r_epik_Ionization_Penalty_Neutral>
8.1701e-07

> <r_epik_State_Penalty>
-0

> <r_epik_Charging_Adjusted_Penalty>
0

> <i_epik_Tot_Q>
0

> <i_epik_Tot_abs_Q>
0

> <r_epik_Metal_State_Penalty>
-0

> <b_epik_Metal_Only>
0

> <s_lp_Force_Field>
OPLS_2005

> <r_lp_Energy>
11.7673

> <b_lp_Chiralities_Consistent>
1

> <s_lp_Variant>
AV-unprocessed.smi:3005-1

> <Gold.Version>
5.8.1

> <Gold.Id.Protein>
6NUR|6NUR_protein|mol2

> <Gold.PLP.Fitness>
44.7065

> <Gold.PLP.PLP>
-39.3072

> <Gold.PLP.part.hbond>
-3.2628

> <Gold.PLP.part.metal>
0.0000

> <Gold.PLP.part.buried>
-2.2709

> <Gold.PLP.part.nonpolar>
-34.4402

> <Gold.PLP.part.repulsive>
1.9603

> <Gold.PLP.ligand.clash>
0.0000

> <Gold.PLP.ligand.torsion>
0.7469

> <Gold.PLP.Chemscore.Hbond>
2.0000

> <Gold.PLP.Chemscore.CHOScore>
0.0000

> <Gold.PLP.Chemscore.Metal>
0.0000

> <Gold.Chemscore.Hbonds>
donor molecule, donor type, donor heavy atom, donor atom, acceptor molecule, acceptor atom, score
      P1  H  7954  7966       L1    18  1.00
      P1  H  7997  8008       L1     8  0.89

> <Gold.PLP.Chemscore.Internal.Correction>
0.8932

> <Gold.Rescore>
     Score         DG    S(hbond)    S(metal)    S(lipo)     H(rot)  DE(clash)    DE(int)     intcor
     12.81     -15.14       1.90        0.00      81.17       2.41       1.49       0.85       ----

> <Gold.Chemscore.Fitness>
12.8099

> <Gold.Chemscore.DG>
-15.1426

> <Gold.Chemscore.ZeroCoef>
-5.4800

> <Gold.Chemscore.Hbond>
1.9006

> <Gold.Chemscore.Metal>
0.0000

> <Gold.Chemscore.Lipo>
81.1703

> <Gold.Chemscore.Internal_Hbond>
0.0000

> <Gold.Chemscore.DEClash>
1.4869

> <Gold.Chemscore.DEInternal>
0.8458

> <Gold.Chemscore.Rot>
2.4149

> <Gold.Chemscore.Internal.Correction>
   9.000000E+99

> <Gold.Chemscore.Hbonds>
donor molecule, donor type, donor heavy atom, donor atom, acceptor molecule, acceptor atom, score
      P1  H  7954  7966       L1    18  0.97
      P1  H  7997  8008       L1     8  0.30

> <Gold.Chemscore.Hbond.Weighted>
-6.3479

> <Gold.Chemscore.Metal.Weighted>
-0.0000

> <Gold.Chemscore.Lipo.Weighted>
-9.4969

> <Gold.Chemscore.Internal_Hbond.Weighted>
0.0000

> <Gold.Chemscore.DEClash.Weighted>
1.4869

> <Gold.Chemscore.DEInternal.Weighted>
0.8458

> <Gold.Chemscore.Rot.Weighted>
6.1822

> <Gold.Chemscore.Internal.Correction.Weighted>
   9.000000E+99

> <Gold.Protein.RotatedTorsions>
[ 6907 6896 6895 6894 ] final   15.94 input  -60.11 | X-H torsion
[ 7974 7965 7964 7962 ] final -179.22 input  175.53 | X-H torsion
[ 8008 7997 7996 7995 ] final  -89.40 input   59.86 | X-H torsion
[ 10167 10162 10161 10158 ] final   62.21 input  -65.29 | X-H torsion
[ 10718 10713 10712 10709 ] final   99.20 input   66.30 | X-H torsion
[ 10763 10752 10751 10750 ] final   41.48 input  -60.55 | X-H torsion
[ 11005 11000 10999 10996 ] final  101.24 input  -57.11 | X-H torsion

> <Gold.Protein.ActiveResidues>
 VAL166  LYS551  ARG553  GLY616  TRP617  ASP618  TYR619  PRO620  LYS621  CYS622 
 ASP623  PHE694  ASN695  SER759  ASP760  ASP761  ALA762  ILE779  LEU786  VAL792 
 PHE793  MET794  SER795  GLU796  ALA797  LYS798  CYS799  TRP800  GLU811  SER814 

> <Gold.Protein.RotatedAtoms>
  151.8260  135.0637  160.0430 H   0  0  0  0  0  0  0  0  0  0  0  0  # atno 6907 bound_to 6896
  152.2916  133.5562  159.5569 H   0  0  0  0  0  0  0  0  0  0  0  0  # atno 6908 bound_to 6896
  150.7232  134.0337  159.3784 H   0  0  0  0  0  0  0  0  0  0  0  0  # atno 6909 bound_to 6896
  144.7135  140.0751  143.6428 H   0  0  0  0  0  0  0  0  0  0  0  0  # atno 7974 bound_to 7965
  154.6862  140.0542  157.0317 H   0  0  0  0  0  0  0  0  0  0  0  0  # atno 8008 bound_to 7997
  155.0881  140.3216  155.4563 H   0  0  0  0  0  0  0  0  0  0  0  0  # atno 8009 bound_to 7997
  156.2712  140.2053  156.6008 H   0  0  0  0  0  0  0  0  0  0  0  0  # atno 8010 bound_to 7997
  140.1464  144.4504  150.6783 H   0  0  0  0  0  0  0  0  0  0  0  0  # atno 10167 bound_to 10162
  157.6881  131.0663  150.4912 H   0  0  0  0  0  0  0  0  0  0  0  0  # atno 10718 bound_to 10713
  152.9907  135.6160  154.2795 H   0  0  0  0  0  0  0  0  0  0  0  0  # atno 10763 bound_to 10752
  154.2524  135.2785  155.2813 H   0  0  0  0  0  0  0  0  0  0  0  0  # atno 10764 bound_to 10752
  154.5276  135.5797  153.6790 H   0  0  0  0  0  0  0  0  0  0  0  0  # atno 10765 bound_to 10752
  139.8773  134.9174  156.4876 H   0  0  0  0  0  0  0  0  0  0  0  0  # atno 11005 bound_to 11000
  145.9750  139.2898  143.1076 LP  0  0  0  0  0  0  0  0  0  0  0  0  # atno 17320 bound_to 7965
  145.9074  140.9202  143.0471 LP  0  0  0  0  0  0  0  0  0  0  0  0  # atno 17321 bound_to 7965
  140.6729  143.2293  151.5580 LP  0  0  0  0  0  0  0  0  0  0  0  0  # atno 17342 bound_to 10162
  139.5447  144.2553  152.1419 LP  0  0  0  0  0  0  0  0  0  0  0  0  # atno 17343 bound_to 10162
  156.5239  130.4168  149.6236 LP  0  0  0  0  0  0  0  0  0  0  0  0  # atno 17370 bound_to 10713
  156.3130  130.7239  151.2135 LP  0  0  0  0  0  0  0  0  0  0  0  0  # atno 17371 bound_to 10713
  140.8682  133.8008  155.9336 LP  0  0  0  0  0  0  0  0  0  0  0  0  # atno 17394 bound_to 11000
  140.8980  134.2413  157.5057 LP  0  0  0  0  0  0  0  0  0  0  0  0  # atno 17395 bound_to 11000

$$$$
