AV-unprocessed.smi:1839|AV-procd|sdf|7487|dock3
  -GOLD-   22720 9183D 1   1.00000     0.00000
 Structure written by MMmdl.
 47 48  0  0  0  0  0  0  0  0  2 V2000
  152.1469  144.8843  160.6865 C   0  0  0  0  0  0  0  0  0  0  0  0
  151.7365  144.0914  159.5273 N   0  0  0  0  0  0  0  0  0  0  0  0
  151.4119  144.8896  158.3388 C   0  0  0  0  0  0  0  0  0  0  0  0
  151.9478  142.7516  159.5050 C   0  0  0  0  0  0  0  0  0  0  0  0
  152.7539  142.2051  160.2605 O   0  0  0  0  0  0  0  0  0  0  0  0
  151.2496  142.0533  158.5783 N   0  0  0  0  0  0  0  0  0  0  0  0
  149.8283  142.3027  158.2972 C   0  0  0  0  0  0  0  0  0  0  0  0
  149.5812  142.2251  156.7807 C   0  0  0  0  0  0  0  0  0  0  0  0
  150.0536  140.8736  156.2177 C   0  0  0  0  0  0  0  0  0  0  0  0
  151.5076  140.5655  156.6392 C   0  0  2  0  0  0  0  0  0  0  0  0
  151.9389  139.1685  156.1749 C   0  0  0  0  0  0  0  0  0  0  0  0
  152.8773  139.0361  155.3886 O   0  0  0  0  0  0  0  0  0  0  0  0
  151.2393  138.1323  156.6628 N   0  0  0  0  0  0  0  0  0  0  0  0
  151.4786  136.7331  156.3310 C   0  0  0  0  0  0  0  0  0  0  0  0
  150.8281  136.3483  154.9910 C   0  0  0  0  0  0  0  0  0  0  0  0
  150.4620  134.8784  154.9336 C   0  0  0  0  0  0  0  0  0  0  0  0
  150.9957  133.9372  155.8402 C   0  0  0  0  0  0  0  0  0  0  0  0
  150.6054  132.5854  155.7392 C   0  0  0  0  0  0  0  0  0  0  0  0
  149.6905  132.2043  154.7356 C   0  0  0  0  0  0  0  0  0  0  0  0
  149.1876  133.1864  153.8578 C   0  0  0  0  0  0  0  0  0  0  0  0
  149.5853  134.4714  153.9873 N   0  3  0  0  0  0  0  0  0  0  0  0
  151.6610  140.7052  158.1701 C   0  0  0  0  0  0  0  0  0  0  0  0
  151.9383  144.3636  161.6228 H   0  0  0  0  0  0  0  0  0  0  0  0
  151.6128  145.8346  160.7228 H   0  0  0  0  0  0  0  0  0  0  0  0
  153.2160  145.0960  160.6433 H   0  0  0  0  0  0  0  0  0  0  0  0
  151.7301  144.4040  157.4150 H   0  0  0  0  0  0  0  0  0  0  0  0
  151.9109  145.8592  158.3671 H   0  0  0  0  0  0  0  0  0  0  0  0
  150.3393  145.0731  158.2808 H   0  0  0  0  0  0  0  0  0  0  0  0
  149.2288  141.5490  158.8098 H   0  0  0  0  0  0  0  0  0  0  0  0
  149.4858  143.2628  158.6842 H   0  0  0  0  0  0  0  0  0  0  0  0
  148.5220  142.3685  156.5658 H   0  0  0  0  0  0  0  0  0  0  0  0
  150.1106  143.0353  156.2787 H   0  0  0  0  0  0  0  0  0  0  0  0
  149.3856  140.0905  156.5803 H   0  0  0  0  0  0  0  0  0  0  0  0
  149.9653  140.8756  155.1306 H   0  0  0  0  0  0  0  0  0  0  0  0
  152.1590  141.3028  156.1657 H   0  0  0  0  0  0  0  0  0  0  0  0
  150.4859  138.3291  157.3059 H   0  0  0  0  0  0  0  0  0  0  0  0
  152.5520  136.5364  156.3059 H   0  0  0  0  0  0  0  0  0  0  0  0
  151.0695  136.1206  157.1350 H   0  0  0  0  0  0  0  0  0  0  0  0
  149.9295  136.9447  154.8261 H   0  0  0  0  0  0  0  0  0  0  0  0
  151.5010  136.5742  154.1627 H   0  0  0  0  0  0  0  0  0  0  0  0
  151.6931  134.2463  156.6054 H   0  0  0  0  0  0  0  0  0  0  0  0
  151.0024  131.8503  156.4240 H   0  0  0  0  0  0  0  0  0  0  0  0
  149.3785  131.1742  154.6414 H   0  0  0  0  0  0  0  0  0  0  0  0
  148.4847  132.9847  153.0628 H   0  0  0  0  0  0  0  0  0  0  0  0
  152.6993  140.5070  158.4449 H   0  0  0  0  0  0  0  0  0  0  0  0
  151.0537  139.9667  158.6967 H   0  0  0  0  0  0  0  0  0  0  0  0
  149.2084  135.1661  153.3419 H   0  0  0  0  0  0  0  0  0  0  0  0
  1  2  1  0  0  0  0
  1 23  1  0  0  0  0
  1 24  1  0  0  0  0
  1 25  1  0  0  0  0
  2  3  1  0  0  0  0
  2  4  1  0  0  0  0
  3 26  1  0  0  0  0
  3 27  1  0  0  0  0
  3 28  1  0  0  0  0
  4  5  2  0  0  0  0
  4  6  1  0  0  0  0
  6 22  1  0  0  0  0
  6  7  1  0  0  0  0
  7  8  1  0  0  0  0
  7 29  1  0  0  0  0
  7 30  1  0  0  0  0
  8  9  1  0  0  0  0
  8 31  1  0  0  0  0
  8 32  1  0  0  0  0
  9 10  1  0  0  0  0
  9 33  1  0  0  0  0
  9 34  1  0  0  0  0
 10 11  1  0  0  0  0
 10 22  1  0  0  0  0
 10 35  1  0  0  0  0
 11 12  2  0  0  0  0
 11 13  1  0  0  0  0
 13 14  1  0  0  0  0
 13 36  1  0  0  0  0
 14 15  1  0  0  0  0
 14 37  1  0  0  0  0
 14 38  1  0  0  0  0
 15 16  1  0  0  0  0
 15 39  1  0  0  0  0
 15 40  1  0  0  0  0
 16 21  1  0  0  0  0
 16 17  2  0  0  0  0
 17 18  1  0  0  0  0
 17 41  1  0  0  0  0
 18 19  2  0  0  0  0
 18 42  1  0  0  0  0
 19 20  1  0  0  0  0
 19 43  1  0  0  0  0
 20 21  2  0  0  0  0
 20 44  1  0  0  0  0
 21 47  1  0  0  0  0
 22 45  1  0  0  0  0
 22 46  1  0  0  0  0
M  CHG  1  21   1
M  END
> <s_m_source_file>
AV-unprocessed.smi

> <i_m_source_file_index>
1839

> <i_lp_mmshare_version>
43012

> <i_f3d_flags>
0

> <s_epik_input>
W0NIM11OKFtDSDNdKUMoPU8pTjFbQ0gyXVtDSDJdW0NIMl1bQ0BIXShbQ0gyXTEpQyg9TylbTkhdW0NIMl1bQ0gyXWMyW2NIXVtjSF1bY0hdW2NIXW4y

> <s_epik_cmdline>
J2VwaWtfcHl0aG9uJywgJy1waCcsICc3LjAnLCAnLXRuJywgJzgnLCAnLW1hJywgJzIwMCcsICctbWV0YWxfYmluZGluZycsICctaW1hZScsICc8aW5maWxlLm1hZT4nLCAnLW9tYWUnLCAnPG91dGZpbGUubWFlPic=

> <r_epik_Ionization_Penalty>
1.8476

> <r_epik_Ionization_Penalty_Charging>
1.84754

> <r_epik_Ionization_Penalty_Neutral>
5.83857e-05

> <r_epik_State_Penalty>
1.96477

> <r_epik_Charging_Adjusted_Penalty>
3.81231

> <i_epik_Tot_Q>
1

> <i_epik_Tot_abs_Q>
1

> <r_epik_Metal_State_Penalty>
1.99061

> <b_epik_Metal_Only>
0

> <s_lp_Force_Field>
OPLS_2005

> <r_lp_Energy>
52.6854

> <b_lp_Chiralities_Consistent>
1

> <s_lp_Variant>
AV-unprocessed.smi:1839-4

> <Gold.Version>
5.8.1

> <Gold.Id.Protein>
6NUR|6NUR_protein|mol2

> <Gold.PLP.Fitness>
48.1454

> <Gold.PLP.PLP>
-40.2681

> <Gold.PLP.part.hbond>
-2.0000

> <Gold.PLP.part.metal>
0.0000

> <Gold.PLP.part.buried>
-3.8658

> <Gold.PLP.part.nonpolar>
-34.3289

> <Gold.PLP.part.repulsive>
0.0631

> <Gold.PLP.ligand.clash>
0.0000

> <Gold.PLP.ligand.torsion>
1.2321

> <Gold.PLP.Chemscore.Hbond>
3.0000

> <Gold.PLP.Chemscore.CHOScore>
0.0000

> <Gold.PLP.Chemscore.Metal>
0.0000

> <Gold.Chemscore.Hbonds>
donor molecule, donor type, donor heavy atom, donor atom, acceptor molecule, acceptor atom, score
      L1  H    21    47       P1  7948  1.80
      P1  H  7997  8008       L1    12  1.00

> <Gold.PLP.Chemscore.Internal.Correction>
1.3416

> <Gold.Rescore>
     Score         DG    S(hbond)    S(metal)    S(lipo)     H(rot)  DE(clash)    DE(int)     intcor
     13.57     -16.55       1.50        0.00      86.92       1.60       0.67       2.31       ----

> <Gold.Chemscore.Fitness>
13.5730

> <Gold.Chemscore.DG>
-16.5541

> <Gold.Chemscore.ZeroCoef>
-5.4800

> <Gold.Chemscore.Hbond>
1.5009

> <Gold.Chemscore.Metal>
0.0000

> <Gold.Chemscore.Lipo>
86.9226

> <Gold.Chemscore.Internal_Hbond>
0.0000

> <Gold.Chemscore.DEClash>
0.6681

> <Gold.Chemscore.DEInternal>
2.3131

> <Gold.Chemscore.Rot>
1.6049

> <Gold.Chemscore.Internal.Correction>
   9.000000E+99

> <Gold.Chemscore.Hbonds>
donor molecule, donor type, donor heavy atom, donor atom, acceptor molecule, acceptor atom, score
      L1  H    21    47       P1  7948  0.18
      P1  H  7997  8008       L1    12  0.63

> <Gold.Chemscore.Hbond.Weighted>
-5.0129

> <Gold.Chemscore.Metal.Weighted>
-0.0000

> <Gold.Chemscore.Lipo.Weighted>
-10.1699

> <Gold.Chemscore.Internal_Hbond.Weighted>
0.0000

> <Gold.Chemscore.DEClash.Weighted>
0.6681

> <Gold.Chemscore.DEInternal.Weighted>
2.3131

> <Gold.Chemscore.Rot.Weighted>
4.1087

> <Gold.Chemscore.Internal.Correction.Weighted>
   9.000000E+99

> <Gold.Protein.RotatedTorsions>
[ 6907 6896 6895 6894 ] final -179.53 input  -60.11 | X-H torsion
[ 7974 7965 7964 7962 ] final  -14.25 input  175.53 | X-H torsion
[ 8008 7997 7996 7995 ] final  -25.79 input   59.86 | X-H torsion
[ 10167 10162 10161 10158 ] final  -86.02 input  -65.29 | X-H torsion
[ 10718 10713 10712 10709 ] final   32.01 input   66.30 | X-H torsion
[ 10763 10752 10751 10750 ] final  169.11 input  -60.55 | X-H torsion
[ 11005 11000 10999 10996 ] final -127.73 input  -57.11 | X-H torsion

> <Gold.Protein.ActiveResidues>
 VAL166  LYS551  ARG553  GLY616  TRP617  ASP618  TYR619  PRO620  LYS621  CYS622 
 ASP623  PHE694  ASN695  SER759  ASP760  ASP761  ALA762  ILE779  LEU786  VAL792 
 PHE793  MET794  SER795  GLU796  ALA797  LYS798  CYS799  TRP800  GLU811  SER814 

> <Gold.Protein.RotatedAtoms>
  151.6550  133.3319  159.3160 H   0  0  0  0  0  0  0  0  0  0  0  0  # atno 6907 bound_to 6896
  150.7942  134.6992  159.6550 H   0  0  0  0  0  0  0  0  0  0  0  0  # atno 6908 bound_to 6896
  152.4026  134.6265  160.0116 H   0  0  0  0  0  0  0  0  0  0  0  0  # atno 6909 bound_to 6896
  146.2082  140.3321  142.8400 H   0  0  0  0  0  0  0  0  0  0  0  0  # atno 7974 bound_to 7965
  154.4458  140.1917  156.0674 H   0  0  0  0  0  0  0  0  0  0  0  0  # atno 8008 bound_to 7997
  156.0537  140.3305  155.7353 H   0  0  0  0  0  0  0  0  0  0  0  0  # atno 8009 bound_to 7997
  155.5518  140.0595  157.2839 H   0  0  0  0  0  0  0  0  0  0  0  0  # atno 8010 bound_to 7997
  140.3981  143.2674  151.9177 H   0  0  0  0  0  0  0  0  0  0  0  0  # atno 10167 bound_to 10162
  157.2798  130.7249  149.6550 H   0  0  0  0  0  0  0  0  0  0  0  0  # atno 10718 bound_to 10713
  154.3783  135.2753  155.2226 H   0  0  0  0  0  0  0  0  0  0  0  0  # atno 10763 bound_to 10752
  154.4344  135.5969  153.6092 H   0  0  0  0  0  0  0  0  0  0  0  0  # atno 10764 bound_to 10752
  152.9835  135.6003  154.4023 H   0  0  0  0  0  0  0  0  0  0  0  0  # atno 10765 bound_to 10752
  140.9575  134.0982  157.4002 H   0  0  0  0  0  0  0  0  0  0  0  0  # atno 11005 bound_to 11000
  144.8845  140.7443  143.5966 LP  0  0  0  0  0  0  0  0  0  0  0  0  # atno 17320 bound_to 7965
  145.3242  139.1779  143.4571 LP  0  0  0  0  0  0  0  0  0  0  0  0  # atno 17321 bound_to 7965
  139.4786  144.5660  151.8163 LP  0  0  0  0  0  0  0  0  0  0  0  0  # atno 17342 bound_to 10162
  140.4768  144.1507  150.5926 LP  0  0  0  0  0  0  0  0  0  0  0  0  # atno 17343 bound_to 10162
  155.9664  130.4342  150.5037 LP  0  0  0  0  0  0  0  0  0  0  0  0  # atno 17370 bound_to 10713
  157.2979  131.0639  151.2089 LP  0  0  0  0  0  0  0  0  0  0  0  0  # atno 17371 bound_to 10713
  139.8867  135.0083  156.6514 LP  0  0  0  0  0  0  0  0  0  0  0  0  # atno 17394 bound_to 11000
  140.7515  133.8893  155.8350 LP  0  0  0  0  0  0  0  0  0  0  0  0  # atno 17395 bound_to 11000

$$$$
