AV-unprocessed.smi:153|AV-procd|sdf|1262|dock7
  -GOLD-   2262018513D 1   1.00000     0.00000
 Structure written by MMmdl.
 59 62  0  0  0  0  0  0  0  0  1 V2000
  148.3967  135.9900  160.1219 C   0  0  0  0  0  0  0  0  0  0  0  0
  147.2799  136.6672  160.9313 C   0  0  2  0  0  0  0  0  0  0  0  0
  146.9170  135.7833  161.9892 O   0  0  0  0  0  0  0  0  0  0  0  0
  145.5462  135.9709  162.2936 C   0  0  0  0  0  0  0  0  0  0  0  0
  144.9262  136.1383  160.9149 C   0  0  0  0  0  0  0  0  0  0  0  0
  145.9582  136.9852  160.1752 C   0  0  1  0  0  0  0  0  0  0  0  0
  145.6475  138.3489  160.4102 O   0  0  0  0  0  0  0  0  0  0  0  0
  145.9658  136.7561  158.6408 C   0  0  0  0  0  0  0  0  0  0  0  0
  146.6940  137.7812  157.9079 N   0  0  0  0  0  0  0  0  0  0  0  0
  147.9710  138.2286  158.1625 C   0  0  0  0  0  0  0  0  0  0  0  0
  148.4063  139.1590  157.3580 N   0  0  0  0  0  0  0  0  0  0  0  0
  147.3510  139.3671  156.4786 C   0  0  0  0  0  0  0  0  0  0  0  0
  147.1547  140.2122  155.3509 C   0  0  0  0  0  0  0  0  0  0  0  0
  148.1079  141.0721  154.9118 N   0  0  0  0  0  0  0  0  0  0  0  0
  147.6263  142.0246  153.9184 C   0  0  0  0  0  0  0  0  0  0  0  0
  149.4964  140.6162  154.8123 C   0  0  0  0  0  0  0  0  0  0  0  0
  149.6317  139.1005  154.5456 C   0  0  1  0  0  0  0  0  0  0  0  0
  149.2939  138.8904  153.1907 O   0  0  0  0  0  0  0  0  0  0  0  0
  151.0705  138.5763  154.7724 C   0  0  0  0  0  0  0  0  0  0  0  0
  151.5353  138.6005  156.1602 N   0  0  0  0  0  0  0  0  0  0  0  0
  151.7943  139.9586  156.6364 C   0  0  0  0  0  0  0  0  0  0  0  0
  152.3294  139.9778  158.0779 C   0  0  0  0  0  0  0  0  0  0  0  0
  153.5042  139.1784  158.1629 O   0  0  0  0  0  0  0  0  0  0  0  0
  153.2797  137.8321  157.7584 C   0  0  0  0  0  0  0  0  0  0  0  0
  152.7530  137.8107  156.3129 C   0  0  0  0  0  0  0  0  0  0  0  0
  145.9603  140.1312  154.7068 N   0  0  0  0  0  0  0  0  0  0  0  0
  145.0246  139.2752  155.1276 C   0  0  0  0  0  0  0  0  0  0  0  0
  145.0745  138.4224  156.1526 N   0  0  0  0  0  0  0  0  0  0  0  0
  146.2683  138.5037  156.8068 C   0  0  0  0  0  0  0  0  0  0  0  0
  148.7279  136.6186  159.2953 H   0  0  0  0  0  0  0  0  0  0  0  0
  148.0726  135.0317  159.7155 H   0  0  0  0  0  0  0  0  0  0  0  0
  149.2650  135.7982  160.7528 H   0  0  0  0  0  0  0  0  0  0  0  0
  147.6864  137.5737  161.3840 H   0  0  0  0  0  0  0  0  0  0  0  0
  145.1349  135.1237  162.8425 H   0  0  0  0  0  0  0  0  0  0  0  0
  145.4198  136.8714  162.8963 H   0  0  0  0  0  0  0  0  0  0  0  0
  144.8437  135.1556  160.4493 H   0  0  0  0  0  0  0  0  0  0  0  0
  143.9282  136.5784  160.9407 H   0  0  0  0  0  0  0  0  0  0  0  0
  144.9621  138.3924  161.0592 H   0  0  0  0  0  0  0  0  0  0  0  0
  146.4075  135.7881  158.4007 H   0  0  0  0  0  0  0  0  0  0  0  0
  144.9472  136.7347  158.2528 H   0  0  0  0  0  0  0  0  0  0  0  0
  148.5732  137.8424  158.9720 H   0  0  0  0  0  0  0  0  0  0  0  0
  146.8230  141.6009  153.3134 H   0  0  0  0  0  0  0  0  0  0  0  0
  148.4247  142.3286  153.2411 H   0  0  0  0  0  0  0  0  0  0  0  0
  147.2489  142.9210  154.4108 H   0  0  0  0  0  0  0  0  0  0  0  0
  149.9992  141.1830  154.0275 H   0  0  0  0  0  0  0  0  0  0  0  0
  150.0155  140.8603  155.7402 H   0  0  0  0  0  0  0  0  0  0  0  0
  148.9057  138.5425  155.1348 H   0  0  0  0  0  0  0  0  0  0  0  0
  149.2022  137.9607  153.0475 H   0  0  0  0  0  0  0  0  0  0  0  0
  151.1396  137.5578  154.3862 H   0  0  0  0  0  0  0  0  0  0  0  0
  151.7698  139.1490  154.1615 H   0  0  0  0  0  0  0  0  0  0  0  0
  152.5149  140.4492  155.9803 H   0  0  0  0  0  0  0  0  0  0  0  0
  150.8837  140.5541  156.6024 H   0  0  0  0  0  0  0  0  0  0  0  0
  152.5685  140.9985  158.3775 H   0  0  0  0  0  0  0  0  0  0  0  0
  151.5763  139.6062  158.7742 H   0  0  0  0  0  0  0  0  0  0  0  0
  154.2157  137.2780  157.8293 H   0  0  0  0  0  0  0  0  0  0  0  0
  152.5708  137.3538  158.4360 H   0  0  0  0  0  0  0  0  0  0  0  0
  152.5638  136.7786  156.0157 H   0  0  0  0  0  0  0  0  0  0  0  0
  153.5268  138.1905  155.6437 H   0  0  0  0  0  0  0  0  0  0  0  0
  144.1057  139.2714  154.5603 H   0  0  0  0  0  0  0  0  0  0  0  0
  1  2  1  0  0  0  0
  1 30  1  0  0  0  0
  1 31  1  0  0  0  0
  1 32  1  0  0  0  0
  2  6  1  0  0  0  0
  2  3  1  0  0  0  0
  2 33  1  0  0  0  0
  3  4  1  0  0  0  0
  4  5  1  0  0  0  0
  4 34  1  0  0  0  0
  4 35  1  0  0  0  0
  5  6  1  0  0  0  0
  5 36  1  0  0  0  0
  5 37  1  0  0  0  0
  6  7  1  0  0  0  0
  6  8  1  0  0  0  0
  7 38  1  0  0  0  0
  8  9  1  0  0  0  0
  8 39  1  0  0  0  0
  8 40  1  0  0  0  0
  9 29  1  0  0  0  0
  9 10  1  0  0  0  0
 10 11  2  0  0  0  0
 10 41  1  0  0  0  0
 11 12  1  0  0  0  0
 12 29  2  0  0  0  0
 12 13  1  0  0  0  0
 13 14  1  0  0  0  0
 13 26  2  0  0  0  0
 14 15  1  0  0  0  0
 14 16  1  0  0  0  0
 15 42  1  0  0  0  0
 15 43  1  0  0  0  0
 15 44  1  0  0  0  0
 16 17  1  0  0  0  0
 16 45  1  0  0  0  0
 16 46  1  0  0  0  0
 17 18  1  0  0  0  0
 17 19  1  0  0  0  0
 17 47  1  0  0  0  0
 18 48  1  0  0  0  0
 19 20  1  0  0  0  0
 19 49  1  0  0  0  0
 19 50  1  0  0  0  0
 20 25  1  0  0  0  0
 20 21  1  0  0  0  0
 21 22  1  0  0  0  0
 21 51  1  0  0  0  0
 21 52  1  0  0  0  0
 22 23  1  0  0  0  0
 22 53  1  0  0  0  0
 22 54  1  0  0  0  0
 23 24  1  0  0  0  0
 24 25  1  0  0  0  0
 24 55  1  0  0  0  0
 24 56  1  0  0  0  0
 25 57  1  0  0  0  0
 25 58  1  0  0  0  0
 26 27  1  0  0  0  0
 27 28  2  0  0  0  0
 27 59  1  0  0  0  0
 28 29  1  0  0  0  0
M  END
> <s_m_source_file>
AV-unprocessed.smi

> <i_m_source_file_index>
153

> <i_lp_mmshare_version>
43012

> <i_f3d_flags>
0

> <s_epik_input>
W0NIMl0xW0NIMl1PW0NAQEhdKFtDSDNdKVtDQEBdMShbT0hdKVtDSDJdbihbY0hdbjIpYyhjMjMpbltjSF1uYzNOKFtDSDNdKVtDSDJdW0NASF0oW09IXSlbQ0gyXU40W0NIMl1bQ0gyXU9bQ0gyXVtDSDJdNA==

> <s_epik_cmdline>
J2VwaWtfcHl0aG9uJywgJy1waCcsICc3LjAnLCAnLXRuJywgJzgnLCAnLW1hJywgJzIwMCcsICctbWV0YWxfYmluZGluZycsICctaW1hZScsICc8aW5maWxlLm1hZT4nLCAnLW9tYWUnLCAnPG91dGZpbGUubWFlPic=

> <r_lp_tautomer_probability>
1

> <r_epik_Ionization_Penalty>
0.424123

> <r_epik_Ionization_Penalty_Charging>
0

> <r_epik_Ionization_Penalty_Neutral>
0.424123

> <r_epik_State_Penalty>
0.421495

> <r_epik_Charging_Adjusted_Penalty>
0.421495

> <i_epik_Tot_Q>
0

> <i_epik_Tot_abs_Q>
0

> <r_epik_Metal_State_Penalty>
0.421223

> <b_epik_Metal_Only>
0

> <s_lp_Force_Field>
OPLS_2005

> <r_lp_Energy>
51.9128

> <b_lp_Chiralities_Consistent>
1

> <s_lp_Variant>
AV-unprocessed.smi:153-13

> <Gold.Version>
5.8.1

> <Gold.Id.Protein>
6NUR|6NUR_protein|mol2

> <Gold.PLP.Fitness>
41.9477

> <Gold.PLP.PLP>
-32.1412

> <Gold.PLP.part.hbond>
-3.0792

> <Gold.PLP.part.metal>
0.0000

> <Gold.PLP.part.buried>
-5.3648

> <Gold.PLP.part.nonpolar>
-23.6890

> <Gold.PLP.part.repulsive>
0.1209

> <Gold.PLP.ligand.clash>
0.0000

> <Gold.PLP.ligand.torsion>
1.0238

> <Gold.PLP.Chemscore.Hbond>
2.8160

> <Gold.PLP.Chemscore.CHOScore>
0.8908

> <Gold.PLP.Chemscore.Metal>
0.0000

> <Gold.Chemscore.Hbonds>
donor molecule, donor type, donor heavy atom, donor atom, acceptor molecule, acceptor atom, score
      L1  H    18    48       P1  7948  0.88
      P1  H  6934  6947       L1     7  0.70
      P1  H  7997  8008       L1    23  1.00
      L1  C    27    59       P1 10175  0.95

> <Gold.PLP.Chemscore.Internal.Correction>
0.7336

> <Gold.Rescore>
     Score         DG    S(hbond)    S(metal)    S(lipo)     H(rot)  DE(clash)    DE(int)     intcor
     12.60     -14.75       2.65        0.00      80.47       3.52       0.02       2.13       ----

> <Gold.Chemscore.Fitness>
12.5984

> <Gold.Chemscore.DG>
-14.7541

> <Gold.Chemscore.ZeroCoef>
-5.4800

> <Gold.Chemscore.Hbond>
2.6535

> <Gold.Chemscore.Metal>
0.0000

> <Gold.Chemscore.Lipo>
80.4683

> <Gold.Chemscore.Internal_Hbond>
0.0000

> <Gold.Chemscore.DEClash>
0.0216

> <Gold.Chemscore.DEInternal>
2.1341

> <Gold.Chemscore.Rot>
3.5170

> <Gold.Chemscore.Internal.Correction>
   9.000000E+99

> <Gold.Chemscore.Hbonds>
donor molecule, donor type, donor heavy atom, donor atom, acceptor molecule, acceptor atom, score
      L1  H    18    48       P1  7948  0.82
      P1  H  6934  6947       L1     7  0.31
      P1  H  7997  8008       L1    23  0.20

> <Gold.Chemscore.Hbond.Weighted>
-8.8629

> <Gold.Chemscore.Metal.Weighted>
-0.0000

> <Gold.Chemscore.Lipo.Weighted>
-9.4148

> <Gold.Chemscore.Internal_Hbond.Weighted>
0.0000

> <Gold.Chemscore.DEClash.Weighted>
0.0216

> <Gold.Chemscore.DEInternal.Weighted>
2.1341

> <Gold.Chemscore.Rot.Weighted>
9.0036

> <Gold.Chemscore.Internal.Correction.Weighted>
   9.000000E+99

> <Gold.Protein.RotatedTorsions>
[ 6907 6896 6895 6894 ] final  -19.65 input  -60.11 | X-H torsion
[ 7974 7965 7964 7962 ] final  177.71 input  175.53 | X-H torsion
[ 8008 7997 7996 7995 ] final  -80.62 input   59.86 | X-H torsion
[ 10167 10162 10161 10158 ] final -142.20 input  -65.29 | X-H torsion
[ 10718 10713 10712 10709 ] final  157.48 input   66.30 | X-H torsion
[ 10763 10752 10751 10750 ] final  124.50 input  -60.55 | X-H torsion
[ 11005 11000 10999 10996 ] final  -94.94 input  -57.11 | X-H torsion

> <Gold.Protein.ActiveResidues>
 VAL166  LYS551  ARG553  GLY616  TRP617  ASP618  TYR619  PRO620  LYS621  CYS622 
 ASP623  PHE694  ASN695  SER759  ASP760  ASP761  ALA762  ILE779  LEU786  VAL792 
 PHE793  MET794  SER795  GLU796  ALA797  LYS798  CYS799  TRP800  GLU811  SER814 

> <Gold.Protein.RotatedAtoms>
  151.2599  135.0650  159.9093 H   0  0  0  0  0  0  0  0  0  0  0  0  # atno 6907 bound_to 6896
  152.5367  134.0242  159.8006 H   0  0  0  0  0  0  0  0  0  0  0  0  # atno 6908 bound_to 6896
  151.0463  133.5612  159.2677 H   0  0  0  0  0  0  0  0  0  0  0  0  # atno 6909 bound_to 6896
  144.7165  140.0289  143.6439 H   0  0  0  0  0  0  0  0  0  0  0  0  # atno 7974 bound_to 7965
  154.5902  140.0660  156.9227 H   0  0  0  0  0  0  0  0  0  0  0  0  # atno 8008 bound_to 7997
  155.2309  140.3337  155.4285 H   0  0  0  0  0  0  0  0  0  0  0  0  # atno 8009 bound_to 7997
  156.2250  140.1815  156.7369 H   0  0  0  0  0  0  0  0  0  0  0  0  # atno 8010 bound_to 7997
  139.8111  143.7702  152.2663 H   0  0  0  0  0  0  0  0  0  0  0  0  # atno 10167 bound_to 10162
  157.1909  131.0654  151.2079 H   0  0  0  0  0  0  0  0  0  0  0  0  # atno 10718 bound_to 10713
  153.6624  135.3344  155.3131 H   0  0  0  0  0  0  0  0  0  0  0  0  # atno 10763 bound_to 10752
  154.8511  135.4367  154.1790 H   0  0  0  0  0  0  0  0  0  0  0  0  # atno 10764 bound_to 10752
  153.2760  135.7004  153.7508 H   0  0  0  0  0  0  0  0  0  0  0  0  # atno 10765 bound_to 10752
  141.1456  133.7991  157.0367 H   0  0  0  0  0  0  0  0  0  0  0  0  # atno 11005 bound_to 11000
  146.0119  139.3177  143.0865 LP  0  0  0  0  0  0  0  0  0  0  0  0  # atno 17320 bound_to 7965
  145.8671  140.9441  143.0670 LP  0  0  0  0  0  0  0  0  0  0  0  0  # atno 17321 bound_to 7965
  139.7851  144.7431  151.0034 LP  0  0  0  0  0  0  0  0  0  0  0  0  # atno 17342 bound_to 10162
  140.7817  143.4501  151.0425 LP  0  0  0  0  0  0  0  0  0  0  0  0  # atno 17343 bound_to 10162
  157.3861  130.7257  149.6664 LP  0  0  0  0  0  0  0  0  0  0  0  0  # atno 17370 bound_to 10713
  155.9712  130.4159  150.4205 LP  0  0  0  0  0  0  0  0  0  0  0  0  # atno 17371 bound_to 10713
  140.0719  134.9697  157.1481 LP  0  0  0  0  0  0  0  0  0  0  0  0  # atno 17394 bound_to 11000
  140.3699  134.2402  155.7179 LP  0  0  0  0  0  0  0  0  0  0  0  0  # atno 17395 bound_to 11000

$$$$
