AV-unprocessed.smi:2931|AV-procd|sdf|11248|dock1
  -GOLD-   2272016143D 1   1.00000     0.00000
 Structure written by MMmdl.
 43 44  0  0  0  0  0  0  0  0  3 V2000
  145.2954  135.5901  150.7911 C   0  0  0  0  0  0  0  0  0  0  0  0
  146.0165  136.5998  151.5952 N   0  3  1  0  0  0  0  0  0  0  0  0
  145.9238  137.9604  151.0092 C   0  0  0  0  0  0  0  0  0  0  0  0
  146.7942  138.9583  151.7916 C   0  0  0  0  0  0  0  0  0  0  0  0
  146.4316  138.9613  153.2862 C   0  0  0  0  0  0  0  0  0  0  0  0
  146.4781  137.5376  153.8705 C   0  0  2  0  0  0  0  0  0  0  0  0
  147.8645  137.0777  153.9553 N   0  0  0  0  0  0  0  0  0  0  0  0
  148.7531  137.4752  154.8765 C   0  0  0  0  0  0  0  0  0  0  0  0
  148.4897  138.2455  155.7990 O   0  0  0  0  0  0  0  0  0  0  0  0
  149.9614  136.9331  154.6719 N   0  0  0  0  0  0  0  0  0  0  0  0
  151.1514  137.2119  155.4717 C   0  0  0  0  0  0  0  0  0  0  0  0
  151.9158  138.4713  155.0154 C   0  0  0  0  0  0  0  0  0  0  0  0
  151.1644  139.7675  155.2665 C   0  0  0  0  0  0  0  0  0  0  0  0
  151.5387  140.6216  156.3281 C   0  0  0  0  0  0  0  0  0  0  0  0
  150.8182  141.8153  156.5369 C   0  0  0  0  0  0  0  0  0  0  0  0
  149.7862  142.1295  155.7234 N   0  3  0  0  0  0  0  0  0  0  0  0
  149.3971  141.3419  154.6969 C   0  0  0  0  0  0  0  0  0  0  0  0
  150.0786  140.1346  154.4413 C   0  0  0  0  0  0  0  0  0  0  0  0
  145.6060  136.5854  153.0220 C   0  0  0  0  0  0  0  0  0  0  0  0
  144.2256  135.8014  150.7657 H   0  0  0  0  0  0  0  0  0  0  0  0
  145.4381  134.5925  151.2077 H   0  0  0  0  0  0  0  0  0  0  0  0
  145.6666  135.5782  149.7659 H   0  0  0  0  0  0  0  0  0  0  0  0
  146.2467  137.9350  149.9675 H   0  0  0  0  0  0  0  0  0  0  0  0
  144.8829  138.2883  151.0100 H   0  0  0  0  0  0  0  0  0  0  0  0
  147.8467  138.7019  151.6658 H   0  0  0  0  0  0  0  0  0  0  0  0
  146.6723  139.9603  151.3790 H   0  0  0  0  0  0  0  0  0  0  0  0
  147.0991  139.6252  153.8371 H   0  0  0  0  0  0  0  0  0  0  0  0
  145.4269  139.3680  153.4099 H   0  0  0  0  0  0  0  0  0  0  0  0
  146.0738  137.5752  154.8838 H   0  0  0  0  0  0  0  0  0  0  0  0
  148.1808  136.4491  153.2312 H   0  0  0  0  0  0  0  0  0  0  0  0
  150.0797  136.3143  153.8827 H   0  0  0  0  0  0  0  0  0  0  0  0
  150.8243  137.3405  156.5038 H   0  0  0  0  0  0  0  0  0  0  0  0
  151.8146  136.3456  155.4681 H   0  0  0  0  0  0  0  0  0  0  0  0
  152.8764  138.5205  155.5294 H   0  0  0  0  0  0  0  0  0  0  0  0
  152.1519  138.3946  153.9534 H   0  0  0  0  0  0  0  0  0  0  0  0
  152.3645  140.3650  156.9760 H   0  0  0  0  0  0  0  0  0  0  0  0
  151.0328  142.5217  157.3255 H   0  0  0  0  0  0  0  0  0  0  0  0
  148.5578  141.6971  154.1168 H   0  0  0  0  0  0  0  0  0  0  0  0
  149.7706  139.4995  153.6233 H   0  0  0  0  0  0  0  0  0  0  0  0
  144.5573  136.8781  153.0962 H   0  0  0  0  0  0  0  0  0  0  0  0
  145.6695  135.5688  153.4122 H   0  0  0  0  0  0  0  0  0  0  0  0
  146.9923  136.3411  151.5743 H   0  0  0  0  0  0  0  0  0  0  0  0
  149.2758  142.9968  155.8932 H   0  0  0  0  0  0  0  0  0  0  0  0
  1  2  1  0  0  0  0
  1 20  1  0  0  0  0
  1 21  1  0  0  0  0
  1 22  1  0  0  0  0
  2 19  1  0  0  0  0
  2  3  1  0  0  0  0
  2 42  1  0  0  0  0
  3  4  1  0  0  0  0
  3 23  1  0  0  0  0
  3 24  1  0  0  0  0
  4  5  1  0  0  0  0
  4 25  1  0  0  0  0
  4 26  1  0  0  0  0
  5  6  1  0  0  0  0
  5 27  1  0  0  0  0
  5 28  1  0  0  0  0
  6  7  1  0  0  0  0
  6 19  1  0  0  0  0
  6 29  1  0  0  0  0
  7  8  1  0  0  0  0
  7 30  1  0  0  0  0
  8  9  2  0  0  0  0
  8 10  1  0  0  0  0
 10 11  1  0  0  0  0
 10 31  1  0  0  0  0
 11 12  1  0  0  0  0
 11 32  1  0  0  0  0
 11 33  1  0  0  0  0
 12 13  1  0  0  0  0
 12 34  1  0  0  0  0
 12 35  1  0  0  0  0
 13 18  1  0  0  0  0
 13 14  2  0  0  0  0
 14 15  1  0  0  0  0
 14 36  1  0  0  0  0
 15 16  2  0  0  0  0
 15 37  1  0  0  0  0
 16 17  1  0  0  0  0
 16 43  1  0  0  0  0
 17 18  2  0  0  0  0
 17 38  1  0  0  0  0
 18 39  1  0  0  0  0
 19 40  1  0  0  0  0
 19 41  1  0  0  0  0
M  CHG  1   2   1
M  CHG  1  16   1
M  END
> <s_m_source_file>
AV-unprocessed.smi

> <i_m_source_file_index>
2931

> <i_lp_mmshare_version>
43012

> <i_f3d_flags>
0

> <s_epik_input>
W0NIM11OMVtDSDJdW0NIMl1bQ0gyXVtDQEhdKFtDSDJdMSlbTkhdQyg9TylbTkhdW0NIMl1bQ0gyXWMyW2NIXVtjSF1uW2NIXVtjSF0y

> <s_epik_cmdline>
J2VwaWtfcHl0aG9uJywgJy1waCcsICc3LjAnLCAnLXRuJywgJzgnLCAnLW1hJywgJzIwMCcsICctbWV0YWxfYmluZGluZycsICctaW1hZScsICc8aW5maWxlLm1hZT4nLCAnLW9tYWUnLCAnPG91dGZpbGUubWFlPic=

> <r_epik_Ionization_Penalty>
1.43754

> <r_epik_Ionization_Penalty_Charging>
1.4375

> <r_epik_Ionization_Penalty_Neutral>
3.7629e-05

> <r_epik_State_Penalty>
1.52008

> <r_epik_Charging_Adjusted_Penalty>
2.95758

> <i_epik_Tot_Q>
2

> <i_epik_Tot_abs_Q>
2

> <r_epik_Metal_State_Penalty>
1.57105

> <b_epik_Metal_Only>
0

> <s_lp_Force_Field>
OPLS_2005

> <r_lp_Energy>
32.3729

> <b_lp_Chiralities_Consistent>
1

> <s_lp_Variant>
AV-unprocessed.smi:2931-7

> <Gold.Version>
5.8.1

> <Gold.Id.Protein>
6NUR|6NUR_protein|mol2

> <Gold.PLP.Fitness>
46.7771

> <Gold.PLP.PLP>
-32.3084

> <Gold.PLP.part.hbond>
-3.8944

> <Gold.PLP.part.metal>
0.0000

> <Gold.PLP.part.buried>
5.6215

> <Gold.PLP.part.nonpolar>
-34.3966

> <Gold.PLP.part.repulsive>
0.2739

> <Gold.PLP.ligand.clash>
0.0000

> <Gold.PLP.ligand.torsion>
0.6171

> <Gold.PLP.Chemscore.Hbond>
5.2210

> <Gold.PLP.Chemscore.CHOScore>
0.0000

> <Gold.PLP.Chemscore.Metal>
0.0000

> <Gold.Chemscore.Hbonds>
donor molecule, donor type, donor heavy atom, donor atom, acceptor molecule, acceptor atom, score
      L1  H     2    42       P1  7948  2.00
      L1  H     7    30       P1  7948  0.98
      L1  H    10    31       P1  7948  0.21
      L1  H    16    43       P1  8028  2.00

> <Gold.PLP.Chemscore.Internal.Correction>
0.0400

> <Gold.Rescore>
     Score         DG    S(hbond)    S(metal)    S(lipo)     H(rot)  DE(clash)    DE(int)     intcor
     16.55     -21.08       2.88        0.00      87.14       1.65       1.91       2.62       ----

> <Gold.Chemscore.Fitness>
16.5470

> <Gold.Chemscore.DG>
-21.0787

> <Gold.Chemscore.ZeroCoef>
-5.4800

> <Gold.Chemscore.Hbond>
2.8796

> <Gold.Chemscore.Metal>
0.0000

> <Gold.Chemscore.Lipo>
87.1413

> <Gold.Chemscore.Internal_Hbond>
0.0000

> <Gold.Chemscore.DEClash>
1.9068

> <Gold.Chemscore.DEInternal>
2.6249

> <Gold.Chemscore.Rot>
1.6464

> <Gold.Chemscore.Internal.Correction>
   9.000000E+99

> <Gold.Chemscore.Hbonds>
donor molecule, donor type, donor heavy atom, donor atom, acceptor molecule, acceptor atom, score
      L1  H     2    42       P1  7948  0.99
      L1  H     7    30       P1  7948  0.91
      L1  H    10    31       P1  7948  0.04
      L1  H    16    43       P1  8028  0.98

> <Gold.Chemscore.Hbond.Weighted>
-9.6179

> <Gold.Chemscore.Metal.Weighted>
-0.0000

> <Gold.Chemscore.Lipo.Weighted>
-10.1955

> <Gold.Chemscore.Internal_Hbond.Weighted>
0.0000

> <Gold.Chemscore.DEClash.Weighted>
1.9068

> <Gold.Chemscore.DEInternal.Weighted>
2.6249

> <Gold.Chemscore.Rot.Weighted>
4.2148

> <Gold.Chemscore.Internal.Correction.Weighted>
   9.000000E+99

> <Gold.Protein.RotatedTorsions>
[ 6907 6896 6895 6894 ] final  179.70 input  -60.11 | X-H torsion
[ 7974 7965 7964 7962 ] final  142.72 input  175.53 | X-H torsion
[ 8008 7997 7996 7995 ] final  129.51 input   59.86 | X-H torsion
[ 10167 10162 10161 10158 ] final -128.89 input  -65.29 | X-H torsion
[ 10718 10713 10712 10709 ] final  -63.43 input   66.30 | X-H torsion
[ 10763 10752 10751 10750 ] final  133.07 input  -60.55 | X-H torsion
[ 11005 11000 10999 10996 ] final  -67.88 input  -57.11 | X-H torsion

> <Gold.Protein.ActiveResidues>
 VAL166  LYS551  ARG553  GLY616  TRP617  ASP618  TYR619  PRO620  LYS621  CYS622 
 ASP623  PHE694  ASN695  SER759  ASP760  ASP761  ALA762  ILE779  LEU786  VAL792 
 PHE793  MET794  SER795  GLU796  ALA797  LYS798  CYS799  TRP800  GLU811  SER814 

> <Gold.Protein.RotatedAtoms>
  151.6674  133.3315  159.3188 H   0  0  0  0  0  0  0  0  0  0  0  0  # atno 6907 bound_to 6896
  150.7884  134.6891  159.6496 H   0  0  0  0  0  0  0  0  0  0  0  0  # atno 6908 bound_to 6896
  152.3958  134.6370  160.0141 H   0  0  0  0  0  0  0  0  0  0  0  0  # atno 6909 bound_to 6896
  144.8983  139.5459  143.5766 H   0  0  0  0  0  0  0  0  0  0  0  0  # atno 7974 bound_to 7965
  156.2937  140.2619  156.2610 H   0  0  0  0  0  0  0  0  0  0  0  0  # atno 8008 bound_to 7997
  154.9789  140.0390  157.2287 H   0  0  0  0  0  0  0  0  0  0  0  0  # atno 8009 bound_to 7997
  154.7790  140.2792  155.6083 H   0  0  0  0  0  0  0  0  0  0  0  0  # atno 8010 bound_to 7997
  139.9455  143.6114  152.2491 H   0  0  0  0  0  0  0  0  0  0  0  0  # atno 10167 bound_to 10162
  156.0791  130.4221  150.1277 H   0  0  0  0  0  0  0  0  0  0  0  0  # atno 10718 bound_to 10713
  153.8010  135.3142  155.3390 H   0  0  0  0  0  0  0  0  0  0  0  0  # atno 10763 bound_to 10752
  154.8089  135.4680  154.0466 H   0  0  0  0  0  0  0  0  0  0  0  0  # atno 10764 bound_to 10752
  153.1814  135.6894  153.8560 H   0  0  0  0  0  0  0  0  0  0  0  0  # atno 10765 bound_to 10752
  141.1519  133.6728  156.6361 H   0  0  0  0  0  0  0  0  0  0  0  0  # atno 11005 bound_to 11000
  146.3094  139.7692  142.9031 LP  0  0  0  0  0  0  0  0  0  0  0  0  # atno 17320 bound_to 7965
  145.3661  141.0334  143.3257 LP  0  0  0  0  0  0  0  0  0  0  0  0  # atno 17321 bound_to 7965
  139.6670  144.7662  151.1855 LP  0  0  0  0  0  0  0  0  0  0  0  0  # atno 17342 bound_to 10162
  140.7598  143.5923  150.8783 LP  0  0  0  0  0  0  0  0  0  0  0  0  # atno 17343 bound_to 10162
  156.9312  130.9714  151.3532 LP  0  0  0  0  0  0  0  0  0  0  0  0  # atno 17370 bound_to 10713
  157.5900  130.8437  149.8645 LP  0  0  0  0  0  0  0  0  0  0  0  0  # atno 17371 bound_to 10713
  140.3429  134.7834  157.4411 LP  0  0  0  0  0  0  0  0  0  0  0  0  # atno 17394 bound_to 11000
  140.0923  134.5584  155.8432 LP  0  0  0  0  0  0  0  0  0  0  0  0  # atno 17395 bound_to 11000

$$$$
