AV-unprocessed.smi:2044|AV-procd|sdf|8302|dock5
  -GOLD-   2272010563D 1   1.00000     0.00000
 Structure written by MMmdl.
 38 39  0  0  0  0  0  0  0  0  2 V2000
  145.8453  135.3257  162.1859 C   0  0  0  0  0  0  0  0  0  0  0  0
  146.9061  135.8313  161.2691 C   0  0  0  0  0  0  0  0  0  0  0  0
  147.8342  135.2027  160.4883 C   0  0  0  0  0  0  0  0  0  0  0  0
  148.5328  136.2823  159.8820 C   0  0  0  0  0  0  0  0  0  0  0  0
  149.5448  136.1739  159.0077 N   0  5  0  0  0  0  0  0  0  0  0  0
  150.2572  137.2677  158.6515 C   0  0  0  0  0  0  0  0  0  0  0  0
  150.1851  138.3870  159.1641 O   0  0  0  0  0  0  0  0  0  0  0  0
  151.1077  137.0523  157.6399 N   0  0  0  0  0  0  0  0  0  0  0  0
  152.0007  138.0514  157.0620 C   0  0  0  0  0  0  0  0  0  0  0  0
  151.6914  138.3002  155.5644 C   0  0  2  0  0  0  0  0  0  0  0  0
  153.0049  138.7155  154.8643 C   0  0  0  0  0  0  0  0  0  0  0  0
  150.5747  139.2414  155.3273 N   0  0  0  0  0  0  0  0  0  0  0  0
  150.0550  139.1669  153.9586 C   0  0  0  0  0  0  0  0  0  0  0  0
  148.9036  140.1561  153.7091 C   0  0  0  0  0  0  0  0  0  0  0  0
  149.3356  141.4785  154.0017 O   0  0  0  0  0  0  0  0  0  0  0  0
  149.7843  141.6115  155.3442 C   0  0  0  0  0  0  0  0  0  0  0  0
  150.9429  140.6329  155.6023 C   0  0  0  0  0  0  0  0  0  0  0  0
  148.0585  137.4614  160.2481 N   0  0  0  0  0  0  0  0  0  0  0  0
  147.0197  137.1811  161.1438 O   0  0  0  0  0  0  0  0  0  0  0  0
  145.2885  134.5123  161.7208 H   0  0  0  0  0  0  0  0  0  0  0  0
  145.1383  136.1152  162.4414 H   0  0  0  0  0  0  0  0  0  0  0  0
  146.2833  134.9511  163.1110 H   0  0  0  0  0  0  0  0  0  0  0  0
  147.9928  134.1412  160.3716 H   0  0  0  0  0  0  0  0  0  0  0  0
  151.1437  136.1234  157.2461 H   0  0  0  0  0  0  0  0  0  0  0  0
  151.8938  138.9803  157.6241 H   0  0  0  0  0  0  0  0  0  0  0  0
  153.0387  137.7495  157.2034 H   0  0  0  0  0  0  0  0  0  0  0  0
  151.4089  137.3331  155.1457 H   0  0  0  0  0  0  0  0  0  0  0  0
  153.8290  138.0614  155.1507 H   0  0  0  0  0  0  0  0  0  0  0  0
  153.2906  139.7355  155.1230 H   0  0  0  0  0  0  0  0  0  0  0  0
  152.9303  138.6509  153.7793 H   0  0  0  0  0  0  0  0  0  0  0  0
  150.8590  139.3593  153.2467 H   0  0  0  0  0  0  0  0  0  0  0  0
  149.6768  138.1678  153.7466 H   0  0  0  0  0  0  0  0  0  0  0  0
  148.5834  140.1083  152.6683 H   0  0  0  0  0  0  0  0  0  0  0  0
  148.0377  139.9028  154.3228 H   0  0  0  0  0  0  0  0  0  0  0  0
  150.1118  142.6380  155.5102 H   0  0  0  0  0  0  0  0  0  0  0  0
  148.9591  141.4233  156.0328 H   0  0  0  0  0  0  0  0  0  0  0  0
  151.2452  140.7505  156.6418 H   0  0  0  0  0  0  0  0  0  0  0  0
  151.7999  140.9170  154.9897 H   0  0  0  0  0  0  0  0  0  0  0  0
  1  2  1  0  0  0  0
  1 20  1  0  0  0  0
  1 21  1  0  0  0  0
  1 22  1  0  0  0  0
  2 19  1  0  0  0  0
  2  3  2  0  0  0  0
  3  4  1  0  0  0  0
  3 23  1  0  0  0  0
  4  5  1  0  0  0  0
  4 18  2  0  0  0  0
  5  6  1  0  0  0  0
  6  7  2  0  0  0  0
  6  8  1  0  0  0  0
  8  9  1  0  0  0  0
  8 24  1  0  0  0  0
  9 10  1  0  0  0  0
  9 25  1  0  0  0  0
  9 26  1  0  0  0  0
 10 11  1  0  0  0  0
 10 12  1  0  0  0  0
 10 27  1  0  0  0  0
 11 28  1  0  0  0  0
 11 29  1  0  0  0  0
 11 30  1  0  0  0  0
 12 17  1  0  0  0  0
 12 13  1  0  0  0  0
 13 14  1  0  0  0  0
 13 31  1  0  0  0  0
 13 32  1  0  0  0  0
 14 15  1  0  0  0  0
 14 33  1  0  0  0  0
 14 34  1  0  0  0  0
 15 16  1  0  0  0  0
 16 17  1  0  0  0  0
 16 35  1  0  0  0  0
 16 36  1  0  0  0  0
 17 37  1  0  0  0  0
 17 38  1  0  0  0  0
 18 19  1  0  0  0  0
M  CHG  1   5  -1
M  END
> <s_m_source_file>
AV-unprocessed.smi

> <i_m_source_file_index>
2044

> <i_lp_mmshare_version>
43012

> <i_f3d_flags>
0

> <s_epik_input>
W0NIM11jMVtjSF1jKG5vMSlbTkhdQyg9TylbTkhdW0NIMl1bQ0BIXShbQ0gzXSlOMltDSDJdW0NIMl1PW0NIMl1bQ0gyXTI=

> <s_epik_cmdline>
J2VwaWtfcHl0aG9uJywgJy1waCcsICc3LjAnLCAnLXRuJywgJzgnLCAnLW1hJywgJzIwMCcsICctbWV0YWxfYmluZGluZycsICctaW1hZScsICc8aW5maWxlLm1hZT4nLCAnLW9tYWUnLCAnPG91dGZpbGUubWFlPic=

> <r_epik_Ionization_Penalty>
6.88367

> <r_epik_Ionization_Penalty_Charging>
6.57198

> <r_epik_Ionization_Penalty_Neutral>
0.311681

> <r_epik_State_Penalty>
6.77619

> <r_epik_Charging_Adjusted_Penalty>
13.3482

> <i_epik_Tot_Q>
-1

> <i_epik_Tot_abs_Q>
1

> <r_epik_Metal_State_Penalty>
2.70533

> <b_epik_Metal_Only>
1

> <s_lp_Force_Field>
OPLS_2005

> <r_lp_Energy>
25.764

> <b_lp_Chiralities_Consistent>
1

> <s_lp_Variant>
AV-unprocessed.smi:2044-5

> <Gold.Version>
5.8.1

> <Gold.Id.Protein>
6NUR|6NUR_protein|mol2

> <Gold.PLP.Fitness>
39.5964

> <Gold.PLP.PLP>
-32.6918

> <Gold.PLP.part.hbond>
-7.9589

> <Gold.PLP.part.metal>
0.0000

> <Gold.PLP.part.buried>
2.8730

> <Gold.PLP.part.nonpolar>
-26.9264

> <Gold.PLP.part.repulsive>
0.3128

> <Gold.PLP.ligand.clash>
0.0000

> <Gold.PLP.ligand.torsion>
0.5072

> <Gold.PLP.Chemscore.Hbond>
2.6224

> <Gold.PLP.Chemscore.CHOScore>
0.0000

> <Gold.PLP.Chemscore.Metal>
0.0000

> <Gold.Chemscore.Hbonds>
donor molecule, donor type, donor heavy atom, donor atom, acceptor molecule, acceptor atom, score
      P1  H  6896  6907       L1     5  2.00
      P1  H  6931  6943       L1    18  0.15
      P1  H  8011  8017       L1    15  0.69

> <Gold.PLP.Chemscore.Internal.Correction>
0.0517

> <Gold.Rescore>
     Score         DG    S(hbond)    S(metal)    S(lipo)     H(rot)  DE(clash)    DE(int)     intcor
     10.72     -14.79       1.54        0.00      69.62       1.55       1.89       2.18       ----

> <Gold.Chemscore.Fitness>
10.7186

> <Gold.Chemscore.DG>
-14.7937

> <Gold.Chemscore.ZeroCoef>
-5.4800

> <Gold.Chemscore.Hbond>
1.5356

> <Gold.Chemscore.Metal>
0.0000

> <Gold.Chemscore.Lipo>
69.6152

> <Gold.Chemscore.Internal_Hbond>
0.0000

> <Gold.Chemscore.DEClash>
1.8905

> <Gold.Chemscore.DEInternal>
2.1846

> <Gold.Chemscore.Rot>
1.5470

> <Gold.Chemscore.Internal.Correction>
   9.000000E+99

> <Gold.Chemscore.Hbonds>
donor molecule, donor type, donor heavy atom, donor atom, acceptor molecule, acceptor atom, score
      P1  H  6896  6907       L1     5  0.45
      P1  H  8011  8017       L1    15  0.51

> <Gold.Chemscore.Hbond.Weighted>
-5.1290

> <Gold.Chemscore.Metal.Weighted>
-0.0000

> <Gold.Chemscore.Lipo.Weighted>
-8.1450

> <Gold.Chemscore.Internal_Hbond.Weighted>
0.0000

> <Gold.Chemscore.DEClash.Weighted>
1.8905

> <Gold.Chemscore.DEInternal.Weighted>
2.1846

> <Gold.Chemscore.Rot.Weighted>
3.9603

> <Gold.Chemscore.Internal.Correction.Weighted>
   9.000000E+99

> <Gold.Protein.RotatedTorsions>
[ 6907 6896 6895 6894 ] final  -55.70 input  -60.11 | X-H torsion
[ 7974 7965 7964 7962 ] final  168.69 input  175.53 | X-H torsion
[ 8008 7997 7996 7995 ] final   62.15 input   59.86 | X-H torsion
[ 10167 10162 10161 10158 ] final -163.03 input  -65.29 | X-H torsion
[ 10718 10713 10712 10709 ] final  107.74 input   66.30 | X-H torsion
[ 10763 10752 10751 10750 ] final   20.72 input  -60.55 | X-H torsion
[ 11005 11000 10999 10996 ] final  -43.37 input  -57.11 | X-H torsion

> <Gold.Protein.ActiveResidues>
 VAL166  LYS551  ARG553  GLY616  TRP617  ASP618  TYR619  PRO620  LYS621  CYS622 
 ASP623  PHE694  ASN695  SER759  ASP760  ASP761  ALA762  ILE779  LEU786  VAL792 
 PHE793  MET794  SER795  GLU796  ALA797  LYS798  CYS799  TRP800  GLU811  SER814 

> <Gold.Protein.RotatedAtoms>
  150.8230  134.7447  159.6788 H   0  0  0  0  0  0  0  0  0  0  0  0  # atno 6907 bound_to 6896
  152.4343  134.5713  159.9932 H   0  0  0  0  0  0  0  0  0  0  0  0  # atno 6908 bound_to 6896
  151.5892  133.3331  159.3060 H   0  0  0  0  0  0  0  0  0  0  0  0  # atno 6909 bound_to 6896
  144.7380  139.8945  143.6405 H   0  0  0  0  0  0  0  0  0  0  0  0  # atno 7974 bound_to 7965
  155.6098  140.3495  155.4619 H   0  0  0  0  0  0  0  0  0  0  0  0  # atno 8008 bound_to 7997
  156.0163  140.1244  157.0427 H   0  0  0  0  0  0  0  0  0  0  0  0  # atno 8009 bound_to 7997
  154.4299  140.1071  156.5887 H   0  0  0  0  0  0  0  0  0  0  0  0  # atno 8010 bound_to 7997
  139.6350  144.0367  152.2047 H   0  0  0  0  0  0  0  0  0  0  0  0  # atno 10167 bound_to 10162
  157.6616  131.0879  150.6202 H   0  0  0  0  0  0  0  0  0  0  0  0  # atno 10718 bound_to 10713
  153.1054  135.6683  153.9597 H   0  0  0  0  0  0  0  0  0  0  0  0  # atno 10763 bound_to 10752
  153.9155  135.3020  155.3449 H   0  0  0  0  0  0  0  0  0  0  0  0  # atno 10764 bound_to 10752
  154.7475  135.5050  153.9306 H   0  0  0  0  0  0  0  0  0  0  0  0  # atno 10765 bound_to 10752
  141.0379  133.6792  156.2724 H   0  0  0  0  0  0  0  0  0  0  0  0  # atno 11005 bound_to 11000
  146.1117  139.4123  143.0283 LP  0  0  0  0  0  0  0  0  0  0  0  0  # atno 17320 bound_to 7965
  145.7433  141.0000  143.1289 LP  0  0  0  0  0  0  0  0  0  0  0  0  # atno 17321 bound_to 7965
  140.0042  144.6271  150.7703 LP  0  0  0  0  0  0  0  0  0  0  0  0  # atno 17342 bound_to 10162
  140.7460  143.2884  151.3398 LP  0  0  0  0  0  0  0  0  0  0  0  0  # atno 17343 bound_to 10162
  156.6504  130.4483  149.5721 LP  0  0  0  0  0  0  0  0  0  0  0  0  # atno 17370 bound_to 10713
  156.2142  130.6697  151.1301 LP  0  0  0  0  0  0  0  0  0  0  0  0  # atno 17371 bound_to 10713
  140.6288  134.5285  157.5557 LP  0  0  0  0  0  0  0  0  0  0  0  0  # atno 17394 bound_to 11000
  139.9254  134.8066  156.1084 LP  0  0  0  0  0  0  0  0  0  0  0  0  # atno 17395 bound_to 11000

$$$$
