AV-unprocessed.smi:72|AV-procd|sdf|753|dock6
  -GOLD-   2262017 93D 1   1.00000     0.00000
 Structure written by MMmdl.
 29 30  0  0  0  0  0  0  0  0  1 V2000
  154.1713  138.1764  154.6904 N   0  0  0  0  0  0  0  0  0  0  0  0
  152.8331  138.5030  154.7606 C   0  0  0  0  0  0  0  0  0  0  0  0
  151.9371  137.5846  154.1967 N   0  0  0  0  0  0  0  0  0  0  0  0
  150.6788  137.8852  154.2629 C   0  0  0  0  0  0  0  0  0  0  0  0
  150.2287  139.1164  154.8905 N   0  0  0  0  0  0  0  0  0  0  0  0
  148.7602  139.4951  154.9869 C   0  0  2  0  0  0  0  0  0  0  0  0
  147.9637  138.4650  154.4756 O   0  0  0  0  0  0  0  0  0  0  0  0
  147.3972  138.8539  153.2276 C   0  0  1  0  0  0  0  0  0  0  0  0
  146.1337  138.0358  152.9091 C   0  0  0  0  0  0  0  0  0  0  0  0
  146.2464  137.4468  151.6311 O   0  0  0  0  0  0  0  0  0  0  0  0
  147.1829  140.3622  153.4042 C   0  0  1  0  0  0  0  0  0  0  0  0
  145.9964  140.6293  154.1302 O   0  0  0  0  0  0  0  0  0  0  0  0
  148.4053  140.7859  154.2077 C   0  0  2  0  0  0  0  0  0  0  0  0
  149.4246  141.2244  153.3258 O   0  0  0  0  0  0  0  0  0  0  0  0
  151.1949  140.0045  155.4383 C   0  0  0  0  0  0  0  0  0  0  0  0
  150.8361  141.0588  155.9628 O   0  0  0  0  0  0  0  0  0  0  0  0
  152.5404  139.6303  155.3430 N   0  0  0  0  0  0  0  0  0  0  0  0
  148.5477  139.5670  156.0549 H   0  0  0  0  0  0  0  0  0  0  0  0
  148.1392  138.7129  152.4397 H   0  0  0  0  0  0  0  0  0  0  0  0
  147.1112  140.8765  152.4447 H   0  0  0  0  0  0  0  0  0  0  0  0
  148.1867  141.5926  154.9087 H   0  0  0  0  0  0  0  0  0  0  0  0
  154.9049  138.7618  155.0625 H   0  0  0  0  0  0  0  0  0  0  0  0
  154.5164  137.3305  154.2607 H   0  0  0  0  0  0  0  0  0  0  0  0
  149.8972  137.2424  153.8583 H   0  0  0  0  0  0  0  0  0  0  0  0
  145.9545  137.2692  153.6636 H   0  0  0  0  0  0  0  0  0  0  0  0
  145.2595  138.6874  152.8907 H   0  0  0  0  0  0  0  0  0  0  0  0
  147.1152  137.0861  151.5413 H   0  0  0  0  0  0  0  0  0  0  0  0
  145.2598  140.3207  153.6252 H   0  0  0  0  0  0  0  0  0  0  0  0
  149.5956  140.5358  152.7014 H   0  0  0  0  0  0  0  0  0  0  0  0
  1  2  1  0  0  0  0
  1 22  1  0  0  0  0
  1 23  1  0  0  0  0
  2 17  2  0  0  0  0
  2  3  1  0  0  0  0
  3  4  2  0  0  0  0
  4  5  1  0  0  0  0
  4 24  1  0  0  0  0
  5  6  1  0  0  0  0
  5 15  1  0  0  0  0
  6 18  1  0  0  0  0
  6 13  1  0  0  0  0
  6  7  1  0  0  0  0
  7  8  1  0  0  0  0
  8 19  1  0  0  0  0
  8  9  1  0  0  0  0
  8 11  1  0  0  0  0
  9 10  1  0  0  0  0
  9 25  1  0  0  0  0
  9 26  1  0  0  0  0
 10 27  1  0  0  0  0
 11 20  1  0  0  0  0
 11 12  1  0  0  0  0
 11 13  1  0  0  0  0
 12 28  1  0  0  0  0
 13 21  1  0  0  0  0
 13 14  1  0  0  0  0
 14 29  1  0  0  0  0
 15 16  2  0  0  0  0
 15 17  1  0  0  0  0
M  END
> <s_m_source_file>
AV-unprocessed.smi

> <i_m_source_file_index>
72

> <i_lp_mmshare_version>
43012

> <i_f3d_flags>
0

> <s_epik_input>
W05IMl1jMW5bY0hdbihjKD1PKW4xKVtDQEBIXTJPW0NASF0oW0NIMl1bT0hdKVtDQEBIXShbT0hdKVtDQEhdMltPSF0=

> <s_epik_cmdline>
J2VwaWtfcHl0aG9uJywgJy1waCcsICc3LjAnLCAnLXRuJywgJzgnLCAnLW1hJywgJzIwMCcsICctbWV0YWxfYmluZGluZycsICctaW1hZScsICc8aW5maWxlLm1hZT4nLCAnLW9tYWUnLCAnPG91dGZpbGUubWFlPic=

> <r_lp_tautomer_probability>
4.77166e-05

> <r_epik_Ionization_Penalty>
1.3546

> <r_epik_Ionization_Penalty_Charging>
1.46833e-10

> <r_epik_Ionization_Penalty_Neutral>
1.3546

> <r_epik_State_Penalty>
3.51908

> <r_epik_Charging_Adjusted_Penalty>
3.51908

> <i_epik_Tot_Q>
0

> <i_epik_Tot_abs_Q>
0

> <r_epik_Metal_State_Penalty>
3.44088

> <b_epik_Metal_Only>
1

> <s_epik_Chemistry_Notes>
This compound contains an acetal/aminal-like group ( X-CH(R)-Y where X, Y are N, S, or O) that may be acid/base labile, releasing an aldehyde.

> <s_lp_Force_Field>
OPLS_2005

> <r_lp_Energy>
33.7938

> <b_lp_Chiralities_Consistent>
1

> <s_lp_Variant>
AV-unprocessed.smi:72-91

> <Gold.Version>
5.8.1

> <Gold.Id.Protein>
6NUR|6NUR_protein|mol2

> <Gold.PLP.Fitness>
46.0702

> <Gold.PLP.PLP>
-29.2026

> <Gold.PLP.part.hbond>
-7.8474

> <Gold.PLP.part.metal>
0.0000

> <Gold.PLP.part.buried>
-3.3218

> <Gold.PLP.part.nonpolar>
-21.0863

> <Gold.PLP.part.repulsive>
1.4160

> <Gold.PLP.ligand.clash>
0.0000

> <Gold.PLP.ligand.torsion>
0.7632

> <Gold.PLP.Chemscore.Hbond>
5.1154

> <Gold.PLP.Chemscore.CHOScore>
1.0000

> <Gold.PLP.Chemscore.Metal>
0.0000

> <Gold.Chemscore.Hbonds>
donor molecule, donor type, donor heavy atom, donor atom, acceptor molecule, acceptor atom, score
      L1  H    10    27       P1  7948  1.00
      L1  H    12    28       P1 10175  1.00
      L1  H    14    29       P1  7957  0.96
      P1  H  7997  8009       L1    17  0.90
      P1  H  8011  8017       L1    14  0.75
      P1  H 10752 10765       L1     3  0.62
      L1  C     4    24       P1  7948  1.00

> <Gold.PLP.Chemscore.Internal.Correction>
0.0477

> <Gold.Rescore>
     Score         DG    S(hbond)    S(metal)    S(lipo)     H(rot)  DE(clash)    DE(int)     intcor
      3.96      -9.81       3.46        0.00      27.10       4.06       1.56       4.29       ----

> <Gold.Chemscore.Fitness>
3.9578

> <Gold.Chemscore.DG>
-9.8078

> <Gold.Chemscore.ZeroCoef>
-5.4800

> <Gold.Chemscore.Hbond>
3.4584

> <Gold.Chemscore.Metal>
0.0000

> <Gold.Chemscore.Lipo>
27.0970

> <Gold.Chemscore.Internal_Hbond>
0.0000

> <Gold.Chemscore.DEClash>
1.5646

> <Gold.Chemscore.DEInternal>
4.2854

> <Gold.Chemscore.Rot>
4.0600

> <Gold.Chemscore.Internal.Correction>
   9.000000E+99

> <Gold.Chemscore.Hbonds>
donor molecule, donor type, donor heavy atom, donor atom, acceptor molecule, acceptor atom, score
      L1  H    10    27       P1  7948  0.94
      L1  H    12    28       P1 10175  0.97
      L1  H    14    29       P1  7957  0.91
      P1  H  7997  8009       L1    17  0.19
      P1  H  8011  8017       L1    14  0.09
      P1  H 10752 10765       L1     3  0.31

> <Gold.Chemscore.Hbond.Weighted>
-11.5511

> <Gold.Chemscore.Metal.Weighted>
-0.0000

> <Gold.Chemscore.Lipo.Weighted>
-3.1704

> <Gold.Chemscore.Internal_Hbond.Weighted>
0.0000

> <Gold.Chemscore.DEClash.Weighted>
1.5646

> <Gold.Chemscore.DEInternal.Weighted>
4.2854

> <Gold.Chemscore.Rot.Weighted>
10.3936

> <Gold.Chemscore.Internal.Correction.Weighted>
   9.000000E+99

> <Gold.Protein.RotatedTorsions>
[ 6907 6896 6895 6894 ] final  147.50 input  -60.11 | X-H torsion
[ 7974 7965 7964 7962 ] final  161.87 input  175.53 | X-H torsion
[ 8008 7997 7996 7995 ] final -139.30 input   59.86 | X-H torsion
[ 10167 10162 10161 10158 ] final   30.34 input  -65.29 | X-H torsion
[ 10718 10713 10712 10709 ] final -128.58 input   66.30 | X-H torsion
[ 10763 10752 10751 10750 ] final  159.48 input  -60.55 | X-H torsion
[ 11005 11000 10999 10996 ] final  -42.98 input  -57.11 | X-H torsion

> <Gold.Protein.ActiveResidues>
 VAL166  LYS551  ARG553  GLY616  TRP617  ASP618  TYR619  PRO620  LYS621  CYS622 
 ASP623  PHE694  ASN695  SER759  ASP760  ASP761  ALA762  ILE779  LEU786  VAL792 
 PHE793  MET794  SER795  GLU796  ALA797  LYS798  CYS799  TRP800  GLU811  SER814 

> <Gold.Protein.RotatedAtoms>
  152.1540  133.4539  159.4827 H   0  0  0  0  0  0  0  0  0  0  0  0  # atno 6907 bound_to 6896
  150.6899  134.2154  159.4385 H   0  0  0  0  0  0  0  0  0  0  0  0  # atno 6908 bound_to 6896
  152.0053  134.9906  160.0617 H   0  0  0  0  0  0  0  0  0  0  0  0  # atno 6909 bound_to 6896
  144.7664  139.7959  143.6313 H   0  0  0  0  0  0  0  0  0  0  0  0  # atno 7974 bound_to 7965
  155.4425  140.0533  157.3009 H   0  0  0  0  0  0  0  0  0  0  0  0  # atno 8008 bound_to 7997
  154.4812  140.2082  155.9717 H   0  0  0  0  0  0  0  0  0  0  0  0  # atno 8009 bound_to 7997
  156.1208  140.3188  155.8210 H   0  0  0  0  0  0  0  0  0  0  0  0  # atno 8010 bound_to 7997
  140.4687  144.0796  150.6231 H   0  0  0  0  0  0  0  0  0  0  0  0  # atno 10167 bound_to 10162
  156.1964  130.6829  151.0487 H   0  0  0  0  0  0  0  0  0  0  0  0  # atno 10718 bound_to 10713
  154.2324  135.2778  155.2885 H   0  0  0  0  0  0  0  0  0  0  0  0  # atno 10763 bound_to 10752
  154.5612  135.5646  153.7013 H   0  0  0  0  0  0  0  0  0  0  0  0  # atno 10764 bound_to 10752
  153.0017  135.6298  154.2467 H   0  0  0  0  0  0  0  0  0  0  0  0  # atno 10765 bound_to 10752
  141.0353  133.6802  156.2670 H   0  0  0  0  0  0  0  0  0  0  0  0  # atno 11005 bound_to 11000
  146.1776  139.4953  142.9887 LP  0  0  0  0  0  0  0  0  0  0  0  0  # atno 17320 bound_to 7965
  145.6456  141.0275  143.1788 LP  0  0  0  0  0  0  0  0  0  0  0  0  # atno 17321 bound_to 7965
  140.4004  143.2706  151.9954 LP  0  0  0  0  0  0  0  0  0  0  0  0  # atno 17342 bound_to 10162
  139.4815  144.6002  151.7619 LP  0  0  0  0  0  0  0  0  0  0  0  0  # atno 17343 bound_to 10162
  157.6960  131.0794  150.6967 LP  0  0  0  0  0  0  0  0  0  0  0  0  # atno 17370 bound_to 10713
  156.7024  130.4627  149.5569 LP  0  0  0  0  0  0  0  0  0  0  0  0  # atno 17371 bound_to 10713
  140.6333  134.5241  157.5562 LP  0  0  0  0  0  0  0  0  0  0  0  0  # atno 17394 bound_to 11000
  139.9236  134.8099  156.1135 LP  0  0  0  0  0  0  0  0  0  0  0  0  # atno 17395 bound_to 11000

$$$$
