AV-unprocessed.smi:1809|AV-procd|sdf|7325|dock8
  -GOLD-   22720 8583D 1   1.00000     0.00000
 Structure written by MMmdl.
 39 41  0  0  0  0  0  0  0  0  3 V2000
  135.0814  138.2685  154.6596 C   0  0  0  0  0  0  0  0  0  0  0  0
  136.5634  138.4222  154.6741 C   0  0  0  0  0  0  0  0  0  0  0  0
  137.1730  139.5004  155.1729 N   0  0  0  0  0  0  0  0  0  0  0  0
  138.5539  139.4130  155.0730 N   0  0  0  0  0  0  0  0  0  0  0  0
  138.9680  138.2791  154.4897 C   0  0  0  0  0  0  0  0  0  0  0  0
  140.2682  138.0002  154.2983 N   0  5  0  0  0  0  0  0  0  0  0  0
  140.6713  136.7161  154.1702 C   0  0  0  0  0  0  0  0  0  0  0  0
  139.9548  135.7138  154.2201 O   0  0  0  0  0  0  0  0  0  0  0  0
  141.9886  136.5834  153.9722 N   0  0  0  0  0  0  0  0  0  0  0  0
  142.6856  135.3162  153.8007 C   0  0  0  0  0  0  0  0  0  0  0  0
  143.1506  135.1472  152.3482 C   0  0  2  0  0  0  0  0  0  0  0  0
  143.1408  133.6731  151.9125 C   0  0  0  0  0  0  0  0  0  0  0  0
  143.6404  133.5132  150.5234 N   0  3  2  0  0  0  0  0  0  0  0  0
  143.9182  132.1000  150.1870 C   0  0  0  0  0  0  0  0  0  0  0  0
  145.4232  131.8794  150.4245 C   0  0  0  0  0  0  0  0  0  0  0  0
  146.0008  133.2637  150.7445 C   0  0  0  0  0  0  0  0  0  0  0  0
  144.9107  134.2301  150.2784 C   0  0  2  0  0  0  0  0  0  0  0  0
  144.9440  135.6399  150.9034 C   0  0  0  0  0  0  0  0  0  0  0  0
  144.4903  135.6142  152.2485 O   0  0  0  0  0  0  0  0  0  0  0  0
  137.6494  137.2013  154.0323 S   0  0  0  0  0  0  0  0  0  0  0  0
  134.6568  138.8341  153.8301 H   0  0  0  0  0  0  0  0  0  0  0  0
  134.6542  138.6369  155.5926 H   0  0  0  0  0  0  0  0  0  0  0  0
  134.8107  137.2190  154.5427 H   0  0  0  0  0  0  0  0  0  0  0  0
  142.5435  137.4258  153.9409 H   0  0  0  0  0  0  0  0  0  0  0  0
  143.5380  135.2669  154.4804 H   0  0  0  0  0  0  0  0  0  0  0  0
  142.0083  134.5048  154.0717 H   0  0  0  0  0  0  0  0  0  0  0  0
  142.4980  135.7308  151.6954 H   0  0  0  0  0  0  0  0  0  0  0  0
  143.7590  133.0905  152.5978 H   0  0  0  0  0  0  0  0  0  0  0  0
  142.1310  133.2659  151.9752 H   0  0  0  0  0  0  0  0  0  0  0  0
  143.2974  131.4035  150.7525 H   0  0  0  0  0  0  0  0  0  0  0  0
  143.6905  131.9511  149.1308 H   0  0  0  0  0  0  0  0  0  0  0  0
  145.6008  131.1869  151.2481 H   0  0  0  0  0  0  0  0  0  0  0  0
  145.8893  131.4566  149.5339 H   0  0  0  0  0  0  0  0  0  0  0  0
  146.1560  133.3595  151.8201 H   0  0  0  0  0  0  0  0  0  0  0  0
  146.9580  133.4436  150.2542 H   0  0  0  0  0  0  0  0  0  0  0  0
  145.0131  134.3375  149.1971 H   0  0  0  0  0  0  0  0  0  0  0  0
  145.9561  136.0436  150.8738 H   0  0  0  0  0  0  0  0  0  0  0  0
  144.3201  136.3246  150.3267 H   0  0  0  0  0  0  0  0  0  0  0  0
  142.9323  133.8784  149.9022 H   0  0  0  0  0  0  0  0  0  0  0  0
  1  2  1  0  0  0  0
  1 21  1  0  0  0  0
  1 22  1  0  0  0  0
  1 23  1  0  0  0  0
  2 20  1  0  0  0  0
  2  3  2  0  0  0  0
  3  4  1  0  0  0  0
  4  5  2  0  0  0  0
  5  6  1  0  0  0  0
  5 20  1  0  0  0  0
  6  7  1  0  0  0  0
  7  8  2  0  0  0  0
  7  9  1  0  0  0  0
  9 10  1  0  0  0  0
  9 24  1  0  0  0  0
 10 11  1  0  0  0  0
 10 25  1  0  0  0  0
 10 26  1  0  0  0  0
 11 19  1  0  0  0  0
 11 12  1  0  0  0  0
 11 27  1  0  0  0  0
 12 13  1  0  0  0  0
 12 28  1  0  0  0  0
 12 29  1  0  0  0  0
 13 17  1  0  0  0  0
 13 14  1  0  0  0  0
 13 39  1  0  0  0  0
 14 15  1  0  0  0  0
 14 30  1  0  0  0  0
 14 31  1  0  0  0  0
 15 16  1  0  0  0  0
 15 32  1  0  0  0  0
 15 33  1  0  0  0  0
 16 17  1  0  0  0  0
 16 34  1  0  0  0  0
 16 35  1  0  0  0  0
 17 18  1  0  0  0  0
 17 36  1  0  0  0  0
 18 19  1  0  0  0  0
 18 37  1  0  0  0  0
 18 38  1  0  0  0  0
M  CHG  1   6  -1
M  CHG  1  13   1
M  END
> <s_m_source_file>
AV-unprocessed.smi

> <i_m_source_file_index>
1809

> <i_lp_mmshare_version>
43012

> <i_f3d_flags>
0

> <s_epik_input>
W0NIM11jMW5uYyhzMSlbTkhdQyg9TylbTkhdW0NIMl1bQ0BIXShbQ0gyXTIpT1tDSDJdW0NAQEhdKE4yMylbQ0gyXVtDSDJdW0NIMl0z

> <s_epik_cmdline>
J2VwaWtfcHl0aG9uJywgJy1waCcsICc3LjAnLCAnLXRuJywgJzgnLCAnLW1hJywgJzIwMCcsICctbWV0YWxfYmluZGluZycsICctaW1hZScsICc8aW5maWxlLm1hZT4nLCAnLW9tYWUnLCAnPG91dGZpbGUubWFlPic=

> <r_lp_tautomer_probability>
1

> <r_epik_Ionization_Penalty>
3.2601

> <r_epik_Ionization_Penalty_Charging>
3.1406

> <r_epik_Ionization_Penalty_Neutral>
0.119497

> <r_epik_State_Penalty>
3.08894

> <r_epik_Charging_Adjusted_Penalty>
6.22954

> <i_epik_Tot_Q>
0

> <i_epik_Tot_abs_Q>
2

> <r_epik_Metal_State_Penalty>
0.510807

> <b_epik_Metal_Only>
1

> <s_lp_Force_Field>
OPLS_2005

> <r_lp_Energy>
31.3106

> <b_lp_Chiralities_Consistent>
1

> <s_lp_Variant>
AV-unprocessed.smi:1809-17

> <Gold.Version>
5.8.1

> <Gold.Id.Protein>
6NUR|6NUR_protein|mol2

> <Gold.PLP.Fitness>
41.6699

> <Gold.PLP.PLP>
-33.8796

> <Gold.PLP.part.hbond>
-2.5688

> <Gold.PLP.part.metal>
0.0000

> <Gold.PLP.part.buried>
-4.6137

> <Gold.PLP.part.nonpolar>
-27.4338

> <Gold.PLP.part.repulsive>
0.3315

> <Gold.PLP.ligand.clash>
0.0000

> <Gold.PLP.ligand.torsion>
0.6123

> <Gold.PLP.Chemscore.Hbond>
3.0000

> <Gold.PLP.Chemscore.CHOScore>
0.0000

> <Gold.PLP.Chemscore.Metal>
0.0000

> <Gold.Chemscore.Hbonds>
donor molecule, donor type, donor heavy atom, donor atom, acceptor molecule, acceptor atom, score
      L1  H    13    39       P1 10186  2.00
      P1  H 11000 11005       L1     8  1.00

> <Gold.PLP.Chemscore.Internal.Correction>
0.0149

> <Gold.Rescore>
     Score         DG    S(hbond)    S(metal)    S(lipo)     H(rot)  DE(clash)    DE(int)     intcor
     15.75     -17.86       1.97        0.00      78.43       1.32       0.05       2.06       ----

> <Gold.Chemscore.Fitness>
15.7485

> <Gold.Chemscore.DG>
-17.8554

> <Gold.Chemscore.ZeroCoef>
-5.4800

> <Gold.Chemscore.Hbond>
1.9730

> <Gold.Chemscore.Metal>
0.0000

> <Gold.Chemscore.Lipo>
78.4329

> <Gold.Chemscore.Internal_Hbond>
0.0000

> <Gold.Chemscore.DEClash>
0.0504

> <Gold.Chemscore.DEInternal>
2.0566

> <Gold.Chemscore.Rot>
1.3246

> <Gold.Chemscore.Internal.Correction>
   9.000000E+99

> <Gold.Chemscore.Hbonds>
donor molecule, donor type, donor heavy atom, donor atom, acceptor molecule, acceptor atom, score
      L1  H    13    39       P1 10186  0.88
      P1  H 11000 11005       L1     8  0.93

> <Gold.Chemscore.Hbond.Weighted>
-6.5898

> <Gold.Chemscore.Metal.Weighted>
-0.0000

> <Gold.Chemscore.Lipo.Weighted>
-9.1766

> <Gold.Chemscore.Internal_Hbond.Weighted>
0.0000

> <Gold.Chemscore.DEClash.Weighted>
0.0504

> <Gold.Chemscore.DEInternal.Weighted>
2.0566

> <Gold.Chemscore.Rot.Weighted>
3.3910

> <Gold.Chemscore.Internal.Correction.Weighted>
   9.000000E+99

> <Gold.Protein.RotatedTorsions>
[ 6907 6896 6895 6894 ] final    7.29 input  -60.11 | X-H torsion
[ 7974 7965 7964 7962 ] final  137.84 input  175.53 | X-H torsion
[ 8008 7997 7996 7995 ] final  -28.20 input   59.86 | X-H torsion
[ 10167 10162 10161 10158 ] final  123.34 input  -65.29 | X-H torsion
[ 10718 10713 10712 10709 ] final    8.98 input   66.30 | X-H torsion
[ 10763 10752 10751 10750 ] final  107.18 input  -60.55 | X-H torsion
[ 11005 11000 10999 10996 ] final   52.37 input  -57.11 | X-H torsion

> <Gold.Protein.ActiveResidues>
 VAL166  LYS551  ARG553  GLY616  TRP617  ASP618  TYR619  PRO620  LYS621  CYS622 
 ASP623  PHE694  ASN695  SER759  ASP760  ASP761  ALA762  ILE779  LEU786  VAL792 
 PHE793  MET794  SER795  GLU796  ALA797  LYS798  CYS799  TRP800  GLU811  SER814 

> <Gold.Protein.RotatedAtoms>
  151.6876  135.0952  160.0227 H   0  0  0  0  0  0  0  0  0  0  0  0  # atno 6907 bound_to 6896
  152.3798  133.6526  159.6161 H   0  0  0  0  0  0  0  0  0  0  0  0  # atno 6908 bound_to 6896
  150.7738  133.9049  159.3393 H   0  0  0  0  0  0  0  0  0  0  0  0  # atno 6909 bound_to 6896
  144.9430  139.4909  143.5563 H   0  0  0  0  0  0  0  0  0  0  0  0  # atno 7974 bound_to 7965
  154.4343  140.1852  156.1051 H   0  0  0  0  0  0  0  0  0  0  0  0  # atno 8008 bound_to 7997
  156.0261  140.3335  155.7064 H   0  0  0  0  0  0  0  0  0  0  0  0  # atno 8009 bound_to 7997
  155.5906  140.0630  157.2750 H   0  0  0  0  0  0  0  0  0  0  0  0  # atno 8010 bound_to 7997
  139.5805  144.6984  151.3540 H   0  0  0  0  0  0  0  0  0  0  0  0  # atno 10167 bound_to 10162
  156.9596  130.5927  149.5661 H   0  0  0  0  0  0  0  0  0  0  0  0  # atno 10718 bound_to 10713
  153.4032  135.3852  155.2001 H   0  0  0  0  0  0  0  0  0  0  0  0  # atno 10763 bound_to 10752
  154.8731  135.3776  154.4592 H   0  0  0  0  0  0  0  0  0  0  0  0  # atno 10764 bound_to 10752
  153.5092  135.7087  153.5852 H   0  0  0  0  0  0  0  0  0  0  0  0  # atno 10765 bound_to 10752
  140.0855  134.5280  155.8903 H   0  0  0  0  0  0  0  0  0  0  0  0  # atno 11005 bound_to 11000
  146.3293  139.8462  142.8881 LP  0  0  0  0  0  0  0  0  0  0  0  0  # atno 17320 bound_to 7965
  145.2962  141.0181  143.3635 LP  0  0  0  0  0  0  0  0  0  0  0  0  # atno 17321 bound_to 7965
  140.7084  143.7455  150.7522 LP  0  0  0  0  0  0  0  0  0  0  0  0  # atno 17342 bound_to 10162
  140.0986  143.4809  152.2438 LP  0  0  0  0  0  0  0  0  0  0  0  0  # atno 17343 bound_to 10162
  156.0328  130.5418  150.8578 LP  0  0  0  0  0  0  0  0  0  0  0  0  # atno 17370 bound_to 10713
  157.5667  131.0946  150.9479 LP  0  0  0  0  0  0  0  0  0  0  0  0  # atno 17371 bound_to 10713
  141.2061  133.6652  156.6222 LP  0  0  0  0  0  0  0  0  0  0  0  0  # atno 17394 bound_to 11000
  140.3426  134.7836  157.4409 LP  0  0  0  0  0  0  0  0  0  0  0  0  # atno 17395 bound_to 11000

$$$$
