AV-unprocessed.smi:2850|AV-procd|sdf|10965|dock2
  -GOLD-   2272015413D 1   1.00000     0.00000
 Structure written by MMmdl.
 45 46  0  0  0  0  0  0  0  0  2 V2000
  149.0076  132.6829  153.9073 C   0  0  0  0  0  0  0  0  0  0  0  0
  150.3894  132.4967  155.0680 S   0  0  0  0  0  0  0  0  0  0  0  0
  150.6917  134.0850  155.7813 C   0  0  0  0  0  0  0  0  0  0  0  0
  150.0613  135.2323  155.2678 C   0  0  0  0  0  0  0  0  0  0  0  0
  150.3533  136.4559  155.8951 C   0  0  0  0  0  0  0  0  0  0  0  0
  151.2484  136.4379  156.9839 C   0  0  0  0  0  0  0  0  0  0  0  0
  151.5480  137.6455  157.6304 N   0  0  0  0  0  0  0  0  0  0  0  0
  152.8743  137.9225  158.1710 C   0  0  0  0  0  0  0  0  0  0  0  0
  152.9195  139.1868  159.0495 C   0  0  2  0  0  0  0  0  0  0  0  0
  152.0561  140.3380  158.4928 C   0  0  0  0  0  0  0  0  0  0  0  0
  152.1995  141.5485  159.3354 N   0  3  2  0  0  0  0  0  0  0  0  0
  151.3208  142.6600  158.8891 C   0  0  0  0  0  0  0  0  0  0  0  0
  151.8548  144.0531  159.2878 C   0  0  0  0  0  0  0  0  0  0  0  0
  150.7176  145.0248  159.6466 C   0  0  0  0  0  0  0  0  0  0  0  0
  152.7247  144.6386  158.1655 C   0  0  0  0  0  0  0  0  0  0  0  0
  153.6291  141.9258  159.4545 C   0  0  0  0  0  0  0  0  0  0  0  0
  154.4542  140.7343  159.9670 C   0  0  0  0  0  0  0  0  0  0  0  0
  154.2742  139.6207  159.1012 O   0  0  0  0  0  0  0  0  0  0  0  0
  151.8204  135.2879  157.4227 N   0  0  0  0  0  0  0  0  0  0  0  0
  151.5450  134.1208  156.8301 N   0  0  0  0  0  0  0  0  0  0  0  0
  148.7798  131.7250  153.4401 H   0  0  0  0  0  0  0  0  0  0  0  0
  149.2597  133.3971  153.1231 H   0  0  0  0  0  0  0  0  0  0  0  0
  148.1161  133.0334  154.4280 H   0  0  0  0  0  0  0  0  0  0  0  0
  149.3827  135.1779  154.4295 H   0  0  0  0  0  0  0  0  0  0  0  0
  149.9020  137.3750  155.5513 H   0  0  0  0  0  0  0  0  0  0  0  0
  150.8300  138.3493  157.7256 H   0  0  0  0  0  0  0  0  0  0  0  0
  153.2203  137.0580  158.7390 H   0  0  0  0  0  0  0  0  0  0  0  0
  153.5660  138.0311  157.3351 H   0  0  0  0  0  0  0  0  0  0  0  0
  152.5935  138.9398  160.0611 H   0  0  0  0  0  0  0  0  0  0  0  0
  152.3458  140.5691  157.4662 H   0  0  0  0  0  0  0  0  0  0  0  0
  151.0084  140.0356  158.4713 H   0  0  0  0  0  0  0  0  0  0  0  0
  151.1817  142.5953  157.8088 H   0  0  0  0  0  0  0  0  0  0  0  0
  150.3301  142.5363  159.3296 H   0  0  0  0  0  0  0  0  0  0  0  0
  152.4986  143.9528  160.1612 H   0  0  0  0  0  0  0  0  0  0  0  0
  150.0362  145.1667  158.8071 H   0  0  0  0  0  0  0  0  0  0  0  0
  151.1117  146.0035  159.9221 H   0  0  0  0  0  0  0  0  0  0  0  0
  150.1332  144.6628  160.4928 H   0  0  0  0  0  0  0  0  0  0  0  0
  152.1488  144.7828  157.2508 H   0  0  0  0  0  0  0  0  0  0  0  0
  153.5623  143.9809  157.9314 H   0  0  0  0  0  0  0  0  0  0  0  0
  153.1389  145.6056  158.4527 H   0  0  0  0  0  0  0  0  0  0  0  0
  154.0053  142.2481  158.4824 H   0  0  0  0  0  0  0  0  0  0  0  0
  153.7505  142.7649  160.1384 H   0  0  0  0  0  0  0  0  0  0  0  0
  155.5125  140.9939  159.9930 H   0  0  0  0  0  0  0  0  0  0  0  0
  154.1664  140.4697  160.9859 H   0  0  0  0  0  0  0  0  0  0  0  0
  151.8835  141.2868  160.2586 H   0  0  0  0  0  0  0  0  0  0  0  0
  1  2  1  0  0  0  0
  1 21  1  0  0  0  0
  1 22  1  0  0  0  0
  1 23  1  0  0  0  0
  2  3  1  0  0  0  0
  3 20  1  0  0  0  0
  3  4  2  0  0  0  0
  4  5  1  0  0  0  0
  4 24  1  0  0  0  0
  5  6  2  0  0  0  0
  5 25  1  0  0  0  0
  6  7  1  0  0  0  0
  6 19  1  0  0  0  0
  7  8  1  0  0  0  0
  7 26  1  0  0  0  0
  8  9  1  0  0  0  0
  8 27  1  0  0  0  0
  8 28  1  0  0  0  0
  9 18  1  0  0  0  0
  9 10  1  0  0  0  0
  9 29  1  0  0  0  0
 10 11  1  0  0  0  0
 10 30  1  0  0  0  0
 10 31  1  0  0  0  0
 11 12  1  0  0  0  0
 11 16  1  0  0  0  0
 11 45  1  0  0  0  0
 12 13  1  0  0  0  0
 12 32  1  0  0  0  0
 12 33  1  0  0  0  0
 13 14  1  0  0  0  0
 13 15  1  0  0  0  0
 13 34  1  0  0  0  0
 14 35  1  0  0  0  0
 14 36  1  0  0  0  0
 14 37  1  0  0  0  0
 15 38  1  0  0  0  0
 15 39  1  0  0  0  0
 15 40  1  0  0  0  0
 16 17  1  0  0  0  0
 16 41  1  0  0  0  0
 16 42  1  0  0  0  0
 17 18  1  0  0  0  0
 17 43  1  0  0  0  0
 17 44  1  0  0  0  0
 19 20  2  0  0  0  0
M  CHG  1  11   1
M  END
> <s_m_source_file>
AV-unprocessed.smi

> <i_m_source_file_index>
2850

> <i_lp_mmshare_version>
43012

> <i_f3d_flags>
0

> <s_epik_input>
W0NIM11TYzFbY0hdW2NIXWMobm4xKVtOSF1bQ0gyXVtDQEBIXTJbQ0gyXU4oW0NIMl1bQ0gyXU8yKVtDSDJdW0NIXShbQ0gzXSlbQ0gzXQ==

> <s_epik_cmdline>
J2VwaWtfcHl0aG9uJywgJy1waCcsICc3LjAnLCAnLXRuJywgJzgnLCAnLW1hJywgJzIwMCcsICctbWV0YWxfYmluZGluZycsICctaW1hZScsICc8aW5maWxlLm1hZT4nLCAnLW9tYWUnLCAnPG91dGZpbGUubWFlPic=

> <r_lp_tautomer_probability>
0.999978

> <r_epik_Ionization_Penalty>
0.0874875

> <r_epik_Ionization_Penalty_Charging>
0.0831532

> <r_epik_Ionization_Penalty_Neutral>
0.00433433

> <r_epik_State_Penalty>
0.0738301

> <r_epik_Charging_Adjusted_Penalty>
0.156983

> <i_epik_Tot_Q>
1

> <i_epik_Tot_abs_Q>
1

> <r_epik_Metal_State_Penalty>
0.073888

> <b_epik_Metal_Only>
0

> <s_lp_Force_Field>
OPLS_2005

> <r_lp_Energy>
24.5925

> <b_lp_Chiralities_Consistent>
1

> <s_lp_Variant>
AV-unprocessed.smi:2850-1

> <Gold.Version>
5.8.1

> <Gold.Id.Protein>
6NUR|6NUR_protein|mol2

> <Gold.PLP.Fitness>
39.4463

> <Gold.PLP.PLP>
-38.9962

> <Gold.PLP.part.hbond>
-2.8076

> <Gold.PLP.part.metal>
0.0000

> <Gold.PLP.part.buried>
-6.3930

> <Gold.PLP.part.nonpolar>
-29.3204

> <Gold.PLP.part.repulsive>
0.1729

> <Gold.PLP.ligand.clash>
0.0000

> <Gold.PLP.ligand.torsion>
1.3946

> <Gold.PLP.Chemscore.Hbond>
1.0000

> <Gold.PLP.Chemscore.CHOScore>
0.0000

> <Gold.PLP.Chemscore.Metal>
0.0000

> <Gold.Chemscore.Hbonds>
donor molecule, donor type, donor heavy atom, donor atom, acceptor molecule, acceptor atom, score
      P1  H  7997  8009       L1    18  1.00

> <Gold.PLP.Chemscore.Internal.Correction>
0.2391

> <Gold.Rescore>
     Score         DG    S(hbond)    S(metal)    S(lipo)     H(rot)  DE(clash)    DE(int)     intcor
     15.44     -16.74       0.87        0.00     106.50       1.60       0.06       1.23       ----

> <Gold.Chemscore.Fitness>
15.4436

> <Gold.Chemscore.DG>
-16.7359

> <Gold.Chemscore.ZeroCoef>
-5.4800

> <Gold.Chemscore.Hbond>
0.8660

> <Gold.Chemscore.Metal>
0.0000

> <Gold.Chemscore.Lipo>
106.4980

> <Gold.Chemscore.Internal_Hbond>
0.0000

> <Gold.Chemscore.DEClash>
0.0595

> <Gold.Chemscore.DEInternal>
1.2328

> <Gold.Chemscore.Rot>
1.6003

> <Gold.Chemscore.Internal.Correction>
   9.000000E+99

> <Gold.Chemscore.Hbonds>
donor molecule, donor type, donor heavy atom, donor atom, acceptor molecule, acceptor atom, score
      P1  H  7997  8009       L1    18  0.60

> <Gold.Chemscore.Hbond.Weighted>
-2.8924

> <Gold.Chemscore.Metal.Weighted>
-0.0000

> <Gold.Chemscore.Lipo.Weighted>
-12.4603

> <Gold.Chemscore.Internal_Hbond.Weighted>
0.0000

> <Gold.Chemscore.DEClash.Weighted>
0.0595

> <Gold.Chemscore.DEInternal.Weighted>
1.2328

> <Gold.Chemscore.Rot.Weighted>
4.0968

> <Gold.Chemscore.Internal.Correction.Weighted>
   9.000000E+99

> <Gold.Protein.RotatedTorsions>
[ 6907 6896 6895 6894 ] final  -53.84 input  -60.11 | X-H torsion
[ 7974 7965 7964 7962 ] final   -5.81 input  175.53 | X-H torsion
[ 8008 7997 7996 7995 ] final  126.44 input   59.86 | X-H torsion
[ 10167 10162 10161 10158 ] final  139.47 input  -65.29 | X-H torsion
[ 10718 10713 10712 10709 ] final  145.69 input   66.30 | X-H torsion
[ 10763 10752 10751 10750 ] final -173.21 input  -60.55 | X-H torsion
[ 11005 11000 10999 10996 ] final   11.19 input  -57.11 | X-H torsion

> <Gold.Protein.ActiveResidues>
 VAL166  LYS551  ARG553  GLY616  TRP617  ASP618  TYR619  PRO620  LYS621  CYS622 
 ASP623  PHE694  ASN695  SER759  ASP760  ASP761  ALA762  ILE779  LEU786  VAL792 
 PHE793  MET794  SER795  GLU796  ALA797  LYS798  CYS799  TRP800  GLU811  SER814 

> <Gold.Protein.RotatedAtoms>
  150.8391  134.7676  159.6917 H   0  0  0  0  0  0  0  0  0  0  0  0  # atno 6907 bound_to 6896
  152.4482  134.5447  159.9859 H   0  0  0  0  0  0  0  0  0  0  0  0  # atno 6908 bound_to 6896
  151.5591  133.3368  159.3003 H   0  0  0  0  0  0  0  0  0  0  0  0  # atno 6909 bound_to 6896
  146.2345  140.2077  142.8334 H   0  0  0  0  0  0  0  0  0  0  0  0  # atno 7974 bound_to 7965
  156.2864  140.2692  156.2111 H   0  0  0  0  0  0  0  0  0  0  0  0  # atno 8008 bound_to 7997
  155.0263  140.0386  157.2475 H   0  0  0  0  0  0  0  0  0  0  0  0  # atno 8009 bound_to 7997
  154.7392  140.2722  155.6393 H   0  0  0  0  0  0  0  0  0  0  0  0  # atno 8010 bound_to 7997
  139.5078  144.6292  151.5859 H   0  0  0  0  0  0  0  0  0  0  0  0  # atno 10167 bound_to 10162
  157.3422  131.0937  151.1073 H   0  0  0  0  0  0  0  0  0  0  0  0  # atno 10718 bound_to 10713
  154.6105  135.2864  155.0437 H   0  0  0  0  0  0  0  0  0  0  0  0  # atno 10763 bound_to 10752
  154.1669  135.6479  153.5003 H   0  0  0  0  0  0  0  0  0  0  0  0  # atno 10764 bound_to 10752
  153.0193  135.5391  154.6857 H   0  0  0  0  0  0  0  0  0  0  0  0  # atno 10765 bound_to 10752
  140.5060  134.0699  155.7806 H   0  0  0  0  0  0  0  0  0  0  0  0  # atno 11005 bound_to 11000
  144.9732  140.8388  143.5443 LP  0  0  0  0  0  0  0  0  0  0  0  0  # atno 17320 bound_to 7965
  145.2061  139.2228  143.5167 LP  0  0  0  0  0  0  0  0  0  0  0  0  # atno 17321 bound_to 7965
  140.6020  143.9593  150.6392 LP  0  0  0  0  0  0  0  0  0  0  0  0  # atno 17342 bound_to 10162
  140.2808  143.3391  152.1153 LP  0  0  0  0  0  0  0  0  0  0  0  0  # atno 17343 bound_to 10162
  157.2280  130.6512  149.5838 LP  0  0  0  0  0  0  0  0  0  0  0  0  # atno 17370 bound_to 10713
  155.9709  130.4608  150.6085 LP  0  0  0  0  0  0  0  0  0  0  0  0  # atno 17371 bound_to 10713
  141.1410  133.9137  157.2325 LP  0  0  0  0  0  0  0  0  0  0  0  0  # atno 17394 bound_to 11000
  139.9686  135.0135  156.9452 LP  0  0  0  0  0  0  0  0  0  0  0  0  # atno 17395 bound_to 11000

$$$$
