AV-unprocessed.smi:2315|AV-procd|sdf|9268|dock7
  -GOLD-   2272012493D 1   1.00000     0.00000
 Structure written by MMmdl.
 40 41  0  0  0  0  0  0  0  0  1 V2000
  147.5518  132.5330  154.1798 O   0  0  0  0  0  0  0  0  0  0  0  0
  147.7958  133.5339  153.5063 C   0  0  0  0  0  0  0  0  0  0  0  0
  148.7426  134.4270  153.8290 N   0  0  0  0  0  0  0  0  0  0  0  0
  149.5963  134.3547  155.0098 C   0  0  0  0  0  0  0  0  0  0  0  0
  149.6595  135.7077  155.7483 C   0  0  0  0  0  0  0  0  0  0  0  0
  151.0042  136.4400  155.5923 C   0  0  0  0  0  0  0  0  0  0  0  0
  152.0108  135.9554  156.1120 O   0  0  0  0  0  0  0  0  0  0  0  0
  151.0440  137.5956  154.8840 N   0  0  0  0  0  0  0  0  0  0  0  0
  152.2325  138.4380  154.6893 C   0  0  0  0  0  0  0  0  0  0  0  0
  152.0602  139.7343  155.5019 C   0  0  0  0  0  0  0  0  0  0  0  0
  150.7643  140.4648  155.1013 C   0  0  0  0  0  0  0  0  0  0  0  0
  149.5486  139.5191  155.1216 C   0  0  0  0  0  0  0  0  0  0  0  0
  149.8387  138.2288  154.3321 C   0  0  0  0  0  0  0  0  0  0  0  0
  147.1811  133.8726  152.3597 N   0  0  0  0  0  0  0  0  0  0  0  0
  146.1241  133.2069  151.6797 C   0  0  0  0  0  0  0  0  0  0  0  0
  145.8963  131.8101  151.7314 C   0  0  0  0  0  0  0  0  0  0  0  0
  144.7989  131.2782  151.0244 C   0  0  0  0  0  0  0  0  0  0  0  0
  143.9437  132.0314  150.3011 N   0  0  0  0  0  0  0  0  0  0  0  0
  144.1564  133.3635  150.2637 C   0  0  0  0  0  0  0  0  0  0  0  0
  145.2220  133.9964  150.9349 C   0  0  0  0  0  0  0  0  0  0  0  0
  145.3746  135.3408  150.8594 F   0  0  0  0  0  0  0  0  0  0  0  0
  148.8805  135.2179  153.2169 H   0  0  0  0  0  0  0  0  0  0  0  0
  149.1858  133.5861  155.6658 H   0  0  0  0  0  0  0  0  0  0  0  0
  150.5960  134.0211  154.7248 H   0  0  0  0  0  0  0  0  0  0  0  0
  148.8659  136.3564  155.3754 H   0  0  0  0  0  0  0  0  0  0  0  0
  149.4744  135.5443  156.8107 H   0  0  0  0  0  0  0  0  0  0  0  0
  153.1674  137.9509  154.9613 H   0  0  0  0  0  0  0  0  0  0  0  0
  152.3312  138.6757  153.6290 H   0  0  0  0  0  0  0  0  0  0  0  0
  152.0335  139.4963  156.5662 H   0  0  0  0  0  0  0  0  0  0  0  0
  152.9187  140.3893  155.3519 H   0  0  0  0  0  0  0  0  0  0  0  0
  150.5915  141.3164  155.7600 H   0  0  0  0  0  0  0  0  0  0  0  0
  150.8814  140.8715  154.0960 H   0  0  0  0  0  0  0  0  0  0  0  0
  149.3007  139.2651  156.1531 H   0  0  0  0  0  0  0  0  0  0  0  0
  148.6756  140.0253  154.7086 H   0  0  0  0  0  0  0  0  0  0  0  0
  150.0025  138.4615  153.2789 H   0  0  0  0  0  0  0  0  0  0  0  0
  148.9656  137.5757  154.3576 H   0  0  0  0  0  0  0  0  0  0  0  0
  147.5477  134.6852  151.8857 H   0  0  0  0  0  0  0  0  0  0  0  0
  146.5234  131.1425  152.3011 H   0  0  0  0  0  0  0  0  0  0  0  0
  144.5997  130.2170  151.0459 H   0  0  0  0  0  0  0  0  0  0  0  0
  143.4548  133.9438  149.6832 H   0  0  0  0  0  0  0  0  0  0  0  0
  1  2  2  0  0  0  0
  2  3  1  0  0  0  0
  2 14  1  0  0  0  0
  3  4  1  0  0  0  0
  3 22  1  0  0  0  0
  4  5  1  0  0  0  0
  4 23  1  0  0  0  0
  4 24  1  0  0  0  0
  5  6  1  0  0  0  0
  5 25  1  0  0  0  0
  5 26  1  0  0  0  0
  6  7  2  0  0  0  0
  6  8  1  0  0  0  0
  8 13  1  0  0  0  0
  8  9  1  0  0  0  0
  9 10  1  0  0  0  0
  9 27  1  0  0  0  0
  9 28  1  0  0  0  0
 10 11  1  0  0  0  0
 10 29  1  0  0  0  0
 10 30  1  0  0  0  0
 11 12  1  0  0  0  0
 11 31  1  0  0  0  0
 11 32  1  0  0  0  0
 12 13  1  0  0  0  0
 12 33  1  0  0  0  0
 12 34  1  0  0  0  0
 13 35  1  0  0  0  0
 13 36  1  0  0  0  0
 14 15  1  0  0  0  0
 14 37  1  0  0  0  0
 15 20  1  0  0  0  0
 15 16  2  0  0  0  0
 16 17  1  0  0  0  0
 16 38  1  0  0  0  0
 17 18  2  0  0  0  0
 17 39  1  0  0  0  0
 18 19  1  0  0  0  0
 19 20  2  0  0  0  0
 19 40  1  0  0  0  0
 20 21  1  0  0  0  0
M  END
> <s_m_source_file>
AV-unprocessed.smi

> <i_m_source_file_index>
2315

> <i_lp_mmshare_version>
43012

> <i_f3d_flags>
0

> <s_epik_input>
RmMxW2NIXW5bY0hdW2NIXWMxW05IXUMoPU8pW05IXVtDSDJdW0NIMl1DKD1PKU4yW0NIMl1bQ0gyXVtDSDJdW0NIMl1bQ0gyXTI=

> <s_epik_cmdline>
J2VwaWtfcHl0aG9uJywgJy1waCcsICc3LjAnLCAnLXRuJywgJzgnLCAnLW1hJywgJzIwMCcsICctbWV0YWxfYmluZGluZycsICctaW1hZScsICc8aW5maWxlLm1hZT4nLCAnLW9tYWUnLCAnPG91dGZpbGUubWFlPic=

> <r_epik_Ionization_Penalty>
0.00291221

> <r_epik_Ionization_Penalty_Charging>
0

> <r_epik_Ionization_Penalty_Neutral>
0.00291221

> <r_epik_State_Penalty>
0.0020173

> <r_epik_Charging_Adjusted_Penalty>
0.0020173

> <i_epik_Tot_Q>
0

> <i_epik_Tot_abs_Q>
0

> <r_epik_Metal_State_Penalty>
-0

> <b_epik_Metal_Only>
0

> <s_lp_Force_Field>
OPLS_2005

> <r_lp_Energy>
31.5376

> <b_lp_Chiralities_Consistent>
1

> <s_lp_Variant>
AV-unprocessed.smi:2315-1

> <Gold.Version>
5.8.1

> <Gold.Id.Protein>
6NUR|6NUR_protein|mol2

> <Gold.PLP.Fitness>
50.4926

> <Gold.PLP.PLP>
-39.8614

> <Gold.PLP.part.hbond>
-3.0000

> <Gold.PLP.part.metal>
0.0000

> <Gold.PLP.part.buried>
-4.7184

> <Gold.PLP.part.nonpolar>
-33.1894

> <Gold.PLP.part.repulsive>
0.2551

> <Gold.PLP.ligand.clash>
0.0000

> <Gold.PLP.ligand.torsion>
0.6593

> <Gold.PLP.Chemscore.Hbond>
2.9760

> <Gold.PLP.Chemscore.CHOScore>
1.0000

> <Gold.PLP.Chemscore.Metal>
0.0000

> <Gold.Chemscore.Hbonds>
donor molecule, donor type, donor heavy atom, donor atom, acceptor molecule, acceptor atom, score
      L1  H     3    22       P1  7948  1.00
      L1  H    14    37       P1  7948  0.94
      P1  H 10752 10764       L1     7  1.00
      L1  C    19    40       P1 10186  1.00

> <Gold.PLP.Chemscore.Internal.Correction>
0.0219

> <Gold.Rescore>
     Score         DG    S(hbond)    S(metal)    S(lipo)     H(rot)  DE(clash)    DE(int)     intcor
     18.00     -18.78       2.49        0.00      77.15       1.57       0.01       0.78       ----

> <Gold.Chemscore.Fitness>
17.9991

> <Gold.Chemscore.DG>
-18.7839

> <Gold.Chemscore.ZeroCoef>
-5.4800

> <Gold.Chemscore.Hbond>
2.4863

> <Gold.Chemscore.Metal>
0.0000

> <Gold.Chemscore.Lipo>
77.1512

> <Gold.Chemscore.Internal_Hbond>
0.0000

> <Gold.Chemscore.DEClash>
0.0088

> <Gold.Chemscore.DEInternal>
0.7760

> <Gold.Chemscore.Rot>
1.5731

> <Gold.Chemscore.Internal.Correction>
   9.000000E+99

> <Gold.Chemscore.Hbonds>
donor molecule, donor type, donor heavy atom, donor atom, acceptor molecule, acceptor atom, score
      L1  H     3    22       P1  7948  0.50
      L1  H    14    37       P1  7948  0.51
      P1  H 10752 10764       L1     7  0.98

> <Gold.Chemscore.Hbond.Weighted>
-8.3042

> <Gold.Chemscore.Metal.Weighted>
-0.0000

> <Gold.Chemscore.Lipo.Weighted>
-9.0267

> <Gold.Chemscore.Internal_Hbond.Weighted>
0.0000

> <Gold.Chemscore.DEClash.Weighted>
0.0088

> <Gold.Chemscore.DEInternal.Weighted>
0.7760

> <Gold.Chemscore.Rot.Weighted>
4.0271

> <Gold.Chemscore.Internal.Correction.Weighted>
   9.000000E+99

> <Gold.Protein.RotatedTorsions>
[ 6907 6896 6895 6894 ] final  -40.56 input  -60.11 | X-H torsion
[ 7974 7965 7964 7962 ] final  -73.48 input  175.53 | X-H torsion
[ 8008 7997 7996 7995 ] final -120.40 input   59.86 | X-H torsion
[ 10167 10162 10161 10158 ] final   63.73 input  -65.29 | X-H torsion
[ 10718 10713 10712 10709 ] final  148.90 input   66.30 | X-H torsion
[ 10763 10752 10751 10750 ] final  -18.15 input  -60.55 | X-H torsion
[ 11005 11000 10999 10996 ] final   21.38 input  -57.11 | X-H torsion

> <Gold.Protein.ActiveResidues>
 VAL166  LYS551  ARG553  GLY616  TRP617  ASP618  TYR619  PRO620  LYS621  CYS622 
 ASP623  PHE694  ASN695  SER759  ASP760  ASP761  ALA762  ILE779  LEU786  VAL792 
 PHE793  MET794  SER795  GLU796  ALA797  LYS798  CYS799  TRP800  GLU811  SER814 

> <Gold.Protein.RotatedAtoms>
  150.9770  134.9132  159.7821 H   0  0  0  0  0  0  0  0  0  0  0  0  # atno 6907 bound_to 6896
  152.5209  134.3463  159.9245 H   0  0  0  0  0  0  0  0  0  0  0  0  # atno 6908 bound_to 6896
  151.3471  133.3899  159.2711 H   0  0  0  0  0  0  0  0  0  0  0  0  # atno 6909 bound_to 6896
  145.6515  140.9281  143.0982 H   0  0  0  0  0  0  0  0  0  0  0  0  # atno 7974 bound_to 7965
  155.1312  140.0400  157.2775 H   0  0  0  0  0  0  0  0  0  0  0  0  # atno 8008 bound_to 7997
  154.6541  140.2576  155.7155 H   0  0  0  0  0  0  0  0  0  0  0  0  # atno 8009 bound_to 7997
  156.2590  140.2830  156.0987 H   0  0  0  0  0  0  0  0  0  0  0  0  # atno 8010 bound_to 7997
  140.1298  144.4653  150.6871 H   0  0  0  0  0  0  0  0  0  0  0  0  # atno 10167 bound_to 10162
  157.3029  131.0874  151.1376 H   0  0  0  0  0  0  0  0  0  0  0  0  # atno 10718 bound_to 10713
  153.5849  135.7004  153.5448 H   0  0  0  0  0  0  0  0  0  0  0  0  # atno 10763 bound_to 10752
  153.3229  135.4069  155.1431 H   0  0  0  0  0  0  0  0  0  0  0  0  # atno 10764 bound_to 10752
  154.8611  135.3700  154.5378 H   0  0  0  0  0  0  0  0  0  0  0  0  # atno 10765 bound_to 10752
  140.3922  134.1807  155.7663 H   0  0  0  0  0  0  0  0  0  0  0  0  # atno 11005 bound_to 11000
  144.7121  139.8333  143.7411 LP  0  0  0  0  0  0  0  0  0  0  0  0  # atno 17320 bound_to 7965
  146.1199  139.4216  143.0234 LP  0  0  0  0  0  0  0  0  0  0  0  0  # atno 17321 bound_to 7965
  140.6823  143.2333  151.5351 LP  0  0  0  0  0  0  0  0  0  0  0  0  # atno 17342 bound_to 10162
  139.5525  144.2359  152.1556 LP  0  0  0  0  0  0  0  0  0  0  0  0  # atno 17343 bound_to 10162
  157.2728  130.6712  149.6028 LP  0  0  0  0  0  0  0  0  0  0  0  0  # atno 17370 bound_to 10713
  155.9672  130.4474  150.5577 LP  0  0  0  0  0  0  0  0  0  0  0  0  # atno 17371 bound_to 10713
  141.1887  133.8255  157.0986 LP  0  0  0  0  0  0  0  0  0  0  0  0  # atno 17394 bound_to 11000
  140.0398  134.9860  157.0940 LP  0  0  0  0  0  0  0  0  0  0  0  0  # atno 17395 bound_to 11000

$$$$
