AV-unprocessed.smi:2822|AV-procd|sdf|10881|dock3
  -GOLD-   2272015323D 1   1.00000     0.00000
 Structure written by MMmdl.
 39 41  0  0  0  0  0  0  0  0  1 V2000
  146.4671  142.9000  154.1298 Cl  0  0  0  0  0  0  0  0  0  0  0  0
  147.2714  141.3702  154.0673 C   0  0  0  0  0  0  0  0  0  0  0  0
  146.8580  140.4017  153.1298 C   0  0  0  0  0  0  0  0  0  0  0  0
  147.4315  139.1854  153.0138 N   0  0  0  0  0  0  0  0  0  0  0  0
  148.4527  138.8915  153.8451 C   0  0  0  0  0  0  0  0  0  0  0  0
  148.9433  139.7848  154.8181 C   0  0  0  0  0  0  0  0  0  0  0  0
  148.3426  141.0603  154.9369 C   0  0  0  0  0  0  0  0  0  0  0  0
  148.7684  142.0107  155.8772 N   0  0  0  0  0  0  0  0  0  0  0  0
  149.5955  141.6245  157.0101 C   0  0  0  0  0  0  0  0  0  0  0  0
  151.0582  142.0664  156.8154 C   0  0  1  0  0  0  0  0  0  0  0  0
  151.3835  143.3950  157.5246 C   0  0  0  0  0  0  0  0  0  0  0  0
  151.4443  143.2618  158.9754 N   0  0  0  0  0  0  0  0  0  0  0  0
  151.7798  144.5380  159.6059 C   0  0  0  0  0  0  0  0  0  0  0  0
  151.8245  144.4447  161.1391 C   0  0  0  0  0  0  0  0  0  0  0  0
  152.8148  143.3572  161.5780 C   0  0  0  0  0  0  0  0  0  0  0  0
  152.4865  142.0318  160.8743 C   0  0  0  0  0  0  0  0  0  0  0  0
  152.4085  142.2216  159.3449 C   0  0  1  0  0  0  0  0  0  0  0  0
  152.0726  140.8852  158.6540 C   0  0  0  0  0  0  0  0  0  0  0  0
  151.9820  141.0633  157.2426 O   0  0  0  0  0  0  0  0  0  0  0  0
  146.0428  140.6095  152.4523 H   0  0  0  0  0  0  0  0  0  0  0  0
  148.8944  137.9123  153.7321 H   0  0  0  0  0  0  0  0  0  0  0  0
  149.7629  139.4783  155.4505 H   0  0  0  0  0  0  0  0  0  0  0  0
  148.6915  142.9928  155.6526 H   0  0  0  0  0  0  0  0  0  0  0  0
  149.1927  142.1003  157.9048 H   0  0  0  0  0  0  0  0  0  0  0  0
  149.5313  140.5484  157.1701 H   0  0  0  0  0  0  0  0  0  0  0  0
  151.2209  142.2141  155.7471 H   0  0  0  0  0  0  0  0  0  0  0  0
  152.3428  143.7617  157.1558 H   0  0  0  0  0  0  0  0  0  0  0  0
  150.6429  144.1474  157.2506 H   0  0  0  0  0  0  0  0  0  0  0  0
  152.7445  144.8907  159.2374 H   0  0  0  0  0  0  0  0  0  0  0  0
  151.0465  145.2920  159.3180 H   0  0  0  0  0  0  0  0  0  0  0  0
  152.1089  145.4066  161.5665 H   0  0  0  0  0  0  0  0  0  0  0  0
  150.8293  144.2144  161.5217 H   0  0  0  0  0  0  0  0  0  0  0  0
  153.8310  143.6631  161.3260 H   0  0  0  0  0  0  0  0  0  0  0  0
  152.7846  143.2303  162.6605 H   0  0  0  0  0  0  0  0  0  0  0  0
  153.2407  141.2850  161.1244 H   0  0  0  0  0  0  0  0  0  0  0  0
  151.5353  141.6492  161.2474 H   0  0  0  0  0  0  0  0  0  0  0  0
  153.3966  142.5292  158.9979 H   0  0  0  0  0  0  0  0  0  0  0  0
  152.8513  140.1500  158.8575 H   0  0  0  0  0  0  0  0  0  0  0  0
  151.1434  140.4660  159.0409 H   0  0  0  0  0  0  0  0  0  0  0  0
  1  2  1  0  0  0  0
  2  7  1  0  0  0  0
  2  3  2  0  0  0  0
  3  4  1  0  0  0  0
  3 20  1  0  0  0  0
  4  5  2  0  0  0  0
  5  6  1  0  0  0  0
  5 21  1  0  0  0  0
  6  7  2  0  0  0  0
  6 22  1  0  0  0  0
  7  8  1  0  0  0  0
  8  9  1  0  0  0  0
  8 23  1  0  0  0  0
  9 10  1  0  0  0  0
  9 24  1  0  0  0  0
  9 25  1  0  0  0  0
 10 19  1  0  0  0  0
 10 11  1  0  0  0  0
 10 26  1  0  0  0  0
 11 12  1  0  0  0  0
 11 27  1  0  0  0  0
 11 28  1  0  0  0  0
 12 17  1  0  0  0  0
 12 13  1  0  0  0  0
 13 14  1  0  0  0  0
 13 29  1  0  0  0  0
 13 30  1  0  0  0  0
 14 15  1  0  0  0  0
 14 31  1  0  0  0  0
 14 32  1  0  0  0  0
 15 16  1  0  0  0  0
 15 33  1  0  0  0  0
 15 34  1  0  0  0  0
 16 17  1  0  0  0  0
 16 35  1  0  0  0  0
 16 36  1  0  0  0  0
 17 18  1  0  0  0  0
 17 37  1  0  0  0  0
 18 19  1  0  0  0  0
 18 38  1  0  0  0  0
 18 39  1  0  0  0  0
M  END
> <s_m_source_file>
AV-unprocessed.smi

> <i_m_source_file_index>
2822

> <i_lp_mmshare_version>
43012

> <i_f3d_flags>
0

> <s_epik_input>
Q2xjMVtjSF1uW2NIXVtjSF1jMVtOSF1bQ0gyXVtDQEhdKFtDSDJdMilPW0NIMl1bQ0BASF0oTjIzKVtDSDJdW0NIMl1bQ0gyXVtDSDJdMw==

> <s_epik_cmdline>
J2VwaWtfcHl0aG9uJywgJy1waCcsICc3LjAnLCAnLXRuJywgJzgnLCAnLW1hJywgJzIwMCcsICctbWV0YWxfYmluZGluZycsICctaW1hZScsICc8aW5maWxlLm1hZT4nLCAnLW9tYWUnLCAnPG91dGZpbGUubWFlPic=

> <r_lp_tautomer_probability>
0.999999

> <r_epik_Ionization_Penalty>
2.10064

> <r_epik_Ionization_Penalty_Charging>
0

> <r_epik_Ionization_Penalty_Neutral>
2.10064

> <r_epik_State_Penalty>
2.1757

> <r_epik_Charging_Adjusted_Penalty>
2.1757

> <i_epik_Tot_Q>
0

> <i_epik_Tot_abs_Q>
0

> <r_epik_Metal_State_Penalty>
1.25425

> <b_epik_Metal_Only>
0

> <s_lp_Force_Field>
OPLS_2005

> <r_lp_Energy>
40.854

> <b_lp_Chiralities_Consistent>
1

> <s_lp_Variant>
AV-unprocessed.smi:2822-22

> <Gold.Version>
5.8.1

> <Gold.Id.Protein>
6NUR|6NUR_protein|mol2

> <Gold.PLP.Fitness>
47.0133

> <Gold.PLP.PLP>
-39.4104

> <Gold.PLP.part.hbond>
-1.0000

> <Gold.PLP.part.metal>
0.0000

> <Gold.PLP.part.buried>
-3.4018

> <Gold.PLP.part.nonpolar>
-37.4551

> <Gold.PLP.part.repulsive>
1.7474

> <Gold.PLP.ligand.clash>
0.0000

> <Gold.PLP.ligand.torsion>
0.7010

> <Gold.PLP.Chemscore.Hbond>
1.0000

> <Gold.PLP.Chemscore.CHOScore>
1.9992

> <Gold.PLP.Chemscore.Metal>
0.0000

> <Gold.Chemscore.Hbonds>
donor molecule, donor type, donor heavy atom, donor atom, acceptor molecule, acceptor atom, score
      L1  H     8    23       P1  8028  1.00
      L1  C     3    20       P1 10175  1.00
      L1  C     5    21       P1  7948  1.00

> <Gold.PLP.Chemscore.Internal.Correction>
0.0073

> <Gold.Rescore>
     Score         DG    S(hbond)    S(metal)    S(lipo)     H(rot)  DE(clash)    DE(int)     intcor
     19.60     -20.55       1.00        0.00     125.50       1.15       0.26       0.69       ----

> <Gold.Chemscore.Fitness>
19.5970

> <Gold.Chemscore.DG>
-20.5531

> <Gold.Chemscore.ZeroCoef>
-5.4800

> <Gold.Chemscore.Hbond>
0.9995

> <Gold.Chemscore.Metal>
0.0000

> <Gold.Chemscore.Lipo>
125.5003

> <Gold.Chemscore.Internal_Hbond>
0.0000

> <Gold.Chemscore.DEClash>
0.2617

> <Gold.Chemscore.DEInternal>
0.6944

> <Gold.Chemscore.Rot>
1.1519

> <Gold.Chemscore.Internal.Correction>
   9.000000E+99

> <Gold.Chemscore.Hbonds>
donor molecule, donor type, donor heavy atom, donor atom, acceptor molecule, acceptor atom, score
      L1  H     8    23       P1  8028  1.00

> <Gold.Chemscore.Hbond.Weighted>
-3.3383

> <Gold.Chemscore.Metal.Weighted>
-0.0000

> <Gold.Chemscore.Lipo.Weighted>
-14.6835

> <Gold.Chemscore.Internal_Hbond.Weighted>
0.0000

> <Gold.Chemscore.DEClash.Weighted>
0.2617

> <Gold.Chemscore.DEInternal.Weighted>
0.6944

> <Gold.Chemscore.Rot.Weighted>
2.9487

> <Gold.Chemscore.Internal.Correction.Weighted>
   9.000000E+99

> <Gold.Protein.RotatedTorsions>
[ 6907 6896 6895 6894 ] final   64.29 input  -60.11 | X-H torsion
[ 7974 7965 7964 7962 ] final   47.42 input  175.53 | X-H torsion
[ 8008 7997 7996 7995 ] final -107.08 input   59.86 | X-H torsion
[ 10167 10162 10161 10158 ] final  102.10 input  -65.29 | X-H torsion
[ 10718 10713 10712 10709 ] final  -78.37 input   66.30 | X-H torsion
[ 10763 10752 10751 10750 ] final  111.01 input  -60.55 | X-H torsion
[ 11005 11000 10999 10996 ] final -116.75 input  -57.11 | X-H torsion

> <Gold.Protein.ActiveResidues>
 VAL166  LYS551  ARG553  GLY616  TRP617  ASP618  TYR619  PRO620  LYS621  CYS622 
 ASP623  PHE694  ASN695  SER759  ASP760  ASP761  ALA762  ILE779  LEU786  VAL792 
 PHE793  MET794  SER795  GLU796  ALA797  LYS798  CYS799  TRP800  GLU811  SER814 

> <Gold.Protein.RotatedAtoms>
  152.4320  134.5759  159.9934 H   0  0  0  0  0  0  0  0  0  0  0  0  # atno 6907 bound_to 6896
  151.5880  133.3364  159.3030 H   0  0  0  0  0  0  0  0  0  0  0  0  # atno 6908 bound_to 6896
  150.8214  134.7459  159.6840 H   0  0  0  0  0  0  0  0  0  0  0  0  # atno 6909 bound_to 6896
  146.0299  139.4751  142.9844 H   0  0  0  0  0  0  0  0  0  0  0  0  # atno 7974 bound_to 7965
  154.9241  140.0406  157.2013 H   0  0  0  0  0  0  0  0  0  0  0  0  # atno 8008 bound_to 7997
  154.8225  140.2886  155.5755 H   0  0  0  0  0  0  0  0  0  0  0  0  # atno 8009 bound_to 7997
  156.2981  140.2516  156.3135 H   0  0  0  0  0  0  0  0  0  0  0  0  # atno 8010 bound_to 7997
  139.7379  144.7019  151.0620 H   0  0  0  0  0  0  0  0  0  0  0  0  # atno 10167 bound_to 10162
  156.0119  130.4516  150.3486 H   0  0  0  0  0  0  0  0  0  0  0  0  # atno 10718 bound_to 10713
  153.4571  135.3730  155.2317 H   0  0  0  0  0  0  0  0  0  0  0  0  # atno 10763 bound_to 10752
  154.8757  135.3900  154.3969 H   0  0  0  0  0  0  0  0  0  0  0  0  # atno 10764 bound_to 10752
  153.4537  135.7086  153.6157 H   0  0  0  0  0  0  0  0  0  0  0  0  # atno 10765 bound_to 10752
  141.0401  133.9849  157.3008 H   0  0  0  0  0  0  0  0  0  0  0  0  # atno 11005 bound_to 11000
  145.7057  141.0122  143.1480 LP  0  0  0  0  0  0  0  0  0  0  0  0  # atno 17320 bound_to 7965
  144.7026  139.8698  143.7440 LP  0  0  0  0  0  0  0  0  0  0  0  0  # atno 17321 bound_to 7965
  140.7781  143.4960  150.9831 LP  0  0  0  0  0  0  0  0  0  0  0  0  # atno 17342 bound_to 10162
  139.8649  143.7267  152.3171 LP  0  0  0  0  0  0  0  0  0  0  0  0  # atno 17343 bound_to 10162
  157.1579  131.0337  151.2855 LP  0  0  0  0  0  0  0  0  0  0  0  0  # atno 17370 bound_to 10713
  157.4336  130.7504  149.7011 LP  0  0  0  0  0  0  0  0  0  0  0  0  # atno 17371 bound_to 10713
  139.9269  135.0201  156.8267 LP  0  0  0  0  0  0  0  0  0  0  0  0  # atno 17394 bound_to 11000
  140.6250  133.9959  155.7635 LP  0  0  0  0  0  0  0  0  0  0  0  0  # atno 17395 bound_to 11000

$$$$
