AV-unprocessed.smi:169|AV-procd|sdf|1404|dock8
  -GOLD-   2262019153D 1   1.00000     0.00000
 Structure written by MMmdl.
 56 60  0  0  0  0  0  0  0  0  2 V2000
  144.3526  135.3696  150.8418 C   0  0  0  0  0  0  0  0  0  0  0  0
  145.8141  135.7774  151.1012 C   0  0  0  0  0  0  0  0  0  0  0  0
  146.4850  134.9870  152.1666 N   0  3  2  0  0  0  0  0  0  0  0  0
  146.2938  133.5206  152.0341 C   0  0  0  0  0  0  0  0  0  0  0  0
  147.5829  132.7520  152.3818 C   0  0  0  0  0  0  0  0  0  0  0  0
  148.0784  132.8845  153.8375 C   0  0  2  0  0  0  0  0  0  0  0  0
  147.0652  132.3866  154.8740 C   0  0  0  0  0  0  0  0  0  0  0  0
  146.3111  133.6452  155.3187 C   0  0  0  0  0  0  0  0  0  0  0  0
  147.0503  134.8292  154.6616 C   0  0  2  0  0  0  0  0  0  0  0  0
  146.2390  135.5182  153.5359 C   0  0  0  0  0  0  0  0  0  0  0  0
  148.3210  134.2807  154.1929 N   0  0  0  0  0  0  0  0  0  0  0  0
  149.4115  134.6373  154.9193 C   0  0  0  0  0  0  0  0  0  0  0  0
  150.1488  133.7001  155.5714 N   0  0  0  0  0  0  0  0  0  0  0  0
  151.2148  134.0618  156.2919 C   0  0  0  0  0  0  0  0  0  0  0  0
  151.7107  135.2845  156.4915 N   0  0  0  0  0  0  0  0  0  0  0  0
  150.9748  136.2297  155.8398 C   0  0  0  0  0  0  0  0  0  0  0  0
  149.8250  135.9934  155.0359 C   0  0  0  0  0  0  0  0  0  0  0  0
  149.3528  137.1929  154.5174 N   0  0  0  0  0  0  0  0  0  0  0  0
  150.1736  138.0887  154.9943 C   0  0  0  0  0  0  0  0  0  0  0  0
  151.1685  137.6004  155.8126 N   0  0  0  0  0  0  0  0  0  0  0  0
  152.2145  138.3665  156.4759 C   0  0  0  0  0  0  0  0  0  0  0  0
  151.7228  139.2793  157.6257 C   0  0  0  0  0  0  0  0  0  0  0  0
  152.5642  138.9708  158.8718 C   0  0  0  0  0  0  0  0  0  0  0  0
  153.9370  139.2126  158.6384 O   0  0  0  0  0  0  0  0  0  0  0  0
  151.5854  140.7725  157.2827 C   0  0  0  0  0  0  0  0  0  0  0  0
  150.1544  140.6602  157.1350 O   0  0  0  0  0  0  0  0  0  0  0  0
  150.2044  139.4040  157.8439 C   0  0  0  0  0  0  0  0  0  0  0  0
  143.9356  135.9571  150.0235 H   0  0  0  0  0  0  0  0  0  0  0  0
  143.7201  135.5401  151.7125 H   0  0  0  0  0  0  0  0  0  0  0  0
  144.2665  134.3193  150.5627 H   0  0  0  0  0  0  0  0  0  0  0  0
  146.3877  135.6739  150.1791 H   0  0  0  0  0  0  0  0  0  0  0  0
  145.8585  136.8357  151.3610 H   0  0  0  0  0  0  0  0  0  0  0  0
  145.4435  133.1837  152.6277 H   0  0  0  0  0  0  0  0  0  0  0  0
  146.0477  133.2788  150.9993 H   0  0  0  0  0  0  0  0  0  0  0  0
  147.4274  131.6951  152.1629 H   0  0  0  0  0  0  0  0  0  0  0  0
  148.3788  133.0749  151.7094 H   0  0  0  0  0  0  0  0  0  0  0  0
  148.9876  132.2870  153.9110 H   0  0  0  0  0  0  0  0  0  0  0  0
  146.4041  131.6121  154.4837 H   0  0  0  0  0  0  0  0  0  0  0  0
  147.5941  131.9621  155.7284 H   0  0  0  0  0  0  0  0  0  0  0  0
  145.2591  133.6017  155.0357 H   0  0  0  0  0  0  0  0  0  0  0  0
  146.3447  133.7304  156.4054 H   0  0  0  0  0  0  0  0  0  0  0  0
  147.2118  135.5723  155.4445 H   0  0  0  0  0  0  0  0  0  0  0  0
  146.5279  136.5699  153.5203 H   0  0  0  0  0  0  0  0  0  0  0  0
  145.1761  135.5071  153.7762 H   0  0  0  0  0  0  0  0  0  0  0  0
  151.7449  133.2571  156.7799 H   0  0  0  0  0  0  0  0  0  0  0  0
  150.0730  139.1380  154.7591 H   0  0  0  0  0  0  0  0  0  0  0  0
  152.9586  137.6550  156.8354 H   0  0  0  0  0  0  0  0  0  0  0  0
  152.7206  138.9613  155.7145 H   0  0  0  0  0  0  0  0  0  0  0  0
  152.2382  139.5675  159.7246 H   0  0  0  0  0  0  0  0  0  0  0  0
  152.4572  137.9263  159.1664 H   0  0  0  0  0  0  0  0  0  0  0  0
  154.3102  139.6065  159.4121 H   0  0  0  0  0  0  0  0  0  0  0  0
  151.8514  141.4430  158.1018 H   0  0  0  0  0  0  0  0  0  0  0  0
  152.0874  141.0778  156.3659 H   0  0  0  0  0  0  0  0  0  0  0  0
  149.6058  138.6250  157.3747 H   0  0  0  0  0  0  0  0  0  0  0  0
  149.9197  139.5231  158.8908 H   0  0  0  0  0  0  0  0  0  0  0  0
  147.4711  135.1325  152.0025 H   0  0  0  0  0  0  0  0  0  0  0  0
  1  2  1  0  0  0  0
  1 28  1  0  0  0  0
  1 29  1  0  0  0  0
  1 30  1  0  0  0  0
  2  3  1  0  0  0  0
  2 31  1  0  0  0  0
  2 32  1  0  0  0  0
  3 10  1  0  0  0  0
  3  4  1  0  0  0  0
  3 56  1  0  0  0  0
  4  5  1  0  0  0  0
  4 33  1  0  0  0  0
  4 34  1  0  0  0  0
  5  6  1  0  0  0  0
  5 35  1  0  0  0  0
  5 36  1  0  0  0  0
  6 11  1  0  0  0  0
  6  7  1  0  0  0  0
  6 37  1  0  0  0  0
  7  8  1  0  0  0  0
  7 38  1  0  0  0  0
  7 39  1  0  0  0  0
  8  9  1  0  0  0  0
  8 40  1  0  0  0  0
  8 41  1  0  0  0  0
  9 10  1  0  0  0  0
  9 11  1  0  0  0  0
  9 42  1  0  0  0  0
 10 43  1  0  0  0  0
 10 44  1  0  0  0  0
 11 12  1  0  0  0  0
 12 17  1  0  0  0  0
 12 13  2  0  0  0  0
 13 14  1  0  0  0  0
 14 15  2  0  0  0  0
 14 45  1  0  0  0  0
 15 16  1  0  0  0  0
 16 20  1  0  0  0  0
 16 17  2  0  0  0  0
 17 18  1  0  0  0  0
 18 19  2  0  0  0  0
 19 20  1  0  0  0  0
 19 46  1  0  0  0  0
 20 21  1  0  0  0  0
 21 22  1  0  0  0  0
 21 47  1  0  0  0  0
 21 48  1  0  0  0  0
 22 27  1  0  0  0  0
 22 23  1  0  0  0  0
 22 25  1  0  0  0  0
 23 24  1  0  0  0  0
 23 49  1  0  0  0  0
 23 50  1  0  0  0  0
 24 51  1  0  0  0  0
 25 26  1  0  0  0  0
 25 52  1  0  0  0  0
 25 53  1  0  0  0  0
 26 27  1  0  0  0  0
 27 54  1  0  0  0  0
 27 55  1  0  0  0  0
M  CHG  1   3   1
M  END
> <s_m_source_file>
AV-unprocessed.smi

> <i_m_source_file_index>
169

> <i_lp_mmshare_version>
43012

> <i_f3d_flags>
0

> <s_epik_input>
W0NASF0xMltDSDJdW0NIMl1OKFtDSDJdW0NIM10pW0NIMl1bQ0BIXShbQ0gyXVtDSDJdMSlOMmMobltjSF1uMyljKGMzNCluW2NIXW40W0NIMl1DNShbQ0gyXVtPSF0pW0NIMl1PW0NIMl01

> <s_epik_cmdline>
J2VwaWtfcHl0aG9uJywgJy1waCcsICc3LjAnLCAnLXRuJywgJzgnLCAnLW1hJywgJzIwMCcsICctbWV0YWxfYmluZGluZycsICctaW1hZScsICc8aW5maWxlLm1hZT4nLCAnLW9tYWUnLCAnPG91dGZpbGUubWFlPic=

> <r_lp_tautomer_probability>
1

> <r_epik_Ionization_Penalty>
0.00274162

> <r_epik_Ionization_Penalty_Charging>
0.00243722

> <r_epik_Ionization_Penalty_Neutral>
0.000304399

> <r_epik_State_Penalty>
-0

> <r_epik_Charging_Adjusted_Penalty>
0.00243722

> <i_epik_Tot_Q>
1

> <i_epik_Tot_abs_Q>
1

> <r_epik_Metal_State_Penalty>
-0

> <b_epik_Metal_Only>
0

> <s_lp_Force_Field>
OPLS_2005

> <r_lp_Energy>
74.1365

> <b_lp_Chiralities_Consistent>
1

> <s_lp_Variant>
AV-unprocessed.smi:169-7

> <Gold.Version>
5.8.1

> <Gold.Id.Protein>
6NUR|6NUR_protein|mol2

> <Gold.PLP.Fitness>
40.6703

> <Gold.PLP.PLP>
-31.2058

> <Gold.PLP.part.hbond>
-3.0000

> <Gold.PLP.part.metal>
0.0000

> <Gold.PLP.part.buried>
-4.8937

> <Gold.PLP.part.nonpolar>
-25.5359

> <Gold.PLP.part.repulsive>
3.0252

> <Gold.PLP.ligand.clash>
0.0000

> <Gold.PLP.ligand.torsion>
1.5305

> <Gold.PLP.Chemscore.Hbond>
4.0000

> <Gold.PLP.Chemscore.CHOScore>
0.0000

> <Gold.PLP.Chemscore.Metal>
0.0000

> <Gold.Chemscore.Hbonds>
donor molecule, donor type, donor heavy atom, donor atom, acceptor molecule, acceptor atom, score
      L1  H     3    56       P1  7948  2.00
      P1  H  7997  8008       L1    24  1.00
      P1  H 10752 10763       L1    15  0.74

> <Gold.PLP.Chemscore.Internal.Correction>
0.5255

> <Gold.Rescore>
     Score         DG    S(hbond)    S(metal)    S(lipo)     H(rot)  DE(clash)    DE(int)     intcor
     10.83     -12.76       2.00        0.00      62.43       2.62       0.11       1.82       ----

> <Gold.Chemscore.Fitness>
10.8310

> <Gold.Chemscore.DG>
-12.7565

> <Gold.Chemscore.ZeroCoef>
-5.4800

> <Gold.Chemscore.Hbond>
2.0007

> <Gold.Chemscore.Metal>
0.0000

> <Gold.Chemscore.Lipo>
62.4315

> <Gold.Chemscore.Internal_Hbond>
0.0000

> <Gold.Chemscore.DEClash>
0.1092

> <Gold.Chemscore.DEInternal>
1.8163

> <Gold.Chemscore.Rot>
2.6212

> <Gold.Chemscore.Internal.Correction>
   9.000000E+99

> <Gold.Chemscore.Hbonds>
donor molecule, donor type, donor heavy atom, donor atom, acceptor molecule, acceptor atom, score
      L1  H     3    56       P1  7948  0.93
      P1  H  7997  8008       L1    24  0.65
      P1  H 10752 10763       L1    15  0.05

> <Gold.Chemscore.Hbond.Weighted>
-6.6822

> <Gold.Chemscore.Metal.Weighted>
-0.0000

> <Gold.Chemscore.Lipo.Weighted>
-7.3045

> <Gold.Chemscore.Internal_Hbond.Weighted>
0.0000

> <Gold.Chemscore.DEClash.Weighted>
0.1092

> <Gold.Chemscore.DEInternal.Weighted>
1.8163

> <Gold.Chemscore.Rot.Weighted>
6.7102

> <Gold.Chemscore.Internal.Correction.Weighted>
   9.000000E+99

> <Gold.Protein.RotatedTorsions>
[ 6907 6896 6895 6894 ] final  -93.19 input  -60.11 | X-H torsion
[ 7974 7965 7964 7962 ] final  128.93 input  175.53 | X-H torsion
[ 8008 7997 7996 7995 ] final  -93.51 input   59.86 | X-H torsion
[ 10167 10162 10161 10158 ] final   26.96 input  -65.29 | X-H torsion
[ 10718 10713 10712 10709 ] final -133.41 input   66.30 | X-H torsion
[ 10763 10752 10751 10750 ] final  107.21 input  -60.55 | X-H torsion
[ 11005 11000 10999 10996 ] final  -35.33 input  -57.11 | X-H torsion

> <Gold.Protein.ActiveResidues>
 VAL166  LYS551  ARG553  GLY616  TRP617  ASP618  TYR619  PRO620  LYS621  CYS622 
 ASP623  PHE694  ASN695  SER759  ASP760  ASP761  ALA762  ILE779  LEU786  VAL792 
 PHE793  MET794  SER795  GLU796  ALA797  LYS798  CYS799  TRP800  GLU811  SER814 

> <Gold.Protein.RotatedAtoms>
  150.6918  134.2005  159.4319 H   0  0  0  0  0  0  0  0  0  0  0  0  # atno 6907 bound_to 6896
  151.9971  134.9945  160.0573 H   0  0  0  0  0  0  0  0  0  0  0  0  # atno 6908 bound_to 6896
  152.1613  133.4548  159.4899 H   0  0  0  0  0  0  0  0  0  0  0  0  # atno 6909 bound_to 6896
  145.0341  139.4020  143.5135 H   0  0  0  0  0  0  0  0  0  0  0  0  # atno 7974 bound_to 7965
  154.7365  140.0498  157.0773 H   0  0  0  0  0  0  0  0  0  0  0  0  # atno 8008 bound_to 7997
  155.0233  140.3149  155.4766 H   0  0  0  0  0  0  0  0  0  0  0  0  # atno 8009 bound_to 7997
  156.2854  140.2163  156.5352 H   0  0  0  0  0  0  0  0  0  0  0  0  # atno 8010 bound_to 7997
  140.4979  144.0363  150.6321 H   0  0  0  0  0  0  0  0  0  0  0  0  # atno 10167 bound_to 10162
  156.2446  130.7116  151.0991 H   0  0  0  0  0  0  0  0  0  0  0  0  # atno 10718 bound_to 10713
  153.4036  135.3852  155.2004 H   0  0  0  0  0  0  0  0  0  0  0  0  # atno 10763 bound_to 10752
  154.8731  135.3777  154.4588 H   0  0  0  0  0  0  0  0  0  0  0  0  # atno 10764 bound_to 10752
  153.5088  135.7087  153.5854 H   0  0  0  0  0  0  0  0  0  0  0  0  # atno 10765 bound_to 10752
  140.9787  133.7068  156.1647 H   0  0  0  0  0  0  0  0  0  0  0  0  # atno 11005 bound_to 11000
  146.3502  139.9907  142.8686 LP  0  0  0  0  0  0  0  0  0  0  0  0  # atno 17320 bound_to 7965
  145.1732  140.9731  143.4309 LP  0  0  0  0  0  0  0  0  0  0  0  0  # atno 17321 bound_to 7965
  140.3650  143.2886  152.0341 LP  0  0  0  0  0  0  0  0  0  0  0  0  # atno 17342 bound_to 10162
  139.4865  144.6274  151.7138 LP  0  0  0  0  0  0  0  0  0  0  0  0  # atno 17343 bound_to 10162
  157.7189  131.0693  150.6214 LP  0  0  0  0  0  0  0  0  0  0  0  0  # atno 17370 bound_to 10713
  156.6290  130.4426  149.5794 LP  0  0  0  0  0  0  0  0  0  0  0  0  # atno 17371 bound_to 10713
  140.7219  134.4349  157.5574 LP  0  0  0  0  0  0  0  0  0  0  0  0  # atno 17394 bound_to 11000
  139.8941  134.8714  156.2192 LP  0  0  0  0  0  0  0  0  0  0  0  0  # atno 17395 bound_to 11000

$$$$
