AV-unprocessed.smi:2083|AV-procd|sdf|8495|dock1
  -GOLD-   2272011203D 1   1.00000     0.00000
 Structure written by MMmdl.
 45 46  0  0  0  0  0  0  0  0  2 V2000
  151.3968  140.8284  156.0260 C   0  0  0  0  0  0  0  0  0  0  0  0
  151.0724  139.3933  155.7907 C   0  0  0  0  0  0  0  0  0  0  0  0
  150.2624  138.7573  154.8921 C   0  0  0  0  0  0  0  0  0  0  0  0
  150.4227  137.3875  155.2312 C   0  0  0  0  0  0  0  0  0  0  0  0
  149.7298  136.3749  154.5193 N   0  0  0  0  0  0  0  0  0  0  0  0
  149.2899  135.1972  154.9942 C   0  0  0  0  0  0  0  0  0  0  0  0
  149.4432  134.7956  156.1481 O   0  0  0  0  0  0  0  0  0  0  0  0
  148.6563  134.4922  154.0448 N   0  0  0  0  0  0  0  0  0  0  0  0
  148.0295  133.1870  154.2390 C   0  0  0  0  0  0  0  0  0  0  0  0
  148.4796  132.1456  153.1817 C   0  0  1  0  0  0  0  0  0  0  0  0
  149.2418  130.9492  153.7842 C   0  0  0  0  0  0  0  0  0  0  0  0
  147.3581  131.6655  152.3214 N   0  3  1  0  0  0  0  0  0  0  0  0
  146.5033  130.6039  152.9197 C   0  0  0  0  0  0  0  0  0  0  0  0
  145.5588  130.0079  151.8647 C   0  0  0  0  0  0  0  0  0  0  0  0
  144.7020  131.1037  151.2133 C   0  0  0  0  0  0  0  0  0  0  0  0
  145.5764  132.2417  150.6534 C   0  0  2  0  0  0  0  0  0  0  0  0
  146.3083  131.8468  149.3588 C   0  0  0  0  0  0  0  0  0  0  0  0
  146.5445  132.7652  151.7353 C   0  0  0  0  0  0  0  0  0  0  0  0
  151.2563  137.2035  156.2436 N   0  0  0  0  0  0  0  0  0  0  0  0
  151.6763  138.4883  156.6076 O   0  0  0  0  0  0  0  0  0  0  0  0
  150.8840  141.4672  155.3067 H   0  0  0  0  0  0  0  0  0  0  0  0
  152.4684  141.0029  155.9301 H   0  0  0  0  0  0  0  0  0  0  0  0
  151.0918  141.1341  157.0268 H   0  0  0  0  0  0  0  0  0  0  0  0
  149.6542  139.2035  154.1194 H   0  0  0  0  0  0  0  0  0  0  0  0
  149.5408  136.5748  153.5483 H   0  0  0  0  0  0  0  0  0  0  0  0
  148.5786  134.9006  153.1247 H   0  0  0  0  0  0  0  0  0  0  0  0
  148.2284  132.8292  155.2501 H   0  0  0  0  0  0  0  0  0  0  0  0
  146.9526  133.3414  154.1808 H   0  0  0  0  0  0  0  0  0  0  0  0
  149.1916  132.6397  152.5187 H   0  0  0  0  0  0  0  0  0  0  0  0
  150.1908  131.2620  154.2196 H   0  0  0  0  0  0  0  0  0  0  0  0
  149.4726  130.2050  153.0215 H   0  0  0  0  0  0  0  0  0  0  0  0
  148.6710  130.4562  154.5711 H   0  0  0  0  0  0  0  0  0  0  0  0
  147.1180  129.8066  153.3363 H   0  0  0  0  0  0  0  0  0  0  0  0
  145.9139  131.0148  153.7402 H   0  0  0  0  0  0  0  0  0  0  0  0
  146.1382  129.4836  151.1041 H   0  0  0  0  0  0  0  0  0  0  0  0
  144.9133  129.2596  152.3256 H   0  0  0  0  0  0  0  0  0  0  0  0
  144.0756  130.6792  150.4281 H   0  0  0  0  0  0  0  0  0  0  0  0
  144.0190  131.5106  151.9600 H   0  0  0  0  0  0  0  0  0  0  0  0
  144.9087  133.0626  150.3885 H   0  0  0  0  0  0  0  0  0  0  0  0
  147.0260  131.0432  149.5244 H   0  0  0  0  0  0  0  0  0  0  0  0
  146.8543  132.6946  148.9445 H   0  0  0  0  0  0  0  0  0  0  0  0
  145.6032  131.5101  148.5982 H   0  0  0  0  0  0  0  0  0  0  0  0
  145.9750  133.2555  152.5256 H   0  0  0  0  0  0  0  0  0  0  0  0
  147.1943  133.5267  151.3025 H   0  0  0  0  0  0  0  0  0  0  0  0
  147.8124  131.2315  151.5305 H   0  0  0  0  0  0  0  0  0  0  0  0
  1  2  1  0  0  0  0
  1 21  1  0  0  0  0
  1 22  1  0  0  0  0
  1 23  1  0  0  0  0
  2 20  1  0  0  0  0
  2  3  2  0  0  0  0
  3  4  1  0  0  0  0
  3 24  1  0  0  0  0
  4  5  1  0  0  0  0
  4 19  2  0  0  0  0
  5  6  1  0  0  0  0
  5 25  1  0  0  0  0
  6  7  2  0  0  0  0
  6  8  1  0  0  0  0
  8  9  1  0  0  0  0
  8 26  1  0  0  0  0
  9 10  1  0  0  0  0
  9 27  1  0  0  0  0
  9 28  1  0  0  0  0
 10 11  1  0  0  0  0
 10 12  1  0  0  0  0
 10 29  1  0  0  0  0
 11 30  1  0  0  0  0
 11 31  1  0  0  0  0
 11 32  1  0  0  0  0
 12 18  1  0  0  0  0
 12 13  1  0  0  0  0
 12 45  1  0  0  0  0
 13 14  1  0  0  0  0
 13 33  1  0  0  0  0
 13 34  1  0  0  0  0
 14 15  1  0  0  0  0
 14 35  1  0  0  0  0
 14 36  1  0  0  0  0
 15 16  1  0  0  0  0
 15 37  1  0  0  0  0
 15 38  1  0  0  0  0
 16 17  1  0  0  0  0
 16 18  1  0  0  0  0
 16 39  1  0  0  0  0
 17 40  1  0  0  0  0
 17 41  1  0  0  0  0
 17 42  1  0  0  0  0
 18 43  1  0  0  0  0
 18 44  1  0  0  0  0
 19 20  1  0  0  0  0
M  CHG  1  12   1
M  END
> <s_m_source_file>
AV-unprocessed.smi

> <i_m_source_file_index>
2083

> <i_lp_mmshare_version>
43012

> <i_f3d_flags>
0

> <s_epik_input>
W0NIM11jMVtjSF1jKG5vMSlbTkhdQyg9TylbTkhdW0NIMl1bQ0BIXShbQ0gzXSlOMltDSDJdW0NIMl1bQ0gyXVtDQEBIXShbQ0gzXSlbQ0gyXTI=

> <s_epik_cmdline>
J2VwaWtfcHl0aG9uJywgJy1waCcsICc3LjAnLCAnLXRuJywgJzgnLCAnLW1hJywgJzIwMCcsICctbWV0YWxfYmluZGluZycsICctaW1hZScsICc8aW5maWxlLm1hZT4nLCAnLW9tYWUnLCAnPG91dGZpbGUubWFlPic=

> <r_epik_Ionization_Penalty>
0.00216453

> <r_epik_Ionization_Penalty_Charging>
0.00212879

> <r_epik_Ionization_Penalty_Neutral>
3.57418e-05

> <r_epik_State_Penalty>
0.00146033

> <r_epik_Charging_Adjusted_Penalty>
0.00358912

> <i_epik_Tot_Q>
1

> <i_epik_Tot_abs_Q>
1

> <r_epik_Metal_State_Penalty>
0.0215827

> <b_epik_Metal_Only>
0

> <s_lp_Force_Field>
OPLS_2005

> <r_lp_Energy>
20.2755

> <b_lp_Chiralities_Consistent>
1

> <s_lp_Variant>
AV-unprocessed.smi:2083-6

> <Gold.Version>
5.8.1

> <Gold.Id.Protein>
6NUR|6NUR_protein|mol2

> <Gold.PLP.Fitness>
42.1346

> <Gold.PLP.PLP>
-35.3165

> <Gold.PLP.part.hbond>
-3.2428

> <Gold.PLP.part.metal>
0.0000

> <Gold.PLP.part.buried>
-1.6742

> <Gold.PLP.part.nonpolar>
-29.7725

> <Gold.PLP.part.repulsive>
0.0735

> <Gold.PLP.ligand.clash>
0.0000

> <Gold.PLP.ligand.torsion>
1.1587

> <Gold.PLP.Chemscore.Hbond>
3.0000

> <Gold.PLP.Chemscore.CHOScore>
0.0000

> <Gold.PLP.Chemscore.Metal>
0.0000

> <Gold.Chemscore.Hbonds>
donor molecule, donor type, donor heavy atom, donor atom, acceptor molecule, acceptor atom, score
      L1  H     5    25       P1  7948  1.00
      L1  H     8    26       P1  7948  1.00
      L1  H    12    45       P1 10747  1.00

> <Gold.PLP.Chemscore.Internal.Correction>
0.1356

> <Gold.Rescore>
     Score         DG    S(hbond)    S(metal)    S(lipo)     H(rot)  DE(clash)    DE(int)     intcor
     18.81     -21.02       2.75        0.00      88.16       1.55       0.00       2.20       ----

> <Gold.Chemscore.Fitness>
18.8144

> <Gold.Chemscore.DG>
-21.0183

> <Gold.Chemscore.ZeroCoef>
-5.4800

> <Gold.Chemscore.Hbond>
2.7500

> <Gold.Chemscore.Metal>
0.0000

> <Gold.Chemscore.Lipo>
88.1602

> <Gold.Chemscore.Internal_Hbond>
0.0000

> <Gold.Chemscore.DEClash>
0.0000

> <Gold.Chemscore.DEInternal>
2.2039

> <Gold.Chemscore.Rot>
1.5474

> <Gold.Chemscore.Internal.Correction>
   9.000000E+99

> <Gold.Chemscore.Hbonds>
donor molecule, donor type, donor heavy atom, donor atom, acceptor molecule, acceptor atom, score
      L1  H     5    25       P1  7948  0.69
      L1  H     8    26       P1  7948  0.54
      L1  H    12    45       P1 10747  1.00

> <Gold.Chemscore.Hbond.Weighted>
-9.1848

> <Gold.Chemscore.Metal.Weighted>
-0.0000

> <Gold.Chemscore.Lipo.Weighted>
-10.3147

> <Gold.Chemscore.Internal_Hbond.Weighted>
0.0000

> <Gold.Chemscore.DEClash.Weighted>
0.0000

> <Gold.Chemscore.DEInternal.Weighted>
2.2039

> <Gold.Chemscore.Rot.Weighted>
3.9612

> <Gold.Chemscore.Internal.Correction.Weighted>
   9.000000E+99

> <Gold.Protein.RotatedTorsions>
[ 6907 6896 6895 6894 ] final  -15.47 input  -60.11 | X-H torsion
[ 7974 7965 7964 7962 ] final   73.42 input  175.53 | X-H torsion
[ 8008 7997 7996 7995 ] final  -44.46 input   59.86 | X-H torsion
[ 10167 10162 10161 10158 ] final    7.87 input  -65.29 | X-H torsion
[ 10718 10713 10712 10709 ] final -135.15 input   66.30 | X-H torsion
[ 10763 10752 10751 10750 ] final   63.49 input  -60.55 | X-H torsion
[ 11005 11000 10999 10996 ] final   61.74 input  -57.11 | X-H torsion

> <Gold.Protein.ActiveResidues>
 VAL166  LYS551  ARG553  GLY616  TRP617  ASP618  TYR619  PRO620  LYS621  CYS622 
 ASP623  PHE694  ASN695  SER759  ASP760  ASP761  ALA762  ILE779  LEU786  VAL792 
 PHE793  MET794  SER795  GLU796  ALA797  LYS798  CYS799  TRP800  GLU811  SER814 

> <Gold.Protein.RotatedAtoms>
  151.3234  135.0824  159.9313 H   0  0  0  0  0  0  0  0  0  0  0  0  # atno 6907 bound_to 6896
  152.5251  133.9616  159.7730 H   0  0  0  0  0  0  0  0  0  0  0  0  # atno 6908 bound_to 6896
  150.9941  133.6068  159.2734 H   0  0  0  0  0  0  0  0  0  0  0  0  # atno 6909 bound_to 6896
  145.7411  139.2721  143.1485 H   0  0  0  0  0  0  0  0  0  0  0  0  # atno 7974 bound_to 7965
  154.3997  140.1421  156.3687 H   0  0  0  0  0  0  0  0  0  0  0  0  # atno 8008 bound_to 7997
  155.8113  140.3472  155.5438 H   0  0  0  0  0  0  0  0  0  0  0  0  # atno 8009 bound_to 7997
  155.8384  140.0923  157.1740 H   0  0  0  0  0  0  0  0  0  0  0  0  # atno 8010 bound_to 7997
  140.6347  143.7914  150.7343 H   0  0  0  0  0  0  0  0  0  0  0  0  # atno 10167 bound_to 10162
  156.2631  130.7221  151.1163 H   0  0  0  0  0  0  0  0  0  0  0  0  # atno 10718 bound_to 10713
  153.0020  135.5427  154.6360 H   0  0  0  0  0  0  0  0  0  0  0  0  # atno 10763 bound_to 10752
  154.5627  135.2835  155.0906 H   0  0  0  0  0  0  0  0  0  0  0  0  # atno 10764 bound_to 10752
  154.2102  135.6468  153.5165 H   0  0  0  0  0  0  0  0  0  0  0  0  # atno 10765 bound_to 10752
  140.0140  134.6253  155.9737 H   0  0  0  0  0  0  0  0  0  0  0  0  # atno 11005 bound_to 11000
  146.0447  140.8130  142.9811 LP  0  0  0  0  0  0  0  0  0  0  0  0  # atno 17320 bound_to 7965
  144.6870  140.2962  143.7270 LP  0  0  0  0  0  0  0  0  0  0  0  0  # atno 17321 bound_to 7965
  140.1532  143.4339  152.2117 LP  0  0  0  0  0  0  0  0  0  0  0  0  # atno 17342 bound_to 10162
  139.5558  144.7371  151.4298 LP  0  0  0  0  0  0  0  0  0  0  0  0  # atno 17343 bound_to 10162
  157.7258  131.0651  150.5938 LP  0  0  0  0  0  0  0  0  0  0  0  0  # atno 17370 bound_to 10713
  156.6028  130.4359  149.5890 LP  0  0  0  0  0  0  0  0  0  0  0  0  # atno 17371 bound_to 10713
  141.1730  133.6538  156.4723 LP  0  0  0  0  0  0  0  0  0  0  0  0  # atno 17394 bound_to 11000
  140.4504  134.6934  157.5036 LP  0  0  0  0  0  0  0  0  0  0  0  0  # atno 17395 bound_to 11000

$$$$
