AV-unprocessed.smi:1531|AV-procd|sdf|6156|dock2
  -GOLD-   22720 6303D 1   1.00000     0.00000
 Structure written by MMmdl.
 44 45  0  0  0  0  0  0  0  0  1 V2000
  152.7426  145.1311  157.4677 C   0  0  0  0  0  0  0  0  0  0  0  0
  151.7348  144.9580  158.6130 C   0  0  0  0  0  0  0  0  0  0  0  0
  151.7240  143.5437  159.2435 C   0  0  2  0  0  0  0  0  0  0  0  0
  152.9815  143.3003  160.1106 C   0  0  0  0  0  0  0  0  0  0  0  0
  152.9980  141.8969  160.7341 C   0  0  0  0  0  0  0  0  0  0  0  0
  152.8857  140.8132  159.6557 C   0  0  0  0  0  0  0  0  0  0  0  0
  151.6262  141.0221  158.8058 C   0  0  0  0  0  0  0  0  0  0  0  0
  151.5917  142.4284  158.1715 C   0  0  1  0  0  0  0  0  0  0  0  0
  150.3500  142.5828  157.4144 N   0  0  0  0  0  0  0  0  0  0  0  0
  149.8249  141.6663  156.5887 C   0  0  0  0  0  0  0  0  0  0  0  0
  150.3383  140.5683  156.3739 O   0  0  0  0  0  0  0  0  0  0  0  0
  148.6795  142.1030  156.0405 N   0  0  0  0  0  0  0  0  0  0  0  0
  147.8439  141.4051  155.1332 C   0  0  0  0  0  0  0  0  0  0  0  0
  146.6023  140.7509  155.3718 C   0  0  0  0  0  0  0  0  0  0  0  0
  146.1276  140.2116  154.2590 N   0  0  0  0  0  0  0  0  0  0  0  0
  147.0447  140.5067  153.3038 N   0  0  0  0  0  0  0  0  0  0  0  0
  146.8317  140.0580  151.9394 C   0  0  0  0  0  0  0  0  0  0  0  0
  146.3979  138.5917  151.8984 C   0  0  0  0  0  0  0  0  0  0  0  0
  145.2301  138.2856  152.4697 N   0  0  0  0  0  0  0  0  0  0  0  0
  147.1068  137.7473  151.3554 O   0  0  0  0  0  0  0  0  0  0  0  0
  148.1064  141.2329  153.8075 C   0  0  0  0  0  0  0  0  0  0  0  0
  152.7690  146.1685  157.1339 H   0  0  0  0  0  0  0  0  0  0  0  0
  152.4848  144.5210  156.6028 H   0  0  0  0  0  0  0  0  0  0  0  0
  153.7500  144.8608  157.7850 H   0  0  0  0  0  0  0  0  0  0  0  0
  151.9807  145.7014  159.3710 H   0  0  0  0  0  0  0  0  0  0  0  0
  150.7347  145.2126  158.2600 H   0  0  0  0  0  0  0  0  0  0  0  0
  150.8525  143.4778  159.8971 H   0  0  0  0  0  0  0  0  0  0  0  0
  153.8776  143.4363  159.5038 H   0  0  0  0  0  0  0  0  0  0  0  0
  153.0400  144.0346  160.9134 H   0  0  0  0  0  0  0  0  0  0  0  0
  153.9147  141.7562  161.3077 H   0  0  0  0  0  0  0  0  0  0  0  0
  152.1727  141.7995  161.4407 H   0  0  0  0  0  0  0  0  0  0  0  0
  153.7689  140.8359  159.0161 H   0  0  0  0  0  0  0  0  0  0  0  0
  152.8630  139.8266  160.1192 H   0  0  0  0  0  0  0  0  0  0  0  0
  151.5838  140.2580  158.0286 H   0  0  0  0  0  0  0  0  0  0  0  0
  150.7428  140.8764  159.4292 H   0  0  0  0  0  0  0  0  0  0  0  0
  152.4399  142.5196  157.4898 H   0  0  0  0  0  0  0  0  0  0  0  0
  149.8569  143.4560  157.5285 H   0  0  0  0  0  0  0  0  0  0  0  0
  148.3674  143.0248  156.3085 H   0  0  0  0  0  0  0  0  0  0  0  0
  146.0363  140.6458  156.2852 H   0  0  0  0  0  0  0  0  0  0  0  0
  146.0794  140.6858  151.4592 H   0  0  0  0  0  0  0  0  0  0  0  0
  147.7597  140.1870  151.3808 H   0  0  0  0  0  0  0  0  0  0  0  0
  144.8996  137.3313  152.4585 H   0  0  0  0  0  0  0  0  0  0  0  0
  144.6776  139.0110  152.9029 H   0  0  0  0  0  0  0  0  0  0  0  0
  148.9330  141.5552  153.1913 H   0  0  0  0  0  0  0  0  0  0  0  0
  1  2  1  0  0  0  0
  1 22  1  0  0  0  0
  1 23  1  0  0  0  0
  1 24  1  0  0  0  0
  2  3  1  0  0  0  0
  2 25  1  0  0  0  0
  2 26  1  0  0  0  0
  3  8  1  0  0  0  0
  3  4  1  0  0  0  0
  3 27  1  0  0  0  0
  4  5  1  0  0  0  0
  4 28  1  0  0  0  0
  4 29  1  0  0  0  0
  5  6  1  0  0  0  0
  5 30  1  0  0  0  0
  5 31  1  0  0  0  0
  6  7  1  0  0  0  0
  6 32  1  0  0  0  0
  6 33  1  0  0  0  0
  7  8  1  0  0  0  0
  7 34  1  0  0  0  0
  7 35  1  0  0  0  0
  8  9  1  0  0  0  0
  8 36  1  0  0  0  0
  9 10  1  0  0  0  0
  9 37  1  0  0  0  0
 10 11  2  0  0  0  0
 10 12  1  0  0  0  0
 12 13  1  0  0  0  0
 12 38  1  0  0  0  0
 13 21  2  0  0  0  0
 13 14  1  0  0  0  0
 14 15  2  0  0  0  0
 14 39  1  0  0  0  0
 15 16  1  0  0  0  0
 16 17  1  0  0  0  0
 16 21  1  0  0  0  0
 17 18  1  0  0  0  0
 17 40  1  0  0  0  0
 17 41  1  0  0  0  0
 18 19  1  0  0  0  0
 18 20  2  0  0  0  0
 19 42  1  0  0  0  0
 19 43  1  0  0  0  0
 21 44  1  0  0  0  0
M  END
> <s_m_source_file>
AV-unprocessed.smi

> <i_m_source_file_index>
1531

> <i_lp_mmshare_version>
43012

> <i_f3d_flags>
0

> <s_epik_input>
W0NIM11bQ0gyXVtDQEBIXTFbQ0gyXVtDSDJdW0NIMl1bQ0gyXVtDQEhdMVtOSF1DKD1PKVtOSF1jMltjSF1ubihbY0hdMilbQ0gyXUMoPU8pW05IMl0=

> <s_epik_cmdline>
J2VwaWtfcHl0aG9uJywgJy1waCcsICc3LjAnLCAnLXRuJywgJzgnLCAnLW1hJywgJzIwMCcsICctbWV0YWxfYmluZGluZycsICctaW1hZScsICc8aW5maWxlLm1hZT4nLCAnLW9tYWUnLCAnPG91dGZpbGUubWFlPic=

> <r_lp_tautomer_probability>
1

> <r_epik_Ionization_Penalty>
4.83437e-05

> <r_epik_Ionization_Penalty_Charging>
0

> <r_epik_Ionization_Penalty_Neutral>
4.83437e-05

> <r_epik_State_Penalty>
-0

> <r_epik_Charging_Adjusted_Penalty>
0

> <i_epik_Tot_Q>
0

> <i_epik_Tot_abs_Q>
0

> <r_epik_Metal_State_Penalty>
-0

> <b_epik_Metal_Only>
0

> <s_lp_Force_Field>
OPLS_2005

> <r_lp_Energy>
14.6895

> <b_lp_Chiralities_Consistent>
1

> <s_lp_Variant>
AV-unprocessed.smi:1531-1

> <Gold.Version>
5.8.1

> <Gold.Id.Protein>
6NUR|6NUR_protein|mol2

> <Gold.PLP.Fitness>
47.2661

> <Gold.PLP.PLP>
-39.1095

> <Gold.PLP.part.hbond>
-4.8582

> <Gold.PLP.part.metal>
0.0000

> <Gold.PLP.part.buried>
-1.4876

> <Gold.PLP.part.nonpolar>
-38.4594

> <Gold.PLP.part.repulsive>
5.9305

> <Gold.PLP.ligand.clash>
0.0000

> <Gold.PLP.ligand.torsion>
1.1199

> <Gold.PLP.Chemscore.Hbond>
2.7338

> <Gold.PLP.Chemscore.CHOScore>
0.7144

> <Gold.PLP.Chemscore.Metal>
0.0000

> <Gold.Chemscore.Hbonds>
donor molecule, donor type, donor heavy atom, donor atom, acceptor molecule, acceptor atom, score
      L1  H    12    38       P1  8028  0.62
      L1  H    19    43       P1 10175  0.80
      P1  H  7954  7966       L1    20  1.00
      L1  C    21    44       P1  7957  0.62

> <Gold.PLP.Chemscore.Internal.Correction>
0.0518

> <Gold.Rescore>
     Score         DG    S(hbond)    S(metal)    S(lipo)     H(rot)  DE(clash)    DE(int)     intcor
     16.24     -23.64       2.96        0.00     117.47       2.13       4.84       2.56       ----

> <Gold.Chemscore.Fitness>
16.2366

> <Gold.Chemscore.DG>
-23.6359

> <Gold.Chemscore.ZeroCoef>
-5.4800

> <Gold.Chemscore.Hbond>
2.9563

> <Gold.Chemscore.Metal>
0.0000

> <Gold.Chemscore.Lipo>
117.4673

> <Gold.Chemscore.Internal_Hbond>
0.0000

> <Gold.Chemscore.DEClash>
4.8375

> <Gold.Chemscore.DEInternal>
2.5617

> <Gold.Chemscore.Rot>
2.1335

> <Gold.Chemscore.Internal.Correction>
   9.000000E+99

> <Gold.Chemscore.Hbonds>
donor molecule, donor type, donor heavy atom, donor atom, acceptor molecule, acceptor atom, score
      L1  H     9    37       P1  8028  0.02
      L1  H    12    38       P1  8028  0.49
      L1  H    19    43       P1 10175  0.80
      P1  H  7954  7966       L1    20  1.00

> <Gold.Chemscore.Hbond.Weighted>
-9.8740

> <Gold.Chemscore.Metal.Weighted>
-0.0000

> <Gold.Chemscore.Lipo.Weighted>
-13.7437

> <Gold.Chemscore.Internal_Hbond.Weighted>
0.0000

> <Gold.Chemscore.DEClash.Weighted>
4.8375

> <Gold.Chemscore.DEInternal.Weighted>
2.5617

> <Gold.Chemscore.Rot.Weighted>
5.4618

> <Gold.Chemscore.Internal.Correction.Weighted>
   9.000000E+99

> <Gold.Protein.RotatedTorsions>
[ 6907 6896 6895 6894 ] final  -39.17 input  -60.11 | X-H torsion
[ 7974 7965 7964 7962 ] final    0.38 input  175.53 | X-H torsion
[ 8008 7997 7996 7995 ] final  -30.69 input   59.86 | X-H torsion
[ 10167 10162 10161 10158 ] final  150.36 input  -65.29 | X-H torsion
[ 10718 10713 10712 10709 ] final    2.82 input   66.30 | X-H torsion
[ 10763 10752 10751 10750 ] final   11.84 input  -60.55 | X-H torsion
[ 11005 11000 10999 10996 ] final -135.77 input  -57.11 | X-H torsion

> <Gold.Protein.ActiveResidues>
 VAL166  LYS551  ARG553  GLY616  TRP617  ASP618  TYR619  PRO620  LYS621  CYS622 
 ASP623  PHE694  ASN695  SER759  ASP760  ASP761  ALA762  ILE779  LEU786  VAL792 
 PHE793  MET794  SER795  GLU796  ALA797  LYS798  CYS799  TRP800  GLU811  SER814 

> <Gold.Protein.RotatedAtoms>
  150.9935  134.9264  159.7913 H   0  0  0  0  0  0  0  0  0  0  0  0  # atno 6907 bound_to 6896
  152.5258  134.3249  159.9172 H   0  0  0  0  0  0  0  0  0  0  0  0  # atno 6908 bound_to 6896
  151.3255  133.3981  159.2692 H   0  0  0  0  0  0  0  0  0  0  0  0  # atno 6909 bound_to 6896
  146.2434  140.1147  142.8342 H   0  0  0  0  0  0  0  0  0  0  0  0  # atno 7974 bound_to 7965
  154.4241  140.1784  156.1447 H   0  0  0  0  0  0  0  0  0  0  0  0  # atno 8008 bound_to 7997
  155.9964  140.3364  155.6777 H   0  0  0  0  0  0  0  0  0  0  0  0  # atno 8009 bound_to 7997
  155.6303  140.0669  157.2641 H   0  0  0  0  0  0  0  0  0  0  0  0  # atno 8010 bound_to 7997
  139.4851  144.5528  151.7370 H   0  0  0  0  0  0  0  0  0  0  0  0  # atno 10167 bound_to 10162
  156.8687  130.5612  149.5658 H   0  0  0  0  0  0  0  0  0  0  0  0  # atno 10718 bound_to 10713
  153.1884  135.6838  153.8385 H   0  0  0  0  0  0  0  0  0  0  0  0  # atno 10763 bound_to 10752
  153.7692  135.3198  155.3350 H   0  0  0  0  0  0  0  0  0  0  0  0  # atno 10764 bound_to 10752
  154.8102  135.4722  154.0595 H   0  0  0  0  0  0  0  0  0  0  0  0  # atno 10765 bound_to 10752
  140.8867  134.1863  157.4555 H   0  0  0  0  0  0  0  0  0  0  0  0  # atno 11005 bound_to 11000
  145.0457  140.8980  143.5025 LP  0  0  0  0  0  0  0  0  0  0  0  0  # atno 17320 bound_to 7965
  145.1236  139.2678  143.5576 LP  0  0  0  0  0  0  0  0  0  0  0  0  # atno 17321 bound_to 7965
  140.5085  144.1061  150.5989 LP  0  0  0  0  0  0  0  0  0  0  0  0  # atno 17342 bound_to 10162
  140.3979  143.2719  151.9983 LP  0  0  0  0  0  0  0  0  0  0  0  0  # atno 17343 bound_to 10162
  156.0738  130.5765  150.9434 LP  0  0  0  0  0  0  0  0  0  0  0  0  # atno 17370 bound_to 10713
  157.6208  131.0930  150.8626 LP  0  0  0  0  0  0  0  0  0  0  0  0  # atno 17371 bound_to 10713
  139.8725  134.9841  156.5224 LP  0  0  0  0  0  0  0  0  0  0  0  0  # atno 17394 bound_to 11000
  140.8396  133.8215  155.9062 LP  0  0  0  0  0  0  0  0  0  0  0  0  # atno 17395 bound_to 11000

$$$$
