AV-unprocessed.smi:1473|AV-procd|sdf|5969|dock7
  -GOLD-   22720 6 53D 1   1.00000     0.00000
 Structure written by MMmdl.
 35 36  0  0  0  0  0  0  0  0  2 V2000
  149.1026  134.8818  154.1368 N   0  0  0  0  0  0  0  0  0  0  0  0
  149.8790  135.8396  155.3337 S   0  0  0  0  0  0  0  0  0  0  0  0
  148.9192  136.1319  156.4088 O   0  0  0  0  0  0  0  0  0  0  0  0
  151.2014  135.2652  155.6217 O   0  0  0  0  0  0  0  0  0  0  0  0
  150.1062  137.2767  154.4104 N   0  0  0  0  0  0  0  0  0  0  0  0
  151.2224  138.1739  154.7023 C   0  0  0  0  0  0  0  0  0  0  0  0
  150.7648  139.5732  155.0636 C   0  0  0  0  0  0  0  0  0  0  0  0
  149.6480  140.1466  154.4223 C   0  0  0  0  0  0  0  0  0  0  0  0
  149.2378  141.4391  154.7973 C   0  0  0  0  0  0  0  0  0  0  0  0
  149.9104  142.1046  155.7609 N   0  3  0  0  0  0  0  0  0  0  0  0
  150.9865  141.6050  156.4186 C   0  0  0  0  0  0  0  0  0  0  0  0
  151.5977  142.4085  157.4091 N   0  0  0  0  0  0  0  0  0  0  0  0
  151.4471  143.8571  157.2679 C   0  0  0  0  0  0  0  0  0  0  0  0
  152.4152  144.5995  158.2043 C   0  0  0  0  0  0  0  0  0  0  0  0
  152.2348  144.1453  159.5403 O   0  0  0  0  0  0  0  0  0  0  0  0
  152.5326  142.7603  159.6670 C   0  0  0  0  0  0  0  0  0  0  0  0
  151.5718  141.9374  158.7920 C   0  0  0  0  0  0  0  0  0  0  0  0
  151.4371  140.3069  156.0656 C   0  0  0  0  0  0  0  0  0  0  0  0
  149.7609  134.3039  153.6144 H   0  0  0  0  0  0  0  0  0  0  0  0
  148.4822  135.4308  153.5421 H   0  0  0  0  0  0  0  0  0  0  0  0
  149.8443  137.2029  153.4274 H   0  0  0  0  0  0  0  0  0  0  0  0
  151.8287  137.7512  155.5043 H   0  0  0  0  0  0  0  0  0  0  0  0
  151.8644  138.2283  153.8228 H   0  0  0  0  0  0  0  0  0  0  0  0
  149.1109  139.6038  153.6581 H   0  0  0  0  0  0  0  0  0  0  0  0
  148.3960  141.9570  154.3613 H   0  0  0  0  0  0  0  0  0  0  0  0
  151.6389  144.1834  156.2460 H   0  0  0  0  0  0  0  0  0  0  0  0
  150.4172  144.1283  157.5034 H   0  0  0  0  0  0  0  0  0  0  0  0
  153.4503  144.4496  157.8928 H   0  0  0  0  0  0  0  0  0  0  0  0
  152.2246  145.6720  158.1656 H   0  0  0  0  0  0  0  0  0  0  0  0
  153.5707  142.5734  159.3868 H   0  0  0  0  0  0  0  0  0  0  0  0
  152.4291  142.4689  160.7124 H   0  0  0  0  0  0  0  0  0  0  0  0
  150.5540  142.0094  159.1779 H   0  0  0  0  0  0  0  0  0  0  0  0
  151.8729  140.8910  158.8451 H   0  0  0  0  0  0  0  0  0  0  0  0
  152.2791  139.8464  156.5598 H   0  0  0  0  0  0  0  0  0  0  0  0
  149.5873  143.0398  156.0094 H   0  0  0  0  0  0  0  0  0  0  0  0
  1  2  1  0  0  0  0
  1 19  1  0  0  0  0
  1 20  1  0  0  0  0
  2  3  2  0  0  0  0
  2  4  2  0  0  0  0
  2  5  1  0  0  0  0
  5  6  1  0  0  0  0
  5 21  1  0  0  0  0
  6  7  1  0  0  0  0
  6 22  1  0  0  0  0
  6 23  1  0  0  0  0
  7 18  1  0  0  0  0
  7  8  2  0  0  0  0
  8  9  1  0  0  0  0
  8 24  1  0  0  0  0
  9 10  2  0  0  0  0
  9 25  1  0  0  0  0
 10 11  1  0  0  0  0
 10 35  1  0  0  0  0
 11 12  1  0  0  0  0
 11 18  2  0  0  0  0
 12 17  1  0  0  0  0
 12 13  1  0  0  0  0
 13 14  1  0  0  0  0
 13 26  1  0  0  0  0
 13 27  1  0  0  0  0
 14 15  1  0  0  0  0
 14 28  1  0  0  0  0
 14 29  1  0  0  0  0
 15 16  1  0  0  0  0
 16 17  1  0  0  0  0
 16 30  1  0  0  0  0
 16 31  1  0  0  0  0
 17 32  1  0  0  0  0
 17 33  1  0  0  0  0
 18 34  1  0  0  0  0
M  CHG  1  10   1
M  END
> <s_m_source_file>
AV-unprocessed.smi

> <i_m_source_file_index>
1473

> <i_lp_mmshare_version>
43012

> <i_f3d_flags>
0

> <s_epik_input>
W05IMl1TKD1PKSg9TylbTkhdW0NIMl1jMVtjSF1bY0hdbmMoW2NIXTEpTjJbQ0gyXVtDSDJdT1tDSDJdW0NIMl0y

> <s_epik_cmdline>
J2VwaWtfcHl0aG9uJywgJy1waCcsICc3LjAnLCAnLXRuJywgJzgnLCAnLW1hJywgJzIwMCcsICctbWV0YWxfYmluZGluZycsICctaW1hZScsICc8aW5maWxlLm1hZT4nLCAnLW9tYWUnLCAnPG91dGZpbGUubWFlPic=

> <r_lp_tautomer_probability>
0.999994

> <r_epik_Ionization_Penalty>
2.36475

> <r_epik_Ionization_Penalty_Charging>
1.69468

> <r_epik_Ionization_Penalty_Neutral>
0.670067

> <r_epik_State_Penalty>
1.95548

> <r_epik_Charging_Adjusted_Penalty>
3.65016

> <i_epik_Tot_Q>
1

> <i_epik_Tot_abs_Q>
1

> <r_epik_Metal_State_Penalty>
4.27053

> <b_epik_Metal_Only>
0

> <s_lp_Force_Field>
OPLS_2005

> <r_lp_Energy>
21.3801

> <b_lp_Chiralities_Consistent>
1

> <s_lp_Variant>
AV-unprocessed.smi:1473-4

> <Gold.Version>
5.8.1

> <Gold.Id.Protein>
6NUR|6NUR_protein|mol2

> <Gold.PLP.Fitness>
49.6397

> <Gold.PLP.PLP>
-37.1783

> <Gold.PLP.part.hbond>
-4.0000

> <Gold.PLP.part.metal>
0.0000

> <Gold.PLP.part.buried>
-0.1244

> <Gold.PLP.part.nonpolar>
-32.1483

> <Gold.PLP.part.repulsive>
0.3427

> <Gold.PLP.ligand.clash>
0.0000

> <Gold.PLP.ligand.torsion>
1.3069

> <Gold.PLP.Chemscore.Hbond>
4.5440

> <Gold.PLP.Chemscore.CHOScore>
0.0000

> <Gold.PLP.Chemscore.Metal>
0.0000

> <Gold.Chemscore.Hbonds>
donor molecule, donor type, donor heavy atom, donor atom, acceptor molecule, acceptor atom, score
      L1  H     1    20       P1  7948  0.50
      L1  H     5    21       P1  7948  1.00
      L1  H    10    35       P1  8028  2.00
      P1  H 10752 10763       L1     4  1.00

> <Gold.PLP.Chemscore.Internal.Correction>
1.4432

> <Gold.Rescore>
     Score         DG    S(hbond)    S(metal)    S(lipo)     H(rot)  DE(clash)    DE(int)     intcor
     20.59     -22.02       3.51        0.00      83.43       1.93       0.11       1.32       ----

> <Gold.Chemscore.Fitness>
20.5870

> <Gold.Chemscore.DG>
-22.0168

> <Gold.Chemscore.ZeroCoef>
-5.4800

> <Gold.Chemscore.Hbond>
3.5072

> <Gold.Chemscore.Metal>
0.0000

> <Gold.Chemscore.Lipo>
83.4307

> <Gold.Chemscore.Internal_Hbond>
0.0000

> <Gold.Chemscore.DEClash>
0.1096

> <Gold.Chemscore.DEInternal>
1.3202

> <Gold.Chemscore.Rot>
1.9292

> <Gold.Chemscore.Internal.Correction>
   9.000000E+99

> <Gold.Chemscore.Hbonds>
donor molecule, donor type, donor heavy atom, donor atom, acceptor molecule, acceptor atom, score
      L1  H     1    20       P1  7948  0.49
      L1  H     5    21       P1  7948  0.46
      L1  H    10    35       P1  8028  0.98
      P1  H 10752 10763       L1     4  0.91

> <Gold.Chemscore.Hbond.Weighted>
-11.7140

> <Gold.Chemscore.Metal.Weighted>
-0.0000

> <Gold.Chemscore.Lipo.Weighted>
-9.7614

> <Gold.Chemscore.Internal_Hbond.Weighted>
0.0000

> <Gold.Chemscore.DEClash.Weighted>
0.1096

> <Gold.Chemscore.DEInternal.Weighted>
1.3202

> <Gold.Chemscore.Rot.Weighted>
4.9386

> <Gold.Chemscore.Internal.Correction.Weighted>
   9.000000E+99

> <Gold.Protein.RotatedTorsions>
[ 6907 6896 6895 6894 ] final -150.68 input  -60.11 | X-H torsion
[ 7974 7965 7964 7962 ] final   64.84 input  175.53 | X-H torsion
[ 8008 7997 7996 7995 ] final  154.69 input   59.86 | X-H torsion
[ 10167 10162 10161 10158 ] final  104.76 input  -65.29 | X-H torsion
[ 10718 10713 10712 10709 ] final  132.26 input   66.30 | X-H torsion
[ 10763 10752 10751 10750 ] final   83.98 input  -60.55 | X-H torsion
[ 11005 11000 10999 10996 ] final -104.52 input  -57.11 | X-H torsion

> <Gold.Protein.ActiveResidues>
 VAL166  LYS551  ARG553  GLY616  TRP617  ASP618  TYR619  PRO620  LYS621  CYS622 
 ASP623  PHE694  ASN695  SER759  ASP760  ASP761  ALA762  ILE779  LEU786  VAL792 
 PHE793  MET794  SER795  GLU796  ALA797  LYS798  CYS799  TRP800  GLU811  SER814 

> <Gold.Protein.RotatedAtoms>
  151.2021  133.4605  159.2596 H   0  0  0  0  0  0  0  0  0  0  0  0  # atno 6907 bound_to 6896
  151.1059  134.9999  159.8481 H   0  0  0  0  0  0  0  0  0  0  0  0  # atno 6908 bound_to 6896
  152.5447  134.1944  159.8740 H   0  0  0  0  0  0  0  0  0  0  0  0  # atno 6909 bound_to 6896
  145.8455  139.3221  143.0906 H   0  0  0  0  0  0  0  0  0  0  0  0  # atno 7974 bound_to 7965
  156.2518  140.1959  156.6686 H   0  0  0  0  0  0  0  0  0  0  0  0  # atno 8008 bound_to 7997
  154.6410  140.0583  156.9871 H   0  0  0  0  0  0  0  0  0  0  0  0  # atno 8009 bound_to 7997
  155.1563  140.3256  155.4423 H   0  0  0  0  0  0  0  0  0  0  0  0  # atno 8010 bound_to 7997
  139.7149  144.7070  151.0966 H   0  0  0  0  0  0  0  0  0  0  0  0  # atno 10167 bound_to 10162
  157.4888  131.1089  150.9584 H   0  0  0  0  0  0  0  0  0  0  0  0  # atno 10718 bound_to 10713
  153.1340  135.4671  154.9393 H   0  0  0  0  0  0  0  0  0  0  0  0  # atno 10763 bound_to 10752
  154.7689  135.3153  154.8231 H   0  0  0  0  0  0  0  0  0  0  0  0  # atno 10764 bound_to 10752
  153.8768  135.6898  153.4824 H   0  0  0  0  0  0  0  0  0  0  0  0  # atno 10765 bound_to 10752
  141.1097  133.8730  157.1621 H   0  0  0  0  0  0  0  0  0  0  0  0  # atno 11005 bound_to 11000
  145.9417  140.8975  143.0304 LP  0  0  0  0  0  0  0  0  0  0  0  0  # atno 17320 bound_to 7965
  144.6731  140.1557  143.7426 LP  0  0  0  0  0  0  0  0  0  0  0  0  # atno 17321 bound_to 7965
  140.7741  143.5242  150.9499 LP  0  0  0  0  0  0  0  0  0  0  0  0  # atno 17342 bound_to 10162
  139.8928  143.6932  152.3143 LP  0  0  0  0  0  0  0  0  0  0  0  0  # atno 17343 bound_to 10162
  157.0292  130.5705  149.5341 LP  0  0  0  0  0  0  0  0  0  0  0  0  # atno 17370 bound_to 10713
  156.0162  130.5256  150.8140 LP  0  0  0  0  0  0  0  0  0  0  0  0  # atno 17371 bound_to 10713
  139.9984  135.0037  157.0134 LP  0  0  0  0  0  0  0  0  0  0  0  0  # atno 17394 bound_to 11000
  140.4809  134.1290  155.7217 LP  0  0  0  0  0  0  0  0  0  0  0  0  # atno 17395 bound_to 11000

$$$$
