AV-unprocessed.smi:3191|AV-procd|sdf|12199|dock6
  -GOLD-   2272018 33D 1   1.00000     0.00000
 Structure written by MMmdl.
 35 36  0  0  0  0  0  0  0  0  1 V2000
  153.0223  141.6846  159.4700 C   0  0  0  0  0  0  0  0  0  0  0  0
  152.4924  143.0047  159.7472 N   0  0  0  0  0  0  0  0  0  0  0  0
  152.5949  143.6876  160.8955 C   0  0  0  0  0  0  0  0  0  0  0  0
  152.0167  144.8807  160.8787 N   0  0  0  0  0  0  0  0  0  0  0  0
  151.4902  144.9743  159.5934 C   0  0  0  0  0  0  0  0  0  0  0  0
  151.7736  143.8266  158.8833 C   0  0  0  0  0  0  0  0  0  0  0  0
  151.4351  143.4336  157.4779 C   0  0  0  0  0  0  0  0  0  0  0  0
  150.5872  142.1542  157.3662 C   0  0  0  0  0  0  0  0  0  0  0  0
  149.7165  142.1874  156.1968 N   0  0  0  0  0  0  0  0  0  0  0  0
  149.7518  141.3085  155.1836 C   0  0  0  0  0  0  0  0  0  0  0  0
  150.5417  140.3643  155.1482 O   0  0  0  0  0  0  0  0  0  0  0  0
  148.7381  141.5815  154.1156 C   0  0  2  0  0  0  0  0  0  0  0  0
  147.3632  142.0519  154.5436 C   0  0  0  0  0  0  0  0  0  0  0  0
  147.5238  140.6695  153.9511 C   0  0  0  0  0  0  0  0  0  0  0  0
  147.0282  140.3946  152.5421 C   0  0  0  0  0  0  0  0  0  0  0  0
  147.2789  139.4483  154.8293 C   0  0  0  0  0  0  0  0  0  0  0  0
  149.1356  142.0119  153.1973 H   0  0  0  0  0  0  0  0  0  0  0  0
  153.5627  141.3042  160.3374 H   0  0  0  0  0  0  0  0  0  0  0  0
  153.7052  141.7327  158.6214 H   0  0  0  0  0  0  0  0  0  0  0  0
  152.2051  141.0023  159.2347 H   0  0  0  0  0  0  0  0  0  0  0  0
  153.1057  143.3018  161.7656 H   0  0  0  0  0  0  0  0  0  0  0  0
  150.9506  145.8563  159.2808 H   0  0  0  0  0  0  0  0  0  0  0  0
  150.9079  144.2602  157.0002 H   0  0  0  0  0  0  0  0  0  0  0  0
  152.3597  143.2993  156.9151 H   0  0  0  0  0  0  0  0  0  0  0  0
  151.2368  141.2831  157.2754 H   0  0  0  0  0  0  0  0  0  0  0  0
  149.9917  142.0072  158.2690 H   0  0  0  0  0  0  0  0  0  0  0  0
  149.0385  142.9345  156.1537 H   0  0  0  0  0  0  0  0  0  0  0  0
  147.1435  142.1232  155.6076 H   0  0  0  0  0  0  0  0  0  0  0  0
  146.8958  142.8217  153.9328 H   0  0  0  0  0  0  0  0  0  0  0  0
  145.9596  140.1772  152.5490 H   0  0  0  0  0  0  0  0  0  0  0  0
  147.5555  139.5413  152.1146 H   0  0  0  0  0  0  0  0  0  0  0  0
  147.1944  141.2581  151.8971 H   0  0  0  0  0  0  0  0  0  0  0  0
  146.2580  139.0871  154.7026 H   0  0  0  0  0  0  0  0  0  0  0  0
  147.4116  139.6788  155.8856 H   0  0  0  0  0  0  0  0  0  0  0  0
  147.9653  138.6453  154.5593 H   0  0  0  0  0  0  0  0  0  0  0  0
  1  2  1  0  0  0  0
  1 18  1  0  0  0  0
  1 19  1  0  0  0  0
  1 20  1  0  0  0  0
  2  6  1  0  0  0  0
  2  3  1  0  0  0  0
  3  4  2  0  0  0  0
  3 21  1  0  0  0  0
  4  5  1  0  0  0  0
  5  6  2  0  0  0  0
  5 22  1  0  0  0  0
  6  7  1  0  0  0  0
  7  8  1  0  0  0  0
  7 23  1  0  0  0  0
  7 24  1  0  0  0  0
  8  9  1  0  0  0  0
  8 25  1  0  0  0  0
  8 26  1  0  0  0  0
  9 10  1  0  0  0  0
  9 27  1  0  0  0  0
 10 11  2  0  0  0  0
 10 12  1  0  0  0  0
 12 17  1  0  0  0  0
 12 14  1  0  0  0  0
 12 13  1  0  0  0  0
 13 14  1  0  0  0  0
 13 28  1  0  0  0  0
 13 29  1  0  0  0  0
 14 15  1  0  0  0  0
 14 16  1  0  0  0  0
 15 30  1  0  0  0  0
 15 31  1  0  0  0  0
 15 32  1  0  0  0  0
 16 33  1  0  0  0  0
 16 34  1  0  0  0  0
 16 35  1  0  0  0  0
M  END
> <s_m_source_file>
AV-unprocessed.smi

> <i_m_source_file_index>
3191

> <i_lp_mmshare_version>
43012

> <i_f3d_flags>
0

> <s_epik_input>
W0NIM11uMVtjSF1uW2NIXWMxW0NIMl1bQ0gyXVtOSF1DKD1PKVtDQEBIXShbQ0gyXTIpQzIoW0NIM10pW0NIM10=

> <s_epik_cmdline>
J2VwaWtfcHl0aG9uJywgJy1waCcsICc3LjAnLCAnLXRuJywgJzgnLCAnLW1hJywgJzIwMCcsICctbWV0YWxfYmluZGluZycsICctaW1hZScsICc8aW5maWxlLm1hZT4nLCAnLW9tYWUnLCAnPG91dGZpbGUubWFlPic=

> <r_lp_tautomer_probability>
1

> <r_epik_Ionization_Penalty>
0.874249

> <r_epik_Ionization_Penalty_Charging>
0.874249

> <r_epik_Ionization_Penalty_Neutral>
1.97773e-08

> <r_epik_State_Penalty>
0.911868

> <r_epik_Charging_Adjusted_Penalty>
1.78612

> <i_epik_Tot_Q>
0

> <i_epik_Tot_abs_Q>
0

> <r_epik_Metal_State_Penalty>
0.361186

> <b_epik_Metal_Only>
0

> <s_lp_Force_Field>
OPLS_2005

> <r_lp_Energy>
11.6999

> <b_lp_Chiralities_Consistent>
1

> <s_lp_Variant>
AV-unprocessed.smi:3191-4

> <Gold.Version>
5.8.1

> <Gold.Id.Protein>
6NUR|6NUR_protein|mol2

> <Gold.PLP.Fitness>
42.4865

> <Gold.PLP.PLP>
-38.2097

> <Gold.PLP.part.hbond>
-2.0000

> <Gold.PLP.part.metal>
0.0000

> <Gold.PLP.part.buried>
-1.4552

> <Gold.PLP.part.nonpolar>
-35.4001

> <Gold.PLP.part.repulsive>
0.3420

> <Gold.PLP.ligand.clash>
0.0000

> <Gold.PLP.ligand.torsion>
0.6068

> <Gold.PLP.Chemscore.Hbond>
1.8000

> <Gold.PLP.Chemscore.CHOScore>
0.0000

> <Gold.PLP.Chemscore.Metal>
0.0000

> <Gold.Chemscore.Hbonds>
donor molecule, donor type, donor heavy atom, donor atom, acceptor molecule, acceptor atom, score
      L1  H     9    27       P1  8028  0.83
      P1  H  7989  7998       L1    11  0.98

> <Gold.PLP.Chemscore.Internal.Correction>
0.0904

> <Gold.Rescore>
     Score         DG    S(hbond)    S(metal)    S(lipo)     H(rot)  DE(clash)    DE(int)     intcor
     13.56     -14.40       0.95        0.00      86.24       1.69       0.14       0.69       ----

> <Gold.Chemscore.Fitness>
13.5614

> <Gold.Chemscore.DG>
-14.3973

> <Gold.Chemscore.ZeroCoef>
-5.4800

> <Gold.Chemscore.Hbond>
0.9458

> <Gold.Chemscore.Metal>
0.0000

> <Gold.Chemscore.Lipo>
86.2365

> <Gold.Chemscore.Internal_Hbond>
0.0000

> <Gold.Chemscore.DEClash>
0.1445

> <Gold.Chemscore.DEInternal>
0.6914

> <Gold.Chemscore.Rot>
1.6919

> <Gold.Chemscore.Internal.Correction>
   9.000000E+99

> <Gold.Chemscore.Hbonds>
donor molecule, donor type, donor heavy atom, donor atom, acceptor molecule, acceptor atom, score
      L1  H     9    27       P1  8028  0.83
      P1  H  7989  7998       L1    11  0.23

> <Gold.Chemscore.Hbond.Weighted>
-3.1588

> <Gold.Chemscore.Metal.Weighted>
-0.0000

> <Gold.Chemscore.Lipo.Weighted>
-10.0897

> <Gold.Chemscore.Internal_Hbond.Weighted>
0.0000

> <Gold.Chemscore.DEClash.Weighted>
0.1445

> <Gold.Chemscore.DEInternal.Weighted>
0.6914

> <Gold.Chemscore.Rot.Weighted>
4.3312

> <Gold.Chemscore.Internal.Correction.Weighted>
   9.000000E+99

> <Gold.Protein.RotatedTorsions>
[ 6907 6896 6895 6894 ] final -151.51 input  -60.11 | X-H torsion
[ 7974 7965 7964 7962 ] final   97.44 input  175.53 | X-H torsion
[ 8008 7997 7996 7995 ] final  166.35 input   59.86 | X-H torsion
[ 10167 10162 10161 10158 ] final  -75.30 input  -65.29 | X-H torsion
[ 10718 10713 10712 10709 ] final  -17.92 input   66.30 | X-H torsion
[ 10763 10752 10751 10750 ] final   21.98 input  -60.55 | X-H torsion
[ 11005 11000 10999 10996 ] final   32.85 input  -57.11 | X-H torsion

> <Gold.Protein.ActiveResidues>
 VAL166  LYS551  ARG553  GLY616  TRP617  ASP618  TYR619  PRO620  LYS621  CYS622 
 ASP623  PHE694  ASN695  SER759  ASP760  ASP761  ALA762  ILE779  LEU786  VAL792 
 PHE793  MET794  SER795  GLU796  ALA797  LYS798  CYS799  TRP800  GLU811  SER814 

> <Gold.Protein.RotatedAtoms>
  151.2142  133.4539  159.2598 H   0  0  0  0  0  0  0  0  0  0  0  0  # atno 6907 bound_to 6896
  151.0947  134.9937  159.8430 H   0  0  0  0  0  0  0  0  0  0  0  0  # atno 6908 bound_to 6896
  152.5438  134.2072  159.8788 H   0  0  0  0  0  0  0  0  0  0  0  0  # atno 6909 bound_to 6896
  145.4255  139.2316  143.3173 H   0  0  0  0  0  0  0  0  0  0  0  0  # atno 7974 bound_to 7965
  156.1726  140.1646  156.8420 H   0  0  0  0  0  0  0  0  0  0  0  0  # atno 8008 bound_to 7997
  154.5273  140.0765  156.8315 H   0  0  0  0  0  0  0  0  0  0  0  0  # atno 8009 bound_to 7997
  155.3481  140.3388  155.4241 H   0  0  0  0  0  0  0  0  0  0  0  0  # atno 8010 bound_to 7997
  140.4954  143.2371  151.7839 H   0  0  0  0  0  0  0  0  0  0  0  0  # atno 10167 bound_to 10162
  156.5669  130.4739  149.6381 H   0  0  0  0  0  0  0  0  0  0  0  0  # atno 10718 bound_to 10713
  153.0952  135.6658  153.9777 H   0  0  0  0  0  0  0  0  0  0  0  0  # atno 10763 bound_to 10752
  153.9363  135.2998  155.3445 H   0  0  0  0  0  0  0  0  0  0  0  0  # atno 10764 bound_to 10752
  154.7370  135.5097  153.9132 H   0  0  0  0  0  0  0  0  0  0  0  0  # atno 10765 bound_to 10752
  140.2692  134.3102  155.7833 H   0  0  0  0  0  0  0  0  0  0  0  0  # atno 11005 bound_to 11000
  146.2634  140.4985  142.8844 LP  0  0  0  0  0  0  0  0  0  0  0  0  # atno 17320 bound_to 7965
  144.8217  140.6561  143.6348 LP  0  0  0  0  0  0  0  0  0  0  0  0  # atno 17321 bound_to 7965
  139.4860  144.4594  151.9560 LP  0  0  0  0  0  0  0  0  0  0  0  0  # atno 17342 bound_to 10162
  140.3681  144.2889  150.5923 LP  0  0  0  0  0  0  0  0  0  0  0  0  # atno 17343 bound_to 10162
  156.2749  130.7038  151.1846 LP  0  0  0  0  0  0  0  0  0  0  0  0  # atno 17370 bound_to 10713
  157.7357  131.0570  150.5457 LP  0  0  0  0  0  0  0  0  0  0  0  0  # atno 17371 bound_to 10713
  141.2180  133.7456  156.9308 LP  0  0  0  0  0  0  0  0  0  0  0  0  # atno 17394 bound_to 11000
  140.1390  134.9306  157.2440 LP  0  0  0  0  0  0  0  0  0  0  0  0  # atno 17395 bound_to 11000

$$$$
