AV-unprocessed.smi:1269|AV-procd|sdf|5327|dock10
  -GOLD-   22720 4453D 1   1.00000     0.00000
 Structure written by MMmdl.
 43 44  0  0  0  0  0  0  0  0  1 V2000
  150.9959  141.8948  158.0897 C   0  0  0  0  0  0  0  0  0  0  0  0
  151.2642  141.6140  156.7203 O   0  0  0  0  0  0  0  0  0  0  0  0
  150.8494  140.4024  156.2064 C   0  0  0  0  0  0  0  0  0  0  0  0
  150.4797  139.3806  157.1028 C   0  0  0  0  0  0  0  0  0  0  0  0
  150.0508  138.1422  156.5876 C   0  0  0  0  0  0  0  0  0  0  0  0
  150.0059  137.9628  155.1836 C   0  0  0  0  0  0  0  0  0  0  0  0
  149.5920  136.7727  154.5224 N   0  0  0  0  0  0  0  0  0  0  0  0
  149.3359  135.5536  155.0280 C   0  0  0  0  0  0  0  0  0  0  0  0
  149.4509  135.2283  156.2088 O   0  0  0  0  0  0  0  0  0  0  0  0
  148.9247  134.7151  154.0652 N   0  0  0  0  0  0  0  0  0  0  0  0
  148.5147  133.3246  154.2562 C   0  0  2  0  0  0  0  0  0  0  0  0
  149.7015  132.5281  154.8150 C   0  0  0  0  0  0  0  0  0  0  0  0
  148.0237  132.7240  152.9208 C   0  0  0  0  0  0  0  0  0  0  0  0
  146.8340  133.3497  152.3418 N   0  0  0  0  0  0  0  0  0  0  0  0
  145.7158  133.4136  153.2811 C   0  0  0  0  0  0  0  0  0  0  0  0
  144.4735  134.0632  152.6474 C   0  0  0  0  0  0  0  0  0  0  0  0
  144.1076  133.3488  151.4714 O   0  0  0  0  0  0  0  0  0  0  0  0
  145.1573  133.2985  150.5107 C   0  0  0  0  0  0  0  0  0  0  0  0
  146.4011  132.6467  151.1395 C   0  0  0  0  0  0  0  0  0  0  0  0
  150.4002  139.0489  154.3745 C   0  0  0  0  0  0  0  0  0  0  0  0
  150.8109  140.2385  154.8614 N   0  0  0  0  0  0  0  0  0  0  0  0
  151.3830  142.8830  158.3376 H   0  0  0  0  0  0  0  0  0  0  0  0
  151.4838  141.1741  158.7477 H   0  0  0  0  0  0  0  0  0  0  0  0
  149.9243  141.8987  158.2946 H   0  0  0  0  0  0  0  0  0  0  0  0
  150.5226  139.5437  158.1696 H   0  0  0  0  0  0  0  0  0  0  0  0
  149.7701  137.3694  157.2844 H   0  0  0  0  0  0  0  0  0  0  0  0
  149.4497  136.8688  153.5276 H   0  0  0  0  0  0  0  0  0  0  0  0
  148.8646  135.0744  153.1239 H   0  0  0  0  0  0  0  0  0  0  0  0
  147.7214  133.2650  155.0021 H   0  0  0  0  0  0  0  0  0  0  0  0
  149.4270  131.4872  154.9890 H   0  0  0  0  0  0  0  0  0  0  0  0
  150.0394  132.9416  155.7660 H   0  0  0  0  0  0  0  0  0  0  0  0
  150.5479  132.5382  154.1273 H   0  0  0  0  0  0  0  0  0  0  0  0
  148.8440  132.7969  152.2050 H   0  0  0  0  0  0  0  0  0  0  0  0
  147.8409  131.6560  153.0503 H   0  0  0  0  0  0  0  0  0  0  0  0
  145.4624  132.4093  153.6240 H   0  0  0  0  0  0  0  0  0  0  0  0
  145.9918  133.9848  154.1662 H   0  0  0  0  0  0  0  0  0  0  0  0
  143.6383  134.0484  153.3479 H   0  0  0  0  0  0  0  0  0  0  0  0
  144.6682  135.1084  152.4017 H   0  0  0  0  0  0  0  0  0  0  0  0
  144.8235  132.7236  149.6468 H   0  0  0  0  0  0  0  0  0  0  0  0
  145.3853  134.3057  150.1580 H   0  0  0  0  0  0  0  0  0  0  0  0
  147.2083  132.6354  150.4062 H   0  0  0  0  0  0  0  0  0  0  0  0
  146.1816  131.6048  151.3781 H   0  0  0  0  0  0  0  0  0  0  0  0
  150.3854  138.9628  153.2976 H   0  0  0  0  0  0  0  0  0  0  0  0
  1  2  1  0  0  0  0
  1 22  1  0  0  0  0
  1 23  1  0  0  0  0
  1 24  1  0  0  0  0
  2  3  1  0  0  0  0
  3 21  1  0  0  0  0
  3  4  2  0  0  0  0
  4  5  1  0  0  0  0
  4 25  1  0  0  0  0
  5  6  2  0  0  0  0
  5 26  1  0  0  0  0
  6  7  1  0  0  0  0
  6 20  1  0  0  0  0
  7  8  1  0  0  0  0
  7 27  1  0  0  0  0
  8  9  2  0  0  0  0
  8 10  1  0  0  0  0
 10 11  1  0  0  0  0
 10 28  1  0  0  0  0
 11 12  1  0  0  0  0
 11 13  1  0  0  0  0
 11 29  1  0  0  0  0
 12 30  1  0  0  0  0
 12 31  1  0  0  0  0
 12 32  1  0  0  0  0
 13 14  1  0  0  0  0
 13 33  1  0  0  0  0
 13 34  1  0  0  0  0
 14 19  1  0  0  0  0
 14 15  1  0  0  0  0
 15 16  1  0  0  0  0
 15 35  1  0  0  0  0
 15 36  1  0  0  0  0
 16 17  1  0  0  0  0
 16 37  1  0  0  0  0
 16 38  1  0  0  0  0
 17 18  1  0  0  0  0
 18 19  1  0  0  0  0
 18 39  1  0  0  0  0
 18 40  1  0  0  0  0
 19 41  1  0  0  0  0
 19 42  1  0  0  0  0
 20 21  2  0  0  0  0
 20 43  1  0  0  0  0
M  END
> <s_m_source_file>
AV-unprocessed.smi

> <i_m_source_file_index>
1269

> <i_lp_mmshare_version>
43012

> <i_f3d_flags>
0

> <s_epik_input>
W0NIM11PYzFbY0hdW2NIXWMoW2NIXW4xKVtOSF1DKD1PKVtOSF1bQ0BIXShbQ0gzXSlbQ0gyXU4yW0NIMl1bQ0gyXU9bQ0gyXVtDSDJdMg==

> <s_epik_cmdline>
J2VwaWtfcHl0aG9uJywgJy1waCcsICc3LjAnLCAnLXRuJywgJzgnLCAnLW1hJywgJzIwMCcsICctbWV0YWxfYmluZGluZycsICctaW1hZScsICc8aW5maWxlLm1hZT4nLCAnLW9tYWUnLCAnPG91dGZpbGUubWFlPic=

> <r_lp_tautomer_probability>
1

> <r_epik_Ionization_Penalty>
0.266086

> <r_epik_Ionization_Penalty_Charging>
0

> <r_epik_Ionization_Penalty_Neutral>
0.266086

> <r_epik_State_Penalty>
0.257924

> <r_epik_Charging_Adjusted_Penalty>
0.257924

> <i_epik_Tot_Q>
0

> <i_epik_Tot_abs_Q>
0

> <r_epik_Metal_State_Penalty>
0.25792

> <b_epik_Metal_Only>
0

> <s_lp_Force_Field>
OPLS_2005

> <r_lp_Energy>
28.3998

> <b_lp_Chiralities_Consistent>
1

> <s_lp_Variant>
AV-unprocessed.smi:1269-1

> <Gold.Version>
5.8.1

> <Gold.Id.Protein>
6NUR|6NUR_protein|mol2

> <Gold.PLP.Fitness>
40.8488

> <Gold.PLP.PLP>
-29.2899

> <Gold.PLP.part.hbond>
-3.0000

> <Gold.PLP.part.metal>
0.0000

> <Gold.PLP.part.buried>
-4.2942

> <Gold.PLP.part.nonpolar>
-22.2972

> <Gold.PLP.part.repulsive>
0.4369

> <Gold.PLP.ligand.clash>
0.0048

> <Gold.PLP.ligand.torsion>
0.2398

> <Gold.PLP.Chemscore.Hbond>
3.0000

> <Gold.PLP.Chemscore.CHOScore>
1.0000

> <Gold.PLP.Chemscore.Metal>
0.0000

> <Gold.Chemscore.Hbonds>
donor molecule, donor type, donor heavy atom, donor atom, acceptor molecule, acceptor atom, score
      L1  H     7    27       P1  7948  1.00
      L1  H    10    28       P1  7948  1.00
      P1  H  7989  7998       L1    21  1.00
      L1  C    20    43       P1  7957  1.00

> <Gold.PLP.Chemscore.Internal.Correction>
0.0434

> <Gold.Rescore>
     Score         DG    S(hbond)    S(metal)    S(lipo)     H(rot)  DE(clash)    DE(int)     intcor
     14.47     -16.68       2.53        0.00      61.13       1.72       0.02       2.18       ----

> <Gold.Chemscore.Fitness>
14.4734

> <Gold.Chemscore.DG>
-16.6785

> <Gold.Chemscore.ZeroCoef>
-5.4800

> <Gold.Chemscore.Hbond>
2.5288

> <Gold.Chemscore.Metal>
0.0000

> <Gold.Chemscore.Lipo>
61.1331

> <Gold.Chemscore.Internal_Hbond>
0.0000

> <Gold.Chemscore.DEClash>
0.0243

> <Gold.Chemscore.DEInternal>
2.1807

> <Gold.Chemscore.Rot>
1.7189

> <Gold.Chemscore.Internal.Correction>
   9.000000E+99

> <Gold.Chemscore.Hbonds>
donor molecule, donor type, donor heavy atom, donor atom, acceptor molecule, acceptor atom, score
      L1  H     7    27       P1  7948  0.86
      L1  H    10    28       P1  7948  0.34
      P1  H  7989  7998       L1    21  0.30

> <Gold.Chemscore.Hbond.Weighted>
-8.4464

> <Gold.Chemscore.Metal.Weighted>
-0.0000

> <Gold.Chemscore.Lipo.Weighted>
-7.1526

> <Gold.Chemscore.Internal_Hbond.Weighted>
0.0000

> <Gold.Chemscore.DEClash.Weighted>
0.0243

> <Gold.Chemscore.DEInternal.Weighted>
2.1807

> <Gold.Chemscore.Rot.Weighted>
4.4004

> <Gold.Chemscore.Internal.Correction.Weighted>
   9.000000E+99

> <Gold.Protein.RotatedTorsions>
[ 6907 6896 6895 6894 ] final -132.81 input  -60.11 | X-H torsion
[ 7974 7965 7964 7962 ] final   -6.40 input  175.53 | X-H torsion
[ 8008 7997 7996 7995 ] final   39.78 input   59.86 | X-H torsion
[ 10167 10162 10161 10158 ] final  -86.25 input  -65.29 | X-H torsion
[ 10718 10713 10712 10709 ] final   62.00 input   66.30 | X-H torsion
[ 10763 10752 10751 10750 ] final  107.97 input  -60.55 | X-H torsion
[ 11005 11000 10999 10996 ] final -157.09 input  -57.11 | X-H torsion

> <Gold.Protein.ActiveResidues>
 VAL166  LYS551  ARG553  GLY616  TRP617  ASP618  TYR619  PRO620  LYS621  CYS622 
 ASP623  PHE694  ASN695  SER759  ASP760  ASP761  ALA762  ILE779  LEU786  VAL792 
 PHE793  MET794  SER795  GLU796  ALA797  LYS798  CYS799  TRP800  GLU811  SER814 

> <Gold.Protein.RotatedAtoms>
  150.9667  133.6387  159.2744 H   0  0  0  0  0  0  0  0  0  0  0  0  # atno 6907 bound_to 6896
  151.3690  135.0918  159.9469 H   0  0  0  0  0  0  0  0  0  0  0  0  # atno 6908 bound_to 6896
  152.5168  133.9225  159.7596 H   0  0  0  0  0  0  0  0  0  0  0  0  # atno 6909 bound_to 6896
  146.2331  140.2165  142.8336 H   0  0  0  0  0  0  0  0  0  0  0  0  # atno 7974 bound_to 7965
  155.2422  140.3346  155.4291 H   0  0  0  0  0  0  0  0  0  0  0  0  # atno 8008 bound_to 7997
  156.2251  140.1825  156.7428 H   0  0  0  0  0  0  0  0  0  0  0  0  # atno 8009 bound_to 7997
  154.5886  140.0642  156.9191 H   0  0  0  0  0  0  0  0  0  0  0  0  # atno 8010 bound_to 7997
  140.3959  143.2684  151.9204 H   0  0  0  0  0  0  0  0  0  0  0  0  # atno 10167 bound_to 10162
  157.5869  130.9026  149.9532 H   0  0  0  0  0  0  0  0  0  0  0  0  # atno 10718 bound_to 10713
  153.4141  135.3827  155.2069 H   0  0  0  0  0  0  0  0  0  0  0  0  # atno 10763 bound_to 10752
  154.8740  135.3801  154.4465 H   0  0  0  0  0  0  0  0  0  0  0  0  # atno 10764 bound_to 10752
  153.4977  135.7088  153.5911 H   0  0  0  0  0  0  0  0  0  0  0  0  # atno 10765 bound_to 10752
  140.6684  134.4273  157.5232 H   0  0  0  0  0  0  0  0  0  0  0  0  # atno 11005 bound_to 11000
  144.9665  140.8327  143.5481 LP  0  0  0  0  0  0  0  0  0  0  0  0  # atno 17320 bound_to 7965
  145.2142  139.2190  143.5127 LP  0  0  0  0  0  0  0  0  0  0  0  0  # atno 17321 bound_to 7965
  139.4786  144.5681  151.8132 LP  0  0  0  0  0  0  0  0  0  0  0  0  # atno 17342 bound_to 10162
  140.4790  144.1476  150.5929 LP  0  0  0  0  0  0  0  0  0  0  0  0  # atno 17343 bound_to 10162
  156.0919  130.3662  150.0379 LP  0  0  0  0  0  0  0  0  0  0  0  0  # atno 17370 bound_to 10713
  156.8509  130.9458  151.3625 LP  0  0  0  0  0  0  0  0  0  0  0  0  # atno 17371 bound_to 10713
  139.8989  134.8602  156.1980 LP  0  0  0  0  0  0  0  0  0  0  0  0  # atno 17394 bound_to 11000
  141.0411  133.6937  156.1599 LP  0  0  0  0  0  0  0  0  0  0  0  0  # atno 17395 bound_to 11000

$$$$
