AV-unprocessed.smi:224|AV-procd|sdf|1721|dock1
  -GOLD-   2262020193D 1   1.00000     0.00000
 Structure written by MMmdl.
 56 59  0  0  0  0  0  0  0  0  2 V2000
  145.1889  131.2825  151.1686 C   0  0  0  0  0  0  0  0  0  0  0  0
  143.7553  131.8254  151.1035 C   0  0  2  0  0  0  0  0  0  0  0  0
  143.2572  131.5741  149.8044 O   0  0  0  0  0  0  0  0  0  0  0  0
  143.7036  133.3407  151.3877 C   0  0  0  0  0  0  0  0  0  0  0  0
  143.9924  133.6661  152.8142 N   0  3  1  0  0  0  0  0  0  0  0  0
  145.4604  133.6735  153.0749 C   0  0  0  0  0  0  0  0  0  0  0  0
  145.7892  133.9583  154.5493 C   0  0  0  0  0  0  0  0  0  0  0  0
  145.1326  135.1778  155.0056 N   0  0  0  0  0  0  0  0  0  0  0  0
  145.7655  136.3743  154.8715 C   0  0  0  0  0  0  0  0  0  0  0  0
  145.2295  137.3365  154.0739 N   0  0  0  0  0  0  0  0  0  0  0  0
  145.8337  138.5203  153.9386 C   0  0  0  0  0  0  0  0  0  0  0  0
  146.9679  138.9453  154.4967 N   0  0  0  0  0  0  0  0  0  0  0  0
  147.5226  137.9820  155.2861 C   0  0  0  0  0  0  0  0  0  0  0  0
  146.9916  136.6829  155.5291 C   0  0  0  0  0  0  0  0  0  0  0  0
  147.8380  135.9815  156.3799 N   0  0  0  0  0  0  0  0  0  0  0  0
  148.8052  136.8199  156.6338 C   0  0  0  0  0  0  0  0  0  0  0  0
  148.7015  138.0424  156.0093 N   0  0  0  0  0  0  0  0  0  0  0  0
  149.6350  139.1546  156.1120 C   0  0  0  0  0  0  0  0  0  0  0  0
  150.7752  139.1092  155.0659 C   0  0  2  0  0  0  0  0  0  0  0  0
  150.2622  139.5225  153.8121 O   0  0  0  0  0  0  0  0  0  0  0  0
  151.3781  137.7101  154.9188 C   0  0  0  0  0  0  0  0  0  0  0  0
  152.7570  137.8442  155.5537 C   0  0  0  0  0  0  0  0  0  0  0  0
  153.1273  139.1678  155.2126 O   0  0  0  0  0  0  0  0  0  0  0  0
  151.9887  139.9876  155.4322 C   0  0  0  0  0  0  0  0  0  0  0  0
  143.6900  135.1716  154.7988 C   0  0  0  0  0  0  0  0  0  0  0  0
  143.3182  134.9051  153.3216 C   0  0  2  0  0  0  0  0  0  0  0  0
  141.7795  134.8383  153.2241 C   0  0  0  0  0  0  0  0  0  0  0  0
  145.6225  131.4398  152.1565 H   0  0  0  0  0  0  0  0  0  0  0  0
  145.8356  131.7730  150.4398 H   0  0  0  0  0  0  0  0  0  0  0  0
  145.2133  130.2109  150.9672 H   0  0  0  0  0  0  0  0  0  0  0  0
  143.1485  131.2696  151.8173 H   0  0  0  0  0  0  0  0  0  0  0  0
  142.7879  132.3357  149.5009 H   0  0  0  0  0  0  0  0  0  0  0  0
  144.4156  133.8691  150.7517 H   0  0  0  0  0  0  0  0  0  0  0  0
  142.7257  133.6963  151.0737 H   0  0  0  0  0  0  0  0  0  0  0  0
  145.9035  132.7178  152.7985 H   0  0  0  0  0  0  0  0  0  0  0  0
  145.9305  134.4256  152.4399 H   0  0  0  0  0  0  0  0  0  0  0  0
  145.4388  133.1323  155.1692 H   0  0  0  0  0  0  0  0  0  0  0  0
  146.8680  134.0128  154.7017 H   0  0  0  0  0  0  0  0  0  0  0  0
  145.3384  139.2284  153.2905 H   0  0  0  0  0  0  0  0  0  0  0  0
  149.6312  136.5655  157.2824 H   0  0  0  0  0  0  0  0  0  0  0  0
  149.0737  140.0844  156.0107 H   0  0  0  0  0  0  0  0  0  0  0  0
  150.0483  139.1583  157.1212 H   0  0  0  0  0  0  0  0  0  0  0  0
  149.3458  139.2943  153.7750 H   0  0  0  0  0  0  0  0  0  0  0  0
  150.7813  136.9272  155.3879 H   0  0  0  0  0  0  0  0  0  0  0  0
  151.4975  137.4425  153.8676 H   0  0  0  0  0  0  0  0  0  0  0  0
  152.7016  137.7434  156.6389 H   0  0  0  0  0  0  0  0  0  0  0  0
  153.4706  137.1134  155.1725 H   0  0  0  0  0  0  0  0  0  0  0  0
  152.0474  140.9150  154.8608 H   0  0  0  0  0  0  0  0  0  0  0  0
  151.9777  140.2535  156.4893 H   0  0  0  0  0  0  0  0  0  0  0  0
  143.2653  134.3924  155.4332 H   0  0  0  0  0  0  0  0  0  0  0  0
  143.2345  136.1047  155.1269 H   0  0  0  0  0  0  0  0  0  0  0  0
  143.6681  135.7482  152.7231 H   0  0  0  0  0  0  0  0  0  0  0  0
  141.3229  135.6726  153.7576 H   0  0  0  0  0  0  0  0  0  0  0  0
  141.3926  133.9191  153.6652 H   0  0  0  0  0  0  0  0  0  0  0  0
  141.4138  134.9050  152.2008 H   0  0  0  0  0  0  0  0  0  0  0  0
  143.6054  132.9103  153.3604 H   0  0  0  0  0  0  0  0  0  0  0  0
  1  2  1  0  0  0  0
  1 28  1  0  0  0  0
  1 29  1  0  0  0  0
  1 30  1  0  0  0  0
  2  3  1  0  0  0  0
  2  4  1  0  0  0  0
  2 31  1  0  0  0  0
  3 32  1  0  0  0  0
  4  5  1  0  0  0  0
  4 33  1  0  0  0  0
  4 34  1  0  0  0  0
  5 26  1  0  0  0  0
  5  6  1  0  0  0  0
  5 56  1  0  0  0  0
  6  7  1  0  0  0  0
  6 35  1  0  0  0  0
  6 36  1  0  0  0  0
  7  8  1  0  0  0  0
  7 37  1  0  0  0  0
  7 38  1  0  0  0  0
  8  9  1  0  0  0  0
  8 25  1  0  0  0  0
  9 14  1  0  0  0  0
  9 10  2  0  0  0  0
 10 11  1  0  0  0  0
 11 12  2  0  0  0  0
 11 39  1  0  0  0  0
 12 13  1  0  0  0  0
 13 17  1  0  0  0  0
 13 14  2  0  0  0  0
 14 15  1  0  0  0  0
 15 16  2  0  0  0  0
 16 17  1  0  0  0  0
 16 40  1  0  0  0  0
 17 18  1  0  0  0  0
 18 19  1  0  0  0  0
 18 41  1  0  0  0  0
 18 42  1  0  0  0  0
 19 24  1  0  0  0  0
 19 20  1  0  0  0  0
 19 21  1  0  0  0  0
 20 43  1  0  0  0  0
 21 22  1  0  0  0  0
 21 44  1  0  0  0  0
 21 45  1  0  0  0  0
 22 23  1  0  0  0  0
 22 46  1  0  0  0  0
 22 47  1  0  0  0  0
 23 24  1  0  0  0  0
 24 48  1  0  0  0  0
 24 49  1  0  0  0  0
 25 26  1  0  0  0  0
 25 50  1  0  0  0  0
 25 51  1  0  0  0  0
 26 27  1  0  0  0  0
 26 52  1  0  0  0  0
 27 53  1  0  0  0  0
 27 54  1  0  0  0  0
 27 55  1  0  0  0  0
M  CHG  1   5   1
M  END
> <s_m_source_file>
AV-unprocessed.smi

> <i_m_source_file_index>
224

> <i_lp_mmshare_version>
43012

> <i_f3d_flags>
0

> <s_epik_input>
W0NIM11bQ0BIXShbT0hdKVtDSDJdTjFbQ0gyXVtDSDJdTihbQ0gyXVtDQEhdMVtDSDNdKWMobltjSF1uMiljKGMyMyluW2NIXW4zW0NIMl1bQ0BAXTQoW09IXSlbQ0gyXVtDSDJdT1tDSDJdNA==

> <s_epik_cmdline>
J2VwaWtfcHl0aG9uJywgJy1waCcsICc3LjAnLCAnLXRuJywgJzgnLCAnLW1hJywgJzIwMCcsICctbWV0YWxfYmluZGluZycsICctaW1hZScsICc8aW5maWxlLm1hZT4nLCAnLW9tYWUnLCAnPG91dGZpbGUubWFlPic=

> <r_lp_tautomer_probability>
1

> <r_epik_Ionization_Penalty>
0.00516958

> <r_epik_Ionization_Penalty_Charging>
0.00509693

> <r_epik_Ionization_Penalty_Neutral>
7.26542e-05

> <r_epik_State_Penalty>
-0

> <r_epik_Charging_Adjusted_Penalty>
0.00509693

> <i_epik_Tot_Q>
1

> <i_epik_Tot_abs_Q>
1

> <r_epik_Metal_State_Penalty>
-0

> <b_epik_Metal_Only>
0

> <s_lp_Force_Field>
OPLS_2005

> <r_lp_Energy>
50.3432

> <b_lp_Chiralities_Consistent>
1

> <s_lp_Variant>
AV-unprocessed.smi:224-15

> <Gold.Version>
5.8.1

> <Gold.Id.Protein>
6NUR|6NUR_protein|mol2

> <Gold.PLP.Fitness>
48.8748

> <Gold.PLP.PLP>
-33.0713

> <Gold.PLP.part.hbond>
-6.5700

> <Gold.PLP.part.metal>
0.0000

> <Gold.PLP.part.buried>
-4.9586

> <Gold.PLP.part.nonpolar>
-23.3706

> <Gold.PLP.part.repulsive>
0.1915

> <Gold.PLP.ligand.clash>
0.0000

> <Gold.PLP.ligand.torsion>
1.2876

> <Gold.PLP.Chemscore.Hbond>
4.8845

> <Gold.PLP.Chemscore.CHOScore>
1.0000

> <Gold.PLP.Chemscore.Metal>
0.0000

> <Gold.Chemscore.Hbonds>
donor molecule, donor type, donor heavy atom, donor atom, acceptor molecule, acceptor atom, score
      L1  H     5    56       P1 10957  1.92
      P1  H  7989  7998       L1    20  0.78
      P1  H  7997  8009       L1    23  1.00
      P1  H 10785 10796       L1     3  1.00
      L1  C    11    39       P1 10175  1.00

> <Gold.PLP.Chemscore.Internal.Correction>
0.7252

> <Gold.Rescore>
     Score         DG    S(hbond)    S(metal)    S(lipo)     H(rot)  DE(clash)    DE(int)     intcor
     15.66     -17.02       3.67        0.00      67.33       3.36       0.01       1.35       ----

> <Gold.Chemscore.Fitness>
15.6603

> <Gold.Chemscore.DG>
-17.0230

> <Gold.Chemscore.ZeroCoef>
-5.4800

> <Gold.Chemscore.Hbond>
3.6735

> <Gold.Chemscore.Metal>
0.0000

> <Gold.Chemscore.Lipo>
67.3336

> <Gold.Chemscore.Internal_Hbond>
0.0000

> <Gold.Chemscore.DEClash>
0.0106

> <Gold.Chemscore.DEInternal>
1.3521

> <Gold.Chemscore.Rot>
3.3611

> <Gold.Chemscore.Internal.Correction>
   9.000000E+99

> <Gold.Chemscore.Hbonds>
donor molecule, donor type, donor heavy atom, donor atom, acceptor molecule, acceptor atom, score
      L1  H     5    56       P1 10957  0.64
      P1  H  7989  7998       L1    20  0.11
      P1  H  7997  8009       L1    23  0.48
      P1  H 10785 10796       L1     3  0.91

> <Gold.Chemscore.Hbond.Weighted>
-12.2695

> <Gold.Chemscore.Metal.Weighted>
-0.0000

> <Gold.Chemscore.Lipo.Weighted>
-7.8780

> <Gold.Chemscore.Internal_Hbond.Weighted>
0.0000

> <Gold.Chemscore.DEClash.Weighted>
0.0106

> <Gold.Chemscore.DEInternal.Weighted>
1.3521

> <Gold.Chemscore.Rot.Weighted>
8.6045

> <Gold.Chemscore.Internal.Correction.Weighted>
   9.000000E+99

> <Gold.Protein.RotatedTorsions>
[ 6907 6896 6895 6894 ] final  -17.60 input  -60.11 | X-H torsion
[ 7974 7965 7964 7962 ] final  143.61 input  175.53 | X-H torsion
[ 8008 7997 7996 7995 ] final -123.60 input   59.86 | X-H torsion
[ 10167 10162 10161 10158 ] final    4.89 input  -65.29 | X-H torsion
[ 10718 10713 10712 10709 ] final  -59.43 input   66.30 | X-H torsion
[ 10763 10752 10751 10750 ] final  -27.29 input  -60.55 | X-H torsion
[ 11005 11000 10999 10996 ] final  132.09 input  -57.11 | X-H torsion

> <Gold.Protein.ActiveResidues>
 VAL166  LYS551  ARG553  GLY616  TRP617  ASP618  TYR619  PRO620  LYS621  CYS622 
 ASP623  PHE694  ASN695  SER759  ASP760  ASP761  ALA762  ILE779  LEU786  VAL792 
 PHE793  MET794  SER795  GLU796  ALA797  LYS798  CYS799  TRP800  GLU811  SER814 

> <Gold.Protein.RotatedAtoms>
  151.2909  135.0741  159.9203 H   0  0  0  0  0  0  0  0  0  0  0  0  # atno 6907 bound_to 6896
  152.5316  133.9933  159.7871 H   0  0  0  0  0  0  0  0  0  0  0  0  # atno 6908 bound_to 6896
  151.0203  133.5832  159.2702 H   0  0  0  0  0  0  0  0  0  0  0  0  # atno 6909 bound_to 6896
  144.8906  139.5564  143.5800 H   0  0  0  0  0  0  0  0  0  0  0  0  # atno 7974 bound_to 7965
  155.1831  140.0411  157.2886 H   0  0  0  0  0  0  0  0  0  0  0  0  # atno 8008 bound_to 7997
  154.6190  140.2496  155.7546 H   0  0  0  0  0  0  0  0  0  0  0  0  # atno 8009 bound_to 7997
  156.2423  140.2899  156.0488 H   0  0  0  0  0  0  0  0  0  0  0  0  # atno 8010 bound_to 7997
  140.6511  143.7542  150.7577 H   0  0  0  0  0  0  0  0  0  0  0  0  # atno 10167 bound_to 10162
  156.1062  130.4180  150.0714 H   0  0  0  0  0  0  0  0  0  0  0  0  # atno 10718 bound_to 10713
  153.7297  135.6939  153.4992 H   0  0  0  0  0  0  0  0  0  0  0  0  # atno 10763 bound_to 10752
  153.2144  135.4391  155.0416 H   0  0  0  0  0  0  0  0  0  0  0  0  # atno 10764 bound_to 10752
  154.8257  135.3445  154.6828 H   0  0  0  0  0  0  0  0  0  0  0  0  # atno 10765 bound_to 10752
  139.9769  134.9560  156.9533 H   0  0  0  0  0  0  0  0  0  0  0  0  # atno 11005 bound_to 11000
  146.3051  139.7554  142.9062 LP  0  0  0  0  0  0  0  0  0  0  0  0  # atno 17320 bound_to 7965
  145.3790  141.0355  143.3188 LP  0  0  0  0  0  0  0  0  0  0  0  0  # atno 17321 bound_to 7965
  140.1193  143.4627  152.2323 LP  0  0  0  0  0  0  0  0  0  0  0  0  # atno 17342 bound_to 10162
  139.5726  144.7471  151.3849 LP  0  0  0  0  0  0  0  0  0  0  0  0  # atno 17343 bound_to 10162
  156.8689  130.9517  151.3611 LP  0  0  0  0  0  0  0  0  0  0  0  0  # atno 17370 bound_to 10713
  157.6239  130.8676  149.9156 LP  0  0  0  0  0  0  0  0  0  0  0  0  # atno 17371 bound_to 10713
  140.5175  134.0940  155.7284 LP  0  0  0  0  0  0  0  0  0  0  0  0  # atno 17394 bound_to 11000
  141.1445  133.9079  157.2247 LP  0  0  0  0  0  0  0  0  0  0  0  0  # atno 17395 bound_to 11000

$$$$
