AV-unprocessed.smi:1072|AV-procd|sdf|4684|dock2
  -GOLD-   22720 3203D 1   1.00000     0.00000
 Structure written by MMmdl.
 46 47  0  0  0  0  0  0  0  0  1 V2000
  147.5832  136.2985  162.3788 C   0  0  0  0  0  0  0  0  0  0  0  0
  147.6328  136.6789  160.9140 C   0  0  0  0  0  0  0  0  0  0  0  0
  146.6718  137.2789  160.2918 N   0  0  0  0  0  0  0  0  0  0  0  0
  146.8337  137.5797  158.9323 C   0  0  0  0  0  0  0  0  0  0  0  0
  145.6634  138.2904  158.2737 C   0  0  0  0  0  0  0  0  0  0  0  0
  147.9749  137.2520  158.2575 C   0  0  0  0  0  0  0  0  0  0  0  0
  148.1807  137.5707  156.7772 C   0  0  0  0  0  0  0  0  0  0  0  0
  149.0781  138.7736  156.4762 C   0  0  0  0  0  0  0  0  0  0  0  0
  148.9962  139.3462  155.3899 O   0  0  0  0  0  0  0  0  0  0  0  0
  149.9358  139.1223  157.4521 N   0  0  0  0  0  0  0  0  0  0  0  0
  150.9620  140.1744  157.4615 C   0  0  1  0  0  0  0  0  0  0  0  0
  151.8950  139.8408  156.2777 C   0  0  0  0  0  0  0  0  0  0  0  0
  150.3049  141.5665  157.2528 C   0  0  0  0  0  0  0  0  0  0  0  0
  151.2981  142.7329  157.4007 C   0  0  0  0  0  0  0  0  0  0  0  0
  152.0355  142.6853  158.7511 C   0  0  2  0  0  0  0  0  0  0  0  0
  153.0200  143.8550  158.8929 C   0  0  0  0  0  0  0  0  0  0  0  0
  152.7417  141.3292  158.9313 C   0  0  0  0  0  0  0  0  0  0  0  0
  151.7592  140.1515  158.7950 C   0  0  0  0  0  0  0  0  0  0  0  0
  149.0651  136.5660  158.9780 C   0  0  0  0  0  0  0  0  0  0  0  0
  150.1338  136.2289  158.4706 O   0  0  0  0  0  0  0  0  0  0  0  0
  148.8227  136.3181  160.2846 N   0  0  0  0  0  0  0  0  0  0  0  0
  149.5394  135.8525  160.8220 H   0  0  0  0  0  0  0  0  0  0  0  0
  147.4689  137.1907  162.9948 H   0  0  0  0  0  0  0  0  0  0  0  0
  148.4913  135.7815  162.6918 H   0  0  0  0  0  0  0  0  0  0  0  0
  146.7342  135.6407  162.5667 H   0  0  0  0  0  0  0  0  0  0  0  0
  145.2480  137.6815  157.4705 H   0  0  0  0  0  0  0  0  0  0  0  0
  145.9772  139.2482  157.8583 H   0  0  0  0  0  0  0  0  0  0  0  0
  144.8654  138.4861  158.9909 H   0  0  0  0  0  0  0  0  0  0  0  0
  148.5845  136.7075  156.2476 H   0  0  0  0  0  0  0  0  0  0  0  0
  147.2021  137.7389  156.3263 H   0  0  0  0  0  0  0  0  0  0  0  0
  149.8905  138.5679  158.2949 H   0  0  0  0  0  0  0  0  0  0  0  0
  152.7070  140.5580  156.1682 H   0  0  0  0  0  0  0  0  0  0  0  0
  151.3478  139.8313  155.3341 H   0  0  0  0  0  0  0  0  0  0  0  0
  152.3508  138.8575  156.3996 H   0  0  0  0  0  0  0  0  0  0  0  0
  149.8252  141.6134  156.2743 H   0  0  0  0  0  0  0  0  0  0  0  0
  149.5087  141.7252  157.9797 H   0  0  0  0  0  0  0  0  0  0  0  0
  152.0174  142.7192  156.5815 H   0  0  0  0  0  0  0  0  0  0  0  0
  150.7586  143.6762  157.3091 H   0  0  0  0  0  0  0  0  0  0  0  0
  151.2919  142.7842  159.5434 H   0  0  0  0  0  0  0  0  0  0  0  0
  153.7933  143.8180  158.1249 H   0  0  0  0  0  0  0  0  0  0  0  0
  153.5146  143.8368  159.8643 H   0  0  0  0  0  0  0  0  0  0  0  0
  152.5069  144.8129  158.8029 H   0  0  0  0  0  0  0  0  0  0  0  0
  153.5492  141.2299  158.2057 H   0  0  0  0  0  0  0  0  0  0  0  0
  153.2151  141.2887  159.9131 H   0  0  0  0  0  0  0  0  0  0  0  0
  151.0813  140.1967  159.6465 H   0  0  0  0  0  0  0  0  0  0  0  0
  152.2985  139.2087  158.8956 H   0  0  0  0  0  0  0  0  0  0  0  0
  1  2  1  0  0  0  0
  1 23  1  0  0  0  0
  1 24  1  0  0  0  0
  1 25  1  0  0  0  0
  2 21  1  0  0  0  0
  2  3  2  0  0  0  0
  3  4  1  0  0  0  0
  4  5  1  0  0  0  0
  4  6  2  0  0  0  0
  5 26  1  0  0  0  0
  5 27  1  0  0  0  0
  5 28  1  0  0  0  0
  6  7  1  0  0  0  0
  6 19  1  0  0  0  0
  7  8  1  0  0  0  0
  7 29  1  0  0  0  0
  7 30  1  0  0  0  0
  8  9  2  0  0  0  0
  8 10  1  0  0  0  0
 10 11  1  0  0  0  0
 10 31  1  0  0  0  0
 11 18  1  0  0  0  0
 11 12  1  0  0  0  0
 11 13  1  0  0  0  0
 12 32  1  0  0  0  0
 12 33  1  0  0  0  0
 12 34  1  0  0  0  0
 13 14  1  0  0  0  0
 13 35  1  0  0  0  0
 13 36  1  0  0  0  0
 14 15  1  0  0  0  0
 14 37  1  0  0  0  0
 14 38  1  0  0  0  0
 15 16  1  0  0  0  0
 15 17  1  0  0  0  0
 15 39  1  0  0  0  0
 16 40  1  0  0  0  0
 16 41  1  0  0  0  0
 16 42  1  0  0  0  0
 17 18  1  0  0  0  0
 17 43  1  0  0  0  0
 17 44  1  0  0  0  0
 18 45  1  0  0  0  0
 18 46  1  0  0  0  0
 19 20  2  0  0  0  0
 19 21  1  0  0  0  0
 21 22  1  0  0  0  0
M  END
> <s_m_source_file>
AV-unprocessed.smi

> <i_m_source_file_index>
1072

> <i_lp_mmshare_version>
43012

> <i_f3d_flags>
0

> <s_epik_input>
W0NIM11jMW5jKFtDSDNdKWMoYyg9TylbbkhdMSlbQ0gyXUMoPU8pW05IXVtDQEBdMihbQ0gzXSlbQ0gyXVtDSDJdW0NAQEhdKFtDSDNdKVtDSDJdW0NIMl0y

> <s_epik_cmdline>
J2VwaWtfcHl0aG9uJywgJy1waCcsICc3LjAnLCAnLXRuJywgJzgnLCAnLW1hJywgJzIwMCcsICctbWV0YWxfYmluZGluZycsICctaW1hZScsICc8aW5maWxlLm1hZT4nLCAnLW9tYWUnLCAnPG91dGZpbGUubWFlPic=

> <r_lp_tautomer_probability>
0.839158

> <r_epik_Ionization_Penalty>
0.000352328

> <r_epik_Ionization_Penalty_Charging>
0.000314696

> <r_epik_Ionization_Penalty_Neutral>
3.76315e-05

> <r_epik_State_Penalty>
0.09125

> <r_epik_Charging_Adjusted_Penalty>
0.0915647

> <i_epik_Tot_Q>
0

> <i_epik_Tot_abs_Q>
0

> <r_epik_Metal_State_Penalty>
0.245598

> <b_epik_Metal_Only>
0

> <s_lp_Force_Field>
OPLS_2005

> <r_lp_Energy>
14.8959

> <b_lp_Chiralities_Consistent>
1

> <s_lp_Variant>
AV-unprocessed.smi:1072-2

> <Gold.Version>
5.8.1

> <Gold.Id.Protein>
6NUR|6NUR_protein|mol2

> <Gold.PLP.Fitness>
34.1047

> <Gold.PLP.PLP>
-30.3689

> <Gold.PLP.part.hbond>
-2.0000

> <Gold.PLP.part.metal>
0.0000

> <Gold.PLP.part.buried>
-3.9151

> <Gold.PLP.part.nonpolar>
-24.5781

> <Gold.PLP.part.repulsive>
0.3132

> <Gold.PLP.ligand.clash>
0.0000

> <Gold.PLP.ligand.torsion>
0.5493

> <Gold.PLP.Chemscore.Hbond>
1.6095

> <Gold.PLP.Chemscore.CHOScore>
0.0000

> <Gold.PLP.Chemscore.Metal>
0.0000

> <Gold.Chemscore.Hbonds>
donor molecule, donor type, donor heavy atom, donor atom, acceptor molecule, acceptor atom, score
      P1  H  6896  6909       L1    20  1.00
      P1  H  6934  6947       L1     3  0.53

> <Gold.PLP.Chemscore.Internal.Correction>
0.0059

> <Gold.Rescore>
     Score         DG    S(hbond)    S(metal)    S(lipo)     H(rot)  DE(clash)    DE(int)     intcor
     13.26     -13.93       0.99        0.00      76.01       1.47       0.03       0.64       ----

> <Gold.Chemscore.Fitness>
13.2599

> <Gold.Chemscore.DG>
-13.9251

> <Gold.Chemscore.ZeroCoef>
-5.4800

> <Gold.Chemscore.Hbond>
0.9918

> <Gold.Chemscore.Metal>
0.0000

> <Gold.Chemscore.Lipo>
76.0091

> <Gold.Chemscore.Internal_Hbond>
0.0000

> <Gold.Chemscore.DEClash>
0.0255

> <Gold.Chemscore.DEInternal>
0.6398

> <Gold.Chemscore.Rot>
1.4690

> <Gold.Chemscore.Internal.Correction>
   9.000000E+99

> <Gold.Chemscore.Hbonds>
donor molecule, donor type, donor heavy atom, donor atom, acceptor molecule, acceptor atom, score
      P1  H  6896  6909       L1    20  0.42
      P1  H  6934  6947       L1     3  0.01

> <Gold.Chemscore.Hbond.Weighted>
-3.3127

> <Gold.Chemscore.Metal.Weighted>
-0.0000

> <Gold.Chemscore.Lipo.Weighted>
-8.8931

> <Gold.Chemscore.Internal_Hbond.Weighted>
0.0000

> <Gold.Chemscore.DEClash.Weighted>
0.0255

> <Gold.Chemscore.DEInternal.Weighted>
0.6398

> <Gold.Chemscore.Rot.Weighted>
3.7607

> <Gold.Chemscore.Internal.Correction.Weighted>
   9.000000E+99

> <Gold.Protein.RotatedTorsions>
[ 6907 6896 6895 6894 ] final   64.27 input  -60.11 | X-H torsion
[ 7974 7965 7964 7962 ] final -132.25 input  175.53 | X-H torsion
[ 8008 7997 7996 7995 ] final   31.34 input   59.86 | X-H torsion
[ 10167 10162 10161 10158 ] final  -15.28 input  -65.29 | X-H torsion
[ 10718 10713 10712 10709 ] final  -66.10 input   66.30 | X-H torsion
[ 10763 10752 10751 10750 ] final   -2.97 input  -60.55 | X-H torsion
[ 11005 11000 10999 10996 ] final -108.60 input  -57.11 | X-H torsion

> <Gold.Protein.ActiveResidues>
 VAL166  LYS551  ARG553  GLY616  TRP617  ASP618  TYR619  PRO620  LYS621  CYS622 
 ASP623  PHE694  ASN695  SER759  ASP760  ASP761  ALA762  ILE779  LEU786  VAL792 
 PHE793  MET794  SER795  GLU796  ALA797  LYS798  CYS799  TRP800  GLU811  SER814 

> <Gold.Protein.RotatedAtoms>
  152.4318  134.5763  159.9935 H   0  0  0  0  0  0  0  0  0  0  0  0  # atno 6907 bound_to 6896
  151.5884  133.3363  159.3030 H   0  0  0  0  0  0  0  0  0  0  0  0  # atno 6908 bound_to 6896
  150.8212  134.7456  159.6838 H   0  0  0  0  0  0  0  0  0  0  0  0  # atno 6909 bound_to 6896
  144.9303  140.7121  143.4910 H   0  0  0  0  0  0  0  0  0  0  0  0  # atno 7974 bound_to 7965
  155.1049  140.3233  155.4537 H   0  0  0  0  0  0  0  0  0  0  0  0  # atno 8008 bound_to 7997
  156.2707  140.2054  156.6121 H   0  0  0  0  0  0  0  0  0  0  0  0  # atno 8009 bound_to 7997
  154.6801  140.0527  157.0244 H   0  0  0  0  0  0  0  0  0  0  0  0  # atno 8010 bound_to 7997
  140.7216  143.5234  150.9606 H   0  0  0  0  0  0  0  0  0  0  0  0  # atno 10167 bound_to 10162
  156.0631  130.4257  150.1660 H   0  0  0  0  0  0  0  0  0  0  0  0  # atno 10718 bound_to 10713
  153.3651  135.6992  153.6681 H   0  0  0  0  0  0  0  0  0  0  0  0  # atno 10763 bound_to 10752
  153.5354  135.3584  155.2695 H   0  0  0  0  0  0  0  0  0  0  0  0  # atno 10764 bound_to 10752
  154.8673  135.4191  154.2917 H   0  0  0  0  0  0  0  0  0  0  0  0  # atno 10765 bound_to 10752
  141.0893  133.9084  157.2113 H   0  0  0  0  0  0  0  0  0  0  0  0  # atno 11005 bound_to 11000
  145.3152  139.1806  143.4617 LP  0  0  0  0  0  0  0  0  0  0  0  0  # atno 17320 bound_to 7965
  146.3244  140.3162  142.8630 LP  0  0  0  0  0  0  0  0  0  0  0  0  # atno 17321 bound_to 7965
  139.8952  143.6904  152.3139 LP  0  0  0  0  0  0  0  0  0  0  0  0  # atno 17342 bound_to 10162
  139.7234  144.7598  151.0919 LP  0  0  0  0  0  0  0  0  0  0  0  0  # atno 17343 bound_to 10162
  156.9725  130.9839  151.3455 LP  0  0  0  0  0  0  0  0  0  0  0  0  # atno 17370 bound_to 10713
  157.5654  130.8274  149.8321 LP  0  0  0  0  0  0  0  0  0  0  0  0  # atno 17371 bound_to 10713
  139.9716  135.0126  156.9526 LP  0  0  0  0  0  0  0  0  0  0  0  0  # atno 17394 bound_to 11000
  140.5290  134.0832  155.7311 LP  0  0  0  0  0  0  0  0  0  0  0  0  # atno 17395 bound_to 11000

$$$$
