AV-unprocessed.smi:3274|AV-procd|sdf|12526|dock1
  -GOLD-   2272018443D 1   1.00000     0.00000
 Structure written by MMmdl.
 43 44  0  0  0  0  0  0  0  0  2 V2000
  145.0028  135.4841  152.3279 C   0  0  0  0  0  0  0  0  0  0  0  0
  145.0417  134.2143  151.4934 C   0  0  0  0  0  0  0  0  0  0  0  0
  144.3681  134.1326  150.3289 C   0  0  0  0  0  0  0  0  0  0  0  0
  144.2949  132.8925  149.4549 C   0  0  0  0  0  0  0  0  0  0  0  0
  145.2152  131.7573  149.9337 C   0  0  0  0  0  0  0  0  0  0  0  0
  145.2821  131.6950  151.4697 C   0  0  1  0  0  0  0  0  0  0  0  0
  146.0060  130.4323  151.9681 C   0  0  0  0  0  0  0  0  0  0  0  0
  145.8323  133.0258  152.0562 C   0  0  1  0  0  0  0  0  0  0  0  0
  147.3605  133.1916  151.8490 C   0  0  0  0  0  0  0  0  0  0  0  0
  148.0066  133.9537  152.9375 N   0  3  0  0  0  0  0  0  0  0  0  0
  149.1106  133.2525  153.6320 C   0  0  1  0  0  0  0  0  0  0  0  0
  149.6991  134.1312  154.7480 C   0  0  0  0  0  0  0  0  0  0  0  0
  148.6120  131.9086  154.2036 C   0  0  0  0  0  0  0  0  0  0  0  0
  149.6883  130.9974  154.5578 N   0  0  0  0  0  0  0  0  0  0  0  0
  150.6692  131.1276  155.4525 C   0  0  0  0  0  0  0  0  0  0  0  0
  151.5024  130.0973  155.4884 N   0  0  0  0  0  0  0  0  0  0  0  0
  150.9502  129.3218  154.5087 C   0  0  0  0  0  0  0  0  0  0  0  0
  149.8653  129.8186  153.9143 N   0  0  0  0  0  0  0  0  0  0  0  0
  144.7585  135.2533  153.3650 H   0  0  0  0  0  0  0  0  0  0  0  0
  144.2433  136.1726  151.9556 H   0  0  0  0  0  0  0  0  0  0  0  0
  145.9550  136.0105  152.3012 H   0  0  0  0  0  0  0  0  0  0  0  0
  143.8024  134.9838  149.9784 H   0  0  0  0  0  0  0  0  0  0  0  0
  143.2593  132.5513  149.4629 H   0  0  0  0  0  0  0  0  0  0  0  0
  144.5304  133.1585  148.4242 H   0  0  0  0  0  0  0  0  0  0  0  0
  144.8590  130.8100  149.5276 H   0  0  0  0  0  0  0  0  0  0  0  0
  146.2163  131.9000  149.5262 H   0  0  0  0  0  0  0  0  0  0  0  0
  144.2539  131.6007  151.8245 H   0  0  0  0  0  0  0  0  0  0  0  0
  147.0108  130.3458  151.5551 H   0  0  0  0  0  0  0  0  0  0  0  0
  145.4616  129.5346  151.6733 H   0  0  0  0  0  0  0  0  0  0  0  0
  146.0831  130.4249  153.0557 H   0  0  0  0  0  0  0  0  0  0  0  0
  145.6419  132.9929  153.1302 H   0  0  0  0  0  0  0  0  0  0  0  0
  147.8509  132.2198  151.8135 H   0  0  0  0  0  0  0  0  0  0  0  0
  147.5546  133.6806  150.8951 H   0  0  0  0  0  0  0  0  0  0  0  0
  148.3538  134.8288  152.5715 H   0  0  0  0  0  0  0  0  0  0  0  0
  149.9014  133.0450  152.9092 H   0  0  0  0  0  0  0  0  0  0  0  0
  150.4957  133.6072  155.2771 H   0  0  0  0  0  0  0  0  0  0  0  0
  148.9389  134.4030  155.4813 H   0  0  0  0  0  0  0  0  0  0  0  0
  150.1280  135.0530  154.3558 H   0  0  0  0  0  0  0  0  0  0  0  0
  148.0134  132.0795  155.0993 H   0  0  0  0  0  0  0  0  0  0  0  0
  147.9606  131.4101  153.4840 H   0  0  0  0  0  0  0  0  0  0  0  0
  150.7763  131.9918  156.0916 H   0  0  0  0  0  0  0  0  0  0  0  0
  151.3604  128.3639  154.2237 H   0  0  0  0  0  0  0  0  0  0  0  0
  147.2917  134.1538  153.6225 H   0  0  0  0  0  0  0  0  0  0  0  0
  1  2  1  0  0  0  0
  1 19  1  0  0  0  0
  1 20  1  0  0  0  0
  1 21  1  0  0  0  0
  2  8  1  0  0  0  0
  2  3  2  0  0  0  0
  3  4  1  0  0  0  0
  3 22  1  0  0  0  0
  4  5  1  0  0  0  0
  4 23  1  0  0  0  0
  4 24  1  0  0  0  0
  5  6  1  0  0  0  0
  5 25  1  0  0  0  0
  5 26  1  0  0  0  0
  6  7  1  0  0  0  0
  6  8  1  0  0  0  0
  6 27  1  0  0  0  0
  7 28  1  0  0  0  0
  7 29  1  0  0  0  0
  7 30  1  0  0  0  0
  8  9  1  0  0  0  0
  8 31  1  0  0  0  0
  9 10  1  0  0  0  0
  9 32  1  0  0  0  0
  9 33  1  0  0  0  0
 10 11  1  0  0  0  0
 10 34  1  0  0  0  0
 10 43  1  0  0  0  0
 11 12  1  0  0  0  0
 11 13  1  0  0  0  0
 11 35  1  0  0  0  0
 12 36  1  0  0  0  0
 12 37  1  0  0  0  0
 12 38  1  0  0  0  0
 13 14  1  0  0  0  0
 13 39  1  0  0  0  0
 13 40  1  0  0  0  0
 14 18  1  0  0  0  0
 14 15  1  0  0  0  0
 15 16  2  0  0  0  0
 15 41  1  0  0  0  0
 16 17  1  0  0  0  0
 17 18  2  0  0  0  0
 17 42  1  0  0  0  0
M  CHG  1  10   1
M  END
> <s_m_source_file>
AV-unprocessed.smi

> <i_m_source_file_index>
3274

> <i_lp_mmshare_version>
43012

> <i_f3d_flags>
0

> <s_epik_input>
W0NIM11DMT1bQ0hdW0NIMl1bQ0gyXVtDQEBIXShbQ0gzXSlbQ0BIXTFbQ0gyXVtOSF1bQ0BIXShbQ0gzXSlbQ0gyXW4yW2NIXW5bY0hdbjI=

> <s_epik_cmdline>
J2VwaWtfcHl0aG9uJywgJy1waCcsICc3LjAnLCAnLXRuJywgJzgnLCAnLW1hJywgJzIwMCcsICctbWV0YWxfYmluZGluZycsICctaW1hZScsICc8aW5maWxlLm1hZT4nLCAnLW9tYWUnLCAnPG91dGZpbGUubWFlPic=

> <r_lp_tautomer_probability>
1

> <r_epik_Ionization_Penalty>
0.0017527

> <r_epik_Ionization_Penalty_Charging>
0.00175191

> <r_epik_Ionization_Penalty_Neutral>
7.94565e-07

> <r_epik_State_Penalty>
0.00118605

> <r_epik_Charging_Adjusted_Penalty>
0.00293796

> <i_epik_Tot_Q>
1

> <i_epik_Tot_abs_Q>
1

> <r_epik_Metal_State_Penalty>
-0

> <b_epik_Metal_Only>
0

> <s_lp_Force_Field>
OPLS_2005

> <r_lp_Energy>
18.0154

> <b_lp_Chiralities_Consistent>
1

> <s_lp_Variant>
AV-unprocessed.smi:3274-5

> <Gold.Version>
5.8.1

> <Gold.Id.Protein>
6NUR|6NUR_protein|mol2

> <Gold.PLP.Fitness>
43.2073

> <Gold.PLP.PLP>
-36.0576

> <Gold.PLP.part.hbond>
-1.0000

> <Gold.PLP.part.metal>
0.0000

> <Gold.PLP.part.buried>
-2.3600

> <Gold.PLP.part.nonpolar>
-31.9497

> <Gold.PLP.part.repulsive>
0.1659

> <Gold.PLP.ligand.clash>
0.0000

> <Gold.PLP.ligand.torsion>
0.8592

> <Gold.PLP.Chemscore.Hbond>
2.0000

> <Gold.PLP.Chemscore.CHOScore>
0.9201

> <Gold.PLP.Chemscore.Metal>
0.0000

> <Gold.Chemscore.Hbonds>
donor molecule, donor type, donor heavy atom, donor atom, acceptor molecule, acceptor atom, score
      L1  H    10    34       P1  7948  2.00
      L1  C    17    42       P1 10737  0.59

> <Gold.PLP.Chemscore.Internal.Correction>
0.1077

> <Gold.Rescore>
     Score         DG    S(hbond)    S(metal)    S(lipo)     H(rot)  DE(clash)    DE(int)     intcor
     11.66     -12.59       0.90        0.00      86.69       2.36       0.05       0.88       ----

> <Gold.Chemscore.Fitness>
11.6594

> <Gold.Chemscore.DG>
-12.5906

> <Gold.Chemscore.ZeroCoef>
-5.4800

> <Gold.Chemscore.Hbond>
0.9021

> <Gold.Chemscore.Metal>
0.0000

> <Gold.Chemscore.Lipo>
86.6915

> <Gold.Chemscore.Internal_Hbond>
0.0000

> <Gold.Chemscore.DEClash>
0.0535

> <Gold.Chemscore.DEInternal>
0.8777

> <Gold.Chemscore.Rot>
2.3615

> <Gold.Chemscore.Internal.Correction>
   9.000000E+99

> <Gold.Chemscore.Hbonds>
donor molecule, donor type, donor heavy atom, donor atom, acceptor molecule, acceptor atom, score
      L1  H    10    34       P1  7948  0.39

> <Gold.Chemscore.Hbond.Weighted>
-3.0131

> <Gold.Chemscore.Metal.Weighted>
-0.0000

> <Gold.Chemscore.Lipo.Weighted>
-10.1429

> <Gold.Chemscore.Internal_Hbond.Weighted>
0.0000

> <Gold.Chemscore.DEClash.Weighted>
0.0535

> <Gold.Chemscore.DEInternal.Weighted>
0.8777

> <Gold.Chemscore.Rot.Weighted>
6.0454

> <Gold.Chemscore.Internal.Correction.Weighted>
   9.000000E+99

> <Gold.Protein.RotatedTorsions>
[ 6907 6896 6895 6894 ] final  -72.19 input  -60.11 | X-H torsion
[ 7974 7965 7964 7962 ] final   -4.38 input  175.53 | X-H torsion
[ 8008 7997 7996 7995 ] final  129.39 input   59.86 | X-H torsion
[ 10167 10162 10161 10158 ] final   62.80 input  -65.29 | X-H torsion
[ 10718 10713 10712 10709 ] final -146.01 input   66.30 | X-H torsion
[ 10763 10752 10751 10750 ] final  -28.55 input  -60.55 | X-H torsion
[ 11005 11000 10999 10996 ] final  -45.78 input  -57.11 | X-H torsion

> <Gold.Protein.ActiveResidues>
 VAL166  LYS551  ARG553  GLY616  TRP617  ASP618  TYR619  PRO620  LYS621  CYS622 
 ASP623  PHE694  ASN695  SER759  ASP760  ASP761  ALA762  ILE779  LEU786  VAL792 
 PHE793  MET794  SER795  GLU796  ALA797  LYS798  CYS799  TRP800  GLU811  SER814 

> <Gold.Protein.RotatedAtoms>
  150.7180  134.5199  159.5648 H   0  0  0  0  0  0  0  0  0  0  0  0  # atno 6907 bound_to 6896
  152.2756  134.7882  160.0415 H   0  0  0  0  0  0  0  0  0  0  0  0  # atno 6908 bound_to 6896
  151.8546  133.3411  159.3721 H   0  0  0  0  0  0  0  0  0  0  0  0  # atno 6909 bound_to 6896
  146.2373  140.1863  142.8332 H   0  0  0  0  0  0  0  0  0  0  0  0  # atno 7974 bound_to 7965
  156.2935  140.2622  156.2590 H   0  0  0  0  0  0  0  0  0  0  0  0  # atno 8008 bound_to 7997
  154.9807  140.0390  157.2295 H   0  0  0  0  0  0  0  0  0  0  0  0  # atno 8009 bound_to 7997
  154.7774  140.2789  155.6095 H   0  0  0  0  0  0  0  0  0  0  0  0  # atno 8010 bound_to 7997
  140.1399  144.4563  150.6817 H   0  0  0  0  0  0  0  0  0  0  0  0  # atno 10167 bound_to 10162
  156.3896  130.7879  151.2079 H   0  0  0  0  0  0  0  0  0  0  0  0  # atno 10718 bound_to 10713
  153.7501  135.6926  153.4947 H   0  0  0  0  0  0  0  0  0  0  0  0  # atno 10763 bound_to 10752
  153.2009  135.4437  155.0264 H   0  0  0  0  0  0  0  0  0  0  0  0  # atno 10764 bound_to 10752
  154.8190  135.3413  154.7022 H   0  0  0  0  0  0  0  0  0  0  0  0  # atno 10765 bound_to 10752
  141.0537  133.6733  156.3061 H   0  0  0  0  0  0  0  0  0  0  0  0  # atno 11005 bound_to 11000
  144.9894  140.8533  143.5349 LP  0  0  0  0  0  0  0  0  0  0  0  0  # atno 17320 bound_to 7965
  145.1867  139.2323  143.5264 LP  0  0  0  0  0  0  0  0  0  0  0  0  # atno 17321 bound_to 7965
  140.6766  143.2308  151.5491 LP  0  0  0  0  0  0  0  0  0  0  0  0  # atno 17342 bound_to 10162
  139.5477  144.2478  152.1473 LP  0  0  0  0  0  0  0  0  0  0  0  0  # atno 17343 bound_to 10162
  157.7498  131.0319  150.4205 LP  0  0  0  0  0  0  0  0  0  0  0  0  # atno 17370 bound_to 10713
  156.4464  130.4002  149.6664 LP  0  0  0  0  0  0  0  0  0  0  0  0  # atno 17371 bound_to 10713
  140.6005  134.5559  157.5516 LP  0  0  0  0  0  0  0  0  0  0  0  0  # atno 17394 bound_to 11000
  139.9372  134.7853  156.0772 LP  0  0  0  0  0  0  0  0  0  0  0  0  # atno 17395 bound_to 11000

$$$$
