AV-unprocessed.smi:47|AV-procd|sdf|424|dock1
  -GOLD-   2262016303D 1   1.00000     0.00000
 Structure written by MMmdl.
 32 34  0  0  0  0  0  0  0  0  2 V2000
  145.2123  141.3303  154.5151 O   0  0  0  0  0  0  0  0  0  0  0  0
  146.4961  141.6032  153.9951 C   0  0  2  0  0  0  0  0  0  0  0  0
  147.0951  140.3961  153.2648 C   0  0  0  0  0  0  0  0  0  0  0  0
  148.5563  140.4761  153.4648 N   0  3  0  0  0  0  0  0  0  0  0  0
  148.8427  141.5827  154.4010 C   0  0  2  0  0  0  0  0  0  0  0  0
  149.9502  141.2559  155.3523 C   0  0  0  0  0  0  0  0  0  0  0  0
  150.7818  140.2485  155.1111 N   0  0  0  0  0  0  0  0  0  0  0  0
  151.6255  140.3287  156.1605 N   0  0  0  0  0  0  0  0  0  0  0  0
  151.2881  141.3549  156.9521 C   0  0  0  0  0  0  0  0  0  0  0  0
  151.9964  141.7320  158.1773 C   0  0  0  0  0  0  0  0  0  0  0  0
  152.7483  140.7724  158.8950 C   0  0  0  0  0  0  0  0  0  0  0  0
  153.4302  141.1342  160.0729 C   0  0  0  0  0  0  0  0  0  0  0  0
  153.3691  142.4587  160.5450 C   0  0  0  0  0  0  0  0  0  0  0  0
  152.6248  143.4213  159.8381 C   0  0  0  0  0  0  0  0  0  0  0  0
  151.9416  143.0603  158.6604 C   0  0  0  0  0  0  0  0  0  0  0  0
  150.2186  141.9918  156.4726 N   0  0  0  0  0  0  0  0  0  0  0  0
  147.5131  141.8881  155.0954 C   0  0  0  0  0  0  0  0  0  0  0  0
  146.4408  142.4561  153.3170 H   0  0  0  0  0  0  0  0  0  0  0  0
  149.1310  142.4447  153.7967 H   0  0  0  0  0  0  0  0  0  0  0  0
  152.3979  139.6909  156.2917 H   0  0  0  0  0  0  0  0  0  0  0  0
  144.6001  141.2695  153.7973 H   0  0  0  0  0  0  0  0  0  0  0  0
  146.7496  139.4615  153.7089 H   0  0  0  0  0  0  0  0  0  0  0  0
  146.8348  140.3815  152.2061 H   0  0  0  0  0  0  0  0  0  0  0  0
  148.8737  139.6096  153.8766 H   0  0  0  0  0  0  0  0  0  0  0  0
  152.8091  139.7498  158.5523 H   0  0  0  0  0  0  0  0  0  0  0  0
  154.0008  140.3944  160.6150 H   0  0  0  0  0  0  0  0  0  0  0  0
  153.8930  142.7357  161.4482 H   0  0  0  0  0  0  0  0  0  0  0  0
  152.5776  144.4382  160.1991 H   0  0  0  0  0  0  0  0  0  0  0  0
  151.3770  143.8157  158.1337 H   0  0  0  0  0  0  0  0  0  0  0  0
  147.4584  142.9034  155.4896 H   0  0  0  0  0  0  0  0  0  0  0  0
  147.3592  141.1956  155.9254 H   0  0  0  0  0  0  0  0  0  0  0  0
  149.0350  140.6319  152.5896 H   0  0  0  0  0  0  0  0  0  0  0  0
  1  2  1  0  0  0  0
  1 21  1  0  0  0  0
  2 18  1  0  0  0  0
  2 17  1  0  0  0  0
  2  3  1  0  0  0  0
  3  4  1  0  0  0  0
  3 22  1  0  0  0  0
  3 23  1  0  0  0  0
  4  5  1  0  0  0  0
  4 24  1  0  0  0  0
  4 32  1  0  0  0  0
  5 19  1  0  0  0  0
  5  6  1  0  0  0  0
  5 17  1  0  0  0  0
  6 16  1  0  0  0  0
  6  7  2  0  0  0  0
  7  8  1  0  0  0  0
  8 20  1  0  0  0  0
  8  9  1  0  0  0  0
  9 10  1  0  0  0  0
  9 16  2  0  0  0  0
 10 15  1  0  0  0  0
 10 11  2  0  0  0  0
 11 12  1  0  0  0  0
 11 25  1  0  0  0  0
 12 13  2  0  0  0  0
 12 26  1  0  0  0  0
 13 14  1  0  0  0  0
 13 27  1  0  0  0  0
 14 15  2  0  0  0  0
 14 28  1  0  0  0  0
 15 29  1  0  0  0  0
 17 30  1  0  0  0  0
 17 31  1  0  0  0  0
M  CHG  1   4   1
M  END
> <s_m_source_file>
AV-unprocessed.smi

> <i_m_source_file_index>
47

> <i_lp_mmshare_version>
43012

> <i_f3d_flags>
0

> <s_epik_input>
W09IXVtDQEhdMVtDSDJdW05IXVtDQEBIXShbQ0gyXTEpYzJuW25IXWMobjIpLWMzW2NIXVtjSF1bY0hdW2NIXVtjSF0z

> <s_epik_cmdline>
J2VwaWtfcHl0aG9uJywgJy1waCcsICc3LjAnLCAnLXRuJywgJzgnLCAnLW1hJywgJzIwMCcsICctbWV0YWxfYmluZGluZycsICctaW1hZScsICc8aW5maWxlLm1hZT4nLCAnLW9tYWUnLCAnPG91dGZpbGUubWFlPic=

> <r_lp_tautomer_probability>
0.948284

> <r_epik_Ionization_Penalty>
0.163822

> <r_epik_Ionization_Penalty_Charging>
0.0371552

> <r_epik_Ionization_Penalty_Neutral>
0.126667

> <r_epik_State_Penalty>
0.318338

> <r_epik_Charging_Adjusted_Penalty>
0.355493

> <i_epik_Tot_Q>
1

> <i_epik_Tot_abs_Q>
1

> <r_epik_Metal_State_Penalty>
0.81572

> <b_epik_Metal_Only>
0

> <s_lp_Force_Field>
OPLS_2005

> <r_lp_Energy>
24.6025

> <b_lp_Chiralities_Consistent>
1

> <s_lp_Variant>
AV-unprocessed.smi:47-2

> <Gold.Version>
5.8.1

> <Gold.Id.Protein>
6NUR|6NUR_protein|mol2

> <Gold.PLP.Fitness>
44.8248

> <Gold.PLP.PLP>
-37.1161

> <Gold.PLP.part.hbond>
-3.0000

> <Gold.PLP.part.metal>
0.0000

> <Gold.PLP.part.buried>
-4.1661

> <Gold.PLP.part.nonpolar>
-30.7462

> <Gold.PLP.part.repulsive>
0.4623

> <Gold.PLP.ligand.clash>
0.0000

> <Gold.PLP.ligand.torsion>
0.6514

> <Gold.PLP.Chemscore.Hbond>
3.0000

> <Gold.PLP.Chemscore.CHOScore>
0.0000

> <Gold.PLP.Chemscore.Metal>
0.0000

> <Gold.Chemscore.Hbonds>
donor molecule, donor type, donor heavy atom, donor atom, acceptor molecule, acceptor atom, score
      L1  H     1    21       P1 10175  1.00
      L1  H     4    32       P1  7957  1.00
      P1  H  7989  7998       L1     7  1.00

> <Gold.PLP.Chemscore.Internal.Correction>
0.0115

> <Gold.Rescore>
     Score         DG    S(hbond)    S(metal)    S(lipo)     H(rot)  DE(clash)    DE(int)     intcor
     19.41     -20.16       2.43        0.00      88.82       1.50       0.17       0.57       ----

> <Gold.Chemscore.Fitness>
19.4138

> <Gold.Chemscore.DG>
-20.1568

> <Gold.Chemscore.ZeroCoef>
-5.4800

> <Gold.Chemscore.Hbond>
2.4300

> <Gold.Chemscore.Metal>
0.0000

> <Gold.Chemscore.Lipo>
88.8178

> <Gold.Chemscore.Internal_Hbond>
0.0000

> <Gold.Chemscore.DEClash>
0.1693

> <Gold.Chemscore.DEInternal>
0.5738

> <Gold.Chemscore.Rot>
1.4966

> <Gold.Chemscore.Internal.Correction>
   9.000000E+99

> <Gold.Chemscore.Hbonds>
donor molecule, donor type, donor heavy atom, donor atom, acceptor molecule, acceptor atom, score
      L1  H     1    21       P1 10175  0.39
      L1  H     4    32       P1  7957  0.94
      P1  H  7989  7998       L1     7  0.20

> <Gold.Chemscore.Hbond.Weighted>
-8.1164

> <Gold.Chemscore.Metal.Weighted>
-0.0000

> <Gold.Chemscore.Lipo.Weighted>
-10.3917

> <Gold.Chemscore.Internal_Hbond.Weighted>
0.0000

> <Gold.Chemscore.DEClash.Weighted>
0.1693

> <Gold.Chemscore.DEInternal.Weighted>
0.5738

> <Gold.Chemscore.Rot.Weighted>
3.8312

> <Gold.Chemscore.Internal.Correction.Weighted>
   9.000000E+99

> <Gold.Protein.RotatedTorsions>
[ 6907 6896 6895 6894 ] final  163.85 input  -60.11 | X-H torsion
[ 7974 7965 7964 7962 ] final  107.99 input  175.53 | X-H torsion
[ 8008 7997 7996 7995 ] final  -96.98 input   59.86 | X-H torsion
[ 10167 10162 10161 10158 ] final  -30.88 input  -65.29 | X-H torsion
[ 10718 10713 10712 10709 ] final  163.73 input   66.30 | X-H torsion
[ 10763 10752 10751 10750 ] final -141.41 input  -60.55 | X-H torsion
[ 11005 11000 10999 10996 ] final  152.59 input  -57.11 | X-H torsion

> <Gold.Protein.ActiveResidues>
 VAL166  LYS551  ARG553  GLY616  TRP617  ASP618  TYR619  PRO620  LYS621  CYS622 
 ASP623  PHE694  ASN695  SER759  ASP760  ASP761  ALA762  ILE779  LEU786  VAL792 
 PHE793  MET794  SER795  GLU796  ALA797  LYS798  CYS799  TRP800  GLU811  SER814 

> <Gold.Protein.RotatedAtoms>
  151.9188  133.3580  159.3889 H   0  0  0  0  0  0  0  0  0  0  0  0  # atno 6907 bound_to 6896
  150.7041  134.4656  159.5410 H   0  0  0  0  0  0  0  0  0  0  0  0  # atno 6908 bound_to 6896
  152.2276  134.8353  160.0529 H   0  0  0  0  0  0  0  0  0  0  0  0  # atno 6909 bound_to 6896
  145.2864  139.2615  143.3888 H   0  0  0  0  0  0  0  0  0  0  0  0  # atno 7974 bound_to 7965
  154.7816  140.0467  157.1132 H   0  0  0  0  0  0  0  0  0  0  0  0  # atno 8008 bound_to 7997
  154.9698  140.3088  155.4973 H   0  0  0  0  0  0  0  0  0  0  0  0  # atno 8009 bound_to 7997
  156.2937  140.2255  156.4789 H   0  0  0  0  0  0  0  0  0  0  0  0  # atno 8010 bound_to 7997
  140.7244  143.3814  151.1593 H   0  0  0  0  0  0  0  0  0  0  0  0  # atno 10167 bound_to 10162
  157.1044  131.0451  151.2484 H   0  0  0  0  0  0  0  0  0  0  0  0  # atno 10718 bound_to 10713
  154.8546  135.3525  154.5864 H   0  0  0  0  0  0  0  0  0  0  0  0  # atno 10763 bound_to 10752
  153.6474  135.6995  153.5225 H   0  0  0  0  0  0  0  0  0  0  0  0  # atno 10764 bound_to 10752
  153.2921  135.4231  155.1135 H   0  0  0  0  0  0  0  0  0  0  0  0  # atno 10765 bound_to 10752
  140.1321  134.8795  157.2218 H   0  0  0  0  0  0  0  0  0  0  0  0  # atno 11005 bound_to 11000
  146.3199  140.3344  142.8643 LP  0  0  0  0  0  0  0  0  0  0  0  0  # atno 17320 bound_to 7965
  144.9209  140.7867  143.5748 LP  0  0  0  0  0  0  0  0  0  0  0  0  # atno 17321 bound_to 7965
  139.7404  143.8934  152.3048 LP  0  0  0  0  0  0  0  0  0  0  0  0  # atno 17342 bound_to 10162
  139.8753  144.7047  150.8940 LP  0  0  0  0  0  0  0  0  0  0  0  0  # atno 17343 bound_to 10162
  157.4613  130.7655  149.7238 LP  0  0  0  0  0  0  0  0  0  0  0  0  # atno 17370 bound_to 10713
  155.9865  130.3974  150.3207 LP  0  0  0  0  0  0  0  0  0  0  0  0  # atno 17371 bound_to 10713
  140.2828  134.3330  155.7338 LP  0  0  0  0  0  0  0  0  0  0  0  0  # atno 17394 bound_to 11000
  141.2172  133.7488  156.9389 LP  0  0  0  0  0  0  0  0  0  0  0  0  # atno 17395 bound_to 11000

$$$$
