AV-unprocessed.smi:3164|AV-procd|sdf|12082|dock7
  -GOLD-   2272017513D 1   1.00000     0.00000
 Structure written by MMmdl.
 40 41  0  0  0  0  0  0  0  0  3 V2000
  143.8085  132.6016  149.2607 C   0  0  0  0  0  0  0  0  0  0  0  0
  144.9483  133.3550  149.8260 N   0  3  2  0  0  0  0  0  0  0  0  0
  145.8578  132.5000  150.6219 C   0  0  0  0  0  0  0  0  0  0  0  0
  147.0391  133.3284  151.1523 C   0  0  0  0  0  0  0  0  0  0  0  0
  146.5449  134.4258  151.9112 O   0  0  0  0  0  0  0  0  0  0  0  0
  145.7469  135.3135  151.1327 C   0  0  2  0  0  0  0  0  0  0  0  0
  145.3419  136.4937  152.0289 C   0  0  0  0  0  0  0  0  0  0  0  0
  146.2973  137.6110  151.8953 N   0  3  0  0  0  0  0  0  0  0  0  0
  146.4764  138.4155  153.1210 C   0  0  0  0  0  0  0  0  0  0  0  0
  147.1386  139.7699  152.8165 C   0  0  0  0  0  0  0  0  0  0  0  0
  148.3504  140.0467  153.6911 C   0  0  0  0  0  0  0  0  0  0  0  0
  149.3431  139.0611  153.8764 C   0  0  0  0  0  0  0  0  0  0  0  0
  150.4576  139.3732  154.6792 C   0  0  0  0  0  0  0  0  0  0  0  0
  150.5373  140.6531  155.2606 C   0  0  0  0  0  0  0  0  0  0  0  0
  149.4941  141.5674  155.0154 C   0  0  0  0  0  0  0  0  0  0  0  0
  148.4223  141.2790  154.2454 N   0  0  0  0  0  0  0  0  0  0  0  0
  144.5208  134.5394  150.6066 C   0  0  0  0  0  0  0  0  0  0  0  0
  143.1773  132.1934  150.0511 H   0  0  0  0  0  0  0  0  0  0  0  0
  144.1626  131.7746  148.6442 H   0  0  0  0  0  0  0  0  0  0  0  0
  143.1952  133.2472  148.6313 H   0  0  0  0  0  0  0  0  0  0  0  0
  145.3096  132.0572  151.4553 H   0  0  0  0  0  0  0  0  0  0  0  0
  146.2261  131.6780  150.0067 H   0  0  0  0  0  0  0  0  0  0  0  0
  147.6727  132.7134  151.7915 H   0  0  0  0  0  0  0  0  0  0  0  0
  147.6651  133.6876  150.3337 H   0  0  0  0  0  0  0  0  0  0  0  0
  146.3311  135.6878  150.2896 H   0  0  0  0  0  0  0  0  0  0  0  0
  144.3477  136.8501  151.7562 H   0  0  0  0  0  0  0  0  0  0  0  0
  145.2955  136.1727  153.0705 H   0  0  0  0  0  0  0  0  0  0  0  0
  147.1984  137.2267  151.6463 H   0  0  0  0  0  0  0  0  0  0  0  0
  145.5022  138.5734  153.5853 H   0  0  0  0  0  0  0  0  0  0  0  0
  147.0869  137.8632  153.8369 H   0  0  0  0  0  0  0  0  0  0  0  0
  147.4341  139.8163  151.7673 H   0  0  0  0  0  0  0  0  0  0  0  0
  146.4111  140.5701  152.9588 H   0  0  0  0  0  0  0  0  0  0  0  0
  149.2569  138.0885  153.4139 H   0  0  0  0  0  0  0  0  0  0  0  0
  151.2378  138.6449  154.8443 H   0  0  0  0  0  0  0  0  0  0  0  0
  151.3778  140.9274  155.8811 H   0  0  0  0  0  0  0  0  0  0  0  0
  149.5229  142.5581  155.4440 H   0  0  0  0  0  0  0  0  0  0  0  0
  143.9108  135.1892  149.9775 H   0  0  0  0  0  0  0  0  0  0  0  0
  143.8924  134.2175  151.4390 H   0  0  0  0  0  0  0  0  0  0  0  0
  145.9935  138.2205  151.1490 H   0  0  0  0  0  0  0  0  0  0  0  0
  145.4849  133.6988  149.0419 H   0  0  0  0  0  0  0  0  0  0  0  0
  1  2  1  0  0  0  0
  1 18  1  0  0  0  0
  1 19  1  0  0  0  0
  1 20  1  0  0  0  0
  2 17  1  0  0  0  0
  2  3  1  0  0  0  0
  2 40  1  0  0  0  0
  3  4  1  0  0  0  0
  3 21  1  0  0  0  0
  3 22  1  0  0  0  0
  4  5  1  0  0  0  0
  4 23  1  0  0  0  0
  4 24  1  0  0  0  0
  5  6  1  0  0  0  0
  6  7  1  0  0  0  0
  6 17  1  0  0  0  0
  6 25  1  0  0  0  0
  7  8  1  0  0  0  0
  7 26  1  0  0  0  0
  7 27  1  0  0  0  0
  8  9  1  0  0  0  0
  8 28  1  0  0  0  0
  8 39  1  0  0  0  0
  9 10  1  0  0  0  0
  9 29  1  0  0  0  0
  9 30  1  0  0  0  0
 10 11  1  0  0  0  0
 10 31  1  0  0  0  0
 10 32  1  0  0  0  0
 11 16  1  0  0  0  0
 11 12  2  0  0  0  0
 12 13  1  0  0  0  0
 12 33  1  0  0  0  0
 13 14  2  0  0  0  0
 13 34  1  0  0  0  0
 14 15  1  0  0  0  0
 14 35  1  0  0  0  0
 15 16  2  0  0  0  0
 15 36  1  0  0  0  0
 17 37  1  0  0  0  0
 17 38  1  0  0  0  0
M  CHG  1   2   1
M  CHG  1   8   1
M  END
> <s_m_source_file>
AV-unprocessed.smi

> <i_m_source_file_index>
3164

> <i_lp_mmshare_version>
43012

> <i_f3d_flags>
0

> <s_epik_input>
W0NIM11OMVtDSDJdW0NIMl1PW0NASF0oW0NIMl0xKVtDSDJdW05IXVtDSDJdW0NIMl1jMltjSF1bY0hdW2NIXVtjSF1uMg==

> <s_epik_cmdline>
J2VwaWtfcHl0aG9uJywgJy1waCcsICc3LjAnLCAnLXRuJywgJzgnLCAnLW1hJywgJzIwMCcsICctbWV0YWxfYmluZGluZycsICctaW1hZScsICc8aW5maWxlLm1hZT4nLCAnLW9tYWUnLCAnPG91dGZpbGUubWFlPic=

> <r_epik_Ionization_Penalty>
0.294944

> <r_epik_Ionization_Penalty_Charging>
0.29381

> <r_epik_Ionization_Penalty_Neutral>
0.00113372

> <r_epik_State_Penalty>
0.271365

> <r_epik_Charging_Adjusted_Penalty>
0.565175

> <i_epik_Tot_Q>
2

> <i_epik_Tot_abs_Q>
2

> <r_epik_Metal_State_Penalty>
0.271365

> <b_epik_Metal_Only>
0

> <s_lp_Force_Field>
OPLS_2005

> <r_lp_Energy>
22.5841

> <b_lp_Chiralities_Consistent>
1

> <s_lp_Variant>
AV-unprocessed.smi:3164-4

> <Gold.Version>
5.8.1

> <Gold.Id.Protein>
6NUR|6NUR_protein|mol2

> <Gold.PLP.Fitness>
43.7151

> <Gold.PLP.PLP>
-34.1045

> <Gold.PLP.part.hbond>
-2.0000

> <Gold.PLP.part.metal>
0.0000

> <Gold.PLP.part.buried>
-1.8379

> <Gold.PLP.part.nonpolar>
-31.2337

> <Gold.PLP.part.repulsive>
0.9942

> <Gold.PLP.ligand.clash>
0.0000

> <Gold.PLP.ligand.torsion>
1.2142

> <Gold.PLP.Chemscore.Hbond>
3.0000

> <Gold.PLP.Chemscore.CHOScore>
1.0000

> <Gold.PLP.Chemscore.Metal>
0.0000

> <Gold.Chemscore.Hbonds>
donor molecule, donor type, donor heavy atom, donor atom, acceptor molecule, acceptor atom, score
      L1  H     2    40       P1  7921  1.00
      L1  H     8    28       P1  7948  2.00
      L1  C    15    36       P1  8028  1.00

> <Gold.PLP.Chemscore.Internal.Correction>
0.0390

> <Gold.Rescore>
     Score         DG    S(hbond)    S(metal)    S(lipo)     H(rot)  DE(clash)    DE(int)     intcor
     16.67     -18.62       1.90        0.00      93.92       1.65       1.01       0.93       ----

> <Gold.Chemscore.Fitness>
16.6722

> <Gold.Chemscore.DG>
-18.6189

> <Gold.Chemscore.ZeroCoef>
-5.4800

> <Gold.Chemscore.Hbond>
1.9049

> <Gold.Chemscore.Metal>
0.0000

> <Gold.Chemscore.Lipo>
93.9214

> <Gold.Chemscore.Internal_Hbond>
0.0000

> <Gold.Chemscore.DEClash>
1.0121

> <Gold.Chemscore.DEInternal>
0.9347

> <Gold.Chemscore.Rot>
1.6454

> <Gold.Chemscore.Internal.Correction>
   9.000000E+99

> <Gold.Chemscore.Hbonds>
donor molecule, donor type, donor heavy atom, donor atom, acceptor molecule, acceptor atom, score
      L1  H     2    40       P1  7921  0.50
      L1  H     8    28       P1  7948  0.96

> <Gold.Chemscore.Hbond.Weighted>
-6.3624

> <Gold.Chemscore.Metal.Weighted>
-0.0000

> <Gold.Chemscore.Lipo.Weighted>
-10.9888

> <Gold.Chemscore.Internal_Hbond.Weighted>
0.0000

> <Gold.Chemscore.DEClash.Weighted>
1.0121

> <Gold.Chemscore.DEInternal.Weighted>
0.9347

> <Gold.Chemscore.Rot.Weighted>
4.2122

> <Gold.Chemscore.Internal.Correction.Weighted>
   9.000000E+99

> <Gold.Protein.RotatedTorsions>
[ 6907 6896 6895 6894 ] final  -82.21 input  -60.11 | X-H torsion
[ 7974 7965 7964 7962 ] final -101.92 input  175.53 | X-H torsion
[ 8008 7997 7996 7995 ] final  133.64 input   59.86 | X-H torsion
[ 10167 10162 10161 10158 ] final   87.21 input  -65.29 | X-H torsion
[ 10718 10713 10712 10709 ] final   85.59 input   66.30 | X-H torsion
[ 10763 10752 10751 10750 ] final  -98.82 input  -60.55 | X-H torsion
[ 11005 11000 10999 10996 ] final  -48.05 input  -57.11 | X-H torsion

> <Gold.Protein.ActiveResidues>
 VAL166  LYS551  ARG553  GLY616  TRP617  ASP618  TYR619  PRO620  LYS621  CYS622 
 ASP623  PHE694  ASN695  SER759  ASP760  ASP761  ALA762  ILE779  LEU786  VAL792 
 PHE793  MET794  SER795  GLU796  ALA797  LYS798  CYS799  TRP800  GLU811  SER814 

> <Gold.Protein.RotatedAtoms>
  150.6900  134.3699  159.4987 H   0  0  0  0  0  0  0  0  0  0  0  0  # atno 6907 bound_to 6896
  152.1516  134.8981  160.0557 H   0  0  0  0  0  0  0  0  0  0  0  0  # atno 6908 bound_to 6896
  152.0076  133.3814  159.4244 H   0  0  0  0  0  0  0  0  0  0  0  0  # atno 6909 bound_to 6896
  145.2754  140.9311  143.2962 H   0  0  0  0  0  0  0  0  0  0  0  0  # atno 7974 bound_to 7965
  156.2994  140.2516  156.3287 H   0  0  0  0  0  0  0  0  0  0  0  0  # atno 8008 bound_to 7997
  154.9166  140.0402  157.1994 H   0  0  0  0  0  0  0  0  0  0  0  0  # atno 8009 bound_to 7997
  154.8352  140.2882  155.5700 H   0  0  0  0  0  0  0  0  0  0  0  0  # atno 8010 bound_to 7997
  139.8797  144.6447  150.8857 H   0  0  0  0  0  0  0  0  0  0  0  0  # atno 10167 bound_to 10162
  157.6917  131.0181  150.2846 H   0  0  0  0  0  0  0  0  0  0  0  0  # atno 10718 bound_to 10713
  154.7446  135.4995  153.9182 H   0  0  0  0  0  0  0  0  0  0  0  0  # atno 10763 bound_to 10752
  153.1079  135.6702  153.9561 H   0  0  0  0  0  0  0  0  0  0  0  0  # atno 10764 bound_to 10752
  153.9329  135.3076  155.3424 H   0  0  0  0  0  0  0  0  0  0  0  0  # atno 10765 bound_to 10752
  141.0678  133.6688  156.3386 H   0  0  0  0  0  0  0  0  0  0  0  0  # atno 11005 bound_to 11000
  144.9299  139.4311  143.6500 LP  0  0  0  0  0  0  0  0  0  0  0  0  # atno 17320 bound_to 7965
  146.3233  139.8204  142.8928 LP  0  0  0  0  0  0  0  0  0  0  0  0  # atno 17321 bound_to 7965
  140.7747  143.3596  151.1854 LP  0  0  0  0  0  0  0  0  0  0  0  0  # atno 17342 bound_to 10162
  139.7207  143.9227  152.2984 LP  0  0  0  0  0  0  0  0  0  0  0  0  # atno 17343 bound_to 10162
  156.3387  130.3812  149.7428 LP  0  0  0  0  0  0  0  0  0  0  0  0  # atno 17370 bound_to 10713
  156.4944  130.8100  151.3107 LP  0  0  0  0  0  0  0  0  0  0  0  0  # atno 17371 bound_to 10713
  140.5737  134.5814  157.5464 LP  0  0  0  0  0  0  0  0  0  0  0  0  # atno 17394 bound_to 11000
  139.9493  134.7645  156.0486 LP  0  0  0  0  0  0  0  0  0  0  0  0  # atno 17395 bound_to 11000

$$$$
