AV-unprocessed.smi:1047|AV-procd|sdf|4562|dock9
  -GOLD-   22720 3 03D 1   1.00000     0.00000
 Structure written by MMmdl.
 57 59  0  0  0  0  0  0  0  0  3 V2000
  146.2555  129.9001  151.5643 C   0  0  0  0  0  0  0  0  0  0  0  0
  146.1306  131.3916  151.9044 C   0  0  0  0  0  0  0  0  0  0  0  0
  146.4427  132.2645  150.7419 N   0  3  1  0  0  0  0  0  0  0  0  0
  145.5613  132.0686  149.5630 C   0  0  0  0  0  0  0  0  0  0  0  0
  144.1984  132.7596  149.7573 C   0  0  0  0  0  0  0  0  0  0  0  0
  144.3958  134.1359  150.0598 O   0  0  0  0  0  0  0  0  0  0  0  0
  145.1332  134.3352  151.2621 C   0  0  2  0  0  0  0  0  0  0  0  0
  145.2215  135.8480  151.5162 C   0  0  0  0  0  0  0  0  0  0  0  0
  146.2299  136.1668  152.5473 N   0  3  0  0  0  0  0  0  0  0  0  0
  145.9094  137.3653  153.3489 C   0  0  0  0  0  0  0  0  0  0  0  0
  147.0950  137.7852  154.2334 C   0  0  2  0  0  0  0  0  0  0  0  0
  146.7767  137.5000  155.5824 O   0  0  0  0  0  0  0  0  0  0  0  0
  147.4119  139.2867  154.0899 C   0  0  0  0  0  0  0  0  0  0  0  0
  148.7470  139.6205  154.5528 N   0  0  0  0  0  0  0  0  0  0  0  0
  149.9172  139.1947  154.0383 C   0  0  0  0  0  0  0  0  0  0  0  0
  151.0313  139.6303  154.6186 N   0  0  0  0  0  0  0  0  0  0  0  0
  150.5257  140.4248  155.6331 C   0  0  0  0  0  0  0  0  0  0  0  0
  151.1904  141.1807  156.6230 C   0  0  0  0  0  0  0  0  0  0  0  0
  150.4612  141.9265  157.5764 C   0  0  0  0  0  0  0  0  0  0  0  0
  151.2173  142.7233  158.6252 C   0  0  0  0  0  0  0  0  0  0  0  0
  149.0434  141.9229  157.5483 C   0  0  0  0  0  0  0  0  0  0  0  0
  148.2401  142.7098  158.5686 C   0  0  0  0  0  0  0  0  0  0  0  0
  148.3633  141.1769  156.5629 C   0  0  0  0  0  0  0  0  0  0  0  0
  149.1002  140.4382  155.6205 C   0  0  0  0  0  0  0  0  0  0  0  0
  146.5324  133.7052  151.0867 C   0  0  0  0  0  0  0  0  0  0  0  0
  146.1114  129.2907  152.4568 H   0  0  0  0  0  0  0  0  0  0  0  0
  147.2429  129.6686  151.1640 H   0  0  0  0  0  0  0  0  0  0  0  0
  145.5124  129.5816  150.8340 H   0  0  0  0  0  0  0  0  0  0  0  0
  145.1393  131.6095  152.3019 H   0  0  0  0  0  0  0  0  0  0  0  0
  146.8358  131.6048  152.7086 H   0  0  0  0  0  0  0  0  0  0  0  0
  146.0589  132.5014  148.6940 H   0  0  0  0  0  0  0  0  0  0  0  0
  145.4283  131.0110  149.3380 H   0  0  0  0  0  0  0  0  0  0  0  0
  143.6100  132.6840  148.8427 H   0  0  0  0  0  0  0  0  0  0  0  0
  143.6152  132.2805  150.5444 H   0  0  0  0  0  0  0  0  0  0  0  0
  144.6138  133.8624  152.0978 H   0  0  0  0  0  0  0  0  0  0  0  0
  145.4949  136.3646  150.5953 H   0  0  0  0  0  0  0  0  0  0  0  0
  144.2476  136.2327  151.8228 H   0  0  0  0  0  0  0  0  0  0  0  0
  146.3003  135.3822  153.1805 H   0  0  0  0  0  0  0  0  0  0  0  0
  145.6510  138.1779  152.6684 H   0  0  0  0  0  0  0  0  0  0  0  0
  145.0290  137.1711  153.9640 H   0  0  0  0  0  0  0  0  0  0  0  0
  147.9779  137.2058  153.9595 H   0  0  0  0  0  0  0  0  0  0  0  0
  147.3471  138.0092  156.1393 H   0  0  0  0  0  0  0  0  0  0  0  0
  147.3278  139.5929  153.0464 H   0  0  0  0  0  0  0  0  0  0  0  0
  146.6903  139.8852  154.6483 H   0  0  0  0  0  0  0  0  0  0  0  0
  149.9528  138.5318  153.1861 H   0  0  0  0  0  0  0  0  0  0  0  0
  152.2703  141.1807  156.6455 H   0  0  0  0  0  0  0  0  0  0  0  0
  150.9959  142.3461  159.6239 H   0  0  0  0  0  0  0  0  0  0  0  0
  150.9388  143.7764  158.5819 H   0  0  0  0  0  0  0  0  0  0  0  0
  152.2950  142.6583  158.4739 H   0  0  0  0  0  0  0  0  0  0  0  0
  147.1681  142.5737  158.4224 H   0  0  0  0  0  0  0  0  0  0  0  0
  148.4570  143.7750  158.4874 H   0  0  0  0  0  0  0  0  0  0  0  0
  148.4829  142.3827  159.5801 H   0  0  0  0  0  0  0  0  0  0  0  0
  147.2839  141.1661  156.5299 H   0  0  0  0  0  0  0  0  0  0  0  0
  147.1391  133.8450  151.9822 H   0  0  0  0  0  0  0  0  0  0  0  0
  147.0614  134.2141  150.2796 H   0  0  0  0  0  0  0  0  0  0  0  0
  147.1264  136.3035  152.1023 H   0  0  0  0  0  0  0  0  0  0  0  0
  147.3724  131.9926  150.4542 H   0  0  0  0  0  0  0  0  0  0  0  0
  1  2  1  0  0  0  0
  1 26  1  0  0  0  0
  1 27  1  0  0  0  0
  1 28  1  0  0  0  0
  2  3  1  0  0  0  0
  2 29  1  0  0  0  0
  2 30  1  0  0  0  0
  3 25  1  0  0  0  0
  3  4  1  0  0  0  0
  3 57  1  0  0  0  0
  4  5  1  0  0  0  0
  4 31  1  0  0  0  0
  4 32  1  0  0  0  0
  5  6  1  0  0  0  0
  5 33  1  0  0  0  0
  5 34  1  0  0  0  0
  6  7  1  0  0  0  0
  7  8  1  0  0  0  0
  7 25  1  0  0  0  0
  7 35  1  0  0  0  0
  8  9  1  0  0  0  0
  8 36  1  0  0  0  0
  8 37  1  0  0  0  0
  9 10  1  0  0  0  0
  9 38  1  0  0  0  0
  9 56  1  0  0  0  0
 10 11  1  0  0  0  0
 10 39  1  0  0  0  0
 10 40  1  0  0  0  0
 11 12  1  0  0  0  0
 11 13  1  0  0  0  0
 11 41  1  0  0  0  0
 12 42  1  0  0  0  0
 13 14  1  0  0  0  0
 13 43  1  0  0  0  0
 13 44  1  0  0  0  0
 14 24  1  0  0  0  0
 14 15  1  0  0  0  0
 15 16  2  0  0  0  0
 15 45  1  0  0  0  0
 16 17  1  0  0  0  0
 17 24  2  0  0  0  0
 17 18  1  0  0  0  0
 18 19  2  0  0  0  0
 18 46  1  0  0  0  0
 19 20  1  0  0  0  0
 19 21  1  0  0  0  0
 20 47  1  0  0  0  0
 20 48  1  0  0  0  0
 20 49  1  0  0  0  0
 21 22  1  0  0  0  0
 21 23  2  0  0  0  0
 22 50  1  0  0  0  0
 22 51  1  0  0  0  0
 22 52  1  0  0  0  0
 23 24  1  0  0  0  0
 23 53  1  0  0  0  0
 25 54  1  0  0  0  0
 25 55  1  0  0  0  0
M  CHG  1   3   1
M  CHG  1   9   1
M  END
> <s_m_source_file>
AV-unprocessed.smi

> <i_m_source_file_index>
1047

> <i_lp_mmshare_version>
43012

> <i_f3d_flags>
0

> <s_epik_input>
W0NIM11bQ0gyXU4xW0NIMl1bQ0gyXU9bQ0BIXShbQ0gyXTEpW0NIMl1bTkhdW0NIMl1bQ0BIXShbT0hdKVtDSDJdbihbY0hdbjIpYyhjMjMpW2NIXWMoW0NIM10pYyhbY0hdMylbQ0gzXQ==

> <s_epik_cmdline>
J2VwaWtfcHl0aG9uJywgJy1waCcsICc3LjAnLCAnLXRuJywgJzgnLCAnLW1hJywgJzIwMCcsICctbWV0YWxfYmluZGluZycsICctaW1hZScsICc8aW5maWxlLm1hZT4nLCAnLW9tYWUnLCAnPG91dGZpbGUubWFlPic=

> <r_epik_Ionization_Penalty>
0.528991

> <r_epik_Ionization_Penalty_Charging>
0.438567

> <r_epik_Ionization_Penalty_Neutral>
0.0904237

> <r_epik_State_Penalty>
0.533036

> <r_epik_Charging_Adjusted_Penalty>
0.971603

> <i_epik_Tot_Q>
2

> <i_epik_Tot_abs_Q>
2

> <r_epik_Metal_State_Penalty>
0.448985

> <b_epik_Metal_Only>
0

> <s_lp_Force_Field>
OPLS_2005

> <r_lp_Energy>
30.7538

> <b_lp_Chiralities_Consistent>
1

> <s_lp_Variant>
AV-unprocessed.smi:1047-3

> <Gold.Version>
5.8.1

> <Gold.Id.Protein>
6NUR|6NUR_protein|mol2

> <Gold.PLP.Fitness>
55.3850

> <Gold.PLP.PLP>
-42.9910

> <Gold.PLP.part.hbond>
-3.0000

> <Gold.PLP.part.metal>
0.0000

> <Gold.PLP.part.buried>
-7.1019

> <Gold.PLP.part.nonpolar>
-34.4848

> <Gold.PLP.part.repulsive>
0.8865

> <Gold.PLP.ligand.clash>
0.0000

> <Gold.PLP.ligand.torsion>
1.1983

> <Gold.PLP.Chemscore.Hbond>
4.0000

> <Gold.PLP.Chemscore.CHOScore>
0.8772

> <Gold.PLP.Chemscore.Metal>
0.0000

> <Gold.Chemscore.Hbonds>
donor molecule, donor type, donor heavy atom, donor atom, acceptor molecule, acceptor atom, score
      L1  H     3    57       P1 10747  1.00
      L1  H     9    56       P1  7948  2.00
      P1  H  7989  7998       L1    16  1.00
      L1  C    15    45       P1  7948  0.35
      L1  C    15    45       P1  7957  0.52

> <Gold.PLP.Chemscore.Internal.Correction>
0.1589

> <Gold.Rescore>
     Score         DG    S(hbond)    S(metal)    S(lipo)     H(rot)  DE(clash)    DE(int)     intcor
     17.01     -18.17       2.07        0.00     108.48       2.70       0.03       1.14       ----

> <Gold.Chemscore.Fitness>
17.0066

> <Gold.Chemscore.DG>
-18.1672

> <Gold.Chemscore.ZeroCoef>
-5.4800

> <Gold.Chemscore.Hbond>
2.0667

> <Gold.Chemscore.Metal>
0.0000

> <Gold.Chemscore.Lipo>
108.4821

> <Gold.Chemscore.Internal_Hbond>
0.0000

> <Gold.Chemscore.DEClash>
0.0255

> <Gold.Chemscore.DEInternal>
1.1352

> <Gold.Chemscore.Rot>
2.6985

> <Gold.Chemscore.Internal.Correction>
   9.000000E+99

> <Gold.Chemscore.Hbonds>
donor molecule, donor type, donor heavy atom, donor atom, acceptor molecule, acceptor atom, score
      L1  H     3    57       P1 10747  0.98
      L1  H     9    56       P1  7948  1.00
      P1  H  7989  7998       L1    16  0.13

> <Gold.Chemscore.Hbond.Weighted>
-6.9029

> <Gold.Chemscore.Metal.Weighted>
-0.0000

> <Gold.Chemscore.Lipo.Weighted>
-12.6924

> <Gold.Chemscore.Internal_Hbond.Weighted>
0.0000

> <Gold.Chemscore.DEClash.Weighted>
0.0255

> <Gold.Chemscore.DEInternal.Weighted>
1.1352

> <Gold.Chemscore.Rot.Weighted>
6.9081

> <Gold.Chemscore.Internal.Correction.Weighted>
   9.000000E+99

> <Gold.Protein.RotatedTorsions>
[ 6907 6896 6895 6894 ] final  -92.34 input  -60.11 | X-H torsion
[ 7974 7965 7964 7962 ] final   22.06 input  175.53 | X-H torsion
[ 8008 7997 7996 7995 ] final  -86.06 input   59.86 | X-H torsion
[ 10167 10162 10161 10158 ] final  168.68 input  -65.29 | X-H torsion
[ 10718 10713 10712 10709 ] final  150.11 input   66.30 | X-H torsion
[ 10763 10752 10751 10750 ] final   46.73 input  -60.55 | X-H torsion
[ 11005 11000 10999 10996 ] final  179.31 input  -57.11 | X-H torsion

> <Gold.Protein.ActiveResidues>
 VAL166  LYS551  ARG553  GLY616  TRP617  ASP618  TYR619  PRO620  LYS621  CYS622 
 ASP623  PHE694  ASN695  SER759  ASP760  ASP761  ALA762  ILE779  LEU786  VAL792 
 PHE793  MET794  SER795  GLU796  ALA797  LYS798  CYS799  TRP800  GLU811  SER814 

> <Gold.Protein.RotatedAtoms>
  150.6905  134.2137  159.4369 H   0  0  0  0  0  0  0  0  0  0  0  0  # atno 6907 bound_to 6896
  152.0097  134.9880  160.0577 H   0  0  0  0  0  0  0  0  0  0  0  0  # atno 6908 bound_to 6896
  152.1500  133.4481  159.4846 H   0  0  0  0  0  0  0  0  0  0  0  0  # atno 6909 bound_to 6896
  146.2045  139.7938  142.8736 H   0  0  0  0  0  0  0  0  0  0  0  0  # atno 7974 bound_to 7965
  154.6476  140.0583  156.9919 H   0  0  0  0  0  0  0  0  0  0  0  0  # atno 8008 bound_to 7997
  155.1420  140.3266  155.4431 H   0  0  0  0  0  0  0  0  0  0  0  0  # atno 8009 bound_to 7997
  156.2561  140.1962  156.6535 H   0  0  0  0  0  0  0  0  0  0  0  0  # atno 8010 bound_to 7997
  139.4973  144.3789  151.9644 H   0  0  0  0  0  0  0  0  0  0  0  0  # atno 10167 bound_to 10162
  157.2876  131.0847  151.1485 H   0  0  0  0  0  0  0  0  0  0  0  0  # atno 10718 bound_to 10713
  152.9807  135.5999  154.3646 H   0  0  0  0  0  0  0  0  0  0  0  0  # atno 10763 bound_to 10752
  154.3325  135.2768  155.2466 H   0  0  0  0  0  0  0  0  0  0  0  0  # atno 10764 bound_to 10752
  154.4584  135.5972  153.6294 H   0  0  0  0  0  0  0  0  0  0  0  0  # atno 10765 bound_to 10752
  140.4047  134.6746  157.4581 H   0  0  0  0  0  0  0  0  0  0  0  0  # atno 11005 bound_to 11000
  145.3369  141.0279  143.3415 LP  0  0  0  0  0  0  0  0  0  0  0  0  # atno 17320 bound_to 7965
  144.8759  139.4971  143.6745 LP  0  0  0  0  0  0  0  0  0  0  0  0  # atno 17321 bound_to 7965
  140.3225  144.3411  150.6006 LP  0  0  0  0  0  0  0  0  0  0  0  0  # atno 17342 bound_to 10162
  140.5711  143.2181  151.7597 LP  0  0  0  0  0  0  0  0  0  0  0  0  # atno 17343 bound_to 10162
  157.2894  130.6789  149.6106 LP  0  0  0  0  0  0  0  0  0  0  0  0  # atno 17370 bound_to 10713
  155.9666  130.4425  150.5384 LP  0  0  0  0  0  0  0  0  0  0  0  0  # atno 17371 bound_to 10713
  140.0311  134.6405  155.9106 LP  0  0  0  0  0  0  0  0  0  0  0  0  # atno 17394 bound_to 11000
  141.1843  133.6552  156.5154 LP  0  0  0  0  0  0  0  0  0  0  0  0  # atno 17395 bound_to 11000

$$$$
