AV-unprocessed.smi:2361|AV-procd|sdf|9411|dock2
  -GOLD-   2272013 43D 1   1.00000     0.00000
 Structure written by MMmdl.
 26 27  0  0  0  0  0  0  0  0  1 V2000
  151.5694  143.9948  157.6707 O   0  0  0  0  0  0  0  0  0  0  0  0
  152.0980  143.0474  158.2525 C   0  0  0  0  0  0  0  0  0  0  0  0
  151.9774  141.7603  157.8803 N   0  0  0  0  0  0  0  0  0  0  0  0
  151.2561  141.2193  156.7794 C   0  0  0  0  0  0  0  0  0  0  0  0
  150.3632  141.9794  155.9840 C   0  0  0  0  0  0  0  0  0  0  0  0
  149.6936  141.4759  154.9258 N   0  0  0  0  0  0  0  0  0  0  0  0
  149.8934  140.1805  154.6079 C   0  0  0  0  0  0  0  0  0  0  0  0
  150.7691  139.3359  155.3169 C   0  0  0  0  0  0  0  0  0  0  0  0
  150.9680  137.6912  154.8264 Cl  0  0  0  0  0  0  0  0  0  0  0  0
  151.4686  139.8673  156.4223 C   0  0  0  0  0  0  0  0  0  0  0  0
  152.5622  138.8750  157.3265 Cl  0  0  0  0  0  0  0  0  0  0  0  0
  152.9557  143.2990  159.4985 C   0  0  2  0  0  0  0  0  0  0  0  0
  153.5902  142.0279  160.0949 C   0  0  0  0  0  0  0  0  0  0  0  0
  152.8634  141.8458  161.4133 C   0  0  0  0  0  0  0  0  0  0  0  0
  152.4957  143.2788  161.7693 C   0  0  0  0  0  0  0  0  0  0  0  0
  152.1105  143.8269  160.5190 O   0  0  0  0  0  0  0  0  0  0  0  0
  152.3949  141.0813  158.5006 H   0  0  0  0  0  0  0  0  0  0  0  0
  150.1846  143.0269  156.1710 H   0  0  0  0  0  0  0  0  0  0  0  0
  149.3420  139.8082  153.7569 H   0  0  0  0  0  0  0  0  0  0  0  0
  153.7382  144.0268  159.2771 H   0  0  0  0  0  0  0  0  0  0  0  0
  153.5088  141.1451  159.4592 H   0  0  0  0  0  0  0  0  0  0  0  0
  154.6519  142.1990  160.2755 H   0  0  0  0  0  0  0  0  0  0  0  0
  151.9587  141.2547  161.2645 H   0  0  0  0  0  0  0  0  0  0  0  0
  153.4723  141.3578  162.1747 H   0  0  0  0  0  0  0  0  0  0  0  0
  151.6906  143.3405  162.5016 H   0  0  0  0  0  0  0  0  0  0  0  0
  153.3604  143.8203  162.1565 H   0  0  0  0  0  0  0  0  0  0  0  0
  1  2  2  0  0  0  0
  2  3  1  0  0  0  0
  2 12  1  0  0  0  0
  3  4  1  0  0  0  0
  3 17  1  0  0  0  0
  4 10  1  0  0  0  0
  4  5  2  0  0  0  0
  5  6  1  0  0  0  0
  5 18  1  0  0  0  0
  6  7  2  0  0  0  0
  7  8  1  0  0  0  0
  7 19  1  0  0  0  0
  8  9  1  0  0  0  0
  8 10  2  0  0  0  0
 10 11  1  0  0  0  0
 12 16  1  0  0  0  0
 12 13  1  0  0  0  0
 12 20  1  0  0  0  0
 13 14  1  0  0  0  0
 13 21  1  0  0  0  0
 13 22  1  0  0  0  0
 14 15  1  0  0  0  0
 14 23  1  0  0  0  0
 14 24  1  0  0  0  0
 15 16  1  0  0  0  0
 15 25  1  0  0  0  0
 15 26  1  0  0  0  0
M  END
> <s_m_source_file>
AV-unprocessed.smi

> <i_m_source_file_index>
2361

> <i_lp_mmshare_version>
43012

> <i_f3d_flags>
0

> <s_epik_input>
TzFbQ0gyXVtDSDJdW0NIMl1bQ0BIXTFDKD1PKVtOSF1jMltjSF1uW2NIXWMoQ2wpYzJDbA==

> <s_epik_cmdline>
J2VwaWtfcHl0aG9uJywgJy1waCcsICc3LjAnLCAnLXRuJywgJzgnLCAnLW1hJywgJzIwMCcsICctbWV0YWxfYmluZGluZycsICctaW1hZScsICc8aW5maWxlLm1hZT4nLCAnLW9tYWUnLCAnPG91dGZpbGUubWFlPic=

> <r_lp_tautomer_probability>
1

> <r_epik_Ionization_Penalty>
7.18707e-06

> <r_epik_Ionization_Penalty_Charging>
0

> <r_epik_Ionization_Penalty_Neutral>
7.18707e-06

> <r_epik_State_Penalty>
-0

> <r_epik_Charging_Adjusted_Penalty>
0

> <i_epik_Tot_Q>
0

> <i_epik_Tot_abs_Q>
0

> <r_epik_Metal_State_Penalty>
-0

> <b_epik_Metal_Only>
0

> <s_lp_Force_Field>
OPLS_2005

> <r_lp_Energy>
24.4573

> <b_lp_Chiralities_Consistent>
1

> <s_lp_Variant>
AV-unprocessed.smi:2361-1

> <Gold.Version>
5.8.1

> <Gold.Id.Protein>
6NUR|6NUR_protein|mol2

> <Gold.PLP.Fitness>
39.2227

> <Gold.PLP.PLP>
-33.3541

> <Gold.PLP.part.hbond>
-0.9216

> <Gold.PLP.part.metal>
0.0000

> <Gold.PLP.part.buried>
0.3411

> <Gold.PLP.part.nonpolar>
-31.3355

> <Gold.PLP.part.repulsive>
0.4257

> <Gold.PLP.ligand.clash>
0.0000

> <Gold.PLP.ligand.torsion>
0.0515

> <Gold.PLP.Chemscore.Hbond>
0.0000

> <Gold.PLP.Chemscore.CHOScore>
1.9880

> <Gold.PLP.Chemscore.Metal>
0.0000

> <Gold.Chemscore.Hbonds>
donor molecule, donor type, donor heavy atom, donor atom, acceptor molecule, acceptor atom, score
      L1  C     5    18       P1  8028  1.00
      L1  C     7    19       P1  7957  0.78

> <Gold.PLP.Chemscore.Internal.Correction>
0.0076

> <Gold.Rescore>
     Score         DG    S(hbond)    S(metal)    S(lipo)     H(rot)  DE(clash)    DE(int)     intcor
     12.32     -13.68       0.00        0.00      91.94       1.00       0.01       1.34       ----

> <Gold.Chemscore.Fitness>
12.3247

> <Gold.Chemscore.DG>
-13.6774

> <Gold.Chemscore.ZeroCoef>
-5.4800

> <Gold.Chemscore.Hbond>
0.0000

> <Gold.Chemscore.Metal>
0.0000

> <Gold.Chemscore.Lipo>
91.9436

> <Gold.Chemscore.Internal_Hbond>
0.0000

> <Gold.Chemscore.DEClash>
0.0117

> <Gold.Chemscore.DEInternal>
1.3410

> <Gold.Chemscore.Rot>
1.0000

> <Gold.Chemscore.Internal.Correction>
   9.000000E+99

> <Gold.Chemscore.Hbond.Weighted>
-0.0000

> <Gold.Chemscore.Metal.Weighted>
-0.0000

> <Gold.Chemscore.Lipo.Weighted>
-10.7574

> <Gold.Chemscore.Internal_Hbond.Weighted>
0.0000

> <Gold.Chemscore.DEClash.Weighted>
0.0117

> <Gold.Chemscore.DEInternal.Weighted>
1.3410

> <Gold.Chemscore.Rot.Weighted>
2.5600

> <Gold.Chemscore.Internal.Correction.Weighted>
   9.000000E+99

> <Gold.Protein.RotatedTorsions>
[ 6907 6896 6895 6894 ] final -149.23 input  -60.11 | X-H torsion
[ 7974 7965 7964 7962 ] final  137.83 input  175.53 | X-H torsion
[ 8008 7997 7996 7995 ] final   56.51 input   59.86 | X-H torsion
[ 10167 10162 10161 10158 ] final  131.89 input  -65.29 | X-H torsion
[ 10718 10713 10712 10709 ] final  -64.31 input   66.30 | X-H torsion
[ 10763 10752 10751 10750 ] final -163.52 input  -60.55 | X-H torsion
[ 11005 11000 10999 10996 ] final  -49.16 input  -57.11 | X-H torsion

> <Gold.Protein.ActiveResidues>
 VAL166  LYS551  ARG553  GLY616  TRP617  ASP618  TYR619  PRO620  LYS621  CYS622 
 ASP623  PHE694  ASN695  SER759  ASP760  ASP761  ALA762  ILE779  LEU786  VAL792 
 PHE793  MET794  SER795  GLU796  ALA797  LYS798  CYS799  TRP800  GLU811  SER814 

> <Gold.Protein.RotatedAtoms>
  151.1811  133.4724  159.2593 H   0  0  0  0  0  0  0  0  0  0  0  0  # atno 6907 bound_to 6896
  151.1258  135.0104  159.8570 H   0  0  0  0  0  0  0  0  0  0  0  0  # atno 6908 bound_to 6896
  152.5458  134.1718  159.8653 H   0  0  0  0  0  0  0  0  0  0  0  0  # atno 6909 bound_to 6896
  144.9430  139.4908  143.5562 H   0  0  0  0  0  0  0  0  0  0  0  0  # atno 7974 bound_to 7965
  155.5186  140.3479  155.4402 H   0  0  0  0  0  0  0  0  0  0  0  0  # atno 8008 bound_to 7997
  156.0800  140.1384  156.9751 H   0  0  0  0  0  0  0  0  0  0  0  0  # atno 8009 bound_to 7997
  154.4574  140.0948  156.6774 H   0  0  0  0  0  0  0  0  0  0  0  0  # atno 8010 bound_to 7997
  139.5364  144.6686  151.4772 H   0  0  0  0  0  0  0  0  0  0  0  0  # atno 10167 bound_to 10162
  156.0737  130.4232  150.1401 H   0  0  0  0  0  0  0  0  0  0  0  0  # atno 10718 bound_to 10713
  154.7115  135.3007  154.9190 H   0  0  0  0  0  0  0  0  0  0  0  0  # atno 10763 bound_to 10752
  154.0090  135.6697  153.4768 H   0  0  0  0  0  0  0  0  0  0  0  0  # atno 10764 bound_to 10752
  153.0759  135.5035  154.8316 H   0  0  0  0  0  0  0  0  0  0  0  0  # atno 10765 bound_to 10752
  141.0743  133.6670  156.3546 H   0  0  0  0  0  0  0  0  0  0  0  0  # atno 11005 bound_to 11000
  146.3293  139.8463  142.8881 LP  0  0  0  0  0  0  0  0  0  0  0  0  # atno 17320 bound_to 7965
  145.2961  141.0181  143.3635 LP  0  0  0  0  0  0  0  0  0  0  0  0  # atno 17321 bound_to 7965
  140.6572  143.8574  150.6848 LP  0  0  0  0  0  0  0  0  0  0  0  0  # atno 17342 bound_to 10162
  140.1957  143.4000  152.1829 LP  0  0  0  0  0  0  0  0  0  0  0  0  # atno 17343 bound_to 10162
  156.9447  130.9755  151.3509 LP  0  0  0  0  0  0  0  0  0  0  0  0  # atno 17370 bound_to 10713
  157.5822  130.8384  149.8538 LP  0  0  0  0  0  0  0  0  0  0  0  0  # atno 17371 bound_to 10713
  140.5606  134.5937  157.5432 LP  0  0  0  0  0  0  0  0  0  0  0  0  # atno 17394 bound_to 11000
  139.9556  134.7541  156.0350 LP  0  0  0  0  0  0  0  0  0  0  0  0  # atno 17395 bound_to 11000

$$$$
