AV-unprocessed.smi:2029|AV-procd|sdf|8222|dock2
  -GOLD-   2272010493D 1   1.00000     0.00000
 Structure written by MMmdl.
 28 29  0  0  0  0  0  0  0  0  1 V2000
  150.1360  140.3235  154.7051 O   0  0  0  0  0  0  0  0  0  0  0  0
  149.4941  141.3549  154.9100 C   0  0  0  0  0  0  0  0  0  0  0  0
  149.7681  142.1976  155.9170 N   0  0  0  0  0  0  0  0  0  0  0  0
  150.8241  142.0089  156.9074 C   0  0  0  0  0  0  0  0  0  0  0  0
  151.3770  143.3399  157.4551 C   0  0  0  0  0  0  0  0  0  0  0  0
  151.8584  143.2509  158.8934 C   0  0  0  0  0  0  0  0  0  0  0  0
  151.5028  144.2397  159.8361 C   0  0  0  0  0  0  0  0  0  0  0  0
  151.9843  144.1157  161.1534 C   0  0  0  0  0  0  0  0  0  0  0  0
  152.7985  143.0131  161.4763 C   0  0  0  0  0  0  0  0  0  0  0  0
  153.0955  142.0797  160.4632 C   0  0  0  0  0  0  0  0  0  0  0  0
  152.6395  142.1895  159.1966 N   0  0  0  0  0  0  0  0  0  0  0  0
  148.3342  141.7747  154.0679 C   0  0  0  0  0  0  0  0  0  0  0  0
  147.0152  142.0279  154.7692 C   0  0  0  0  0  0  0  0  0  0  0  0
  147.1862  140.7981  153.9131 C   0  0  0  0  0  0  0  0  0  0  0  0
  149.1923  143.0215  156.0164 H   0  0  0  0  0  0  0  0  0  0  0  0
  150.4660  141.3816  157.7250 H   0  0  0  0  0  0  0  0  0  0  0  0
  151.6287  141.4539  156.4244 H   0  0  0  0  0  0  0  0  0  0  0  0
  152.2000  143.6833  156.8269 H   0  0  0  0  0  0  0  0  0  0  0  0
  150.6087  144.1110  157.3860 H   0  0  0  0  0  0  0  0  0  0  0  0
  150.8809  145.0773  159.5554 H   0  0  0  0  0  0  0  0  0  0  0  0
  151.7352  144.8534  161.9018 H   0  0  0  0  0  0  0  0  0  0  0  0
  153.1862  142.8854  162.4761 H   0  0  0  0  0  0  0  0  0  0  0  0
  153.7169  141.2224  160.6752 H   0  0  0  0  0  0  0  0  0  0  0  0
  148.5592  142.4060  153.2095 H   0  0  0  0  0  0  0  0  0  0  0  0
  146.9627  141.8842  155.8472 H   0  0  0  0  0  0  0  0  0  0  0  0
  146.3988  142.8377  154.3837 H   0  0  0  0  0  0  0  0  0  0  0  0
  146.6867  140.7740  152.9468 H   0  0  0  0  0  0  0  0  0  0  0  0
  147.2464  139.8379  154.4227 H   0  0  0  0  0  0  0  0  0  0  0  0
  1  2  2  0  0  0  0
  2  3  1  0  0  0  0
  2 12  1  0  0  0  0
  3  4  1  0  0  0  0
  3 15  1  0  0  0  0
  4  5  1  0  0  0  0
  4 16  1  0  0  0  0
  4 17  1  0  0  0  0
  5  6  1  0  0  0  0
  5 18  1  0  0  0  0
  5 19  1  0  0  0  0
  6 11  1  0  0  0  0
  6  7  2  0  0  0  0
  7  8  1  0  0  0  0
  7 20  1  0  0  0  0
  8  9  2  0  0  0  0
  8 21  1  0  0  0  0
  9 10  1  0  0  0  0
  9 22  1  0  0  0  0
 10 11  2  0  0  0  0
 10 23  1  0  0  0  0
 12 14  1  0  0  0  0
 12 13  1  0  0  0  0
 12 24  1  0  0  0  0
 13 14  1  0  0  0  0
 13 25  1  0  0  0  0
 13 26  1  0  0  0  0
 14 27  1  0  0  0  0
 14 28  1  0  0  0  0
M  END
> <s_m_source_file>
AV-unprocessed.smi

> <i_m_source_file_index>
2029

> <i_lp_mmshare_version>
43012

> <i_f3d_flags>
0

> <s_epik_input>
W0NIMl0xW0NIMl1bQ0hdMUMoPU8pW05IXVtDSDJdW0NIMl1jMltjSF1bY0hdW2NIXVtjSF1uMg==

> <s_epik_cmdline>
J2VwaWtfcHl0aG9uJywgJy1waCcsICc3LjAnLCAnLXRuJywgJzgnLCAnLW1hJywgJzIwMCcsICctbWV0YWxfYmluZGluZycsICctaW1hZScsICc8aW5maWxlLm1hZT4nLCAnLW9tYWUnLCAnPG91dGZpbGUubWFlPic=

> <r_epik_Ionization_Penalty>
0.0277532

> <r_epik_Ionization_Penalty_Charging>
0

> <r_epik_Ionization_Penalty_Neutral>
0.0277532

> <r_epik_State_Penalty>
0.022734

> <r_epik_Charging_Adjusted_Penalty>
0.022734

> <i_epik_Tot_Q>
0

> <i_epik_Tot_abs_Q>
0

> <r_epik_Metal_State_Penalty>
0.0217134

> <b_epik_Metal_Only>
0

> <s_lp_Force_Field>
OPLS_2005

> <r_lp_Energy>
5.17532

> <b_lp_Chiralities_Consistent>
1

> <s_lp_Variant>
AV-unprocessed.smi:2029-1

> <Gold.Version>
5.8.1

> <Gold.Id.Protein>
6NUR|6NUR_protein|mol2

> <Gold.PLP.Fitness>
42.5454

> <Gold.PLP.PLP>
-37.6336

> <Gold.PLP.part.hbond>
-2.0000

> <Gold.PLP.part.metal>
0.0000

> <Gold.PLP.part.buried>
-4.6981

> <Gold.PLP.part.nonpolar>
-32.0226

> <Gold.PLP.part.repulsive>
0.2182

> <Gold.PLP.ligand.clash>
0.0000

> <Gold.PLP.ligand.torsion>
0.5865

> <Gold.PLP.Chemscore.Hbond>
2.0000

> <Gold.PLP.Chemscore.CHOScore>
0.0000

> <Gold.PLP.Chemscore.Metal>
0.0000

> <Gold.Chemscore.Hbonds>
donor molecule, donor type, donor heavy atom, donor atom, acceptor molecule, acceptor atom, score
      L1  H     3    15       P1  8028  1.00
      P1  H  7989  7998       L1     1  1.00

> <Gold.PLP.Chemscore.Internal.Correction>
0.0847

> <Gold.Rescore>
     Score         DG    S(hbond)    S(metal)    S(lipo)     H(rot)  DE(clash)    DE(int)     intcor
     17.74     -18.62       1.67        0.00      97.37       1.49       0.28       0.60       ----

> <Gold.Chemscore.Fitness>
17.7375

> <Gold.Chemscore.DG>
-18.6247

> <Gold.Chemscore.ZeroCoef>
-5.4800

> <Gold.Chemscore.Hbond>
1.6683

> <Gold.Chemscore.Metal>
0.0000

> <Gold.Chemscore.Lipo>
97.3662

> <Gold.Chemscore.Internal_Hbond>
0.0000

> <Gold.Chemscore.DEClash>
0.2848

> <Gold.Chemscore.DEInternal>
0.6024

> <Gold.Chemscore.Rot>
1.4919

> <Gold.Chemscore.Internal.Correction>
   9.000000E+99

> <Gold.Chemscore.Hbonds>
donor molecule, donor type, donor heavy atom, donor atom, acceptor molecule, acceptor atom, score
      L1  H     3    15       P1  8028  0.94
      P1  H  7989  7998       L1     1  0.46

> <Gold.Chemscore.Hbond.Weighted>
-5.5720

> <Gold.Chemscore.Metal.Weighted>
-0.0000

> <Gold.Chemscore.Lipo.Weighted>
-11.3918

> <Gold.Chemscore.Internal_Hbond.Weighted>
0.0000

> <Gold.Chemscore.DEClash.Weighted>
0.2848

> <Gold.Chemscore.DEInternal.Weighted>
0.6024

> <Gold.Chemscore.Rot.Weighted>
3.8192

> <Gold.Chemscore.Internal.Correction.Weighted>
   9.000000E+99

> <Gold.Protein.RotatedTorsions>
[ 6907 6896 6895 6894 ] final -135.45 input  -60.11 | X-H torsion
[ 7974 7965 7964 7962 ] final -144.71 input  175.53 | X-H torsion
[ 8008 7997 7996 7995 ] final -168.37 input   59.86 | X-H torsion
[ 10167 10162 10161 10158 ] final    0.31 input  -65.29 | X-H torsion
[ 10718 10713 10712 10709 ] final   54.33 input   66.30 | X-H torsion
[ 10763 10752 10751 10750 ] final  -63.41 input  -60.55 | X-H torsion
[ 11005 11000 10999 10996 ] final -140.79 input  -57.11 | X-H torsion

> <Gold.Protein.ActiveResidues>
 VAL166  LYS551  ARG553  GLY616  TRP617  ASP618  TYR619  PRO620  LYS621  CYS622 
 ASP623  PHE694  ASN695  SER759  ASP760  ASP761  ALA762  ILE779  LEU786  VAL792 
 PHE793  MET794  SER795  GLU796  ALA797  LYS798  CYS799  TRP800  GLU811  SER814 

> <Gold.Protein.RotatedAtoms>
  150.9980  133.6084  159.2698 H   0  0  0  0  0  0  0  0  0  0  0  0  # atno 6907 bound_to 6896
  151.3280  135.0834  159.9338 H   0  0  0  0  0  0  0  0  0  0  0  0  # atno 6908 bound_to 6896
  152.5265  133.9615  159.7773 H   0  0  0  0  0  0  0  0  0  0  0  0  # atno 6909 bound_to 6896
  144.8278  140.5675  143.5535 H   0  0  0  0  0  0  0  0  0  0  0  0  # atno 7974 bound_to 7965
  155.8905  140.1024  157.1422 H   0  0  0  0  0  0  0  0  0  0  0  0  # atno 8008 bound_to 7997
  154.4014  140.1312  156.4373 H   0  0  0  0  0  0  0  0  0  0  0  0  # atno 8009 bound_to 7997
  155.7539  140.3464  155.5166 H   0  0  0  0  0  0  0  0  0  0  0  0  # atno 8010 bound_to 7997
  140.6734  143.6984  150.7972 H   0  0  0  0  0  0  0  0  0  0  0  0  # atno 10167 bound_to 10162
  157.5247  130.8589  149.8605 H   0  0  0  0  0  0  0  0  0  0  0  0  # atno 10718 bound_to 10713
  154.3146  135.6208  153.5481 H   0  0  0  0  0  0  0  0  0  0  0  0  # atno 10763 bound_to 10752
  152.9826  135.5709  154.5138 H   0  0  0  0  0  0  0  0  0  0  0  0  # atno 10764 bound_to 10752
  154.4795  135.2862  155.1558 H   0  0  0  0  0  0  0  0  0  0  0  0  # atno 10765 bound_to 10752
  140.8388  134.2427  157.4820 H   0  0  0  0  0  0  0  0  0  0  0  0  # atno 11005 bound_to 11000
  145.4961  139.1486  143.3683 LP  0  0  0  0  0  0  0  0  0  0  0  0  # atno 17320 bound_to 7965
  146.2583  140.5100  142.8864 LP  0  0  0  0  0  0  0  0  0  0  0  0  # atno 17321 bound_to 7965
  140.0673  143.5096  152.2598 LP  0  0  0  0  0  0  0  0  0  0  0  0  # atno 17342 bound_to 10162
  139.6014  144.7583  151.3163 LP  0  0  0  0  0  0  0  0  0  0  0  0  # atno 17343 bound_to 10162
  156.0378  130.3746  150.1514 LP  0  0  0  0  0  0  0  0  0  0  0  0  # atno 17370 bound_to 10713
  156.9701  130.9832  151.3461 LP  0  0  0  0  0  0  0  0  0  0  0  0  # atno 17371 bound_to 10713
  139.8703  134.9625  156.4430 LP  0  0  0  0  0  0  0  0  0  0  0  0  # atno 17394 bound_to 11000
  140.8918  133.7843  155.9580 LP  0  0  0  0  0  0  0  0  0  0  0  0  # atno 17395 bound_to 11000

$$$$
