AV-unprocessed.smi:1243|AV-procd|sdf|5220|dock7
  -GOLD-   22720 4313D 1   1.00000     0.00000
 Structure written by MMmdl.
 50 51  0  0  0  0  0  0  0  0  1 V2000
  146.6037  132.8152  151.8922 C   0  0  0  0  0  0  0  0  0  0  0  0
  147.7358  133.3876  152.5376 O   0  0  0  0  0  0  0  0  0  0  0  0
  148.4681  132.6019  153.4074 C   0  0  0  0  0  0  0  0  0  0  0  0
  148.2413  131.2643  153.4153 N   0  0  0  0  0  0  0  0  0  0  0  0
  148.9527  130.4969  154.2664 C   0  0  0  0  0  0  0  0  0  0  0  0
  149.9137  131.0166  155.1526 C   0  0  0  0  0  0  0  0  0  0  0  0
  150.1508  132.4036  155.1465 C   0  0  0  0  0  0  0  0  0  0  0  0
  149.4236  133.2211  154.2471 C   0  0  0  0  0  0  0  0  0  0  0  0
  149.5726  134.6332  154.1601 N   0  0  0  0  0  0  0  0  0  0  0  0
  150.4224  135.4356  154.8231 C   0  0  0  0  0  0  0  0  0  0  0  0
  151.2278  135.0708  155.6792 O   0  0  0  0  0  0  0  0  0  0  0  0
  150.2899  136.7066  154.4204 N   0  0  0  0  0  0  0  0  0  0  0  0
  151.0388  137.8531  154.9338 C   0  0  0  0  0  0  0  0  0  0  0  0
  150.1203  139.0743  155.2275 C   0  0  0  0  0  0  0  0  0  0  0  0
  149.6630  139.6159  153.8490 C   0  0  0  0  0  0  0  0  0  0  0  0
  148.8616  138.5365  155.9497 C   0  0  0  0  0  0  0  0  0  0  0  0
  150.8342  140.1263  156.0046 N   0  0  0  0  0  0  0  0  0  0  0  0
  150.1468  141.4264  156.0621 C   0  0  0  0  0  0  0  0  0  0  0  0
  151.0080  142.4979  156.7555 C   0  0  0  0  0  0  0  0  0  0  0  0
  151.3610  142.1031  158.1157 N   0  0  0  0  0  0  0  0  0  0  0  0
  152.1644  143.1203  158.7760 C   0  0  0  0  0  0  0  0  0  0  0  0
  152.0549  140.8201  158.0656 C   0  0  0  0  0  0  0  0  0  0  0  0
  151.1963  139.7422  157.3793 C   0  0  0  0  0  0  0  0  0  0  0  0
  146.1432  133.5614  151.2450 H   0  0  0  0  0  0  0  0  0  0  0  0
  145.8519  132.4947  152.6147 H   0  0  0  0  0  0  0  0  0  0  0  0
  146.8869  131.9668  151.2677 H   0  0  0  0  0  0  0  0  0  0  0  0
  148.7462  129.4371  154.2446 H   0  0  0  0  0  0  0  0  0  0  0  0
  150.4547  130.3666  155.8244 H   0  0  0  0  0  0  0  0  0  0  0  0
  150.8732  132.8082  155.8377 H   0  0  0  0  0  0  0  0  0  0  0  0
  149.0158  135.0777  153.4448 H   0  0  0  0  0  0  0  0  0  0  0  0
  149.5976  136.9073  153.7137 H   0  0  0  0  0  0  0  0  0  0  0  0
  151.5936  137.5828  155.8340 H   0  0  0  0  0  0  0  0  0  0  0  0
  151.8098  138.1045  154.2060 H   0  0  0  0  0  0  0  0  0  0  0  0
  149.3007  138.8146  153.2036 H   0  0  0  0  0  0  0  0  0  0  0  0
  150.4778  140.1131  153.3214 H   0  0  0  0  0  0  0  0  0  0  0  0
  148.8432  140.3288  153.9354 H   0  0  0  0  0  0  0  0  0  0  0  0
  148.3644  137.7721  155.3511 H   0  0  0  0  0  0  0  0  0  0  0  0
  148.1252  139.3187  156.1323 H   0  0  0  0  0  0  0  0  0  0  0  0
  149.1020  138.0766  156.9079 H   0  0  0  0  0  0  0  0  0  0  0  0
  149.9162  141.7881  155.0619 H   0  0  0  0  0  0  0  0  0  0  0  0
  149.1984  141.3334  156.5915 H   0  0  0  0  0  0  0  0  0  0  0  0
  151.9119  142.6760  156.1704 H   0  0  0  0  0  0  0  0  0  0  0  0
  150.4601  143.4405  156.7770 H   0  0  0  0  0  0  0  0  0  0  0  0
  152.4050  142.8200  159.7963 H   0  0  0  0  0  0  0  0  0  0  0  0
  151.6233  144.0655  158.8272 H   0  0  0  0  0  0  0  0  0  0  0  0
  153.1004  143.2921  158.2425 H   0  0  0  0  0  0  0  0  0  0  0  0
  153.0020  140.9263  157.5339 H   0  0  0  0  0  0  0  0  0  0  0  0
  152.3000  140.4954  159.0774 H   0  0  0  0  0  0  0  0  0  0  0  0
  150.3002  139.5664  157.9749 H   0  0  0  0  0  0  0  0  0  0  0  0
  151.7673  138.8158  157.3865 H   0  0  0  0  0  0  0  0  0  0  0  0
  1  2  1  0  0  0  0
  1 24  1  0  0  0  0
  1 25  1  0  0  0  0
  1 26  1  0  0  0  0
  2  3  1  0  0  0  0
  3  8  1  0  0  0  0
  3  4  2  0  0  0  0
  4  5  1  0  0  0  0
  5  6  2  0  0  0  0
  5 27  1  0  0  0  0
  6  7  1  0  0  0  0
  6 28  1  0  0  0  0
  7  8  2  0  0  0  0
  7 29  1  0  0  0  0
  8  9  1  0  0  0  0
  9 10  1  0  0  0  0
  9 30  1  0  0  0  0
 10 11  2  0  0  0  0
 10 12  1  0  0  0  0
 12 13  1  0  0  0  0
 12 31  1  0  0  0  0
 13 14  1  0  0  0  0
 13 32  1  0  0  0  0
 13 33  1  0  0  0  0
 14 15  1  0  0  0  0
 14 16  1  0  0  0  0
 14 17  1  0  0  0  0
 15 34  1  0  0  0  0
 15 35  1  0  0  0  0
 15 36  1  0  0  0  0
 16 37  1  0  0  0  0
 16 38  1  0  0  0  0
 16 39  1  0  0  0  0
 17 23  1  0  0  0  0
 17 18  1  0  0  0  0
 18 19  1  0  0  0  0
 18 40  1  0  0  0  0
 18 41  1  0  0  0  0
 19 20  1  0  0  0  0
 19 42  1  0  0  0  0
 19 43  1  0  0  0  0
 20 21  1  0  0  0  0
 20 22  1  0  0  0  0
 21 44  1  0  0  0  0
 21 45  1  0  0  0  0
 21 46  1  0  0  0  0
 22 23  1  0  0  0  0
 22 47  1  0  0  0  0
 22 48  1  0  0  0  0
 23 49  1  0  0  0  0
 23 50  1  0  0  0  0
M  END
> <s_m_source_file>
AV-unprocessed.smi

> <i_m_source_file_index>
1243

> <i_lp_mmshare_version>
43012

> <i_f3d_flags>
0

> <s_epik_input>
W0NIM11PYzFuW2NIXVtjSF1bY0hdYzFbTkhdQyg9TylbTkhdW0NIMl1DKFtDSDNdKShbQ0gzXSlOMltDSDJdW0NIMl1OKFtDSDNdKVtDSDJdW0NIMl0y

> <s_epik_cmdline>
J2VwaWtfcHl0aG9uJywgJy1waCcsICc3LjAnLCAnLXRuJywgJzgnLCAnLW1hJywgJzIwMCcsICctbWV0YWxfYmluZGluZycsICctaW1hZScsICc8aW5maWxlLm1hZT4nLCAnLW9tYWUnLCAnPG91dGZpbGUubWFlPic=

> <r_lp_tautomer_probability>
1

> <r_epik_Ionization_Penalty>
3.08543

> <r_epik_Ionization_Penalty_Charging>
0

> <r_epik_Ionization_Penalty_Neutral>
3.08543

> <r_epik_State_Penalty>
2.1584

> <r_epik_Charging_Adjusted_Penalty>
2.1584

> <i_epik_Tot_Q>
0

> <i_epik_Tot_abs_Q>
0

> <r_epik_Metal_State_Penalty>
2.1584

> <b_epik_Metal_Only>
0

> <s_lp_Force_Field>
OPLS_2005

> <r_lp_Energy>
53.3534

> <b_lp_Chiralities_Consistent>
1

> <s_lp_Variant>
AV-unprocessed.smi:1243-3

> <Gold.Version>
5.8.1

> <Gold.Id.Protein>
6NUR|6NUR_protein|mol2

> <Gold.PLP.Fitness>
43.3120

> <Gold.PLP.PLP>
-36.4576

> <Gold.PLP.part.hbond>
-3.8843

> <Gold.PLP.part.metal>
0.0000

> <Gold.PLP.part.buried>
-0.4384

> <Gold.PLP.part.nonpolar>
-32.7676

> <Gold.PLP.part.repulsive>
0.7935

> <Gold.PLP.ligand.clash>
0.0000

> <Gold.PLP.ligand.torsion>
0.4939

> <Gold.PLP.Chemscore.Hbond>
2.5920

> <Gold.PLP.Chemscore.CHOScore>
0.0000

> <Gold.PLP.Chemscore.Metal>
0.0000

> <Gold.Chemscore.Hbonds>
donor molecule, donor type, donor heavy atom, donor atom, acceptor molecule, acceptor atom, score
      L1  H     9    30       P1  7948  0.94
      L1  H    12    31       P1  7948  0.75
      P1  H 10752 10763       L1    11  0.76

> <Gold.PLP.Chemscore.Internal.Correction>
0.0662

> <Gold.Rescore>
     Score         DG    S(hbond)    S(metal)    S(lipo)     H(rot)  DE(clash)    DE(int)     intcor
     14.33     -16.69       1.62        0.00      86.35       1.67       0.56       1.80       ----

> <Gold.Chemscore.Fitness>
14.3299

> <Gold.Chemscore.DG>
-16.6932

> <Gold.Chemscore.ZeroCoef>
-5.4800

> <Gold.Chemscore.Hbond>
1.6154

> <Gold.Chemscore.Metal>
0.0000

> <Gold.Chemscore.Lipo>
86.3462

> <Gold.Chemscore.Internal_Hbond>
0.0000

> <Gold.Chemscore.DEClash>
0.5637

> <Gold.Chemscore.DEInternal>
1.7995

> <Gold.Chemscore.Rot>
1.6737

> <Gold.Chemscore.Internal.Correction>
   9.000000E+99

> <Gold.Chemscore.Hbonds>
donor molecule, donor type, donor heavy atom, donor atom, acceptor molecule, acceptor atom, score
      L1  H     9    30       P1  7948  0.31
      L1  H    12    31       P1  7948  0.57
      P1  H 10752 10763       L1    11  0.14

> <Gold.Chemscore.Hbond.Weighted>
-5.3954

> <Gold.Chemscore.Metal.Weighted>
-0.0000

> <Gold.Chemscore.Lipo.Weighted>
-10.1025

> <Gold.Chemscore.Internal_Hbond.Weighted>
0.0000

> <Gold.Chemscore.DEClash.Weighted>
0.5637

> <Gold.Chemscore.DEInternal.Weighted>
1.7995

> <Gold.Chemscore.Rot.Weighted>
4.2848

> <Gold.Chemscore.Internal.Correction.Weighted>
   9.000000E+99

> <Gold.Protein.RotatedTorsions>
[ 6907 6896 6895 6894 ] final -160.31 input  -60.11 | X-H torsion
[ 7974 7965 7964 7962 ] final  145.32 input  175.53 | X-H torsion
[ 8008 7997 7996 7995 ] final  -35.56 input   59.86 | X-H torsion
[ 10167 10162 10161 10158 ] final -132.26 input  -65.29 | X-H torsion
[ 10718 10713 10712 10709 ] final -170.59 input   66.30 | X-H torsion
[ 10763 10752 10751 10750 ] final   63.53 input  -60.55 | X-H torsion
[ 11005 11000 10999 10996 ] final  116.66 input  -57.11 | X-H torsion

> <Gold.Protein.ActiveResidues>
 VAL166  LYS551  ARG553  GLY616  TRP617  ASP618  TYR619  PRO620  LYS621  CYS622 
 ASP623  PHE694  ASN695  SER759  ASP760  ASP761  ALA762  ILE779  LEU786  VAL792 
 PHE793  MET794  SER795  GLU796  ALA797  LYS798  CYS799  TRP800  GLU811  SER814 

> <Gold.Protein.RotatedAtoms>
  151.3471  133.3939  159.2676 H   0  0  0  0  0  0  0  0  0  0  0  0  # atno 6907 bound_to 6896
  150.9831  134.9183  159.7866 H   0  0  0  0  0  0  0  0  0  0  0  0  # atno 6908 bound_to 6896
  152.5223  134.3435  159.9278 H   0  0  0  0  0  0  0  0  0  0  0  0  # atno 6909 bound_to 6896
  144.8762  139.5769  143.5864 H   0  0  0  0  0  0  0  0  0  0  0  0  # atno 7974 bound_to 7965
  154.4093  140.1654  156.2231 H   0  0  0  0  0  0  0  0  0  0  0  0  # atno 8008 bound_to 7997
  155.9347  140.3412  155.6254 H   0  0  0  0  0  0  0  0  0  0  0  0  # atno 8009 bound_to 7997
  155.7064  140.0751  157.2380 H   0  0  0  0  0  0  0  0  0  0  0  0  # atno 8010 bound_to 7997
  139.9104  143.6501  152.2576 H   0  0  0  0  0  0  0  0  0  0  0  0  # atno 10167 bound_to 10162
  156.7284  130.9297  151.3102 H   0  0  0  0  0  0  0  0  0  0  0  0  # atno 10718 bound_to 10713
  153.0021  135.5426  154.6366 H   0  0  0  0  0  0  0  0  0  0  0  0  # atno 10763 bound_to 10752
  154.5631  135.2835  155.0902 H   0  0  0  0  0  0  0  0  0  0  0  0  # atno 10764 bound_to 10752
  154.2097  135.6469  153.5164 H   0  0  0  0  0  0  0  0  0  0  0  0  # atno 10765 bound_to 10752
  139.9048  134.9601  156.7232 H   0  0  0  0  0  0  0  0  0  0  0  0  # atno 11005 bound_to 11000
  146.2964  139.7291  142.9123 LP  0  0  0  0  0  0  0  0  0  0  0  0  # atno 17320 bound_to 7965
  145.4038  141.0388  143.3055 LP  0  0  0  0  0  0  0  0  0  0  0  0  # atno 17321 bound_to 7965
  139.6948  144.7642  151.1376 LP  0  0  0  0  0  0  0  0  0  0  0  0  # atno 17342 bound_to 10162
  140.7687  143.5539  150.9174 LP  0  0  0  0  0  0  0  0  0  0  0  0  # atno 17343 bound_to 10162
  157.6869  130.9194  150.0410 LP  0  0  0  0  0  0  0  0  0  0  0  0  # atno 17370 bound_to 10713
  156.1546  130.3643  149.9388 LP  0  0  0  0  0  0  0  0  0  0  0  0  # atno 17371 bound_to 10713
  140.6984  133.9328  155.8009 LP  0  0  0  0  0  0  0  0  0  0  0  0  # atno 17394 bound_to 11000
  141.0390  134.0648  157.3925 LP  0  0  0  0  0  0  0  0  0  0  0  0  # atno 17395 bound_to 11000

$$$$
