AV-unprocessed.smi:1006|AV-procd|sdf|4395|dock9
  -GOLD-   22720 2323D 1   1.00000     0.00000
 Structure written by MMmdl.
 46 48  0  0  0  0  0  0  0  0  2 V2000
  145.1119  145.0363  152.7641 C   0  0  0  0  0  0  0  0  0  0  0  0
  145.2142  143.9704  153.8340 C   0  0  0  0  0  0  0  0  0  0  0  0
  144.6682  144.1622  155.1214 C   0  0  0  0  0  0  0  0  0  0  0  0
  144.8299  143.0971  156.0316 C   0  0  0  0  0  0  0  0  0  0  0  0
  144.3264  143.1842  157.3269 N   0  0  0  0  0  0  0  0  0  0  0  0
  145.4712  141.9593  155.6895 N   0  0  0  0  0  0  0  0  0  0  0  0
  145.9425  141.8910  154.4425 C   0  0  0  0  0  0  0  0  0  0  0  0
  146.7824  140.3710  154.0317 S   0  0  0  0  0  0  0  0  0  0  0  0
  148.1126  140.3057  155.2717 C   0  0  0  0  0  0  0  0  0  0  0  0
  149.4860  140.6302  154.6631 C   0  0  1  0  0  0  0  0  0  0  0  0
  149.3046  141.1744  153.3695 O   0  0  0  0  0  0  0  0  0  0  0  0
  150.2840  141.6148  155.5397 C   0  0  0  0  0  0  0  0  0  0  0  0
  150.9730  140.9514  156.6560 N   0  0  0  0  0  0  0  0  0  0  0  0
  151.3144  139.6432  156.8081 C   0  0  0  0  0  0  0  0  0  0  0  0
  151.9429  139.5191  158.0097 N   0  3  0  0  0  0  0  0  0  0  0  0
  152.0053  140.7666  158.6340 C   0  0  0  0  0  0  0  0  0  0  0  0
  152.5458  141.1452  159.8572 C   0  0  0  0  0  0  0  0  0  0  0  0
  152.4526  142.5107  160.2087 C   0  0  0  0  0  0  0  0  0  0  0  0
  153.0357  142.9588  161.5383 C   0  0  0  0  0  0  0  0  0  0  0  0
  151.8319  143.4469  159.3417 C   0  0  0  0  0  0  0  0  0  0  0  0
  151.7408  144.9134  159.7278 C   0  0  0  0  0  0  0  0  0  0  0  0
  151.2861  143.0411  158.1029 C   0  0  0  0  0  0  0  0  0  0  0  0
  151.3852  141.6915  157.7711 C   0  0  0  0  0  0  0  0  0  0  0  0
  145.8548  142.8297  153.4947 N   0  0  0  0  0  0  0  0  0  0  0  0
  144.4309  145.8323  153.0668 H   0  0  0  0  0  0  0  0  0  0  0  0
  144.7406  144.6081  151.8326 H   0  0  0  0  0  0  0  0  0  0  0  0
  146.0911  145.4766  152.5751 H   0  0  0  0  0  0  0  0  0  0  0  0
  144.1557  145.0735  155.3938 H   0  0  0  0  0  0  0  0  0  0  0  0
  143.8351  144.0050  157.6497 H   0  0  0  0  0  0  0  0  0  0  0  0
  144.4305  142.4229  157.9821 H   0  0  0  0  0  0  0  0  0  0  0  0
  147.8869  141.0014  156.0811 H   0  0  0  0  0  0  0  0  0  0  0  0
  148.1295  139.3043  155.7029 H   0  0  0  0  0  0  0  0  0  0  0  0
  150.0583  139.7072  154.5604 H   0  0  0  0  0  0  0  0  0  0  0  0
  149.2211  140.4636  152.7527 H   0  0  0  0  0  0  0  0  0  0  0  0
  151.0074  142.1771  154.9491 H   0  0  0  0  0  0  0  0  0  0  0  0
  149.6088  142.3525  155.9753 H   0  0  0  0  0  0  0  0  0  0  0  0
  151.1235  138.8479  156.1021 H   0  0  0  0  0  0  0  0  0  0  0  0
  153.0190  140.4273  160.5112 H   0  0  0  0  0  0  0  0  0  0  0  0
  152.2679  143.4229  162.1579 H   0  0  0  0  0  0  0  0  0  0  0  0
  153.8373  143.6807  161.3799 H   0  0  0  0  0  0  0  0  0  0  0  0
  153.4495  142.1181  162.0960 H   0  0  0  0  0  0  0  0  0  0  0  0
  151.2655  145.5041  158.9441 H   0  0  0  0  0  0  0  0  0  0  0  0
  152.7343  145.3279  159.8991 H   0  0  0  0  0  0  0  0  0  0  0  0
  151.1528  145.0331  160.6378 H   0  0  0  0  0  0  0  0  0  0  0  0
  150.8178  143.7561  157.4433 H   0  0  0  0  0  0  0  0  0  0  0  0
  152.3043  138.6465  158.3731 H   0  0  0  0  0  0  0  0  0  0  0  0
  1  2  1  0  0  0  0
  1 25  1  0  0  0  0
  1 26  1  0  0  0  0
  1 27  1  0  0  0  0
  2 24  1  0  0  0  0
  2  3  2  0  0  0  0
  3  4  1  0  0  0  0
  3 28  1  0  0  0  0
  4  5  1  0  0  0  0
  4  6  2  0  0  0  0
  5 29  1  0  0  0  0
  5 30  1  0  0  0  0
  6  7  1  0  0  0  0
  7  8  1  0  0  0  0
  7 24  2  0  0  0  0
  8  9  1  0  0  0  0
  9 10  1  0  0  0  0
  9 31  1  0  0  0  0
  9 32  1  0  0  0  0
 10 11  1  0  0  0  0
 10 12  1  0  0  0  0
 10 33  1  0  0  0  0
 11 34  1  0  0  0  0
 12 13  1  0  0  0  0
 12 35  1  0  0  0  0
 12 36  1  0  0  0  0
 13 23  1  0  0  0  0
 13 14  1  0  0  0  0
 14 15  2  0  0  0  0
 14 37  1  0  0  0  0
 15 16  1  0  0  0  0
 15 46  1  0  0  0  0
 16 23  2  0  0  0  0
 16 17  1  0  0  0  0
 17 18  2  0  0  0  0
 17 38  1  0  0  0  0
 18 19  1  0  0  0  0
 18 20  1  0  0  0  0
 19 39  1  0  0  0  0
 19 40  1  0  0  0  0
 19 41  1  0  0  0  0
 20 21  1  0  0  0  0
 20 22  2  0  0  0  0
 21 42  1  0  0  0  0
 21 43  1  0  0  0  0
 21 44  1  0  0  0  0
 22 23  1  0  0  0  0
 22 45  1  0  0  0  0
M  CHG  1  15   1
M  END
> <s_m_source_file>
AV-unprocessed.smi

> <i_m_source_file_index>
1006

> <i_lp_mmshare_version>
43012

> <i_f3d_flags>
0

> <s_epik_input>
W0NIM11jMVtjSF1jKFtOSDJdKW5jKG4xKVNbQ0gyXVtDQEhdKFtPSF0pW0NIMl1uKFtjSF1uMiljKGMyMylbY0hdYyhbQ0gzXSljKFtjSF0zKVtDSDNd

> <s_epik_cmdline>
J2VwaWtfcHl0aG9uJywgJy1waCcsICc3LjAnLCAnLXRuJywgJzgnLCAnLW1hJywgJzIwMCcsICctbWV0YWxfYmluZGluZycsICctaW1hZScsICc8aW5maWxlLm1hZT4nLCAnLW9tYWUnLCAnPG91dGZpbGUubWFlPic=

> <r_epik_Ionization_Penalty>
1.4378

> <r_epik_Ionization_Penalty_Charging>
1.06724

> <r_epik_Ionization_Penalty_Neutral>
0.370564

> <r_epik_State_Penalty>
1.48666

> <r_epik_Charging_Adjusted_Penalty>
2.5539

> <i_epik_Tot_Q>
1

> <i_epik_Tot_abs_Q>
1

> <r_epik_Metal_State_Penalty>
1.38026

> <b_epik_Metal_Only>
0

> <s_lp_Force_Field>
OPLS_2005

> <r_lp_Energy>
7.15152

> <b_lp_Chiralities_Consistent>
1

> <s_lp_Variant>
AV-unprocessed.smi:1006-6

> <Gold.Version>
5.8.1

> <Gold.Id.Protein>
6NUR|6NUR_protein|mol2

> <Gold.PLP.Fitness>
51.9803

> <Gold.PLP.PLP>
-50.2499

> <Gold.PLP.part.hbond>
-2.8878

> <Gold.PLP.part.metal>
0.0000

> <Gold.PLP.part.buried>
-7.4654

> <Gold.PLP.part.nonpolar>
-41.0406

> <Gold.PLP.part.repulsive>
0.4004

> <Gold.PLP.ligand.clash>
0.7713

> <Gold.PLP.ligand.torsion>
1.5049

> <Gold.PLP.Chemscore.Hbond>
1.8320

> <Gold.PLP.Chemscore.CHOScore>
0.0000

> <Gold.PLP.Chemscore.Metal>
0.0000

> <Gold.Chemscore.Hbonds>
donor molecule, donor type, donor heavy atom, donor atom, acceptor molecule, acceptor atom, score
      L1  H    11    34       P1  7957  0.82
      P1  H  8011  8017       L1    11  1.00

> <Gold.PLP.Chemscore.Internal.Correction>
0.0155

> <Gold.Rescore>
     Score         DG    S(hbond)    S(metal)    S(lipo)     H(rot)  DE(clash)    DE(int)     intcor
     15.72     -17.47       1.35        0.00     127.12       2.89       0.28       1.48       ----

> <Gold.Chemscore.Fitness>
15.7174

> <Gold.Chemscore.DG>
-17.4747

> <Gold.Chemscore.ZeroCoef>
-5.4800

> <Gold.Chemscore.Hbond>
1.3541

> <Gold.Chemscore.Metal>
0.0000

> <Gold.Chemscore.Lipo>
127.1177

> <Gold.Chemscore.Internal_Hbond>
0.0000

> <Gold.Chemscore.DEClash>
0.2804

> <Gold.Chemscore.DEInternal>
1.4768

> <Gold.Chemscore.Rot>
2.8910

> <Gold.Chemscore.Internal.Correction>
   9.000000E+99

> <Gold.Chemscore.Hbonds>
donor molecule, donor type, donor heavy atom, donor atom, acceptor molecule, acceptor atom, score
      L1  H    11    34       P1  7957  0.81
      P1  H  8011  8017       L1    11  0.25

> <Gold.Chemscore.Hbond.Weighted>
-4.5228

> <Gold.Chemscore.Metal.Weighted>
-0.0000

> <Gold.Chemscore.Lipo.Weighted>
-14.8728

> <Gold.Chemscore.Internal_Hbond.Weighted>
0.0000

> <Gold.Chemscore.DEClash.Weighted>
0.2804

> <Gold.Chemscore.DEInternal.Weighted>
1.4768

> <Gold.Chemscore.Rot.Weighted>
7.4009

> <Gold.Chemscore.Internal.Correction.Weighted>
   9.000000E+99

> <Gold.Protein.RotatedTorsions>
[ 6907 6896 6895 6894 ] final  -19.41 input  -60.11 | X-H torsion
[ 7974 7965 7964 7962 ] final  -47.53 input  175.53 | X-H torsion
[ 8008 7997 7996 7995 ] final -129.30 input   59.86 | X-H torsion
[ 10167 10162 10161 10158 ] final   71.94 input  -65.29 | X-H torsion
[ 10718 10713 10712 10709 ] final   -6.13 input   66.30 | X-H torsion
[ 10763 10752 10751 10750 ] final   62.17 input  -60.55 | X-H torsion
[ 11005 11000 10999 10996 ] final  157.22 input  -57.11 | X-H torsion

> <Gold.Protein.ActiveResidues>
 VAL166  LYS551  ARG553  GLY616  TRP617  ASP618  TYR619  PRO620  LYS621  CYS622 
 ASP623  PHE694  ASN695  SER759  ASP760  ASP761  ALA762  ILE779  LEU786  VAL792 
 PHE793  MET794  SER795  GLU796  ALA797  LYS798  CYS799  TRP800  GLU811  SER814 

> <Gold.Protein.RotatedAtoms>
  151.2635  135.0661  159.9106 H   0  0  0  0  0  0  0  0  0  0  0  0  # atno 6907 bound_to 6896
  152.5362  134.0206  159.7990 H   0  0  0  0  0  0  0  0  0  0  0  0  # atno 6908 bound_to 6896
  151.0432  133.5638  159.2680 H   0  0  0  0  0  0  0  0  0  0  0  0  # atno 6909 bound_to 6896
  145.9606  140.7483  142.9459 H   0  0  0  0  0  0  0  0  0  0  0  0  # atno 7974 bound_to 7965
  155.2769  140.0442  157.3012 H   0  0  0  0  0  0  0  0  0  0  0  0  # atno 8008 bound_to 7997
  154.5620  140.2349  155.8290 H   0  0  0  0  0  0  0  0  0  0  0  0  # atno 8009 bound_to 7997
  156.2054  140.3014  155.9624 H   0  0  0  0  0  0  0  0  0  0  0  0  # atno 8010 bound_to 7997
  140.0407  144.5392  150.7437 H   0  0  0  0  0  0  0  0  0  0  0  0  # atno 10167 bound_to 10162
  156.7364  130.5196  149.5834 H   0  0  0  0  0  0  0  0  0  0  0  0  # atno 10718 bound_to 10713
  152.9974  135.5474  154.6150 H   0  0  0  0  0  0  0  0  0  0  0  0  # atno 10763 bound_to 10752
  154.5463  135.2823  155.1052 H   0  0  0  0  0  0  0  0  0  0  0  0  # atno 10764 bound_to 10752
  154.2310  135.6433  153.5228 H   0  0  0  0  0  0  0  0  0  0  0  0  # atno 10765 bound_to 10752
  140.1749  134.8517  157.2734 H   0  0  0  0  0  0  0  0  0  0  0  0  # atno 11005 bound_to 11000
  144.6814  140.2585  143.7322 LP  0  0  0  0  0  0  0  0  0  0  0  0  # atno 17320 bound_to 7965
  145.8045  139.1978  143.2029 LP  0  0  0  0  0  0  0  0  0  0  0  0  # atno 17321 bound_to 7965
  140.7261  143.2638  151.4114 LP  0  0  0  0  0  0  0  0  0  0  0  0  # atno 17342 bound_to 10162
  139.6016  144.1284  152.2204 LP  0  0  0  0  0  0  0  0  0  0  0  0  # atno 17343 bound_to 10162
  156.1494  130.6299  151.0575 LP  0  0  0  0  0  0  0  0  0  0  0  0  # atno 17370 bound_to 10713
  157.6837  131.0831  150.7301 LP  0  0  0  0  0  0  0  0  0  0  0  0  # atno 17371 bound_to 10713
  140.2334  134.3881  155.7511 LP  0  0  0  0  0  0  0  0  0  0  0  0  # atno 17394 bound_to 11000
  141.2220  133.7227  156.8677 LP  0  0  0  0  0  0  0  0  0  0  0  0  # atno 17395 bound_to 11000

$$$$
