AV-unprocessed.smi:72|AV-procd|sdf|704|dock7
  -GOLD-   2262017 23D 1   1.00000     0.00000
 Structure written by MMmdl.
 30 31  0  0  0  0  0  0  0  0  2 V2000
  146.2475  139.4710  152.6050 N   0  0  0  0  0  0  0  0  0  0  0  0
  147.3803  139.6723  153.3658 C   0  0  0  0  0  0  0  0  0  0  0  0
  148.4086  138.7561  153.2423 N   0  3  0  0  0  0  0  0  0  0  0  0
  149.5778  138.8159  153.8938 C   0  0  0  0  0  0  0  0  0  0  0  0
  149.8114  139.8325  154.7025 N   0  0  0  0  0  0  0  0  0  0  0  0
  151.1081  139.9615  155.4716 C   0  0  1  0  0  0  0  0  0  0  0  0
  150.8620  139.6738  156.8106 O   0  0  0  0  0  0  0  0  0  0  0  0
  151.0252  138.2776  157.0220 C   0  0  2  0  0  0  0  0  0  0  0  0
  151.1883  137.9890  158.5213 C   0  0  0  0  0  0  0  0  0  0  0  0
  149.9627  138.2132  159.1848 O   0  0  0  0  0  0  0  0  0  0  0  0
  152.2755  137.9758  156.1922 C   0  0  1  0  0  0  0  0  0  0  0  0
  152.2547  136.6312  155.7576 O   0  0  0  0  0  0  0  0  0  0  0  0
  152.1545  138.9263  155.0005 C   0  0  2  0  0  0  0  0  0  0  0  0
  153.3994  139.5359  154.7272 O   0  0  0  0  0  0  0  0  0  0  0  0
  148.7856  140.7839  154.9455 C   0  0  0  0  0  0  0  0  0  0  0  0
  148.9556  141.6870  155.7634 O   0  0  0  0  0  0  0  0  0  0  0  0
  147.5982  140.6384  154.2140 N   0  0  0  0  0  0  0  0  0  0  0  0
  151.4043  141.0047  155.3468 H   0  0  0  0  0  0  0  0  0  0  0  0
  150.1719  137.7339  156.6107 H   0  0  0  0  0  0  0  0  0  0  0  0
  153.1772  138.1786  156.7732 H   0  0  0  0  0  0  0  0  0  0  0  0
  151.8036  138.4069  154.1075 H   0  0  0  0  0  0  0  0  0  0  0  0
  145.4445  140.0835  152.6371 H   0  0  0  0  0  0  0  0  0  0  0  0
  146.1285  138.7020  151.9612 H   0  0  0  0  0  0  0  0  0  0  0  0
  150.2924  138.0170  153.7463 H   0  0  0  0  0  0  0  0  0  0  0  0
  151.4590  136.9439  158.6753 H   0  0  0  0  0  0  0  0  0  0  0  0
  151.9784  138.5979  158.9616 H   0  0  0  0  0  0  0  0  0  0  0  0
  149.5002  137.3910  159.2475 H   0  0  0  0  0  0  0  0  0  0  0  0
  151.9934  136.0854  156.4841 H   0  0  0  0  0  0  0  0  0  0  0  0
  153.5280  139.5573  153.7912 H   0  0  0  0  0  0  0  0  0  0  0  0
  148.2617  137.9787  152.6144 H   0  0  0  0  0  0  0  0  0  0  0  0
  1  2  1  0  0  0  0
  1 22  1  0  0  0  0
  1 23  1  0  0  0  0
  2 17  2  0  0  0  0
  2  3  1  0  0  0  0
  3  4  2  0  0  0  0
  3 30  1  0  0  0  0
  4  5  1  0  0  0  0
  4 24  1  0  0  0  0
  5  6  1  0  0  0  0
  5 15  1  0  0  0  0
  6 18  1  0  0  0  0
  6 13  1  0  0  0  0
  6  7  1  0  0  0  0
  7  8  1  0  0  0  0
  8 19  1  0  0  0  0
  8  9  1  0  0  0  0
  8 11  1  0  0  0  0
  9 10  1  0  0  0  0
  9 25  1  0  0  0  0
  9 26  1  0  0  0  0
 10 27  1  0  0  0  0
 11 20  1  0  0  0  0
 11 12  1  0  0  0  0
 11 13  1  0  0  0  0
 12 28  1  0  0  0  0
 13 21  1  0  0  0  0
 13 14  1  0  0  0  0
 14 29  1  0  0  0  0
 15 16  2  0  0  0  0
 15 17  1  0  0  0  0
M  CHG  1   3   1
M  END
> <s_m_source_file>
AV-unprocessed.smi

> <i_m_source_file_index>
72

> <i_lp_mmshare_version>
43012

> <i_f3d_flags>
0

> <s_epik_input>
W05IMl1jMW5bY0hdbihjKD1PKW4xKVtDQEBIXTJPW0NASF0oW0NIMl1bT0hdKVtDQEBIXShbT0hdKVtDQEhdMltPSF0=

> <s_epik_cmdline>
J2VwaWtfcHl0aG9uJywgJy1waCcsICc3LjAnLCAnLXRuJywgJzgnLCAnLW1hJywgJzIwMCcsICctbWV0YWxfYmluZGluZycsICctaW1hZScsICc8aW5maWxlLm1hZT4nLCAnLW9tYWUnLCAnPG91dGZpbGUubWFlPic=

> <r_lp_tautomer_probability>
4.77166e-05

> <r_epik_Ionization_Penalty>
0.104979

> <r_epik_Ionization_Penalty_Charging>
0.0999619

> <r_epik_Ionization_Penalty_Neutral>
0.00501745

> <r_epik_State_Penalty>
2.51541

> <r_epik_Charging_Adjusted_Penalty>
2.61537

> <i_epik_Tot_Q>
1

> <i_epik_Tot_abs_Q>
1

> <r_epik_Metal_State_Penalty>
3.53763

> <b_epik_Metal_Only>
0

> <s_epik_Chemistry_Notes>
This compound contains an acetal/aminal-like group ( X-CH(R)-Y where X, Y are N, S, or O) that may be acid/base labile, releasing an aldehyde.

> <s_lp_Force_Field>
OPLS_2005

> <r_lp_Energy>
25.3677

> <b_lp_Chiralities_Consistent>
1

> <s_lp_Variant>
AV-unprocessed.smi:72-42

> <Gold.Version>
5.8.1

> <Gold.Id.Protein>
6NUR|6NUR_protein|mol2

> <Gold.PLP.Fitness>
39.8433

> <Gold.PLP.PLP>
-25.2654

> <Gold.PLP.part.hbond>
-7.0000

> <Gold.PLP.part.metal>
0.0000

> <Gold.PLP.part.buried>
-1.8270

> <Gold.PLP.part.nonpolar>
-17.2122

> <Gold.PLP.part.repulsive>
0.9242

> <Gold.PLP.ligand.clash>
0.0000

> <Gold.PLP.ligand.torsion>
0.2025

> <Gold.PLP.Chemscore.Hbond>
4.9120

> <Gold.PLP.Chemscore.CHOScore>
0.0665

> <Gold.PLP.Chemscore.Metal>
0.0000

> <Gold.Chemscore.Hbonds>
donor molecule, donor type, donor heavy atom, donor atom, acceptor molecule, acceptor atom, score
      L1  H     1    22       P1 10175  1.00
      L1  H     3    30       P1  7948  1.92
      P1  H  7997  8010       L1    14  1.00
      P1  H 10752 10764       L1    12  0.99
      L1  C     4    24       P1  7948  0.07

> <Gold.PLP.Chemscore.Internal.Correction>
0.0472

> <Gold.Rescore>
     Score         DG    S(hbond)    S(metal)    S(lipo)     H(rot)  DE(clash)    DE(int)     intcor
      8.62      -9.97       3.77        0.00      20.08       4.08       0.02       1.33       ----

> <Gold.Chemscore.Fitness>
8.6243

> <Gold.Chemscore.DG>
-9.9732

> <Gold.Chemscore.ZeroCoef>
-5.4800

> <Gold.Chemscore.Hbond>
3.7679

> <Gold.Chemscore.Metal>
0.0000

> <Gold.Chemscore.Lipo>
20.0761

> <Gold.Chemscore.Internal_Hbond>
0.0000

> <Gold.Chemscore.DEClash>
0.0199

> <Gold.Chemscore.DEInternal>
1.3290

> <Gold.Chemscore.Rot>
4.0783

> <Gold.Chemscore.Internal.Correction>
   9.000000E+99

> <Gold.Chemscore.Hbonds>
donor molecule, donor type, donor heavy atom, donor atom, acceptor molecule, acceptor atom, score
      L1  H     1    22       P1 10175  0.93
      L1  H     3    30       P1  7948  0.89
      P1  H  7997  8010       L1    14  0.96
      P1  H 10752 10764       L1    12  0.32

> <Gold.Chemscore.Hbond.Weighted>
-12.5847

> <Gold.Chemscore.Metal.Weighted>
-0.0000

> <Gold.Chemscore.Lipo.Weighted>
-2.3489

> <Gold.Chemscore.Internal_Hbond.Weighted>
0.0000

> <Gold.Chemscore.DEClash.Weighted>
0.0199

> <Gold.Chemscore.DEInternal.Weighted>
1.3290

> <Gold.Chemscore.Rot.Weighted>
10.4404

> <Gold.Chemscore.Internal.Correction.Weighted>
   9.000000E+99

> <Gold.Protein.RotatedTorsions>
[ 6907 6896 6895 6894 ] final  -49.32 input  -60.11 | X-H torsion
[ 7974 7965 7964 7962 ] final  -81.82 input  175.53 | X-H torsion
[ 8008 7997 7996 7995 ] final   95.76 input   59.86 | X-H torsion
[ 10167 10162 10161 10158 ] final  -21.68 input  -65.29 | X-H torsion
[ 10718 10713 10712 10709 ] final  -18.67 input   66.30 | X-H torsion
[ 10763 10752 10751 10750 ] final  -48.49 input  -60.55 | X-H torsion
[ 11005 11000 10999 10996 ] final   95.62 input  -57.11 | X-H torsion

> <Gold.Protein.ActiveResidues>
 VAL166  LYS551  ARG553  GLY616  TRP617  ASP618  TYR619  PRO620  LYS621  CYS622 
 ASP623  PHE694  ASN695  SER759  ASP760  ASP761  ALA762  ILE779  LEU786  VAL792 
 PHE793  MET794  SER795  GLU796  ALA797  LYS798  CYS799  TRP800  GLU811  SER814 

> <Gold.Protein.RotatedAtoms>
  150.8816  134.8208  159.7229 H   0  0  0  0  0  0  0  0  0  0  0  0  # atno 6907 bound_to 6896
  152.4782  134.4787  159.9668 H   0  0  0  0  0  0  0  0  0  0  0  0  # atno 6908 bound_to 6896
  151.4861  133.3497  159.2881 H   0  0  0  0  0  0  0  0  0  0  0  0  # atno 6909 bound_to 6896
  145.5415  140.9509  143.1548 H   0  0  0  0  0  0  0  0  0  0  0  0  # atno 7974 bound_to 7965
  156.0724  140.3282  155.7592 H   0  0  0  0  0  0  0  0  0  0  0  0  # atno 8008 bound_to 7997
  155.5285  140.0591  157.2911 H   0  0  0  0  0  0  0  0  0  0  0  0  # atno 8009 bound_to 7997
  154.4537  140.1931  156.0460 H   0  0  0  0  0  0  0  0  0  0  0  0  # atno 8010 bound_to 7997
  140.7283  143.4605  151.0386 H   0  0  0  0  0  0  0  0  0  0  0  0  # atno 10167 bound_to 10162
  156.5563  130.4714  149.6428 H   0  0  0  0  0  0  0  0  0  0  0  0  # atno 10718 bound_to 10713
  154.0786  135.6594  153.4834 H   0  0  0  0  0  0  0  0  0  0  0  0  # atno 10763 bound_to 10752
  153.0364  135.5174  154.7496 H   0  0  0  0  0  0  0  0  0  0  0  0  # atno 10764 bound_to 10752
  154.6584  135.3011  154.9866 H   0  0  0  0  0  0  0  0  0  0  0  0  # atno 10765 bound_to 10752
  139.8787  134.8908  156.4037 H   0  0  0  0  0  0  0  0  0  0  0  0  # atno 11005 bound_to 11000
  144.7574  139.7040  143.7248 LP  0  0  0  0  0  0  0  0  0  0  0  0  # atno 17320 bound_to 7965
  146.1977  139.5254  142.9763 LP  0  0  0  0  0  0  0  0  0  0  0  0  # atno 17321 bound_to 7965
  139.8289  143.7718  152.3179 LP  0  0  0  0  0  0  0  0  0  0  0  0  # atno 17342 bound_to 10162
  139.7826  144.7439  151.0066 LP  0  0  0  0  0  0  0  0  0  0  0  0  # atno 17343 bound_to 10162
  156.2839  130.7086  151.1918 LP  0  0  0  0  0  0  0  0  0  0  0  0  # atno 17370 bound_to 10713
  157.7377  131.0548  150.5336 LP  0  0  0  0  0  0  0  0  0  0  0  0  # atno 17371 bound_to 10713
  140.9249  133.7619  155.9952 LP  0  0  0  0  0  0  0  0  0  0  0  0  # atno 17394 bound_to 11000
  140.8397  134.3080  157.5318 LP  0  0  0  0  0  0  0  0  0  0  0  0  # atno 17395 bound_to 11000

$$$$
