AV-unprocessed.smi:254|AV-procd|sdf|1946|dock3
  -GOLD-   2262021 73D 1   1.00000     0.00000
 Structure written by MMmdl.
 50 53  0  0  0  0  0  0  0  0  1 V2000
  153.1106  141.9487  160.6480 O   0  0  0  0  0  0  0  0  0  0  0  0
  152.5503  141.8037  159.5627 C   0  0  0  0  0  0  0  0  0  0  0  0
  152.1336  140.4490  159.0196 C   0  0  0  0  0  0  0  0  0  0  0  0
  151.5224  140.8236  157.7502 N   0  0  0  0  0  0  0  0  0  0  0  0
  150.9423  139.9264  156.9116 C   0  0  0  0  0  0  0  0  0  0  0  0
  150.8970  140.2251  155.5866 N   0  0  0  0  0  0  0  0  0  0  0  0
  150.3362  139.3801  154.7177 C   0  0  0  0  0  0  0  0  0  0  0  0
  149.7697  138.1968  154.9543 N   0  0  0  0  0  0  0  0  0  0  0  0
  149.8117  137.8840  156.2806 C   0  0  0  0  0  0  0  0  0  0  0  0
  150.3694  138.6845  157.3197 C   0  0  0  0  0  0  0  0  0  0  0  0
  150.2113  138.0345  158.5388 N   0  0  0  0  0  0  0  0  0  0  0  0
  149.5994  136.9225  158.2387 C   0  0  0  0  0  0  0  0  0  0  0  0
  149.3345  136.7410  156.9006 N   0  0  0  0  0  0  0  0  0  0  0  0
  148.6685  135.6010  156.2859 C   0  0  0  0  0  0  0  0  0  0  0  0
  149.6176  134.6392  155.5191 C   0  0  1  0  0  0  0  0  0  0  0  0
  150.8220  134.1924  156.3808 C   0  0  0  0  0  0  0  0  0  0  0  0
  151.7385  135.2516  156.5592 O   0  0  0  0  0  0  0  0  0  0  0  0
  148.8672  133.4185  154.9236 C   0  0  2  0  0  0  0  0  0  0  0  0
  149.7599  132.3393  154.3339 C   0  0  0  0  0  0  0  0  0  0  0  0
  148.7957  131.5662  153.4401 C   0  0  0  0  0  0  0  0  0  0  0  0
  147.8295  132.5138  153.0008 O   0  0  0  0  0  0  0  0  0  0  0  0
  148.0005  133.7409  153.7010 C   0  0  0  0  0  0  0  0  0  0  0  0
  151.5327  142.2628  157.5283 C   0  0  0  0  0  0  0  0  0  0  0  0
  152.2151  142.7745  158.7053 N   0  0  0  0  0  0  0  0  0  0  0  0
  152.4330  144.2088  158.8796 C   0  0  0  0  0  0  0  0  0  0  0  0
  151.6129  144.7899  160.0451 C   0  0  0  0  0  0  0  0  0  0  0  0
  151.7991  146.1083  160.0906 F   0  0  0  0  0  0  0  0  0  0  0  0
  150.3112  144.5526  159.8852 F   0  0  0  0  0  0  0  0  0  0  0  0
  152.0154  144.2641  161.2020 F   0  0  0  0  0  0  0  0  0  0  0  0
  153.0006  139.8039  158.8742 H   0  0  0  0  0  0  0  0  0  0  0  0
  151.4184  139.9666  159.6871 H   0  0  0  0  0  0  0  0  0  0  0  0
  150.3435  139.6977  153.6854 H   0  0  0  0  0  0  0  0  0  0  0  0
  149.3280  136.1999  158.9936 H   0  0  0  0  0  0  0  0  0  0  0  0
  148.1249  135.0647  157.0636 H   0  0  0  0  0  0  0  0  0  0  0  0
  147.9003  135.9803  155.6113 H   0  0  0  0  0  0  0  0  0  0  0  0
  150.0211  135.2038  154.6769 H   0  0  0  0  0  0  0  0  0  0  0  0
  150.5015  133.8177  157.3530 H   0  0  0  0  0  0  0  0  0  0  0  0
  151.3682  133.3836  155.8972 H   0  0  0  0  0  0  0  0  0  0  0  0
  151.2566  136.0257  156.8096 H   0  0  0  0  0  0  0  0  0  0  0  0
  148.2428  132.9559  155.6890 H   0  0  0  0  0  0  0  0  0  0  0  0
  150.5512  132.7864  153.7301 H   0  0  0  0  0  0  0  0  0  0  0  0
  150.2234  131.7010  155.0864 H   0  0  0  0  0  0  0  0  0  0  0  0
  149.2998  131.0899  152.5989 H   0  0  0  0  0  0  0  0  0  0  0  0
  148.2844  130.7911  154.0121 H   0  0  0  0  0  0  0  0  0  0  0  0
  147.0363  134.1736  153.9651 H   0  0  0  0  0  0  0  0  0  0  0  0
  148.5120  134.4422  153.0401 H   0  0  0  0  0  0  0  0  0  0  0  0
  152.0838  142.5202  156.6228 H   0  0  0  0  0  0  0  0  0  0  0  0
  150.5189  142.6616  157.4678 H   0  0  0  0  0  0  0  0  0  0  0  0
  153.4949  144.3861  159.0549 H   0  0  0  0  0  0  0  0  0  0  0  0
  152.1873  144.7300  157.9530 H   0  0  0  0  0  0  0  0  0  0  0  0
  1  2  2  0  0  0  0
  2 24  1  0  0  0  0
  2  3  1  0  0  0  0
  3  4  1  0  0  0  0
  3 30  1  0  0  0  0
  3 31  1  0  0  0  0
  4  5  1  0  0  0  0
  4 23  1  0  0  0  0
  5 10  1  0  0  0  0
  5  6  2  0  0  0  0
  6  7  1  0  0  0  0
  7  8  2  0  0  0  0
  7 32  1  0  0  0  0
  8  9  1  0  0  0  0
  9 13  1  0  0  0  0
  9 10  2  0  0  0  0
 10 11  1  0  0  0  0
 11 12  2  0  0  0  0
 12 13  1  0  0  0  0
 12 33  1  0  0  0  0
 13 14  1  0  0  0  0
 14 15  1  0  0  0  0
 14 34  1  0  0  0  0
 14 35  1  0  0  0  0
 15 16  1  0  0  0  0
 15 18  1  0  0  0  0
 15 36  1  0  0  0  0
 16 17  1  0  0  0  0
 16 37  1  0  0  0  0
 16 38  1  0  0  0  0
 17 39  1  0  0  0  0
 18 22  1  0  0  0  0
 18 19  1  0  0  0  0
 18 40  1  0  0  0  0
 19 20  1  0  0  0  0
 19 41  1  0  0  0  0
 19 42  1  0  0  0  0
 20 21  1  0  0  0  0
 20 43  1  0  0  0  0
 20 44  1  0  0  0  0
 21 22  1  0  0  0  0
 22 45  1  0  0  0  0
 22 46  1  0  0  0  0
 23 24  1  0  0  0  0
 23 47  1  0  0  0  0
 23 48  1  0  0  0  0
 24 25  1  0  0  0  0
 25 26  1  0  0  0  0
 25 49  1  0  0  0  0
 25 50  1  0  0  0  0
 26 27  1  0  0  0  0
 26 28  1  0  0  0  0
 26 29  1  0  0  0  0
M  END
> <s_m_source_file>
AV-unprocessed.smi

> <i_m_source_file_index>
254

> <i_lp_mmshare_version>
43012

> <i_f3d_flags>
0

> <s_epik_input>
RkMoRikoRilbQ0gyXU4xW0NIMl1OKFtDSDJdQzE9TyljKG5bY0hdbjIpYyhjMjMpbltjSF1uM1tDSDJdW0NASF0oW0NIMl1bT0hdKVtDQEBIXTRbQ0gyXVtDSDJdT1tDSDJdNA==

> <s_epik_cmdline>
J2VwaWtfcHl0aG9uJywgJy1waCcsICc3LjAnLCAnLXRuJywgJzgnLCAnLW1hJywgJzIwMCcsICctbWV0YWxfYmluZGluZycsICctaW1hZScsICc8aW5maWxlLm1hZT4nLCAnLW9tYWUnLCAnPG91dGZpbGUubWFlPic=

> <r_lp_tautomer_probability>
1

> <r_epik_Ionization_Penalty>
0.000292924

> <r_epik_Ionization_Penalty_Charging>
0

> <r_epik_Ionization_Penalty_Neutral>
0.000292924

> <r_epik_State_Penalty>
-0

> <r_epik_Charging_Adjusted_Penalty>
0

> <i_epik_Tot_Q>
0

> <i_epik_Tot_abs_Q>
0

> <r_epik_Metal_State_Penalty>
-0

> <b_epik_Metal_Only>
0

> <s_epik_Chemistry_Notes>
This compound contains an acetal/aminal-like group ( X-CH(R)-Y where X, Y are N, S, or O) that may be acid/base labile, releasing an aldehyde.

> <s_lp_Force_Field>
OPLS_2005

> <r_lp_Energy>
38.5559

> <b_lp_Chiralities_Consistent>
1

> <s_lp_Variant>
AV-unprocessed.smi:254-2

> <Gold.Version>
5.8.1

> <Gold.Id.Protein>
6NUR|6NUR_protein|mol2

> <Gold.PLP.Fitness>
53.8313

> <Gold.PLP.PLP>
-50.0317

> <Gold.PLP.part.hbond>
-1.3496

> <Gold.PLP.part.metal>
0.0000

> <Gold.PLP.part.buried>
-7.0271

> <Gold.PLP.part.nonpolar>
-41.2161

> <Gold.PLP.part.repulsive>
0.2884

> <Gold.PLP.ligand.clash>
0.0000

> <Gold.PLP.ligand.torsion>
0.9449

> <Gold.PLP.Chemscore.Hbond>
0.9920

> <Gold.PLP.Chemscore.CHOScore>
0.7353

> <Gold.PLP.Chemscore.Metal>
0.0000

> <Gold.Chemscore.Hbonds>
donor molecule, donor type, donor heavy atom, donor atom, acceptor molecule, acceptor atom, score
      P1  H 10752 10764       L1    17  0.81
      L1  C     7    32       P1  7957  0.72

> <Gold.PLP.Chemscore.Internal.Correction>
0.5073

> <Gold.Rescore>
     Score         DG    S(hbond)    S(metal)    S(lipo)     H(rot)  DE(clash)    DE(int)     intcor
      3.33      -8.07       0.94        0.00      67.36       3.30       0.05       4.69       ----

> <Gold.Chemscore.Fitness>
3.3270

> <Gold.Chemscore.DG>
-8.0658

> <Gold.Chemscore.ZeroCoef>
-5.4800

> <Gold.Chemscore.Hbond>
0.9419

> <Gold.Chemscore.Metal>
0.0000

> <Gold.Chemscore.Lipo>
67.3622

> <Gold.Chemscore.Internal_Hbond>
0.0000

> <Gold.Chemscore.DEClash>
0.0461

> <Gold.Chemscore.DEInternal>
4.6927

> <Gold.Chemscore.Rot>
3.2974

> <Gold.Chemscore.Internal.Correction>
   9.000000E+99

> <Gold.Chemscore.Hbonds>
donor molecule, donor type, donor heavy atom, donor atom, acceptor molecule, acceptor atom, score
      P1  H 10752 10764       L1    17  0.60

> <Gold.Chemscore.Hbond.Weighted>
-3.1458

> <Gold.Chemscore.Metal.Weighted>
-0.0000

> <Gold.Chemscore.Lipo.Weighted>
-7.8814

> <Gold.Chemscore.Internal_Hbond.Weighted>
0.0000

> <Gold.Chemscore.DEClash.Weighted>
0.0461

> <Gold.Chemscore.DEInternal.Weighted>
4.6927

> <Gold.Chemscore.Rot.Weighted>
8.4414

> <Gold.Chemscore.Internal.Correction.Weighted>
   9.000000E+99

> <Gold.Protein.RotatedTorsions>
[ 6907 6896 6895 6894 ] final  -22.71 input  -60.11 | X-H torsion
[ 7974 7965 7964 7962 ] final   19.89 input  175.53 | X-H torsion
[ 8008 7997 7996 7995 ] final  -90.32 input   59.86 | X-H torsion
[ 10167 10162 10161 10158 ] final  177.73 input  -65.29 | X-H torsion
[ 10718 10713 10712 10709 ] final  126.53 input   66.30 | X-H torsion
[ 10763 10752 10751 10750 ] final  -39.78 input  -60.55 | X-H torsion
[ 11005 11000 10999 10996 ] final  120.88 input  -57.11 | X-H torsion

> <Gold.Protein.ActiveResidues>
 VAL166  LYS551  ARG553  GLY616  TRP617  ASP618  TYR619  PRO620  LYS621  CYS622 
 ASP623  PHE694  ASN695  SER759  ASP760  ASP761  ALA762  ILE779  LEU786  VAL792 
 PHE793  MET794  SER795  GLU796  ALA797  LYS798  CYS799  TRP800  GLU811  SER814 

> <Gold.Protein.RotatedAtoms>
  151.2147  135.0495  159.8925 H   0  0  0  0  0  0  0  0  0  0  0  0  # atno 6907 bound_to 6896
  152.5421  134.0706  159.8202 H   0  0  0  0  0  0  0  0  0  0  0  0  # atno 6908 bound_to 6896
  151.0864  133.5302  159.2649 H   0  0  0  0  0  0  0  0  0  0  0  0  # atno 6909 bound_to 6896
  146.2132  139.8247  142.8672 H   0  0  0  0  0  0  0  0  0  0  0  0  # atno 7974 bound_to 7965
  154.6972  140.0532  157.0422 H   0  0  0  0  0  0  0  0  0  0  0  0  # atno 8008 bound_to 7997
  155.0735  140.3202  155.4604 H   0  0  0  0  0  0  0  0  0  0  0  0  # atno 8009 bound_to 7997
  156.2748  140.2077  156.5863 H   0  0  0  0  0  0  0  0  0  0  0  0  # atno 8010 bound_to 7997
  139.5265  144.2763  152.0585 H   0  0  0  0  0  0  0  0  0  0  0  0  # atno 10167 bound_to 10162
  157.5411  131.1097  150.8857 H   0  0  0  0  0  0  0  0  0  0  0  0  # atno 10718 bound_to 10713
  153.9351  135.6767  153.4745 H   0  0  0  0  0  0  0  0  0  0  0  0  # atno 10763 bound_to 10752
  153.0960  135.4851  154.8776 H   0  0  0  0  0  0  0  0  0  0  0  0  # atno 10764 bound_to 10752
  154.7407  135.3160  154.8690 H   0  0  0  0  0  0  0  0  0  0  0  0  # atno 10765 bound_to 10752
  139.9203  134.9636  156.7874 H   0  0  0  0  0  0  0  0  0  0  0  0  # atno 11005 bound_to 11000
  145.3059  141.0207  143.3582 LP  0  0  0  0  0  0  0  0  0  0  0  0  # atno 17320 bound_to 7965
  144.8971  139.4697  143.6650 LP  0  0  0  0  0  0  0  0  0  0  0  0  # atno 17321 bound_to 7965
  140.2221  144.4456  150.6337 LP  0  0  0  0  0  0  0  0  0  0  0  0  # atno 17342 bound_to 10162
  140.6412  143.2204  151.6286 LP  0  0  0  0  0  0  0  0  0  0  0  0  # atno 17343 bound_to 10162
  156.9409  130.5384  149.5280 LP  0  0  0  0  0  0  0  0  0  0  0  0  # atno 17370 bound_to 10713
  156.0498  130.5569  150.8963 LP  0  0  0  0  0  0  0  0  0  0  0  0  # atno 17371 bound_to 10713
  140.6495  133.9745  155.7748 LP  0  0  0  0  0  0  0  0  0  0  0  0  # atno 17394 bound_to 11000
  141.0718  134.0195  157.3516 LP  0  0  0  0  0  0  0  0  0  0  0  0  # atno 17395 bound_to 11000

$$$$
