AV-unprocessed.smi:1258|AV-procd|sdf|5289|dock5
  -GOLD-   22720 4413D 1   1.00000     0.00000
 Structure written by MMmdl.
 33 34  0  0  0  0  0  0  0  0  1 V2000
  153.1109  142.4895  162.0470 C   0  0  0  0  0  0  0  0  0  0  0  0
  152.8911  143.2473  160.7301 C   0  0  2  0  0  0  0  0  0  0  0  0
  151.9851  144.4769  160.9321 C   0  0  0  0  0  0  0  0  0  0  0  0
  151.7647  145.2355  159.6143 C   0  0  0  0  0  0  0  0  0  0  0  0
  151.1915  144.3112  158.5294 C   0  0  0  0  0  0  0  0  0  0  0  0
  152.0903  143.0805  158.3109 C   0  0  2  0  0  0  0  0  0  0  0  0
  151.4854  142.2062  157.3101 N   0  0  0  0  0  0  0  0  0  0  0  0
  151.8245  140.9268  157.0899 C   0  0  0  0  0  0  0  0  0  0  0  0
  152.6922  140.3392  157.7378 O   0  0  0  0  0  0  0  0  0  0  0  0
  151.0579  140.2216  155.9643 C   0  0  0  0  0  0  0  0  0  0  0  0
  151.5718  138.8930  155.6785 N   0  0  0  0  0  0  0  0  0  0  0  0
  151.9258  138.3180  154.5273 C   0  0  0  0  0  0  0  0  0  0  0  0
  152.3447  137.0752  154.7100 N   0  0  0  0  0  0  0  0  0  0  0  0
  152.2288  136.9022  156.0791 N   0  0  0  0  0  0  0  0  0  0  0  0
  151.7711  137.9776  156.6593 N   0  0  0  0  0  0  0  0  0  0  0  0
  152.3141  142.3250  159.6380 C   0  0  0  0  0  0  0  0  0  0  0  0
  152.1709  142.1088  162.4476 H   0  0  0  0  0  0  0  0  0  0  0  0
  153.5573  143.1366  162.8025 H   0  0  0  0  0  0  0  0  0  0  0  0
  153.7801  141.6408  161.9040 H   0  0  0  0  0  0  0  0  0  0  0  0
  153.8656  143.6007  160.3894 H   0  0  0  0  0  0  0  0  0  0  0  0
  151.0213  144.1639  161.3363 H   0  0  0  0  0  0  0  0  0  0  0  0
  152.4254  145.1483  161.6702 H   0  0  0  0  0  0  0  0  0  0  0  0
  151.0921  146.0777  159.7784 H   0  0  0  0  0  0  0  0  0  0  0  0
  152.7106  145.6577  159.2726 H   0  0  0  0  0  0  0  0  0  0  0  0
  150.1894  143.9923  158.8205 H   0  0  0  0  0  0  0  0  0  0  0  0
  151.0818  144.8655  157.5964 H   0  0  0  0  0  0  0  0  0  0  0  0
  153.0550  143.4291  157.9365 H   0  0  0  0  0  0  0  0  0  0  0  0
  150.7621  142.6105  156.7329 H   0  0  0  0  0  0  0  0  0  0  0  0
  150.0062  140.1323  156.2392 H   0  0  0  0  0  0  0  0  0  0  0  0
  151.1052  140.8265  155.0575 H   0  0  0  0  0  0  0  0  0  0  0  0
  151.8755  138.8051  153.5645 H   0  0  0  0  0  0  0  0  0  0  0  0
  152.9905  141.4845  159.4774 H   0  0  0  0  0  0  0  0  0  0  0  0
  151.3704  141.8984  159.9817 H   0  0  0  0  0  0  0  0  0  0  0  0
  1  2  1  0  0  0  0
  1 17  1  0  0  0  0
  1 18  1  0  0  0  0
  1 19  1  0  0  0  0
  2 16  1  0  0  0  0
  2  3  1  0  0  0  0
  2 20  1  0  0  0  0
  3  4  1  0  0  0  0
  3 21  1  0  0  0  0
  3 22  1  0  0  0  0
  4  5  1  0  0  0  0
  4 23  1  0  0  0  0
  4 24  1  0  0  0  0
  5  6  1  0  0  0  0
  5 25  1  0  0  0  0
  5 26  1  0  0  0  0
  6  7  1  0  0  0  0
  6 16  1  0  0  0  0
  6 27  1  0  0  0  0
  7  8  1  0  0  0  0
  7 28  1  0  0  0  0
  8  9  2  0  0  0  0
  8 10  1  0  0  0  0
 10 11  1  0  0  0  0
 10 29  1  0  0  0  0
 10 30  1  0  0  0  0
 11 15  1  0  0  0  0
 11 12  1  0  0  0  0
 12 13  2  0  0  0  0
 12 31  1  0  0  0  0
 13 14  1  0  0  0  0
 14 15  2  0  0  0  0
 16 32  1  0  0  0  0
 16 33  1  0  0  0  0
M  END
> <s_m_source_file>
AV-unprocessed.smi

> <i_m_source_file_index>
1258

> <i_lp_mmshare_version>
43012

> <i_f3d_flags>
0

> <s_epik_input>
W0NIM11bQ0BASF0xW0NIMl1bQ0gyXVtDSDJdW0NASF0oW0NIMl0xKVtOSF1DKD1PKVtDSDJdbjJbY0hdbm5uMg==

> <s_epik_cmdline>
J2VwaWtfcHl0aG9uJywgJy1waCcsICc3LjAnLCAnLXRuJywgJzgnLCAnLW1hJywgJzIwMCcsICctbWV0YWxfYmluZGluZycsICctaW1hZScsICc8aW5maWxlLm1hZT4nLCAnLW9tYWUnLCAnPG91dGZpbGUubWFlPic=

> <r_lp_tautomer_probability>
1

> <r_epik_Ionization_Penalty>
5.03816e-07

> <r_epik_Ionization_Penalty_Charging>
0

> <r_epik_Ionization_Penalty_Neutral>
5.03816e-07

> <r_epik_State_Penalty>
-0

> <r_epik_Charging_Adjusted_Penalty>
0

> <i_epik_Tot_Q>
0

> <i_epik_Tot_abs_Q>
0

> <r_epik_Metal_State_Penalty>
-0

> <b_epik_Metal_Only>
0

> <s_lp_Force_Field>
OPLS_2005

> <r_lp_Energy>
11.1566

> <b_lp_Chiralities_Consistent>
1

> <s_lp_Variant>
AV-unprocessed.smi:1258-3

> <Gold.Version>
5.8.1

> <Gold.Id.Protein>
6NUR|6NUR_protein|mol2

> <Gold.PLP.Fitness>
42.7117

> <Gold.PLP.PLP>
-38.3638

> <Gold.PLP.part.hbond>
-3.0000

> <Gold.PLP.part.metal>
0.0000

> <Gold.PLP.part.buried>
-3.8457

> <Gold.PLP.part.nonpolar>
-30.9490

> <Gold.PLP.part.repulsive>
0.2019

> <Gold.PLP.ligand.clash>
0.0000

> <Gold.PLP.ligand.torsion>
0.3551

> <Gold.PLP.Chemscore.Hbond>
1.6845

> <Gold.PLP.Chemscore.CHOScore>
0.0000

> <Gold.PLP.Chemscore.Metal>
0.0000

> <Gold.Chemscore.Hbonds>
donor molecule, donor type, donor heavy atom, donor atom, acceptor molecule, acceptor atom, score
      P1  H  7997  8008       L1     9  0.93
      P1  H 10752 10765       L1    13  0.72

> <Gold.PLP.Chemscore.Internal.Correction>
0.0045

> <Gold.Rescore>
     Score         DG    S(hbond)    S(metal)    S(lipo)     H(rot)  DE(clash)    DE(int)     intcor
     13.43     -16.79       1.80        0.00      87.20       1.92       0.25       3.11       ----

> <Gold.Chemscore.Fitness>
13.4328

> <Gold.Chemscore.DG>
-16.7875

> <Gold.Chemscore.ZeroCoef>
-5.4800

> <Gold.Chemscore.Hbond>
1.8001

> <Gold.Chemscore.Metal>
0.0000

> <Gold.Chemscore.Lipo>
87.1991

> <Gold.Chemscore.Internal_Hbond>
0.0000

> <Gold.Chemscore.DEClash>
0.2488

> <Gold.Chemscore.DEInternal>
3.1059

> <Gold.Chemscore.Rot>
1.9169

> <Gold.Chemscore.Internal.Correction>
   9.000000E+99

> <Gold.Chemscore.Hbonds>
donor molecule, donor type, donor heavy atom, donor atom, acceptor molecule, acceptor atom, score
      P1  H  7997  8008       L1     9  0.80
      P1  H 10752 10765       L1    13  0.28

> <Gold.Chemscore.Hbond.Weighted>
-6.0125

> <Gold.Chemscore.Metal.Weighted>
-0.0000

> <Gold.Chemscore.Lipo.Weighted>
-10.2023

> <Gold.Chemscore.Internal_Hbond.Weighted>
0.0000

> <Gold.Chemscore.DEClash.Weighted>
0.2488

> <Gold.Chemscore.DEInternal.Weighted>
3.1059

> <Gold.Chemscore.Rot.Weighted>
4.9073

> <Gold.Chemscore.Internal.Correction.Weighted>
   9.000000E+99

> <Gold.Protein.RotatedTorsions>
[ 6907 6896 6895 6894 ] final  152.62 input  -60.11 | X-H torsion
[ 7974 7965 7964 7962 ] final -107.16 input  175.53 | X-H torsion
[ 8008 7997 7996 7995 ] final  -70.11 input   59.86 | X-H torsion
[ 10167 10162 10161 10158 ] final  104.82 input  -65.29 | X-H torsion
[ 10718 10713 10712 10709 ] final -177.49 input   66.30 | X-H torsion
[ 10763 10752 10751 10750 ] final  157.29 input  -60.55 | X-H torsion
[ 11005 11000 10999 10996 ] final   34.83 input  -57.11 | X-H torsion

> <Gold.Protein.ActiveResidues>
 VAL166  LYS551  ARG553  GLY616  TRP617  ASP618  TYR619  PRO620  LYS621  CYS622 
 ASP623  PHE694  ASN695  SER759  ASP760  ASP761  ALA762  ILE779  LEU786  VAL792 
 PHE793  MET794  SER795  GLU796  ALA797  LYS798  CYS799  TRP800  GLU811  SER814 

> <Gold.Protein.RotatedAtoms>
  152.0841  133.4167  159.4514 H   0  0  0  0  0  0  0  0  0  0  0  0  # atno 6907 bound_to 6896
  150.6862  134.2948  159.4691 H   0  0  0  0  0  0  0  0  0  0  0  0  # atno 6908 bound_to 6896
  152.0793  134.9481  160.0624 H   0  0  0  0  0  0  0  0  0  0  0  0  # atno 6909 bound_to 6896
  145.2088  140.9087  143.3326 H   0  0  0  0  0  0  0  0  0  0  0  0  # atno 7974 bound_to 7965
  154.4987  140.0840  156.7752 H   0  0  0  0  0  0  0  0  0  0  0  0  # atno 8008 bound_to 7997
  155.4054  140.3439  155.4241 H   0  0  0  0  0  0  0  0  0  0  0  0  # atno 8009 bound_to 7997
  156.1428  140.1534  156.8881 H   0  0  0  0  0  0  0  0  0  0  0  0  # atno 8010 bound_to 7997
  139.7145  144.7071  151.0973 H   0  0  0  0  0  0  0  0  0  0  0  0  # atno 10167 bound_to 10162
  156.8303  130.9651  151.3107 H   0  0  0  0  0  0  0  0  0  0  0  0  # atno 10718 bound_to 10713
  154.1978  135.2791  155.3001 H   0  0  0  0  0  0  0  0  0  0  0  0  # atno 10763 bound_to 10752
  154.5878  135.5569  153.7251 H   0  0  0  0  0  0  0  0  0  0  0  0  # atno 10764 bound_to 10752
  153.0095  135.6360  154.2117 H   0  0  0  0  0  0  0  0  0  0  0  0  # atno 10765 bound_to 10752
  140.2488  134.3328  155.7898 H   0  0  0  0  0  0  0  0  0  0  0  0  # atno 11005 bound_to 11000
  144.9876  139.3721  143.6231 LP  0  0  0  0  0  0  0  0  0  0  0  0  # atno 17320 bound_to 7965
  146.3402  139.9044  142.8789 LP  0  0  0  0  0  0  0  0  0  0  0  0  # atno 17321 bound_to 7965
  140.7740  143.5249  150.9492 LP  0  0  0  0  0  0  0  0  0  0  0  0  # atno 17342 bound_to 10162
  139.8934  143.6925  152.3142 LP  0  0  0  0  0  0  0  0  0  0  0  0  # atno 17343 bound_to 10162
  157.6410  130.8806  149.9449 LP  0  0  0  0  0  0  0  0  0  0  0  0  # atno 17370 bound_to 10713
  156.0938  130.3661  150.0345 LP  0  0  0  0  0  0  0  0  0  0  0  0  # atno 17371 bound_to 10713
  141.2203  133.7341  156.9004 LP  0  0  0  0  0  0  0  0  0  0  0  0  # atno 17394 bound_to 11000
  140.1579  134.9186  157.2677 LP  0  0  0  0  0  0  0  0  0  0  0  0  # atno 17395 bound_to 11000

$$$$
