AV-unprocessed.smi:2032|AV-procd|sdf|8232|dock3
  -GOLD-   2272010503D 1   1.00000     0.00000
 Structure written by MMmdl.
 42 43  0  0  0  0  0  0  0  0  1 V2000
  143.4460  142.0984  157.0168 C   0  0  0  0  0  0  0  0  0  0  0  0
  144.5672  142.8368  156.2776 C   0  0  1  0  0  0  0  0  0  0  0  0
  145.4630  141.8777  155.4716 C   0  0  0  0  0  0  0  0  0  0  0  0
  146.5018  142.5737  154.7047 N   0  0  0  0  0  0  0  0  0  0  0  0
  147.3426  141.6442  153.9147 C   0  0  2  0  0  0  0  0  0  0  0  0
  146.5274  140.5003  153.2598 C   0  0  0  0  0  0  0  0  0  0  0  0
  148.5068  141.0179  154.7365 C   0  0  0  0  0  0  0  0  0  0  0  0
  149.1856  141.9802  155.6008 N   0  0  0  0  0  0  0  0  0  0  0  0
  150.0492  141.6590  156.5748 C   0  0  0  0  0  0  0  0  0  0  0  0
  150.3692  140.5000  156.8416 O   0  0  0  0  0  0  0  0  0  0  0  0
  150.5031  142.7561  157.2058 N   0  0  0  0  0  0  0  0  0  0  0  0
  151.4292  142.8301  158.2795 C   0  0  0  0  0  0  0  0  0  0  0  0
  151.7108  141.8146  159.1044 N   0  0  0  0  0  0  0  0  0  0  0  0
  152.6580  142.1684  160.0683 C   0  0  0  0  0  0  0  0  0  0  0  0
  153.0911  143.4666  159.9613 C   0  0  0  0  0  0  0  0  0  0  0  0
  152.3219  144.3010  158.6375 S   0  0  0  0  0  0  0  0  0  0  0  0
  145.8418  143.5829  153.8682 C   0  0  0  0  0  0  0  0  0  0  0  0
  144.9352  144.5353  154.6712 C   0  0  1  0  0  0  0  0  0  0  0  0
  144.1858  145.5190  153.7661 C   0  0  0  0  0  0  0  0  0  0  0  0
  143.9729  143.7739  155.3893 O   0  0  0  0  0  0  0  0  0  0  0  0
  143.8526  141.3704  157.7189 H   0  0  0  0  0  0  0  0  0  0  0  0
  142.7971  141.5664  156.3203 H   0  0  0  0  0  0  0  0  0  0  0  0
  142.8276  142.7957  157.5822 H   0  0  0  0  0  0  0  0  0  0  0  0
  145.1729  143.3745  157.0092 H   0  0  0  0  0  0  0  0  0  0  0  0
  145.9135  141.1893  156.1848 H   0  0  0  0  0  0  0  0  0  0  0  0
  144.8461  141.2796  154.7989 H   0  0  0  0  0  0  0  0  0  0  0  0
  147.7924  142.2158  153.1012 H   0  0  0  0  0  0  0  0  0  0  0  0
  147.1601  139.7862  152.7340 H   0  0  0  0  0  0  0  0  0  0  0  0
  145.8325  140.8697  152.5069 H   0  0  0  0  0  0  0  0  0  0  0  0
  145.9556  139.9454  154.0043 H   0  0  0  0  0  0  0  0  0  0  0  0
  148.1705  140.2057  155.3787 H   0  0  0  0  0  0  0  0  0  0  0  0
  149.2465  140.5863  154.0615 H   0  0  0  0  0  0  0  0  0  0  0  0
  148.9767  142.9559  155.4480 H   0  0  0  0  0  0  0  0  0  0  0  0
  150.1463  143.6421  156.8795 H   0  0  0  0  0  0  0  0  0  0  0  0
  152.9676  141.4320  160.7951 H   0  0  0  0  0  0  0  0  0  0  0  0
  153.8128  143.9801  160.5789 H   0  0  0  0  0  0  0  0  0  0  0  0
  146.5770  144.2045  153.3620 H   0  0  0  0  0  0  0  0  0  0  0  0
  145.2551  143.0896  153.0913 H   0  0  0  0  0  0  0  0  0  0  0  0
  145.5399  145.1031  155.3806 H   0  0  0  0  0  0  0  0  0  0  0  0
  144.8807  146.1380  153.1980 H   0  0  0  0  0  0  0  0  0  0  0  0
  143.5523  146.1839  154.3537 H   0  0  0  0  0  0  0  0  0  0  0  0
  143.5479  144.9927  153.0554 H   0  0  0  0  0  0  0  0  0  0  0  0
  1  2  1  0  0  0  0
  1 21  1  0  0  0  0
  1 22  1  0  0  0  0
  1 23  1  0  0  0  0
  2 20  1  0  0  0  0
  2  3  1  0  0  0  0
  2 24  1  0  0  0  0
  3  4  1  0  0  0  0
  3 25  1  0  0  0  0
  3 26  1  0  0  0  0
  4  5  1  0  0  0  0
  4 17  1  0  0  0  0
  5  6  1  0  0  0  0
  5  7  1  0  0  0  0
  5 27  1  0  0  0  0
  6 28  1  0  0  0  0
  6 29  1  0  0  0  0
  6 30  1  0  0  0  0
  7  8  1  0  0  0  0
  7 31  1  0  0  0  0
  7 32  1  0  0  0  0
  8  9  1  0  0  0  0
  8 33  1  0  0  0  0
  9 10  2  0  0  0  0
  9 11  1  0  0  0  0
 11 12  1  0  0  0  0
 11 34  1  0  0  0  0
 12 16  1  0  0  0  0
 12 13  2  0  0  0  0
 13 14  1  0  0  0  0
 14 15  2  0  0  0  0
 14 35  1  0  0  0  0
 15 16  1  0  0  0  0
 15 36  1  0  0  0  0
 17 18  1  0  0  0  0
 17 37  1  0  0  0  0
 17 38  1  0  0  0  0
 18 19  1  0  0  0  0
 18 20  1  0  0  0  0
 18 39  1  0  0  0  0
 19 40  1  0  0  0  0
 19 41  1  0  0  0  0
 19 42  1  0  0  0  0
M  END
> <s_m_source_file>
AV-unprocessed.smi

> <i_m_source_file_index>
2032

> <i_lp_mmshare_version>
43012

> <i_f3d_flags>
0

> <s_epik_input>
W0NIM11bQ0BASF0xW0NIMl1OKFtDSDJdW0NASF0oTzEpW0NIM10pW0NASF0oW0NIM10pW0NIMl1bTkhdQyg9TylbTkhdYzJuW2NIXVtjSF1zMg==

> <s_epik_cmdline>
J2VwaWtfcHl0aG9uJywgJy1waCcsICc3LjAnLCAnLXRuJywgJzgnLCAnLW1hJywgJzIwMCcsICctbWV0YWxfYmluZGluZycsICctaW1hZScsICc8aW5maWxlLm1hZT4nLCAnLW9tYWUnLCAnPG91dGZpbGUubWFlPic=

> <r_lp_tautomer_probability>
0.999

> <r_epik_Ionization_Penalty>
0.219202

> <r_epik_Ionization_Penalty_Charging>
0

> <r_epik_Ionization_Penalty_Neutral>
0.219202

> <r_epik_State_Penalty>
0.209349

> <r_epik_Charging_Adjusted_Penalty>
0.209349

> <i_epik_Tot_Q>
0

> <i_epik_Tot_abs_Q>
0

> <r_epik_Metal_State_Penalty>
0.247737

> <b_epik_Metal_Only>
0

> <s_lp_Force_Field>
OPLS_2005

> <r_lp_Energy>
24.8092

> <b_lp_Chiralities_Consistent>
1

> <s_lp_Variant>
AV-unprocessed.smi:2032-2

> <Gold.Version>
5.8.1

> <Gold.Id.Protein>
6NUR|6NUR_protein|mol2

> <Gold.PLP.Fitness>
44.8393

> <Gold.PLP.PLP>
-40.3213

> <Gold.PLP.part.hbond>
-2.0000

> <Gold.PLP.part.metal>
0.0000

> <Gold.PLP.part.buried>
-7.0536

> <Gold.PLP.part.nonpolar>
-32.4091

> <Gold.PLP.part.repulsive>
0.5250

> <Gold.PLP.ligand.clash>
0.0000

> <Gold.PLP.ligand.torsion>
0.7473

> <Gold.PLP.Chemscore.Hbond>
1.9913

> <Gold.PLP.Chemscore.CHOScore>
0.0000

> <Gold.PLP.Chemscore.Metal>
0.0000

> <Gold.Chemscore.Hbonds>
donor molecule, donor type, donor heavy atom, donor atom, acceptor molecule, acceptor atom, score
      L1  H     8    33       P1  8028  1.00
      L1  H    11    34       P1  8028  0.96

> <Gold.PLP.Chemscore.Internal.Correction>
0.0389

> <Gold.Rescore>
     Score         DG    S(hbond)    S(metal)    S(lipo)     H(rot)  DE(clash)    DE(int)     intcor
     16.58     -18.32       1.94        0.00      88.66       1.57       0.02       1.71       ----

> <Gold.Chemscore.Fitness>
16.5800

> <Gold.Chemscore.DG>
-18.3172

> <Gold.Chemscore.ZeroCoef>
-5.4800

> <Gold.Chemscore.Hbond>
1.9448

> <Gold.Chemscore.Metal>
0.0000

> <Gold.Chemscore.Lipo>
88.6619

> <Gold.Chemscore.Internal_Hbond>
0.0000

> <Gold.Chemscore.DEClash>
0.0229

> <Gold.Chemscore.DEInternal>
1.7143

> <Gold.Chemscore.Rot>
1.5750

> <Gold.Chemscore.Internal.Correction>
   9.000000E+99

> <Gold.Chemscore.Hbonds>
donor molecule, donor type, donor heavy atom, donor atom, acceptor molecule, acceptor atom, score
      L1  H     8    33       P1  8028  1.00
      L1  H    11    34       P1  8028  0.87

> <Gold.Chemscore.Hbond.Weighted>
-6.4956

> <Gold.Chemscore.Metal.Weighted>
-0.0000

> <Gold.Chemscore.Lipo.Weighted>
-10.3734

> <Gold.Chemscore.Internal_Hbond.Weighted>
0.0000

> <Gold.Chemscore.DEClash.Weighted>
0.0229

> <Gold.Chemscore.DEInternal.Weighted>
1.7143

> <Gold.Chemscore.Rot.Weighted>
4.0319

> <Gold.Chemscore.Internal.Correction.Weighted>
   9.000000E+99

> <Gold.Protein.RotatedTorsions>
[ 6907 6896 6895 6894 ] final -174.06 input  -60.11 | X-H torsion
[ 7974 7965 7964 7962 ] final  -30.59 input  175.53 | X-H torsion
[ 8008 7997 7996 7995 ] final   -7.39 input   59.86 | X-H torsion
[ 10167 10162 10161 10158 ] final  -75.70 input  -65.29 | X-H torsion
[ 10718 10713 10712 10709 ] final   65.85 input   66.30 | X-H torsion
[ 10763 10752 10751 10750 ] final -175.94 input  -60.55 | X-H torsion
[ 11005 11000 10999 10996 ] final  -45.23 input  -57.11 | X-H torsion

> <Gold.Protein.ActiveResidues>
 VAL166  LYS551  ARG553  GLY616  TRP617  ASP618  TYR619  PRO620  LYS621  CYS622 
 ASP623  PHE694  ASN695  SER759  ASP760  ASP761  ALA762  ILE779  LEU786  VAL792 
 PHE793  MET794  SER795  GLU796  ALA797  LYS798  CYS799  TRP800  GLU811  SER814 

> <Gold.Protein.RotatedAtoms>
  151.5663  133.3396  159.2980 H   0  0  0  0  0  0  0  0  0  0  0  0  # atno 6907 bound_to 6896
  150.8393  134.7682  159.6930 H   0  0  0  0  0  0  0  0  0  0  0  0  # atno 6908 bound_to 6896
  152.4464  134.5493  159.9913 H   0  0  0  0  0  0  0  0  0  0  0  0  # atno 6909 bound_to 6896
  146.1132  140.5559  142.8769 H   0  0  0  0  0  0  0  0  0  0  0  0  # atno 7974 bound_to 7965
  154.5843  140.2408  155.8010 H   0  0  0  0  0  0  0  0  0  0  0  0  # atno 8008 bound_to 7997
  156.2202  140.3000  155.9889 H   0  0  0  0  0  0  0  0  0  0  0  0  # atno 8009 bound_to 7997
  155.2486  140.0410  157.2974 H   0  0  0  0  0  0  0  0  0  0  0  0  # atno 8010 bound_to 7997
  140.4920  143.2378  151.7891 H   0  0  0  0  0  0  0  0  0  0  0  0  # atno 10167 bound_to 10162
  157.6132  130.9236  150.0031 H   0  0  0  0  0  0  0  0  0  0  0  0  # atno 10718 bound_to 10713
  154.5784  135.2834  155.0758 H   0  0  0  0  0  0  0  0  0  0  0  0  # atno 10763 bound_to 10752
  154.2103  135.6409  153.5117 H   0  0  0  0  0  0  0  0  0  0  0  0  # atno 10764 bound_to 10752
  153.0080  135.5490  154.6430 H   0  0  0  0  0  0  0  0  0  0  0  0  # atno 10765 bound_to 10752
  141.0502  133.6746  156.2984 H   0  0  0  0  0  0  0  0  0  0  0  0  # atno 11005 bound_to 11000
  144.7529  140.5236  143.6789 LP  0  0  0  0  0  0  0  0  0  0  0  0  # atno 17320 bound_to 7965
  145.5622  139.1480  143.3335 LP  0  0  0  0  0  0  0  0  0  0  0  0  # atno 17321 bound_to 7965
  139.4853  144.4636  151.9511 LP  0  0  0  0  0  0  0  0  0  0  0  0  # atno 17342 bound_to 10162
  140.3723  144.2839  150.5918 LP  0  0  0  0  0  0  0  0  0  0  0  0  # atno 17343 bound_to 10162
  156.1243  130.3645  149.9836 LP  0  0  0  0  0  0  0  0  0  0  0  0  # atno 17370 bound_to 10713
  156.7910  130.9256  151.3646 LP  0  0  0  0  0  0  0  0  0  0  0  0  # atno 17371 bound_to 10713
  140.6069  134.5498  157.5527 LP  0  0  0  0  0  0  0  0  0  0  0  0  # atno 17394 bound_to 11000
  139.9344  134.7902  156.0842 LP  0  0  0  0  0  0  0  0  0  0  0  0  # atno 17395 bound_to 11000

$$$$
