AV-unprocessed.smi:1554|AV-procd|sdf|6240|dock2
  -GOLD-   22720 6423D 1   1.00000     0.00000
 Structure written by MMmdl.
 47 49  0  0  0  0  0  0  0  0  1 V2000
  152.9324  142.7109  161.4461 C   0  0  0  0  0  0  0  0  0  0  0  0
  152.3597  142.4320  160.0677 C   0  0  0  0  0  0  0  0  0  0  0  0
  152.7397  141.2508  159.3915 C   0  0  0  0  0  0  0  0  0  0  0  0
  152.2299  140.9548  158.1082 C   0  0  0  0  0  0  0  0  0  0  0  0
  152.4638  139.8733  157.2763 N   0  0  0  0  0  0  0  0  0  0  0  0
  151.7037  140.1736  156.2273 C   0  0  0  0  0  0  0  0  0  0  0  0
  151.0036  141.3226  156.2811 N   0  0  0  0  0  0  0  0  0  0  0  0
  150.1142  141.8507  155.2614 C   0  0  0  0  0  0  0  0  0  0  0  0
  149.1521  140.7837  154.7053 C   0  0  2  0  0  0  0  0  0  0  0  0
  149.8595  139.9278  153.8293 O   0  0  0  0  0  0  0  0  0  0  0  0
  147.9882  141.4252  153.9238 C   0  0  0  0  0  0  0  0  0  0  0  0
  147.0402  142.2024  154.7249 N   0  0  0  0  0  0  0  0  0  0  0  0
  145.9962  142.8308  153.9172 C   0  0  0  0  0  0  0  0  0  0  0  0
  144.9970  143.6160  154.7834 C   0  0  0  0  0  0  0  0  0  0  0  0
  144.4328  142.7531  155.7651 O   0  0  0  0  0  0  0  0  0  0  0  0
  145.4129  142.1555  156.6091 C   0  0  1  0  0  0  0  0  0  0  0  0
  144.6939  141.2614  157.6246 C   0  0  0  0  0  0  0  0  0  0  0  0
  146.4093  141.3645  155.7392 C   0  0  0  0  0  0  0  0  0  0  0  0
  151.3214  141.8798  157.5153 C   0  0  0  0  0  0  0  0  0  0  0  0
  150.9366  143.0589  158.1777 C   0  0  0  0  0  0  0  0  0  0  0  0
  151.4555  143.3394  159.4592 C   0  0  0  0  0  0  0  0  0  0  0  0
  151.0325  144.6145  160.1666 C   0  0  0  0  0  0  0  0  0  0  0  0
  153.6030  141.9134  161.7675 H   0  0  0  0  0  0  0  0  0  0  0  0
  152.1328  142.7928  162.1828 H   0  0  0  0  0  0  0  0  0  0  0  0
  153.4985  143.6426  161.4431 H   0  0  0  0  0  0  0  0  0  0  0  0
  153.4289  140.5599  159.8541 H   0  0  0  0  0  0  0  0  0  0  0  0
  151.6519  139.5203  155.3686 H   0  0  0  0  0  0  0  0  0  0  0  0
  149.5477  142.6736  155.6992 H   0  0  0  0  0  0  0  0  0  0  0  0
  150.7165  142.2809  154.4601 H   0  0  0  0  0  0  0  0  0  0  0  0
  148.7793  140.1914  155.5400 H   0  0  0  0  0  0  0  0  0  0  0  0
  149.4696  139.9941  152.9708 H   0  0  0  0  0  0  0  0  0  0  0  0
  148.3939  142.0636  153.1373 H   0  0  0  0  0  0  0  0  0  0  0  0
  147.4524  140.6275  153.4068 H   0  0  0  0  0  0  0  0  0  0  0  0
  146.4329  143.5149  153.1912 H   0  0  0  0  0  0  0  0  0  0  0  0
  145.4593  142.0702  153.3482 H   0  0  0  0  0  0  0  0  0  0  0  0
  145.4882  144.4601  155.2702 H   0  0  0  0  0  0  0  0  0  0  0  0
  144.1972  144.0236  154.1651 H   0  0  0  0  0  0  0  0  0  0  0  0
  145.9426  142.9432  157.1478 H   0  0  0  0  0  0  0  0  0  0  0  0
  145.4039  140.7879  158.3031 H   0  0  0  0  0  0  0  0  0  0  0  0
  144.1301  140.4724  157.1259 H   0  0  0  0  0  0  0  0  0  0  0  0
  143.9942  141.8408  158.2272 H   0  0  0  0  0  0  0  0  0  0  0  0
  145.8910  140.5326  155.2591 H   0  0  0  0  0  0  0  0  0  0  0  0
  147.1744  140.9252  156.3806 H   0  0  0  0  0  0  0  0  0  0  0  0
  150.2501  143.7425  157.7006 H   0  0  0  0  0  0  0  0  0  0  0  0
  150.3593  145.2084  159.5475 H   0  0  0  0  0  0  0  0  0  0  0  0
  151.9017  145.2300  160.3998 H   0  0  0  0  0  0  0  0  0  0  0  0
  150.5135  144.3802  161.0963 H   0  0  0  0  0  0  0  0  0  0  0  0
  1  2  1  0  0  0  0
  1 23  1  0  0  0  0
  1 24  1  0  0  0  0
  1 25  1  0  0  0  0
  2 21  1  0  0  0  0
  2  3  2  0  0  0  0
  3  4  1  0  0  0  0
  3 26  1  0  0  0  0
  4 19  2  0  0  0  0
  4  5  1  0  0  0  0
  5  6  2  0  0  0  0
  6  7  1  0  0  0  0
  6 27  1  0  0  0  0
  7  8  1  0  0  0  0
  7 19  1  0  0  0  0
  8  9  1  0  0  0  0
  8 28  1  0  0  0  0
  8 29  1  0  0  0  0
  9 10  1  0  0  0  0
  9 11  1  0  0  0  0
  9 30  1  0  0  0  0
 10 31  1  0  0  0  0
 11 12  1  0  0  0  0
 11 32  1  0  0  0  0
 11 33  1  0  0  0  0
 12 18  1  0  0  0  0
 12 13  1  0  0  0  0
 13 14  1  0  0  0  0
 13 34  1  0  0  0  0
 13 35  1  0  0  0  0
 14 15  1  0  0  0  0
 14 36  1  0  0  0  0
 14 37  1  0  0  0  0
 15 16  1  0  0  0  0
 16 17  1  0  0  0  0
 16 18  1  0  0  0  0
 16 38  1  0  0  0  0
 17 39  1  0  0  0  0
 17 40  1  0  0  0  0
 17 41  1  0  0  0  0
 18 42  1  0  0  0  0
 18 43  1  0  0  0  0
 19 20  1  0  0  0  0
 20 21  2  0  0  0  0
 20 44  1  0  0  0  0
 21 22  1  0  0  0  0
 22 45  1  0  0  0  0
 22 46  1  0  0  0  0
 22 47  1  0  0  0  0
M  END
> <s_m_source_file>
AV-unprocessed.smi

> <i_m_source_file_index>
1554

> <i_lp_mmshare_version>
43012

> <i_f3d_flags>
0

> <s_epik_input>
W0NIM11jKFtjSF0xKWMoW0NIM10pW2NIXWMoYzEyKW4oW2NIXW4yKVtDSDJdW0NASF0oW09IXSlbQ0gyXU4zW0NIMl1bQ0gyXU9bQ0BASF0oW0NIM10pW0NIMl0z

> <s_epik_cmdline>
J2VwaWtfcHl0aG9uJywgJy1waCcsICc3LjAnLCAnLXRuJywgJzgnLCAnLW1hJywgJzIwMCcsICctbWV0YWxfYmluZGluZycsICctaW1hZScsICc8aW5maWxlLm1hZT4nLCAnLW9tYWUnLCAnPG91dGZpbGUubWFlPic=

> <r_epik_Ionization_Penalty>
0.345108

> <r_epik_Ionization_Penalty_Charging>
0

> <r_epik_Ionization_Penalty_Neutral>
0.345108

> <r_epik_State_Penalty>
0.314544

> <r_epik_Charging_Adjusted_Penalty>
0.314544

> <i_epik_Tot_Q>
0

> <i_epik_Tot_abs_Q>
0

> <r_epik_Metal_State_Penalty>
0.239719

> <b_epik_Metal_Only>
0

> <s_lp_Force_Field>
OPLS_2005

> <r_lp_Energy>
29.4167

> <b_lp_Chiralities_Consistent>
1

> <s_lp_Variant>
AV-unprocessed.smi:1554-1

> <Gold.Version>
5.8.1

> <Gold.Id.Protein>
6NUR|6NUR_protein|mol2

> <Gold.PLP.Fitness>
53.8521

> <Gold.PLP.PLP>
-45.8755

> <Gold.PLP.part.hbond>
-3.0000

> <Gold.PLP.part.metal>
0.0000

> <Gold.PLP.part.buried>
-5.9407

> <Gold.PLP.part.nonpolar>
-36.6765

> <Gold.PLP.part.repulsive>
0.2680

> <Gold.PLP.ligand.clash>
0.0000

> <Gold.PLP.ligand.torsion>
0.3112

> <Gold.PLP.Chemscore.Hbond>
2.8167

> <Gold.PLP.Chemscore.CHOScore>
0.0000

> <Gold.PLP.Chemscore.Metal>
0.0000

> <Gold.Chemscore.Hbonds>
donor molecule, donor type, donor heavy atom, donor atom, acceptor molecule, acceptor atom, score
      L1  H    10    31       P1  7957  1.00
      P1  H  7989  7998       L1    10  0.78
      P1  H  7997  8008       L1     5  0.93

> <Gold.PLP.Chemscore.Internal.Correction>
0.1489

> <Gold.Rescore>
     Score         DG    S(hbond)    S(metal)    S(lipo)     H(rot)  DE(clash)    DE(int)     intcor
     16.77     -17.81       1.03        0.00     119.40       1.98       0.63       0.41       ----

> <Gold.Chemscore.Fitness>
16.7665

> <Gold.Chemscore.DG>
-17.8050

> <Gold.Chemscore.ZeroCoef>
-5.4800

> <Gold.Chemscore.Hbond>
1.0287

> <Gold.Chemscore.Metal>
0.0000

> <Gold.Chemscore.Lipo>
119.4035

> <Gold.Chemscore.Internal_Hbond>
0.0000

> <Gold.Chemscore.DEClash>
0.6289

> <Gold.Chemscore.DEInternal>
0.4096

> <Gold.Chemscore.Rot>
1.9848

> <Gold.Chemscore.Internal.Correction>
   9.000000E+99

> <Gold.Chemscore.Hbonds>
donor molecule, donor type, donor heavy atom, donor atom, acceptor molecule, acceptor atom, score
      L1  H    10    31       P1  7957  0.95
      P1  H  7989  7998       L1    10  0.08
      P1  H  7997  8008       L1     5  0.13

> <Gold.Chemscore.Hbond.Weighted>
-3.4358

> <Gold.Chemscore.Metal.Weighted>
-0.0000

> <Gold.Chemscore.Lipo.Weighted>
-13.9702

> <Gold.Chemscore.Internal_Hbond.Weighted>
0.0000

> <Gold.Chemscore.DEClash.Weighted>
0.6289

> <Gold.Chemscore.DEInternal.Weighted>
0.4096

> <Gold.Chemscore.Rot.Weighted>
5.0810

> <Gold.Chemscore.Internal.Correction.Weighted>
   9.000000E+99

> <Gold.Protein.RotatedTorsions>
[ 6907 6896 6895 6894 ] final -136.60 input  -60.11 | X-H torsion
[ 7974 7965 7964 7962 ] final   34.15 input  175.53 | X-H torsion
[ 8008 7997 7996 7995 ] final  -48.27 input   59.86 | X-H torsion
[ 10167 10162 10161 10158 ] final  139.60 input  -65.29 | X-H torsion
[ 10718 10713 10712 10709 ] final  -97.16 input   66.30 | X-H torsion
[ 10763 10752 10751 10750 ] final   -5.66 input  -60.55 | X-H torsion
[ 11005 11000 10999 10996 ] final  -96.65 input  -57.11 | X-H torsion

> <Gold.Protein.ActiveResidues>
 VAL166  LYS551  ARG553  GLY616  TRP617  ASP618  TYR619  PRO620  LYS621  CYS622 
 ASP623  PHE694  ASN695  SER759  ASP760  ASP761  ALA762  ILE779  LEU786  VAL792 
 PHE793  MET794  SER795  GLU796  ALA797  LYS798  CYS799  TRP800  GLU811  SER814 

> <Gold.Protein.RotatedAtoms>
  151.0120  133.5956  159.2681 H   0  0  0  0  0  0  0  0  0  0  0  0  # atno 6907 bound_to 6896
  151.3104  135.0792  159.9280 H   0  0  0  0  0  0  0  0  0  0  0  0  # atno 6908 bound_to 6896
  152.5302  133.9786  159.7850 H   0  0  0  0  0  0  0  0  0  0  0  0  # atno 6909 bound_to 6896
  146.1373  139.6306  142.9187 H   0  0  0  0  0  0  0  0  0  0  0  0  # atno 7974 bound_to 7965
  154.4027  140.1325  156.4312 H   0  0  0  0  0  0  0  0  0  0  0  0  # atno 8008 bound_to 7997
  155.7549  140.3487  155.5148 H   0  0  0  0  0  0  0  0  0  0  0  0  # atno 8009 bound_to 7997
  155.8914  140.1004  157.1406 H   0  0  0  0  0  0  0  0  0  0  0  0  # atno 8010 bound_to 7997
  139.5074  144.6285  151.5877 H   0  0  0  0  0  0  0  0  0  0  0  0  # atno 10167 bound_to 10162
  156.0077  130.5182  150.6333 H   0  0  0  0  0  0  0  0  0  0  0  0  # atno 10718 bound_to 10713
  153.4016  135.7005  153.6422 H   0  0  0  0  0  0  0  0  0  0  0  0  # atno 10763 bound_to 10752
  153.4953  135.3664  155.2513 H   0  0  0  0  0  0  0  0  0  0  0  0  # atno 10764 bound_to 10752
  154.8711  135.4099  154.3351 H   0  0  0  0  0  0  0  0  0  0  0  0  # atno 10765 bound_to 10752
  141.1404  133.8113  157.0600 H   0  0  0  0  0  0  0  0  0  0  0  0  # atno 11005 bound_to 11000
  145.5128  141.0435  143.2478 LP  0  0  0  0  0  0  0  0  0  0  0  0  # atno 17320 bound_to 7965
  144.7753  139.6643  143.7177 LP  0  0  0  0  0  0  0  0  0  0  0  0  # atno 17321 bound_to 7965
  140.6010  143.9610  150.6386 LP  0  0  0  0  0  0  0  0  0  0  0  0  # atno 17342 bound_to 10162
  140.2821  143.3382  152.1141 LP  0  0  0  0  0  0  0  0  0  0  0  0  # atno 17343 bound_to 10162
  157.4127  131.0826  151.1205 LP  0  0  0  0  0  0  0  0  0  0  0  0  # atno 17370 bound_to 10713
  157.1832  130.6319  149.5679 LP  0  0  0  0  0  0  0  0  0  0  0  0  # atno 17371 bound_to 10713
  140.0577  134.9771  157.1250 LP  0  0  0  0  0  0  0  0  0  0  0  0  # atno 17394 bound_to 11000
  140.3895  134.2200  155.7167 LP  0  0  0  0  0  0  0  0  0  0  0  0  # atno 17395 bound_to 11000

$$$$
