AV-unprocessed.smi:1662|AV-procd|sdf|6661|dock3
  -GOLD-   22720 7373D 1   1.00000     0.00000
 Structure written by MMmdl.
 47 48  0  0  0  0  0  0  0  0  1 V2000
  148.6733  139.0939  154.4083 C   0  0  0  0  0  0  0  0  0  0  0  0
  149.0152  138.0387  155.4260 C   0  0  0  0  0  0  0  0  0  0  0  0
  148.0824  137.7122  156.2590 N   0  0  0  0  0  0  0  0  0  0  0  0
  148.2910  136.7567  157.2348 N   0  0  0  0  0  0  0  0  0  0  0  0
  147.1306  136.5297  158.1091 C   0  0  0  0  0  0  0  0  0  0  0  0
  147.4555  136.6586  159.6048 C   0  0  0  0  0  0  0  0  0  0  0  0
  148.1751  137.5684  160.0195 O   0  0  0  0  0  0  0  0  0  0  0  0
  146.8888  135.7414  160.4040 N   0  0  0  0  0  0  0  0  0  0  0  0
  147.0350  135.6494  161.8589 C   0  0  2  0  0  0  0  0  0  0  0  0
  147.4231  134.2123  162.2524 C   0  0  0  0  0  0  0  0  0  0  0  0
  146.2645  133.2272  162.0394 C   0  0  0  0  0  0  0  0  0  0  0  0
  145.0082  133.6852  162.7918 C   0  0  0  0  0  0  0  0  0  0  0  0
  144.5797  135.1137  162.3961 C   0  0  1  0  0  0  0  0  0  0  0  0
  143.3117  135.5084  163.1746 C   0  0  0  0  0  0  0  0  0  0  0  0
  145.7521  136.1141  162.5997 C   0  0  2  0  0  0  0  0  0  0  0  0
  145.3813  137.5656  162.2336 C   0  0  0  0  0  0  0  0  0  0  0  0
  149.4558  136.0687  157.4115 C   0  0  0  0  0  0  0  0  0  0  0  0
  149.5953  135.2175  158.2913 O   0  0  0  0  0  0  0  0  0  0  0  0
  150.5079  136.4430  156.4639 C   0  0  0  0  0  0  0  0  0  0  0  0
  151.7453  135.7478  156.6153 C   0  0  0  0  0  0  0  0  0  0  0  0
  152.7571  135.1952  156.7221 N   0  0  0  0  0  0  0  0  0  0  0  0
  150.3186  137.3872  155.5083 C   0  0  0  0  0  0  0  0  0  0  0  0
  151.3796  137.8131  154.5027 C   0  0  0  0  0  0  0  0  0  0  0  0
  148.8289  138.7212  153.3958 H   0  0  0  0  0  0  0  0  0  0  0  0
  149.2968  139.9777  154.5439 H   0  0  0  0  0  0  0  0  0  0  0  0
  147.6320  139.4108  154.4849 H   0  0  0  0  0  0  0  0  0  0  0  0
  146.3378  137.2422  157.8738 H   0  0  0  0  0  0  0  0  0  0  0  0
  146.7029  135.5441  157.9149 H   0  0  0  0  0  0  0  0  0  0  0  0
  146.3074  135.0400  159.9692 H   0  0  0  0  0  0  0  0  0  0  0  0
  147.8562  136.2943  162.1765 H   0  0  0  0  0  0  0  0  0  0  0  0
  148.2988  133.8886  161.6881 H   0  0  0  0  0  0  0  0  0  0  0  0
  147.7169  134.1951  163.3029 H   0  0  0  0  0  0  0  0  0  0  0  0
  146.0430  133.1347  160.9756 H   0  0  0  0  0  0  0  0  0  0  0  0
  146.5573  132.2334  162.3792 H   0  0  0  0  0  0  0  0  0  0  0  0
  144.1963  132.9843  162.5952 H   0  0  0  0  0  0  0  0  0  0  0  0
  145.1960  133.6426  163.8658 H   0  0  0  0  0  0  0  0  0  0  0  0
  144.3186  135.1014  161.3368 H   0  0  0  0  0  0  0  0  0  0  0  0
  143.5174  135.6158  164.2400 H   0  0  0  0  0  0  0  0  0  0  0  0
  142.5334  134.7531  163.0625 H   0  0  0  0  0  0  0  0  0  0  0  0
  142.8927  136.4484  162.8164 H   0  0  0  0  0  0  0  0  0  0  0  0
  145.9916  136.1165  163.6644 H   0  0  0  0  0  0  0  0  0  0  0  0
  145.0019  137.6402  161.2142 H   0  0  0  0  0  0  0  0  0  0  0  0
  146.2489  138.2212  162.3141 H   0  0  0  0  0  0  0  0  0  0  0  0
  144.6198  137.9672  162.9013 H   0  0  0  0  0  0  0  0  0  0  0  0
  152.3415  137.3373  154.6912 H   0  0  0  0  0  0  0  0  0  0  0  0
  151.5388  138.8913  154.5434 H   0  0  0  0  0  0  0  0  0  0  0  0
  151.0726  137.5479  153.4904 H   0  0  0  0  0  0  0  0  0  0  0  0
  1  2  1  0  0  0  0
  1 24  1  0  0  0  0
  1 25  1  0  0  0  0
  1 26  1  0  0  0  0
  2 22  1  0  0  0  0
  2  3  2  0  0  0  0
  3  4  1  0  0  0  0
  4  5  1  0  0  0  0
  4 17  1  0  0  0  0
  5  6  1  0  0  0  0
  5 27  1  0  0  0  0
  5 28  1  0  0  0  0
  6  7  2  0  0  0  0
  6  8  1  0  0  0  0
  8  9  1  0  0  0  0
  8 29  1  0  0  0  0
  9 15  1  0  0  0  0
  9 10  1  0  0  0  0
  9 30  1  0  0  0  0
 10 11  1  0  0  0  0
 10 31  1  0  0  0  0
 10 32  1  0  0  0  0
 11 12  1  0  0  0  0
 11 33  1  0  0  0  0
 11 34  1  0  0  0  0
 12 13  1  0  0  0  0
 12 35  1  0  0  0  0
 12 36  1  0  0  0  0
 13 14  1  0  0  0  0
 13 15  1  0  0  0  0
 13 37  1  0  0  0  0
 14 38  1  0  0  0  0
 14 39  1  0  0  0  0
 14 40  1  0  0  0  0
 15 16  1  0  0  0  0
 15 41  1  0  0  0  0
 16 42  1  0  0  0  0
 16 43  1  0  0  0  0
 16 44  1  0  0  0  0
 17 18  2  0  0  0  0
 17 19  1  0  0  0  0
 19 20  1  0  0  0  0
 19 22  2  0  0  0  0
 20 21  3  0  0  0  0
 22 23  1  0  0  0  0
 23 45  1  0  0  0  0
 23 46  1  0  0  0  0
 23 47  1  0  0  0  0
M  END
> <s_m_source_file>
AV-unprocessed.smi

> <i_m_source_file_index>
1662

> <i_lp_mmshare_version>
43012

> <i_f3d_flags>
0

> <s_epik_input>
TiNDYyhjMVtDSDNdKWMoPU8pbihuYzFbQ0gzXSlbQ0gyXUMoPU8pW05IXVtDQEBIXTJbQ0gyXVtDSDJdW0NIMl1bQ0BASF0oW0NIM10pW0NASF0yW0NIM10=

> <s_epik_cmdline>
J2VwaWtfcHl0aG9uJywgJy1waCcsICc3LjAnLCAnLXRuJywgJzgnLCAnLW1hJywgJzIwMCcsICctbWV0YWxfYmluZGluZycsICctaW1hZScsICc8aW5maWxlLm1hZT4nLCAnLW9tYWUnLCAnPG91dGZpbGUubWFlPic=

> <r_lp_tautomer_probability>
1

> <r_epik_Ionization_Penalty>
1.90709e-08

> <r_epik_Ionization_Penalty_Charging>
2.37982e-11

> <r_epik_Ionization_Penalty_Neutral>
1.90471e-08

> <r_epik_State_Penalty>
-0

> <r_epik_Charging_Adjusted_Penalty>
2.37982e-11

> <i_epik_Tot_Q>
0

> <i_epik_Tot_abs_Q>
0

> <r_epik_Metal_State_Penalty>
-0

> <b_epik_Metal_Only>
0

> <s_lp_Force_Field>
OPLS_2005

> <r_lp_Energy>
26.4332

> <b_lp_Chiralities_Consistent>
1

> <s_lp_Variant>
AV-unprocessed.smi:1662-5

> <Gold.Version>
5.8.1

> <Gold.Id.Protein>
6NUR|6NUR_protein|mol2

> <Gold.PLP.Fitness>
41.3223

> <Gold.PLP.PLP>
-33.9607

> <Gold.PLP.part.hbond>
-4.0000

> <Gold.PLP.part.metal>
0.0000

> <Gold.PLP.part.buried>
-4.4021

> <Gold.PLP.part.nonpolar>
-26.2241

> <Gold.PLP.part.repulsive>
0.0717

> <Gold.PLP.ligand.clash>
0.0000

> <Gold.PLP.ligand.torsion>
0.4158

> <Gold.PLP.Chemscore.Hbond>
2.7272

> <Gold.PLP.Chemscore.CHOScore>
0.0000

> <Gold.PLP.Chemscore.Metal>
0.0000

> <Gold.Chemscore.Hbonds>
donor molecule, donor type, donor heavy atom, donor atom, acceptor molecule, acceptor atom, score
      P1  H  6896  6907       L1    18  1.00
      P1  H  6931  6943       L1     7  0.30
      P1  H  6934  6947       L1     7  0.54
      P1  H 10752 10765       L1    21  0.94

> <Gold.PLP.Chemscore.Internal.Correction>
0.0116

> <Gold.Rescore>
     Score         DG    S(hbond)    S(metal)    S(lipo)     H(rot)  DE(clash)    DE(int)     intcor
     20.44     -21.74       3.18        0.00      79.81       1.45       0.02       1.29       ----

> <Gold.Chemscore.Fitness>
20.4360

> <Gold.Chemscore.DG>
-21.7411

> <Gold.Chemscore.ZeroCoef>
-5.4800

> <Gold.Chemscore.Hbond>
3.1844

> <Gold.Chemscore.Metal>
0.0000

> <Gold.Chemscore.Lipo>
79.8123

> <Gold.Chemscore.Internal_Hbond>
0.0000

> <Gold.Chemscore.DEClash>
0.0191

> <Gold.Chemscore.DEInternal>
1.2860

> <Gold.Chemscore.Rot>
1.4504

> <Gold.Chemscore.Internal.Correction>
   9.000000E+99

> <Gold.Chemscore.Hbonds>
donor molecule, donor type, donor heavy atom, donor atom, acceptor molecule, acceptor atom, score
      P1  H  6896  6907       L1    18  0.98
      P1  H  6931  6943       L1     7  0.29
      P1  H  6934  6947       L1     7  0.48
      P1  H 10752 10765       L1    21  0.81

> <Gold.Chemscore.Hbond.Weighted>
-10.6360

> <Gold.Chemscore.Metal.Weighted>
-0.0000

> <Gold.Chemscore.Lipo.Weighted>
-9.3380

> <Gold.Chemscore.Internal_Hbond.Weighted>
0.0000

> <Gold.Chemscore.DEClash.Weighted>
0.0191

> <Gold.Chemscore.DEInternal.Weighted>
1.2860

> <Gold.Chemscore.Rot.Weighted>
3.7129

> <Gold.Chemscore.Internal.Correction.Weighted>
   9.000000E+99

> <Gold.Protein.RotatedTorsions>
[ 6907 6896 6895 6894 ] final  -88.18 input  -60.11 | X-H torsion
[ 7974 7965 7964 7962 ] final  -68.18 input  175.53 | X-H torsion
[ 8008 7997 7996 7995 ] final -167.06 input   59.86 | X-H torsion
[ 10167 10162 10161 10158 ] final   32.55 input  -65.29 | X-H torsion
[ 10718 10713 10712 10709 ] final   25.05 input   66.30 | X-H torsion
[ 10763 10752 10751 10750 ] final -108.38 input  -60.55 | X-H torsion
[ 11005 11000 10999 10996 ] final  135.75 input  -57.11 | X-H torsion

> <Gold.Protein.ActiveResidues>
 VAL166  LYS551  ARG553  GLY616  TRP617  ASP618  TYR619  PRO620  LYS621  CYS622 
 ASP623  PHE694  ASN695  SER759  ASP760  ASP761  ALA762  ILE779  LEU786  VAL792 
 PHE793  MET794  SER795  GLU796  ALA797  LYS798  CYS799  TRP800  GLU811  SER814 

> <Gold.Protein.RotatedAtoms>
  150.6868  134.2782  159.4615 H   0  0  0  0  0  0  0  0  0  0  0  0  # atno 6907 bound_to 6896
  152.0698  134.9538  160.0584 H   0  0  0  0  0  0  0  0  0  0  0  0  # atno 6908 bound_to 6896
  152.0932  133.4176  159.4590 H   0  0  0  0  0  0  0  0  0  0  0  0  # atno 6909 bound_to 6896
  145.7198  140.9043  143.0636 H   0  0  0  0  0  0  0  0  0  0  0  0  # atno 7974 bound_to 7965
  155.8725  140.0996  157.1540 H   0  0  0  0  0  0  0  0  0  0  0  0  # atno 8008 bound_to 7997
  154.3998  140.1344  156.4159 H   0  0  0  0  0  0  0  0  0  0  0  0  # atno 8009 bound_to 7997
  155.7734  140.3460  155.5261 H   0  0  0  0  0  0  0  0  0  0  0  0  # atno 8010 bound_to 7997
  140.4488  144.1079  150.6187 H   0  0  0  0  0  0  0  0  0  0  0  0  # atno 10167 bound_to 10162
  157.1881  130.6833  149.6139 H   0  0  0  0  0  0  0  0  0  0  0  0  # atno 10718 bound_to 10713
  154.8132  135.4640  154.0571 H   0  0  0  0  0  0  0  0  0  0  0  0  # atno 10763 bound_to 10752
  153.1986  135.6865  153.8267 H   0  0  0  0  0  0  0  0  0  0  0  0  # atno 10764 bound_to 10752
  153.7760  135.3263  155.3336 H   0  0  0  0  0  0  0  0  0  0  0  0  # atno 10765 bound_to 10752
  140.0000  134.9482  157.0050 H   0  0  0  0  0  0  0  0  0  0  0  0  # atno 11005 bound_to 11000
  144.6920  139.9187  143.7467 LP  0  0  0  0  0  0  0  0  0  0  0  0  # atno 17320 bound_to 7965
  146.0636  139.3628  143.0566 LP  0  0  0  0  0  0  0  0  0  0  0  0  # atno 17321 bound_to 7965
  140.4231  143.2602  151.9690 LP  0  0  0  0  0  0  0  0  0  0  0  0  # atno 17342 bound_to 10162
  139.4795  144.5812  151.7929 LP  0  0  0  0  0  0  0  0  0  0  0  0  # atno 17343 bound_to 10162
  155.9715  130.4624  150.6144 LP  0  0  0  0  0  0  0  0  0  0  0  0  # atno 17370 bound_to 10713
  157.3887  131.0792  151.1413 LP  0  0  0  0  0  0  0  0  0  0  0  0  # atno 17371 bound_to 10713
  140.4746  134.1352  155.7208 LP  0  0  0  0  0  0  0  0  0  0  0  0  # atno 17394 bound_to 11000
  141.1634  133.8749  157.1783 LP  0  0  0  0  0  0  0  0  0  0  0  0  # atno 17395 bound_to 11000

$$$$
