AV-unprocessed.smi:540|AV-procd|sdf|2869|dock8
  -GOLD-   2262023363D 1   1.00000     0.00000
 Structure written by MMmdl.
 49 51  0  0  0  0  0  0  0  0  1 V2000
  156.5593  137.2799  154.5370 C   0  0  0  0  0  0  0  0  0  0  0  0
  155.3547  138.1386  154.1453 C   0  0  0  0  0  0  0  0  0  0  0  0
  154.4762  138.2290  155.2540 O   0  0  0  0  0  0  0  0  0  0  0  0
  153.2947  138.9530  154.9580 C   0  0  0  0  0  0  0  0  0  0  0  0
  152.5535  139.2440  156.2682 C   0  0  0  0  0  0  0  0  0  0  0  0
  151.3621  140.0570  156.0392 N   0  0  0  0  0  0  0  0  0  0  0  0
  151.0172  141.2390  156.6223 C   0  0  0  0  0  0  0  0  0  0  0  0
  151.8063  141.8515  157.5986 N   0  0  0  0  0  0  0  0  0  0  0  0
  152.2132  143.2561  157.6385 C   0  0  0  0  0  0  0  0  0  0  0  0
  151.8763  143.9041  158.9935 C   0  0  0  0  0  0  0  0  0  0  0  0
  152.5551  143.1435  160.1461 C   0  0  0  0  0  0  0  0  0  0  0  0
  152.1547  143.7094  161.5156 C   0  0  0  0  0  0  0  0  0  0  0  0
  152.2338  141.6428  160.0299 C   0  0  0  0  0  0  0  0  0  0  0  0
  152.5493  141.1147  158.6187 C   0  0  0  0  0  0  0  0  0  0  0  0
  149.8954  141.7861  156.1463 N   0  0  0  0  0  0  0  0  0  0  0  0
  149.4739  140.8679  155.1977 C   0  0  0  0  0  0  0  0  0  0  0  0
  150.3459  139.8312  155.1073 C   0  0  0  0  0  0  0  0  0  0  0  0
  150.1665  138.7376  154.1408 C   0  0  0  0  0  0  0  0  0  0  0  0
  150.9537  137.8024  154.0156 O   0  0  0  0  0  0  0  0  0  0  0  0
  149.0457  138.8684  153.3905 N   0  0  0  0  0  0  0  0  0  0  0  0
  148.1253  139.8787  153.4387 C   0  0  0  0  0  0  0  0  0  0  0  0
  147.1539  139.8626  152.6828 O   0  0  0  0  0  0  0  0  0  0  0  0
  148.3340  140.8872  154.3440 N   0  0  0  0  0  0  0  0  0  0  0  0
  147.3869  142.0004  154.4318 C   0  0  0  0  0  0  0  0  0  0  0  0
  148.8740  138.1398  152.7131 H   0  0  0  0  0  0  0  0  0  0  0  0
  157.2595  137.1889  153.7064 H   0  0  0  0  0  0  0  0  0  0  0  0
  156.2473  136.2753  154.8234 H   0  0  0  0  0  0  0  0  0  0  0  0
  157.0944  137.7187  155.3794 H   0  0  0  0  0  0  0  0  0  0  0  0
  155.6901  139.1335  153.8483 H   0  0  0  0  0  0  0  0  0  0  0  0
  154.8396  137.6937  153.2925 H   0  0  0  0  0  0  0  0  0  0  0  0
  153.5507  139.8876  154.4570 H   0  0  0  0  0  0  0  0  0  0  0  0
  152.6579  138.3800  154.2822 H   0  0  0  0  0  0  0  0  0  0  0  0
  152.2834  138.3157  156.7667 H   0  0  0  0  0  0  0  0  0  0  0  0
  153.2134  139.7455  156.9689 H   0  0  0  0  0  0  0  0  0  0  0  0
  153.2884  143.3128  157.4636 H   0  0  0  0  0  0  0  0  0  0  0  0
  151.7578  143.8089  156.8179 H   0  0  0  0  0  0  0  0  0  0  0  0
  152.1975  144.9460  158.9926 H   0  0  0  0  0  0  0  0  0  0  0  0
  150.7962  143.9144  159.1422 H   0  0  0  0  0  0  0  0  0  0  0  0
  153.6341  143.2637  160.0379 H   0  0  0  0  0  0  0  0  0  0  0  0
  151.0810  143.6185  161.6837 H   0  0  0  0  0  0  0  0  0  0  0  0
  152.4163  144.7649  161.5950 H   0  0  0  0  0  0  0  0  0  0  0  0
  152.6647  143.1818  162.3219 H   0  0  0  0  0  0  0  0  0  0  0  0
  152.8037  141.0802  160.7699 H   0  0  0  0  0  0  0  0  0  0  0  0
  151.1803  141.4700  160.2543 H   0  0  0  0  0  0  0  0  0  0  0  0
  152.2957  140.0555  158.5630 H   0  0  0  0  0  0  0  0  0  0  0  0
  153.6182  141.1883  158.4142 H   0  0  0  0  0  0  0  0  0  0  0  0
  146.3671  141.6339  154.5589 H   0  0  0  0  0  0  0  0  0  0  0  0
  147.4225  142.6002  153.5216 H   0  0  0  0  0  0  0  0  0  0  0  0
  147.5960  142.6627  155.2719 H   0  0  0  0  0  0  0  0  0  0  0  0
  1  2  1  0  0  0  0
  1 26  1  0  0  0  0
  1 27  1  0  0  0  0
  1 28  1  0  0  0  0
  2  3  1  0  0  0  0
  2 29  1  0  0  0  0
  2 30  1  0  0  0  0
  3  4  1  0  0  0  0
  4  5  1  0  0  0  0
  4 31  1  0  0  0  0
  4 32  1  0  0  0  0
  5  6  1  0  0  0  0
  5 33  1  0  0  0  0
  5 34  1  0  0  0  0
  6 17  1  0  0  0  0
  6  7  1  0  0  0  0
  7  8  1  0  0  0  0
  7 15  2  0  0  0  0
  8 14  1  0  0  0  0
  8  9  1  0  0  0  0
  9 10  1  0  0  0  0
  9 35  1  0  0  0  0
  9 36  1  0  0  0  0
 10 11  1  0  0  0  0
 10 37  1  0  0  0  0
 10 38  1  0  0  0  0
 11 12  1  0  0  0  0
 11 13  1  0  0  0  0
 11 39  1  0  0  0  0
 12 40  1  0  0  0  0
 12 41  1  0  0  0  0
 12 42  1  0  0  0  0
 13 14  1  0  0  0  0
 13 43  1  0  0  0  0
 13 44  1  0  0  0  0
 14 45  1  0  0  0  0
 14 46  1  0  0  0  0
 15 16  1  0  0  0  0
 16 23  1  0  0  0  0
 16 17  2  0  0  0  0
 17 18  1  0  0  0  0
 18 19  2  0  0  0  0
 18 20  1  0  0  0  0
 20 25  1  0  0  0  0
 20 21  1  0  0  0  0
 21 22  2  0  0  0  0
 21 23  1  0  0  0  0
 23 24  1  0  0  0  0
 24 47  1  0  0  0  0
 24 48  1  0  0  0  0
 24 49  1  0  0  0  0
M  END
> <s_m_source_file>
AV-unprocessed.smi

> <i_m_source_file_index>
540

> <i_lp_mmshare_version>
43012

> <i_f3d_flags>
0

> <s_epik_input>
W0NIM11uMWMoPU8pW25IXWMoPU8pYyhjMTIpbihbQ0gyXVtDSDJdT1tDSDJdW0NIM10pYyhuMilOM1tDSDJdW0NIMl1bQ0hdKFtDSDNdKVtDSDJdW0NIMl0z

> <s_epik_cmdline>
J2VwaWtfcHl0aG9uJywgJy1waCcsICc3LjAnLCAnLXRuJywgJzgnLCAnLW1hJywgJzIwMCcsICctbWV0YWxfYmluZGluZycsICctaW1hZScsICc8aW5maWxlLm1hZT4nLCAnLW9tYWUnLCAnPG91dGZpbGUubWFlPic=

> <r_lp_tautomer_probability>
1

> <r_epik_Ionization_Penalty>
0.000763957

> <r_epik_Ionization_Penalty_Charging>
0.000121351

> <r_epik_Ionization_Penalty_Neutral>
0.000642606

> <r_epik_State_Penalty>
-0

> <r_epik_Charging_Adjusted_Penalty>
0.000121351

> <i_epik_Tot_Q>
0

> <i_epik_Tot_abs_Q>
0

> <r_epik_Metal_State_Penalty>
0.0930422

> <b_epik_Metal_Only>
0

> <s_lp_Force_Field>
OPLS_2005

> <r_lp_Energy>
38.5385

> <b_lp_Chiralities_Consistent>
1

> <s_lp_Variant>
AV-unprocessed.smi:540-1

> <Gold.Version>
5.8.1

> <Gold.Id.Protein>
6NUR|6NUR_protein|mol2

> <Gold.PLP.Fitness>
48.2807

> <Gold.PLP.PLP>
-46.3171

> <Gold.PLP.part.hbond>
-3.0476

> <Gold.PLP.part.metal>
0.0000

> <Gold.PLP.part.buried>
-0.1367

> <Gold.PLP.part.nonpolar>
-44.6010

> <Gold.PLP.part.repulsive>
1.8530

> <Gold.PLP.ligand.clash>
0.0000

> <Gold.PLP.ligand.torsion>
0.7421

> <Gold.PLP.Chemscore.Hbond>
0.9913

> <Gold.PLP.Chemscore.CHOScore>
0.0000

> <Gold.PLP.Chemscore.Metal>
0.0000

> <Gold.Chemscore.Hbonds>
donor molecule, donor type, donor heavy atom, donor atom, acceptor molecule, acceptor atom, score
      L1  H    20    25       P1  7948  0.93

> <Gold.PLP.Chemscore.Internal.Correction>
0.4741

> <Gold.Rescore>
     Score         DG    S(hbond)    S(metal)    S(lipo)     H(rot)  DE(clash)    DE(int)     intcor
     13.18     -20.05       1.79        0.00     108.05       1.58       4.22       2.65       ----

> <Gold.Chemscore.Fitness>
13.1803

> <Gold.Chemscore.DG>
-20.0508

> <Gold.Chemscore.ZeroCoef>
-5.4800

> <Gold.Chemscore.Hbond>
1.7891

> <Gold.Chemscore.Metal>
0.0000

> <Gold.Chemscore.Lipo>
108.0456

> <Gold.Chemscore.Internal_Hbond>
0.0000

> <Gold.Chemscore.DEClash>
4.2245

> <Gold.Chemscore.DEInternal>
2.6460

> <Gold.Chemscore.Rot>
1.5806

> <Gold.Chemscore.Internal.Correction>
   9.000000E+99

> <Gold.Chemscore.Hbonds>
donor molecule, donor type, donor heavy atom, donor atom, acceptor molecule, acceptor atom, score
      L1  H    20    25       P1  7948  0.88

> <Gold.Chemscore.Hbond.Weighted>
-5.9757

> <Gold.Chemscore.Metal.Weighted>
-0.0000

> <Gold.Chemscore.Lipo.Weighted>
-12.6413

> <Gold.Chemscore.Internal_Hbond.Weighted>
0.0000

> <Gold.Chemscore.DEClash.Weighted>
4.2245

> <Gold.Chemscore.DEInternal.Weighted>
2.6460

> <Gold.Chemscore.Rot.Weighted>
4.0463

> <Gold.Chemscore.Internal.Correction.Weighted>
   9.000000E+99

> <Gold.Protein.RotatedTorsions>
[ 6907 6896 6895 6894 ] final -159.37 input  -60.11 | X-H torsion
[ 7974 7965 7964 7962 ] final   38.49 input  175.53 | X-H torsion
[ 8008 7997 7996 7995 ] final    2.87 input   59.86 | X-H torsion
[ 10167 10162 10161 10158 ] final  -10.12 input  -65.29 | X-H torsion
[ 10718 10713 10712 10709 ] final  -16.96 input   66.30 | X-H torsion
[ 10763 10752 10751 10750 ] final  -90.67 input  -60.55 | X-H torsion
[ 11005 11000 10999 10996 ] final  -48.30 input  -57.11 | X-H torsion

> <Gold.Protein.ActiveResidues>
 VAL166  LYS551  ARG553  GLY616  TRP617  ASP618  TYR619  PRO620  LYS621  CYS622 
 ASP623  PHE694  ASN695  SER759  ASP760  ASP761  ALA762  ILE779  LEU786  VAL792 
 PHE793  MET794  SER795  GLU796  ALA797  LYS798  CYS799  TRP800  GLU811  SER814 

> <Gold.Protein.RotatedAtoms>
  151.3325  133.3994  159.2663 H   0  0  0  0  0  0  0  0  0  0  0  0  # atno 6907 bound_to 6896
  150.9944  134.9272  159.7928 H   0  0  0  0  0  0  0  0  0  0  0  0  # atno 6908 bound_to 6896
  152.5257  134.3290  159.9228 H   0  0  0  0  0  0  0  0  0  0  0  0  # atno 6909 bound_to 6896
  146.1058  139.5766  142.9385 H   0  0  0  0  0  0  0  0  0  0  0  0  # atno 7974 bound_to 7965
  154.6968  140.2665  155.6758 H   0  0  0  0  0  0  0  0  0  0  0  0  # atno 8008 bound_to 7997
  156.2751  140.2780  156.1489 H   0  0  0  0  0  0  0  0  0  0  0  0  # atno 8009 bound_to 7997
  155.0820  140.0372  157.2632 H   0  0  0  0  0  0  0  0  0  0  0  0  # atno 8010 bound_to 7997
  140.7105  143.5783  150.9019 H   0  0  0  0  0  0  0  0  0  0  0  0  # atno 10167 bound_to 10162
  156.5802  130.4772  149.6324 H   0  0  0  0  0  0  0  0  0  0  0  0  # atno 10718 bound_to 10713
  154.6681  135.5296  153.8104 H   0  0  0  0  0  0  0  0  0  0  0  0  # atno 10763 bound_to 10752
  153.0484  135.6522  154.0767 H   0  0  0  0  0  0  0  0  0  0  0  0  # atno 10764 bound_to 10752
  154.0668  135.2957  155.3295 H   0  0  0  0  0  0  0  0  0  0  0  0  # atno 10765 bound_to 10752
  141.0692  133.6684  156.3421 H   0  0  0  0  0  0  0  0  0  0  0  0  # atno 11005 bound_to 11000
  145.5764  141.0388  143.2146 LP  0  0  0  0  0  0  0  0  0  0  0  0  # atno 17320 bound_to 7965
  144.7469  139.7295  143.7288 LP  0  0  0  0  0  0  0  0  0  0  0  0  # atno 17321 bound_to 7965
  139.9509  143.6274  152.3029 LP  0  0  0  0  0  0  0  0  0  0  0  0  # atno 17342 bound_to 10162
  139.6792  144.7656  151.1640 LP  0  0  0  0  0  0  0  0  0  0  0  0  # atno 17343 bound_to 10162
  156.2638  130.6977  151.1754 LP  0  0  0  0  0  0  0  0  0  0  0  0  # atno 17370 bound_to 10713
  157.7328  131.0596  150.5609 LP  0  0  0  0  0  0  0  0  0  0  0  0  # atno 17371 bound_to 10713
  140.5708  134.5842  157.5457 LP  0  0  0  0  0  0  0  0  0  0  0  0  # atno 17394 bound_to 11000
  139.9507  134.7622  156.0456 LP  0  0  0  0  0  0  0  0  0  0  0  0  # atno 17395 bound_to 11000

$$$$
