AV-unprocessed.smi:290|AV-procd|sdf|2240|dock2
  -GOLD-   2262022113D 1   1.00000     0.00000
 Structure written by MMmdl.
 59 62  0  0  0  0  0  0  0  0  2 V2000
  152.2335  144.4720  159.5233 C   0  0  0  0  0  0  0  0  0  0  0  0
  152.6380  143.1689  158.8151 C   0  0  1  0  0  0  0  0  0  0  0  0
  153.4134  142.3442  159.6845 O   0  0  0  0  0  0  0  0  0  0  0  0
  152.7985  141.0717  159.8276 C   0  0  0  0  0  0  0  0  0  0  0  0
  152.0140  140.8877  158.5354 C   0  0  0  0  0  0  0  0  0  0  0  0
  151.4874  142.2909  158.2688 C   0  0  1  0  0  0  0  0  0  0  0  0
  150.3049  142.4745  159.0316 O   0  0  0  0  0  0  0  0  0  0  0  0
  151.1618  142.5730  156.7827 C   0  0  0  0  0  0  0  0  0  0  0  0
  150.1299  141.7023  156.2398 N   0  0  0  0  0  0  0  0  0  0  0  0
  148.7711  141.9074  156.2895 C   0  0  0  0  0  0  0  0  0  0  0  0
  148.0497  140.9726  155.7356 N   0  0  0  0  0  0  0  0  0  0  0  0
  148.9771  140.0563  155.2487 C   0  0  0  0  0  0  0  0  0  0  0  0
  148.8944  138.8153  154.5461 C   0  0  0  0  0  0  0  0  0  0  0  0
  147.7445  138.2074  154.1483 N   0  0  0  0  0  0  0  0  0  0  0  0
  146.7456  138.9220  153.3724 C   0  0  0  0  0  0  0  0  0  0  0  0
  146.1361  137.8618  152.4656 C   0  0  0  0  0  0  0  0  0  0  0  0
  146.2262  136.5645  153.2857 C   0  0  1  0  0  0  0  0  0  0  0  0
  146.1900  135.3452  152.4168 N   0  3  2  0  0  0  0  0  0  0  0  0
  145.1613  135.4656  151.3503 C   0  0  0  0  0  0  0  0  0  0  0  0
  146.0853  134.0569  153.1617 C   0  0  0  0  0  0  0  0  0  0  0  0
  146.1983  132.8019  152.2751 C   0  0  0  0  0  0  0  0  0  0  0  0
  147.3538  132.8770  151.4668 O   0  0  0  0  0  0  0  0  0  0  0  0
  147.5247  136.7643  154.1139 C   0  0  2  0  0  0  0  0  0  0  0  0
  147.4067  136.2126  155.5522 C   0  0  0  0  0  0  0  0  0  0  0  0
  150.0655  138.1916  154.2518 N   0  0  0  0  0  0  0  0  0  0  0  0
  151.2341  138.7326  154.6042 C   0  0  0  0  0  0  0  0  0  0  0  0
  151.4604  139.8749  155.2523 N   0  0  0  0  0  0  0  0  0  0  0  0
  150.2933  140.5073  155.5612 C   0  0  0  0  0  0  0  0  0  0  0  0
  145.3757  136.5346  153.9697 H   0  0  0  0  0  0  0  0  0  0  0  0
  148.3594  136.3074  153.5836 H   0  0  0  0  0  0  0  0  0  0  0  0
  151.6289  145.1017  158.8706 H   0  0  0  0  0  0  0  0  0  0  0  0
  153.1155  145.0439  159.8114 H   0  0  0  0  0  0  0  0  0  0  0  0
  151.6614  144.2766  160.4307 H   0  0  0  0  0  0  0  0  0  0  0  0
  153.3042  143.4261  157.9907 H   0  0  0  0  0  0  0  0  0  0  0  0
  153.5357  140.2854  159.9905 H   0  0  0  0  0  0  0  0  0  0  0  0
  152.1274  141.0941  160.6872 H   0  0  0  0  0  0  0  0  0  0  0  0
  152.7015  140.5867  157.7442 H   0  0  0  0  0  0  0  0  0  0  0  0
  151.2344  140.1282  158.6084 H   0  0  0  0  0  0  0  0  0  0  0  0
  149.6484  142.8657  158.4760 H   0  0  0  0  0  0  0  0  0  0  0  0
  150.8386  143.6075  156.6579 H   0  0  0  0  0  0  0  0  0  0  0  0
  152.0576  142.4595  156.1706 H   0  0  0  0  0  0  0  0  0  0  0  0
  148.3294  142.7742  156.7599 H   0  0  0  0  0  0  0  0  0  0  0  0
  145.9974  139.3344  154.0505 H   0  0  0  0  0  0  0  0  0  0  0  0
  147.1689  139.7397  152.7876 H   0  0  0  0  0  0  0  0  0  0  0  0
  145.1190  138.1208  152.1710 H   0  0  0  0  0  0  0  0  0  0  0  0
  146.7386  137.7752  151.5597 H   0  0  0  0  0  0  0  0  0  0  0  0
  144.1566  135.4240  151.7726 H   0  0  0  0  0  0  0  0  0  0  0  0
  145.2545  134.6761  150.6068 H   0  0  0  0  0  0  0  0  0  0  0  0
  145.2547  136.3989  150.7971 H   0  0  0  0  0  0  0  0  0  0  0  0
  146.8858  133.9826  153.8951 H   0  0  0  0  0  0  0  0  0  0  0  0
  145.1451  134.0362  153.7144 H   0  0  0  0  0  0  0  0  0  0  0  0
  146.2864  131.9185  152.9079 H   0  0  0  0  0  0  0  0  0  0  0  0
  145.3155  132.6428  151.6572 H   0  0  0  0  0  0  0  0  0  0  0  0
  147.6464  131.9981  151.2763 H   0  0  0  0  0  0  0  0  0  0  0  0
  147.2082  135.1431  155.5763 H   0  0  0  0  0  0  0  0  0  0  0  0
  146.5954  136.7025  156.0918 H   0  0  0  0  0  0  0  0  0  0  0  0
  148.3181  136.3795  156.1251 H   0  0  0  0  0  0  0  0  0  0  0  0
  152.1131  138.1689  154.3285 H   0  0  0  0  0  0  0  0  0  0  0  0
  147.0851  135.3133  151.9493 H   0  0  0  0  0  0  0  0  0  0  0  0
  1  2  1  0  0  0  0
  1 31  1  0  0  0  0
  1 32  1  0  0  0  0
  1 33  1  0  0  0  0
  2  6  1  0  0  0  0
  2  3  1  0  0  0  0
  2 34  1  0  0  0  0
  3  4  1  0  0  0  0
  4  5  1  0  0  0  0
  4 35  1  0  0  0  0
  4 36  1  0  0  0  0
  5  6  1  0  0  0  0
  5 37  1  0  0  0  0
  5 38  1  0  0  0  0
  6  7  1  0  0  0  0
  6  8  1  0  0  0  0
  7 39  1  0  0  0  0
  8  9  1  0  0  0  0
  8 40  1  0  0  0  0
  8 41  1  0  0  0  0
  9 28  1  0  0  0  0
  9 10  1  0  0  0  0
 10 11  2  0  0  0  0
 10 42  1  0  0  0  0
 11 12  1  0  0  0  0
 12 28  2  0  0  0  0
 12 13  1  0  0  0  0
 13 14  1  0  0  0  0
 13 25  2  0  0  0  0
 14 23  1  0  0  0  0
 14 15  1  0  0  0  0
 15 16  1  0  0  0  0
 15 43  1  0  0  0  0
 15 44  1  0  0  0  0
 16 17  1  0  0  0  0
 16 45  1  0  0  0  0
 16 46  1  0  0  0  0
 17 29  1  0  0  0  0
 17 18  1  0  0  0  0
 17 23  1  0  0  0  0
 18 19  1  0  0  0  0
 18 20  1  0  0  0  0
 18 59  1  0  0  0  0
 19 47  1  0  0  0  0
 19 48  1  0  0  0  0
 19 49  1  0  0  0  0
 20 21  1  0  0  0  0
 20 50  1  0  0  0  0
 20 51  1  0  0  0  0
 21 22  1  0  0  0  0
 21 52  1  0  0  0  0
 21 53  1  0  0  0  0
 22 54  1  0  0  0  0
 23 30  1  0  0  0  0
 23 24  1  0  0  0  0
 24 55  1  0  0  0  0
 24 56  1  0  0  0  0
 24 57  1  0  0  0  0
 25 26  1  0  0  0  0
 26 27  2  0  0  0  0
 26 58  1  0  0  0  0
 27 28  1  0  0  0  0
M  CHG  1  18   1
M  END
> <s_m_source_file>
AV-unprocessed.smi

> <i_m_source_file_index>
290

> <i_lp_mmshare_version>
43012

> <i_f3d_flags>
0

> <s_epik_input>
W0NIMl0xW0NIMl1PW0NAQEhdKFtDSDNdKVtDQEBdMShbT0hdKVtDSDJdbihbY0hdbjIpYyhjMjMpbltjSF1uYzNONFtDSDJdW0NIMl1bQ0BIXShbQ0BIXTRbQ0gzXSlOKFtDSDNdKVtDSDJdW0NIMl1bT0hd

> <s_epik_cmdline>
J2VwaWtfcHl0aG9uJywgJy1waCcsICc3LjAnLCAnLXRuJywgJzgnLCAnLW1hJywgJzIwMCcsICctbWV0YWxfYmluZGluZycsICctaW1hZScsICc8aW5maWxlLm1hZT4nLCAnLW9tYWUnLCAnPG91dGZpbGUubWFlPic=

> <r_lp_tautomer_probability>
1

> <r_epik_Ionization_Penalty>
0.0036983

> <r_epik_Ionization_Penalty_Charging>
0.0032725

> <r_epik_Ionization_Penalty_Neutral>
0.000425798

> <r_epik_State_Penalty>
-0

> <r_epik_Charging_Adjusted_Penalty>
0.0032725

> <i_epik_Tot_Q>
1

> <i_epik_Tot_abs_Q>
1

> <r_epik_Metal_State_Penalty>
-0

> <b_epik_Metal_Only>
0

> <s_lp_Force_Field>
OPLS_2005

> <r_lp_Energy>
64.7492

> <b_lp_Chiralities_Consistent>
1

> <s_lp_Variant>
AV-unprocessed.smi:290-26

> <Gold.Version>
5.8.1

> <Gold.Id.Protein>
6NUR|6NUR_protein|mol2

> <Gold.PLP.Fitness>
49.4768

> <Gold.PLP.PLP>
-40.2950

> <Gold.PLP.part.hbond>
-4.0000

> <Gold.PLP.part.metal>
0.0000

> <Gold.PLP.part.buried>
-1.1901

> <Gold.PLP.part.nonpolar>
-36.8357

> <Gold.PLP.part.repulsive>
0.3260

> <Gold.PLP.ligand.clash>
0.0000

> <Gold.PLP.ligand.torsion>
1.3098

> <Gold.PLP.Chemscore.Hbond>
3.1840

> <Gold.PLP.Chemscore.CHOScore>
0.5905

> <Gold.PLP.Chemscore.Metal>
0.0000

> <Gold.Chemscore.Hbonds>
donor molecule, donor type, donor heavy atom, donor atom, acceptor molecule, acceptor atom, score
      L1  H    18    59       P1  7948  1.72
      L1  H    22    54       P1 10747  0.91
      P1  H  7989  7998       L1    27  0.36
      L1  C    10    42       P1  8028  0.65

> <Gold.PLP.Chemscore.Internal.Correction>
0.4780

> <Gold.Rescore>
     Score         DG    S(hbond)    S(metal)    S(lipo)     H(rot)  DE(clash)    DE(int)     intcor
     10.72     -14.00       1.87        0.00      92.70       3.35       1.96       1.32       ----

> <Gold.Chemscore.Fitness>
10.7234

> <Gold.Chemscore.DG>
-13.9973

> <Gold.Chemscore.ZeroCoef>
-5.4800

> <Gold.Chemscore.Hbond>
1.8719

> <Gold.Chemscore.Metal>
0.0000

> <Gold.Chemscore.Lipo>
92.6998

> <Gold.Chemscore.Internal_Hbond>
0.0000

> <Gold.Chemscore.DEClash>
1.9572

> <Gold.Chemscore.DEInternal>
1.3167

> <Gold.Chemscore.Rot>
3.3518

> <Gold.Chemscore.Internal.Correction>
   9.000000E+99

> <Gold.Chemscore.Hbonds>
donor molecule, donor type, donor heavy atom, donor atom, acceptor molecule, acceptor atom, score
      L1  H    18    59       P1  7948  0.79
      L1  H    22    54       P1 10747  0.85

> <Gold.Chemscore.Hbond.Weighted>
-6.2520

> <Gold.Chemscore.Metal.Weighted>
-0.0000

> <Gold.Chemscore.Lipo.Weighted>
-10.8459

> <Gold.Chemscore.Internal_Hbond.Weighted>
0.0000

> <Gold.Chemscore.DEClash.Weighted>
1.9572

> <Gold.Chemscore.DEInternal.Weighted>
1.3167

> <Gold.Chemscore.Rot.Weighted>
8.5806

> <Gold.Chemscore.Internal.Correction.Weighted>
   9.000000E+99

> <Gold.Protein.RotatedTorsions>
[ 6907 6896 6895 6894 ] final   85.90 input  -60.11 | X-H torsion
[ 7974 7965 7964 7962 ] final  -70.24 input  175.53 | X-H torsion
[ 8008 7997 7996 7995 ] final   -1.20 input   59.86 | X-H torsion
[ 10167 10162 10161 10158 ] final -175.22 input  -65.29 | X-H torsion
[ 10718 10713 10712 10709 ] final  -65.48 input   66.30 | X-H torsion
[ 10763 10752 10751 10750 ] final    6.68 input  -60.55 | X-H torsion
[ 11005 11000 10999 10996 ] final -175.88 input  -57.11 | X-H torsion

> <Gold.Protein.ActiveResidues>
 VAL166  LYS551  ARG553  GLY616  TRP617  ASP618  TYR619  PRO620  LYS621  CYS622 
 ASP623  PHE694  ASN695  SER759  ASP760  ASP761  ALA762  ILE779  LEU786  VAL792 
 PHE793  MET794  SER795  GLU796  ALA797  LYS798  CYS799  TRP800  GLU811  SER814 

> <Gold.Protein.RotatedAtoms>
  152.5384  134.2514  159.8900 H   0  0  0  0  0  0  0  0  0  0  0  0  # atno 6907 bound_to 6896
  151.2478  133.4359  159.2617 H   0  0  0  0  0  0  0  0  0  0  0  0  # atno 6908 bound_to 6896
  151.0567  134.9724  159.8296 H   0  0  0  0  0  0  0  0  0  0  0  0  # atno 6909 bound_to 6896
  145.6935  140.9144  143.0769 H   0  0  0  0  0  0  0  0  0  0  0  0  # atno 7974 bound_to 7965
  154.6495  140.2565  155.7230 H   0  0  0  0  0  0  0  0  0  0  0  0  # atno 8008 bound_to 7997
  156.2568  140.2871  156.0843 H   0  0  0  0  0  0  0  0  0  0  0  0  # atno 8009 bound_to 7997
  155.1473  140.0381  157.2803 H   0  0  0  0  0  0  0  0  0  0  0  0  # atno 8010 bound_to 7997
  139.5592  144.1911  152.1211 H   0  0  0  0  0  0  0  0  0  0  0  0  # atno 10167 bound_to 10162
  156.0667  130.4248  150.1570 H   0  0  0  0  0  0  0  0  0  0  0  0  # atno 10718 bound_to 10713
  153.2450  135.6907  153.7742 H   0  0  0  0  0  0  0  0  0  0  0  0  # atno 10763 bound_to 10752
  153.6857  135.3321  155.3190 H   0  0  0  0  0  0  0  0  0  0  0  0  # atno 10764 bound_to 10752
  154.8371  135.4533  154.1385 H   0  0  0  0  0  0  0  0  0  0  0  0  # atno 10765 bound_to 10752
  140.4584  134.6278  157.4832 H   0  0  0  0  0  0  0  0  0  0  0  0  # atno 11005 bound_to 11000
  144.6989  139.8853  143.7449 LP  0  0  0  0  0  0  0  0  0  0  0  0  # atno 17320 bound_to 7965
  146.0861  139.3849  143.0434 LP  0  0  0  0  0  0  0  0  0  0  0  0  # atno 17321 bound_to 7965
  140.1422  144.5192  150.6737 LP  0  0  0  0  0  0  0  0  0  0  0  0  # atno 17342 bound_to 10162
  140.6870  143.2355  151.5234 LP  0  0  0  0  0  0  0  0  0  0  0  0  # atno 17343 bound_to 10162
  156.9629  130.9810  151.3475 LP  0  0  0  0  0  0  0  0  0  0  0  0  # atno 17370 bound_to 10713
  157.5713  130.8312  149.8396 LP  0  0  0  0  0  0  0  0  0  0  0  0  # atno 17371 bound_to 10713
  139.9961  134.6908  155.9607 LP  0  0  0  0  0  0  0  0  0  0  0  0  # atno 17394 bound_to 11000
  141.1633  133.6538  156.4391 LP  0  0  0  0  0  0  0  0  0  0  0  0  # atno 17395 bound_to 11000

$$$$
