AV-unprocessed.smi:2926|AV-procd|sdf|11226|dock3
  -GOLD-   2272016113D 1   1.00000     0.00000
 Structure written by MMmdl.
 32 32  0  0  0  0  0  0  0  0  1 V2000
  149.5265  141.5009  154.8746 C   0  0  0  0  0  0  0  0  0  0  0  0
  148.5820  140.8781  153.8269 C   0  0  0  0  0  0  0  0  0  0  0  0
  147.2271  141.6088  153.8897 C   0  0  0  0  0  0  0  0  0  0  0  0
  148.4490  139.3400  154.0083 C   0  0  1  0  0  0  0  0  0  0  0  0
  147.2657  138.7139  153.2382 C   0  0  0  0  0  0  0  0  0  0  0  0
  147.5140  138.7457  151.8484 O   0  0  0  0  0  0  0  0  0  0  0  0
  149.6813  138.6969  153.5337 N   0  0  0  0  0  0  0  0  0  0  0  0
  150.8895  138.2574  154.6855 S   0  0  0  0  0  0  0  0  0  0  0  0
  151.3728  136.9111  154.3410 O   0  0  0  0  0  0  0  0  0  0  0  0
  151.8391  139.3763  154.7832 O   0  0  0  0  0  0  0  0  0  0  0  0
  149.9229  138.1472  156.2499 C   0  0  0  0  0  0  0  0  0  0  0  0
  150.8525  137.8938  157.4030 C   0  0  0  0  0  0  0  0  0  0  0  0
  151.9149  138.7109  157.8802 C   0  0  0  0  0  0  0  0  0  0  0  0
  152.4122  138.0030  158.9360 C   0  0  0  0  0  0  0  0  0  0  0  0
  151.7173  136.8497  159.1044 O   0  0  0  0  0  0  0  0  0  0  0  0
  150.7224  136.7900  158.1221 N   0  0  0  0  0  0  0  0  0  0  0  0
  148.3204  139.1379  155.0730 H   0  0  0  0  0  0  0  0  0  0  0  0
  149.1711  141.3124  155.8882 H   0  0  0  0  0  0  0  0  0  0  0  0
  149.6009  142.5811  154.7458 H   0  0  0  0  0  0  0  0  0  0  0  0
  150.5393  141.1046  154.7988 H   0  0  0  0  0  0  0  0  0  0  0  0
  149.0121  141.0710  152.8429 H   0  0  0  0  0  0  0  0  0  0  0  0
  146.6904  141.3691  154.8081 H   0  0  0  0  0  0  0  0  0  0  0  0
  146.5843  141.3592  153.0468 H   0  0  0  0  0  0  0  0  0  0  0  0
  147.3637  142.6903  153.8612 H   0  0  0  0  0  0  0  0  0  0  0  0
  147.1293  137.6651  153.4937 H   0  0  0  0  0  0  0  0  0  0  0  0
  146.3272  139.2217  153.4638 H   0  0  0  0  0  0  0  0  0  0  0  0
  148.0984  139.4646  151.6628 H   0  0  0  0  0  0  0  0  0  0  0  0
  149.4665  137.9159  152.9140 H   0  0  0  0  0  0  0  0  0  0  0  0
  149.3758  139.0796  156.3853 H   0  0  0  0  0  0  0  0  0  0  0  0
  149.1928  137.3443  156.1423 H   0  0  0  0  0  0  0  0  0  0  0  0
  152.2600  139.6626  157.5036 H   0  0  0  0  0  0  0  0  0  0  0  0
  153.2181  138.1779  159.6333 H   0  0  0  0  0  0  0  0  0  0  0  0
  1  2  1  0  0  0  0
  1 18  1  0  0  0  0
  1 19  1  0  0  0  0
  1 20  1  0  0  0  0
  2  3  1  0  0  0  0
  2  4  1  0  0  0  0
  2 21  1  0  0  0  0
  3 22  1  0  0  0  0
  3 23  1  0  0  0  0
  3 24  1  0  0  0  0
  4 17  1  0  0  0  0
  4  5  1  0  0  0  0
  4  7  1  0  0  0  0
  5  6  1  0  0  0  0
  5 25  1  0  0  0  0
  5 26  1  0  0  0  0
  6 27  1  0  0  0  0
  7  8  1  0  0  0  0
  7 28  1  0  0  0  0
  8  9  2  0  0  0  0
  8 10  2  0  0  0  0
  8 11  1  0  0  0  0
 11 12  1  0  0  0  0
 11 29  1  0  0  0  0
 11 30  1  0  0  0  0
 12 16  2  0  0  0  0
 12 13  1  0  0  0  0
 13 14  2  0  0  0  0
 13 31  1  0  0  0  0
 14 15  1  0  0  0  0
 14 32  1  0  0  0  0
 15 16  1  0  0  0  0
M  END
> <s_m_source_file>
AV-unprocessed.smi

> <i_m_source_file_index>
2926

> <i_lp_mmshare_version>
43012

> <i_f3d_flags>
0

> <s_epik_input>
W0NIM11bQ0hdKFtDSDNdKVtDQEBIXShbQ0gyXVtPSF0pW05IXVMoPU8pKD1PKVtDSDJdYzFbY0hdW2NIXW9uMQ==

> <s_epik_cmdline>
J2VwaWtfcHl0aG9uJywgJy1waCcsICc3LjAnLCAnLXRuJywgJzgnLCAnLW1hJywgJzIwMCcsICctbWV0YWxfYmluZGluZycsICctaW1hZScsICc8aW5maWxlLm1hZT4nLCAnLW9tYWUnLCAnPG91dGZpbGUubWFlPic=

> <r_lp_tautomer_probability>
1

> <r_epik_Ionization_Penalty>
0.000193122

> <r_epik_Ionization_Penalty_Charging>
0

> <r_epik_Ionization_Penalty_Neutral>
0.000193122

> <r_epik_State_Penalty>
-0

> <r_epik_Charging_Adjusted_Penalty>
0

> <i_epik_Tot_Q>
0

> <i_epik_Tot_abs_Q>
0

> <r_epik_Metal_State_Penalty>
0.130256

> <b_epik_Metal_Only>
0

> <s_lp_Force_Field>
OPLS_2005

> <r_lp_Energy>
6.6882

> <b_lp_Chiralities_Consistent>
1

> <s_lp_Variant>
AV-unprocessed.smi:2926-1

> <Gold.Version>
5.8.1

> <Gold.Id.Protein>
6NUR|6NUR_protein|mol2

> <Gold.PLP.Fitness>
40.1427

> <Gold.PLP.PLP>
-27.3533

> <Gold.PLP.part.hbond>
-7.6044

> <Gold.PLP.part.metal>
0.0000

> <Gold.PLP.part.buried>
-3.1379

> <Gold.PLP.part.nonpolar>
-17.2199

> <Gold.PLP.part.repulsive>
0.6243

> <Gold.PLP.ligand.clash>
0.0000

> <Gold.PLP.ligand.torsion>
1.3721

> <Gold.PLP.Chemscore.Hbond>
5.1110

> <Gold.PLP.Chemscore.CHOScore>
0.0000

> <Gold.PLP.Chemscore.Metal>
0.0000

> <Gold.Chemscore.Hbonds>
donor molecule, donor type, donor heavy atom, donor atom, acceptor molecule, acceptor atom, score
      L1  H     6    27       P1  7957  0.99
      L1  H     7    28       P1  7948  1.00
      P1  H  6896  6909       L1    15  0.94
      P1  H  7954  7966       L1     6  0.15
      P1  H  7989  7998       L1    10  1.00
      P1  H 10752 10763       L1     9  1.00

> <Gold.PLP.Chemscore.Internal.Correction>
0.2007

> <Gold.Rescore>
     Score         DG    S(hbond)    S(metal)    S(lipo)     H(rot)  DE(clash)    DE(int)     intcor
     16.51     -18.07       4.33        0.00      48.65       2.96       0.13       1.42       ----

> <Gold.Chemscore.Fitness>
16.5097

> <Gold.Chemscore.DG>
-18.0663

> <Gold.Chemscore.ZeroCoef>
-5.4800

> <Gold.Chemscore.Hbond>
4.3302

> <Gold.Chemscore.Metal>
0.0000

> <Gold.Chemscore.Lipo>
48.6499

> <Gold.Chemscore.Internal_Hbond>
0.0000

> <Gold.Chemscore.DEClash>
0.1349

> <Gold.Chemscore.DEInternal>
1.4217

> <Gold.Chemscore.Rot>
2.9564

> <Gold.Chemscore.Internal.Correction>
   9.000000E+99

> <Gold.Chemscore.Hbonds>
donor molecule, donor type, donor heavy atom, donor atom, acceptor molecule, acceptor atom, score
      L1  H     6    27       P1  7957  0.94
      L1  H     7    28       P1  7948  0.81
      P1  H  6896  6909       L1    15  0.55
      P1  H  7989  7998       L1    10  0.90
      P1  H 10752 10763       L1     9  0.95

> <Gold.Chemscore.Hbond.Weighted>
-14.4627

> <Gold.Chemscore.Metal.Weighted>
-0.0000

> <Gold.Chemscore.Lipo.Weighted>
-5.6920

> <Gold.Chemscore.Internal_Hbond.Weighted>
0.0000

> <Gold.Chemscore.DEClash.Weighted>
0.1349

> <Gold.Chemscore.DEInternal.Weighted>
1.4217

> <Gold.Chemscore.Rot.Weighted>
7.5685

> <Gold.Chemscore.Internal.Correction.Weighted>
   9.000000E+99

> <Gold.Protein.RotatedTorsions>
[ 6907 6896 6895 6894 ] final  128.11 input  -60.11 | X-H torsion
[ 7974 7965 7964 7962 ] final  -47.41 input  175.53 | X-H torsion
[ 8008 7997 7996 7995 ] final  -21.79 input   59.86 | X-H torsion
[ 10167 10162 10161 10158 ] final  -26.87 input  -65.29 | X-H torsion
[ 10718 10713 10712 10709 ] final  -34.96 input   66.30 | X-H torsion
[ 10763 10752 10751 10750 ] final   39.22 input  -60.55 | X-H torsion
[ 11005 11000 10999 10996 ] final   54.16 input  -57.11 | X-H torsion

> <Gold.Protein.ActiveResidues>
 VAL166  LYS551  ARG553  GLY616  TRP617  ASP618  TYR619  PRO620  LYS621  CYS622 
 ASP623  PHE694  ASN695  SER759  ASP760  ASP761  ALA762  ILE779  LEU786  VAL792 
 PHE793  MET794  SER795  GLU796  ALA797  LYS798  CYS799  TRP800  GLU811  SER814 

> <Gold.Protein.RotatedAtoms>
  152.3750  133.6469  159.6116 H   0  0  0  0  0  0  0  0  0  0  0  0  # atno 6907 bound_to 6896
  150.7697  133.9207  159.3406 H   0  0  0  0  0  0  0  0  0  0  0  0  # atno 6908 bound_to 6896
  151.7023  135.0929  160.0304 H   0  0  0  0  0  0  0  0  0  0  0  0  # atno 6909 bound_to 6896
  145.9619  140.7470  142.9453 H   0  0  0  0  0  0  0  0  0  0  0  0  # atno 7974 bound_to 7965
  154.4684  140.2025  156.0059 H   0  0  0  0  0  0  0  0  0  0  0  0  # atno 8008 bound_to 7997
  156.0967  140.3250  155.7858 H   0  0  0  0  0  0  0  0  0  0  0  0  # atno 8009 bound_to 7997
  155.4866  140.0543  157.2950 H   0  0  0  0  0  0  0  0  0  0  0  0  # atno 8010 bound_to 7997
  140.7280  143.4141  151.1056 H   0  0  0  0  0  0  0  0  0  0  0  0  # atno 10167 bound_to 10162
  156.3443  130.4298  149.7760 H   0  0  0  0  0  0  0  0  0  0  0  0  # atno 10718 bound_to 10713
  152.9974  135.6227  154.2430 H   0  0  0  0  0  0  0  0  0  0  0  0  # atno 10763 bound_to 10752
  154.2170  135.2797  155.2940 H   0  0  0  0  0  0  0  0  0  0  0  0  # atno 10764 bound_to 10752
  154.5560  135.5719  153.7023 H   0  0  0  0  0  0  0  0  0  0  0  0  # atno 10765 bound_to 10752
  140.0709  134.5471  155.9048 H   0  0  0  0  0  0  0  0  0  0  0  0  # atno 11005 bound_to 11000
  144.6817  140.2605  143.7319 LP  0  0  0  0  0  0  0  0  0  0  0  0  # atno 17320 bound_to 7965
  145.8028  139.1971  143.2038 LP  0  0  0  0  0  0  0  0  0  0  0  0  # atno 17321 bound_to 7965
  139.7779  143.8399  152.3132 LP  0  0  0  0  0  0  0  0  0  0  0  0  # atno 17342 bound_to 10162
  139.8339  144.7241  150.9415 LP  0  0  0  0  0  0  0  0  0  0  0  0  # atno 17343 bound_to 10162
  156.4985  130.8117  151.3123 LP  0  0  0  0  0  0  0  0  0  0  0  0  # atno 17370 bound_to 10713
  157.7451  130.9952  150.2736 LP  0  0  0  0  0  0  0  0  0  0  0  0  # atno 17371 bound_to 10713
  141.2011  133.6616  156.5933 LP  0  0  0  0  0  0  0  0  0  0  0  0  # atno 17394 bound_to 11000
  140.3629  134.7672  157.4546 LP  0  0  0  0  0  0  0  0  0  0  0  0  # atno 17395 bound_to 11000

$$$$
