AV-unprocessed.smi:2442|AV-procd|sdf|9630|dock1
  -GOLD-   2272013263D 1   1.00000     0.00000
 Structure written by MMmdl.
 47 48  0  0  0  0  0  0  0  0  2 V2000
  152.8405  138.6463  154.5512 C   0  0  0  0  0  0  0  0  0  0  0  0
  151.8322  138.1497  155.4172 O   0  0  0  0  0  0  0  0  0  0  0  0
  150.7751  139.0676  155.6726 C   0  0  1  0  0  0  0  0  0  0  0  0
  151.3611  140.4172  156.1398 C   0  0  0  0  0  0  0  0  0  0  0  0
  150.2707  141.4877  156.2929 C   0  0  0  0  0  0  0  0  0  0  0  0
  149.4834  141.6627  154.9870 C   0  0  0  0  0  0  0  0  0  0  0  0
  148.8826  140.3279  154.5231 C   0  0  0  0  0  0  0  0  0  0  0  0
  149.9613  139.2382  154.3688 C   0  0  2  0  0  0  0  0  0  0  0  0
  149.3098  137.9792  154.0135 N   0  0  0  0  0  0  0  0  0  0  0  0
  148.4496  137.3023  154.7868 C   0  0  0  0  0  0  0  0  0  0  0  0
  148.1109  137.6497  155.9184 O   0  0  0  0  0  0  0  0  0  0  0  0
  147.9925  136.2011  154.1747 N   0  0  0  0  0  0  0  0  0  0  0  0
  147.0383  135.2631  154.7538 C   0  0  0  0  0  0  0  0  0  0  0  0
  146.8852  134.0003  153.8883 C   0  0  0  0  0  0  0  0  0  0  0  0
  145.7396  134.1219  152.8954 C   0  0  0  0  0  0  0  0  0  0  0  0
  144.9905  135.3196  152.8601 C   0  0  0  0  0  0  0  0  0  0  0  0
  143.9241  135.4461  151.9483 C   0  0  0  0  0  0  0  0  0  0  0  0
  143.6279  134.4248  151.1173 N   0  3  0  0  0  0  0  0  0  0  0  0
  144.3138  133.2615  151.1158 C   0  0  0  0  0  0  0  0  0  0  0  0
  145.3922  133.0700  152.0074 C   0  0  0  0  0  0  0  0  0  0  0  0
  146.1463  131.7525  151.9899 C   0  0  0  0  0  0  0  0  0  0  0  0
  153.6144  137.8894  154.4259 H   0  0  0  0  0  0  0  0  0  0  0  0
  153.3112  139.5377  154.9674 H   0  0  0  0  0  0  0  0  0  0  0  0
  152.4476  138.8858  153.5634 H   0  0  0  0  0  0  0  0  0  0  0  0
  150.1111  138.6722  156.4446 H   0  0  0  0  0  0  0  0  0  0  0  0
  151.8836  140.3009  157.0890 H   0  0  0  0  0  0  0  0  0  0  0  0
  152.1050  140.7597  155.4194 H   0  0  0  0  0  0  0  0  0  0  0  0
  149.5902  141.2059  157.0973 H   0  0  0  0  0  0  0  0  0  0  0  0
  150.7204  142.4370  156.5852 H   0  0  0  0  0  0  0  0  0  0  0  0
  148.6911  142.3986  155.1265 H   0  0  0  0  0  0  0  0  0  0  0  0
  150.1407  142.0585  154.2117 H   0  0  0  0  0  0  0  0  0  0  0  0
  148.1307  140.0041  155.2443 H   0  0  0  0  0  0  0  0  0  0  0  0
  148.3600  140.4717  153.5767 H   0  0  0  0  0  0  0  0  0  0  0  0
  150.6374  139.5489  153.5696 H   0  0  0  0  0  0  0  0  0  0  0  0
  149.5187  137.6061  153.0993 H   0  0  0  0  0  0  0  0  0  0  0  0
  148.3281  135.9981  153.2444 H   0  0  0  0  0  0  0  0  0  0  0  0
  147.3899  134.9951  155.7503 H   0  0  0  0  0  0  0  0  0  0  0  0
  146.0731  135.7549  154.8879 H   0  0  0  0  0  0  0  0  0  0  0  0
  147.8038  133.8189  153.3284 H   0  0  0  0  0  0  0  0  0  0  0  0
  146.7499  133.1222  154.5197 H   0  0  0  0  0  0  0  0  0  0  0  0
  145.2297  136.1351  153.5277 H   0  0  0  0  0  0  0  0  0  0  0  0
  143.3049  136.3267  151.8593 H   0  0  0  0  0  0  0  0  0  0  0  0
  143.9782  132.5215  150.4035 H   0  0  0  0  0  0  0  0  0  0  0  0
  145.6472  131.0215  151.3527 H   0  0  0  0  0  0  0  0  0  0  0  0
  146.2111  131.3290  152.9922 H   0  0  0  0  0  0  0  0  0  0  0  0
  147.1567  131.8977  151.6072 H   0  0  0  0  0  0  0  0  0  0  0  0
  142.8528  134.5361  150.4630 H   0  0  0  0  0  0  0  0  0  0  0  0
  1  2  1  0  0  0  0
  1 22  1  0  0  0  0
  1 23  1  0  0  0  0
  1 24  1  0  0  0  0
  2  3  1  0  0  0  0
  3  8  1  0  0  0  0
  3  4  1  0  0  0  0
  3 25  1  0  0  0  0
  4  5  1  0  0  0  0
  4 26  1  0  0  0  0
  4 27  1  0  0  0  0
  5  6  1  0  0  0  0
  5 28  1  0  0  0  0
  5 29  1  0  0  0  0
  6  7  1  0  0  0  0
  6 30  1  0  0  0  0
  6 31  1  0  0  0  0
  7  8  1  0  0  0  0
  7 32  1  0  0  0  0
  7 33  1  0  0  0  0
  8  9  1  0  0  0  0
  8 34  1  0  0  0  0
  9 10  1  0  0  0  0
  9 35  1  0  0  0  0
 10 11  2  0  0  0  0
 10 12  1  0  0  0  0
 12 13  1  0  0  0  0
 12 36  1  0  0  0  0
 13 14  1  0  0  0  0
 13 37  1  0  0  0  0
 13 38  1  0  0  0  0
 14 15  1  0  0  0  0
 14 39  1  0  0  0  0
 14 40  1  0  0  0  0
 15 20  1  0  0  0  0
 15 16  2  0  0  0  0
 16 17  1  0  0  0  0
 16 41  1  0  0  0  0
 17 18  2  0  0  0  0
 17 42  1  0  0  0  0
 18 19  1  0  0  0  0
 18 47  1  0  0  0  0
 19 20  2  0  0  0  0
 19 43  1  0  0  0  0
 20 21  1  0  0  0  0
 21 44  1  0  0  0  0
 21 45  1  0  0  0  0
 21 46  1  0  0  0  0
M  CHG  1  18   1
M  END
> <s_m_source_file>
AV-unprocessed.smi

> <i_m_source_file_index>
2442

> <i_lp_mmshare_version>
43012

> <i_f3d_flags>
0

> <s_epik_input>
W0NIM11PW0NAQEhdMVtDSDJdW0NIMl1bQ0gyXVtDSDJdW0NASF0xW05IXUMoPU8pW05IXVtDSDJdW0NIMl1jMltjSF1bY0hdbltjSF1jMltDSDNd

> <s_epik_cmdline>
J2VwaWtfcHl0aG9uJywgJy1waCcsICc3LjAnLCAnLXRuJywgJzgnLCAnLW1hJywgJzIwMCcsICctbWV0YWxfYmluZGluZycsICctaW1hZScsICc8aW5maWxlLm1hZT4nLCAnLW9tYWUnLCAnPG91dGZpbGUubWFlPic=

> <r_epik_Ionization_Penalty>
1.07145

> <r_epik_Ionization_Penalty_Charging>
1.0714

> <r_epik_Ionization_Penalty_Neutral>
4.9109e-05

> <r_epik_State_Penalty>
1.12601

> <r_epik_Charging_Adjusted_Penalty>
2.19741

> <i_epik_Tot_Q>
1

> <i_epik_Tot_abs_Q>
1

> <r_epik_Metal_State_Penalty>
1.2173

> <b_epik_Metal_Only>
0

> <s_lp_Force_Field>
OPLS_2005

> <r_lp_Energy>
14.6153

> <b_lp_Chiralities_Consistent>
1

> <s_lp_Variant>
AV-unprocessed.smi:2442-8

> <Gold.Version>
5.8.1

> <Gold.Id.Protein>
6NUR|6NUR_protein|mol2

> <Gold.PLP.Fitness>
43.3990

> <Gold.PLP.PLP>
-32.3764

> <Gold.PLP.part.hbond>
-2.8832

> <Gold.PLP.part.metal>
0.0000

> <Gold.PLP.part.buried>
-4.2568

> <Gold.PLP.part.nonpolar>
-26.7704

> <Gold.PLP.part.repulsive>
0.0692

> <Gold.PLP.ligand.clash>
0.0000

> <Gold.PLP.ligand.torsion>
0.3017

> <Gold.PLP.Chemscore.Hbond>
3.8553

> <Gold.PLP.Chemscore.CHOScore>
0.0000

> <Gold.PLP.Chemscore.Metal>
0.0000

> <Gold.Chemscore.Hbonds>
donor molecule, donor type, donor heavy atom, donor atom, acceptor molecule, acceptor atom, score
      L1  H     9    35       P1  7948  0.86
      L1  H    12    36       P1  7948  0.99
      L1  H    18    47       P1 10186  1.89

> <Gold.PLP.Chemscore.Internal.Correction>
0.0603

> <Gold.Rescore>
     Score         DG    S(hbond)    S(metal)    S(lipo)     H(rot)  DE(clash)    DE(int)     intcor
     18.50     -19.84       2.68        0.00      83.79       1.72       0.05       1.29       ----

> <Gold.Chemscore.Fitness>
18.4985

> <Gold.Chemscore.DG>
-19.8363

> <Gold.Chemscore.ZeroCoef>
-5.4800

> <Gold.Chemscore.Hbond>
2.6847

> <Gold.Chemscore.Metal>
0.0000

> <Gold.Chemscore.Lipo>
83.7940

> <Gold.Chemscore.Internal_Hbond>
0.0000

> <Gold.Chemscore.DEClash>
0.0502

> <Gold.Chemscore.DEInternal>
1.2876

> <Gold.Chemscore.Rot>
1.7244

> <Gold.Chemscore.Internal.Correction>
   9.000000E+99

> <Gold.Chemscore.Hbonds>
donor molecule, donor type, donor heavy atom, donor atom, acceptor molecule, acceptor atom, score
      L1  H     9    35       P1  7948  0.72
      L1  H    12    36       P1  7948  0.92
      L1  H    18    47       P1 10186  0.45

> <Gold.Chemscore.Hbond.Weighted>
-8.9669

> <Gold.Chemscore.Metal.Weighted>
-0.0000

> <Gold.Chemscore.Lipo.Weighted>
-9.8039

> <Gold.Chemscore.Internal_Hbond.Weighted>
0.0000

> <Gold.Chemscore.DEClash.Weighted>
0.0502

> <Gold.Chemscore.DEInternal.Weighted>
1.2876

> <Gold.Chemscore.Rot.Weighted>
4.4145

> <Gold.Chemscore.Internal.Correction.Weighted>
   9.000000E+99

> <Gold.Protein.RotatedTorsions>
[ 6907 6896 6895 6894 ] final  -11.23 input  -60.11 | X-H torsion
[ 7974 7965 7964 7962 ] final   98.79 input  175.53 | X-H torsion
[ 8008 7997 7996 7995 ] final  166.34 input   59.86 | X-H torsion
[ 10167 10162 10161 10158 ] final  103.44 input  -65.29 | X-H torsion
[ 10718 10713 10712 10709 ] final   11.49 input   66.30 | X-H torsion
[ 10763 10752 10751 10750 ] final  -86.94 input  -60.55 | X-H torsion
[ 11005 11000 10999 10996 ] final  147.81 input  -57.11 | X-H torsion

> <Gold.Protein.ActiveResidues>
 VAL166  LYS551  ARG553  GLY616  TRP617  ASP618  TYR619  PRO620  LYS621  CYS622 
 ASP623  PHE694  ASN695  SER759  ASP760  ASP761  ALA762  ILE779  LEU786  VAL792 
 PHE793  MET794  SER795  GLU796  ALA797  LYS798  CYS799  TRP800  GLU811  SER814 

> <Gold.Protein.RotatedAtoms>
  151.3894  135.0953  159.9521 H   0  0  0  0  0  0  0  0  0  0  0  0  # atno 6907 bound_to 6896
  152.5084  133.8994  159.7444 H   0  0  0  0  0  0  0  0  0  0  0  0  # atno 6908 bound_to 6896
  150.9444  133.6564  159.2813 H   0  0  0  0  0  0  0  0  0  0  0  0  # atno 6909 bound_to 6896
  145.4075  139.2338  143.3266 H   0  0  0  0  0  0  0  0  0  0  0  0  # atno 7974 bound_to 7965
  156.1726  140.1646  156.8419 H   0  0  0  0  0  0  0  0  0  0  0  0  # atno 8008 bound_to 7997
  154.5273  140.0764  156.8316 H   0  0  0  0  0  0  0  0  0  0  0  0  # atno 8009 bound_to 7997
  155.3480  140.3388  155.4241 H   0  0  0  0  0  0  0  0  0  0  0  0  # atno 8010 bound_to 7997
  139.7263  144.7046  151.0792 H   0  0  0  0  0  0  0  0  0  0  0  0  # atno 10167 bound_to 10162
  156.9964  130.6062  149.5691 H   0  0  0  0  0  0  0  0  0  0  0  0  # atno 10718 bound_to 10713
  154.6281  135.5431  153.7650 H   0  0  0  0  0  0  0  0  0  0  0  0  # atno 10763 bound_to 10752
  153.0271  135.6429  154.1341 H   0  0  0  0  0  0  0  0  0  0  0  0  # atno 10764 bound_to 10752
  154.1273  135.2916  155.3174 H   0  0  0  0  0  0  0  0  0  0  0  0  # atno 10765 bound_to 10752
  140.0907  134.9043  157.1645 H   0  0  0  0  0  0  0  0  0  0  0  0  # atno 11005 bound_to 11000
  146.2721  140.4782  142.8810 LP  0  0  0  0  0  0  0  0  0  0  0  0  # atno 17320 bound_to 7965
  144.8331  140.6739  143.6278 LP  0  0  0  0  0  0  0  0  0  0  0  0  # atno 17321 bound_to 7965
  140.7763  143.5101  150.9664 LP  0  0  0  0  0  0  0  0  0  0  0  0  # atno 17342 bound_to 10162
  139.8788  143.7098  152.3159 LP  0  0  0  0  0  0  0  0  0  0  0  0  # atno 17343 bound_to 10162
  156.0188  130.5282  150.8213 LP  0  0  0  0  0  0  0  0  0  0  0  0  # atno 17370 bound_to 10713
  157.5422  131.0941  150.9812 LP  0  0  0  0  0  0  0  0  0  0  0  0  # atno 17371 bound_to 10713
  140.3357  134.2760  155.7220 LP  0  0  0  0  0  0  0  0  0  0  0  0  # atno 17394 bound_to 11000
  141.2077  133.7799  157.0105 LP  0  0  0  0  0  0  0  0  0  0  0  0  # atno 17395 bound_to 11000

$$$$
