AV-unprocessed.smi:1288|AV-procd|sdf|5382|dock2
  -GOLD-   22720 4533D 1   1.00000     0.00000
 Structure written by MMmdl.
 42 44  0  0  0  0  0  0  0  0  1 V2000
  153.2496  139.3260  160.8450 C   0  0  0  0  0  0  0  0  0  0  0  0
  152.7703  140.5709  160.1679 C   0  0  0  0  0  0  0  0  0  0  0  0
  152.9410  141.7809  160.7009 N   0  0  0  0  0  0  0  0  0  0  0  0
  152.3673  142.6112  159.7574 C   0  0  0  0  0  0  0  0  0  0  0  0
  152.2271  144.0175  159.7353 C   0  0  0  0  0  0  0  0  0  0  0  0
  151.5935  144.6547  158.6484 C   0  0  0  0  0  0  0  0  0  0  0  0
  151.0922  143.8970  157.5702 C   0  0  0  0  0  0  0  0  0  0  0  0
  151.2219  142.4948  157.5718 C   0  0  0  0  0  0  0  0  0  0  0  0
  151.8550  141.8633  158.6592 C   0  0  0  0  0  0  0  0  0  0  0  0
  152.1370  140.5360  158.9695 N   0  0  0  0  0  0  0  0  0  0  0  0
  151.8147  139.3674  158.1611 C   0  0  0  0  0  0  0  0  0  0  0  0
  150.7841  138.4399  158.8361 C   0  0  1  0  0  0  0  0  0  0  0  0
  149.5082  139.0472  158.7771 O   0  0  0  0  0  0  0  0  0  0  0  0
  150.7054  137.0704  158.1426 C   0  0  0  0  0  0  0  0  0  0  0  0
  150.0810  136.1438  159.0162 O   0  0  0  0  0  0  0  0  0  0  0  0
  148.6824  136.0461  158.8080 C   0  0  0  0  0  0  0  0  0  0  0  0
  148.0097  135.3014  159.9444 C   0  0  0  0  0  0  0  0  0  0  0  0
  147.5261  136.0138  161.0622 C   0  0  0  0  0  0  0  0  0  0  0  0
  146.8931  135.3301  162.1186 C   0  0  0  0  0  0  0  0  0  0  0  0
  146.7415  133.9315  162.0615 C   0  0  0  0  0  0  0  0  0  0  0  0
  147.2214  133.2170  160.9469 C   0  0  0  0  0  0  0  0  0  0  0  0
  147.8528  133.8991  159.8882 C   0  0  0  0  0  0  0  0  0  0  0  0
  148.3044  133.2014  158.8184 F   0  0  0  0  0  0  0  0  0  0  0  0
  153.7160  139.5663  161.8010 H   0  0  0  0  0  0  0  0  0  0  0  0
  153.9870  138.8176  160.2237 H   0  0  0  0  0  0  0  0  0  0  0  0
  152.4163  138.6492  161.0321 H   0  0  0  0  0  0  0  0  0  0  0  0
  152.6072  144.6068  160.5566 H   0  0  0  0  0  0  0  0  0  0  0  0
  151.4913  145.7300  158.6421 H   0  0  0  0  0  0  0  0  0  0  0  0
  150.6071  144.3927  156.7421 H   0  0  0  0  0  0  0  0  0  0  0  0
  150.8365  141.9118  156.7485 H   0  0  0  0  0  0  0  0  0  0  0  0
  151.4423  139.7057  157.1932 H   0  0  0  0  0  0  0  0  0  0  0  0
  152.7357  138.8226  157.9531 H   0  0  0  0  0  0  0  0  0  0  0  0
  151.0585  138.3011  159.8822 H   0  0  0  0  0  0  0  0  0  0  0  0
  149.1407  139.0577  159.6478 H   0  0  0  0  0  0  0  0  0  0  0  0
  150.1781  137.1398  157.1893 H   0  0  0  0  0  0  0  0  0  0  0  0
  151.7126  136.7092  157.9286 H   0  0  0  0  0  0  0  0  0  0  0  0
  148.2451  137.0418  158.7180 H   0  0  0  0  0  0  0  0  0  0  0  0
  148.4810  135.5262  157.8699 H   0  0  0  0  0  0  0  0  0  0  0  0
  147.6371  137.0871  161.1116 H   0  0  0  0  0  0  0  0  0  0  0  0
  146.5234  135.8794  162.9719 H   0  0  0  0  0  0  0  0  0  0  0  0
  146.2562  133.4068  162.8712 H   0  0  0  0  0  0  0  0  0  0  0  0
  147.1036  132.1443  160.9026 H   0  0  0  0  0  0  0  0  0  0  0  0
  1  2  1  0  0  0  0
  1 24  1  0  0  0  0
  1 25  1  0  0  0  0
  1 26  1  0  0  0  0
  2 10  1  0  0  0  0
  2  3  2  0  0  0  0
  3  4  1  0  0  0  0
  4  9  2  0  0  0  0
  4  5  1  0  0  0  0
  5  6  2  0  0  0  0
  5 27  1  0  0  0  0
  6  7  1  0  0  0  0
  6 28  1  0  0  0  0
  7  8  2  0  0  0  0
  7 29  1  0  0  0  0
  8  9  1  0  0  0  0
  8 30  1  0  0  0  0
  9 10  1  0  0  0  0
 10 11  1  0  0  0  0
 11 12  1  0  0  0  0
 11 31  1  0  0  0  0
 11 32  1  0  0  0  0
 12 13  1  0  0  0  0
 12 14  1  0  0  0  0
 12 33  1  0  0  0  0
 13 34  1  0  0  0  0
 14 15  1  0  0  0  0
 14 35  1  0  0  0  0
 14 36  1  0  0  0  0
 15 16  1  0  0  0  0
 16 17  1  0  0  0  0
 16 37  1  0  0  0  0
 16 38  1  0  0  0  0
 17 22  1  0  0  0  0
 17 18  2  0  0  0  0
 18 19  1  0  0  0  0
 18 39  1  0  0  0  0
 19 20  2  0  0  0  0
 19 40  1  0  0  0  0
 20 21  1  0  0  0  0
 20 41  1  0  0  0  0
 21 22  2  0  0  0  0
 21 42  1  0  0  0  0
 22 23  1  0  0  0  0
M  END
> <s_m_source_file>
AV-unprocessed.smi

> <i_m_source_file_index>
1288

> <i_lp_mmshare_version>
43012

> <i_f3d_flags>
0

> <s_epik_input>
W2NIXTFbY0hdW2NIXVtjSF1jKGMxMiluKGMobjIpW0NIM10pW0NIMl1bQ0BIXShbT0hdKVtDSDJdT1tDSDJdYzNbY0hdW2NIXVtjSF1bY0hdYzNG

> <s_epik_cmdline>
J2VwaWtfcHl0aG9uJywgJy1waCcsICc3LjAnLCAnLXRuJywgJzgnLCAnLW1hJywgJzIwMCcsICctbWV0YWxfYmluZGluZycsICctaW1hZScsICc8aW5maWxlLm1hZT4nLCAnLW9tYWUnLCAnPG91dGZpbGUubWFlPic=

> <r_epik_Ionization_Penalty>
0.132603

> <r_epik_Ionization_Penalty_Charging>
0

> <r_epik_Ionization_Penalty_Neutral>
0.132603

> <r_epik_State_Penalty>
0.121982

> <r_epik_Charging_Adjusted_Penalty>
0.121982

> <i_epik_Tot_Q>
0

> <i_epik_Tot_abs_Q>
0

> <r_epik_Metal_State_Penalty>
0.000135431

> <b_epik_Metal_Only>
0

> <s_lp_Force_Field>
OPLS_2005

> <r_lp_Energy>
16.0492

> <b_lp_Chiralities_Consistent>
1

> <s_lp_Variant>
AV-unprocessed.smi:1288-2

> <Gold.Version>
5.8.1

> <Gold.Id.Protein>
6NUR|6NUR_protein|mol2

> <Gold.PLP.Fitness>
52.4234

> <Gold.PLP.PLP>
-51.1219

> <Gold.PLP.part.hbond>
-3.0000

> <Gold.PLP.part.metal>
0.0000

> <Gold.PLP.part.buried>
-2.8034

> <Gold.PLP.part.nonpolar>
-46.6166

> <Gold.PLP.part.repulsive>
0.0000

> <Gold.PLP.ligand.clash>
0.0000

> <Gold.PLP.ligand.torsion>
0.9092

> <Gold.PLP.Chemscore.Hbond>
1.0000

> <Gold.PLP.Chemscore.CHOScore>
0.0000

> <Gold.PLP.Chemscore.Metal>
0.0000

> <Gold.Chemscore.Hbonds>
donor molecule, donor type, donor heavy atom, donor atom, acceptor molecule, acceptor atom, score
      P1  H  6896  6909       L1    15  1.00

> <Gold.PLP.Chemscore.Internal.Correction>
0.1198

> <Gold.Rescore>
     Score         DG    S(hbond)    S(metal)    S(lipo)     H(rot)  DE(clash)    DE(int)     intcor
     17.34     -19.25       0.95        0.00     140.69       2.29       1.12       0.78       ----

> <Gold.Chemscore.Fitness>
17.3415

> <Gold.Chemscore.DG>
-19.2494

> <Gold.Chemscore.ZeroCoef>
-5.4800

> <Gold.Chemscore.Hbond>
0.9465

> <Gold.Chemscore.Metal>
0.0000

> <Gold.Chemscore.Lipo>
140.6926

> <Gold.Chemscore.Internal_Hbond>
0.0000

> <Gold.Chemscore.DEClash>
1.1234

> <Gold.Chemscore.DEInternal>
0.7846

> <Gold.Chemscore.Rot>
2.2863

> <Gold.Chemscore.Internal.Correction>
   9.000000E+99

> <Gold.Chemscore.Hbonds>
donor molecule, donor type, donor heavy atom, donor atom, acceptor molecule, acceptor atom, score
      P1  H  6896  6909       L1    15  0.96

> <Gold.Chemscore.Hbond.Weighted>
-3.1614

> <Gold.Chemscore.Metal.Weighted>
-0.0000

> <Gold.Chemscore.Lipo.Weighted>
-16.4610

> <Gold.Chemscore.Internal_Hbond.Weighted>
0.0000

> <Gold.Chemscore.DEClash.Weighted>
1.1234

> <Gold.Chemscore.DEInternal.Weighted>
0.7846

> <Gold.Chemscore.Rot.Weighted>
5.8530

> <Gold.Chemscore.Internal.Correction.Weighted>
   9.000000E+99

> <Gold.Protein.RotatedTorsions>
[ 6907 6896 6895 6894 ] final   74.67 input  -60.11 | X-H torsion
[ 7974 7965 7964 7962 ] final   88.00 input  175.53 | X-H torsion
[ 8008 7997 7996 7995 ] final  147.90 input   59.86 | X-H torsion
[ 10167 10162 10161 10158 ] final   93.38 input  -65.29 | X-H torsion
[ 10718 10713 10712 10709 ] final  -64.04 input   66.30 | X-H torsion
[ 10763 10752 10751 10750 ] final   40.31 input  -60.55 | X-H torsion
[ 11005 11000 10999 10996 ] final   67.21 input  -57.11 | X-H torsion

> <Gold.Protein.ActiveResidues>
 VAL166  LYS551  ARG553  GLY616  TRP617  ASP618  TYR619  PRO620  LYS621  CYS622 
 ASP623  PHE694  ASN695  SER759  ASP760  ASP761  ALA762  ILE779  LEU786  VAL792 
 PHE793  MET794  SER795  GLU796  ALA797  LYS798  CYS799  TRP800  GLU811  SER814 

> <Gold.Protein.RotatedAtoms>
  152.4988  134.4236  159.9488 H   0  0  0  0  0  0  0  0  0  0  0  0  # atno 6907 bound_to 6896
  151.4210  133.3692  159.2764 H   0  0  0  0  0  0  0  0  0  0  0  0  # atno 6908 bound_to 6896
  150.9222  134.8662  159.7556 H   0  0  0  0  0  0  0  0  0  0  0  0  # atno 6909 bound_to 6896
  145.5514  139.2296  143.2510 H   0  0  0  0  0  0  0  0  0  0  0  0  # atno 7974 bound_to 7965
  156.2809  140.2143  156.5611 H   0  0  0  0  0  0  0  0  0  0  0  0  # atno 8008 bound_to 7997
  154.7212  140.0503  157.0664 H   0  0  0  0  0  0  0  0  0  0  0  0  # atno 8009 bound_to 7997
  155.0476  140.3152  155.4706 H   0  0  0  0  0  0  0  0  0  0  0  0  # atno 8010 bound_to 7997
  139.8185  144.6742  150.9549 H   0  0  0  0  0  0  0  0  0  0  0  0  # atno 10167 bound_to 10162
  156.0754  130.4228  150.1363 H   0  0  0  0  0  0  0  0  0  0  0  0  # atno 10718 bound_to 10713
  152.9940  135.6195  154.2606 H   0  0  0  0  0  0  0  0  0  0  0  0  # atno 10763 bound_to 10752
  154.2342  135.2791  155.2880 H   0  0  0  0  0  0  0  0  0  0  0  0  # atno 10764 bound_to 10752
  154.5424  135.5757  153.6908 H   0  0  0  0  0  0  0  0  0  0  0  0  # atno 10765 bound_to 10752
  139.9784  134.6784  156.0309 H   0  0  0  0  0  0  0  0  0  0  0  0  # atno 11005 bound_to 11000
  146.1914  140.6337  142.9144 LP  0  0  0  0  0  0  0  0  0  0  0  0  # atno 17320 bound_to 7965
  144.7527  140.5231  143.6790 LP  0  0  0  0  0  0  0  0  0  0  0  0  # atno 17321 bound_to 7965
  140.7814  143.4115  151.0985 LP  0  0  0  0  0  0  0  0  0  0  0  0  # atno 17342 bound_to 10162
  139.7777  143.8401  152.3132 LP  0  0  0  0  0  0  0  0  0  0  0  0  # atno 17343 bound_to 10162
  156.9405  130.9743  151.3517 LP  0  0  0  0  0  0  0  0  0  0  0  0  # atno 17370 bound_to 10713
  157.5846  130.8400  149.8571 LP  0  0  0  0  0  0  0  0  0  0  0  0  # atno 17371 bound_to 10713
  141.1459  133.6556  156.3866 LP  0  0  0  0  0  0  0  0  0  0  0  0  # atno 17394 bound_to 11000
  140.5146  134.6362  157.5297 LP  0  0  0  0  0  0  0  0  0  0  0  0  # atno 17395 bound_to 11000

$$$$
