AV-unprocessed.smi:1254|AV-procd|sdf|5276|dock4
  -GOLD-   22720 4393D 1   1.00000     0.00000
 Structure written by MMmdl.
 45 46  0  0  0  0  0  0  0  0  3 V2000
  146.6063  136.1884  162.4979 C   0  0  0  0  0  0  0  0  0  0  0  0
  147.3883  136.0974  161.2321 C   0  0  0  0  0  0  0  0  0  0  0  0
  147.8212  135.0403  160.4830 C   0  0  0  0  0  0  0  0  0  0  0  0
  148.5165  135.6646  159.4115 C   0  0  0  0  0  0  0  0  0  0  0  0
  149.1221  135.0375  158.3910 N   0  5  0  0  0  0  0  0  0  0  0  0
  148.5618  133.9365  157.8402 C   0  0  0  0  0  0  0  0  0  0  0  0
  147.5980  133.3052  158.2799 O   0  0  0  0  0  0  0  0  0  0  0  0
  149.1578  133.5385  156.7093 N   0  0  0  0  0  0  0  0  0  0  0  0
  148.7718  132.3735  155.9251 C   0  0  0  0  0  0  0  0  0  0  0  0
  147.8414  132.7797  154.7744 C   0  0  1  0  0  0  0  0  0  0  0  0
  148.2968  134.0945  154.1079 C   0  0  0  0  0  0  0  0  0  0  0  0
  147.4350  134.4413  152.9515 N   0  3  2  0  0  0  0  0  0  0  0  0
  146.1205  135.0226  153.3372 C   0  0  0  0  0  0  0  0  0  0  0  0
  145.5908  136.0405  152.3042 C   0  0  0  0  0  0  0  0  0  0  0  0
  144.2249  136.6155  152.7155 C   0  0  0  0  0  0  0  0  0  0  0  0
  145.5046  135.4011  150.9104 C   0  0  0  0  0  0  0  0  0  0  0  0
  147.3555  133.3016  152.0026 C   0  0  0  0  0  0  0  0  0  0  0  0
  146.9639  131.9952  152.7197 C   0  0  0  0  0  0  0  0  0  0  0  0
  147.8632  131.7478  153.7926 O   0  0  0  0  0  0  0  0  0  0  0  0
  148.4918  136.9844  159.4936 N   0  0  0  0  0  0  0  0  0  0  0  0
  147.7768  137.2699  160.6628 O   0  0  0  0  0  0  0  0  0  0  0  0
  145.6977  135.5899  162.4340 H   0  0  0  0  0  0  0  0  0  0  0  0
  146.3174  137.2183  162.7088 H   0  0  0  0  0  0  0  0  0  0  0  0
  147.1940  135.8235  163.3403 H   0  0  0  0  0  0  0  0  0  0  0  0
  147.6693  133.9882  160.6726 H   0  0  0  0  0  0  0  0  0  0  0  0
  149.9399  134.0830  156.3765 H   0  0  0  0  0  0  0  0  0  0  0  0
  149.6707  131.9031  155.5232 H   0  0  0  0  0  0  0  0  0  0  0  0
  148.2852  131.6412  156.5712 H   0  0  0  0  0  0  0  0  0  0  0  0
  146.8283  132.8944  155.1649 H   0  0  0  0  0  0  0  0  0  0  0  0
  148.3138  134.9126  154.8291 H   0  0  0  0  0  0  0  0  0  0  0  0
  149.3213  133.9844  153.7489 H   0  0  0  0  0  0  0  0  0  0  0  0
  145.3933  134.2259  153.4942 H   0  0  0  0  0  0  0  0  0  0  0  0
  146.2145  135.5327  154.2969 H   0  0  0  0  0  0  0  0  0  0  0  0
  146.2930  136.8699  152.2260 H   0  0  0  0  0  0  0  0  0  0  0  0
  143.4747  135.8295  152.8077 H   0  0  0  0  0  0  0  0  0  0  0  0
  143.8639  137.3328  151.9779 H   0  0  0  0  0  0  0  0  0  0  0  0
  144.2811  137.1362  153.6715 H   0  0  0  0  0  0  0  0  0  0  0  0
  144.8077  134.5623  150.9001 H   0  0  0  0  0  0  0  0  0  0  0  0
  146.4771  135.0299  150.5858 H   0  0  0  0  0  0  0  0  0  0  0  0
  145.1659  136.1231  150.1667 H   0  0  0  0  0  0  0  0  0  0  0  0
  146.6657  133.5124  151.1865 H   0  0  0  0  0  0  0  0  0  0  0  0
  148.3374  133.1755  151.5448 H   0  0  0  0  0  0  0  0  0  0  0  0
  145.9383  132.0314  153.0895 H   0  0  0  0  0  0  0  0  0  0  0  0
  147.0139  131.1593  152.0217 H   0  0  0  0  0  0  0  0  0  0  0  0
  147.9159  135.1868  152.4685 H   0  0  0  0  0  0  0  0  0  0  0  0
  1  2  1  0  0  0  0
  1 22  1  0  0  0  0
  1 23  1  0  0  0  0
  1 24  1  0  0  0  0
  2 21  1  0  0  0  0
  2  3  2  0  0  0  0
  3  4  1  0  0  0  0
  3 25  1  0  0  0  0
  4  5  1  0  0  0  0
  4 20  2  0  0  0  0
  5  6  1  0  0  0  0
  6  7  2  0  0  0  0
  6  8  1  0  0  0  0
  8  9  1  0  0  0  0
  8 26  1  0  0  0  0
  9 10  1  0  0  0  0
  9 27  1  0  0  0  0
  9 28  1  0  0  0  0
 10 19  1  0  0  0  0
 10 11  1  0  0  0  0
 10 29  1  0  0  0  0
 11 12  1  0  0  0  0
 11 30  1  0  0  0  0
 11 31  1  0  0  0  0
 12 13  1  0  0  0  0
 12 17  1  0  0  0  0
 12 45  1  0  0  0  0
 13 14  1  0  0  0  0
 13 32  1  0  0  0  0
 13 33  1  0  0  0  0
 14 15  1  0  0  0  0
 14 16  1  0  0  0  0
 14 34  1  0  0  0  0
 15 35  1  0  0  0  0
 15 36  1  0  0  0  0
 15 37  1  0  0  0  0
 16 38  1  0  0  0  0
 16 39  1  0  0  0  0
 16 40  1  0  0  0  0
 17 18  1  0  0  0  0
 17 41  1  0  0  0  0
 17 42  1  0  0  0  0
 18 19  1  0  0  0  0
 18 43  1  0  0  0  0
 18 44  1  0  0  0  0
 20 21  1  0  0  0  0
M  CHG  1   5  -1
M  CHG  1  12   1
M  END
> <s_m_source_file>
AV-unprocessed.smi

> <i_m_source_file_index>
1254

> <i_lp_mmshare_version>
43012

> <i_f3d_flags>
0

> <s_epik_input>
W0NIM11jMVtjSF1jKG5vMSlbTkhdQyg9TylbTkhdW0NIMl1bQ0BASF0yW0NIMl1OKFtDSDJdW0NIMl1PMilbQ0gyXVtDSF0oW0NIM10pW0NIM10=

> <s_epik_cmdline>
J2VwaWtfcHl0aG9uJywgJy1waCcsICc3LjAnLCAnLXRuJywgJzgnLCAnLW1hJywgJzIwMCcsICctbWV0YWxfYmluZGluZycsICctaW1hZScsICc8aW5maWxlLm1hZT4nLCAnLW9tYWUnLCAnPG91dGZpbGUubWFlPic=

> <r_epik_Ionization_Penalty>
6.33139

> <r_epik_Ionization_Penalty_Charging>
6.33128

> <r_epik_Ionization_Penalty_Neutral>
0.000104968

> <r_epik_State_Penalty>
6.32522

> <r_epik_Charging_Adjusted_Penalty>
12.6565

> <i_epik_Tot_Q>
0

> <i_epik_Tot_abs_Q>
2

> <r_epik_Metal_State_Penalty>
2.26285

> <b_epik_Metal_Only>
1

> <s_lp_Force_Field>
OPLS_2005

> <r_lp_Energy>
8.57964

> <b_lp_Chiralities_Consistent>
1

> <s_lp_Variant>
AV-unprocessed.smi:1254-8

> <Gold.Version>
5.8.1

> <Gold.Id.Protein>
6NUR|6NUR_protein|mol2

> <Gold.PLP.Fitness>
42.7626

> <Gold.PLP.PLP>
-27.5302

> <Gold.PLP.part.hbond>
-4.0000

> <Gold.PLP.part.metal>
0.0000

> <Gold.PLP.part.buried>
-3.2434

> <Gold.PLP.part.nonpolar>
-20.9162

> <Gold.PLP.part.repulsive>
0.1162

> <Gold.PLP.ligand.clash>
0.0000

> <Gold.PLP.ligand.torsion>
0.9939

> <Gold.PLP.Chemscore.Hbond>
5.6800

> <Gold.PLP.Chemscore.CHOScore>
0.0000

> <Gold.PLP.Chemscore.Metal>
0.0000

> <Gold.Chemscore.Hbonds>
donor molecule, donor type, donor heavy atom, donor atom, acceptor molecule, acceptor atom, score
      L1  H    12    45       P1  7948  2.00
      P1  H  6896  6909       L1     5  1.90
      P1  H  6931  6943       L1    21  0.77
      P1  H  6934  6947       L1    21  0.86

> <Gold.PLP.Chemscore.Internal.Correction>
0.1803

> <Gold.Rescore>
     Score         DG    S(hbond)    S(metal)    S(lipo)     H(rot)  DE(clash)    DE(int)     intcor
     14.71     -17.15       2.69        0.00      59.88       1.69       0.01       2.42       ----

> <Gold.Chemscore.Fitness>
14.7127

> <Gold.Chemscore.DG>
-17.1473

> <Gold.Chemscore.ZeroCoef>
-5.4800

> <Gold.Chemscore.Hbond>
2.6929

> <Gold.Chemscore.Metal>
0.0000

> <Gold.Chemscore.Lipo>
59.8804

> <Gold.Chemscore.Internal_Hbond>
0.0000

> <Gold.Chemscore.DEClash>
0.0137

> <Gold.Chemscore.DEInternal>
2.4210

> <Gold.Chemscore.Rot>
1.6926

> <Gold.Chemscore.Internal.Correction>
   9.000000E+99

> <Gold.Chemscore.Hbonds>
donor molecule, donor type, donor heavy atom, donor atom, acceptor molecule, acceptor atom, score
      L1  H    12    45       P1  7948  0.93
      P1  H  6896  6909       L1     5  0.05
      P1  H  6931  6943       L1    21  0.32
      P1  H  6934  6947       L1    21  0.81

> <Gold.Chemscore.Hbond.Weighted>
-8.9944

> <Gold.Chemscore.Metal.Weighted>
-0.0000

> <Gold.Chemscore.Lipo.Weighted>
-7.0060

> <Gold.Chemscore.Internal_Hbond.Weighted>
0.0000

> <Gold.Chemscore.DEClash.Weighted>
0.0137

> <Gold.Chemscore.DEInternal.Weighted>
2.4210

> <Gold.Chemscore.Rot.Weighted>
4.3330

> <Gold.Chemscore.Internal.Correction.Weighted>
   9.000000E+99

> <Gold.Protein.RotatedTorsions>
[ 6907 6896 6895 6894 ] final   21.13 input  -60.11 | X-H torsion
[ 7974 7965 7964 7962 ] final  -76.56 input  175.53 | X-H torsion
[ 8008 7997 7996 7995 ] final   10.09 input   59.86 | X-H torsion
[ 10167 10162 10161 10158 ] final  110.58 input  -65.29 | X-H torsion
[ 10718 10713 10712 10709 ] final  -85.17 input   66.30 | X-H torsion
[ 10763 10752 10751 10750 ] final -173.65 input  -60.55 | X-H torsion
[ 11005 11000 10999 10996 ] final  176.03 input  -57.11 | X-H torsion

> <Gold.Protein.ActiveResidues>
 VAL166  LYS551  ARG553  GLY616  TRP617  ASP618  TYR619  PRO620  LYS621  CYS622 
 ASP623  PHE694  ASN695  SER759  ASP760  ASP761  ALA762  ILE779  LEU786  VAL792 
 PHE793  MET794  SER795  GLU796  ALA797  LYS798  CYS799  TRP800  GLU811  SER814 

> <Gold.Protein.RotatedAtoms>
  151.9070  135.0354  160.0511 H   0  0  0  0  0  0  0  0  0  0  0  0  # atno 6907 bound_to 6896
  152.2311  133.5054  159.5224 H   0  0  0  0  0  0  0  0  0  0  0  0  # atno 6908 bound_to 6896
  150.7026  134.1132  159.4050 H   0  0  0  0  0  0  0  0  0  0  0  0  # atno 6909 bound_to 6896
  145.6112  140.9386  143.1188 H   0  0  0  0  0  0  0  0  0  0  0  0  # atno 7974 bound_to 7965
  154.7888  140.2832  155.6007 H   0  0  0  0  0  0  0  0  0  0  0  0  # atno 8008 bound_to 7997
  156.2961  140.2609  156.2659 H   0  0  0  0  0  0  0  0  0  0  0  0  # atno 8009 bound_to 7997
  154.9695  140.0376  157.2217 H   0  0  0  0  0  0  0  0  0  0  0  0  # atno 8010 bound_to 7997
  139.6677  144.7127  151.1746 H   0  0  0  0  0  0  0  0  0  0  0  0  # atno 10167 bound_to 10162
  155.9999  130.4722  150.4521 H   0  0  0  0  0  0  0  0  0  0  0  0  # atno 10718 bound_to 10713
  154.6053  135.2859  155.0491 H   0  0  0  0  0  0  0  0  0  0  0  0  # atno 10763 bound_to 10752
  154.1740  135.6468  153.5020 H   0  0  0  0  0  0  0  0  0  0  0  0  # atno 10764 bound_to 10752
  153.0173  135.5408  154.6787 H   0  0  0  0  0  0  0  0  0  0  0  0  # atno 10765 bound_to 10752
  140.3687  134.7049  157.4378 H   0  0  0  0  0  0  0  0  0  0  0  0  # atno 11005 bound_to 11000
  144.7269  139.7847  143.7361 LP  0  0  0  0  0  0  0  0  0  0  0  0  # atno 17320 bound_to 7965
  146.1503  139.4584  143.0053 LP  0  0  0  0  0  0  0  0  0  0  0  0  # atno 17321 bound_to 7965
  140.7606  143.5893  150.8813 LP  0  0  0  0  0  0  0  0  0  0  0  0  # atno 17342 bound_to 10162
  139.9556  143.6222  152.3017 LP  0  0  0  0  0  0  0  0  0  0  0  0  # atno 17343 bound_to 10162
  157.2553  131.0555  151.2354 LP  0  0  0  0  0  0  0  0  0  0  0  0  # atno 17370 bound_to 10713
  157.3488  130.7071  149.6427 LP  0  0  0  0  0  0  0  0  0  0  0  0  # atno 17371 bound_to 10713
  140.0569  134.6051  155.8794 LP  0  0  0  0  0  0  0  0  0  0  0  0  # atno 17394 bound_to 11000
  141.1961  133.6590  156.5677 LP  0  0  0  0  0  0  0  0  0  0  0  0  # atno 17395 bound_to 11000

$$$$
