AV-unprocessed.smi:2725|AV-procd|sdf|10516|dock5
  -GOLD-   2272014553D 1   1.00000     0.00000
 Structure written by MMmdl.
 44 45  0  0  0  0  0  0  0  0  1 V2000
  150.9765  140.4170  155.2653 O   0  0  0  0  0  0  0  0  0  0  0  0
  149.9665  140.2383  155.9454 C   0  0  0  0  0  0  0  0  0  0  0  0
  148.5809  140.2876  155.2976 C   0  0  0  0  0  0  0  0  0  0  0  0
  148.2770  141.6540  154.6567 C   0  0  0  0  0  0  0  0  0  0  0  0
  146.7712  141.9625  154.5841 C   0  0  0  0  0  0  0  0  0  0  0  0
  146.4158  143.1949  153.7460 C   0  0  0  0  0  0  0  0  0  0  0  0
  145.0270  143.6291  154.2303 C   0  0  0  0  0  0  0  0  0  0  0  0
  144.8329  142.9938  155.6154 C   0  0  0  0  0  0  0  0  0  0  0  0
  146.1475  142.2805  155.9445 C   0  0  0  0  0  0  0  0  0  0  0  0
  149.9965  139.9822  157.2618 N   0  0  0  0  0  0  0  0  0  0  0  0
  151.2040  139.8500  158.0767 C   0  0  1  0  0  0  0  0  0  0  0  0
  151.8276  138.4511  157.8822 C   0  0  0  0  0  0  0  0  0  0  0  0
  152.9408  138.2786  158.7333 O   0  0  0  0  0  0  0  0  0  0  0  0
  152.2018  140.9645  157.6951 C   0  0  0  0  0  0  0  0  0  0  0  0
  151.9085  142.3023  158.3558 C   0  0  0  0  0  0  0  0  0  0  0  0
  152.8135  142.8652  159.2816 C   0  0  0  0  0  0  0  0  0  0  0  0
  152.4964  144.1101  159.8583 C   0  0  0  0  0  0  0  0  0  0  0  0
  151.2922  144.7407  159.4909 C   0  0  0  0  0  0  0  0  0  0  0  0
  150.4557  144.0958  158.5580 C   0  0  0  0  0  0  0  0  0  0  0  0
  150.7506  142.9022  157.9991 N   0  0  0  0  0  0  0  0  0  0  0  0
  148.5340  139.4996  154.5457 H   0  0  0  0  0  0  0  0  0  0  0  0
  147.8185  140.0531  156.0422 H   0  0  0  0  0  0  0  0  0  0  0  0
  148.7683  142.4364  155.2373 H   0  0  0  0  0  0  0  0  0  0  0  0
  148.7078  141.7033  153.6555 H   0  0  0  0  0  0  0  0  0  0  0  0
  146.2488  141.0991  154.1684 H   0  0  0  0  0  0  0  0  0  0  0  0
  147.1319  143.9945  153.9405 H   0  0  0  0  0  0  0  0  0  0  0  0
  146.4344  142.9921  152.6746 H   0  0  0  0  0  0  0  0  0  0  0  0
  144.9483  144.7161  154.2695 H   0  0  0  0  0  0  0  0  0  0  0  0
  144.2565  143.2713  153.5464 H   0  0  0  0  0  0  0  0  0  0  0  0
  144.5754  143.7327  156.3750 H   0  0  0  0  0  0  0  0  0  0  0  0
  144.0178  142.2703  155.5748 H   0  0  0  0  0  0  0  0  0  0  0  0
  145.9959  141.3895  156.5546 H   0  0  0  0  0  0  0  0  0  0  0  0
  146.7968  142.9563  156.5031 H   0  0  0  0  0  0  0  0  0  0  0  0
  149.1145  139.8481  157.7342 H   0  0  0  0  0  0  0  0  0  0  0  0
  150.9537  139.9988  159.1293 H   0  0  0  0  0  0  0  0  0  0  0  0
  151.1007  137.6546  158.0463 H   0  0  0  0  0  0  0  0  0  0  0  0
  152.1936  138.3358  156.8613 H   0  0  0  0  0  0  0  0  0  0  0  0
  152.6469  138.3327  159.6297 H   0  0  0  0  0  0  0  0  0  0  0  0
  153.2154  140.6608  157.9606 H   0  0  0  0  0  0  0  0  0  0  0  0
  152.2037  141.1017  156.6128 H   0  0  0  0  0  0  0  0  0  0  0  0
  153.7313  142.3591  159.5421 H   0  0  0  0  0  0  0  0  0  0  0  0
  153.1649  144.5727  160.5694 H   0  0  0  0  0  0  0  0  0  0  0  0
  151.0163  145.6955  159.9133 H   0  0  0  0  0  0  0  0  0  0  0  0
  149.5246  144.5505  158.2535 H   0  0  0  0  0  0  0  0  0  0  0  0
  1  2  2  0  0  0  0
  2  3  1  0  0  0  0
  2 10  1  0  0  0  0
  3  4  1  0  0  0  0
  3 21  1  0  0  0  0
  3 22  1  0  0  0  0
  4  5  1  0  0  0  0
  4 23  1  0  0  0  0
  4 24  1  0  0  0  0
  5  9  1  0  0  0  0
  5  6  1  0  0  0  0
  5 25  1  0  0  0  0
  6  7  1  0  0  0  0
  6 26  1  0  0  0  0
  6 27  1  0  0  0  0
  7  8  1  0  0  0  0
  7 28  1  0  0  0  0
  7 29  1  0  0  0  0
  8  9  1  0  0  0  0
  8 30  1  0  0  0  0
  8 31  1  0  0  0  0
  9 32  1  0  0  0  0
  9 33  1  0  0  0  0
 10 11  1  0  0  0  0
 10 34  1  0  0  0  0
 11 12  1  0  0  0  0
 11 14  1  0  0  0  0
 11 35  1  0  0  0  0
 12 13  1  0  0  0  0
 12 36  1  0  0  0  0
 12 37  1  0  0  0  0
 13 38  1  0  0  0  0
 14 15  1  0  0  0  0
 14 39  1  0  0  0  0
 14 40  1  0  0  0  0
 15 20  1  0  0  0  0
 15 16  2  0  0  0  0
 16 17  1  0  0  0  0
 16 41  1  0  0  0  0
 17 18  2  0  0  0  0
 17 42  1  0  0  0  0
 18 19  1  0  0  0  0
 18 43  1  0  0  0  0
 19 20  2  0  0  0  0
 19 44  1  0  0  0  0
M  END
> <s_m_source_file>
AV-unprocessed.smi

> <i_m_source_file_index>
2725

> <i_lp_mmshare_version>
43012

> <i_f3d_flags>
0

> <s_epik_input>
W0NIMl0xW0NIMl1bQ0gyXVtDSDJdW0NIXTFbQ0gyXVtDSDJdQyg9TylbTkhdW0NASF0oW0NIMl1bT0hdKVtDSDJdYzJbY0hdW2NIXVtjSF1bY0hdbjI=

> <s_epik_cmdline>
J2VwaWtfcHl0aG9uJywgJy1waCcsICc3LjAnLCAnLXRuJywgJzgnLCAnLW1hJywgJzIwMCcsICctbWV0YWxfYmluZGluZycsICctaW1hZScsICc8aW5maWxlLm1hZT4nLCAnLW9tYWUnLCAnPG91dGZpbGUubWFlPic=

> <r_epik_Ionization_Penalty>
0.0257016

> <r_epik_Ionization_Penalty_Charging>
0

> <r_epik_Ionization_Penalty_Neutral>
0.0257016

> <r_epik_State_Penalty>
0.0209381

> <r_epik_Charging_Adjusted_Penalty>
0.0209381

> <i_epik_Tot_Q>
0

> <i_epik_Tot_abs_Q>
0

> <r_epik_Metal_State_Penalty>
0.0200649

> <b_epik_Metal_Only>
0

> <s_lp_Force_Field>
OPLS_2005

> <r_lp_Energy>
24.1231

> <b_lp_Chiralities_Consistent>
1

> <s_lp_Variant>
AV-unprocessed.smi:2725-2

> <Gold.Version>
5.8.1

> <Gold.Id.Protein>
6NUR|6NUR_protein|mol2

> <Gold.PLP.Fitness>
42.2419

> <Gold.PLP.PLP>
-37.2218

> <Gold.PLP.part.hbond>
-1.0000

> <Gold.PLP.part.metal>
0.0000

> <Gold.PLP.part.buried>
-6.3216

> <Gold.PLP.part.nonpolar>
-29.6247

> <Gold.PLP.part.repulsive>
0.1998

> <Gold.PLP.ligand.clash>
0.0000

> <Gold.PLP.ligand.torsion>
0.7140

> <Gold.PLP.Chemscore.Hbond>
1.0000

> <Gold.PLP.Chemscore.CHOScore>
1.1194

> <Gold.PLP.Chemscore.Metal>
0.0000

> <Gold.Chemscore.Hbonds>
donor molecule, donor type, donor heavy atom, donor atom, acceptor molecule, acceptor atom, score
      P1  H  7989  7998       L1     1  1.00
      L1  C    19    44       P1  8028  0.16
      L1  C    19    44       P1  8029  0.93

> <Gold.PLP.Chemscore.Internal.Correction>
0.0899

> <Gold.Rescore>
     Score         DG    S(hbond)    S(metal)    S(lipo)     H(rot)  DE(clash)    DE(int)     intcor
     12.51     -14.83       0.93        0.00     106.88       2.44       0.06       2.27       ----

> <Gold.Chemscore.Fitness>
12.5088

> <Gold.Chemscore.DG>
-14.8341

> <Gold.Chemscore.ZeroCoef>
-5.4800

> <Gold.Chemscore.Hbond>
0.9280

> <Gold.Chemscore.Metal>
0.0000

> <Gold.Chemscore.Lipo>
106.8811

> <Gold.Chemscore.Internal_Hbond>
0.0000

> <Gold.Chemscore.DEClash>
0.0593

> <Gold.Chemscore.DEInternal>
2.2660

> <Gold.Chemscore.Rot>
2.4416

> <Gold.Chemscore.Internal.Correction>
   9.000000E+99

> <Gold.Chemscore.Hbonds>
donor molecule, donor type, donor heavy atom, donor atom, acceptor molecule, acceptor atom, score
      P1  H  7989  7998       L1     1  0.95

> <Gold.Chemscore.Hbond.Weighted>
-3.0995

> <Gold.Chemscore.Metal.Weighted>
-0.0000

> <Gold.Chemscore.Lipo.Weighted>
-12.5051

> <Gold.Chemscore.Internal_Hbond.Weighted>
0.0000

> <Gold.Chemscore.DEClash.Weighted>
0.0593

> <Gold.Chemscore.DEInternal.Weighted>
2.2660

> <Gold.Chemscore.Rot.Weighted>
6.2505

> <Gold.Chemscore.Internal.Correction.Weighted>
   9.000000E+99

> <Gold.Protein.RotatedTorsions>
[ 6907 6896 6895 6894 ] final  -12.52 input  -60.11 | X-H torsion
[ 7974 7965 7964 7962 ] final  148.82 input  175.53 | X-H torsion
[ 8008 7997 7996 7995 ] final   15.21 input   59.86 | X-H torsion
[ 10167 10162 10161 10158 ] final   89.07 input  -65.29 | X-H torsion
[ 10718 10713 10712 10709 ] final  129.48 input   66.30 | X-H torsion
[ 10763 10752 10751 10750 ] final  -54.32 input  -60.55 | X-H torsion
[ 11005 11000 10999 10996 ] final  149.95 input  -57.11 | X-H torsion

> <Gold.Protein.ActiveResidues>
 VAL166  LYS551  ARG553  GLY616  TRP617  ASP618  TYR619  PRO620  LYS621  CYS622 
 ASP623  PHE694  ASN695  SER759  ASP760  ASP761  ALA762  ILE779  LEU786  VAL792 
 PHE793  MET794  SER795  GLU796  ALA797  LYS798  CYS799  TRP800  GLU811  SER814 

> <Gold.Protein.RotatedAtoms>
  151.3693  135.0919  159.9459 H   0  0  0  0  0  0  0  0  0  0  0  0  # atno 6907 bound_to 6896
  152.5140  133.9181  159.7531 H   0  0  0  0  0  0  0  0  0  0  0  0  # atno 6908 bound_to 6896
  150.9591  133.6410  159.2787 H   0  0  0  0  0  0  0  0  0  0  0  0  # atno 6909 bound_to 6896
  144.8485  139.6201  143.5984 H   0  0  0  0  0  0  0  0  0  0  0  0  # atno 7974 bound_to 7965
  154.8595  140.2942  155.5548 H   0  0  0  0  0  0  0  0  0  0  0  0  # atno 8008 bound_to 7997
  156.3019  140.2481  156.3499 H   0  0  0  0  0  0  0  0  0  0  0  0  # atno 8009 bound_to 7997
  154.8934  140.0394  157.1841 H   0  0  0  0  0  0  0  0  0  0  0  0  # atno 8010 bound_to 7997
  139.8610  144.6544  150.9059 H   0  0  0  0  0  0  0  0  0  0  0  0  # atno 10167 bound_to 10162
  157.5150  131.1097  150.9238 H   0  0  0  0  0  0  0  0  0  0  0  0  # atno 10718 bound_to 10713
  154.1730  135.6456  153.5014 H   0  0  0  0  0  0  0  0  0  0  0  0  # atno 10763 bound_to 10752
  153.0079  135.5388  154.6593 H   0  0  0  0  0  0  0  0  0  0  0  0  # atno 10764 bound_to 10752
  154.5937  135.2937  155.0580 H   0  0  0  0  0  0  0  0  0  0  0  0  # atno 10765 bound_to 10752
  140.1089  134.8936  157.1907 H   0  0  0  0  0  0  0  0  0  0  0  0  # atno 11005 bound_to 11000
  146.2765  139.6765  142.9259 LP  0  0  0  0  0  0  0  0  0  0  0  0  # atno 17320 bound_to 7965
  145.4548  141.0430  143.2784 LP  0  0  0  0  0  0  0  0  0  0  0  0  # atno 17321 bound_to 7965
  140.7775  143.3744  151.1589 LP  0  0  0  0  0  0  0  0  0  0  0  0  # atno 17342 bound_to 10162
  139.7374  143.8978  152.3039 LP  0  0  0  0  0  0  0  0  0  0  0  0  # atno 17343 bound_to 10162
  156.9866  130.5547  149.5300 LP  0  0  0  0  0  0  0  0  0  0  0  0  # atno 17370 bound_to 10713
  156.0314  130.5405  150.8544 LP  0  0  0  0  0  0  0  0  0  0  0  0  # atno 17371 bound_to 10713
  140.3118  134.3015  155.7265 LP  0  0  0  0  0  0  0  0  0  0  0  0  # atno 17394 bound_to 11000
  141.2125  133.7655  156.9787 LP  0  0  0  0  0  0  0  0  0  0  0  0  # atno 17395 bound_to 11000

$$$$
