AV-unprocessed.smi:1301|AV-procd|sdf|5424|dock7
  -GOLD-   22720 4583D 1   1.00000     0.00000
 Structure written by MMmdl.
 44 45  0  0  0  0  0  0  0  0  3 V2000
  148.6953  140.9572  154.4257 C   0  0  0  0  0  0  0  0  0  0  0  0
  149.6557  139.8184  154.4660 C   0  0  0  0  0  0  0  0  0  0  0  0
  149.4976  138.4661  154.3536 C   0  0  0  0  0  0  0  0  0  0  0  0
  150.8251  137.9730  154.4785 C   0  0  0  0  0  0  0  0  0  0  0  0
  151.1962  136.6839  154.4463 N   0  5  0  0  0  0  0  0  0  0  0  0
  150.5279  135.7651  155.1797 C   0  0  0  0  0  0  0  0  0  0  0  0
  150.7442  135.4671  156.3565 O   0  0  0  0  0  0  0  0  0  0  0  0
  149.5399  135.1594  154.5061 N   0  0  0  0  0  0  0  0  0  0  0  0
  148.6217  134.1507  155.0338 C   0  0  2  0  0  0  0  0  0  0  0  0
  148.8178  132.8169  154.2937 C   0  0  0  0  0  0  0  0  0  0  0  0
  148.3214  132.8906  152.8375 C   0  0  0  0  0  0  0  0  0  0  0  0
  146.9018  133.3237  152.7689 N   0  3  2  0  0  0  0  0  0  0  0  0
  146.3676  133.2769  151.3832 C   0  0  0  0  0  0  0  0  0  0  0  0
  144.8790  132.8697  151.3190 C   0  0  0  0  0  0  0  0  0  0  0  0
  144.4738  132.3939  149.9136 C   0  0  0  0  0  0  0  0  0  0  0  0
  143.9816  134.0320  151.7699 C   0  0  0  0  0  0  0  0  0  0  0  0
  146.6971  134.6382  153.4339 C   0  0  0  0  0  0  0  0  0  0  0  0
  147.1509  134.5927  154.9030 C   0  0  0  0  0  0  0  0  0  0  0  0
  151.7083  138.9391  154.6668 N   0  0  0  0  0  0  0  0  0  0  0  0
  150.9669  140.1266  154.6545 O   0  0  0  0  0  0  0  0  0  0  0  0
  148.1950  141.0723  155.3871 H   0  0  0  0  0  0  0  0  0  0  0  0
  147.9331  140.7933  153.6639 H   0  0  0  0  0  0  0  0  0  0  0  0
  149.2061  141.8924  154.1954 H   0  0  0  0  0  0  0  0  0  0  0  0
  148.5805  137.9171  154.2015 H   0  0  0  0  0  0  0  0  0  0  0  0
  149.4130  135.4322  153.5424 H   0  0  0  0  0  0  0  0  0  0  0  0
  148.8576  133.9971  156.0883 H   0  0  0  0  0  0  0  0  0  0  0  0
  149.8677  132.5222  154.3172 H   0  0  0  0  0  0  0  0  0  0  0  0
  148.2712  132.0319  154.8180 H   0  0  0  0  0  0  0  0  0  0  0  0
  148.9407  133.5770  152.2577 H   0  0  0  0  0  0  0  0  0  0  0  0
  148.4280  131.9069  152.3785 H   0  0  0  0  0  0  0  0  0  0  0  0
  146.5236  134.2467  150.9077 H   0  0  0  0  0  0  0  0  0  0  0  0
  146.9409  132.5582  150.7956 H   0  0  0  0  0  0  0  0  0  0  0  0
  144.6997  132.0505  152.0143 H   0  0  0  0  0  0  0  0  0  0  0  0
  144.6319  133.1745  149.1691 H   0  0  0  0  0  0  0  0  0  0  0  0
  143.4198  132.1159  149.8833 H   0  0  0  0  0  0  0  0  0  0  0  0
  145.0472  131.5189  149.6067 H   0  0  0  0  0  0  0  0  0  0  0  0
  144.0899  134.8964  151.1139 H   0  0  0  0  0  0  0  0  0  0  0  0
  144.2287  134.3500  152.7832 H   0  0  0  0  0  0  0  0  0  0  0  0
  142.9304  133.7422  151.7658 H   0  0  0  0  0  0  0  0  0  0  0  0
  147.2441  135.4123  152.8931 H   0  0  0  0  0  0  0  0  0  0  0  0
  145.6459  134.9209  153.4032 H   0  0  0  0  0  0  0  0  0  0  0  0
  146.5171  133.8943  155.4511 H   0  0  0  0  0  0  0  0  0  0  0  0
  146.9962  135.5658  155.3703 H   0  0  0  0  0  0  0  0  0  0  0  0
  146.3772  132.6422  153.2983 H   0  0  0  0  0  0  0  0  0  0  0  0
  1  2  1  0  0  0  0
  1 21  1  0  0  0  0
  1 22  1  0  0  0  0
  1 23  1  0  0  0  0
  2 20  1  0  0  0  0
  2  3  2  0  0  0  0
  3  4  1  0  0  0  0
  3 24  1  0  0  0  0
  4  5  1  0  0  0  0
  4 19  2  0  0  0  0
  5  6  1  0  0  0  0
  6  7  2  0  0  0  0
  6  8  1  0  0  0  0
  8  9  1  0  0  0  0
  8 25  1  0  0  0  0
  9 18  1  0  0  0  0
  9 10  1  0  0  0  0
  9 26  1  0  0  0  0
 10 11  1  0  0  0  0
 10 27  1  0  0  0  0
 10 28  1  0  0  0  0
 11 12  1  0  0  0  0
 11 29  1  0  0  0  0
 11 30  1  0  0  0  0
 12 13  1  0  0  0  0
 12 17  1  0  0  0  0
 12 44  1  0  0  0  0
 13 14  1  0  0  0  0
 13 31  1  0  0  0  0
 13 32  1  0  0  0  0
 14 15  1  0  0  0  0
 14 16  1  0  0  0  0
 14 33  1  0  0  0  0
 15 34  1  0  0  0  0
 15 35  1  0  0  0  0
 15 36  1  0  0  0  0
 16 37  1  0  0  0  0
 16 38  1  0  0  0  0
 16 39  1  0  0  0  0
 17 18  1  0  0  0  0
 17 40  1  0  0  0  0
 17 41  1  0  0  0  0
 18 42  1  0  0  0  0
 18 43  1  0  0  0  0
 19 20  1  0  0  0  0
M  CHG  1   5  -1
M  CHG  1  12   1
M  END
> <s_m_source_file>
AV-unprocessed.smi

> <i_m_source_file_index>
1301

> <i_lp_mmshare_version>
43012

> <i_f3d_flags>
0

> <s_epik_input>
W0NIM11jMVtjSF1jKG5vMSlbTkhdQyg9TylbTkhdW0NIXTJbQ0gyXVtDSDJdTihbQ0gyXVtDSDJdMilbQ0gyXVtDSF0oW0NIM10pW0NIM10=

> <s_epik_cmdline>
J2VwaWtfcHl0aG9uJywgJy1waCcsICc3LjAnLCAnLXRuJywgJzgnLCAnLW1hJywgJzIwMCcsICctbWV0YWxfYmluZGluZycsICctaW1hZScsICc8aW5maWxlLm1hZT4nLCAnLW9tYWUnLCAnPG91dGZpbGUubWFlPic=

> <r_epik_Ionization_Penalty>
6.28597

> <r_epik_Ionization_Penalty_Charging>
6.28587

> <r_epik_Ionization_Penalty_Neutral>
9.69304e-05

> <r_epik_State_Penalty>
6.28524

> <r_epik_Charging_Adjusted_Penalty>
12.5711

> <i_epik_Tot_Q>
0

> <i_epik_Tot_abs_Q>
2

> <r_epik_Metal_State_Penalty>
2.21973

> <b_epik_Metal_Only>
1

> <s_lp_Force_Field>
OPLS_2005

> <r_lp_Energy>
6.70583

> <b_lp_Chiralities_Consistent>
1

> <s_lp_Variant>
AV-unprocessed.smi:1301-4

> <Gold.Version>
5.8.1

> <Gold.Id.Protein>
6NUR|6NUR_protein|mol2

> <Gold.PLP.Fitness>
43.4035

> <Gold.PLP.PLP>
-34.6795

> <Gold.PLP.part.hbond>
-3.2291

> <Gold.PLP.part.metal>
0.0000

> <Gold.PLP.part.buried>
-6.4418

> <Gold.PLP.part.nonpolar>
-27.0105

> <Gold.PLP.part.repulsive>
0.8428

> <Gold.PLP.ligand.clash>
0.0000

> <Gold.PLP.ligand.torsion>
1.7012

> <Gold.PLP.Chemscore.Hbond>
4.0000

> <Gold.PLP.Chemscore.CHOScore>
0.0000

> <Gold.PLP.Chemscore.Metal>
0.0000

> <Gold.Chemscore.Hbonds>
donor molecule, donor type, donor heavy atom, donor atom, acceptor molecule, acceptor atom, score
      L1  H     8    25       P1  7948  0.95
      P1  H  7989  7998       L1    20  0.99
      P1  H 10752 10764       L1     5  1.70

> <Gold.PLP.Chemscore.Internal.Correction>
0.1264

> <Gold.Rescore>
     Score         DG    S(hbond)    S(metal)    S(lipo)     H(rot)  DE(clash)    DE(int)     intcor
     13.94     -15.85       1.80        0.00      67.95       1.41       0.00       1.92       ----

> <Gold.Chemscore.Fitness>
13.9351

> <Gold.Chemscore.DG>
-15.8505

> <Gold.Chemscore.ZeroCoef>
-5.4800

> <Gold.Chemscore.Hbond>
1.8025

> <Gold.Chemscore.Metal>
0.0000

> <Gold.Chemscore.Lipo>
67.9531

> <Gold.Chemscore.Internal_Hbond>
0.0000

> <Gold.Chemscore.DEClash>
0.0000

> <Gold.Chemscore.DEInternal>
1.9154

> <Gold.Chemscore.Rot>
1.4063

> <Gold.Chemscore.Internal.Correction>
   9.000000E+99

> <Gold.Chemscore.Hbonds>
donor molecule, donor type, donor heavy atom, donor atom, acceptor molecule, acceptor atom, score
      L1  H     8    25       P1  7948  0.22
      P1  H  7989  7998       L1    20  0.25
      P1  H 10752 10764       L1     5  0.14

> <Gold.Chemscore.Hbond.Weighted>
-6.0202

> <Gold.Chemscore.Metal.Weighted>
-0.0000

> <Gold.Chemscore.Lipo.Weighted>
-7.9505

> <Gold.Chemscore.Internal_Hbond.Weighted>
0.0000

> <Gold.Chemscore.DEClash.Weighted>
0.0000

> <Gold.Chemscore.DEInternal.Weighted>
1.9154

> <Gold.Chemscore.Rot.Weighted>
3.6002

> <Gold.Chemscore.Internal.Correction.Weighted>
   9.000000E+99

> <Gold.Protein.RotatedTorsions>
[ 6907 6896 6895 6894 ] final -168.57 input  -60.11 | X-H torsion
[ 7974 7965 7964 7962 ] final  -10.11 input  175.53 | X-H torsion
[ 8008 7997 7996 7995 ] final   22.22 input   59.86 | X-H torsion
[ 10167 10162 10161 10158 ] final   51.69 input  -65.29 | X-H torsion
[ 10718 10713 10712 10709 ] final  115.68 input   66.30 | X-H torsion
[ 10763 10752 10751 10750 ] final  -76.76 input  -60.55 | X-H torsion
[ 11005 11000 10999 10996 ] final  102.81 input  -57.11 | X-H torsion

> <Gold.Protein.ActiveResidues>
 VAL166  LYS551  ARG553  GLY616  TRP617  ASP618  TYR619  PRO620  LYS621  CYS622 
 ASP623  PHE694  ASN695  SER759  ASP760  ASP761  ALA762  ILE779  LEU786  VAL792 
 PHE793  MET794  SER795  GLU796  ALA797  LYS798  CYS799  TRP800  GLU811  SER814 

> <Gold.Protein.RotatedAtoms>
  151.4777  133.3554  159.2833 H   0  0  0  0  0  0  0  0  0  0  0  0  # atno 6907 bound_to 6896
  150.8918  134.8325  159.7310 H   0  0  0  0  0  0  0  0  0  0  0  0  # atno 6908 bound_to 6896
  152.4827  134.4687  159.9680 H   0  0  0  0  0  0  0  0  0  0  0  0  # atno 6909 bound_to 6896
  146.2231  140.2715  142.8357 H   0  0  0  0  0  0  0  0  0  0  0  0  # atno 7974 bound_to 7965
  154.9624  140.3079  155.5025 H   0  0  0  0  0  0  0  0  0  0  0  0  # atno 8008 bound_to 7997
  156.2975  140.2299  156.4649 H   0  0  0  0  0  0  0  0  0  0  0  0  # atno 8009 bound_to 7997
  154.7953  140.0437  157.1220 H   0  0  0  0  0  0  0  0  0  0  0  0  # atno 8010 bound_to 7997
  140.2593  144.3391  150.6323 H   0  0  0  0  0  0  0  0  0  0  0  0  # atno 10167 bound_to 10162
  157.6207  131.1015  150.7364 H   0  0  0  0  0  0  0  0  0  0  0  0  # atno 10718 bound_to 10713
  154.5041  135.5787  153.6553 H   0  0  0  0  0  0  0  0  0  0  0  0  # atno 10763 bound_to 10752
  152.9884  135.6143  154.2965 H   0  0  0  0  0  0  0  0  0  0  0  0  # atno 10764 bound_to 10752
  154.2874  135.2849  155.2649 H   0  0  0  0  0  0  0  0  0  0  0  0  # atno 10765 bound_to 10752
  139.8779  134.9238  156.5114 H   0  0  0  0  0  0  0  0  0  0  0  0  # atno 11005 bound_to 11000
  144.9264  140.7926  143.5716 LP  0  0  0  0  0  0  0  0  0  0  0  0  # atno 17320 bound_to 7965
  145.2655  139.1975  143.4869 LP  0  0  0  0  0  0  0  0  0  0  0  0  # atno 17321 bound_to 7965
  140.5979  143.2167  151.7129 LP  0  0  0  0  0  0  0  0  0  0  0  0  # atno 17342 bound_to 10162
  139.5022  144.3839  152.0348 LP  0  0  0  0  0  0  0  0  0  0  0  0  # atno 17343 bound_to 10162
  156.7722  130.4832  149.5416 LP  0  0  0  0  0  0  0  0  0  0  0  0  # atno 17370 bound_to 10713
  156.1351  130.6205  151.0389 LP  0  0  0  0  0  0  0  0  0  0  0  0  # atno 17371 bound_to 10713
  140.8517  133.8127  155.9176 LP  0  0  0  0  0  0  0  0  0  0  0  0  # atno 17394 bound_to 11000
  140.9137  134.2228  157.4970 LP  0  0  0  0  0  0  0  0  0  0  0  0  # atno 17395 bound_to 11000

$$$$
