AV-unprocessed.smi:1208|AV-procd|sdf|5068|dock9
  -GOLD-   22720 4113D 1   1.00000     0.00000
 Structure written by MMmdl.
 36 37  0  0  0  0  0  0  0  0  1 V2000
  151.5475  140.6611  156.2765 C   0  0  0  0  0  0  0  0  0  0  0  0
  150.8293  142.0160  156.3737 C   0  0  1  0  0  0  0  0  0  0  0  0
  149.4358  141.8297  155.9763 N   0  0  0  0  0  0  0  0  0  0  0  0
  149.0150  141.3944  154.7784 C   0  0  0  0  0  0  0  0  0  0  0  0
  149.7821  141.0913  153.8632 O   0  0  0  0  0  0  0  0  0  0  0  0
  147.4917  141.3024  154.6019 C   0  0  0  0  0  0  0  0  0  0  0  0
  147.0285  139.9810  154.1537 N   0  0  0  0  0  0  0  0  0  0  0  0
  147.0212  139.8235  152.7759 N   0  0  0  0  0  0  0  0  0  0  0  0
  146.6538  138.7009  152.2573 C   0  0  0  0  0  0  0  0  0  0  0  0
  146.6658  138.5875  150.8888 O   0  0  0  0  0  0  0  0  0  0  0  0
  146.2404  137.5919  153.0883 C   0  0  0  0  0  0  0  0  0  0  0  0
  146.2480  137.7557  154.4293 C   0  0  0  0  0  0  0  0  0  0  0  0
  146.6616  139.0150  155.0512 C   0  0  0  0  0  0  0  0  0  0  0  0
  146.6819  139.1903  156.2693 O   0  0  0  0  0  0  0  0  0  0  0  0
  150.8985  142.6145  157.7950 C   0  0  1  0  0  0  0  0  0  0  0  0
  151.9959  143.6593  157.9973 C   0  0  0  0  0  0  0  0  0  0  0  0
  151.4981  144.4680  159.1836 C   0  0  0  0  0  0  0  0  0  0  0  0
  149.9987  144.1631  159.2373 C   0  0  0  0  0  0  0  0  0  0  0  0
  149.7328  143.3702  158.0886 O   0  0  0  0  0  0  0  0  0  0  0  0
  145.7770  138.7559  150.6160 H   0  0  0  0  0  0  0  0  0  0  0  0
  152.6089  140.7552  156.5062 H   0  0  0  0  0  0  0  0  0  0  0  0
  151.4708  140.2483  155.2702 H   0  0  0  0  0  0  0  0  0  0  0  0
  151.1204  139.9339  156.9681 H   0  0  0  0  0  0  0  0  0  0  0  0
  151.3189  142.6994  155.6773 H   0  0  0  0  0  0  0  0  0  0  0  0
  148.7347  142.0587  156.6657 H   0  0  0  0  0  0  0  0  0  0  0  0
  147.0090  141.5777  155.5412 H   0  0  0  0  0  0  0  0  0  0  0  0
  147.1834  142.0642  153.8836 H   0  0  0  0  0  0  0  0  0  0  0  0
  145.9350  136.6588  152.6380 H   0  0  0  0  0  0  0  0  0  0  0  0
  145.9422  136.9355  155.0620 H   0  0  0  0  0  0  0  0  0  0  0  0
  151.0008  141.8216  158.5388 H   0  0  0  0  0  0  0  0  0  0  0  0
  152.9768  143.2162  158.1711 H   0  0  0  0  0  0  0  0  0  0  0  0
  152.0668  144.3039  157.1202 H   0  0  0  0  0  0  0  0  0  0  0  0
  151.9828  144.1492  160.1070 H   0  0  0  0  0  0  0  0  0  0  0  0
  151.6962  145.5318  159.0493 H   0  0  0  0  0  0  0  0  0  0  0  0
  149.7548  143.5921  160.1341 H   0  0  0  0  0  0  0  0  0  0  0  0
  149.3886  145.0666  159.2324 H   0  0  0  0  0  0  0  0  0  0  0  0
  1  2  1  0  0  0  0
  1 21  1  0  0  0  0
  1 22  1  0  0  0  0
  1 23  1  0  0  0  0
  2  3  1  0  0  0  0
  2 15  1  0  0  0  0
  2 24  1  0  0  0  0
  3  4  1  0  0  0  0
  3 25  1  0  0  0  0
  4  5  2  0  0  0  0
  4  6  1  0  0  0  0
  6 26  1  0  0  0  0
  6 27  1  0  0  0  0
  6  7  1  0  0  0  0
  7  8  1  0  0  0  0
  7 13  1  0  0  0  0
  8  9  2  0  0  0  0
  9 10  1  0  0  0  0
  9 11  1  0  0  0  0
 10 20  1  0  0  0  0
 11 28  1  0  0  0  0
 11 12  2  0  0  0  0
 12 29  1  0  0  0  0
 12 13  1  0  0  0  0
 13 14  2  0  0  0  0
 15 19  1  0  0  0  0
 15 16  1  0  0  0  0
 15 30  1  0  0  0  0
 16 17  1  0  0  0  0
 16 31  1  0  0  0  0
 16 32  1  0  0  0  0
 17 18  1  0  0  0  0
 17 33  1  0  0  0  0
 17 34  1  0  0  0  0
 18 19  1  0  0  0  0
 18 35  1  0  0  0  0
 18 36  1  0  0  0  0
M  END
> <s_m_source_file>
AV-unprocessed.smi

> <i_m_source_file_index>
1208

> <i_lp_mmshare_version>
43012

> <i_f3d_flags>
0

> <s_epik_input>
TzFbQ0gyXVtDSDJdW0NIMl1bQ0BIXTFbQ0BIXShbQ0gzXSlbTkhdQyg9TylbQ0gyXW4yW25IXWMoPU8pW2NIXVtjSF1jMj1P

> <s_epik_cmdline>
J2VwaWtfcHl0aG9uJywgJy1waCcsICc3LjAnLCAnLXRuJywgJzgnLCAnLW1hJywgJzIwMCcsICctbWV0YWxfYmluZGluZycsICctaW1hZScsICc8aW5maWxlLm1hZT4nLCAnLW9tYWUnLCAnPG91dGZpbGUubWFlPic=

> <r_lp_tautomer_probability>
0.9996

> <r_epik_Ionization_Penalty>
2.12735

> <r_epik_Ionization_Penalty_Charging>
3.86665e-08

> <r_epik_Ionization_Penalty_Neutral>
2.12735

> <r_epik_State_Penalty>
1.70441

> <r_epik_Charging_Adjusted_Penalty>
1.70441

> <i_epik_Tot_Q>
0

> <i_epik_Tot_abs_Q>
0

> <r_epik_Metal_State_Penalty>
1.70441

> <b_epik_Metal_Only>
0

> <s_lp_Force_Field>
OPLS_2005

> <r_lp_Energy>
29.9915

> <b_lp_Chiralities_Consistent>
1

> <s_lp_Variant>
AV-unprocessed.smi:1208-8

> <Gold.Version>
5.8.1

> <Gold.Id.Protein>
6NUR|6NUR_protein|mol2

> <Gold.PLP.Fitness>
38.8749

> <Gold.PLP.PLP>
-32.1212

> <Gold.PLP.part.hbond>
-5.2167

> <Gold.PLP.part.metal>
0.0000

> <Gold.PLP.part.buried>
-6.4309

> <Gold.PLP.part.nonpolar>
-25.1533

> <Gold.PLP.part.repulsive>
3.9504

> <Gold.PLP.ligand.clash>
0.0000

> <Gold.PLP.ligand.torsion>
1.3749

> <Gold.PLP.Chemscore.Hbond>
3.1600

> <Gold.PLP.Chemscore.CHOScore>
0.0000

> <Gold.PLP.Chemscore.Metal>
0.0000

> <Gold.Chemscore.Hbonds>
donor molecule, donor type, donor heavy atom, donor atom, acceptor molecule, acceptor atom, score
      L1  H    10    20       P1 10171  0.94
      P1  H  7954  7966       L1    10  0.94
      P1  H  7989  7998       L1     5  0.35
      P1  H  8011  8017       L1     5  0.86

> <Gold.PLP.Chemscore.Internal.Correction>
0.0235

> <Gold.Rescore>
     Score         DG    S(hbond)    S(metal)    S(lipo)     H(rot)  DE(clash)    DE(int)     intcor
     13.21     -15.71       2.95        0.00      60.80       2.63       0.97       1.53       ----

> <Gold.Chemscore.Fitness>
13.2142

> <Gold.Chemscore.DG>
-15.7112

> <Gold.Chemscore.ZeroCoef>
-5.4800

> <Gold.Chemscore.Hbond>
2.9464

> <Gold.Chemscore.Metal>
0.0000

> <Gold.Chemscore.Lipo>
60.8042

> <Gold.Chemscore.Internal_Hbond>
0.0000

> <Gold.Chemscore.DEClash>
0.9681

> <Gold.Chemscore.DEInternal>
1.5289

> <Gold.Chemscore.Rot>
2.6264

> <Gold.Chemscore.Internal.Correction>
   9.000000E+99

> <Gold.Chemscore.Hbonds>
donor molecule, donor type, donor heavy atom, donor atom, acceptor molecule, acceptor atom, score
      L1  H    10    20       P1 10171  0.90
      P1  H  7954  7966       L1    10  0.90
      P1  H  7989  7998       L1     5  0.36
      P1  H  8011  8017       L1     5  0.71

> <Gold.Chemscore.Hbond.Weighted>
-9.8408

> <Gold.Chemscore.Metal.Weighted>
-0.0000

> <Gold.Chemscore.Lipo.Weighted>
-7.1141

> <Gold.Chemscore.Internal_Hbond.Weighted>
0.0000

> <Gold.Chemscore.DEClash.Weighted>
0.9681

> <Gold.Chemscore.DEInternal.Weighted>
1.5289

> <Gold.Chemscore.Rot.Weighted>
6.7237

> <Gold.Chemscore.Internal.Correction.Weighted>
   9.000000E+99

> <Gold.Protein.RotatedTorsions>
[ 6907 6896 6895 6894 ] final  -59.09 input  -60.11 | X-H torsion
[ 7974 7965 7964 7962 ] final   46.61 input  175.53 | X-H torsion
[ 8008 7997 7996 7995 ] final -103.64 input   59.86 | X-H torsion
[ 10167 10162 10161 10158 ] final   34.34 input  -65.29 | X-H torsion
[ 10718 10713 10712 10709 ] final -172.32 input   66.30 | X-H torsion
[ 10763 10752 10751 10750 ] final -138.20 input  -60.55 | X-H torsion
[ 11005 11000 10999 10996 ] final -171.76 input  -57.11 | X-H torsion

> <Gold.Protein.ActiveResidues>
 VAL166  LYS551  ARG553  GLY616  TRP617  ASP618  TYR619  PRO620  LYS621  CYS622 
 ASP623  PHE694  ASN695  SER759  ASP760  ASP761  ALA762  ILE779  LEU786  VAL792 
 PHE793  MET794  SER795  GLU796  ALA797  LYS798  CYS799  TRP800  GLU811  SER814 

> <Gold.Protein.RotatedAtoms>
  150.7957  134.7014  159.6552 H   0  0  0  0  0  0  0  0  0  0  0  0  # atno 6907 bound_to 6896
  152.4069  134.6189  160.0055 H   0  0  0  0  0  0  0  0  0  0  0  0  # atno 6908 bound_to 6896
  151.6443  133.3287  159.3173 H   0  0  0  0  0  0  0  0  0  0  0  0  # atno 6909 bound_to 6896
  146.0374  139.4838  142.9799 H   0  0  0  0  0  0  0  0  0  0  0  0  # atno 7974 bound_to 7965
  154.8738  140.0422  157.1741 H   0  0  0  0  0  0  0  0  0  0  0  0  # atno 8008 bound_to 7997
  154.8711  140.2958  155.5460 H   0  0  0  0  0  0  0  0  0  0  0  0  # atno 8009 bound_to 7997
  156.2999  140.2429  156.3700 H   0  0  0  0  0  0  0  0  0  0  0  0  # atno 8010 bound_to 7997
  140.4324  144.1306  150.6161 H   0  0  0  0  0  0  0  0  0  0  0  0  # atno 10167 bound_to 10162
  156.7538  130.9388  151.3115 H   0  0  0  0  0  0  0  0  0  0  0  0  # atno 10718 bound_to 10713
  154.8643  135.3619  154.5346 H   0  0  0  0  0  0  0  0  0  0  0  0  # atno 10763 bound_to 10752
  153.5970  135.7014  153.5404 H   0  0  0  0  0  0  0  0  0  0  0  0  # atno 10764 bound_to 10752
  153.3324  135.4121  155.1467 H   0  0  0  0  0  0  0  0  0  0  0  0  # atno 10765 bound_to 10752
  140.5046  134.5861  157.4999 H   0  0  0  0  0  0  0  0  0  0  0  0  # atno 11005 bound_to 11000
  145.6941  141.0155  143.1540 LP  0  0  0  0  0  0  0  0  0  0  0  0  # atno 17320 bound_to 7965
  144.7058  139.8567  143.7430 LP  0  0  0  0  0  0  0  0  0  0  0  0  # atno 17321 bound_to 7965
  140.4412  143.2526  151.9470 LP  0  0  0  0  0  0  0  0  0  0  0  0  # atno 17342 bound_to 10162
  139.4785  144.5652  151.8176 LP  0  0  0  0  0  0  0  0  0  0  0  0  # atno 17343 bound_to 10162
  157.6765  130.9099  150.0163 LP  0  0  0  0  0  0  0  0  0  0  0  0  # atno 17370 bound_to 10713
  156.1383  130.3642  149.9622 LP  0  0  0  0  0  0  0  0  0  0  0  0  # atno 17371 bound_to 10713
  139.9694  134.7319  156.0072 LP  0  0  0  0  0  0  0  0  0  0  0  0  # atno 17394 bound_to 11000
  141.1418  133.6563  156.3751 LP  0  0  0  0  0  0  0  0  0  0  0  0  # atno 17395 bound_to 11000

$$$$
