AV-unprocessed.smi:2110|AV-procd|sdf|8609|dock4
  -GOLD-   2272011353D 1   1.00000     0.00000
 Structure written by MMmdl.
 47 48  0  0  0  0  0  0  0  0  2 V2000
  144.1039  134.7961  162.6466 C   0  0  0  0  0  0  0  0  0  0  0  0
  145.0688  135.9446  162.3248 C   0  0  0  0  0  0  0  0  0  0  0  0
  146.3620  135.4254  161.8525 N   0  0  0  0  0  0  0  0  0  0  0  0
  147.1232  134.5867  162.7926 C   0  0  0  0  0  0  0  0  0  0  0  0
  147.5366  133.2546  162.1512 C   0  0  0  0  0  0  0  0  0  0  0  0
  147.1833  136.2108  160.5426 S   0  0  0  0  0  0  0  0  0  0  0  0
  146.2877  137.2140  159.9458 O   0  0  0  0  0  0  0  0  0  0  0  0
  148.5379  136.5653  160.9916 O   0  0  0  0  0  0  0  0  0  0  0  0
  147.3062  134.8755  159.4539 N   0  0  0  0  0  0  0  0  0  0  0  0
  146.3708  134.7032  158.3398 C   0  0  0  0  0  0  0  0  0  0  0  0
  146.9245  135.1554  156.9998 C   0  0  0  0  0  0  0  0  0  0  0  0
  146.8410  134.3056  155.8778 C   0  0  0  0  0  0  0  0  0  0  0  0
  147.3552  134.7487  154.6455 C   0  0  0  0  0  0  0  0  0  0  0  0
  147.9194  135.9716  154.5537 N   0  3  0  0  0  0  0  0  0  0  0  0
  148.0334  136.8326  155.5948 C   0  0  0  0  0  0  0  0  0  0  0  0
  148.6335  138.0892  155.3565 N   0  0  0  0  0  0  0  0  0  0  0  0
  147.8536  139.0524  154.5802 C   0  0  0  0  0  0  0  0  0  0  0  0
  148.4699  140.4577  154.6845 C   0  0  0  0  0  0  0  0  0  0  0  0
  149.8414  140.4102  154.3087 O   0  0  0  0  0  0  0  0  0  0  0  0
  150.5951  139.5718  155.1761 C   0  0  0  0  0  0  0  0  0  0  0  0
  150.0689  138.1292  155.0910 C   0  0  0  0  0  0  0  0  0  0  0  0
  147.5316  136.4236  156.8567 C   0  0  0  0  0  0  0  0  0  0  0  0
  143.1521  135.1834  163.0099 H   0  0  0  0  0  0  0  0  0  0  0  0
  144.5122  134.1426  163.4179 H   0  0  0  0  0  0  0  0  0  0  0  0
  143.8959  134.1862  161.7681 H   0  0  0  0  0  0  0  0  0  0  0  0
  144.6429  136.5946  161.5599 H   0  0  0  0  0  0  0  0  0  0  0  0
  145.2099  136.5653  163.2103 H   0  0  0  0  0  0  0  0  0  0  0  0
  148.0182  135.1204  163.1127 H   0  0  0  0  0  0  0  0  0  0  0  0
  146.5281  134.4156  163.6904 H   0  0  0  0  0  0  0  0  0  0  0  0
  148.1273  132.6600  162.8482 H   0  0  0  0  0  0  0  0  0  0  0  0
  148.1432  133.4170  161.2603 H   0  0  0  0  0  0  0  0  0  0  0  0
  146.6711  132.6576  161.8641 H   0  0  0  0  0  0  0  0  0  0  0  0
  147.6952  134.0213  159.8530 H   0  0  0  0  0  0  0  0  0  0  0  0
  146.1173  133.6459  158.2630 H   0  0  0  0  0  0  0  0  0  0  0  0
  145.4435  135.2307  158.5621 H   0  0  0  0  0  0  0  0  0  0  0  0
  146.3839  133.3298  155.9555 H   0  0  0  0  0  0  0  0  0  0  0  0
  147.3291  134.1680  153.7349 H   0  0  0  0  0  0  0  0  0  0  0  0
  147.8343  138.7299  153.5386 H   0  0  0  0  0  0  0  0  0  0  0  0
  146.8194  139.0992  154.9204 H   0  0  0  0  0  0  0  0  0  0  0  0
  147.9448  141.1471  154.0233 H   0  0  0  0  0  0  0  0  0  0  0  0
  148.3713  140.8521  155.6972 H   0  0  0  0  0  0  0  0  0  0  0  0
  151.6439  139.6064  154.8813 H   0  0  0  0  0  0  0  0  0  0  0  0
  150.5407  139.9463  156.1997 H   0  0  0  0  0  0  0  0  0  0  0  0
  150.6075  137.5194  155.8168 H   0  0  0  0  0  0  0  0  0  0  0  0
  150.2637  137.7153  154.1008 H   0  0  0  0  0  0  0  0  0  0  0  0
  147.6008  137.0640  157.7229 H   0  0  0  0  0  0  0  0  0  0  0  0
  148.2759  136.2672  153.6446 H   0  0  0  0  0  0  0  0  0  0  0  0
  1  2  1  0  0  0  0
  1 23  1  0  0  0  0
  1 24  1  0  0  0  0
  1 25  1  0  0  0  0
  2  3  1  0  0  0  0
  2 26  1  0  0  0  0
  2 27  1  0  0  0  0
  3  4  1  0  0  0  0
  3  6  1  0  0  0  0
  4  5  1  0  0  0  0
  4 28  1  0  0  0  0
  4 29  1  0  0  0  0
  5 30  1  0  0  0  0
  5 31  1  0  0  0  0
  5 32  1  0  0  0  0
  6  7  2  0  0  0  0
  6  8  2  0  0  0  0
  6  9  1  0  0  0  0
  9 10  1  0  0  0  0
  9 33  1  0  0  0  0
 10 11  1  0  0  0  0
 10 34  1  0  0  0  0
 10 35  1  0  0  0  0
 11 22  1  0  0  0  0
 11 12  2  0  0  0  0
 12 13  1  0  0  0  0
 12 36  1  0  0  0  0
 13 14  2  0  0  0  0
 13 37  1  0  0  0  0
 14 15  1  0  0  0  0
 14 47  1  0  0  0  0
 15 16  1  0  0  0  0
 15 22  2  0  0  0  0
 16 21  1  0  0  0  0
 16 17  1  0  0  0  0
 17 18  1  0  0  0  0
 17 38  1  0  0  0  0
 17 39  1  0  0  0  0
 18 19  1  0  0  0  0
 18 40  1  0  0  0  0
 18 41  1  0  0  0  0
 19 20  1  0  0  0  0
 20 21  1  0  0  0  0
 20 42  1  0  0  0  0
 20 43  1  0  0  0  0
 21 44  1  0  0  0  0
 21 45  1  0  0  0  0
 22 46  1  0  0  0  0
M  CHG  1  14   1
M  END
> <s_m_source_file>
AV-unprocessed.smi

> <i_m_source_file_index>
2110

> <i_lp_mmshare_version>
43012

> <i_f3d_flags>
0

> <s_epik_input>
W0NIM11bQ0gyXU4oW0NIMl1bQ0gzXSlTKD1PKSg9TylbTkhdW0NIMl1jMVtjSF1bY0hdbmMoW2NIXTEpTjJbQ0gyXVtDSDJdT1tDSDJdW0NIMl0y

> <s_epik_cmdline>
J2VwaWtfcHl0aG9uJywgJy1waCcsICc3LjAnLCAnLXRuJywgJzgnLCAnLW1hJywgJzIwMCcsICctbWV0YWxfYmluZGluZycsICctaW1hZScsICc8aW5maWxlLm1hZT4nLCAnLW9tYWUnLCAnPG91dGZpbGUubWFlPic=

> <r_lp_tautomer_probability>
0.999994

> <r_epik_Ionization_Penalty>
1.66934

> <r_epik_Ionization_Penalty_Charging>
1.61364

> <r_epik_Ionization_Penalty_Neutral>
0.0557011

> <r_epik_State_Penalty>
1.67389

> <r_epik_Charging_Adjusted_Penalty>
3.28753

> <i_epik_Tot_Q>
1

> <i_epik_Tot_abs_Q>
1

> <r_epik_Metal_State_Penalty>
4.64949

> <b_epik_Metal_Only>
0

> <s_lp_Force_Field>
OPLS_2005

> <r_lp_Energy>
18.4454

> <b_lp_Chiralities_Consistent>
1

> <s_lp_Variant>
AV-unprocessed.smi:2110-2

> <Gold.Version>
5.8.1

> <Gold.Id.Protein>
6NUR|6NUR_protein|mol2

> <Gold.PLP.Fitness>
44.7617

> <Gold.PLP.PLP>
-30.2737

> <Gold.PLP.part.hbond>
-3.7582

> <Gold.PLP.part.metal>
0.0000

> <Gold.PLP.part.buried>
-5.1989

> <Gold.PLP.part.nonpolar>
-22.9531

> <Gold.PLP.part.repulsive>
0.8108

> <Gold.PLP.ligand.clash>
0.0000

> <Gold.PLP.ligand.torsion>
2.2303

> <Gold.PLP.Chemscore.Hbond>
4.9913

> <Gold.PLP.Chemscore.CHOScore>
0.0000

> <Gold.PLP.Chemscore.Metal>
0.0000

> <Gold.Chemscore.Hbonds>
donor molecule, donor type, donor heavy atom, donor atom, acceptor molecule, acceptor atom, score
      L1  H    14    47       P1  7948  2.00
      P1  H  6931  6943       L1     8  1.00
      P1  H  6934  6947       L1     7  0.45
      P1  H  7989  7998       L1    19  0.24

> <Gold.PLP.Chemscore.Internal.Correction>
3.9749

> <Gold.Rescore>
     Score         DG    S(hbond)    S(metal)    S(lipo)     H(rot)  DE(clash)    DE(int)     intcor
     17.66     -19.94       3.65        0.00      58.14       1.77       0.13       2.15       ----

> <Gold.Chemscore.Fitness>
17.6552

> <Gold.Chemscore.DG>
-19.9423

> <Gold.Chemscore.ZeroCoef>
-5.4800

> <Gold.Chemscore.Hbond>
3.6484

> <Gold.Chemscore.Metal>
0.0000

> <Gold.Chemscore.Lipo>
58.1421

> <Gold.Chemscore.Internal_Hbond>
0.0000

> <Gold.Chemscore.DEClash>
0.1334

> <Gold.Chemscore.DEInternal>
2.1538

> <Gold.Chemscore.Rot>
1.7680

> <Gold.Chemscore.Internal.Correction>
   9.000000E+99

> <Gold.Chemscore.Hbonds>
donor molecule, donor type, donor heavy atom, donor atom, acceptor molecule, acceptor atom, score
      L1  H    14    47       P1  7948  1.00
      P1  H  6931  6943       L1     8  0.97
      P1  H  6934  6947       L1     7  0.09

> <Gold.Chemscore.Hbond.Weighted>
-12.1858

> <Gold.Chemscore.Metal.Weighted>
-0.0000

> <Gold.Chemscore.Lipo.Weighted>
-6.8026

> <Gold.Chemscore.Internal_Hbond.Weighted>
0.0000

> <Gold.Chemscore.DEClash.Weighted>
0.1334

> <Gold.Chemscore.DEInternal.Weighted>
2.1538

> <Gold.Chemscore.Rot.Weighted>
4.5261

> <Gold.Chemscore.Internal.Correction.Weighted>
   9.000000E+99

> <Gold.Protein.RotatedTorsions>
[ 6907 6896 6895 6894 ] final  -75.67 input  -60.11 | X-H torsion
[ 7974 7965 7964 7962 ] final  157.98 input  175.53 | X-H torsion
[ 8008 7997 7996 7995 ] final  -69.36 input   59.86 | X-H torsion
[ 10167 10162 10161 10158 ] final -166.76 input  -65.29 | X-H torsion
[ 10718 10713 10712 10709 ] final   35.77 input   66.30 | X-H torsion
[ 10763 10752 10751 10750 ] final  -82.57 input  -60.55 | X-H torsion
[ 11005 11000 10999 10996 ] final -156.71 input  -57.11 | X-H torsion

> <Gold.Protein.ActiveResidues>
 VAL166  LYS551  ARG553  GLY616  TRP617  ASP618  TYR619  PRO620  LYS621  CYS622 
 ASP623  PHE694  ASN695  SER759  ASP760  ASP761  ALA762  ILE779  LEU786  VAL792 
 PHE793  MET794  SER795  GLU796  ALA797  LYS798  CYS799  TRP800  GLU811  SER814 

> <Gold.Protein.RotatedAtoms>
  150.7051  134.4686  159.5414 H   0  0  0  0  0  0  0  0  0  0  0  0  # atno 6907 bound_to 6896
  152.2347  134.8285  160.0478 H   0  0  0  0  0  0  0  0  0  0  0  0  # atno 6908 bound_to 6896
  151.9088  133.3521  159.3893 H   0  0  0  0  0  0  0  0  0  0  0  0  # atno 6909 bound_to 6896
  144.7872  139.7415  143.6236 H   0  0  0  0  0  0  0  0  0  0  0  0  # atno 7974 bound_to 7965
  154.4933  140.0855  156.7642 H   0  0  0  0  0  0  0  0  0  0  0  0  # atno 8008 bound_to 7997
  155.4178  140.3444  155.4250 H   0  0  0  0  0  0  0  0  0  0  0  0  # atno 8009 bound_to 7997
  156.1359  140.1515  156.8982 H   0  0  0  0  0  0  0  0  0  0  0  0  # atno 8010 bound_to 7997
  139.6094  144.0846  152.1826 H   0  0  0  0  0  0  0  0  0  0  0  0  # atno 10167 bound_to 10162
  157.3267  130.7476  149.6820 H   0  0  0  0  0  0  0  0  0  0  0  0  # atno 10718 bound_to 10713
  154.5773  135.5586  153.7152 H   0  0  0  0  0  0  0  0  0  0  0  0  # atno 10763 bound_to 10752
  153.0069  135.6311  154.2031 H   0  0  0  0  0  0  0  0  0  0  0  0  # atno 10764 bound_to 10752
  154.1971  135.2879  155.2983 H   0  0  0  0  0  0  0  0  0  0  0  0  # atno 10765 bound_to 10752
  140.6726  134.4231  157.5231 H   0  0  0  0  0  0  0  0  0  0  0  0  # atno 11005 bound_to 11000
  146.2108  139.5464  142.9682 LP  0  0  0  0  0  0  0  0  0  0  0  0  # atno 17320 bound_to 7965
  145.5891  141.0372  143.2080 LP  0  0  0  0  0  0  0  0  0  0  0  0  # atno 17321 bound_to 7965
  140.0461  144.5969  150.7373 LP  0  0  0  0  0  0  0  0  0  0  0  0  # atno 17342 bound_to 10162
  140.7308  143.2687  151.3958 LP  0  0  0  0  0  0  0  0  0  0  0  0  # atno 17343 bound_to 10162
  155.9691  130.4207  150.4435 LP  0  0  0  0  0  0  0  0  0  0  0  0  # atno 17370 bound_to 10713
  157.2460  131.0536  151.2408 LP  0  0  0  0  0  0  0  0  0  0  0  0  # atno 17371 bound_to 10713
  139.8977  134.8631  156.2034 LP  0  0  0  0  0  0  0  0  0  0  0  0  # atno 17394 bound_to 11000
  141.0380  133.6953  156.1547 LP  0  0  0  0  0  0  0  0  0  0  0  0  # atno 17395 bound_to 11000

$$$$
