AV-unprocessed.smi:1971|AV-procd|sdf|7973|dock6
  -GOLD-   2272010143D 1   1.00000     0.00000
 Structure written by MMmdl.
 42 43  0  0  0  0  0  0  0  0  2 V2000
  151.6276  144.8858  159.8324 C   0  0  0  0  0  0  0  0  0  0  0  0
  152.7583  143.8675  159.6286 C   0  0  0  0  0  0  0  0  0  0  0  0
  152.3154  142.4899  159.4237 N   0  0  0  0  0  0  0  0  0  0  0  0
  153.4311  141.5662  159.2231 C   0  0  0  0  0  0  0  0  0  0  0  0
  152.9428  140.1216  159.0059 C   0  0  0  0  0  0  0  0  0  0  0  0
  152.0475  139.9958  157.8452 N   0  0  0  0  0  0  0  0  0  0  0  0
  151.5683  138.6081  157.6380 C   0  0  1  0  0  0  0  0  0  0  0  0
  152.7278  137.5820  157.5628 C   0  0  0  0  0  0  0  0  0  0  0  0
  150.5456  138.1437  158.7143 C   0  0  0  0  0  0  0  0  0  0  0  0
  150.3844  136.6911  158.7591 N   0  0  0  0  0  0  0  0  0  0  0  0
  149.9103  135.9690  159.7851 C   0  0  0  0  0  0  0  0  0  0  0  0
  149.5486  136.5296  160.8221 O   0  0  0  0  0  0  0  0  0  0  0  0
  149.8962  134.6372  159.5486 N   0  5  0  0  0  0  0  0  0  0  0  0
  149.5819  133.7821  160.5352 C   0  0  0  0  0  0  0  0  0  0  0  0
  149.2332  132.5096  160.3136 N   0  0  0  0  0  0  0  0  0  0  0  0
  148.9562  131.7986  161.4827 C   0  0  0  0  0  0  0  0  0  0  0  0
  149.1062  132.5445  162.6216 C   0  0  0  0  0  0  0  0  0  0  0  0
  149.6046  134.1717  162.2578 S   0  0  0  0  0  0  0  0  0  0  0  0
  150.9442  140.9494  158.0417 C   0  0  0  0  0  0  0  0  0  0  0  0
  151.4422  142.3897  158.2584 C   0  0  0  0  0  0  0  0  0  0  0  0
  152.0279  145.8991  159.8691 H   0  0  0  0  0  0  0  0  0  0  0  0
  151.0896  144.7170  160.7648 H   0  0  0  0  0  0  0  0  0  0  0  0
  150.9088  144.8440  159.0137 H   0  0  0  0  0  0  0  0  0  0  0  0
  153.3294  144.1858  158.7555 H   0  0  0  0  0  0  0  0  0  0  0  0
  153.4490  143.9151  160.4718 H   0  0  0  0  0  0  0  0  0  0  0  0
  154.0314  141.8821  158.3686 H   0  0  0  0  0  0  0  0  0  0  0  0
  154.0909  141.5793  160.0899 H   0  0  0  0  0  0  0  0  0  0  0  0
  153.8326  139.5101  158.8723 H   0  0  0  0  0  0  0  0  0  0  0  0
  152.4421  139.7621  159.9063 H   0  0  0  0  0  0  0  0  0  0  0  0
  151.0527  138.5726  156.6770 H   0  0  0  0  0  0  0  0  0  0  0  0
  152.3707  136.5622  157.4286 H   0  0  0  0  0  0  0  0  0  0  0  0
  153.3309  137.6011  158.4711 H   0  0  0  0  0  0  0  0  0  0  0  0
  153.3867  137.7579  156.7143 H   0  0  0  0  0  0  0  0  0  0  0  0
  150.8148  138.5510  159.6901 H   0  0  0  0  0  0  0  0  0  0  0  0
  149.5471  138.5162  158.4947 H   0  0  0  0  0  0  0  0  0  0  0  0
  150.6673  136.1815  157.9350 H   0  0  0  0  0  0  0  0  0  0  0  0
  148.6588  130.7631  161.4108 H   0  0  0  0  0  0  0  0  0  0  0  0
  148.9568  132.2386  163.6460 H   0  0  0  0  0  0  0  0  0  0  0  0
  150.2952  140.9712  157.1685 H   0  0  0  0  0  0  0  0  0  0  0  0
  150.3282  140.6409  158.8878 H   0  0  0  0  0  0  0  0  0  0  0  0
  150.5816  143.0473  158.3864 H   0  0  0  0  0  0  0  0  0  0  0  0
  151.9664  142.7342  157.3652 H   0  0  0  0  0  0  0  0  0  0  0  0
  1  2  1  0  0  0  0
  1 21  1  0  0  0  0
  1 22  1  0  0  0  0
  1 23  1  0  0  0  0
  2  3  1  0  0  0  0
  2 24  1  0  0  0  0
  2 25  1  0  0  0  0
  3 20  1  0  0  0  0
  3  4  1  0  0  0  0
  4  5  1  0  0  0  0
  4 26  1  0  0  0  0
  4 27  1  0  0  0  0
  5  6  1  0  0  0  0
  5 28  1  0  0  0  0
  5 29  1  0  0  0  0
  6  7  1  0  0  0  0
  6 19  1  0  0  0  0
  7  8  1  0  0  0  0
  7  9  1  0  0  0  0
  7 30  1  0  0  0  0
  8 31  1  0  0  0  0
  8 32  1  0  0  0  0
  8 33  1  0  0  0  0
  9 10  1  0  0  0  0
  9 34  1  0  0  0  0
  9 35  1  0  0  0  0
 10 11  1  0  0  0  0
 10 36  1  0  0  0  0
 11 12  2  0  0  0  0
 11 13  1  0  0  0  0
 13 14  1  0  0  0  0
 14 18  1  0  0  0  0
 14 15  2  0  0  0  0
 15 16  1  0  0  0  0
 16 17  2  0  0  0  0
 16 37  1  0  0  0  0
 17 18  1  0  0  0  0
 17 38  1  0  0  0  0
 19 20  1  0  0  0  0
 19 39  1  0  0  0  0
 19 40  1  0  0  0  0
 20 41  1  0  0  0  0
 20 42  1  0  0  0  0
M  CHG  1  13  -1
M  END
> <s_m_source_file>
AV-unprocessed.smi

> <i_m_source_file_index>
1971

> <i_lp_mmshare_version>
43012

> <i_f3d_flags>
0

> <s_epik_input>
W0NIM11bQ0gyXU4xW0NIMl1bQ0gyXU4oW0NIMl1bQ0gyXTEpW0NASF0oW0NIM10pW0NIMl1bTkhdQyg9TylbTkhdYzJuW2NIXVtjSF1zMg==

> <s_epik_cmdline>
J2VwaWtfcHl0aG9uJywgJy1waCcsICc3LjAnLCAnLXRuJywgJzgnLCAnLW1hJywgJzIwMCcsICctbWV0YWxfYmluZGluZycsICctaW1hZScsICc8aW5maWxlLm1hZT4nLCAnLW9tYWUnLCAnPG91dGZpbGUubWFlPic=

> <r_lp_tautomer_probability>
0.999

> <r_epik_Ionization_Penalty>
9.52272

> <r_epik_Ionization_Penalty_Charging>
5.92713

> <r_epik_Ionization_Penalty_Neutral>
3.59559

> <r_epik_State_Penalty>
7.69531

> <r_epik_Charging_Adjusted_Penalty>
13.6224

> <i_epik_Tot_Q>
-1

> <i_epik_Tot_abs_Q>
1

> <r_epik_Metal_State_Penalty>
3.66212

> <b_epik_Metal_Only>
1

> <s_lp_Force_Field>
OPLS_2005

> <r_lp_Energy>
38.2579

> <b_lp_Chiralities_Consistent>
1

> <s_lp_Variant>
AV-unprocessed.smi:1971-12

> <Gold.Version>
5.8.1

> <Gold.Id.Protein>
6NUR|6NUR_protein|mol2

> <Gold.PLP.Fitness>
46.4416

> <Gold.PLP.PLP>
-37.6096

> <Gold.PLP.part.hbond>
-3.0000

> <Gold.PLP.part.metal>
0.0000

> <Gold.PLP.part.buried>
-6.2304

> <Gold.PLP.part.nonpolar>
-29.6090

> <Gold.PLP.part.repulsive>
0.1697

> <Gold.PLP.ligand.clash>
0.0000

> <Gold.PLP.ligand.torsion>
0.5013

> <Gold.PLP.Chemscore.Hbond>
3.2551

> <Gold.PLP.Chemscore.CHOScore>
0.0000

> <Gold.PLP.Chemscore.Metal>
0.0000

> <Gold.Chemscore.Hbonds>
donor molecule, donor type, donor heavy atom, donor atom, acceptor molecule, acceptor atom, score
      P1  H  6931  6943       L1    12  0.66

> <Gold.PLP.Chemscore.Internal.Correction>
0.0693

> <Gold.Rescore>
     Score         DG    S(hbond)    S(metal)    S(lipo)     H(rot)  DE(clash)    DE(int)     intcor
     15.62     -17.98       1.85        0.00      91.24       1.70       0.18       2.18       ----

> <Gold.Chemscore.Fitness>
15.6153

> <Gold.Chemscore.DG>
-17.9753

> <Gold.Chemscore.ZeroCoef>
-5.4800

> <Gold.Chemscore.Hbond>
1.8507

> <Gold.Chemscore.Metal>
0.0000

> <Gold.Chemscore.Lipo>
91.2430

> <Gold.Chemscore.Internal_Hbond>
0.0000

> <Gold.Chemscore.DEClash>
0.1754

> <Gold.Chemscore.DEInternal>
2.1847

> <Gold.Chemscore.Rot>
1.7037

> <Gold.Chemscore.Internal.Correction>
   9.000000E+99

> <Gold.Chemscore.Hbonds>
donor molecule, donor type, donor heavy atom, donor atom, acceptor molecule, acceptor atom, score
      P1  H  6931  6943       L1    12  0.64

> <Gold.Chemscore.Hbond.Weighted>
-6.1813

> <Gold.Chemscore.Metal.Weighted>
-0.0000

> <Gold.Chemscore.Lipo.Weighted>
-10.6754

> <Gold.Chemscore.Internal_Hbond.Weighted>
0.0000

> <Gold.Chemscore.DEClash.Weighted>
0.1754

> <Gold.Chemscore.DEInternal.Weighted>
2.1847

> <Gold.Chemscore.Rot.Weighted>
4.3614

> <Gold.Chemscore.Internal.Correction.Weighted>
   9.000000E+99

> <Gold.Protein.RotatedTorsions>
[ 6907 6896 6895 6894 ] final   47.32 input  -60.11 | X-H torsion
[ 7974 7965 7964 7962 ] final -163.77 input  175.53 | X-H torsion
[ 8008 7997 7996 7995 ] final   76.82 input   59.86 | X-H torsion
[ 10167 10162 10161 10158 ] final  -38.58 input  -65.29 | X-H torsion
[ 10718 10713 10712 10709 ] final  154.01 input   66.30 | X-H torsion
[ 10763 10752 10751 10750 ] final   74.91 input  -60.55 | X-H torsion
[ 11005 11000 10999 10996 ] final  -10.25 input  -57.11 | X-H torsion

> <Gold.Protein.ActiveResidues>
 VAL166  LYS551  ARG553  GLY616  TRP617  ASP618  TYR619  PRO620  LYS621  CYS622 
 ASP623  PHE694  ASN695  SER759  ASP760  ASP761  ALA762  ILE779  LEU786  VAL792 
 PHE793  MET794  SER795  GLU796  ALA797  LYS798  CYS799  TRP800  GLU811  SER814 

> <Gold.Protein.RotatedAtoms>
  152.2667  134.7976  160.0421 H   0  0  0  0  0  0  0  0  0  0  0  0  # atno 6907 bound_to 6896
  151.8603  133.3451  159.3710 H   0  0  0  0  0  0  0  0  0  0  0  0  # atno 6908 bound_to 6896
  150.7136  134.5140  159.5665 H   0  0  0  0  0  0  0  0  0  0  0  0  # atno 6909 bound_to 6896
  144.7316  140.3059  143.6196 H   0  0  0  0  0  0  0  0  0  0  0  0  # atno 7974 bound_to 7965
  155.8328  140.3465  155.5583 H   0  0  0  0  0  0  0  0  0  0  0  0  # atno 8008 bound_to 7997
  155.8224  140.0915  157.1861 H   0  0  0  0  0  0  0  0  0  0  0  0  # atno 8009 bound_to 7997
  154.4004  140.1427  156.3503 H   0  0  0  0  0  0  0  0  0  0  0  0  # atno 8010 bound_to 7997
  140.7088  143.3268  151.2661 H   0  0  0  0  0  0  0  0  0  0  0  0  # atno 10167 bound_to 10162
  157.2372  131.0751  151.1815 H   0  0  0  0  0  0  0  0  0  0  0  0  # atno 10718 bound_to 10713
  153.0618  135.5008  154.8112 H   0  0  0  0  0  0  0  0  0  0  0  0  # atno 10763 bound_to 10752
  154.6895  135.2982  154.9502 H   0  0  0  0  0  0  0  0  0  0  0  0  # atno 10764 bound_to 10752
  154.0262  135.6735  153.4829 H   0  0  0  0  0  0  0  0  0  0  0  0  # atno 10765 bound_to 10752
  140.7428  133.8656  155.8981 H   0  0  0  0  0  0  0  0  0  0  0  0  # atno 11005 bound_to 11000
  145.7714  139.1858  143.2210 LP  0  0  0  0  0  0  0  0  0  0  0  0  # atno 17320 bound_to 7965
  146.0908  140.7658  142.9596 LP  0  0  0  0  0  0  0  0  0  0  0  0  # atno 17321 bound_to 7965
  139.6739  143.9972  152.2769 LP  0  0  0  0  0  0  0  0  0  0  0  0  # atno 17342 bound_to 10162
  139.9580  144.6577  150.8107 LP  0  0  0  0  0  0  0  0  0  0  0  0  # atno 17343 bound_to 10162
  157.3416  130.7036  149.6385 LP  0  0  0  0  0  0  0  0  0  0  0  0  # atno 17370 bound_to 10713
  155.9672  130.4278  150.4760 LP  0  0  0  0  0  0  0  0  0  0  0  0  # atno 17371 bound_to 10713
  140.9821  134.1391  157.4485 LP  0  0  0  0  0  0  0  0  0  0  0  0  # atno 17394 bound_to 11000
  139.8802  135.0014  156.6064 LP  0  0  0  0  0  0  0  0  0  0  0  0  # atno 17395 bound_to 11000

$$$$
