AV-unprocessed.smi:1701|AV-procd|sdf|6842|dock9
  -GOLD-   22720 8 23D 1   1.00000     0.00000
 Structure written by MMmdl.
 54 56  0  0  0  0  0  0  0  0  4 V2000
  151.4825  144.1064  161.4915 C   0  0  0  0  0  0  0  0  0  0  0  0
  152.7299  143.2484  161.7413 C   0  0  0  0  0  0  0  0  0  0  0  0
  153.0569  142.4013  160.5954 N   0  0  0  0  0  0  0  0  0  0  0  0
  154.1889  141.4836  160.6934 C   0  0  0  0  0  0  0  0  0  0  0  0
  153.7604  140.0191  160.5353 C   0  0  0  0  0  0  0  0  0  0  0  0
  152.3167  142.5039  159.3946 C   0  0  0  0  0  0  0  0  0  0  0  0
  152.2807  143.6760  158.5987 C   0  0  0  0  0  0  0  0  0  0  0  0
  151.5129  143.7004  157.4166 C   0  0  0  0  0  0  0  0  0  0  0  0
  150.7931  142.5539  157.0244 C   0  0  0  0  0  0  0  0  0  0  0  0
  150.0096  142.6328  155.8418 N   0  0  0  0  0  0  0  0  0  0  0  0
  149.6359  141.6441  154.9921 C   0  0  0  0  0  0  0  0  0  0  0  0
  150.0782  140.5101  155.1667 O   0  0  0  0  0  0  0  0  0  0  0  0
  148.8044  141.9260  153.9437 N   0  5  0  0  0  0  0  0  0  0  0  0
  147.4348  141.4553  153.6931 C   0  0  1  0  0  0  0  0  0  0  0  0
  147.3738  139.9215  153.5686 C   0  0  0  0  0  0  0  0  0  0  0  0
  146.0405  139.5074  154.2217 C   0  0  0  0  0  0  0  0  0  0  0  0
  145.4256  140.7624  154.6961 N   0  3  1  0  0  0  0  0  0  0  0  0
  144.5161  140.6755  155.8599 C   0  0  0  0  0  0  0  0  0  0  0  0
  143.8942  142.0621  156.1225 C   0  0  0  0  0  0  0  0  0  0  0  0
  144.9713  143.1581  156.2615 C   0  0  0  0  0  0  0  0  0  0  0  0
  145.9403  143.1441  155.0625 C   0  0  0  0  0  0  0  0  0  0  0  0
  146.5213  141.7246  154.8945 C   0  0  2  0  0  0  0  0  0  0  0  0
  150.8503  141.4112  157.8553 C   0  0  0  0  0  0  0  0  0  0  0  0
  151.5973  141.4322  158.9798 N   0  3  0  0  0  0  0  0  0  0  0  0
  151.2726  144.7400  162.3531 H   0  0  0  0  0  0  0  0  0  0  0  0
  150.6025  143.4876  161.3140 H   0  0  0  0  0  0  0  0  0  0  0  0
  151.6145  144.7569  160.6265 H   0  0  0  0  0  0  0  0  0  0  0  0
  153.5787  143.9030  161.9411 H   0  0  0  0  0  0  0  0  0  0  0  0
  152.6051  142.6486  162.6432 H   0  0  0  0  0  0  0  0  0  0  0  0
  154.9624  141.7409  159.9702 H   0  0  0  0  0  0  0  0  0  0  0  0
  154.6543  141.6119  161.6713 H   0  0  0  0  0  0  0  0  0  0  0  0
  154.6188  139.3532  160.6259 H   0  0  0  0  0  0  0  0  0  0  0  0
  153.3037  139.8395  159.5618 H   0  0  0  0  0  0  0  0  0  0  0  0
  153.0384  139.7336  161.3008 H   0  0  0  0  0  0  0  0  0  0  0  0
  152.8348  144.5617  158.8694 H   0  0  0  0  0  0  0  0  0  0  0  0
  151.4839  144.5956  156.8126 H   0  0  0  0  0  0  0  0  0  0  0  0
  149.7116  143.5612  155.5810 H   0  0  0  0  0  0  0  0  0  0  0  0
  146.9808  141.9008  152.8061 H   0  0  0  0  0  0  0  0  0  0  0  0
  147.4351  139.6056  152.5268 H   0  0  0  0  0  0  0  0  0  0  0  0
  148.1982  139.4446  154.1018 H   0  0  0  0  0  0  0  0  0  0  0  0
  145.3751  139.0002  153.5221 H   0  0  0  0  0  0  0  0  0  0  0  0
  146.2255  138.8320  155.0593 H   0  0  0  0  0  0  0  0  0  0  0  0
  143.7334  139.9433  155.6595 H   0  0  0  0  0  0  0  0  0  0  0  0
  145.0664  140.3299  156.7362 H   0  0  0  0  0  0  0  0  0  0  0  0
  143.2276  142.3183  155.2981 H   0  0  0  0  0  0  0  0  0  0  0  0
  143.2751  142.0302  157.0195 H   0  0  0  0  0  0  0  0  0  0  0  0
  144.5016  144.1377  156.3529 H   0  0  0  0  0  0  0  0  0  0  0  0
  145.5336  142.9979  157.1823 H   0  0  0  0  0  0  0  0  0  0  0  0
  145.4073  143.4585  154.1626 H   0  0  0  0  0  0  0  0  0  0  0  0
  146.7364  143.8725  155.2264 H   0  0  0  0  0  0  0  0  0  0  0  0
  147.0515  141.4480  155.8095 H   0  0  0  0  0  0  0  0  0  0  0  0
  150.3196  140.4876  157.6774 H   0  0  0  0  0  0  0  0  0  0  0  0
  144.8868  141.1197  153.9204 H   0  0  0  0  0  0  0  0  0  0  0  0
  151.6149  140.5901  159.5550 H   0  0  0  0  0  0  0  0  0  0  0  0
  1  2  1  0  0  0  0
  1 25  1  0  0  0  0
  1 26  1  0  0  0  0
  1 27  1  0  0  0  0
  2  3  1  0  0  0  0
  2 28  1  0  0  0  0
  2 29  1  0  0  0  0
  3  4  1  0  0  0  0
  3  6  1  0  0  0  0
  4  5  1  0  0  0  0
  4 30  1  0  0  0  0
  4 31  1  0  0  0  0
  5 32  1  0  0  0  0
  5 33  1  0  0  0  0
  5 34  1  0  0  0  0
  6 24  1  0  0  0  0
  6  7  2  0  0  0  0
  7  8  1  0  0  0  0
  7 35  1  0  0  0  0
  8  9  2  0  0  0  0
  8 36  1  0  0  0  0
  9 10  1  0  0  0  0
  9 23  1  0  0  0  0
 10 11  1  0  0  0  0
 10 37  1  0  0  0  0
 11 12  2  0  0  0  0
 11 13  1  0  0  0  0
 13 14  1  0  0  0  0
 14 22  1  0  0  0  0
 14 15  1  0  0  0  0
 14 38  1  0  0  0  0
 15 16  1  0  0  0  0
 15 39  1  0  0  0  0
 15 40  1  0  0  0  0
 16 17  1  0  0  0  0
 16 41  1  0  0  0  0
 16 42  1  0  0  0  0
 17 22  1  0  0  0  0
 17 18  1  0  0  0  0
 17 53  1  0  0  0  0
 18 19  1  0  0  0  0
 18 43  1  0  0  0  0
 18 44  1  0  0  0  0
 19 20  1  0  0  0  0
 19 45  1  0  0  0  0
 19 46  1  0  0  0  0
 20 21  1  0  0  0  0
 20 47  1  0  0  0  0
 20 48  1  0  0  0  0
 21 22  1  0  0  0  0
 21 49  1  0  0  0  0
 21 50  1  0  0  0  0
 22 51  1  0  0  0  0
 23 24  2  0  0  0  0
 23 52  1  0  0  0  0
 24 54  1  0  0  0  0
M  CHG  1  13  -1
M  CHG  1  17   1
M  CHG  1  24   1
M  END
> <s_m_source_file>
AV-unprocessed.smi

> <i_m_source_file_index>
1701

> <i_lp_mmshare_version>
43012

> <i_f3d_flags>
0

> <s_epik_input>
W0NIM11bQ0gyXU4oW0NIMl1bQ0gzXSljMVtjSF1bY0hdYyhbY0hdbjEpW05IXUMoPU8pW05IXVtDQEhdKFtDSDJdW0NIMl0yKVtDQEBIXShOMjMpW0NIMl1bQ0gyXVtDSDJdW0NIMl0z

> <s_epik_cmdline>
J2VwaWtfcHl0aG9uJywgJy1waCcsICc3LjAnLCAnLXRuJywgJzgnLCAnLW1hJywgJzIwMCcsICctbWV0YWxfYmluZGluZycsICctaW1hZScsICc8aW5maWxlLm1hZT4nLCAnLW9tYWUnLCAnPG91dGZpbGUubWFlPic=

> <r_lp_tautomer_probability>
0.999994

> <r_epik_Ionization_Penalty>
7.37095

> <r_epik_Ionization_Penalty_Charging>
7.37095

> <r_epik_Ionization_Penalty_Neutral>
3.78969e-06

> <r_epik_State_Penalty>
6.83842

> <r_epik_Charging_Adjusted_Penalty>
14.2094

> <i_epik_Tot_Q>
1

> <i_epik_Tot_abs_Q>
3

> <r_epik_Metal_State_Penalty>
2.78552

> <b_epik_Metal_Only>
1

> <s_lp_Force_Field>
OPLS_2005

> <r_lp_Energy>
47.735

> <b_lp_Chiralities_Consistent>
1

> <s_lp_Variant>
AV-unprocessed.smi:1701-22

> <Gold.Version>
5.8.1

> <Gold.Id.Protein>
6NUR|6NUR_protein|mol2

> <Gold.PLP.Fitness>
54.8752

> <Gold.PLP.PLP>
-47.7271

> <Gold.PLP.part.hbond>
-4.0213

> <Gold.PLP.part.metal>
0.0000

> <Gold.PLP.part.buried>
-2.0942

> <Gold.PLP.part.nonpolar>
-42.6139

> <Gold.PLP.part.repulsive>
0.8826

> <Gold.PLP.ligand.clash>
0.0000

> <Gold.PLP.ligand.torsion>
2.0582

> <Gold.PLP.Chemscore.Hbond>
3.7120

> <Gold.PLP.Chemscore.CHOScore>
0.0000

> <Gold.PLP.Chemscore.Metal>
0.0000

> <Gold.Chemscore.Hbonds>
donor molecule, donor type, donor heavy atom, donor atom, acceptor molecule, acceptor atom, score
      L1  H    10    37       P1  8028  0.73
      L1  H    17    53       P1 10175  1.66
      P1  H  7989  7998       L1    12  0.14
      P1  H  8011  8017       L1    13  0.46

> <Gold.PLP.Chemscore.Internal.Correction>
0.1285

> <Gold.Rescore>
     Score         DG    S(hbond)    S(metal)    S(lipo)     H(rot)  DE(clash)    DE(int)     intcor
     17.57     -22.64       2.31        0.00     108.71       1.28       0.57       4.50       ----

> <Gold.Chemscore.Fitness>
17.5736

> <Gold.Chemscore.DG>
-22.6373

> <Gold.Chemscore.ZeroCoef>
-5.4800

> <Gold.Chemscore.Hbond>
2.3130

> <Gold.Chemscore.Metal>
0.0000

> <Gold.Chemscore.Lipo>
108.7058

> <Gold.Chemscore.Internal_Hbond>
0.0000

> <Gold.Chemscore.DEClash>
0.5674

> <Gold.Chemscore.DEInternal>
4.4964

> <Gold.Chemscore.Rot>
1.2838

> <Gold.Chemscore.Internal.Correction>
   9.000000E+99

> <Gold.Chemscore.Hbonds>
donor molecule, donor type, donor heavy atom, donor atom, acceptor molecule, acceptor atom, score
      L1  H    10    37       P1  8028  0.72
      L1  H    17    53       P1 10175  0.56
      P1  H  8011  8017       L1    13  0.33

> <Gold.Chemscore.Hbond.Weighted>
-7.7253

> <Gold.Chemscore.Metal.Weighted>
-0.0000

> <Gold.Chemscore.Lipo.Weighted>
-12.7186

> <Gold.Chemscore.Internal_Hbond.Weighted>
0.0000

> <Gold.Chemscore.DEClash.Weighted>
0.5674

> <Gold.Chemscore.DEInternal.Weighted>
4.4964

> <Gold.Chemscore.Rot.Weighted>
3.2865

> <Gold.Chemscore.Internal.Correction.Weighted>
   9.000000E+99

> <Gold.Protein.RotatedTorsions>
[ 6907 6896 6895 6894 ] final  -10.99 input  -60.11 | X-H torsion
[ 7974 7965 7964 7962 ] final  111.20 input  175.53 | X-H torsion
[ 8008 7997 7996 7995 ] final  -50.02 input   59.86 | X-H torsion
[ 10167 10162 10161 10158 ] final -163.61 input  -65.29 | X-H torsion
[ 10718 10713 10712 10709 ] final   38.46 input   66.30 | X-H torsion
[ 10763 10752 10751 10750 ] final  -69.37 input  -60.55 | X-H torsion
[ 11005 11000 10999 10996 ] final  174.03 input  -57.11 | X-H torsion

> <Gold.Protein.ActiveResidues>
 VAL166  LYS551  ARG553  GLY616  TRP617  ASP618  TYR619  PRO620  LYS621  CYS622 
 ASP623  PHE694  ASN695  SER759  ASP760  ASP761  ALA762  ILE779  LEU786  VAL792 
 PHE793  MET794  SER795  GLU796  ALA797  LYS798  CYS799  TRP800  GLU811  SER814 

> <Gold.Protein.RotatedAtoms>
  151.3932  135.0959  159.9532 H   0  0  0  0  0  0  0  0  0  0  0  0  # atno 6907 bound_to 6896
  152.5073  133.8960  159.7428 H   0  0  0  0  0  0  0  0  0  0  0  0  # atno 6908 bound_to 6896
  150.9418  133.6592  159.2818 H   0  0  0  0  0  0  0  0  0  0  0  0  # atno 6909 bound_to 6896
  145.2452  139.2762  143.4096 H   0  0  0  0  0  0  0  0  0  0  0  0  # atno 7974 bound_to 7965
  154.4054  140.1282  156.4597 H   0  0  0  0  0  0  0  0  0  0  0  0  # atno 8008 bound_to 7997
  155.7285  140.3491  155.5028 H   0  0  0  0  0  0  0  0  0  0  0  0  # atno 8009 bound_to 7997
  155.9149  140.1042  157.1241 H   0  0  0  0  0  0  0  0  0  0  0  0  # atno 8010 bound_to 7997
  139.6308  144.0442  152.2014 H   0  0  0  0  0  0  0  0  0  0  0  0  # atno 10167 bound_to 10162
  157.3591  130.7639  149.7034 H   0  0  0  0  0  0  0  0  0  0  0  0  # atno 10718 bound_to 10713
  154.4024  135.6028  153.5905 H   0  0  0  0  0  0  0  0  0  0  0  0  # atno 10763 bound_to 10752
  152.9788  135.5910  154.4168 H   0  0  0  0  0  0  0  0  0  0  0  0  # atno 10764 bound_to 10752
  154.3968  135.2842  155.2099 H   0  0  0  0  0  0  0  0  0  0  0  0  # atno 10765 bound_to 10752
  140.3469  134.7228  157.4241 H   0  0  0  0  0  0  0  0  0  0  0  0  # atno 11005 bound_to 11000
  146.3317  140.2827  142.8611 LP  0  0  0  0  0  0  0  0  0  0  0  0  # atno 17320 bound_to 7965
  144.9552  140.8219  143.5547 LP  0  0  0  0  0  0  0  0  0  0  0  0  # atno 17321 bound_to 7965
  140.0108  144.6225  150.7649 LP  0  0  0  0  0  0  0  0  0  0  0  0  # atno 17342 bound_to 10162
  140.7438  143.2851  151.3486 LP  0  0  0  0  0  0  0  0  0  0  0  0  # atno 17343 bound_to 10162
  155.9734  130.4119  150.4004 LP  0  0  0  0  0  0  0  0  0  0  0  0  # atno 17370 bound_to 10713
  157.2078  131.0453  151.2615 LP  0  0  0  0  0  0  0  0  0  0  0  0  # atno 17371 bound_to 10713
  140.0734  134.5830  155.8617 LP  0  0  0  0  0  0  0  0  0  0  0  0  # atno 17394 bound_to 11000
  141.2023  133.6624  156.5998 LP  0  0  0  0  0  0  0  0  0  0  0  0  # atno 17395 bound_to 11000

$$$$
