AV-unprocessed.smi:100|AV-procd|sdf|902|dock5
  -GOLD-   2262017403D 1   1.00000     0.00000
 Structure written by MMmdl.
 31 33  0  0  0  0  0  0  0  0  1 V2000
  153.2476  141.7332  159.4324 N   0  0  0  0  0  0  0  0  0  0  0  0
  152.4601  140.7686  158.9369 C   0  0  0  0  0  0  0  0  0  0  0  0
  152.6420  139.5016  159.3763 N   0  0  0  0  0  0  0  0  0  0  0  0
  151.8705  138.5220  158.8949 C   0  0  0  0  0  0  0  0  0  0  0  0
  150.8882  138.5991  157.9937 N   0  0  0  0  0  0  0  0  0  0  0  0
  150.7013  139.8784  157.5530 C   0  0  0  0  0  0  0  0  0  0  0  0
  151.4479  141.0143  157.9748 C   0  0  0  0  0  0  0  0  0  0  0  0
  150.9960  142.1504  157.3182 N   0  0  0  0  0  0  0  0  0  0  0  0
  150.0361  141.7073  156.5522 C   0  0  0  0  0  0  0  0  0  0  0  0
  149.7862  140.3541  156.6321 N   0  0  0  0  0  0  0  0  0  0  0  0
  148.7441  139.5813  155.8781 C   0  0  1  0  0  0  0  0  0  0  0  0
  147.4809  140.0515  156.2449 O   0  0  0  0  0  0  0  0  0  0  0  0
  146.6874  140.2366  155.0775 C   0  0  1  0  0  0  0  0  0  0  0  0
  145.5546  141.2414  155.3394 C   0  0  0  0  0  0  0  0  0  0  0  0
  144.6709  140.7366  156.3178 O   0  0  0  0  0  0  0  0  0  0  0  0
  147.7019  140.6454  154.0059 C   0  0  1  0  0  0  0  0  0  0  0  0
  148.0296  141.9310  154.1539 F   0  0  0  0  0  0  0  0  0  0  0  0
  148.8736  139.7401  154.3477 C   0  0  1  0  0  0  0  0  0  0  0  0
  150.1081  140.2521  153.8773 O   0  0  0  0  0  0  0  0  0  0  0  0
  153.1317  142.6863  159.1196 H   0  0  0  0  0  0  0  0  0  0  0  0
  153.9528  141.5056  160.1180 H   0  0  0  0  0  0  0  0  0  0  0  0
  152.0675  137.5352  159.2871 H   0  0  0  0  0  0  0  0  0  0  0  0
  149.4730  142.3633  155.9046 H   0  0  0  0  0  0  0  0  0  0  0  0
  148.8797  138.5511  156.2102 H   0  0  0  0  0  0  0  0  0  0  0  0
  146.2623  139.2651  154.8181 H   0  0  0  0  0  0  0  0  0  0  0  0
  145.9678  142.1823  155.7036 H   0  0  0  0  0  0  0  0  0  0  0  0
  145.0036  141.4680  154.4262 H   0  0  0  0  0  0  0  0  0  0  0  0
  145.0741  140.8382  157.1665 H   0  0  0  0  0  0  0  0  0  0  0  0
  147.3342  140.5122  152.9882 H   0  0  0  0  0  0  0  0  0  0  0  0
  148.7076  138.7583  153.9025 H   0  0  0  0  0  0  0  0  0  0  0  0
  149.9957  140.5352  152.9830 H   0  0  0  0  0  0  0  0  0  0  0  0
  1  2  1  0  0  0  0
  1 20  1  0  0  0  0
  1 21  1  0  0  0  0
  2  7  1  0  0  0  0
  2  3  2  0  0  0  0
  3  4  1  0  0  0  0
  4  5  2  0  0  0  0
  4 22  1  0  0  0  0
  5  6  1  0  0  0  0
  6 10  1  0  0  0  0
  6  7  2  0  0  0  0
  7  8  1  0  0  0  0
  8  9  2  0  0  0  0
  9 10  1  0  0  0  0
  9 23  1  0  0  0  0
 10 11  1  0  0  0  0
 11 18  1  0  0  0  0
 11 12  1  0  0  0  0
 11 24  1  0  0  0  0
 12 13  1  0  0  0  0
 13 14  1  0  0  0  0
 13 16  1  0  0  0  0
 13 25  1  0  0  0  0
 14 15  1  0  0  0  0
 14 26  1  0  0  0  0
 14 27  1  0  0  0  0
 15 28  1  0  0  0  0
 16 17  1  0  0  0  0
 16 18  1  0  0  0  0
 16 29  1  0  0  0  0
 18 19  1  0  0  0  0
 18 30  1  0  0  0  0
 19 31  1  0  0  0  0
M  END
> <s_m_source_file>
AV-unprocessed.smi

> <i_m_source_file_index>
100

> <i_lp_mmshare_version>
43012

> <i_f3d_flags>
0

> <s_epik_input>
bjFbY0hdbmMoW05IMl0pYyhjMTIpbltjSF1uMltDQEBIXTNPW0NAQEhdKFtDSDJdW09IXSlbQ0BIXShGKVtDQEhdM1tPSF0=

> <s_epik_cmdline>
J2VwaWtfcHl0aG9uJywgJy1waCcsICc3LjAnLCAnLXRuJywgJzgnLCAnLW1hJywgJzIwMCcsICctbWV0YWxfYmluZGluZycsICctaW1hZScsICc8aW5maWxlLm1hZT4nLCAnLW9tYWUnLCAnPG91dGZpbGUubWFlPic=

> <r_lp_tautomer_probability>
1

> <r_epik_Ionization_Penalty>
0.000750324

> <r_epik_Ionization_Penalty_Charging>
0

> <r_epik_Ionization_Penalty_Neutral>
0.000750324

> <r_epik_State_Penalty>
-0

> <r_epik_Charging_Adjusted_Penalty>
0

> <i_epik_Tot_Q>
0

> <i_epik_Tot_abs_Q>
0

> <r_epik_Metal_State_Penalty>
-0

> <b_epik_Metal_Only>
0

> <s_epik_Chemistry_Notes>
This compound contains an acetal/aminal-like group ( X-CH(R)-Y where X, Y are N, S, or O) that may be acid/base labile, releasing an aldehyde.

> <s_lp_Force_Field>
OPLS_2005

> <r_lp_Energy>
37.3061

> <b_lp_Chiralities_Consistent>
1

> <s_lp_Variant>
AV-unprocessed.smi:100-6

> <Gold.Version>
5.8.1

> <Gold.Id.Protein>
6NUR|6NUR_protein|mol2

> <Gold.PLP.Fitness>
28.4142

> <Gold.PLP.PLP>
-22.4595

> <Gold.PLP.part.hbond>
-2.0000

> <Gold.PLP.part.metal>
0.0000

> <Gold.PLP.part.buried>
-4.8966

> <Gold.PLP.part.nonpolar>
-16.0042

> <Gold.PLP.part.repulsive>
0.1522

> <Gold.PLP.ligand.clash>
0.0000

> <Gold.PLP.ligand.torsion>
0.0238

> <Gold.PLP.Chemscore.Hbond>
1.0000

> <Gold.PLP.Chemscore.CHOScore>
1.0000

> <Gold.PLP.Chemscore.Metal>
0.0000

> <Gold.Chemscore.Hbonds>
donor molecule, donor type, donor heavy atom, donor atom, acceptor molecule, acceptor atom, score
      L1  H    19    31       P1  7957  0.96
      L1  C     9    23       P1  8028  1.00

> <Gold.PLP.Chemscore.Internal.Correction>
0.0024

> <Gold.Rescore>
     Score         DG    S(hbond)    S(metal)    S(lipo)     H(rot)  DE(clash)    DE(int)     intcor
      3.40      -3.41       0.98        0.00      24.25       3.19       0.01       0.01       ----

> <Gold.Chemscore.Fitness>
3.3969

> <Gold.Chemscore.DG>
-3.4110

> <Gold.Chemscore.ZeroCoef>
-5.4800

> <Gold.Chemscore.Hbond>
0.9761

> <Gold.Chemscore.Metal>
0.0000

> <Gold.Chemscore.Lipo>
24.2520

> <Gold.Chemscore.Internal_Hbond>
0.0000

> <Gold.Chemscore.DEClash>
0.0053

> <Gold.Chemscore.DEInternal>
0.0088

> <Gold.Chemscore.Rot>
3.1901

> <Gold.Chemscore.Internal.Correction>
   9.000000E+99

> <Gold.Chemscore.Hbonds>
donor molecule, donor type, donor heavy atom, donor atom, acceptor molecule, acceptor atom, score
      L1  H    19    31       P1  7957  0.92

> <Gold.Chemscore.Hbond.Weighted>
-3.2602

> <Gold.Chemscore.Metal.Weighted>
-0.0000

> <Gold.Chemscore.Lipo.Weighted>
-2.8375

> <Gold.Chemscore.Internal_Hbond.Weighted>
0.0000

> <Gold.Chemscore.DEClash.Weighted>
0.0053

> <Gold.Chemscore.DEInternal.Weighted>
0.0088

> <Gold.Chemscore.Rot.Weighted>
8.1667

> <Gold.Chemscore.Internal.Correction.Weighted>
   9.000000E+99

> <Gold.Protein.RotatedTorsions>
[ 6907 6896 6895 6894 ] final  105.83 input  -60.11 | X-H torsion
[ 7974 7965 7964 7962 ] final   17.23 input  175.53 | X-H torsion
[ 8008 7997 7996 7995 ] final  -85.30 input   59.86 | X-H torsion
[ 10167 10162 10161 10158 ] final  -18.30 input  -65.29 | X-H torsion
[ 10718 10713 10712 10709 ] final  132.03 input   66.30 | X-H torsion
[ 10763 10752 10751 10750 ] final  105.39 input  -60.55 | X-H torsion
[ 11005 11000 10999 10996 ] final  126.10 input  -57.11 | X-H torsion

> <Gold.Protein.ActiveResidues>
 VAL166  LYS551  ARG553  GLY616  TRP617  ASP618  TYR619  PRO620  LYS621  CYS622 
 ASP623  PHE694  ASN695  SER759  ASP760  ASP761  ALA762  ILE779  LEU786  VAL792 
 PHE793  MET794  SER795  GLU796  ALA797  LYS798  CYS799  TRP800  GLU811  SER814 

> <Gold.Protein.RotatedAtoms>
  152.5216  133.9471  159.7653 H   0  0  0  0  0  0  0  0  0  0  0  0  # atno 6907 bound_to 6896
  150.9788  133.6258  159.2733 H   0  0  0  0  0  0  0  0  0  0  0  0  # atno 6908 bound_to 6896
  151.3443  135.0876  159.9434 H   0  0  0  0  0  0  0  0  0  0  0  0  # atno 6909 bound_to 6896
  146.2225  139.8632  142.8601 H   0  0  0  0  0  0  0  0  0  0  0  0  # atno 7974 bound_to 7965
  154.6393  140.0593  156.9826 H   0  0  0  0  0  0  0  0  0  0  0  0  # atno 8008 bound_to 7997
  155.1542  140.3277  155.4406 H   0  0  0  0  0  0  0  0  0  0  0  0  # atno 8009 bound_to 7997
  156.2523  140.1942  156.6653 H   0  0  0  0  0  0  0  0  0  0  0  0  # atno 8010 bound_to 7997
  140.7257  143.4930  150.9968 H   0  0  0  0  0  0  0  0  0  0  0  0  # atno 10167 bound_to 10162
  157.4910  131.1090  150.9556 H   0  0  0  0  0  0  0  0  0  0  0  0  # atno 10718 bound_to 10713
  153.3788  135.3911  155.1842 H   0  0  0  0  0  0  0  0  0  0  0  0  # atno 10763 bound_to 10752
  154.8705  135.3720  154.4884 H   0  0  0  0  0  0  0  0  0  0  0  0  # atno 10764 bound_to 10752
  153.5359  135.7085  153.5721 H   0  0  0  0  0  0  0  0  0  0  0  0  # atno 10765 bound_to 10752
  139.9439  134.9632  156.8657 H   0  0  0  0  0  0  0  0  0  0  0  0  # atno 11005 bound_to 11000
  145.2683  141.0100  143.3787 LP  0  0  0  0  0  0  0  0  0  0  0  0  # atno 17320 bound_to 7965
  144.9244  139.4373  143.6525 LP  0  0  0  0  0  0  0  0  0  0  0  0  # atno 17321 bound_to 7965
  139.8635  143.7284  152.3172 LP  0  0  0  0  0  0  0  0  0  0  0  0  # atno 17342 bound_to 10162
  139.7508  144.7535  151.0510 LP  0  0  0  0  0  0  0  0  0  0  0  0  # atno 17343 bound_to 10162
  157.0258  130.5692  149.5337 LP  0  0  0  0  0  0  0  0  0  0  0  0  # atno 17370 bound_to 10713
  156.0173  130.5268  150.8174 LP  0  0  0  0  0  0  0  0  0  0  0  0  # atno 17371 bound_to 10713
  140.5883  134.0286  155.7490 LP  0  0  0  0  0  0  0  0  0  0  0  0  # atno 17394 bound_to 11000
  141.1083  133.9657  157.2956 LP  0  0  0  0  0  0  0  0  0  0  0  0  # atno 17395 bound_to 11000

$$$$
