AV-unprocessed.smi:360|AV-procd|sdf|2419|dock4
  -GOLD-   2262022353D 1   1.00000     0.00000
 Structure written by MMmdl.
 37 38  0  0  0  0  0  0  0  0  1 V2000
  155.0083  132.4205  165.7402 C   0  0  0  0  0  0  0  0  0  0  0  0
  155.9907  133.2579  166.1042 C   0  0  0  0  0  0  0  0  0  0  0  0
  156.6441  134.2591  165.1779 C   0  0  0  0  0  0  0  0  0  0  0  0
  156.1307  134.1639  163.8222 N   0  0  0  0  0  0  0  0  0  0  0  0
  155.5536  135.1681  163.0559 C   0  0  0  0  0  0  0  0  0  0  0  0
  155.3792  136.5254  163.5485 C   0  0  0  0  0  0  0  0  0  0  0  0
  154.8479  137.4617  162.8413 N   0  0  0  0  0  0  0  0  0  0  0  0
  154.4187  137.1868  161.5582 N   0  0  0  0  0  0  0  0  0  0  0  0
  153.8278  138.3400  160.8689 C   0  0  0  0  0  0  0  0  0  0  0  0
  154.8628  139.4488  160.6190 C   0  0  0  0  0  0  0  0  0  0  0  0
  154.5496  140.5804  161.4199 O   0  0  0  0  0  0  0  0  0  0  0  0
  153.7988  141.5912  160.8604 C   0  0  0  0  0  0  0  0  0  0  0  0
  153.3309  142.5962  161.7321 C   0  0  0  0  0  0  0  0  0  0  0  0
  152.5547  143.6667  161.2480 C   0  0  0  0  0  0  0  0  0  0  0  0
  152.2382  143.7427  159.8789 C   0  0  0  0  0  0  0  0  0  0  0  0
  151.2875  145.0532  159.2825 Cl  0  0  0  0  0  0  0  0  0  0  0  0
  152.6989  142.7468  158.9974 C   0  0  0  0  0  0  0  0  0  0  0  0
  153.4746  141.6755  159.4824 C   0  0  0  0  0  0  0  0  0  0  0  0
  154.5045  135.9637  160.9551 C   0  0  0  0  0  0  0  0  0  0  0  0
  154.0996  135.7612  159.8097 O   0  0  0  0  0  0  0  0  0  0  0  0
  155.1176  134.9217  161.7916 C   0  0  0  0  0  0  0  0  0  0  0  0
  155.2733  133.3382  161.1066 Cl  0  0  0  0  0  0  0  0  0  0  0  0
  154.6157  132.4194  164.7336 H   0  0  0  0  0  0  0  0  0  0  0  0
  154.5832  131.7235  166.4474 H   0  0  0  0  0  0  0  0  0  0  0  0
  156.3605  133.2289  167.1189 H   0  0  0  0  0  0  0  0  0  0  0  0
  156.4579  135.2633  165.5593 H   0  0  0  0  0  0  0  0  0  0  0  0
  157.7234  134.1035  165.1747 H   0  0  0  0  0  0  0  0  0  0  0  0
  156.1794  133.2433  163.4086 H   0  0  0  0  0  0  0  0  0  0  0  0
  155.7262  136.7149  164.5638 H   0  0  0  0  0  0  0  0  0  0  0  0
  153.4245  138.0105  159.9098 H   0  0  0  0  0  0  0  0  0  0  0  0
  152.9715  138.7392  161.4148 H   0  0  0  0  0  0  0  0  0  0  0  0
  155.8657  139.0808  160.8421 H   0  0  0  0  0  0  0  0  0  0  0  0
  154.8349  139.7301  159.5654 H   0  0  0  0  0  0  0  0  0  0  0  0
  153.5704  142.5454  162.7842 H   0  0  0  0  0  0  0  0  0  0  0  0
  152.2037  144.4279  161.9293 H   0  0  0  0  0  0  0  0  0  0  0  0
  152.4568  142.8016  157.9462 H   0  0  0  0  0  0  0  0  0  0  0  0
  153.8076  140.9304  158.7763 H   0  0  0  0  0  0  0  0  0  0  0  0
  1  2  2  0  0  0  0
  1 23  1  0  0  0  0
  1 24  1  0  0  0  0
  2  3  1  0  0  0  0
  2 25  1  0  0  0  0
  3  4  1  0  0  0  0
  3 26  1  0  0  0  0
  3 27  1  0  0  0  0
  4  5  1  0  0  0  0
  4 28  1  0  0  0  0
  5 21  2  0  0  0  0
  5  6  1  0  0  0  0
  6  7  2  0  0  0  0
  6 29  1  0  0  0  0
  7  8  1  0  0  0  0
  8  9  1  0  0  0  0
  8 19  1  0  0  0  0
  9 10  1  0  0  0  0
  9 30  1  0  0  0  0
  9 31  1  0  0  0  0
 10 11  1  0  0  0  0
 10 32  1  0  0  0  0
 10 33  1  0  0  0  0
 11 12  1  0  0  0  0
 12 18  1  0  0  0  0
 12 13  2  0  0  0  0
 13 14  1  0  0  0  0
 13 34  1  0  0  0  0
 14 15  2  0  0  0  0
 14 35  1  0  0  0  0
 15 16  1  0  0  0  0
 15 17  1  0  0  0  0
 17 18  2  0  0  0  0
 17 36  1  0  0  0  0
 18 37  1  0  0  0  0
 19 20  2  0  0  0  0
 19 21  1  0  0  0  0
 21 22  1  0  0  0  0
M  END
> <s_m_source_file>
AV-unprocessed.smi

> <i_m_source_file_index>
360

> <i_lp_mmshare_version>
43012

> <i_f3d_flags>
0

> <s_epik_input>
W0NIMl09W0NIXVtDSDJdW05IXWMxW2NIXW5uKGMoPU8pYzFDbClbQ0gyXVtDSDJdT2MyW2NIXVtjSF1jKENsKVtjSF1bY0hdMg==

> <s_epik_cmdline>
J2VwaWtfcHl0aG9uJywgJy1waCcsICc3LjAnLCAnLXRuJywgJzgnLCAnLW1hJywgJzIwMCcsICctbWV0YWxfYmluZGluZycsICctaW1hZScsICc8aW5maWxlLm1hZT4nLCAnLW9tYWUnLCAnPG91dGZpbGUubWFlPic=

> <r_lp_tautomer_probability>
1

> <r_epik_Ionization_Penalty>
1.57681e-05

> <r_epik_Ionization_Penalty_Charging>
9.79356e-10

> <r_epik_Ionization_Penalty_Neutral>
1.57671e-05

> <r_epik_State_Penalty>
-0

> <r_epik_Charging_Adjusted_Penalty>
9.79356e-10

> <i_epik_Tot_Q>
0

> <i_epik_Tot_abs_Q>
0

> <r_epik_Metal_State_Penalty>
-0

> <b_epik_Metal_Only>
0

> <s_lp_Force_Field>
OPLS_2005

> <r_lp_Energy>
29.545

> <b_lp_Chiralities_Consistent>
1

> <s_lp_Variant>
AV-unprocessed.smi:360-1

> <Gold.Version>
5.8.1

> <Gold.Id.Protein>
6NUR|6NUR_protein|mol2

> <Gold.PLP.Fitness>
50.1443

> <Gold.PLP.PLP>
-48.4710

> <Gold.PLP.part.hbond>
-1.0000

> <Gold.PLP.part.metal>
0.0000

> <Gold.PLP.part.buried>
-6.0056

> <Gold.PLP.part.nonpolar>
-40.8306

> <Gold.PLP.part.repulsive>
0.0011

> <Gold.PLP.ligand.clash>
0.0000

> <Gold.PLP.ligand.torsion>
0.7170

> <Gold.PLP.Chemscore.Hbond>
1.0000

> <Gold.PLP.Chemscore.CHOScore>
0.0000

> <Gold.PLP.Chemscore.Metal>
0.0000

> <Gold.Chemscore.Hbonds>
donor molecule, donor type, donor heavy atom, donor atom, acceptor molecule, acceptor atom, score
      P1  H  6896  6907       L1    20  1.00

> <Gold.PLP.Chemscore.Internal.Correction>
0.1073

> <Gold.Rescore>
     Score         DG    S(hbond)    S(metal)    S(lipo)     H(rot)  DE(clash)    DE(int)     intcor
     18.20     -19.31       0.78        0.00     133.78       1.73       0.20       0.91       ----

> <Gold.Chemscore.Fitness>
18.1955

> <Gold.Chemscore.DG>
-19.3112

> <Gold.Chemscore.ZeroCoef>
-5.4800

> <Gold.Chemscore.Hbond>
0.7845

> <Gold.Chemscore.Metal>
0.0000

> <Gold.Chemscore.Lipo>
133.7772

> <Gold.Chemscore.Internal_Hbond>
0.0000

> <Gold.Chemscore.DEClash>
0.2038

> <Gold.Chemscore.DEInternal>
0.9119

> <Gold.Chemscore.Rot>
1.7348

> <Gold.Chemscore.Internal.Correction>
   9.000000E+99

> <Gold.Chemscore.Hbonds>
donor molecule, donor type, donor heavy atom, donor atom, acceptor molecule, acceptor atom, score
      P1  H  6896  6907       L1    20  0.53

> <Gold.Chemscore.Hbond.Weighted>
-2.6203

> <Gold.Chemscore.Metal.Weighted>
-0.0000

> <Gold.Chemscore.Lipo.Weighted>
-15.6519

> <Gold.Chemscore.Internal_Hbond.Weighted>
0.0000

> <Gold.Chemscore.DEClash.Weighted>
0.2038

> <Gold.Chemscore.DEInternal.Weighted>
0.9119

> <Gold.Chemscore.Rot.Weighted>
4.4410

> <Gold.Chemscore.Internal.Correction.Weighted>
   9.000000E+99

> <Gold.Protein.RotatedTorsions>
[ 6907 6896 6895 6894 ] final   67.80 input  -60.11 | X-H torsion
[ 7974 7965 7964 7962 ] final -133.01 input  175.53 | X-H torsion
[ 8008 7997 7996 7995 ] final  -12.67 input   59.86 | X-H torsion
[ 10167 10162 10161 10158 ] final -127.75 input  -65.29 | X-H torsion
[ 10718 10713 10712 10709 ] final   42.92 input   66.30 | X-H torsion
[ 10763 10752 10751 10750 ] final  -51.25 input  -60.55 | X-H torsion
[ 11005 11000 10999 10996 ] final -116.30 input  -57.11 | X-H torsion

> <Gold.Protein.ActiveResidues>
 VAL166  LYS551  ARG553  GLY616  TRP617  ASP618  TYR619  PRO620  LYS621  CYS622 
 ASP623  PHE694  ASN695  SER759  ASP760  ASP761  ALA762  ILE779  LEU786  VAL792 
 PHE793  MET794  SER795  GLU796  ALA797  LYS798  CYS799  TRP800  GLU811  SER814 

> <Gold.Protein.RotatedAtoms>
  152.4577  134.5255  159.9795 H   0  0  0  0  0  0  0  0  0  0  0  0  # atno 6907 bound_to 6896
  151.5311  133.3443  159.2926 H   0  0  0  0  0  0  0  0  0  0  0  0  # atno 6908 bound_to 6896
  150.8527  134.7887  159.7084 H   0  0  0  0  0  0  0  0  0  0  0  0  # atno 6909 bound_to 6896
  144.9233  140.7040  143.4952 H   0  0  0  0  0  0  0  0  0  0  0  0  # atno 7974 bound_to 7965
  154.5357  140.2270  155.8726 H   0  0  0  0  0  0  0  0  0  0  0  0  # atno 8008 bound_to 7997
  156.1809  140.3100  155.9110 H   0  0  0  0  0  0  0  0  0  0  0  0  # atno 8009 bound_to 7997
  155.3359  140.0448  157.3034 H   0  0  0  0  0  0  0  0  0  0  0  0  # atno 8010 bound_to 7997
  139.9576  143.5986  152.2455 H   0  0  0  0  0  0  0  0  0  0  0  0  # atno 10167 bound_to 10162
  157.4101  130.7909  149.7423 H   0  0  0  0  0  0  0  0  0  0  0  0  # atno 10718 bound_to 10713
  154.1235  135.6531  153.4908 H   0  0  0  0  0  0  0  0  0  0  0  0  # atno 10763 bound_to 10752
  153.0217  135.5276  154.7073 H   0  0  0  0  0  0  0  0  0  0  0  0  # atno 10764 bound_to 10752
  154.6287  135.2973  155.0212 H   0  0  0  0  0  0  0  0  0  0  0  0  # atno 10765 bound_to 10752
  141.0431  133.9805  157.2962 H   0  0  0  0  0  0  0  0  0  0  0  0  # atno 11005 bound_to 11000
  145.3261  139.1773  143.4562 LP  0  0  0  0  0  0  0  0  0  0  0  0  # atno 17320 bound_to 7965
  146.3214  140.3284  142.8638 LP  0  0  0  0  0  0  0  0  0  0  0  0  # atno 17321 bound_to 7965
  139.6579  144.7662  151.2019 LP  0  0  0  0  0  0  0  0  0  0  0  0  # atno 17342 bound_to 10162
  140.7563  143.6056  150.8656 LP  0  0  0  0  0  0  0  0  0  0  0  0  # atno 17343 bound_to 10162
  155.9848  130.3988  150.3293 LP  0  0  0  0  0  0  0  0  0  0  0  0  # atno 17370 bound_to 10713
  157.1430  131.0301  151.2919 LP  0  0  0  0  0  0  0  0  0  0  0  0  # atno 17371 bound_to 10713
  139.9291  135.0200  156.8337 LP  0  0  0  0  0  0  0  0  0  0  0  0  # atno 17394 bound_to 11000
  140.6197  134.0005  155.7613 LP  0  0  0  0  0  0  0  0  0  0  0  0  # atno 17395 bound_to 11000

$$$$
