AV-unprocessed.smi:2883|AV-procd|sdf|11077|dock5
  -GOLD-   2272015553D 1   1.00000     0.00000
 Structure written by MMmdl.
 40 42  0  0  0  0  0  0  0  0  2 V2000
  152.3490  144.3965  157.7903 C   0  0  0  0  0  0  0  0  0  0  0  0
  151.5168  143.5738  158.8015 C   0  0  0  0  0  0  0  0  0  0  0  0
  152.5161  143.0404  159.8532 C   0  0  0  0  0  0  0  0  0  0  0  0
  150.4818  144.4840  159.4876 C   0  0  0  0  0  0  0  0  0  0  0  0
  150.7932  142.4162  158.0991 C   0  0  0  0  0  0  0  0  0  0  0  0
  149.9251  142.6873  157.1079 N   0  3  0  0  0  0  0  0  0  0  0  0
  149.3578  141.6775  156.4044 C   0  0  0  0  0  0  0  0  0  0  0  0
  149.6958  140.3403  156.6797 C   0  0  0  0  0  0  0  0  0  0  0  0
  150.6425  140.1217  157.6937 C   0  0  0  0  0  0  0  0  0  0  0  0
  151.0356  138.8126  158.0040 N   0  0  0  0  0  0  0  0  0  0  0  0
  151.7660  137.9992  157.0360 C   0  0  2  0  0  0  0  0  0  0  0  0
  152.3013  138.8089  155.8526 C   0  0  0  0  0  0  0  0  0  0  0  0
  151.7444  138.0240  154.6563 C   0  0  2  0  0  0  0  0  0  0  0  0
  150.2425  138.2741  154.4696 C   0  0  0  0  0  0  0  0  0  0  0  0
  149.6506  137.4966  155.6438 C   0  0  0  0  0  0  0  0  0  0  0  0
  150.9116  136.9325  156.3212 C   0  0  1  0  0  0  0  0  0  0  0  0
  151.7233  136.7069  155.1814 O   0  0  0  0  0  0  0  0  0  0  0  0
  151.1851  141.1604  158.3649 N   0  0  0  0  0  0  0  0  0  0  0  0
  152.9013  145.1947  158.2875 H   0  0  0  0  0  0  0  0  0  0  0  0
  151.7221  144.8710  157.0343 H   0  0  0  0  0  0  0  0  0  0  0  0
  153.0757  143.7706  157.2704 H   0  0  0  0  0  0  0  0  0  0  0  0
  153.2487  142.3703  159.4013 H   0  0  0  0  0  0  0  0  0  0  0  0
  152.0154  142.4942  160.6533 H   0  0  0  0  0  0  0  0  0  0  0  0
  153.0668  143.8550  160.3253 H   0  0  0  0  0  0  0  0  0  0  0  0
  150.9622  145.3187  159.9995 H   0  0  0  0  0  0  0  0  0  0  0  0
  149.8999  143.9347  160.2288 H   0  0  0  0  0  0  0  0  0  0  0  0
  149.7808  144.9022  158.7640 H   0  0  0  0  0  0  0  0  0  0  0  0
  148.6577  141.9739  155.6372 H   0  0  0  0  0  0  0  0  0  0  0  0
  149.2532  139.5241  156.1271 H   0  0  0  0  0  0  0  0  0  0  0  0
  151.0142  138.5051  158.9656 H   0  0  0  0  0  0  0  0  0  0  0  0
  152.6092  137.5161  157.5325 H   0  0  0  0  0  0  0  0  0  0  0  0
  151.9740  139.8498  155.8450 H   0  0  0  0  0  0  0  0  0  0  0  0
  153.3919  138.7988  155.8515 H   0  0  0  0  0  0  0  0  0  0  0  0
  152.3279  138.1358  153.7423 H   0  0  0  0  0  0  0  0  0  0  0  0
  149.9913  139.3350  154.4927 H   0  0  0  0  0  0  0  0  0  0  0  0
  149.8943  137.8603  153.5225 H   0  0  0  0  0  0  0  0  0  0  0  0
  149.0482  138.1184  156.3066 H   0  0  0  0  0  0  0  0  0  0  0  0
  149.0186  136.6863  155.2789 H   0  0  0  0  0  0  0  0  0  0  0  0
  150.7281  136.0378  156.9170 H   0  0  0  0  0  0  0  0  0  0  0  0
  149.6829  143.6528  156.8836 H   0  0  0  0  0  0  0  0  0  0  0  0
  1  2  1  0  0  0  0
  1 19  1  0  0  0  0
  1 20  1  0  0  0  0
  1 21  1  0  0  0  0
  2  3  1  0  0  0  0
  2  4  1  0  0  0  0
  2  5  1  0  0  0  0
  3 22  1  0  0  0  0
  3 23  1  0  0  0  0
  3 24  1  0  0  0  0
  4 25  1  0  0  0  0
  4 26  1  0  0  0  0
  4 27  1  0  0  0  0
  5 18  1  0  0  0  0
  5  6  2  0  0  0  0
  6  7  1  0  0  0  0
  6 40  1  0  0  0  0
  7  8  2  0  0  0  0
  7 28  1  0  0  0  0
  8  9  1  0  0  0  0
  8 29  1  0  0  0  0
  9 10  1  0  0  0  0
  9 18  2  0  0  0  0
 10 11  1  0  0  0  0
 10 30  1  0  0  0  0
 11 16  1  0  0  0  0
 11 12  1  0  0  0  0
 11 31  1  0  0  0  0
 12 13  1  0  0  0  0
 12 32  1  0  0  0  0
 12 33  1  0  0  0  0
 13 17  1  0  0  0  0
 13 14  1  0  0  0  0
 13 34  1  0  0  0  0
 14 15  1  0  0  0  0
 14 35  1  0  0  0  0
 14 36  1  0  0  0  0
 15 16  1  0  0  0  0
 15 37  1  0  0  0  0
 15 38  1  0  0  0  0
 16 17  1  0  0  0  0
 16 39  1  0  0  0  0
M  CHG  1   6   1
M  END
> <s_m_source_file>
AV-unprocessed.smi

> <i_m_source_file_index>
2883

> <i_lp_mmshare_version>
43012

> <i_f3d_flags>
0

> <s_epik_input>
W0NIM11DKFtDSDNdKShbQ0gzXSljMW5bY0hdW2NIXWMobjEpW05IXVtDQEhdKFtDSDJdW0NAQEhdMjMpW0NAQEhdKE8zKVtDSDJdW0NIMl0y

> <s_epik_cmdline>
J2VwaWtfcHl0aG9uJywgJy1waCcsICc3LjAnLCAnLXRuJywgJzgnLCAnLW1hJywgJzIwMCcsICctbWV0YWxfYmluZGluZycsICctaW1hZScsICc8aW5maWxlLm1hZT4nLCAnLW9tYWUnLCAnPG91dGZpbGUubWFlPic=

> <r_lp_tautomer_probability>
0.999336

> <r_epik_Ionization_Penalty>
0.371831

> <r_epik_Ionization_Penalty_Charging>
0.371821

> <r_epik_Ionization_Penalty_Neutral>
1.06897e-05

> <r_epik_State_Penalty>
0.369311

> <r_epik_Charging_Adjusted_Penalty>
0.741132

> <i_epik_Tot_Q>
1

> <i_epik_Tot_abs_Q>
1

> <r_epik_Metal_State_Penalty>
0.621338

> <b_epik_Metal_Only>
0

> <s_lp_Force_Field>
OPLS_2005

> <r_lp_Energy>
39.227

> <b_lp_Chiralities_Consistent>
1

> <s_lp_Variant>
AV-unprocessed.smi:2883-3

> <Gold.Version>
5.8.1

> <Gold.Id.Protein>
6NUR|6NUR_protein|mol2

> <Gold.PLP.Fitness>
40.3499

> <Gold.PLP.PLP>
-33.6447

> <Gold.PLP.part.hbond>
-2.0000

> <Gold.PLP.part.metal>
0.0000

> <Gold.PLP.part.buried>
-5.3641

> <Gold.PLP.part.nonpolar>
-26.9312

> <Gold.PLP.part.repulsive>
0.1634

> <Gold.PLP.ligand.clash>
0.0000

> <Gold.PLP.ligand.torsion>
0.8959

> <Gold.PLP.Chemscore.Hbond>
2.7840

> <Gold.PLP.Chemscore.CHOScore>
0.0000

> <Gold.PLP.Chemscore.Metal>
0.0000

> <Gold.Chemscore.Hbonds>
donor molecule, donor type, donor heavy atom, donor atom, acceptor molecule, acceptor atom, score
      L1  H     6    40       P1  8028  1.82
      P1  H 10752 10763       L1    17  1.00

> <Gold.PLP.Chemscore.Internal.Correction>
0.1451

> <Gold.Rescore>
     Score         DG    S(hbond)    S(metal)    S(lipo)     H(rot)  DE(clash)    DE(int)     intcor
     18.17     -19.50       1.76        0.00      95.18       1.16       0.37       0.96       ----

> <Gold.Chemscore.Fitness>
18.1691

> <Gold.Chemscore.DG>
-19.5022

> <Gold.Chemscore.ZeroCoef>
-5.4800

> <Gold.Chemscore.Hbond>
1.7552

> <Gold.Chemscore.Metal>
0.0000

> <Gold.Chemscore.Lipo>
95.1797

> <Gold.Chemscore.Internal_Hbond>
0.0000

> <Gold.Chemscore.DEClash>
0.3707

> <Gold.Chemscore.DEInternal>
0.9624

> <Gold.Chemscore.Rot>
1.1626

> <Gold.Chemscore.Internal.Correction>
   9.000000E+99

> <Gold.Chemscore.Hbonds>
donor molecule, donor type, donor heavy atom, donor atom, acceptor molecule, acceptor atom, score
      L1  H     6    40       P1  8028  0.86
      P1  H 10752 10763       L1    17  0.78

> <Gold.Chemscore.Hbond.Weighted>
-5.8625

> <Gold.Chemscore.Metal.Weighted>
-0.0000

> <Gold.Chemscore.Lipo.Weighted>
-11.1360

> <Gold.Chemscore.Internal_Hbond.Weighted>
0.0000

> <Gold.Chemscore.DEClash.Weighted>
0.3707

> <Gold.Chemscore.DEInternal.Weighted>
0.9624

> <Gold.Chemscore.Rot.Weighted>
2.9763

> <Gold.Chemscore.Internal.Correction.Weighted>
   9.000000E+99

> <Gold.Protein.RotatedTorsions>
[ 6907 6896 6895 6894 ] final   96.46 input  -60.11 | X-H torsion
[ 7974 7965 7964 7962 ] final   67.85 input  175.53 | X-H torsion
[ 8008 7997 7996 7995 ] final  139.30 input   59.86 | X-H torsion
[ 10167 10162 10161 10158 ] final   -1.00 input  -65.29 | X-H torsion
[ 10718 10713 10712 10709 ] final   14.02 input   66.30 | X-H torsion
[ 10763 10752 10751 10750 ] final   46.22 input  -60.55 | X-H torsion
[ 11005 11000 10999 10996 ] final  -89.56 input  -57.11 | X-H torsion

> <Gold.Protein.ActiveResidues>
 VAL166  LYS551  ARG553  GLY616  TRP617  ASP618  TYR619  PRO620  LYS621  CYS622 
 ASP623  PHE694  ASN695  SER759  ASP760  ASP761  ALA762  ILE779  LEU786  VAL792 
 PHE793  MET794  SER795  GLU796  ALA797  LYS798  CYS799  TRP800  GLU811  SER814 

> <Gold.Protein.RotatedAtoms>
  152.5434  134.0883  159.8265 H   0  0  0  0  0  0  0  0  0  0  0  0  # atno 6907 bound_to 6896
  151.0976  133.5261  159.2619 H   0  0  0  0  0  0  0  0  0  0  0  0  # atno 6908 bound_to 6896
  151.2028  135.0458  159.8933 H   0  0  0  0  0  0  0  0  0  0  0  0  # atno 6909 bound_to 6896
  145.8097  139.3026  143.1106 H   0  0  0  0  0  0  0  0  0  0  0  0  # atno 7974 bound_to 7965
  156.2991  140.2371  156.4215 H   0  0  0  0  0  0  0  0  0  0  0  0  # atno 8008 bound_to 7997
  154.8351  140.0431  157.1523 H   0  0  0  0  0  0  0  0  0  0  0  0  # atno 8009 bound_to 7997
  154.9165  140.2997  155.5242 H   0  0  0  0  0  0  0  0  0  0  0  0  # atno 8010 bound_to 7997
  140.6791  143.6828  150.8091 H   0  0  0  0  0  0  0  0  0  0  0  0  # atno 10167 bound_to 10162
  157.0330  130.6200  149.5738 H   0  0  0  0  0  0  0  0  0  0  0  0  # atno 10718 bound_to 10713
  152.9813  135.6015  154.3565 H   0  0  0  0  0  0  0  0  0  0  0  0  # atno 10763 bound_to 10752
  154.3250  135.2769  155.2502 H   0  0  0  0  0  0  0  0  0  0  0  0  # atno 10764 bound_to 10752
  154.4652  135.5956  153.6339 H   0  0  0  0  0  0  0  0  0  0  0  0  # atno 10765 bound_to 10752
  141.1582  133.7637  156.9612 H   0  0  0  0  0  0  0  0  0  0  0  0  # atno 11005 bound_to 11000
  145.9790  140.8698  143.0124 LP  0  0  0  0  0  0  0  0  0  0  0  0  # atno 17320 bound_to 7965
  144.6759  140.2054  143.7382 LP  0  0  0  0  0  0  0  0  0  0  0  0  # atno 17321 bound_to 7965
  140.0525  143.5235  152.2666 LP  0  0  0  0  0  0  0  0  0  0  0  0  # atno 17342 bound_to 10162
  139.6102  144.7607  151.2969 LP  0  0  0  0  0  0  0  0  0  0  0  0  # atno 17343 bound_to 10162
  156.0063  130.5150  150.7840 LP  0  0  0  0  0  0  0  0  0  0  0  0  # atno 17370 bound_to 10713
  157.5163  131.0928  151.0135 LP  0  0  0  0  0  0  0  0  0  0  0  0  # atno 17371 bound_to 10713
  140.1192  134.9428  157.2178 LP  0  0  0  0  0  0  0  0  0  0  0  0  # atno 17394 bound_to 11000
  140.3094  134.3041  155.7270 LP  0  0  0  0  0  0  0  0  0  0  0  0  # atno 17395 bound_to 11000

$$$$
