AV-unprocessed.smi:326|AV-procd|sdf|2345|dock6
  -GOLD-   2262022253D 1   1.00000     0.00000
 Structure written by MMmdl.
 44 45  0  0  0  0  0  0  0  0  1 V2000
  151.7070  144.6470  159.1608 C   0  0  0  0  0  0  0  0  0  0  0  0
  152.3350  143.6514  159.9488 O   0  0  0  0  0  0  0  0  0  0  0  0
  152.5984  142.4646  159.2175 C   0  0  0  0  0  0  0  0  0  0  0  0
  151.2716  141.7607  158.8910 C   0  0  0  0  0  0  0  0  0  0  0  0
  151.3666  140.9599  157.6656 N   0  0  0  0  0  0  0  0  0  0  0  0
  150.3320  141.1767  156.7716 N   0  0  0  0  0  0  0  0  0  0  0  0
  150.2932  140.5299  155.6516 C   0  0  0  0  0  0  0  0  0  0  0  0
  149.1975  140.7368  154.6653 C   0  0  0  0  0  0  0  0  0  0  0  0
  149.4025  141.2379  153.5585 O   0  0  0  0  0  0  0  0  0  0  0  0
  147.9784  140.3468  155.0776 N   0  0  0  0  0  0  0  0  0  0  0  0
  146.7333  140.4865  154.3261 C   0  0  2  0  0  0  0  0  0  0  0  0
  146.5573  141.9322  153.8177 C   0  0  0  0  0  0  0  0  0  0  0  0
  146.2907  142.9224  154.9659 C   0  0  0  0  0  0  0  0  0  0  0  0
  145.0800  142.4938  155.8175 C   0  0  2  0  0  0  0  0  0  0  0  0
  144.8213  143.4804  156.9647 C   0  0  0  0  0  0  0  0  0  0  0  0
  145.2712  141.0585  156.3438 C   0  0  0  0  0  0  0  0  0  0  0  0
  145.5363  140.0644  155.1989 C   0  0  0  0  0  0  0  0  0  0  0  0
  151.3302  139.5712  155.3097 C   0  0  0  0  0  0  0  0  0  0  0  0
  152.3297  139.3651  156.1951 C   0  0  0  0  0  0  0  0  0  0  0  0
  152.3928  140.0776  157.4723 C   0  0  0  0  0  0  0  0  0  0  0  0
  153.2860  139.8985  158.2998 O   0  0  0  0  0  0  0  0  0  0  0  0
  151.5273  145.5345  159.7677 H   0  0  0  0  0  0  0  0  0  0  0  0
  150.7462  144.2994  158.7790 H   0  0  0  0  0  0  0  0  0  0  0  0
  152.3351  144.9374  158.3175 H   0  0  0  0  0  0  0  0  0  0  0  0
  153.1137  142.7169  158.2897 H   0  0  0  0  0  0  0  0  0  0  0  0
  153.2566  141.8034  159.7837 H   0  0  0  0  0  0  0  0  0  0  0  0
  150.9736  141.1327  159.7327 H   0  0  0  0  0  0  0  0  0  0  0  0
  150.4773  142.5023  158.7910 H   0  0  0  0  0  0  0  0  0  0  0  0
  147.9052  139.9412  155.9996 H   0  0  0  0  0  0  0  0  0  0  0  0
  146.7701  139.8158  153.4658 H   0  0  0  0  0  0  0  0  0  0  0  0
  147.4351  142.2452  153.2509 H   0  0  0  0  0  0  0  0  0  0  0  0
  145.7206  141.9649  153.1189 H   0  0  0  0  0  0  0  0  0  0  0  0
  147.1776  142.9995  155.5966 H   0  0  0  0  0  0  0  0  0  0  0  0
  146.1220  143.9180  154.5540 H   0  0  0  0  0  0  0  0  0  0  0  0
  144.1987  142.5006  155.1742 H   0  0  0  0  0  0  0  0  0  0  0  0
  145.6679  143.5221  157.6505 H   0  0  0  0  0  0  0  0  0  0  0  0
  143.9411  143.1913  157.5395 H   0  0  0  0  0  0  0  0  0  0  0  0
  144.6498  144.4881  156.5852 H   0  0  0  0  0  0  0  0  0  0  0  0
  146.0999  141.0323  157.0528 H   0  0  0  0  0  0  0  0  0  0  0  0
  144.3859  140.7451  156.8981 H   0  0  0  0  0  0  0  0  0  0  0  0
  144.6451  139.9977  154.5738 H   0  0  0  0  0  0  0  0  0  0  0  0
  145.6978  139.0639  155.6027 H   0  0  0  0  0  0  0  0  0  0  0  0
  151.3079  139.0309  154.3743 H   0  0  0  0  0  0  0  0  0  0  0  0
  153.1062  138.6536  155.9551 H   0  0  0  0  0  0  0  0  0  0  0  0
  1  2  1  0  0  0  0
  1 22  1  0  0  0  0
  1 23  1  0  0  0  0
  1 24  1  0  0  0  0
  2  3  1  0  0  0  0
  3  4  1  0  0  0  0
  3 25  1  0  0  0  0
  3 26  1  0  0  0  0
  4  5  1  0  0  0  0
  4 27  1  0  0  0  0
  4 28  1  0  0  0  0
  5 20  1  0  0  0  0
  5  6  1  0  0  0  0
  6  7  2  0  0  0  0
  7  8  1  0  0  0  0
  7 18  1  0  0  0  0
  8  9  2  0  0  0  0
  8 10  1  0  0  0  0
 10 11  1  0  0  0  0
 10 29  1  0  0  0  0
 11 17  1  0  0  0  0
 11 12  1  0  0  0  0
 11 30  1  0  0  0  0
 12 13  1  0  0  0  0
 12 31  1  0  0  0  0
 12 32  1  0  0  0  0
 13 14  1  0  0  0  0
 13 33  1  0  0  0  0
 13 34  1  0  0  0  0
 14 15  1  0  0  0  0
 14 16  1  0  0  0  0
 14 35  1  0  0  0  0
 15 36  1  0  0  0  0
 15 37  1  0  0  0  0
 15 38  1  0  0  0  0
 16 17  1  0  0  0  0
 16 39  1  0  0  0  0
 16 40  1  0  0  0  0
 17 41  1  0  0  0  0
 17 42  1  0  0  0  0
 18 19  2  0  0  0  0
 18 43  1  0  0  0  0
 19 20  1  0  0  0  0
 19 44  1  0  0  0  0
 20 21  2  0  0  0  0
M  END
> <s_m_source_file>
AV-unprocessed.smi

> <i_m_source_file_index>
326

> <i_lp_mmshare_version>
43012

> <i_f3d_flags>
0

> <s_epik_input>
W0NIM11PW0NIMl1bQ0gyXW4xbmMoW2NIXVtjSF1jMT1PKUMoPU8pW05IXVtDQEBIXTJbQ0gyXVtDSDJdW0NAQEhdKFtDSDNdKVtDSDJdW0NIMl0y

> <s_epik_cmdline>
J2VwaWtfcHl0aG9uJywgJy1waCcsICc3LjAnLCAnLXRuJywgJzgnLCAnLW1hJywgJzIwMCcsICctbWV0YWxfYmluZGluZycsICctaW1hZScsICc8aW5maWxlLm1hZT4nLCAnLW9tYWUnLCAnPG91dGZpbGUubWFlPic=

> <r_lp_tautomer_probability>
1

> <r_epik_Ionization_Penalty>
6.47102e-07

> <r_epik_Ionization_Penalty_Charging>
6.8576e-09

> <r_epik_Ionization_Penalty_Neutral>
6.40245e-07

> <r_epik_State_Penalty>
-0

> <r_epik_Charging_Adjusted_Penalty>
6.8576e-09

> <i_epik_Tot_Q>
0

> <i_epik_Tot_abs_Q>
0

> <r_epik_Metal_State_Penalty>
-0

> <b_epik_Metal_Only>
0

> <s_lp_Force_Field>
OPLS_2005

> <r_lp_Energy>
28.5252

> <b_lp_Chiralities_Consistent>
1

> <s_lp_Variant>
AV-unprocessed.smi:326-2

> <Gold.Version>
5.8.1

> <Gold.Id.Protein>
6NUR|6NUR_protein|mol2

> <Gold.PLP.Fitness>
37.1093

> <Gold.PLP.PLP>
-33.9758

> <Gold.PLP.part.hbond>
-3.0000

> <Gold.PLP.part.metal>
0.0000

> <Gold.PLP.part.buried>
-3.5198

> <Gold.PLP.part.nonpolar>
-30.6215

> <Gold.PLP.part.repulsive>
3.4635

> <Gold.PLP.ligand.clash>
0.0000

> <Gold.PLP.ligand.torsion>
1.6008

> <Gold.PLP.Chemscore.Hbond>
2.0887

> <Gold.PLP.Chemscore.CHOScore>
0.0000

> <Gold.PLP.Chemscore.Metal>
0.0000

> <Gold.Chemscore.Hbonds>
donor molecule, donor type, donor heavy atom, donor atom, acceptor molecule, acceptor atom, score
      P1  H  7989  7998       L1     9  0.10
      P1  H  7997  8010       L1    21  0.94
      P1  H  8011  8017       L1     9  0.96

> <Gold.PLP.Chemscore.Internal.Correction>
0.0690

> <Gold.Rescore>
     Score         DG    S(hbond)    S(metal)    S(lipo)     H(rot)  DE(clash)    DE(int)     intcor
      9.48     -15.92       1.49        0.00      80.70       1.55       2.38       4.06       ----

> <Gold.Chemscore.Fitness>
9.4840

> <Gold.Chemscore.DG>
-15.9244

> <Gold.Chemscore.ZeroCoef>
-5.4800

> <Gold.Chemscore.Hbond>
1.4864

> <Gold.Chemscore.Metal>
0.0000

> <Gold.Chemscore.Lipo>
80.7016

> <Gold.Chemscore.Internal_Hbond>
0.0000

> <Gold.Chemscore.DEClash>
2.3807

> <Gold.Chemscore.DEInternal>
4.0597

> <Gold.Chemscore.Rot>
1.5478

> <Gold.Chemscore.Internal.Correction>
   9.000000E+99

> <Gold.Chemscore.Hbonds>
donor molecule, donor type, donor heavy atom, donor atom, acceptor molecule, acceptor atom, score
      P1  H  7989  7998       L1     9  0.02
      P1  H  7997  8010       L1    21  0.27
      P1  H  8011  8017       L1     9  0.92

> <Gold.Chemscore.Hbond.Weighted>
-4.9646

> <Gold.Chemscore.Metal.Weighted>
-0.0000

> <Gold.Chemscore.Lipo.Weighted>
-9.4421

> <Gold.Chemscore.Internal_Hbond.Weighted>
0.0000

> <Gold.Chemscore.DEClash.Weighted>
2.3807

> <Gold.Chemscore.DEInternal.Weighted>
4.0597

> <Gold.Chemscore.Rot.Weighted>
3.9623

> <Gold.Chemscore.Internal.Correction.Weighted>
   9.000000E+99

> <Gold.Protein.RotatedTorsions>
[ 6907 6896 6895 6894 ] final  -13.30 input  -60.11 | X-H torsion
[ 7974 7965 7964 7962 ] final -104.77 input  175.53 | X-H torsion
[ 8008 7997 7996 7995 ] final   16.74 input   59.86 | X-H torsion
[ 10167 10162 10161 10158 ] final  -79.35 input  -65.29 | X-H torsion
[ 10718 10713 10712 10709 ] final   -3.58 input   66.30 | X-H torsion
[ 10763 10752 10751 10750 ] final  -51.02 input  -60.55 | X-H torsion
[ 11005 11000 10999 10996 ] final   60.36 input  -57.11 | X-H torsion

> <Gold.Protein.ActiveResidues>
 VAL166  LYS551  ARG553  GLY616  TRP617  ASP618  TYR619  PRO620  LYS621  CYS622 
 ASP623  PHE694  ASN695  SER759  ASP760  ASP761  ALA762  ILE779  LEU786  VAL792 
 PHE793  MET794  SER795  GLU796  ALA797  LYS798  CYS799  TRP800  GLU811  SER814 

> <Gold.Protein.RotatedAtoms>
  151.3571  135.0896  159.9421 H   0  0  0  0  0  0  0  0  0  0  0  0  # atno 6907 bound_to 6896
  152.5172  133.9295  159.7584 H   0  0  0  0  0  0  0  0  0  0  0  0  # atno 6908 bound_to 6896
  150.9682  133.6318  159.2772 H   0  0  0  0  0  0  0  0  0  0  0  0  # atno 6909 bound_to 6896
  145.2389  140.9198  143.3161 H   0  0  0  0  0  0  0  0  0  0  0  0  # atno 7974 bound_to 7965
  154.8813  140.2973  155.5423 H   0  0  0  0  0  0  0  0  0  0  0  0  # atno 8008 bound_to 7997
  156.3022  140.2442  156.3750 H   0  0  0  0  0  0  0  0  0  0  0  0  # atno 8009 bound_to 7997
  154.8714  140.0401  157.1716 H   0  0  0  0  0  0  0  0  0  0  0  0  # atno 8010 bound_to 7997
  140.4601  143.2456  151.8361 H   0  0  0  0  0  0  0  0  0  0  0  0  # atno 10167 bound_to 10162
  156.7740  130.5309  149.5762 H   0  0  0  0  0  0  0  0  0  0  0  0  # atno 10718 bound_to 10713
  154.1198  135.6536  153.4901 H   0  0  0  0  0  0  0  0  0  0  0  0  # atno 10763 bound_to 10752
  153.0229  135.5267  154.7108 H   0  0  0  0  0  0  0  0  0  0  0  0  # atno 10764 bound_to 10752
  154.6313  135.2976  155.0183 H   0  0  0  0  0  0  0  0  0  0  0  0  # atno 10765 bound_to 10752
  140.0237  134.6114  155.9603 H   0  0  0  0  0  0  0  0  0  0  0  0  # atno 11005 bound_to 11000
  144.9607  139.3982  143.6357 LP  0  0  0  0  0  0  0  0  0  0  0  0  # atno 17320 bound_to 7965
  146.3334  139.8659  142.8848 LP  0  0  0  0  0  0  0  0  0  0  0  0  # atno 17321 bound_to 7965
  139.4805  144.5017  151.9051 LP  0  0  0  0  0  0  0  0  0  0  0  0  # atno 17342 bound_to 10162
  140.4103  144.2377  150.5889 LP  0  0  0  0  0  0  0  0  0  0  0  0  # atno 17343 bound_to 10162
  156.1260  130.6144  151.0264 LP  0  0  0  0  0  0  0  0  0  0  0  0  # atno 17370 bound_to 10713
  157.6678  131.0868  150.7687 LP  0  0  0  0  0  0  0  0  0  0  0  0  # atno 17371 bound_to 10713
  141.1790  133.6544  156.4942 LP  0  0  0  0  0  0  0  0  0  0  0  0  # atno 17394 bound_to 11000
  140.4343  134.7073  157.4958 LP  0  0  0  0  0  0  0  0  0  0  0  0  # atno 17395 bound_to 11000

$$$$
