AV-unprocessed.smi:35|AV-procd|sdf|272|dock9
  -GOLD-   2262016 43D 1   1.00000     0.00000
 Structure written by MMmdl.
 28 29  0  0  0  0  0  0  0  0  2 V2000
  150.7466  134.7999  157.4293 O   0  0  0  0  0  0  0  0  0  0  0  0
  150.8031  135.9535  157.0076 C   0  0  0  0  0  0  0  0  0  0  0  0
  151.5216  136.3047  155.9027 N   0  5  0  0  0  0  0  0  0  0  0  0
  151.5982  137.5909  155.4504 C   0  0  0  0  0  0  0  0  0  0  0  0
  152.1997  137.9006  154.4222 O   0  0  0  0  0  0  0  0  0  0  0  0
  150.9494  138.6241  156.1857 N   0  0  0  0  0  0  0  0  0  0  0  0
  151.0151  140.0565  155.6764 C   0  0  1  0  0  0  0  0  0  0  0  0
  150.5900  140.0964  154.3407 O   0  0  0  0  0  0  0  0  0  0  0  0
  149.2838  140.6589  154.2174 C   0  0  1  0  0  0  0  0  0  0  0  0
  148.1950  139.5673  154.3406 C   0  0  0  0  0  0  0  0  0  0  0  0
  148.2625  138.6900  153.2367 O   0  0  0  0  0  0  0  0  0  0  0  0
  149.2947  141.6947  155.3467 C   0  0  1  0  0  0  0  0  0  0  0  0
  148.0001  142.0718  155.7736 O   0  0  0  0  0  0  0  0  0  0  0  0
  150.0775  141.0075  156.4573 C   0  0  2  0  0  0  0  0  0  0  0  0
  150.8002  141.9777  157.1881 O   0  0  0  0  0  0  0  0  0  0  0  0
  150.1552  138.2812  157.2702 C   0  0  0  0  0  0  0  0  0  0  0  0
  150.0695  137.0070  157.7013 C   0  0  0  0  0  0  0  0  0  0  0  0
  148.9142  136.6774  159.2769 Br  0  0  0  0  0  0  0  0  0  0  0  0
  152.0727  140.3198  155.7339 H   0  0  0  0  0  0  0  0  0  0  0  0
  149.1835  141.1609  153.2542 H   0  0  0  0  0  0  0  0  0  0  0  0
  148.2590  139.0143  155.2763 H   0  0  0  0  0  0  0  0  0  0  0  0
  147.2015  140.0140  154.3128 H   0  0  0  0  0  0  0  0  0  0  0  0
  148.7678  139.1055  152.5549 H   0  0  0  0  0  0  0  0  0  0  0  0
  149.8298  142.5807  154.9995 H   0  0  0  0  0  0  0  0  0  0  0  0
  147.9648  143.0157  155.8108 H   0  0  0  0  0  0  0  0  0  0  0  0
  149.4130  140.4349  157.1071 H   0  0  0  0  0  0  0  0  0  0  0  0
  151.3672  141.5230  157.7940 H   0  0  0  0  0  0  0  0  0  0  0  0
  149.5867  139.0334  157.7948 H   0  0  0  0  0  0  0  0  0  0  0  0
  1  2  2  0  0  0  0
  2 17  1  0  0  0  0
  2  3  1  0  0  0  0
  3  4  1  0  0  0  0
  4  5  2  0  0  0  0
  4  6  1  0  0  0  0
  6  7  1  0  0  0  0
  6 16  1  0  0  0  0
  7 14  1  0  0  0  0
  7  8  1  0  0  0  0
  7 19  1  0  0  0  0
  8  9  1  0  0  0  0
  9 10  1  0  0  0  0
  9 12  1  0  0  0  0
  9 20  1  0  0  0  0
 10 11  1  0  0  0  0
 10 21  1  0  0  0  0
 10 22  1  0  0  0  0
 11 23  1  0  0  0  0
 12 13  1  0  0  0  0
 12 14  1  0  0  0  0
 12 24  1  0  0  0  0
 13 25  1  0  0  0  0
 14 15  1  0  0  0  0
 14 26  1  0  0  0  0
 15 27  1  0  0  0  0
 16 17  2  0  0  0  0
 16 28  1  0  0  0  0
 17 18  1  0  0  0  0
M  CHG  1   3  -1
M  END
> <s_m_source_file>
AV-unprocessed.smi

> <i_m_source_file_index>
35

> <i_lp_mmshare_version>
43012

> <i_f3d_flags>
0

> <s_epik_input>
Tz1jMVtuSF1jKD1PKW4oW2NIXWMxQnIpW0NAQEhdMk9bQ0BASF0oW0NIMl1bT0hdKVtDQEBIXShbT0hdKVtDQEhdMltPSF0=

> <s_epik_cmdline>
J2VwaWtfcHl0aG9uJywgJy1waCcsICc3LjAnLCAnLXRuJywgJzgnLCAnLW1hJywgJzIwMCcsICctbWV0YWxfYmluZGluZycsICctaW1hZScsICc8aW5maWxlLm1hZT4nLCAnLW9tYWUnLCAnPG91dGZpbGUubWFlPic=

> <r_epik_Ionization_Penalty>
1.06112

> <r_epik_Ionization_Penalty_Charging>
2.1796e-09

> <r_epik_Ionization_Penalty_Neutral>
1.06112

> <r_epik_State_Penalty>
1.11484

> <r_epik_Charging_Adjusted_Penalty>
1.11484

> <i_epik_Tot_Q>
-1

> <i_epik_Tot_abs_Q>
1

> <r_epik_Metal_State_Penalty>
0.0032876

> <b_epik_Metal_Only>
0

> <s_epik_Chemistry_Notes>
This compound contains an acetal/aminal-like group ( X-CH(R)-Y where X, Y are N, S, or O) that may be acid/base labile, releasing an aldehyde.

> <s_lp_Force_Field>
OPLS_2005

> <r_lp_Energy>
39.1744

> <b_lp_Chiralities_Consistent>
1

> <s_lp_Variant>
AV-unprocessed.smi:35-26

> <Gold.Version>
5.8.1

> <Gold.Id.Protein>
6NUR|6NUR_protein|mol2

> <Gold.PLP.Fitness>
40.6634

> <Gold.PLP.PLP>
-24.4655

> <Gold.PLP.part.hbond>
-6.6018

> <Gold.PLP.part.metal>
0.0000

> <Gold.PLP.part.buried>
-3.3000

> <Gold.PLP.part.nonpolar>
-15.7639

> <Gold.PLP.part.repulsive>
0.2732

> <Gold.PLP.ligand.clash>
0.0000

> <Gold.PLP.ligand.torsion>
0.0798

> <Gold.PLP.Chemscore.Hbond>
5.4320

> <Gold.PLP.Chemscore.CHOScore>
0.0000

> <Gold.PLP.Chemscore.Metal>
0.0000

> <Gold.Chemscore.Hbonds>
donor molecule, donor type, donor heavy atom, donor atom, acceptor molecule, acceptor atom, score
      L1  H    11    23       P1  7957  1.00
      L1  H    13    25       P1  8028  1.00
      P1  H  6896  6907       L1     1  0.42
      P1  H  7989  7998       L1     8  1.00
      P1  H 10752 10764       L1     3  2.00

> <Gold.PLP.Chemscore.Internal.Correction>
0.0615

> <Gold.Rescore>
     Score         DG    S(hbond)    S(metal)    S(lipo)     H(rot)  DE(clash)    DE(int)     intcor
      8.45      -9.92       2.95        0.00      33.08       3.63       0.05       1.42       ----

> <Gold.Chemscore.Fitness>
8.4478

> <Gold.Chemscore.DG>
-9.9157

> <Gold.Chemscore.ZeroCoef>
-5.4800

> <Gold.Chemscore.Hbond>
2.9485

> <Gold.Chemscore.Metal>
0.0000

> <Gold.Chemscore.Lipo>
33.0827

> <Gold.Chemscore.Internal_Hbond>
0.0000

> <Gold.Chemscore.DEClash>
0.0515

> <Gold.Chemscore.DEInternal>
1.4164

> <Gold.Chemscore.Rot>
3.6261

> <Gold.Chemscore.Internal.Correction>
   9.000000E+99

> <Gold.Chemscore.Hbonds>
donor molecule, donor type, donor heavy atom, donor atom, acceptor molecule, acceptor atom, score
      L1  H    11    23       P1  7957  1.00
      L1  H    13    25       P1  8028  0.61
      P1  H  6896  6907       L1     1  0.40
      P1  H  7989  7998       L1     8  0.55
      P1  H 10752 10764       L1     3  0.29

> <Gold.Chemscore.Hbond.Weighted>
-9.8478

> <Gold.Chemscore.Metal.Weighted>
-0.0000

> <Gold.Chemscore.Lipo.Weighted>
-3.8707

> <Gold.Chemscore.Internal_Hbond.Weighted>
0.0000

> <Gold.Chemscore.DEClash.Weighted>
0.0515

> <Gold.Chemscore.DEInternal.Weighted>
1.4164

> <Gold.Chemscore.Rot.Weighted>
9.2828

> <Gold.Chemscore.Internal.Correction.Weighted>
   9.000000E+99

> <Gold.Protein.RotatedTorsions>
[ 6907 6896 6895 6894 ] final -105.18 input  -60.11 | X-H torsion
[ 7974 7965 7964 7962 ] final   87.13 input  175.53 | X-H torsion
[ 8008 7997 7996 7995 ] final  -17.42 input   59.86 | X-H torsion
[ 10167 10162 10161 10158 ] final  -24.52 input  -65.29 | X-H torsion
[ 10718 10713 10712 10709 ] final  -51.21 input   66.30 | X-H torsion
[ 10763 10752 10751 10750 ] final  -33.95 input  -60.55 | X-H torsion
[ 11005 11000 10999 10996 ] final -126.26 input  -57.11 | X-H torsion

> <Gold.Protein.ActiveResidues>
 VAL166  LYS551  ARG553  GLY616  TRP617  ASP618  TYR619  PRO620  LYS621  CYS622 
 ASP623  PHE694  ASN695  SER759  ASP760  ASP761  ALA762  ILE779  LEU786  VAL792 
 PHE793  MET794  SER795  GLU796  ALA797  LYS798  CYS799  TRP800  GLU811  SER814 

> <Gold.Protein.RotatedAtoms>
  150.7324  134.0166  159.3687 H   0  0  0  0  0  0  0  0  0  0  0  0  # atno 6907 bound_to 6896
  151.8129  135.0673  160.0424 H   0  0  0  0  0  0  0  0  0  0  0  0  # atno 6908 bound_to 6896
  152.3060  133.5667  159.5685 H   0  0  0  0  0  0  0  0  0  0  0  0  # atno 6909 bound_to 6896
  145.5630  139.2306  143.2448 H   0  0  0  0  0  0  0  0  0  0  0  0  # atno 7974 bound_to 7965
  154.4979  140.2143  155.9407 H   0  0  0  0  0  0  0  0  0  0  0  0  # atno 8008 bound_to 7997
  156.1395  140.3182  155.8441 H   0  0  0  0  0  0  0  0  0  0  0  0  # atno 8009 bound_to 7997
  155.4146  140.0493  157.3020 H   0  0  0  0  0  0  0  0  0  0  0  0  # atno 8010 bound_to 7997
  140.7288  143.4346  151.0750 H   0  0  0  0  0  0  0  0  0  0  0  0  # atno 10167 bound_to 10162
  156.1731  130.4149  149.9618 H   0  0  0  0  0  0  0  0  0  0  0  0  # atno 10718 bound_to 10713
  153.8386  135.6859  153.4805 H   0  0  0  0  0  0  0  0  0  0  0  0  # atno 10763 bound_to 10752
  153.1467  135.4635  154.9575 H   0  0  0  0  0  0  0  0  0  0  0  0  # atno 10764 bound_to 10752
  154.7855  135.3283  154.7842 H   0  0  0  0  0  0  0  0  0  0  0  0  # atno 10765 bound_to 10752
  140.9696  134.0824  157.3883 H   0  0  0  0  0  0  0  0  0  0  0  0  # atno 11005 bound_to 11000
  146.1838  140.6455  142.9177 LP  0  0  0  0  0  0  0  0  0  0  0  0  # atno 17320 bound_to 7965
  144.7474  140.5102  143.6826 LP  0  0  0  0  0  0  0  0  0  0  0  0  # atno 17321 bound_to 7965
  139.8006  143.8089  152.3162 LP  0  0  0  0  0  0  0  0  0  0  0  0  # atno 17342 bound_to 10162
  139.8104  144.7338  150.9704 LP  0  0  0  0  0  0  0  0  0  0  0  0  # atno 17343 bound_to 10162
  156.7412  130.9080  151.3632 LP  0  0  0  0  0  0  0  0  0  0  0  0  # atno 17370 bound_to 10713
  157.6817  130.9146  150.0283 LP  0  0  0  0  0  0  0  0  0  0  0  0  # atno 17371 bound_to 10713
  139.8907  135.0114  156.6751 LP  0  0  0  0  0  0  0  0  0  0  0  0  # atno 17394 bound_to 11000
  140.7348  133.9028  155.8237 LP  0  0  0  0  0  0  0  0  0  0  0  0  # atno 17395 bound_to 11000

$$$$
