AV-unprocessed.smi:53|AV-procd|sdf|513|dock1
  -GOLD-   2262016383D 1   1.00000     0.00000
 Structure written by MMmdl.
 30 31  0  0  0  0  0  0  0  0  1 V2000
  155.1987  139.0891  162.8805 N   0  0  0  0  0  0  0  0  0  0  0  0
  154.6162  139.8714  161.9608 C   0  0  0  0  0  0  0  0  0  0  0  0
  154.1502  141.1935  162.3151 C   0  0  0  0  0  0  0  0  0  0  0  0
  153.5768  141.9215  161.3316 C   0  0  0  0  0  0  0  0  0  0  0  0
  153.4430  141.4392  160.0375 N   0  0  0  0  0  0  0  0  0  0  0  0
  152.7911  142.2814  158.9614 C   0  0  2  0  0  0  0  0  0  0  0  0
  152.6108  143.5693  159.4582 O   0  0  0  0  0  0  0  0  0  0  0  0
  151.4698  144.1377  158.8349 C   0  0  2  0  0  0  0  0  0  0  0  0
  150.9486  145.3175  159.6700 C   0  0  0  0  0  0  0  0  0  0  0  0
  149.5894  145.5584  159.3750 O   0  0  0  0  0  0  0  0  0  0  0  0
  150.4973  142.9543  158.7736 C   0  0  1  0  0  0  0  0  0  0  0  0
  149.5830  143.1268  157.7086 O   0  0  0  0  0  0  0  0  0  0  0  0
  151.4063  141.7540  158.5202 C   0  0  2  0  0  0  0  0  0  0  0  0
  150.9519  140.6233  159.2430 O   0  0  0  0  0  0  0  0  0  0  0  0
  153.8909  140.1337  159.7248 C   0  0  0  0  0  0  0  0  0  0  0  0
  153.7566  139.6514  158.6009 O   0  0  0  0  0  0  0  0  0  0  0  0
  154.4727  139.4119  160.7325 N   0  0  0  0  0  0  0  0  0  0  0  0
  153.4972  142.3534  158.1320 H   0  0  0  0  0  0  0  0  0  0  0  0
  151.7367  144.4538  157.8239 H   0  0  0  0  0  0  0  0  0  0  0  0
  149.9687  142.8509  159.7229 H   0  0  0  0  0  0  0  0  0  0  0  0
  151.4671  141.5065  157.4593 H   0  0  0  0  0  0  0  0  0  0  0  0
  155.5199  138.1650  162.6312 H   0  0  0  0  0  0  0  0  0  0  0  0
  155.3140  139.4271  163.8253 H   0  0  0  0  0  0  0  0  0  0  0  0
  154.2389  141.6097  163.3083 H   0  0  0  0  0  0  0  0  0  0  0  0
  153.2100  142.9078  161.5773 H   0  0  0  0  0  0  0  0  0  0  0  0
  151.0139  145.0822  160.7327 H   0  0  0  0  0  0  0  0  0  0  0  0
  151.5415  146.2168  159.5003 H   0  0  0  0  0  0  0  0  0  0  0  0
  149.4654  145.4774  158.4416 H   0  0  0  0  0  0  0  0  0  0  0  0
  149.8239  143.9036  157.2277 H   0  0  0  0  0  0  0  0  0  0  0  0
  151.0937  139.8543  158.7119 H   0  0  0  0  0  0  0  0  0  0  0  0
  1  2  1  0  0  0  0
  1 22  1  0  0  0  0
  1 23  1  0  0  0  0
  2 17  2  0  0  0  0
  2  3  1  0  0  0  0
  3  4  2  0  0  0  0
  3 24  1  0  0  0  0
  4  5  1  0  0  0  0
  4 25  1  0  0  0  0
  5  6  1  0  0  0  0
  5 15  1  0  0  0  0
  6 18  1  0  0  0  0
  6 13  1  0  0  0  0
  6  7  1  0  0  0  0
  7  8  1  0  0  0  0
  8 19  1  0  0  0  0
  8  9  1  0  0  0  0
  8 11  1  0  0  0  0
  9 10  1  0  0  0  0
  9 26  1  0  0  0  0
  9 27  1  0  0  0  0
 10 28  1  0  0  0  0
 11 20  1  0  0  0  0
 11 12  1  0  0  0  0
 11 13  1  0  0  0  0
 12 29  1  0  0  0  0
 13 21  1  0  0  0  0
 13 14  1  0  0  0  0
 14 30  1  0  0  0  0
 15 16  2  0  0  0  0
 15 17  1  0  0  0  0
M  END
> <s_m_source_file>
AV-unprocessed.smi

> <i_m_source_file_index>
53

> <i_lp_mmshare_version>
43012

> <i_f3d_flags>
0

> <s_epik_input>
W05IMl1jMVtjSF1bY0hdbihjKD1PKW4xKVtDQEBIXTJPW0NASF0oW0NIMl1bT0hdKVtDQEBIXShbT0hdKVtDQEBIXTJbT0hd

> <s_epik_cmdline>
J2VwaWtfcHl0aG9uJywgJy1waCcsICc3LjAnLCAnLXRuJywgJzgnLCAnLW1hJywgJzIwMCcsICctbWV0YWxfYmluZGluZycsICctaW1hZScsICc8aW5maWxlLm1hZT4nLCAnLW9tYWUnLCAnPG91dGZpbGUubWFlPic=

> <r_lp_tautomer_probability>
0.99996

> <r_epik_Ionization_Penalty>
0.00069087

> <r_epik_Ionization_Penalty_Charging>
2.61959e-08

> <r_epik_Ionization_Penalty_Neutral>
0.000690844

> <r_epik_State_Penalty>
1.15523e-05

> <r_epik_Charging_Adjusted_Penalty>
1.15785e-05

> <i_epik_Tot_Q>
0

> <i_epik_Tot_abs_Q>
0

> <r_epik_Metal_State_Penalty>
-0

> <b_epik_Metal_Only>
0

> <s_epik_Chemistry_Notes>
This compound contains an acetal/aminal-like group ( X-CH(R)-Y where X, Y are N, S, or O) that may be acid/base labile, releasing an aldehyde.

> <s_lp_Force_Field>
OPLS_2005

> <r_lp_Energy>
35.6127

> <b_lp_Chiralities_Consistent>
1

> <s_lp_Variant>
AV-unprocessed.smi:53-1

> <Gold.Version>
5.8.1

> <Gold.Id.Protein>
6NUR|6NUR_protein|mol2

> <Gold.PLP.Fitness>
38.8641

> <Gold.PLP.PLP>
-32.1269

> <Gold.PLP.part.hbond>
-4.5194

> <Gold.PLP.part.metal>
0.0000

> <Gold.PLP.part.buried>
-2.1596

> <Gold.PLP.part.nonpolar>
-24.8448

> <Gold.PLP.part.repulsive>
0.0000

> <Gold.PLP.ligand.clash>
0.0000

> <Gold.PLP.ligand.torsion>
0.3407

> <Gold.PLP.Chemscore.Hbond>
2.3840

> <Gold.PLP.Chemscore.CHOScore>
0.0000

> <Gold.PLP.Chemscore.Metal>
0.0000

> <Gold.Chemscore.Hbonds>
donor molecule, donor type, donor heavy atom, donor atom, acceptor molecule, acceptor atom, score
      L1  H    10    28       P1  8029  0.62
      L1  H    12    29       P1  8028  0.58
      P1  H  7997  8008       L1    16  0.96

> <Gold.PLP.Chemscore.Internal.Correction>
0.2665

> <Gold.Rescore>
     Score         DG    S(hbond)    S(metal)    S(lipo)     H(rot)  DE(clash)    DE(int)     intcor
      8.90      -9.42       2.23        0.00      51.23       3.71       0.05       0.48       ----

> <Gold.Chemscore.Fitness>
8.8967

> <Gold.Chemscore.DG>
-9.4180

> <Gold.Chemscore.ZeroCoef>
-5.4800

> <Gold.Chemscore.Hbond>
2.2279

> <Gold.Chemscore.Metal>
0.0000

> <Gold.Chemscore.Lipo>
51.2252

> <Gold.Chemscore.Internal_Hbond>
0.0000

> <Gold.Chemscore.DEClash>
0.0460

> <Gold.Chemscore.DEInternal>
0.4753

> <Gold.Chemscore.Rot>
3.7095

> <Gold.Chemscore.Internal.Correction>
   9.000000E+99

> <Gold.Chemscore.Hbonds>
donor molecule, donor type, donor heavy atom, donor atom, acceptor molecule, acceptor atom, score
      L1  H    10    28       P1  8029  0.51
      L1  H    12    29       P1  8028  0.44
      P1  H  7997  8008       L1    16  0.92

> <Gold.Chemscore.Hbond.Weighted>
-7.4411

> <Gold.Chemscore.Metal.Weighted>
-0.0000

> <Gold.Chemscore.Lipo.Weighted>
-5.9933

> <Gold.Chemscore.Internal_Hbond.Weighted>
0.0000

> <Gold.Chemscore.DEClash.Weighted>
0.0460

> <Gold.Chemscore.DEInternal.Weighted>
0.4753

> <Gold.Chemscore.Rot.Weighted>
9.4964

> <Gold.Chemscore.Internal.Correction.Weighted>
   9.000000E+99

> <Gold.Protein.RotatedTorsions>
[ 6907 6896 6895 6894 ] final  -43.03 input  -60.11 | X-H torsion
[ 7974 7965 7964 7962 ] final -107.30 input  175.53 | X-H torsion
[ 8008 7997 7996 7995 ] final  -79.82 input   59.86 | X-H torsion
[ 10167 10162 10161 10158 ] final  -51.59 input  -65.29 | X-H torsion
[ 10718 10713 10712 10709 ] final -113.86 input   66.30 | X-H torsion
[ 10763 10752 10751 10750 ] final -128.60 input  -60.55 | X-H torsion
[ 11005 11000 10999 10996 ] final  -97.17 input  -57.11 | X-H torsion

> <Gold.Protein.ActiveResidues>
 VAL166  LYS551  ARG553  GLY616  TRP617  ASP618  TYR619  PRO620  LYS621  CYS622 
 ASP623  PHE694  ASN695  SER759  ASP760  ASP761  ALA762  ILE779  LEU786  VAL792 
 PHE793  MET794  SER795  GLU796  ALA797  LYS798  CYS799  TRP800  GLU811  SER814 

> <Gold.Protein.RotatedAtoms>
  150.9485  134.8887  159.7656 H   0  0  0  0  0  0  0  0  0  0  0  0  # atno 6907 bound_to 6896
  152.5110  134.3841  159.9371 H   0  0  0  0  0  0  0  0  0  0  0  0  # atno 6908 bound_to 6896
  151.3858  133.3765  159.2750 H   0  0  0  0  0  0  0  0  0  0  0  0  # atno 6909 bound_to 6896
  145.2070  140.9080  143.3336 H   0  0  0  0  0  0  0  0  0  0  0  0  # atno 7974 bound_to 7965
  154.5823  140.0672  156.9121 H   0  0  0  0  0  0  0  0  0  0  0  0  # atno 8008 bound_to 7997
  155.2441  140.3347  155.4271 H   0  0  0  0  0  0  0  0  0  0  0  0  # atno 8009 bound_to 7997
  156.2198  140.1794  156.7489 H   0  0  0  0  0  0  0  0  0  0  0  0  # atno 8010 bound_to 7997
  140.6581  143.2614  151.4525 H   0  0  0  0  0  0  0  0  0  0  0  0  # atno 10167 bound_to 10162
  156.0793  130.5996  150.8699 H   0  0  0  0  0  0  0  0  0  0  0  0  # atno 10718 bound_to 10713
  154.8756  135.3923  154.3783 H   0  0  0  0  0  0  0  0  0  0  0  0  # atno 10763 bound_to 10752
  153.4534  135.7028  153.6100 H   0  0  0  0  0  0  0  0  0  0  0  0  # atno 10764 bound_to 10752
  153.4630  135.3807  155.2317 H   0  0  0  0  0  0  0  0  0  0  0  0  # atno 10765 bound_to 10752
  141.1388  133.8151  157.0670 H   0  0  0  0  0  0  0  0  0  0  0  0  # atno 11005 bound_to 11000
  144.9892  139.3706  143.6223 LP  0  0  0  0  0  0  0  0  0  0  0  0  # atno 17320 bound_to 7965
  146.3405  139.9067  142.8786 LP  0  0  0  0  0  0  0  0  0  0  0  0  # atno 17321 bound_to 7965
  139.5808  144.1715  152.1965 LP  0  0  0  0  0  0  0  0  0  0  0  0  # atno 17342 bound_to 10162
  140.1039  144.5515  150.6970 LP  0  0  0  0  0  0  0  0  0  0  0  0  # atno 17343 bound_to 10162
  157.5903  131.0944  150.9129 LP  0  0  0  0  0  0  0  0  0  0  0  0  # atno 17370 bound_to 10713
  156.9306  130.5348  149.5279 LP  0  0  0  0  0  0  0  0  0  0  0  0  # atno 17371 bound_to 10713
  140.0535  134.9793  157.1179 LP  0  0  0  0  0  0  0  0  0  0  0  0  # atno 17394 bound_to 11000
  140.3954  134.2140  155.7165 LP  0  0  0  0  0  0  0  0  0  0  0  0  # atno 17395 bound_to 11000

$$$$
