AV-unprocessed.smi:1570|AV-procd|sdf|6316|dock9
  -GOLD-   22720 6523D 1   1.00000     0.00000
 Structure written by MMmdl.
 51 53  0  0  0  0  0  0  0  0  1 V2000
  154.9399  141.0229  160.2814 C   0  0  0  0  0  0  0  0  0  0  0  0
  153.5309  140.4482  160.0898 C   0  0  0  0  0  0  0  0  0  0  0  0
  152.7382  141.2800  159.1880 N   0  0  0  0  0  0  0  0  0  0  0  0
  152.2254  140.9101  157.9910 C   0  0  0  0  0  0  0  0  0  0  0  0
  152.3403  139.8026  157.4655 O   0  0  0  0  0  0  0  0  0  0  0  0
  151.5723  141.9738  157.4661 N   0  0  0  0  0  0  0  0  0  0  0  0
  150.8672  142.0153  156.1859 C   0  0  0  0  0  0  0  0  0  0  0  0
  150.3261  140.6293  155.7820 C   0  0  2  0  0  0  0  0  0  0  0  0
  151.3549  139.9387  155.1015 O   0  0  0  0  0  0  0  0  0  0  0  0
  149.1383  140.7553  154.8057 C   0  0  0  0  0  0  0  0  0  0  0  0
  148.0068  141.5528  155.2832 N   0  0  0  0  0  0  0  0  0  0  0  0
  147.0443  140.7113  155.9871 C   0  0  0  0  0  0  0  0  0  0  0  0
  145.8265  141.4992  156.5089 C   0  0  1  0  0  0  0  0  0  0  0  0
  146.1463  142.3818  157.7274 C   0  0  0  0  0  0  0  0  0  0  0  0
  145.2358  142.2515  155.4482 O   0  0  0  0  0  0  0  0  0  0  0  0
  146.1340  143.0927  154.7272 C   0  0  2  0  0  0  0  0  0  0  0  0
  145.3533  143.7580  153.5889 C   0  0  0  0  0  0  0  0  0  0  0  0
  147.3166  142.2562  154.2053 C   0  0  0  0  0  0  0  0  0  0  0  0
  151.6858  143.0608  158.3445 C   0  0  0  0  0  0  0  0  0  0  0  0
  151.2053  144.3790  158.2540 C   0  0  0  0  0  0  0  0  0  0  0  0
  151.5020  145.2509  159.3277 C   0  0  0  0  0  0  0  0  0  0  0  0
  152.2566  144.8015  160.4422 C   0  0  0  0  0  0  0  0  0  0  0  0
  152.7312  143.4705  160.5065 C   0  0  0  0  0  0  0  0  0  0  0  0
  152.4198  142.6244  159.4278 C   0  0  0  0  0  0  0  0  0  0  0  0
  155.5238  140.3989  160.9579 H   0  0  0  0  0  0  0  0  0  0  0  0
  154.9023  142.0273  160.7041 H   0  0  0  0  0  0  0  0  0  0  0  0
  155.4759  141.0770  159.3332 H   0  0  0  0  0  0  0  0  0  0  0  0
  153.5957  139.4326  159.6965 H   0  0  0  0  0  0  0  0  0  0  0  0
  153.0261  140.3666  161.0527 H   0  0  0  0  0  0  0  0  0  0  0  0
  150.0356  142.7134  156.2956 H   0  0  0  0  0  0  0  0  0  0  0  0
  151.4979  142.4373  155.4024 H   0  0  0  0  0  0  0  0  0  0  0  0
  150.0391  140.0724  156.6729 H   0  0  0  0  0  0  0  0  0  0  0  0
  151.0373  139.0754  154.8830 H   0  0  0  0  0  0  0  0  0  0  0  0
  149.4920  141.1777  153.8638 H   0  0  0  0  0  0  0  0  0  0  0  0
  148.7936  139.7485  154.5636 H   0  0  0  0  0  0  0  0  0  0  0  0
  146.6917  139.9274  155.3147 H   0  0  0  0  0  0  0  0  0  0  0  0
  147.5311  140.2027  156.8203 H   0  0  0  0  0  0  0  0  0  0  0  0
  145.0737  140.7782  156.8281 H   0  0  0  0  0  0  0  0  0  0  0  0
  146.4914  141.7751  158.5649 H   0  0  0  0  0  0  0  0  0  0  0  0
  145.2607  142.9256  158.0565 H   0  0  0  0  0  0  0  0  0  0  0  0
  146.9262  143.1119  157.5124 H   0  0  0  0  0  0  0  0  0  0  0  0
  146.5069  143.8749  155.3890 H   0  0  0  0  0  0  0  0  0  0  0  0
  145.9933  144.4260  153.0122 H   0  0  0  0  0  0  0  0  0  0  0  0
  144.5232  144.3478  153.9784 H   0  0  0  0  0  0  0  0  0  0  0  0
  144.9419  143.0147  152.9054 H   0  0  0  0  0  0  0  0  0  0  0  0
  148.0022  142.9232  153.6850 H   0  0  0  0  0  0  0  0  0  0  0  0
  146.9586  141.5379  153.4660 H   0  0  0  0  0  0  0  0  0  0  0  0
  150.6365  144.7186  157.4013 H   0  0  0  0  0  0  0  0  0  0  0  0
  151.1516  146.2722  159.2972 H   0  0  0  0  0  0  0  0  0  0  0  0
  152.4731  145.4844  161.2504 H   0  0  0  0  0  0  0  0  0  0  0  0
  153.3097  143.1245  161.3502 H   0  0  0  0  0  0  0  0  0  0  0  0
  1  2  1  0  0  0  0
  1 25  1  0  0  0  0
  1 26  1  0  0  0  0
  1 27  1  0  0  0  0
  2  3  1  0  0  0  0
  2 28  1  0  0  0  0
  2 29  1  0  0  0  0
  3 24  1  0  0  0  0
  3  4  1  0  0  0  0
  4  5  2  0  0  0  0
  4  6  1  0  0  0  0
  6  7  1  0  0  0  0
  6 19  1  0  0  0  0
  7  8  1  0  0  0  0
  7 30  1  0  0  0  0
  7 31  1  0  0  0  0
  8  9  1  0  0  0  0
  8 10  1  0  0  0  0
  8 32  1  0  0  0  0
  9 33  1  0  0  0  0
 10 11  1  0  0  0  0
 10 34  1  0  0  0  0
 10 35  1  0  0  0  0
 11 18  1  0  0  0  0
 11 12  1  0  0  0  0
 12 13  1  0  0  0  0
 12 36  1  0  0  0  0
 12 37  1  0  0  0  0
 13 14  1  0  0  0  0
 13 15  1  0  0  0  0
 13 38  1  0  0  0  0
 14 39  1  0  0  0  0
 14 40  1  0  0  0  0
 14 41  1  0  0  0  0
 15 16  1  0  0  0  0
 16 17  1  0  0  0  0
 16 18  1  0  0  0  0
 16 42  1  0  0  0  0
 17 43  1  0  0  0  0
 17 44  1  0  0  0  0
 17 45  1  0  0  0  0
 18 46  1  0  0  0  0
 18 47  1  0  0  0  0
 19 24  2  0  0  0  0
 19 20  1  0  0  0  0
 20 21  2  0  0  0  0
 20 48  1  0  0  0  0
 21 22  1  0  0  0  0
 21 49  1  0  0  0  0
 22 23  2  0  0  0  0
 22 50  1  0  0  0  0
 23 24  1  0  0  0  0
 23 51  1  0  0  0  0
M  END
> <s_m_source_file>
AV-unprocessed.smi

> <i_m_source_file_index>
1570

> <i_lp_mmshare_version>
43012

> <i_f3d_flags>
0

> <s_epik_input>
W2NIXTFbY0hdW2NIXVtjSF1jKGMxMiluKFtDSDJdW0NIM10pYyg9TyluMltDSDJdW0NASF0oW09IXSlbQ0gyXU4zW0NIMl1bQ0BASF0oW0NIM10pT1tDQEBIXShbQ0gzXSlbQ0gyXTM=

> <s_epik_cmdline>
J2VwaWtfcHl0aG9uJywgJy1waCcsICc3LjAnLCAnLXRuJywgJzgnLCAnLW1hJywgJzIwMCcsICctbWV0YWxfYmluZGluZycsICctaW1hZScsICc8aW5maWxlLm1hZT4nLCAnLW9tYWUnLCAnPG91dGZpbGUubWFlPic=

> <r_epik_Ionization_Penalty>
0.214359

> <r_epik_Ionization_Penalty_Charging>
2.30976e-09

> <r_epik_Ionization_Penalty_Neutral>
0.214359

> <r_epik_State_Penalty>
0.204533

> <r_epik_Charging_Adjusted_Penalty>
0.204533

> <i_epik_Tot_Q>
0

> <i_epik_Tot_abs_Q>
0

> <r_epik_Metal_State_Penalty>
0.204533

> <b_epik_Metal_Only>
0

> <s_lp_Force_Field>
OPLS_2005

> <r_lp_Energy>
63.3527

> <b_lp_Chiralities_Consistent>
1

> <s_lp_Variant>
AV-unprocessed.smi:1570-5

> <Gold.Version>
5.8.1

> <Gold.Id.Protein>
6NUR|6NUR_protein|mol2

> <Gold.PLP.Fitness>
53.8871

> <Gold.PLP.PLP>
-52.9423

> <Gold.PLP.part.hbond>
-1.2633

> <Gold.PLP.part.metal>
0.0000

> <Gold.PLP.part.buried>
-8.2469

> <Gold.PLP.part.nonpolar>
-43.6541

> <Gold.PLP.part.repulsive>
0.2790

> <Gold.PLP.ligand.clash>
0.0000

> <Gold.PLP.ligand.torsion>
1.0584

> <Gold.PLP.Chemscore.Hbond>
1.0000

> <Gold.PLP.Chemscore.CHOScore>
0.0000

> <Gold.PLP.Chemscore.Metal>
0.0000

> <Gold.Chemscore.Hbonds>
donor molecule, donor type, donor heavy atom, donor atom, acceptor molecule, acceptor atom, score
      P1  H  7989  7998       L1     9  1.00

> <Gold.PLP.Chemscore.Internal.Correction>
0.0616

> <Gold.Rescore>
     Score         DG    S(hbond)    S(metal)    S(lipo)     H(rot)  DE(clash)    DE(int)     intcor
     16.15     -18.66       0.77        0.00     135.58       2.06       0.06       2.45       ----

> <Gold.Chemscore.Fitness>
16.1513

> <Gold.Chemscore.DG>
-18.6596

> <Gold.Chemscore.ZeroCoef>
-5.4800

> <Gold.Chemscore.Hbond>
0.7736

> <Gold.Chemscore.Metal>
0.0000

> <Gold.Chemscore.Lipo>
135.5784

> <Gold.Chemscore.Internal_Hbond>
0.0000

> <Gold.Chemscore.DEClash>
0.0571

> <Gold.Chemscore.DEInternal>
2.4513

> <Gold.Chemscore.Rot>
2.0574

> <Gold.Chemscore.Internal.Correction>
   9.000000E+99

> <Gold.Chemscore.Hbonds>
donor molecule, donor type, donor heavy atom, donor atom, acceptor molecule, acceptor atom, score
      P1  H  7989  7998       L1     9  0.36

> <Gold.Chemscore.Hbond.Weighted>
-2.5838

> <Gold.Chemscore.Metal.Weighted>
-0.0000

> <Gold.Chemscore.Lipo.Weighted>
-15.8627

> <Gold.Chemscore.Internal_Hbond.Weighted>
0.0000

> <Gold.Chemscore.DEClash.Weighted>
0.0571

> <Gold.Chemscore.DEInternal.Weighted>
2.4513

> <Gold.Chemscore.Rot.Weighted>
5.2669

> <Gold.Chemscore.Internal.Correction.Weighted>
   9.000000E+99

> <Gold.Protein.RotatedTorsions>
[ 6907 6896 6895 6894 ] final   12.58 input  -60.11 | X-H torsion
[ 7974 7965 7964 7962 ] final -111.36 input  175.53 | X-H torsion
[ 8008 7997 7996 7995 ] final  114.61 input   59.86 | X-H torsion
[ 10167 10162 10161 10158 ] final  -44.32 input  -65.29 | X-H torsion
[ 10718 10713 10712 10709 ] final  -74.72 input   66.30 | X-H torsion
[ 10763 10752 10751 10750 ] final   45.52 input  -60.55 | X-H torsion
[ 11005 11000 10999 10996 ] final  -90.64 input  -57.11 | X-H torsion

> <Gold.Protein.ActiveResidues>
 VAL166  LYS551  ARG553  GLY616  TRP617  ASP618  TYR619  PRO620  LYS621  CYS622 
 ASP623  PHE694  ASN695  SER759  ASP760  ASP761  ALA762  ILE779  LEU786  VAL792 
 PHE793  MET794  SER795  GLU796  ALA797  LYS798  CYS799  TRP800  GLU811  SER814 

> <Gold.Protein.RotatedAtoms>
  151.7726  135.0782  160.0361 H   0  0  0  0  0  0  0  0  0  0  0  0  # atno 6907 bound_to 6896
  152.3278  133.5920  159.5797 H   0  0  0  0  0  0  0  0  0  0  0  0  # atno 6908 bound_to 6896
  150.7405  133.9830  159.3624 H   0  0  0  0  0  0  0  0  0  0  0  0  # atno 6909 bound_to 6896
  145.1570  140.8859  143.3613 H   0  0  0  0  0  0  0  0  0  0  0  0  # atno 7974 bound_to 7965
  156.2331  140.2955  156.0242 H   0  0  0  0  0  0  0  0  0  0  0  0  # atno 8008 bound_to 7997
  155.2167  140.0414  157.2959 H   0  0  0  0  0  0  0  0  0  0  0  0  # atno 8009 bound_to 7997
  154.6031  140.2432  155.7773 H   0  0  0  0  0  0  0  0  0  0  0  0  # atno 8010 bound_to 7997
  140.6901  143.2936  151.3479 H   0  0  0  0  0  0  0  0  0  0  0  0  # atno 10167 bound_to 10162
  156.0233  130.4423  150.2934 H   0  0  0  0  0  0  0  0  0  0  0  0  # atno 10718 bound_to 10713
  152.9823  135.6037  154.3449 H   0  0  0  0  0  0  0  0  0  0  0  0  # atno 10763 bound_to 10752
  154.3143  135.2770  155.2552 H   0  0  0  0  0  0  0  0  0  0  0  0  # atno 10764 bound_to 10752
  154.4747  135.5932  153.6403 H   0  0  0  0  0  0  0  0  0  0  0  0  # atno 10765 bound_to 10752
  141.1561  133.7705  156.9766 H   0  0  0  0  0  0  0  0  0  0  0  0  # atno 11005 bound_to 11000
  145.0370  139.3292  143.5995 LP  0  0  0  0  0  0  0  0  0  0  0  0  # atno 17320 bound_to 7965
  146.3487  139.9730  142.8704 LP  0  0  0  0  0  0  0  0  0  0  0  0  # atno 17321 bound_to 7965
  139.6295  144.0748  152.2464 LP  0  0  0  0  0  0  0  0  0  0  0  0  # atno 17342 bound_to 10162
  140.0218  144.6147  150.7560 LP  0  0  0  0  0  0  0  0  0  0  0  0  # atno 17343 bound_to 10162
  157.1038  131.0203  151.3075 LP  0  0  0  0  0  0  0  0  0  0  0  0  # atno 17370 bound_to 10713
  157.4759  130.7736  149.7367 LP  0  0  0  0  0  0  0  0  0  0  0  0  # atno 17371 bound_to 10713
  140.1094  134.9486  157.2042 LP  0  0  0  0  0  0  0  0  0  0  0  0  # atno 17394 bound_to 11000
  140.3214  134.2912  155.7245 LP  0  0  0  0  0  0  0  0  0  0  0  0  # atno 17395 bound_to 11000

$$$$
