AV-unprocessed.smi:3032|AV-procd|sdf|11567|dock3
  -GOLD-   2272016533D 1   1.00000     0.00000
 Structure written by MMmdl.
 37 38  0  0  0  0  0  0  0  0  1 V2000
  153.3618  141.8001  161.1308 C   0  0  0  0  0  0  0  0  0  0  0  0
  152.9728  142.2401  159.7122 C   0  0  2  0  0  0  0  0  0  0  0  0
  152.9022  143.7752  159.5982 C   0  0  0  0  0  0  0  0  0  0  0  0
  152.5046  144.2182  158.1812 C   0  0  0  0  0  0  0  0  0  0  0  0
  151.1768  143.5771  157.7490 C   0  0  0  0  0  0  0  0  0  0  0  0
  151.2428  142.0388  157.8441 C   0  0  2  0  0  0  0  0  0  0  0  0
  149.9069  141.4099  157.4273 C   0  0  0  0  0  0  0  0  0  0  0  0
  149.1941  140.8519  158.2621 O   0  0  0  0  0  0  0  0  0  0  0  0
  149.5739  141.5164  156.1319 N   0  0  0  0  0  0  0  0  0  0  0  0
  148.3392  141.0141  155.5361 C   0  0  0  0  0  0  0  0  0  0  0  0
  148.5776  140.1823  154.2599 C   0  0  0  0  0  0  0  0  0  0  0  0
  149.8316  139.3671  154.2950 C   0  0  0  0  0  0  0  0  0  0  0  0
  150.9972  139.7794  154.8080 N   0  0  0  0  0  0  0  0  0  0  0  0
  151.8807  138.7285  154.6164 N   0  0  0  0  0  0  0  0  0  0  0  0
  151.1619  137.7849  154.0059 C   0  0  0  0  0  0  0  0  0  0  0  0
  149.8881  138.1279  153.7830 N   0  0  0  0  0  0  0  0  0  0  0  0
  151.6386  141.6057  159.2724 C   0  0  0  0  0  0  0  0  0  0  0  0
  149.1560  137.5925  153.3393 H   0  0  0  0  0  0  0  0  0  0  0  0
  152.6190  142.1194  161.8625 H   0  0  0  0  0  0  0  0  0  0  0  0
  154.3221  142.2246  161.4249 H   0  0  0  0  0  0  0  0  0  0  0  0
  153.4482  140.7152  161.1957 H   0  0  0  0  0  0  0  0  0  0  0  0
  153.7521  141.8879  159.0347 H   0  0  0  0  0  0  0  0  0  0  0  0
  152.1795  144.1657  160.3158 H   0  0  0  0  0  0  0  0  0  0  0  0
  153.8654  144.2140  159.8613 H   0  0  0  0  0  0  0  0  0  0  0  0
  152.4219  145.3047  158.1418 H   0  0  0  0  0  0  0  0  0  0  0  0
  153.2909  143.9424  157.4772 H   0  0  0  0  0  0  0  0  0  0  0  0
  150.3719  143.9598  158.3786 H   0  0  0  0  0  0  0  0  0  0  0  0
  150.9412  143.8807  156.7279 H   0  0  0  0  0  0  0  0  0  0  0  0
  152.0158  141.6888  157.1575 H   0  0  0  0  0  0  0  0  0  0  0  0
  150.2163  141.9924  155.5147 H   0  0  0  0  0  0  0  0  0  0  0  0
  147.8503  140.3910  156.2854 H   0  0  0  0  0  0  0  0  0  0  0  0
  147.6572  141.8403  155.3301 H   0  0  0  0  0  0  0  0  0  0  0  0
  147.7324  139.5130  154.0960 H   0  0  0  0  0  0  0  0  0  0  0  0
  148.6134  140.8402  153.3905 H   0  0  0  0  0  0  0  0  0  0  0  0
  151.5727  136.8288  153.7166 H   0  0  0  0  0  0  0  0  0  0  0  0
  151.7186  140.5184  159.3186 H   0  0  0  0  0  0  0  0  0  0  0  0
  150.8559  141.8860  159.9798 H   0  0  0  0  0  0  0  0  0  0  0  0
  1  2  1  0  0  0  0
  1 19  1  0  0  0  0
  1 20  1  0  0  0  0
  1 21  1  0  0  0  0
  2 17  1  0  0  0  0
  2  3  1  0  0  0  0
  2 22  1  0  0  0  0
  3  4  1  0  0  0  0
  3 23  1  0  0  0  0
  3 24  1  0  0  0  0
  4  5  1  0  0  0  0
  4 25  1  0  0  0  0
  4 26  1  0  0  0  0
  5  6  1  0  0  0  0
  5 27  1  0  0  0  0
  5 28  1  0  0  0  0
  6  7  1  0  0  0  0
  6 17  1  0  0  0  0
  6 29  1  0  0  0  0
  7  8  2  0  0  0  0
  7  9  1  0  0  0  0
  9 10  1  0  0  0  0
  9 30  1  0  0  0  0
 10 11  1  0  0  0  0
 10 31  1  0  0  0  0
 10 32  1  0  0  0  0
 11 12  1  0  0  0  0
 11 33  1  0  0  0  0
 11 34  1  0  0  0  0
 12 16  1  0  0  0  0
 12 13  2  0  0  0  0
 13 14  1  0  0  0  0
 14 15  2  0  0  0  0
 15 16  1  0  0  0  0
 15 35  1  0  0  0  0
 16 18  1  0  0  0  0
 17 36  1  0  0  0  0
 17 37  1  0  0  0  0
M  END
> <s_m_source_file>
AV-unprocessed.smi

> <i_m_source_file_index>
3032

> <i_lp_mmshare_version>
43012

> <i_f3d_flags>
0

> <s_epik_input>
W0NIM11bQ0BASF0xW0NIMl1bQ0gyXVtDSDJdW0NASF0oW0NIMl0xKUMoPU8pW05IXVtDSDJdW0NIMl1jMm5uW2NIXVtuSF0y

> <s_epik_cmdline>
J2VwaWtfcHl0aG9uJywgJy1waCcsICc3LjAnLCAnLXRuJywgJzgnLCAnLW1hJywgJzIwMCcsICctbWV0YWxfYmluZGluZycsICctaW1hZScsICc8aW5maWxlLm1hZT4nLCAnLW9tYWUnLCAnPG91dGZpbGUubWFlPic=

> <r_lp_tautomer_probability>
0.0517155

> <r_epik_Ionization_Penalty>
0.00149837

> <r_epik_Ionization_Penalty_Charging>
0

> <r_epik_Ionization_Penalty_Neutral>
0.00149837

> <r_epik_State_Penalty>
2.1109

> <r_epik_Charging_Adjusted_Penalty>
2.1109

> <i_epik_Tot_Q>
0

> <i_epik_Tot_abs_Q>
0

> <r_epik_Metal_State_Penalty>
2.23635

> <b_epik_Metal_Only>
0

> <s_lp_Force_Field>
OPLS_2005

> <r_lp_Energy>
11.1501

> <b_lp_Chiralities_Consistent>
1

> <s_lp_Variant>
AV-unprocessed.smi:3032-11

> <Gold.Version>
5.8.1

> <Gold.Id.Protein>
6NUR|6NUR_protein|mol2

> <Gold.PLP.Fitness>
43.5674

> <Gold.PLP.PLP>
-37.3842

> <Gold.PLP.part.hbond>
-3.0677

> <Gold.PLP.part.metal>
0.0000

> <Gold.PLP.part.buried>
-3.0589

> <Gold.PLP.part.nonpolar>
-32.9837

> <Gold.PLP.part.repulsive>
0.3030

> <Gold.PLP.ligand.clash>
0.0000

> <Gold.PLP.ligand.torsion>
0.6888

> <Gold.PLP.Chemscore.Hbond>
1.7589

> <Gold.PLP.Chemscore.CHOScore>
0.7546

> <Gold.PLP.Chemscore.Metal>
0.0000

> <Gold.Chemscore.Hbonds>
donor molecule, donor type, donor heavy atom, donor atom, acceptor molecule, acceptor atom, score
      L1  H    16    18       P1  7948  0.75
      P1  H  7989  7998       L1    13  0.85
      L1  C    15    35       P1  7949  0.80

> <Gold.PLP.Chemscore.Internal.Correction>
0.0204

> <Gold.Rescore>
     Score         DG    S(hbond)    S(metal)    S(lipo)     H(rot)  DE(clash)    DE(int)     intcor
     10.34     -13.02       0.91        0.00      87.63       2.25       0.13       2.55       ----

> <Gold.Chemscore.Fitness>
10.3371

> <Gold.Chemscore.DG>
-13.0154

> <Gold.Chemscore.ZeroCoef>
-5.4800

> <Gold.Chemscore.Hbond>
0.9112

> <Gold.Chemscore.Metal>
0.0000

> <Gold.Chemscore.Lipo>
87.6258

> <Gold.Chemscore.Internal_Hbond>
0.0000

> <Gold.Chemscore.DEClash>
0.1303

> <Gold.Chemscore.DEInternal>
2.5480

> <Gold.Chemscore.Rot>
2.2501

> <Gold.Chemscore.Internal.Correction>
   9.000000E+99

> <Gold.Chemscore.Hbonds>
donor molecule, donor type, donor heavy atom, donor atom, acceptor molecule, acceptor atom, score
      L1  H    16    18       P1  7948  0.71
      P1  H  7989  7998       L1    13  0.05

> <Gold.Chemscore.Hbond.Weighted>
-3.0435

> <Gold.Chemscore.Metal.Weighted>
-0.0000

> <Gold.Chemscore.Lipo.Weighted>
-10.2522

> <Gold.Chemscore.Internal_Hbond.Weighted>
0.0000

> <Gold.Chemscore.DEClash.Weighted>
0.1303

> <Gold.Chemscore.DEInternal.Weighted>
2.5480

> <Gold.Chemscore.Rot.Weighted>
5.7603

> <Gold.Chemscore.Internal.Correction.Weighted>
   9.000000E+99

> <Gold.Protein.RotatedTorsions>
[ 6907 6896 6895 6894 ] final  158.38 input  -60.11 | X-H torsion
[ 7974 7965 7964 7962 ] final  -62.76 input  175.53 | X-H torsion
[ 8008 7997 7996 7995 ] final -123.13 input   59.86 | X-H torsion
[ 10167 10162 10161 10158 ] final  138.51 input  -65.29 | X-H torsion
[ 10718 10713 10712 10709 ] final  -47.94 input   66.30 | X-H torsion
[ 10763 10752 10751 10750 ] final  160.49 input  -60.55 | X-H torsion
[ 11005 11000 10999 10996 ] final  120.29 input  -57.11 | X-H torsion

> <Gold.Protein.ActiveResidues>
 VAL166  LYS551  ARG553  GLY616  TRP617  ASP618  TYR619  PRO620  LYS621  CYS622 
 ASP623  PHE694  ASN695  SER759  ASP760  ASP761  ALA762  ILE779  LEU786  VAL792 
 PHE793  MET794  SER795  GLU796  ALA797  LYS798  CYS799  TRP800  GLU811  SER814 

> <Gold.Protein.RotatedAtoms>
  152.0012  133.3826  159.4182 H   0  0  0  0  0  0  0  0  0  0  0  0  # atno 6907 bound_to 6896
  150.6910  134.3831  159.5052 H   0  0  0  0  0  0  0  0  0  0  0  0  # atno 6908 bound_to 6896
  152.1579  134.8936  160.0594 H   0  0  0  0  0  0  0  0  0  0  0  0  # atno 6909 bound_to 6896
  145.7873  140.8729  143.0299 H   0  0  0  0  0  0  0  0  0  0  0  0  # atno 7974 bound_to 7965
  155.1755  140.0409  157.2872 H   0  0  0  0  0  0  0  0  0  0  0  0  # atno 8008 bound_to 7997
  154.6239  140.2507  155.7488 H   0  0  0  0  0  0  0  0  0  0  0  0  # atno 8009 bound_to 7997
  156.2449  140.2889  156.0560 H   0  0  0  0  0  0  0  0  0  0  0  0  # atno 8010 bound_to 7997
  139.5108  144.6349  151.5723 H   0  0  0  0  0  0  0  0  0  0  0  0  # atno 10167 bound_to 10162
  156.2035  130.4157  149.9209 H   0  0  0  0  0  0  0  0  0  0  0  0  # atno 10718 bound_to 10713
  154.2481  135.2772  155.2827 H   0  0  0  0  0  0  0  0  0  0  0  0  # atno 10763 bound_to 10752
  154.5488  135.5681  153.6907 H   0  0  0  0  0  0  0  0  0  0  0  0  # atno 10764 bound_to 10752
  152.9986  135.6269  154.2628 H   0  0  0  0  0  0  0  0  0  0  0  0  # atno 10765 bound_to 10752
  139.9179  134.9634  156.7784 H   0  0  0  0  0  0  0  0  0  0  0  0  # atno 11005 bound_to 11000
  144.6787  140.0073  143.7484 LP  0  0  0  0  0  0  0  0  0  0  0  0  # atno 17320 bound_to 7965
  146.0013  139.3093  143.0926 LP  0  0  0  0  0  0  0  0  0  0  0  0  # atno 17321 bound_to 7965
  140.6094  143.9464  150.6442 LP  0  0  0  0  0  0  0  0  0  0  0  0  # atno 17342 bound_to 10162
  140.2701  143.3462  152.1245 LP  0  0  0  0  0  0  0  0  0  0  0  0  # atno 17343 bound_to 10162
  156.6910  130.8896  151.3588 LP  0  0  0  0  0  0  0  0  0  0  0  0  # atno 17370 bound_to 10713
  157.6999  130.9322  150.0755 LP  0  0  0  0  0  0  0  0  0  0  0  0  # atno 17371 bound_to 10713
  140.6564  133.9685  155.7782 LP  0  0  0  0  0  0  0  0  0  0  0  0  # atno 17394 bound_to 11000
  141.0673  134.0257  157.3575 LP  0  0  0  0  0  0  0  0  0  0  0  0  # atno 17395 bound_to 11000

$$$$
