AV-unprocessed.smi:3264|AV-procd|sdf|12495|dock9
  -GOLD-   2272018393D 1   1.00000     0.00000
 Structure written by MMmdl.
 32 33  0  0  0  0  0  0  0  0  1 V2000
  152.0383  144.5594  158.0203 C   0  0  0  0  0  0  0  0  0  0  0  0
  152.1929  144.0538  159.4138 C   0  0  0  0  0  0  0  0  0  0  0  0
  152.8845  142.9558  159.7303 N   0  0  0  0  0  0  0  0  0  0  0  0
  152.8743  142.6903  161.1033 C   0  0  0  0  0  0  0  0  0  0  0  0
  153.6029  141.4960  161.6406 C   0  0  0  0  0  0  0  0  0  0  0  0
  153.8514  140.4317  160.5629 C   0  0  0  0  0  0  0  0  0  0  0  0
  152.6761  140.2781  159.7161 N   0  0  0  0  0  0  0  0  0  0  0  0
  152.6848  139.7435  158.4866 C   0  0  0  0  0  0  0  0  0  0  0  0
  153.7054  139.3196  157.9433 O   0  0  0  0  0  0  0  0  0  0  0  0
  151.3276  139.6666  157.7767 C   0  0  1  0  0  0  0  0  0  0  0  0
  150.6130  141.0204  157.5967 C   0  0  0  0  0  0  0  0  0  0  0  0
  150.6448  141.2481  156.0977 C   0  0  0  0  0  0  0  0  0  0  0  0
  150.6668  139.8237  155.5628 C   0  0  0  0  0  0  0  0  0  0  0  0
  151.5444  139.1632  156.4602 O   0  0  0  0  0  0  0  0  0  0  0  0
  152.1620  143.6135  161.8276 C   0  0  0  0  0  0  0  0  0  0  0  0
  151.4754  144.8491  160.8094 S   0  0  0  0  0  0  0  0  0  0  0  0
  152.6115  143.9476  157.3228 H   0  0  0  0  0  0  0  0  0  0  0  0
  152.3926  145.5882  157.9557 H   0  0  0  0  0  0  0  0  0  0  0  0
  150.9883  144.5309  157.7289 H   0  0  0  0  0  0  0  0  0  0  0  0
  154.5570  141.8071  162.0681 H   0  0  0  0  0  0  0  0  0  0  0  0
  153.0366  141.0566  162.4629 H   0  0  0  0  0  0  0  0  0  0  0  0
  154.7023  140.7129  159.9407 H   0  0  0  0  0  0  0  0  0  0  0  0
  154.0974  139.4790  161.0356 H   0  0  0  0  0  0  0  0  0  0  0  0
  151.7940  140.5969  160.0904 H   0  0  0  0  0  0  0  0  0  0  0  0
  150.6699  138.9799  158.3127 H   0  0  0  0  0  0  0  0  0  0  0  0
  149.5804  140.9355  157.9378 H   0  0  0  0  0  0  0  0  0  0  0  0
  151.0651  141.8480  158.1448 H   0  0  0  0  0  0  0  0  0  0  0  0
  149.7971  141.8289  155.7337 H   0  0  0  0  0  0  0  0  0  0  0  0
  151.5630  141.7654  155.8163 H   0  0  0  0  0  0  0  0  0  0  0  0
  149.6760  139.3694  155.6164 H   0  0  0  0  0  0  0  0  0  0  0  0
  151.0222  139.7633  154.5341 H   0  0  0  0  0  0  0  0  0  0  0  0
  152.0009  143.6424  162.8951 H   0  0  0  0  0  0  0  0  0  0  0  0
  1  2  1  0  0  0  0
  1 17  1  0  0  0  0
  1 18  1  0  0  0  0
  1 19  1  0  0  0  0
  2 16  1  0  0  0  0
  2  3  2  0  0  0  0
  3  4  1  0  0  0  0
  4  5  1  0  0  0  0
  4 15  2  0  0  0  0
  5  6  1  0  0  0  0
  5 20  1  0  0  0  0
  5 21  1  0  0  0  0
  6  7  1  0  0  0  0
  6 22  1  0  0  0  0
  6 23  1  0  0  0  0
  7  8  1  0  0  0  0
  7 24  1  0  0  0  0
  8  9  2  0  0  0  0
  8 10  1  0  0  0  0
 10 14  1  0  0  0  0
 10 11  1  0  0  0  0
 10 25  1  0  0  0  0
 11 12  1  0  0  0  0
 11 26  1  0  0  0  0
 11 27  1  0  0  0  0
 12 13  1  0  0  0  0
 12 28  1  0  0  0  0
 12 29  1  0  0  0  0
 13 14  1  0  0  0  0
 13 30  1  0  0  0  0
 13 31  1  0  0  0  0
 15 16  1  0  0  0  0
 15 32  1  0  0  0  0
M  END
> <s_m_source_file>
AV-unprocessed.smi

> <i_m_source_file_index>
3264

> <i_lp_mmshare_version>
43012

> <i_f3d_flags>
0

> <s_epik_input>
W0NIM11jMW5jKFtjSF1zMSlbQ0gyXVtDSDJdW05IXUMoPU8pW0NAQEhdMltDSDJdW0NIMl1bQ0gyXU8y

> <s_epik_cmdline>
J2VwaWtfcHl0aG9uJywgJy1waCcsICc3LjAnLCAnLXRuJywgJzgnLCAnLW1hJywgJzIwMCcsICctbWV0YWxfYmluZGluZycsICctaW1hZScsICc8aW5maWxlLm1hZT4nLCAnLW9tYWUnLCAnPG91dGZpbGUubWFlPic=

> <r_epik_Ionization_Penalty>
0.00112246

> <r_epik_Ionization_Penalty_Charging>
0

> <r_epik_Ionization_Penalty_Neutral>
0.00112246

> <r_epik_State_Penalty>
0.000737392

> <r_epik_Charging_Adjusted_Penalty>
0.000737392

> <i_epik_Tot_Q>
0

> <i_epik_Tot_abs_Q>
0

> <r_epik_Metal_State_Penalty>
-0

> <b_epik_Metal_Only>
0

> <s_lp_Force_Field>
OPLS_2005

> <r_lp_Energy>
13.6214

> <b_lp_Chiralities_Consistent>
1

> <s_lp_Variant>
AV-unprocessed.smi:3264-2

> <Gold.Version>
5.8.1

> <Gold.Id.Protein>
6NUR|6NUR_protein|mol2

> <Gold.PLP.Fitness>
42.0630

> <Gold.PLP.PLP>
-40.1392

> <Gold.PLP.part.hbond>
-0.9299

> <Gold.PLP.part.metal>
0.0000

> <Gold.PLP.part.buried>
-5.4817

> <Gold.PLP.part.nonpolar>
-33.0766

> <Gold.PLP.part.repulsive>
0.1320

> <Gold.PLP.ligand.clash>
0.0000

> <Gold.PLP.ligand.torsion>
0.5434

> <Gold.PLP.Chemscore.Hbond>
1.0000

> <Gold.PLP.Chemscore.CHOScore>
0.0000

> <Gold.PLP.Chemscore.Metal>
0.0000

> <Gold.Chemscore.Hbonds>
donor molecule, donor type, donor heavy atom, donor atom, acceptor molecule, acceptor atom, score
      P1  H  7997  8008       L1     9  0.83

> <Gold.PLP.Chemscore.Internal.Correction>
0.0106

> <Gold.Rescore>
     Score         DG    S(hbond)    S(metal)    S(lipo)     H(rot)  DE(clash)    DE(int)     intcor
     16.76     -17.25       0.97        0.00     106.01       1.52       0.16       0.33       ----

> <Gold.Chemscore.Fitness>
16.7571

> <Gold.Chemscore.DG>
-17.2467

> <Gold.Chemscore.ZeroCoef>
-5.4800

> <Gold.Chemscore.Hbond>
0.9715

> <Gold.Chemscore.Metal>
0.0000

> <Gold.Chemscore.Lipo>
106.0054

> <Gold.Chemscore.Internal_Hbond>
0.0000

> <Gold.Chemscore.DEClash>
0.1556

> <Gold.Chemscore.DEInternal>
0.3340

> <Gold.Chemscore.Rot>
1.5159

> <Gold.Chemscore.Internal.Correction>
   9.000000E+99

> <Gold.Chemscore.Hbonds>
donor molecule, donor type, donor heavy atom, donor atom, acceptor molecule, acceptor atom, score
      P1  H  7997  8008       L1     9  0.80

> <Gold.Chemscore.Hbond.Weighted>
-3.2448

> <Gold.Chemscore.Metal.Weighted>
-0.0000

> <Gold.Chemscore.Lipo.Weighted>
-12.4026

> <Gold.Chemscore.Internal_Hbond.Weighted>
0.0000

> <Gold.Chemscore.DEClash.Weighted>
0.1556

> <Gold.Chemscore.DEInternal.Weighted>
0.3340

> <Gold.Chemscore.Rot.Weighted>
3.8807

> <Gold.Chemscore.Internal.Correction.Weighted>
   9.000000E+99

> <Gold.Protein.RotatedTorsions>
[ 6907 6896 6895 6894 ] final   83.61 input  -60.11 | X-H torsion
[ 7974 7965 7964 7962 ] final   10.10 input  175.53 | X-H torsion
[ 8008 7997 7996 7995 ] final  -91.66 input   59.86 | X-H torsion
[ 10167 10162 10161 10158 ] final   39.49 input  -65.29 | X-H torsion
[ 10718 10713 10712 10709 ] final   70.99 input   66.30 | X-H torsion
[ 10763 10752 10751 10750 ] final  -72.30 input  -60.55 | X-H torsion
[ 11005 11000 10999 10996 ] final -123.97 input  -57.11 | X-H torsion

> <Gold.Protein.ActiveResidues>
 VAL166  LYS551  ARG553  GLY616  TRP617  ASP618  TYR619  PRO620  LYS621  CYS622 
 ASP623  PHE694  ASN695  SER759  ASP760  ASP761  ALA762  ILE779  LEU786  VAL792 
 PHE793  MET794  SER795  GLU796  ALA797  LYS798  CYS799  TRP800  GLU811  SER814 

> <Gold.Protein.RotatedAtoms>
  152.5331  134.2869  159.9028 H   0  0  0  0  0  0  0  0  0  0  0  0  # atno 6907 bound_to 6896
  151.2822  133.4198  159.2635 H   0  0  0  0  0  0  0  0  0  0  0  0  # atno 6908 bound_to 6896
  151.0274  134.9529  159.8149 H   0  0  0  0  0  0  0  0  0  0  0  0  # atno 6909 bound_to 6896
  146.2393  139.9685  142.8450 H   0  0  0  0  0  0  0  0  0  0  0  0  # atno 7974 bound_to 7965
  154.7135  140.0517  157.0573 H   0  0  0  0  0  0  0  0  0  0  0  0  # atno 8008 bound_to 7997
  155.0522  140.3180  155.4669 H   0  0  0  0  0  0  0  0  0  0  0  0  # atno 8009 bound_to 7997
  156.2796  140.2113  156.5648 H   0  0  0  0  0  0  0  0  0  0  0  0  # atno 8010 bound_to 7997
  140.3834  144.1949  150.6130 H   0  0  0  0  0  0  0  0  0  0  0  0  # atno 10167 bound_to 10162
  157.6429  130.9505  150.0727 H   0  0  0  0  0  0  0  0  0  0  0  0  # atno 10718 bound_to 10713
  154.4438  135.5934  153.6146 H   0  0  0  0  0  0  0  0  0  0  0  0  # atno 10763 bound_to 10752
  152.9807  135.6004  154.3689 H   0  0  0  0  0  0  0  0  0  0  0  0  # atno 10764 bound_to 10752
  154.3542  135.2841  155.2334 H   0  0  0  0  0  0  0  0  0  0  0  0  # atno 10765 bound_to 10752
  140.9878  134.0582  157.3690 H   0  0  0  0  0  0  0  0  0  0  0  0  # atno 11005 bound_to 11000
  145.1704  140.9718  143.4325 LP  0  0  0  0  0  0  0  0  0  0  0  0  # atno 17320 bound_to 7965
  145.0034  139.3577  143.6156 LP  0  0  0  0  0  0  0  0  0  0  0  0  # atno 17321 bound_to 7965
  140.4914  143.2346  151.8813 LP  0  0  0  0  0  0  0  0  0  0  0  0  # atno 17342 bound_to 10162
  139.4793  144.5162  151.8865 LP  0  0  0  0  0  0  0  0  0  0  0  0  # atno 17343 bound_to 10162
  156.1726  130.3647  149.9144 LP  0  0  0  0  0  0  0  0  0  0  0  0  # atno 17370 bound_to 10713
  156.7115  130.8972  151.3610 LP  0  0  0  0  0  0  0  0  0  0  0  0  # atno 17371 bound_to 10713
  139.8978  135.0152  156.7119 LP  0  0  0  0  0  0  0  0  0  0  0  0  # atno 17394 bound_to 11000
  140.7087  133.9242  155.8071 LP  0  0  0  0  0  0  0  0  0  0  0  0  # atno 17395 bound_to 11000

$$$$
