AV-unprocessed.smi:2840|AV-procd|sdf|10934|dock9
  -GOLD-   2272015383D 1   1.00000     0.00000
 Structure written by MMmdl.
 36 37  0  0  0  0  0  0  0  0  1 V2000
  146.8901  139.9351  150.9184 C   0  0  0  0  0  0  0  0  0  0  0  0
  147.2340  139.7849  152.4111 C   0  0  1  0  0  0  0  0  0  0  0  0
  147.0775  141.1370  153.1364 C   0  0  0  0  0  0  0  0  0  0  0  0
  147.4215  141.0310  154.6294 C   0  0  0  0  0  0  0  0  0  0  0  0
  146.5661  139.9578  155.3154 C   0  0  0  0  0  0  0  0  0  0  0  0
  146.7254  138.6002  154.6164 C   0  0  0  0  0  0  0  0  0  0  0  0
  146.3925  138.6874  153.1136 C   0  0  2  0  0  0  0  0  0  0  0  0
  146.6292  137.3785  152.5057 N   0  0  0  0  0  0  0  0  0  0  0  0
  145.6861  136.5091  152.1123 C   0  0  0  0  0  0  0  0  0  0  0  0
  144.4773  136.7220  152.2099 O   0  0  0  0  0  0  0  0  0  0  0  0
  146.2405  135.3943  151.6048 N   0  0  0  0  0  0  0  0  0  0  0  0
  145.5869  134.2533  151.0677 C   0  0  0  0  0  0  0  0  0  0  0  0
  146.4488  133.2320  150.6080 C   0  0  0  0  0  0  0  0  0  0  0  0
  145.8998  132.0596  150.0535 C   0  0  0  0  0  0  0  0  0  0  0  0
  144.5011  131.9381  149.9733 C   0  0  0  0  0  0  0  0  0  0  0  0
  143.7146  133.0016  150.4532 C   0  0  0  0  0  0  0  0  0  0  0  0
  144.2388  134.1262  150.9845 N   0  0  0  0  0  0  0  0  0  0  0  0
  145.8361  140.1783  150.7796 H   0  0  0  0  0  0  0  0  0  0  0  0
  147.0968  139.0211  150.3620 H   0  0  0  0  0  0  0  0  0  0  0  0
  147.4776  140.7303  150.4589 H   0  0  0  0  0  0  0  0  0  0  0  0
  148.2849  139.4979  152.4761 H   0  0  0  0  0  0  0  0  0  0  0  0
  147.7180  141.8864  152.6700 H   0  0  0  0  0  0  0  0  0  0  0  0
  146.0535  141.4971  153.0261 H   0  0  0  0  0  0  0  0  0  0  0  0
  148.4785  140.7888  154.7461 H   0  0  0  0  0  0  0  0  0  0  0  0
  147.2688  141.9948  155.1158 H   0  0  0  0  0  0  0  0  0  0  0  0
  146.8486  139.8714  156.3648 H   0  0  0  0  0  0  0  0  0  0  0  0
  145.5177  140.2580  155.2996 H   0  0  0  0  0  0  0  0  0  0  0  0
  147.7488  138.2460  154.7495 H   0  0  0  0  0  0  0  0  0  0  0  0
  146.0805  137.8644  155.0988 H   0  0  0  0  0  0  0  0  0  0  0  0
  145.3379  138.9562  153.0253 H   0  0  0  0  0  0  0  0  0  0  0  0
  147.5946  137.1126  152.3792 H   0  0  0  0  0  0  0  0  0  0  0  0
  147.2490  135.3588  151.5987 H   0  0  0  0  0  0  0  0  0  0  0  0
  147.5215  133.3418  150.6775 H   0  0  0  0  0  0  0  0  0  0  0  0
  146.5417  131.2684  149.6958 H   0  0  0  0  0  0  0  0  0  0  0  0
  144.0431  131.0542  149.5545 H   0  0  0  0  0  0  0  0  0  0  0  0
  142.6368  132.9489  150.4087 H   0  0  0  0  0  0  0  0  0  0  0  0
  1  2  1  0  0  0  0
  1 18  1  0  0  0  0
  1 19  1  0  0  0  0
  1 20  1  0  0  0  0
  2  7  1  0  0  0  0
  2  3  1  0  0  0  0
  2 21  1  0  0  0  0
  3  4  1  0  0  0  0
  3 22  1  0  0  0  0
  3 23  1  0  0  0  0
  4  5  1  0  0  0  0
  4 24  1  0  0  0  0
  4 25  1  0  0  0  0
  5  6  1  0  0  0  0
  5 26  1  0  0  0  0
  5 27  1  0  0  0  0
  6  7  1  0  0  0  0
  6 28  1  0  0  0  0
  6 29  1  0  0  0  0
  7  8  1  0  0  0  0
  7 30  1  0  0  0  0
  8  9  1  0  0  0  0
  8 31  1  0  0  0  0
  9 10  2  0  0  0  0
  9 11  1  0  0  0  0
 11 12  1  0  0  0  0
 11 32  1  0  0  0  0
 12 17  1  0  0  0  0
 12 13  2  0  0  0  0
 13 14  1  0  0  0  0
 13 33  1  0  0  0  0
 14 15  2  0  0  0  0
 14 34  1  0  0  0  0
 15 16  1  0  0  0  0
 15 35  1  0  0  0  0
 16 17  2  0  0  0  0
 16 36  1  0  0  0  0
M  END
> <s_m_source_file>
AV-unprocessed.smi

> <i_m_source_file_index>
2840

> <i_lp_mmshare_version>
43012

> <i_f3d_flags>
0

> <s_epik_input>
W0NIM11bQ0BASF0xW0NIMl1bQ0gyXVtDSDJdW0NIMl1bQ0BIXTFbTkhdQyg9TylbTkhdYzJbY0hdW2NIXVtjSF1bY0hdbjI=

> <s_epik_cmdline>
J2VwaWtfcHl0aG9uJywgJy1waCcsICc3LjAnLCAnLXRuJywgJzgnLCAnLW1hJywgJzIwMCcsICctbWV0YWxfYmluZGluZycsICctaW1hZScsICc8aW5maWxlLm1hZT4nLCAnLW9tYWUnLCAnPG91dGZpbGUubWFlPic=

> <r_lp_tautomer_probability>
1

> <r_epik_Ionization_Penalty>
5.29956e-05

> <r_epik_Ionization_Penalty_Charging>
0

> <r_epik_Ionization_Penalty_Neutral>
5.29956e-05

> <r_epik_State_Penalty>
-0

> <r_epik_Charging_Adjusted_Penalty>
0

> <i_epik_Tot_Q>
0

> <i_epik_Tot_abs_Q>
0

> <r_epik_Metal_State_Penalty>
-0

> <b_epik_Metal_Only>
0

> <s_lp_Force_Field>
OPLS_2005

> <r_lp_Energy>
13.2298

> <b_lp_Chiralities_Consistent>
1

> <s_lp_Variant>
AV-unprocessed.smi:2840-4

> <Gold.Version>
5.8.1

> <Gold.Id.Protein>
6NUR|6NUR_protein|mol2

> <Gold.PLP.Fitness>
34.9376

> <Gold.PLP.PLP>
-26.2140

> <Gold.PLP.part.hbond>
-2.0000

> <Gold.PLP.part.metal>
0.0000

> <Gold.PLP.part.buried>
0.6256

> <Gold.PLP.part.nonpolar>
-24.7249

> <Gold.PLP.part.repulsive>
0.4207

> <Gold.PLP.ligand.clash>
0.0000

> <Gold.PLP.ligand.torsion>
0.1401

> <Gold.PLP.Chemscore.Hbond>
2.0000

> <Gold.PLP.Chemscore.CHOScore>
1.0000

> <Gold.PLP.Chemscore.Metal>
0.0000

> <Gold.Chemscore.Hbonds>
donor molecule, donor type, donor heavy atom, donor atom, acceptor molecule, acceptor atom, score
      L1  H     8    31       P1  7948  1.00
      L1  H    11    32       P1  7948  1.00
      L1  C    16    36       P1 10186  1.00

> <Gold.PLP.Chemscore.Internal.Correction>
0.0039

> <Gold.Rescore>
     Score         DG    S(hbond)    S(metal)    S(lipo)     H(rot)  DE(clash)    DE(int)     intcor
     15.91     -18.57       1.95        0.00      78.03       1.00       1.25       1.40       ----

> <Gold.Chemscore.Fitness>
15.9105

> <Gold.Chemscore.DG>
-18.5674

> <Gold.Chemscore.ZeroCoef>
-5.4800

> <Gold.Chemscore.Hbond>
1.9514

> <Gold.Chemscore.Metal>
0.0000

> <Gold.Chemscore.Lipo>
78.0316

> <Gold.Chemscore.Internal_Hbond>
0.0000

> <Gold.Chemscore.DEClash>
1.2543

> <Gold.Chemscore.DEInternal>
1.4026

> <Gold.Chemscore.Rot>
1.0000

> <Gold.Chemscore.Internal.Correction>
   9.000000E+99

> <Gold.Chemscore.Hbonds>
donor molecule, donor type, donor heavy atom, donor atom, acceptor molecule, acceptor atom, score
      L1  H     8    31       P1  7948  1.00
      L1  H    11    32       P1  7948  0.91

> <Gold.Chemscore.Hbond.Weighted>
-6.5177

> <Gold.Chemscore.Metal.Weighted>
-0.0000

> <Gold.Chemscore.Lipo.Weighted>
-9.1297

> <Gold.Chemscore.Internal_Hbond.Weighted>
0.0000

> <Gold.Chemscore.DEClash.Weighted>
1.2543

> <Gold.Chemscore.DEInternal.Weighted>
1.4026

> <Gold.Chemscore.Rot.Weighted>
2.5600

> <Gold.Chemscore.Internal.Correction.Weighted>
   9.000000E+99

> <Gold.Protein.RotatedTorsions>
[ 6907 6896 6895 6894 ] final -109.20 input  -60.11 | X-H torsion
[ 7974 7965 7964 7962 ] final   39.70 input  175.53 | X-H torsion
[ 8008 7997 7996 7995 ] final  -18.75 input   59.86 | X-H torsion
[ 10167 10162 10161 10158 ] final  -93.04 input  -65.29 | X-H torsion
[ 10718 10713 10712 10709 ] final   71.44 input   66.30 | X-H torsion
[ 10763 10752 10751 10750 ] final  -30.28 input  -60.55 | X-H torsion
[ 11005 11000 10999 10996 ] final   -9.87 input  -57.11 | X-H torsion

> <Gold.Protein.ActiveResidues>
 VAL166  LYS551  ARG553  GLY616  TRP617  ASP618  TYR619  PRO620  LYS621  CYS622 
 ASP623  PHE694  ASN695  SER759  ASP760  ASP761  ALA762  ILE779  LEU786  VAL792 
 PHE793  MET794  SER795  GLU796  ALA797  LYS798  CYS799  TRP800  GLU811  SER814 

> <Gold.Protein.RotatedAtoms>
  150.7547  133.9564  159.3501 H   0  0  0  0  0  0  0  0  0  0  0  0  # atno 6907 bound_to 6896
  151.7486  135.0836  160.0336 H   0  0  0  0  0  0  0  0  0  0  0  0  # atno 6908 bound_to 6896
  152.3481  133.6109  159.5961 H   0  0  0  0  0  0  0  0  0  0  0  0  # atno 6909 bound_to 6896
  146.0964  139.5621  142.9443 H   0  0  0  0  0  0  0  0  0  0  0  0  # atno 7974 bound_to 7965
  154.4884  140.2107  155.9602 H   0  0  0  0  0  0  0  0  0  0  0  0  # atno 8008 bound_to 7997
  156.1270  140.3203  155.8261 H   0  0  0  0  0  0  0  0  0  0  0  0  # atno 8009 bound_to 7997
  155.4365  140.0507  157.3005 H   0  0  0  0  0  0  0  0  0  0  0  0  # atno 8010 bound_to 7997
  140.3287  143.3007  151.9966 H   0  0  0  0  0  0  0  0  0  0  0  0  # atno 10167 bound_to 10162
  157.6452  130.9528  150.0790 H   0  0  0  0  0  0  0  0  0  0  0  0  # atno 10718 bound_to 10713
  153.7785  135.6907  153.4893 H   0  0  0  0  0  0  0  0  0  0  0  0  # atno 10763 bound_to 10752
  153.1827  135.4500  155.0048 H   0  0  0  0  0  0  0  0  0  0  0  0  # atno 10764 bound_to 10752
  154.8091  135.3369  154.7289 H   0  0  0  0  0  0  0  0  0  0  0  0  # atno 10765 bound_to 10752
  140.7387  133.8688  155.8950 H   0  0  0  0  0  0  0  0  0  0  0  0  # atno 11005 bound_to 11000
  145.5940  141.0365  143.2054 LP  0  0  0  0  0  0  0  0  0  0  0  0  # atno 17320 bound_to 7965
  144.7398  139.7480  143.7315 LP  0  0  0  0  0  0  0  0  0  0  0  0  # atno 17321 bound_to 7965
  139.4860  144.6252  151.7177 LP  0  0  0  0  0  0  0  0  0  0  0  0  # atno 17342 bound_to 10162
  140.5417  144.0568  150.6091 LP  0  0  0  0  0  0  0  0  0  0  0  0  # atno 17343 bound_to 10162
  156.1772  130.3648  149.9085 LP  0  0  0  0  0  0  0  0  0  0  0  0  # atno 17370 bound_to 10713
  156.7046  130.8946  151.3603 LP  0  0  0  0  0  0  0  0  0  0  0  0  # atno 17371 bound_to 10713
  140.9856  134.1347  157.4455 LP  0  0  0  0  0  0  0  0  0  0  0  0  # atno 17394 bound_to 11000
  139.8810  135.0024  156.6126 LP  0  0  0  0  0  0  0  0  0  0  0  0  # atno 17395 bound_to 11000

$$$$
