AV-unprocessed.smi:3284|AV-procd|sdf|12572|dock5
  -GOLD-   2272018493D 1   1.00000     0.00000
 Structure written by MMmdl.
 44 45  0  0  0  0  0  0  0  0  2 V2000
  151.8813  145.4821  159.6256 C   0  0  0  0  0  0  0  0  0  0  0  0
  152.0932  143.9768  159.6372 C   0  0  0  0  0  0  0  0  0  0  0  0
  152.8940  143.4001  160.5552 C   0  0  0  0  0  0  0  0  0  0  0  0
  153.2204  141.9179  160.6127 C   0  0  0  0  0  0  0  0  0  0  0  0
  152.4052  141.0787  159.6146 C   0  0  0  0  0  0  0  0  0  0  0  0
  152.1800  141.8336  158.2927 C   0  0  1  0  0  0  0  0  0  0  0  0
  151.5689  140.9300  157.2078 C   0  0  0  0  0  0  0  0  0  0  0  0
  151.4063  143.1610  158.5337 C   0  0  1  0  0  0  0  0  0  0  0  0
  149.8976  142.9357  158.8180 C   0  0  0  0  0  0  0  0  0  0  0  0
  149.1192  142.6282  157.6023 N   0  3  0  0  0  0  0  0  0  0  0  0
  147.7430  142.1675  157.8689 C   0  0  0  0  0  0  0  0  0  0  0  0
  146.8533  142.3393  156.6312 C   0  0  0  0  0  0  0  0  0  0  0  0
  147.4351  141.6826  155.4183 C   0  0  0  0  0  0  0  0  0  0  0  0
  148.4230  140.7944  155.4682 N   0  0  0  0  0  0  0  0  0  0  0  0
  148.6363  140.4261  154.1440 C   0  0  0  0  0  0  0  0  0  0  0  0
  147.7575  141.1050  153.3352 C   0  0  0  0  0  0  0  0  0  0  0  0
  146.9857  141.9048  154.1678 N   0  0  0  0  0  0  0  0  0  0  0  0
  145.9170  142.7896  153.7466 C   0  0  0  0  0  0  0  0  0  0  0  0
  152.0338  145.8824  158.6230 H   0  0  0  0  0  0  0  0  0  0  0  0
  152.5868  145.9816  160.2904 H   0  0  0  0  0  0  0  0  0  0  0  0
  150.8804  145.7493  159.9599 H   0  0  0  0  0  0  0  0  0  0  0  0
  153.3808  144.0135  161.2997 H   0  0  0  0  0  0  0  0  0  0  0  0
  154.2839  141.8114  160.3967 H   0  0  0  0  0  0  0  0  0  0  0  0
  153.0671  141.5497  161.6275 H   0  0  0  0  0  0  0  0  0  0  0  0
  152.9206  140.1347  159.4332 H   0  0  0  0  0  0  0  0  0  0  0  0
  151.4443  140.8147  160.0570 H   0  0  0  0  0  0  0  0  0  0  0  0
  153.1667  142.1133  157.9187 H   0  0  0  0  0  0  0  0  0  0  0  0
  150.6401  140.4652  157.5383 H   0  0  0  0  0  0  0  0  0  0  0  0
  152.2550  140.1237  156.9464 H   0  0  0  0  0  0  0  0  0  0  0  0
  151.3629  141.4915  156.2961 H   0  0  0  0  0  0  0  0  0  0  0  0
  151.4879  143.7387  157.6117 H   0  0  0  0  0  0  0  0  0  0  0  0
  149.7561  142.0997  159.5019 H   0  0  0  0  0  0  0  0  0  0  0  0
  149.4682  143.8158  159.2976 H   0  0  0  0  0  0  0  0  0  0  0  0
  149.0741  143.4630  157.0354 H   0  0  0  0  0  0  0  0  0  0  0  0
  147.7689  141.1188  158.1682 H   0  0  0  0  0  0  0  0  0  0  0  0
  147.3291  142.7323  158.7054 H   0  0  0  0  0  0  0  0  0  0  0  0
  145.8562  141.9409  156.8214 H   0  0  0  0  0  0  0  0  0  0  0  0
  146.7200  143.4002  156.4154 H   0  0  0  0  0  0  0  0  0  0  0  0
  149.3970  139.7068  153.8781 H   0  0  0  0  0  0  0  0  0  0  0  0
  147.6196  141.0825  152.2640 H   0  0  0  0  0  0  0  0  0  0  0  0
  145.7181  142.6592  152.6823 H   0  0  0  0  0  0  0  0  0  0  0  0
  146.2035  143.8261  153.9268 H   0  0  0  0  0  0  0  0  0  0  0  0
  145.0068  142.5653  154.3033 H   0  0  0  0  0  0  0  0  0  0  0  0
  149.6044  141.9102  157.0831 H   0  0  0  0  0  0  0  0  0  0  0  0
  1  2  1  0  0  0  0
  1 19  1  0  0  0  0
  1 20  1  0  0  0  0
  1 21  1  0  0  0  0
  2  8  1  0  0  0  0
  2  3  2  0  0  0  0
  3  4  1  0  0  0  0
  3 22  1  0  0  0  0
  4  5  1  0  0  0  0
  4 23  1  0  0  0  0
  4 24  1  0  0  0  0
  5  6  1  0  0  0  0
  5 25  1  0  0  0  0
  5 26  1  0  0  0  0
  6  7  1  0  0  0  0
  6  8  1  0  0  0  0
  6 27  1  0  0  0  0
  7 28  1  0  0  0  0
  7 29  1  0  0  0  0
  7 30  1  0  0  0  0
  8  9  1  0  0  0  0
  8 31  1  0  0  0  0
  9 10  1  0  0  0  0
  9 32  1  0  0  0  0
  9 33  1  0  0  0  0
 10 11  1  0  0  0  0
 10 34  1  0  0  0  0
 10 44  1  0  0  0  0
 11 12  1  0  0  0  0
 11 35  1  0  0  0  0
 11 36  1  0  0  0  0
 12 13  1  0  0  0  0
 12 37  1  0  0  0  0
 12 38  1  0  0  0  0
 13 17  1  0  0  0  0
 13 14  2  0  0  0  0
 14 15  1  0  0  0  0
 15 16  2  0  0  0  0
 15 39  1  0  0  0  0
 16 17  1  0  0  0  0
 16 40  1  0  0  0  0
 17 18  1  0  0  0  0
 18 41  1  0  0  0  0
 18 42  1  0  0  0  0
 18 43  1  0  0  0  0
M  CHG  1  10   1
M  END
> <s_m_source_file>
AV-unprocessed.smi

> <i_m_source_file_index>
3284

> <i_lp_mmshare_version>
43012

> <i_f3d_flags>
0

> <s_epik_input>
W0NIM11DMT1bQ0hdW0NIMl1bQ0gyXVtDQEBIXShbQ0gzXSlbQ0BIXTFbQ0gyXVtOSF1bQ0gyXVtDSDJdYzJuW2NIXVtjSF1uMltDSDNd

> <s_epik_cmdline>
J2VwaWtfcHl0aG9uJywgJy1waCcsICc3LjAnLCAnLXRuJywgJzgnLCAnLW1hJywgJzIwMCcsICctbWV0YWxfYmluZGluZycsICctaW1hZScsICc8aW5maWxlLm1hZT4nLCAnLW9tYWUnLCAnPG91dGZpbGUubWFlPic=

> <r_lp_tautomer_probability>
1

> <r_epik_Ionization_Penalty>
0.150779

> <r_epik_Ionization_Penalty_Charging>
0.150779

> <r_epik_Ionization_Penalty_Neutral>
1.39452e-13

> <r_epik_State_Penalty>
0.349447

> <r_epik_Charging_Adjusted_Penalty>
0.500226

> <i_epik_Tot_Q>
1

> <i_epik_Tot_abs_Q>
1

> <r_epik_Metal_State_Penalty>
0.000470967

> <b_epik_Metal_Only>
0

> <s_lp_Force_Field>
OPLS_2005

> <r_lp_Energy>
13.2562

> <b_lp_Chiralities_Consistent>
1

> <s_lp_Variant>
AV-unprocessed.smi:3284-1

> <Gold.Version>
5.8.1

> <Gold.Id.Protein>
6NUR|6NUR_protein|mol2

> <Gold.PLP.Fitness>
47.9409

> <Gold.PLP.PLP>
-40.2026

> <Gold.PLP.part.hbond>
-1.0000

> <Gold.PLP.part.metal>
0.0000

> <Gold.PLP.part.buried>
-2.9591

> <Gold.PLP.part.nonpolar>
-35.7067

> <Gold.PLP.part.repulsive>
0.1390

> <Gold.PLP.ligand.clash>
0.0000

> <Gold.PLP.ligand.torsion>
0.4784

> <Gold.PLP.Chemscore.Hbond>
2.0000

> <Gold.PLP.Chemscore.CHOScore>
0.8822

> <Gold.PLP.Chemscore.Metal>
0.0000

> <Gold.Chemscore.Hbonds>
donor molecule, donor type, donor heavy atom, donor atom, acceptor molecule, acceptor atom, score
      L1  H    10    34       P1  8028  2.00
      L1  C    15    39       P1  7957  0.21
      L1  C    16    40       P1  7957  0.63

> <Gold.PLP.Chemscore.Internal.Correction>
0.0485

> <Gold.Rescore>
     Score         DG    S(hbond)    S(metal)    S(lipo)     H(rot)  DE(clash)    DE(int)     intcor
     15.53     -17.56       0.90        0.00     112.81       1.61       0.24       1.80       ----

> <Gold.Chemscore.Fitness>
15.5258

> <Gold.Chemscore.DG>
-17.5643

> <Gold.Chemscore.ZeroCoef>
-5.4800

> <Gold.Chemscore.Hbond>
0.9007

> <Gold.Chemscore.Metal>
0.0000

> <Gold.Chemscore.Lipo>
112.8128

> <Gold.Chemscore.Internal_Hbond>
0.0000

> <Gold.Chemscore.DEClash>
0.2362

> <Gold.Chemscore.DEInternal>
1.8023

> <Gold.Chemscore.Rot>
1.6105

> <Gold.Chemscore.Internal.Correction>
   9.000000E+99

> <Gold.Chemscore.Hbonds>
donor molecule, donor type, donor heavy atom, donor atom, acceptor molecule, acceptor atom, score
      L1  H    10    34       P1  8028  0.70

> <Gold.Chemscore.Hbond.Weighted>
-3.0082

> <Gold.Chemscore.Metal.Weighted>
-0.0000

> <Gold.Chemscore.Lipo.Weighted>
-13.1991

> <Gold.Chemscore.Internal_Hbond.Weighted>
0.0000

> <Gold.Chemscore.DEClash.Weighted>
0.2362

> <Gold.Chemscore.DEInternal.Weighted>
1.8023

> <Gold.Chemscore.Rot.Weighted>
4.1230

> <Gold.Chemscore.Internal.Correction.Weighted>
   9.000000E+99

> <Gold.Protein.RotatedTorsions>
[ 6907 6896 6895 6894 ] final  -27.41 input  -60.11 | X-H torsion
[ 7974 7965 7964 7962 ] final   10.71 input  175.53 | X-H torsion
[ 8008 7997 7996 7995 ] final -126.04 input   59.86 | X-H torsion
[ 10167 10162 10161 10158 ] final  170.59 input  -65.29 | X-H torsion
[ 10718 10713 10712 10709 ] final  111.58 input   66.30 | X-H torsion
[ 10763 10752 10751 10750 ] final   48.61 input  -60.55 | X-H torsion
[ 11005 11000 10999 10996 ] final   31.47 input  -57.11 | X-H torsion

> <Gold.Protein.ActiveResidues>
 VAL166  LYS551  ARG553  GLY616  TRP617  ASP618  TYR619  PRO620  LYS621  CYS622 
 ASP623  PHE694  ASN695  SER759  ASP760  ASP761  ALA762  ILE779  LEU786  VAL792 
 PHE793  MET794  SER795  GLU796  ALA797  LYS798  CYS799  TRP800  GLU811  SER814 

> <Gold.Protein.RotatedAtoms>
  151.1473  135.0209  159.8652 H   0  0  0  0  0  0  0  0  0  0  0  0  # atno 6907 bound_to 6896
  152.5453  134.1430  159.8497 H   0  0  0  0  0  0  0  0  0  0  0  0  # atno 6908 bound_to 6896
  151.1511  133.4861  159.2628 H   0  0  0  0  0  0  0  0  0  0  0  0  # atno 6909 bound_to 6896
  146.2384  139.9594  142.8460 H   0  0  0  0  0  0  0  0  0  0  0  0  # atno 7974 bound_to 7965
  155.2231  140.0422  157.2951 H   0  0  0  0  0  0  0  0  0  0  0  0  # atno 8008 bound_to 7997
  154.5937  140.2433  155.7857 H   0  0  0  0  0  0  0  0  0  0  0  0  # atno 8009 bound_to 7997
  156.2276  140.2949  156.0114 H   0  0  0  0  0  0  0  0  0  0  0  0  # atno 8010 bound_to 7997
  139.5023  144.3579  151.9855 H   0  0  0  0  0  0  0  0  0  0  0  0  # atno 10167 bound_to 10162
  157.6437  131.0953  150.6769 H   0  0  0  0  0  0  0  0  0  0  0  0  # atno 10718 bound_to 10713
  152.9791  135.5939  154.3953 H   0  0  0  0  0  0  0  0  0  0  0  0  # atno 10763 bound_to 10752
  154.3604  135.2767  155.2325 H   0  0  0  0  0  0  0  0  0  0  0  0  # atno 10764 bound_to 10752
  154.4324  135.6033  153.6132 H   0  0  0  0  0  0  0  0  0  0  0  0  # atno 10765 bound_to 10752
  140.2835  134.2946  155.7794 H   0  0  0  0  0  0  0  0  0  0  0  0  # atno 11005 bound_to 11000
  145.1786  140.9756  143.4280 LP  0  0  0  0  0  0  0  0  0  0  0  0  # atno 17320 bound_to 7965
  144.9963  139.3641  143.6190 LP  0  0  0  0  0  0  0  0  0  0  0  0  # atno 17321 bound_to 7965
  140.3016  144.3640  150.6059 LP  0  0  0  0  0  0  0  0  0  0  0  0  # atno 17342 bound_to 10162
  140.5869  143.2169  151.7325 LP  0  0  0  0  0  0  0  0  0  0  0  0  # atno 17343 bound_to 10162
  156.7089  130.4646  149.5552 LP  0  0  0  0  0  0  0  0  0  0  0  0  # atno 17370 bound_to 10713
  156.1743  130.6458  151.0876 LP  0  0  0  0  0  0  0  0  0  0  0  0  # atno 17371 bound_to 10713
  141.2159  133.7540  156.9517 LP  0  0  0  0  0  0  0  0  0  0  0  0  # atno 17394 bound_to 11000
  140.1261  134.9386  157.2272 LP  0  0  0  0  0  0  0  0  0  0  0  0  # atno 17395 bound_to 11000

$$$$
