AV-unprocessed.smi:1595|AV-procd|sdf|6415|dock2
  -GOLD-   22720 7 53D 1   1.00000     0.00000
 Structure written by MMmdl.
 29 30  0  0  0  0  0  0  0  0  1 V2000
  148.8779  141.6735  157.2278 O   0  0  0  0  0  0  0  0  0  0  0  0
  149.4996  141.3742  156.2072 C   0  0  0  0  0  0  0  0  0  0  0  0
  151.0131  141.1186  156.2534 C   0  0  0  0  0  0  0  0  0  0  0  0
  151.6367  141.5232  157.5248 N   0  0  0  0  0  0  0  0  0  0  0  0
  151.2969  142.7935  158.0306 C   0  0  0  0  0  0  0  0  0  0  0  0
  151.8063  143.2866  159.1760 C   0  0  0  0  0  0  0  0  0  0  0  0
  151.3857  144.6399  159.7278 C   0  0  0  0  0  0  0  0  0  0  0  0
  151.8875  144.8329  160.9478 F   0  0  0  0  0  0  0  0  0  0  0  0
  151.8373  145.6118  158.9364 F   0  0  0  0  0  0  0  0  0  0  0  0
  150.0581  144.7446  159.7997 F   0  0  0  0  0  0  0  0  0  0  0  0
  152.7151  142.4221  159.9024 C   0  0  0  0  0  0  0  0  0  0  0  0
  153.0481  141.2033  159.4344 C   0  0  0  0  0  0  0  0  0  0  0  0
  152.5059  140.6917  158.1737 C   0  0  0  0  0  0  0  0  0  0  0  0
  152.8117  139.5844  157.7301 O   0  0  0  0  0  0  0  0  0  0  0  0
  148.9202  141.2307  155.0064 N   0  0  0  0  0  0  0  0  0  0  0  0
  147.5318  141.4086  154.7281 C   0  0  0  0  0  0  0  0  0  0  0  0
  147.0543  141.1161  153.3219 C   0  0  0  0  0  0  0  0  0  0  0  0
  147.1408  142.5390  153.8006 C   0  0  0  0  0  0  0  0  0  0  0  0
  151.1834  140.0576  156.0652 H   0  0  0  0  0  0  0  0  0  0  0  0
  151.4919  141.6349  155.4192 H   0  0  0  0  0  0  0  0  0  0  0  0
  150.5958  143.3456  157.4215 H   0  0  0  0  0  0  0  0  0  0  0  0
  153.1409  142.7606  160.8355 H   0  0  0  0  0  0  0  0  0  0  0  0
  153.7316  140.5875  160.0007 H   0  0  0  0  0  0  0  0  0  0  0  0
  149.5095  140.9786  154.2261 H   0  0  0  0  0  0  0  0  0  0  0  0
  146.8278  141.1835  155.5280 H   0  0  0  0  0  0  0  0  0  0  0  0
  147.7905  140.7867  152.5911 H   0  0  0  0  0  0  0  0  0  0  0  0
  146.0622  140.6831  153.2096 H   0  0  0  0  0  0  0  0  0  0  0  0
  146.2068  143.0570  154.0078 H   0  0  0  0  0  0  0  0  0  0  0  0
  147.9356  143.1594  153.3910 H   0  0  0  0  0  0  0  0  0  0  0  0
  1  2  2  0  0  0  0
  2  3  1  0  0  0  0
  2 15  1  0  0  0  0
  3  4  1  0  0  0  0
  3 19  1  0  0  0  0
  3 20  1  0  0  0  0
  4 13  1  0  0  0  0
  4  5  1  0  0  0  0
  5  6  2  0  0  0  0
  5 21  1  0  0  0  0
  6  7  1  0  0  0  0
  6 11  1  0  0  0  0
  7  8  1  0  0  0  0
  7  9  1  0  0  0  0
  7 10  1  0  0  0  0
 11 12  2  0  0  0  0
 11 22  1  0  0  0  0
 12 13  1  0  0  0  0
 12 23  1  0  0  0  0
 13 14  2  0  0  0  0
 15 16  1  0  0  0  0
 15 24  1  0  0  0  0
 16 18  1  0  0  0  0
 16 17  1  0  0  0  0
 16 25  1  0  0  0  0
 17 18  1  0  0  0  0
 17 26  1  0  0  0  0
 17 27  1  0  0  0  0
 18 28  1  0  0  0  0
 18 29  1  0  0  0  0
M  END
> <s_m_source_file>
AV-unprocessed.smi

> <i_m_source_file_index>
1595

> <i_lp_mmshare_version>
43012

> <i_f3d_flags>
0

> <s_epik_input>
W0NIMl0xW0NIMl1bQ0hdMVtOSF1DKD1PKVtDSDJdbjJbY0hdYyhDKEYpKEYpRilbY0hdW2NIXWMyPU8=

> <s_epik_cmdline>
J2VwaWtfcHl0aG9uJywgJy1waCcsICc3LjAnLCAnLXRuJywgJzgnLCAnLW1hJywgJzIwMCcsICctbWV0YWxfYmluZGluZycsICctaW1hZScsICc8aW5maWxlLm1hZT4nLCAnLW9tYWUnLCAnPG91dGZpbGUubWFlPic=

> <r_lp_tautomer_probability>
1

> <r_epik_Ionization_Penalty>
3.87815e-08

> <r_epik_Ionization_Penalty_Charging>
1.81112e-08

> <r_epik_Ionization_Penalty_Neutral>
2.06703e-08

> <r_epik_State_Penalty>
-0

> <r_epik_Charging_Adjusted_Penalty>
1.81112e-08

> <i_epik_Tot_Q>
0

> <i_epik_Tot_abs_Q>
0

> <r_epik_Metal_State_Penalty>
-0

> <b_epik_Metal_Only>
0

> <s_lp_Force_Field>
OPLS_2005

> <r_lp_Energy>
27.3116

> <b_lp_Chiralities_Consistent>
1

> <s_lp_Variant>
AV-unprocessed.smi:1595-1

> <Gold.Version>
5.8.1

> <Gold.Id.Protein>
6NUR|6NUR_protein|mol2

> <Gold.PLP.Fitness>
43.2178

> <Gold.PLP.PLP>
-40.1529

> <Gold.PLP.part.hbond>
-1.0000

> <Gold.PLP.part.metal>
0.0000

> <Gold.PLP.part.buried>
-4.5118

> <Gold.PLP.part.nonpolar>
-33.7072

> <Gold.PLP.part.repulsive>
0.2481

> <Gold.PLP.ligand.clash>
0.0000

> <Gold.PLP.ligand.torsion>
0.4137

> <Gold.PLP.Chemscore.Hbond>
0.9500

> <Gold.PLP.Chemscore.CHOScore>
0.3235

> <Gold.PLP.Chemscore.Metal>
0.0000

> <Gold.Chemscore.Hbonds>
donor molecule, donor type, donor heavy atom, donor atom, acceptor molecule, acceptor atom, score
      P1  H  7997  8010       L1    14  0.95
      L1  C     5    21       P1  8028  0.33

> <Gold.PLP.Chemscore.Internal.Correction>
0.0719

> <Gold.Rescore>
     Score         DG    S(hbond)    S(metal)    S(lipo)     H(rot)  DE(clash)    DE(int)     intcor
     10.79     -13.33       0.92        0.00      76.39       1.62       0.65       1.90       ----

> <Gold.Chemscore.Fitness>
10.7859

> <Gold.Chemscore.DG>
-13.3314

> <Gold.Chemscore.ZeroCoef>
-5.4800

> <Gold.Chemscore.Hbond>
0.9157

> <Gold.Chemscore.Metal>
0.0000

> <Gold.Chemscore.Lipo>
76.3937

> <Gold.Chemscore.Internal_Hbond>
0.0000

> <Gold.Chemscore.DEClash>
0.6497

> <Gold.Chemscore.DEInternal>
1.8957

> <Gold.Chemscore.Rot>
1.6192

> <Gold.Chemscore.Internal.Correction>
   9.000000E+99

> <Gold.Chemscore.Hbonds>
donor molecule, donor type, donor heavy atom, donor atom, acceptor molecule, acceptor atom, score
      P1  H  7997  8010       L1    14  0.21

> <Gold.Chemscore.Hbond.Weighted>
-3.0585

> <Gold.Chemscore.Metal.Weighted>
-0.0000

> <Gold.Chemscore.Lipo.Weighted>
-8.9381

> <Gold.Chemscore.Internal_Hbond.Weighted>
0.0000

> <Gold.Chemscore.DEClash.Weighted>
0.6497

> <Gold.Chemscore.DEInternal.Weighted>
1.8957

> <Gold.Chemscore.Rot.Weighted>
4.1452

> <Gold.Chemscore.Internal.Correction.Weighted>
   9.000000E+99

> <Gold.Protein.RotatedTorsions>
[ 6907 6896 6895 6894 ] final  132.16 input  -60.11 | X-H torsion
[ 7974 7965 7964 7962 ] final   91.58 input  175.53 | X-H torsion
[ 8008 7997 7996 7995 ] final   52.84 input   59.86 | X-H torsion
[ 10167 10162 10161 10158 ] final  143.30 input  -65.29 | X-H torsion
[ 10718 10713 10712 10709 ] final   73.77 input   66.30 | X-H torsion
[ 10763 10752 10751 10750 ] final -154.14 input  -60.55 | X-H torsion
[ 11005 11000 10999 10996 ] final  133.09 input  -57.11 | X-H torsion

> <Gold.Protein.ActiveResidues>
 VAL166  LYS551  ARG553  GLY616  TRP617  ASP618  TYR619  PRO620  LYS621  CYS622 
 ASP623  PHE694  ASN695  SER759  ASP760  ASP761  ALA762  ILE779  LEU786  VAL792 
 PHE793  MET794  SER795  GLU796  ALA797  LYS798  CYS799  TRP800  GLU811  SER814 

> <Gold.Protein.RotatedAtoms>
  152.3352  133.6003  159.5837 H   0  0  0  0  0  0  0  0  0  0  0  0  # atno 6907 bound_to 6896
  150.7446  133.9807  159.3584 H   0  0  0  0  0  0  0  0  0  0  0  0  # atno 6908 bound_to 6896
  151.7677  135.0795  160.0406 H   0  0  0  0  0  0  0  0  0  0  0  0  # atno 6909 bound_to 6896
  145.5037  139.2276  143.2763 H   0  0  0  0  0  0  0  0  0  0  0  0  # atno 7974 bound_to 7965
  155.4584  140.3461  155.4309 H   0  0  0  0  0  0  0  0  0  0  0  0  # atno 8008 bound_to 7997
  156.1176  140.1478  156.9280 H   0  0  0  0  0  0  0  0  0  0  0  0  # atno 8009 bound_to 7997
  154.4800  140.0873  156.7334 H   0  0  0  0  0  0  0  0  0  0  0  0  # atno 8010 bound_to 7997
  139.4973  144.6050  151.6399 H   0  0  0  0  0  0  0  0  0  0  0  0  # atno 10167 bound_to 10162
  157.6563  130.9645  150.1117 H   0  0  0  0  0  0  0  0  0  0  0  0  # atno 10718 bound_to 10713
  154.7879  135.3197  154.7843 H   0  0  0  0  0  0  0  0  0  0  0  0  # atno 10763 bound_to 10752
  153.8539  135.6859  153.4794 H   0  0  0  0  0  0  0  0  0  0  0  0  # atno 10764 bound_to 10752
  153.1538  135.4688  154.9615 H   0  0  0  0  0  0  0  0  0  0  0  0  # atno 10765 bound_to 10752
  139.9830  134.9542  156.9675 H   0  0  0  0  0  0  0  0  0  0  0  0  # atno 11005 bound_to 11000
  146.2210  140.5839  142.9017 LP  0  0  0  0  0  0  0  0  0  0  0  0  # atno 17320 bound_to 7965
  144.7766  140.5752  143.6634 LP  0  0  0  0  0  0  0  0  0  0  0  0  # atno 17321 bound_to 7965
  140.5709  144.0110  150.6216 LP  0  0  0  0  0  0  0  0  0  0  0  0  # atno 17342 bound_to 10162
  140.3228  143.3126  152.0767 LP  0  0  0  0  0  0  0  0  0  0  0  0  # atno 17343 bound_to 10162
  156.2012  130.3660  149.8786 LP  0  0  0  0  0  0  0  0  0  0  0  0  # atno 17370 bound_to 10713
  156.6690  130.8812  151.3559 LP  0  0  0  0  0  0  0  0  0  0  0  0  # atno 17371 bound_to 10713
  140.5058  134.1051  155.7260 LP  0  0  0  0  0  0  0  0  0  0  0  0  # atno 17394 bound_to 11000
  141.1499  133.8987  157.2123 LP  0  0  0  0  0  0  0  0  0  0  0  0  # atno 17395 bound_to 11000

$$$$
