AV-unprocessed.smi:1487|AV-procd|sdf|6009|dock2
  -GOLD-   22720 6103D 1   1.00000     0.00000
 Structure written by MMmdl.
 48 50  0  0  0  0  0  0  0  0  2 V2000
  153.1621  142.7866  160.3115 C   0  0  0  0  0  0  0  0  0  0  0  0
  152.3526  142.2900  159.1268 C   0  0  0  0  0  0  0  0  0  0  0  0
  152.3090  140.9034  158.8577 C   0  0  0  0  0  0  0  0  0  0  0  0
  151.5673  140.4004  157.7667 C   0  0  0  0  0  0  0  0  0  0  0  0
  151.3881  139.1010  157.3250 N   0  0  0  0  0  0  0  0  0  0  0  0
  150.5971  139.2819  156.2719 C   0  0  0  0  0  0  0  0  0  0  0  0
  150.2540  140.5489  155.9687 N   0  0  0  0  0  0  0  0  0  0  0  0
  149.4154  140.9879  154.8673 C   0  0  0  0  0  0  0  0  0  0  0  0
  148.5223  139.8605  154.3108 C   0  0  2  0  0  0  0  0  0  0  0  0
  149.3186  139.0754  153.4461 O   0  0  0  0  0  0  0  0  0  0  0  0
  147.2883  140.3754  153.5351 C   0  0  0  0  0  0  0  0  0  0  0  0
  146.1570  139.4138  153.5652 N   0  3  2  0  0  0  0  0  0  0  0  0
  145.6718  139.1519  154.9442 C   0  0  0  0  0  0  0  0  0  0  0  0
  144.3922  138.3015  154.9241 C   0  0  0  0  0  0  0  0  0  0  0  0
  144.6189  136.9819  154.1734 C   0  0  0  0  0  0  0  0  0  0  0  0
  145.2036  137.2341  152.7734 C   0  0  1  0  0  0  0  0  0  0  0  0
  144.2269  137.8038  151.9238 O   0  0  0  0  0  0  0  0  0  0  0  0
  146.4419  138.1497  152.8310 C   0  0  0  0  0  0  0  0  0  0  0  0
  150.8656  141.3298  156.9442 C   0  0  0  0  0  0  0  0  0  0  0  0
  150.8983  142.7113  157.2043 C   0  0  0  0  0  0  0  0  0  0  0  0
  151.6461  143.1974  158.2972 C   0  0  0  0  0  0  0  0  0  0  0  0
  151.6771  144.6913  158.5676 C   0  0  0  0  0  0  0  0  0  0  0  0
  153.5814  141.9578  160.8830 H   0  0  0  0  0  0  0  0  0  0  0  0
  152.5368  143.3726  160.9854 H   0  0  0  0  0  0  0  0  0  0  0  0
  153.9881  143.4119  159.9722 H   0  0  0  0  0  0  0  0  0  0  0  0
  152.8459  140.2117  159.4905 H   0  0  0  0  0  0  0  0  0  0  0  0
  150.2549  138.4447  155.6809 H   0  0  0  0  0  0  0  0  0  0  0  0
  148.8008  141.8214  155.2115 H   0  0  0  0  0  0  0  0  0  0  0  0
  150.0639  141.3807  154.0830 H   0  0  0  0  0  0  0  0  0  0  0  0
  148.2139  139.2265  155.1404 H   0  0  0  0  0  0  0  0  0  0  0  0
  149.2730  139.4339  152.5731 H   0  0  0  0  0  0  0  0  0  0  0  0
  146.9362  141.3278  153.9330 H   0  0  0  0  0  0  0  0  0  0  0  0
  147.5885  140.5754  152.5052 H   0  0  0  0  0  0  0  0  0  0  0  0
  146.4528  138.6526  155.5205 H   0  0  0  0  0  0  0  0  0  0  0  0
  145.4600  140.0964  155.4469 H   0  0  0  0  0  0  0  0  0  0  0  0
  144.0648  138.0965  155.9440 H   0  0  0  0  0  0  0  0  0  0  0  0
  143.5861  138.8629  154.4495 H   0  0  0  0  0  0  0  0  0  0  0  0
  145.3129  136.3632  154.7440 H   0  0  0  0  0  0  0  0  0  0  0  0
  143.6884  136.4166  154.1059 H   0  0  0  0  0  0  0  0  0  0  0  0
  145.4854  136.2777  152.3317 H   0  0  0  0  0  0  0  0  0  0  0  0
  144.1917  138.7350  152.0837 H   0  0  0  0  0  0  0  0  0  0  0  0
  146.7880  138.3567  151.8185 H   0  0  0  0  0  0  0  0  0  0  0  0
  147.2577  137.6259  153.3324 H   0  0  0  0  0  0  0  0  0  0  0  0
  150.3509  143.3928  156.5705 H   0  0  0  0  0  0  0  0  0  0  0  0
  151.1458  145.2469  157.7944 H   0  0  0  0  0  0  0  0  0  0  0  0
  152.7041  145.0562  158.5939 H   0  0  0  0  0  0  0  0  0  0  0  0
  151.2053  144.9139  159.5250 H   0  0  0  0  0  0  0  0  0  0  0  0
  145.3898  139.8627  153.0858 H   0  0  0  0  0  0  0  0  0  0  0  0
  1  2  1  0  0  0  0
  1 23  1  0  0  0  0
  1 24  1  0  0  0  0
  1 25  1  0  0  0  0
  2 21  1  0  0  0  0
  2  3  2  0  0  0  0
  3  4  1  0  0  0  0
  3 26  1  0  0  0  0
  4 19  2  0  0  0  0
  4  5  1  0  0  0  0
  5  6  2  0  0  0  0
  6  7  1  0  0  0  0
  6 27  1  0  0  0  0
  7  8  1  0  0  0  0
  7 19  1  0  0  0  0
  8  9  1  0  0  0  0
  8 28  1  0  0  0  0
  8 29  1  0  0  0  0
  9 10  1  0  0  0  0
  9 11  1  0  0  0  0
  9 30  1  0  0  0  0
 10 31  1  0  0  0  0
 11 12  1  0  0  0  0
 11 32  1  0  0  0  0
 11 33  1  0  0  0  0
 12 18  1  0  0  0  0
 12 13  1  0  0  0  0
 12 48  1  0  0  0  0
 13 14  1  0  0  0  0
 13 34  1  0  0  0  0
 13 35  1  0  0  0  0
 14 15  1  0  0  0  0
 14 36  1  0  0  0  0
 14 37  1  0  0  0  0
 15 16  1  0  0  0  0
 15 38  1  0  0  0  0
 15 39  1  0  0  0  0
 16 17  1  0  0  0  0
 16 18  1  0  0  0  0
 16 40  1  0  0  0  0
 17 41  1  0  0  0  0
 18 42  1  0  0  0  0
 18 43  1  0  0  0  0
 19 20  1  0  0  0  0
 20 21  2  0  0  0  0
 20 44  1  0  0  0  0
 21 22  1  0  0  0  0
 22 45  1  0  0  0  0
 22 46  1  0  0  0  0
 22 47  1  0  0  0  0
M  CHG  1  12   1
M  END
> <s_m_source_file>
AV-unprocessed.smi

> <i_m_source_file_index>
1487

> <i_lp_mmshare_version>
43012

> <i_f3d_flags>
0

> <s_epik_input>
W0NIM11jKFtjSF0xKWMoW0NIM10pW2NIXWMoYzEyKW4oW2NIXW4yKVtDSDJdW0NASF0oW09IXSlbQ0gyXU4zW0NIMl1bQ0gyXVtDSDJdW0NAQEhdKFtPSF0pW0NIMl0z

> <s_epik_cmdline>
J2VwaWtfcHl0aG9uJywgJy1waCcsICc3LjAnLCAnLXRuJywgJzgnLCAnLW1hJywgJzIwMCcsICctbWV0YWxfYmluZGluZycsICctaW1hZScsICc8aW5maWxlLm1hZT4nLCAnLW9tYWUnLCAnPG91dGZpbGUubWFlPic=

> <r_epik_Ionization_Penalty>
0.0940186

> <r_epik_Ionization_Penalty_Charging>
0.00679686

> <r_epik_Ionization_Penalty_Neutral>
0.0872218

> <r_epik_State_Penalty>
0.0799311

> <r_epik_Charging_Adjusted_Penalty>
0.086728

> <i_epik_Tot_Q>
1

> <i_epik_Tot_abs_Q>
1

> <r_epik_Metal_State_Penalty>
7.95545e-05

> <b_epik_Metal_Only>
0

> <s_lp_Force_Field>
OPLS_2005

> <r_lp_Energy>
25.8202

> <b_lp_Chiralities_Consistent>
1

> <s_lp_Variant>
AV-unprocessed.smi:1487-3

> <Gold.Version>
5.8.1

> <Gold.Id.Protein>
6NUR|6NUR_protein|mol2

> <Gold.PLP.Fitness>
52.3877

> <Gold.PLP.PLP>
-41.9117

> <Gold.PLP.part.hbond>
-3.5309

> <Gold.PLP.part.metal>
0.0000

> <Gold.PLP.part.buried>
-5.0076

> <Gold.PLP.part.nonpolar>
-34.4121

> <Gold.PLP.part.repulsive>
0.0000

> <Gold.PLP.ligand.clash>
0.0000

> <Gold.PLP.ligand.torsion>
0.8181

> <Gold.PLP.Chemscore.Hbond>
4.0000

> <Gold.PLP.Chemscore.CHOScore>
0.0000

> <Gold.PLP.Chemscore.Metal>
0.0000

> <Gold.Chemscore.Hbonds>
donor molecule, donor type, donor heavy atom, donor atom, acceptor molecule, acceptor atom, score
      L1  H    10    31       P1  7957  1.00
      L1  H    12    48       P1 10175  2.00
      L1  H    17    41       P1 10175  1.00

> <Gold.PLP.Chemscore.Internal.Correction>
0.1121

> <Gold.Rescore>
     Score         DG    S(hbond)    S(metal)    S(lipo)     H(rot)  DE(clash)    DE(int)     intcor
     20.86     -21.80       2.97        0.00     113.06       2.67       0.09       0.85       ----

> <Gold.Chemscore.Fitness>
20.8552

> <Gold.Chemscore.DG>
-21.7970

> <Gold.Chemscore.ZeroCoef>
-5.4800

> <Gold.Chemscore.Hbond>
2.9724

> <Gold.Chemscore.Metal>
0.0000

> <Gold.Chemscore.Lipo>
113.0560

> <Gold.Chemscore.Internal_Hbond>
0.0000

> <Gold.Chemscore.DEClash>
0.0918

> <Gold.Chemscore.DEInternal>
0.8500

> <Gold.Chemscore.Rot>
2.6712

> <Gold.Chemscore.Internal.Correction>
   9.000000E+99

> <Gold.Chemscore.Hbonds>
donor molecule, donor type, donor heavy atom, donor atom, acceptor molecule, acceptor atom, score
      L1  H    10    31       P1  7957  0.97
      L1  H    12    48       P1 10175  1.00
      L1  H    17    41       P1 10175  1.00

> <Gold.Chemscore.Hbond.Weighted>
-9.9278

> <Gold.Chemscore.Metal.Weighted>
-0.0000

> <Gold.Chemscore.Lipo.Weighted>
-13.2275

> <Gold.Chemscore.Internal_Hbond.Weighted>
0.0000

> <Gold.Chemscore.DEClash.Weighted>
0.0918

> <Gold.Chemscore.DEInternal.Weighted>
0.8500

> <Gold.Chemscore.Rot.Weighted>
6.8383

> <Gold.Chemscore.Internal.Correction.Weighted>
   9.000000E+99

> <Gold.Protein.RotatedTorsions>
[ 6907 6896 6895 6894 ] final  126.66 input  -60.11 | X-H torsion
[ 7974 7965 7964 7962 ] final   61.20 input  175.53 | X-H torsion
[ 8008 7997 7996 7995 ] final   44.01 input   59.86 | X-H torsion
[ 10167 10162 10161 10158 ] final  102.81 input  -65.29 | X-H torsion
[ 10718 10713 10712 10709 ] final  -85.04 input   66.30 | X-H torsion
[ 10763 10752 10751 10750 ] final -145.92 input  -60.55 | X-H torsion
[ 11005 11000 10999 10996 ] final  -37.02 input  -57.11 | X-H torsion

> <Gold.Protein.ActiveResidues>
 VAL166  LYS551  ARG553  GLY616  TRP617  ASP618  TYR619  PRO620  LYS621  CYS622 
 ASP623  PHE694  ASN695  SER759  ASP760  ASP761  ALA762  ILE779  LEU786  VAL792 
 PHE793  MET794  SER795  GLU796  ALA797  LYS798  CYS799  TRP800  GLU811  SER814 

> <Gold.Protein.RotatedAtoms>
  152.3883  133.6642  159.6216 H   0  0  0  0  0  0  0  0  0  0  0  0  # atno 6907 bound_to 6896
  150.7797  133.8997  159.3346 H   0  0  0  0  0  0  0  0  0  0  0  0  # atno 6908 bound_to 6896
  151.6789  135.0966  160.0263 H   0  0  0  0  0  0  0  0  0  0  0  0  # atno 6909 bound_to 6896
  145.8874  139.3486  143.0670 H   0  0  0  0  0  0  0  0  0  0  0  0  # atno 7974 bound_to 7965
  155.3122  140.3391  155.4243 H   0  0  0  0  0  0  0  0  0  0  0  0  # atno 8008 bound_to 7997
  156.1950  140.1711  156.8054 H   0  0  0  0  0  0  0  0  0  0  0  0  # atno 8009 bound_to 7997
  154.5488  140.0710  156.8617 H   0  0  0  0  0  0  0  0  0  0  0  0  # atno 8010 bound_to 7997
  139.7318  144.7034  151.0711 H   0  0  0  0  0  0  0  0  0  0  0  0  # atno 10167 bound_to 10162
  156.0000  130.4717  150.4501 H   0  0  0  0  0  0  0  0  0  0  0  0  # atno 10718 bound_to 10713
  154.8361  135.3400  154.6579 H   0  0  0  0  0  0  0  0  0  0  0  0  # atno 10763 bound_to 10752
  153.7194  135.6959  153.5021 H   0  0  0  0  0  0  0  0  0  0  0  0  # atno 10764 bound_to 10752
  153.2392  135.4390  155.0633 H   0  0  0  0  0  0  0  0  0  0  0  0  # atno 10765 bound_to 10752
  140.9920  133.7000  156.1867 H   0  0  0  0  0  0  0  0  0  0  0  0  # atno 11005 bound_to 11000
  145.8950  140.9279  143.0532 LP  0  0  0  0  0  0  0  0  0  0  0  0  # atno 17320 bound_to 7965
  144.6729  140.0956  143.7463 LP  0  0  0  0  0  0  0  0  0  0  0  0  # atno 17321 bound_to 7965
  140.7772  143.5034  150.9742 LP  0  0  0  0  0  0  0  0  0  0  0  0  # atno 17342 bound_to 10162
  139.8722  143.7177  152.3165 LP  0  0  0  0  0  0  0  0  0  0  0  0  # atno 17343 bound_to 10162
  157.2535  131.0551  151.2365 LP  0  0  0  0  0  0  0  0  0  0  0  0  # atno 17370 bound_to 10713
  157.3505  130.7080  149.6438 LP  0  0  0  0  0  0  0  0  0  0  0  0  # atno 17371 bound_to 10713
  140.7025  134.4549  157.5585 LP  0  0  0  0  0  0  0  0  0  0  0  0  # atno 17394 bound_to 11000
  139.8997  134.8586  156.1951 LP  0  0  0  0  0  0  0  0  0  0  0  0  # atno 17395 bound_to 11000

$$$$
