AV-unprocessed.smi:3112|AV-procd|sdf|11848|dock2
  -GOLD-   2272017233D 1   1.00000     0.00000
 Structure written by MMmdl.
 36 36  0  0  0  0  0  0  0  0  1 V2000
  146.0983  142.0045  154.7338 C   0  0  0  0  0  0  0  0  0  0  0  0
  147.2213  141.0903  154.2250 C   0  0  0  0  0  0  0  0  0  0  0  0
  148.6341  141.6310  154.5236 C   0  0  2  0  0  0  0  0  0  0  0  0
  149.5543  140.9786  153.6729 O   0  0  0  0  0  0  0  0  0  0  0  0
  149.0822  141.3738  155.9720 C   0  0  0  0  0  0  0  0  0  0  0  0
  150.2110  142.2276  156.3373 N   0  0  0  0  0  0  0  0  0  0  0  0
  150.4658  142.4007  157.7749 C   0  0  2  0  0  0  0  0  0  0  0  0
  149.2622  143.1372  158.3863 C   0  0  0  0  0  0  0  0  0  0  0  0
  151.8054  143.1201  158.1245 C   0  0  1  0  0  0  0  0  0  0  0  0
  151.9235  144.5548  157.5688 C   0  0  0  0  0  0  0  0  0  0  0  0
  152.1805  143.0128  159.5336 N   0  0  0  0  0  0  0  0  0  0  0  0
  153.0911  142.1462  160.1043 C   0  0  0  0  0  0  0  0  0  0  0  0
  153.0966  142.3786  161.4495 C   0  0  0  0  0  0  0  0  0  0  0  0
  152.1377  143.4152  161.6155 C   0  0  0  0  0  0  0  0  0  0  0  0
  151.5903  143.7895  160.4716 N   0  0  0  0  0  0  0  0  0  0  0  0
  145.1211  141.5654  154.5325 H   0  0  0  0  0  0  0  0  0  0  0  0
  146.1266  142.9806  154.2492 H   0  0  0  0  0  0  0  0  0  0  0  0
  146.1760  142.1609  155.8100 H   0  0  0  0  0  0  0  0  0  0  0  0
  147.0990  140.1141  154.6948 H   0  0  0  0  0  0  0  0  0  0  0  0
  147.1036  140.9259  153.1530 H   0  0  0  0  0  0  0  0  0  0  0  0
  148.6795  142.7008  154.3137 H   0  0  0  0  0  0  0  0  0  0  0  0
  149.0869  140.3332  153.1650 H   0  0  0  0  0  0  0  0  0  0  0  0
  148.2452  141.5350  156.6525 H   0  0  0  0  0  0  0  0  0  0  0  0
  149.3669  140.3278  156.0586 H   0  0  0  0  0  0  0  0  0  0  0  0
  150.0926  143.1390  155.9069 H   0  0  0  0  0  0  0  0  0  0  0  0
  150.4844  141.4164  158.2443 H   0  0  0  0  0  0  0  0  0  0  0  0
  149.3715  143.2493  159.4654 H   0  0  0  0  0  0  0  0  0  0  0  0
  148.3370  142.5871  158.2113 H   0  0  0  0  0  0  0  0  0  0  0  0
  149.1383  144.1322  157.9582 H   0  0  0  0  0  0  0  0  0  0  0  0
  152.5839  142.5797  157.5837 H   0  0  0  0  0  0  0  0  0  0  0  0
  151.7276  144.5729  156.4966 H   0  0  0  0  0  0  0  0  0  0  0  0
  152.9311  144.9432  157.7195 H   0  0  0  0  0  0  0  0  0  0  0  0
  151.2372  145.2568  158.0371 H   0  0  0  0  0  0  0  0  0  0  0  0
  153.6543  141.4417  159.5103 H   0  0  0  0  0  0  0  0  0  0  0  0
  153.6917  141.8810  162.2007 H   0  0  0  0  0  0  0  0  0  0  0  0
  151.8236  143.9025  162.5267 H   0  0  0  0  0  0  0  0  0  0  0  0
  1  2  1  0  0  0  0
  1 16  1  0  0  0  0
  1 17  1  0  0  0  0
  1 18  1  0  0  0  0
  2  3  1  0  0  0  0
  2 19  1  0  0  0  0
  2 20  1  0  0  0  0
  3  4  1  0  0  0  0
  3  5  1  0  0  0  0
  3 21  1  0  0  0  0
  4 22  1  0  0  0  0
  5  6  1  0  0  0  0
  5 23  1  0  0  0  0
  5 24  1  0  0  0  0
  6  7  1  0  0  0  0
  6 25  1  0  0  0  0
  7  8  1  0  0  0  0
  7  9  1  0  0  0  0
  7 26  1  0  0  0  0
  8 27  1  0  0  0  0
  8 28  1  0  0  0  0
  8 29  1  0  0  0  0
  9 10  1  0  0  0  0
  9 11  1  0  0  0  0
  9 30  1  0  0  0  0
 10 31  1  0  0  0  0
 10 32  1  0  0  0  0
 10 33  1  0  0  0  0
 11 15  1  0  0  0  0
 11 12  1  0  0  0  0
 12 13  2  0  0  0  0
 12 34  1  0  0  0  0
 13 14  1  0  0  0  0
 13 35  1  0  0  0  0
 14 15  2  0  0  0  0
 14 36  1  0  0  0  0
M  END
> <s_m_source_file>
AV-unprocessed.smi

> <i_m_source_file_index>
3112

> <i_lp_mmshare_version>
43012

> <i_f3d_flags>
0

> <s_epik_input>
W0NIM11bQ0gyXVtDQEhdKFtPSF0pW0NIMl1bTkhdW0NASF0oW0NIM10pW0NASF0oW0NIM10pbjFbY0hdW2NIXVtjSF1uMQ==

> <s_epik_cmdline>
J2VwaWtfcHl0aG9uJywgJy1waCcsICc3LjAnLCAnLXRuJywgJzgnLCAnLW1hJywgJzIwMCcsICctbWV0YWxfYmluZGluZycsICctaW1hZScsICc8aW5maWxlLm1hZT4nLCAnLW9tYWUnLCAnPG91dGZpbGUubWFlPic=

> <r_lp_tautomer_probability>
1

> <r_epik_Ionization_Penalty>
2.16876

> <r_epik_Ionization_Penalty_Charging>
0

> <r_epik_Ionization_Penalty_Neutral>
2.16876

> <r_epik_State_Penalty>
2.30854

> <r_epik_Charging_Adjusted_Penalty>
2.30854

> <i_epik_Tot_Q>
0

> <i_epik_Tot_abs_Q>
0

> <r_epik_Metal_State_Penalty>
2.3073

> <b_epik_Metal_Only>
0

> <s_lp_Force_Field>
OPLS_2005

> <r_lp_Energy>
16.8249

> <b_lp_Chiralities_Consistent>
1

> <s_lp_Variant>
AV-unprocessed.smi:3112-13

> <Gold.Version>
5.8.1

> <Gold.Id.Protein>
6NUR|6NUR_protein|mol2

> <Gold.PLP.Fitness>
46.4809

> <Gold.PLP.PLP>
-39.8215

> <Gold.PLP.part.hbond>
-4.0000

> <Gold.PLP.part.metal>
0.0000

> <Gold.PLP.part.buried>
-3.4088

> <Gold.PLP.part.nonpolar>
-31.7724

> <Gold.PLP.part.repulsive>
0.0834

> <Gold.PLP.ligand.clash>
0.0000

> <Gold.PLP.ligand.torsion>
0.8032

> <Gold.PLP.Chemscore.Hbond>
2.6320

> <Gold.PLP.Chemscore.CHOScore>
0.0000

> <Gold.PLP.Chemscore.Metal>
0.0000

> <Gold.Chemscore.Hbonds>
donor molecule, donor type, donor heavy atom, donor atom, acceptor molecule, acceptor atom, score
      L1  H     4    22       P1  7957  0.32
      L1  H     6    25       P1  8028  0.94
      P1  H  7989  7998       L1     4  0.32
      P1  H  8011  8017       L1     4  0.95

> <Gold.PLP.Chemscore.Internal.Correction>
0.3698

> <Gold.Rescore>
     Score         DG    S(hbond)    S(metal)    S(lipo)     H(rot)  DE(clash)    DE(int)     intcor
     16.08     -17.16       2.06        0.00      91.63       2.31       0.31       0.77       ----

> <Gold.Chemscore.Fitness>
16.0824

> <Gold.Chemscore.DG>
-17.1552

> <Gold.Chemscore.ZeroCoef>
-5.4800

> <Gold.Chemscore.Hbond>
2.0569

> <Gold.Chemscore.Metal>
0.0000

> <Gold.Chemscore.Lipo>
91.6308

> <Gold.Chemscore.Internal_Hbond>
0.0000

> <Gold.Chemscore.DEClash>
0.3063

> <Gold.Chemscore.DEInternal>
0.7665

> <Gold.Chemscore.Rot>
2.3108

> <Gold.Chemscore.Internal.Correction>
   9.000000E+99

> <Gold.Chemscore.Hbonds>
donor molecule, donor type, donor heavy atom, donor atom, acceptor molecule, acceptor atom, score
      L1  H     4    22       P1  7957  0.31
      L1  H     6    25       P1  8028  0.87
      P1  H  7989  7998       L1     4  0.27
      P1  H  8011  8017       L1     4  0.06

> <Gold.Chemscore.Hbond.Weighted>
-6.8701

> <Gold.Chemscore.Metal.Weighted>
-0.0000

> <Gold.Chemscore.Lipo.Weighted>
-10.7208

> <Gold.Chemscore.Internal_Hbond.Weighted>
0.0000

> <Gold.Chemscore.DEClash.Weighted>
0.3063

> <Gold.Chemscore.DEInternal.Weighted>
0.7665

> <Gold.Chemscore.Rot.Weighted>
5.9157

> <Gold.Chemscore.Internal.Correction.Weighted>
   9.000000E+99

> <Gold.Protein.RotatedTorsions>
[ 6907 6896 6895 6894 ] final   95.25 input  -60.11 | X-H torsion
[ 7974 7965 7964 7962 ] final   96.33 input  175.53 | X-H torsion
[ 8008 7997 7996 7995 ] final  -47.81 input   59.86 | X-H torsion
[ 10167 10162 10161 10158 ] final   84.07 input  -65.29 | X-H torsion
[ 10718 10713 10712 10709 ] final    4.54 input   66.30 | X-H torsion
[ 10763 10752 10751 10750 ] final  -80.46 input  -60.55 | X-H torsion
[ 11005 11000 10999 10996 ] final  -40.32 input  -57.11 | X-H torsion

> <Gold.Protein.ActiveResidues>
 VAL166  LYS551  ARG553  GLY616  TRP617  ASP618  TYR619  PRO620  LYS621  CYS622 
 ASP623  PHE694  ASN695  SER759  ASP760  ASP761  ALA762  ILE779  LEU786  VAL792 
 PHE793  MET794  SER795  GLU796  ALA797  LYS798  CYS799  TRP800  GLU811  SER814 

> <Gold.Protein.RotatedAtoms>
  152.5445  134.1069  159.8341 H   0  0  0  0  0  0  0  0  0  0  0  0  # atno 6907 bound_to 6896
  151.1140  133.5145  159.2612 H   0  0  0  0  0  0  0  0  0  0  0  0  # atno 6908 bound_to 6896
  151.1852  135.0388  159.8864 H   0  0  0  0  0  0  0  0  0  0  0  0  # atno 6909 bound_to 6896
  145.4403  139.2302  143.3095 H   0  0  0  0  0  0  0  0  0  0  0  0  # atno 7974 bound_to 7965
  154.4021  140.1337  156.4236 H   0  0  0  0  0  0  0  0  0  0  0  0  # atno 8008 bound_to 7997
  155.7619  140.3486  155.5182 H   0  0  0  0  0  0  0  0  0  0  0  0  # atno 8009 bound_to 7997
  155.8851  140.0994  157.1448 H   0  0  0  0  0  0  0  0  0  0  0  0  # atno 8010 bound_to 7997
  139.9119  144.6267  150.8529 H   0  0  0  0  0  0  0  0  0  0  0  0  # atno 10167 bound_to 10162
  156.8941  130.5698  149.5649 H   0  0  0  0  0  0  0  0  0  0  0  0  # atno 10718 bound_to 10713
  154.5515  135.5660  153.6926 H   0  0  0  0  0  0  0  0  0  0  0  0  # atno 10763 bound_to 10752
  152.9991  135.6252  154.2367 H   0  0  0  0  0  0  0  0  0  0  0  0  # atno 10764 bound_to 10752
  154.2302  135.2866  155.2872 H   0  0  0  0  0  0  0  0  0  0  0  0  # atno 10765 bound_to 10752
  141.0166  133.6882  156.2305 H   0  0  0  0  0  0  0  0  0  0  0  0  # atno 11005 bound_to 11000
  146.2560  140.5151  142.8873 LP  0  0  0  0  0  0  0  0  0  0  0  0  # atno 17320 bound_to 7965
  144.8126  140.6411  143.6405 LP  0  0  0  0  0  0  0  0  0  0  0  0  # atno 17321 bound_to 7965
  140.7683  143.3360  151.2309 LP  0  0  0  0  0  0  0  0  0  0  0  0  # atno 17342 bound_to 10162
  139.6935  143.9651  152.2871 LP  0  0  0  0  0  0  0  0  0  0  0  0  # atno 17343 bound_to 10162
  156.0614  130.5666  150.9201 LP  0  0  0  0  0  0  0  0  0  0  0  0  # atno 17370 bound_to 10713
  157.6066  131.0938  150.8868 LP  0  0  0  0  0  0  0  0  0  0  0  0  # atno 17371 bound_to 10713
  140.6644  134.4933  157.5585 LP  0  0  0  0  0  0  0  0  0  0  0  0  # atno 17394 bound_to 11000
  139.9120  134.8324  156.1494 LP  0  0  0  0  0  0  0  0  0  0  0  0  # atno 17395 bound_to 11000

$$$$
