AV-unprocessed.smi:112|AV-procd|sdf|1084|dock1
  -GOLD-   2262018173D 1   1.00000     0.00000
 Structure written by MMmdl.
 54 57  0  0  0  0  0  0  0  0  3 V2000
  146.5688  138.6157  154.5952 C   0  0  0  0  0  0  0  0  0  0  0  0
  148.0371  138.2568  154.7602 C   0  0  0  0  0  0  0  0  0  0  0  0
  148.4603  136.9741  154.8271 C   0  0  0  0  0  0  0  0  0  0  0  0
  149.7842  136.6090  154.9803 N   0  0  0  0  0  0  0  0  0  0  0  0
  150.1727  135.1474  154.9880 C   0  0  1  0  0  0  0  0  0  0  0  0
  150.9226  134.7397  156.2501 C   0  0  0  0  0  0  0  0  0  0  0  0
  150.6002  133.2614  156.2670 C   0  0  1  0  0  0  0  0  0  0  0  0
  150.7990  132.6988  157.5487 O   0  0  0  0  0  0  0  0  0  0  0  0
  149.1493  133.2052  155.7389 C   0  0  1  0  0  0  0  0  0  0  0  0
  148.0525  133.2591  156.8228 C   0  0  0  0  0  0  0  0  0  0  0  0
  148.2388  134.3966  157.6378 O   0  0  0  0  0  0  0  0  0  0  0  0
  149.0109  134.3808  154.9325 O   0  0  0  0  0  0  0  0  0  0  0  0
  150.7798  137.6082  155.0257 C   0  0  0  0  0  0  0  0  0  0  0  0
  151.9722  137.3172  155.1426 O   0  0  0  0  0  0  0  0  0  0  0  0
  150.3719  138.9601  154.9520 N   0  0  0  0  0  0  0  0  0  0  0  0
  151.4060  140.0179  155.0289 C   0  0  0  0  0  0  0  0  0  0  0  0
  152.1940  140.0233  156.3574 C   0  0  0  0  0  0  0  0  0  0  0  0
  153.0656  139.1714  156.5353 O   0  0  0  0  0  0  0  0  0  0  0  0
  151.8864  140.9753  157.2734 N   0  0  0  0  0  0  0  0  0  0  0  0
  150.8683  142.0171  157.0526 C   0  0  0  0  0  0  0  0  0  0  0  0
  150.8524  142.8855  158.3297 C   0  0  0  0  0  0  0  0  0  0  0  0
  151.8881  142.2333  159.1966 C   0  0  0  0  0  0  0  0  0  0  0  0
  152.2692  142.6286  160.4900 C   0  0  0  0  0  0  0  0  0  0  0  0
  153.2685  141.8860  161.1664 C   0  0  0  0  0  0  0  0  0  0  0  0
  153.6936  142.2714  162.5267 N   0  3  0  0  0  0  0  0  0  0  0  0
  153.0761  143.1642  163.0982 O   0  0  0  0  0  0  0  0  0  0  0  0
  154.6465  141.6820  163.0263 O   0  5  0  0  0  0  0  0  0  0  0  0
  153.8538  140.7661  160.5178 C   0  0  0  0  0  0  0  0  0  0  0  0
  153.4595  140.3837  159.2169 C   0  0  0  0  0  0  0  0  0  0  0  0
  152.4630  141.1390  158.5610 C   0  0  0  0  0  0  0  0  0  0  0  0
  149.0136  139.3456  154.8344 C   0  0  0  0  0  0  0  0  0  0  0  0
  148.6990  140.5370  154.8011 O   0  0  0  0  0  0  0  0  0  0  0  0
  145.9369  137.7279  154.5551 H   0  0  0  0  0  0  0  0  0  0  0  0
  146.4145  139.1772  153.6731 H   0  0  0  0  0  0  0  0  0  0  0  0
  146.2289  139.2286  155.4307 H   0  0  0  0  0  0  0  0  0  0  0  0
  147.7209  136.1918  154.7499 H   0  0  0  0  0  0  0  0  0  0  0  0
  150.7557  134.9344  154.0923 H   0  0  0  0  0  0  0  0  0  0  0  0
  151.9864  134.9648  156.1698 H   0  0  0  0  0  0  0  0  0  0  0  0
  150.5113  135.2398  157.1269 H   0  0  0  0  0  0  0  0  0  0  0  0
  151.2549  132.7492  155.5601 H   0  0  0  0  0  0  0  0  0  0  0  0
  150.4993  131.8026  157.5336 H   0  0  0  0  0  0  0  0  0  0  0  0
  149.0223  132.3102  155.1281 H   0  0  0  0  0  0  0  0  0  0  0  0
  147.0645  133.3603  156.3744 H   0  0  0  0  0  0  0  0  0  0  0  0
  148.0380  132.3558  157.4315 H   0  0  0  0  0  0  0  0  0  0  0  0
  149.1238  134.3871  157.9690 H   0  0  0  0  0  0  0  0  0  0  0  0
  152.1062  139.9220  154.1981 H   0  0  0  0  0  0  0  0  0  0  0  0
  150.9557  141.0009  154.8848 H   0  0  0  0  0  0  0  0  0  0  0  0
  151.1201  142.6279  156.1846 H   0  0  0  0  0  0  0  0  0  0  0  0
  149.8872  141.5704  156.8852 H   0  0  0  0  0  0  0  0  0  0  0  0
  151.1271  143.9197  158.1204 H   0  0  0  0  0  0  0  0  0  0  0  0
  149.8788  142.8697  158.8203 H   0  0  0  0  0  0  0  0  0  0  0  0
  151.7984  143.4856  160.9487 H   0  0  0  0  0  0  0  0  0  0  0  0
  154.6159  140.1847  161.0154 H   0  0  0  0  0  0  0  0  0  0  0  0
  153.9279  139.5256  158.7618 H   0  0  0  0  0  0  0  0  0  0  0  0
  1  2  1  0  0  0  0
  1 33  1  0  0  0  0
  1 34  1  0  0  0  0
  1 35  1  0  0  0  0
  2 31  1  0  0  0  0
  2  3  2  0  0  0  0
  3  4  1  0  0  0  0
  3 36  1  0  0  0  0
  4  5  1  0  0  0  0
  4 13  1  0  0  0  0
  5 12  1  0  0  0  0
  5  6  1  0  0  0  0
  5 37  1  0  0  0  0
  6  7  1  0  0  0  0
  6 38  1  0  0  0  0
  6 39  1  0  0  0  0
  7  8  1  0  0  0  0
  7  9  1  0  0  0  0
  7 40  1  0  0  0  0
  8 41  1  0  0  0  0
  9 10  1  0  0  0  0
  9 12  1  0  0  0  0
  9 42  1  0  0  0  0
 10 11  1  0  0  0  0
 10 43  1  0  0  0  0
 10 44  1  0  0  0  0
 11 45  1  0  0  0  0
 13 14  2  0  0  0  0
 13 15  1  0  0  0  0
 15 16  1  0  0  0  0
 15 31  1  0  0  0  0
 16 17  1  0  0  0  0
 16 46  1  0  0  0  0
 16 47  1  0  0  0  0
 17 18  2  0  0  0  0
 17 19  1  0  0  0  0
 19 30  1  0  0  0  0
 19 20  1  0  0  0  0
 20 21  1  0  0  0  0
 20 48  1  0  0  0  0
 20 49  1  0  0  0  0
 21 22  1  0  0  0  0
 21 50  1  0  0  0  0
 21 51  1  0  0  0  0
 22 30  2  0  0  0  0
 22 23  1  0  0  0  0
 23 24  2  0  0  0  0
 23 52  1  0  0  0  0
 24 25  1  0  0  0  0
 24 28  1  0  0  0  0
 25 26  2  0  0  0  0
 25 27  1  0  0  0  0
 28 29  2  0  0  0  0
 28 53  1  0  0  0  0
 29 30  1  0  0  0  0
 29 54  1  0  0  0  0
 31 32  2  0  0  0  0
M  CHG  1  25   1
M  CHG  1  27  -1
M  END
> <s_m_source_file>
AV-unprocessed.smi

> <i_m_source_file_index>
112

> <i_lp_mmshare_version>
43012

> <i_f3d_flags>
0

> <s_epik_input>
W09IXVtDSDJdW0NAQEhdKE8xKVtDQEhdKFtPSF0pW0NIMl1bQ0BIXTFuKFtjSF1jMltDSDNdKWMoPU8pbihjMj1PKVtDSDJdQyg9TylOKFtDSDJdW0NIMl0zKWMoYzM0KVtjSF1bY0hdYyhbY0hdNClbTitdKD1PKVtPLV0=

> <s_epik_cmdline>
J2VwaWtfcHl0aG9uJywgJy1waCcsICc3LjAnLCAnLXRuJywgJzgnLCAnLW1hJywgJzIwMCcsICctbWV0YWxfYmluZGluZycsICctaW1hZScsICc8aW5maWxlLm1hZT4nLCAnLW9tYWUnLCAnPG91dGZpbGUubWFlPic=

> <r_lp_tautomer_probability>
1

> <r_epik_Ionization_Penalty>
2.5696e-07

> <r_epik_Ionization_Penalty_Charging>
1.04886e-08

> <r_epik_Ionization_Penalty_Neutral>
2.46472e-07

> <r_epik_State_Penalty>
-0

> <r_epik_Charging_Adjusted_Penalty>
1.04886e-08

> <i_epik_Tot_Q>
0

> <i_epik_Tot_abs_Q>
2

> <r_epik_Metal_State_Penalty>
-0

> <b_epik_Metal_Only>
0

> <s_epik_Chemistry_Notes>
This compound contains an acetal/aminal-like group ( X-CH(R)-Y where X, Y are N, S, or O) that may be acid/base labile, releasing an aldehyde.

> <s_lp_Force_Field>
OPLS_2005

> <r_lp_Energy>
61.1797

> <b_lp_Chiralities_Consistent>
1

> <s_lp_Variant>
AV-unprocessed.smi:112-2

> <Gold.Version>
5.8.1

> <Gold.Id.Protein>
6NUR|6NUR_protein|mol2

> <Gold.PLP.Fitness>
56.5004

> <Gold.PLP.PLP>
-48.4091

> <Gold.PLP.part.hbond>
-4.0000

> <Gold.PLP.part.metal>
0.0000

> <Gold.PLP.part.buried>
-2.1845

> <Gold.PLP.part.nonpolar>
-39.6840

> <Gold.PLP.part.repulsive>
0.4211

> <Gold.PLP.ligand.clash>
0.0000

> <Gold.PLP.ligand.torsion>
0.2710

> <Gold.PLP.Chemscore.Hbond>
2.8596

> <Gold.PLP.Chemscore.CHOScore>
0.0000

> <Gold.PLP.Chemscore.Metal>
0.0000

> <Gold.Chemscore.Hbonds>
donor molecule, donor type, donor heavy atom, donor atom, acceptor molecule, acceptor atom, score
      P1  H  6896  6907       L1     8  1.00
      P1  H  7997  8009       L1    18  1.00
      P1  H 10752 10764       L1    14  0.87

> <Gold.PLP.Chemscore.Internal.Correction>
0.0545

> <Gold.Rescore>
     Score         DG    S(hbond)    S(metal)    S(lipo)     H(rot)  DE(clash)    DE(int)     intcor
      9.17     -17.27       2.59        0.00      98.86       3.29       3.25       4.85       ----

> <Gold.Chemscore.Fitness>
9.1667

> <Gold.Chemscore.DG>
-17.2685

> <Gold.Chemscore.ZeroCoef>
-5.4800

> <Gold.Chemscore.Hbond>
2.5895

> <Gold.Chemscore.Metal>
0.0000

> <Gold.Chemscore.Lipo>
98.8563

> <Gold.Chemscore.Internal_Hbond>
0.0000

> <Gold.Chemscore.DEClash>
3.2509

> <Gold.Chemscore.DEInternal>
4.8509

> <Gold.Chemscore.Rot>
3.2916

> <Gold.Chemscore.Internal.Correction>
   9.000000E+99

> <Gold.Chemscore.Hbonds>
donor molecule, donor type, donor heavy atom, donor atom, acceptor molecule, acceptor atom, score
      P1  H  6896  6907       L1     8  0.94
      P1  H  7997  8009       L1    18  0.25
      P1  H 10752 10764       L1    14  0.80

> <Gold.Chemscore.Hbond.Weighted>
-8.6488

> <Gold.Chemscore.Metal.Weighted>
-0.0000

> <Gold.Chemscore.Lipo.Weighted>
-11.5662

> <Gold.Chemscore.Internal_Hbond.Weighted>
0.0000

> <Gold.Chemscore.DEClash.Weighted>
3.2509

> <Gold.Chemscore.DEInternal.Weighted>
4.8509

> <Gold.Chemscore.Rot.Weighted>
8.4265

> <Gold.Chemscore.Internal.Correction.Weighted>
   9.000000E+99

> <Gold.Protein.RotatedTorsions>
[ 6907 6896 6895 6894 ] final -149.45 input  -60.11 | X-H torsion
[ 7974 7965 7964 7962 ] final  141.28 input  175.53 | X-H torsion
[ 8008 7997 7996 7995 ] final -172.21 input   59.86 | X-H torsion
[ 10167 10162 10161 10158 ] final   76.65 input  -65.29 | X-H torsion
[ 10718 10713 10712 10709 ] final  -60.35 input   66.30 | X-H torsion
[ 10763 10752 10751 10750 ] final  -60.02 input  -60.55 | X-H torsion
[ 11005 11000 10999 10996 ] final -141.18 input  -57.11 | X-H torsion

> <Gold.Protein.ActiveResidues>
 VAL166  LYS551  ARG553  GLY616  TRP617  ASP618  TYR619  PRO620  LYS621  CYS622 
 ASP623  PHE694  ASN695  SER759  ASP760  ASP761  ALA762  ILE779  LEU786  VAL792 
 PHE793  MET794  SER795  GLU796  ALA797  LYS798  CYS799  TRP800  GLU811  SER814 

> <Gold.Protein.RotatedAtoms>
  151.1843  133.4706  159.2594 H   0  0  0  0  0  0  0  0  0  0  0  0  # atno 6907 bound_to 6896
  151.1227  135.0088  159.8556 H   0  0  0  0  0  0  0  0  0  0  0  0  # atno 6908 bound_to 6896
  152.5456  134.1753  159.8666 H   0  0  0  0  0  0  0  0  0  0  0  0  # atno 6909 bound_to 6896
  144.9110  139.5293  143.5708 H   0  0  0  0  0  0  0  0  0  0  0  0  # atno 7974 bound_to 7965
  155.9416  140.1109  157.1051 H   0  0  0  0  0  0  0  0  0  0  0  0  # atno 8008 bound_to 7997
  154.4090  140.1218  156.5000 H   0  0  0  0  0  0  0  0  0  0  0  0  # atno 8009 bound_to 7997
  155.6955  140.3472  155.4913 H   0  0  0  0  0  0  0  0  0  0  0  0  # atno 8010 bound_to 7997
  139.9900  144.5764  150.7826 H   0  0  0  0  0  0  0  0  0  0  0  0  # atno 10167 bound_to 10162
  156.0997  130.4188  150.0841 H   0  0  0  0  0  0  0  0  0  0  0  0  # atno 10718 bound_to 10713
  154.2627  135.6305  153.5280 H   0  0  0  0  0  0  0  0  0  0  0  0  # atno 10763 bound_to 10752
  152.9893  135.5591  154.5686 H   0  0  0  0  0  0  0  0  0  0  0  0  # atno 10764 bound_to 10752
  154.5239  135.2884  155.1214 H   0  0  0  0  0  0  0  0  0  0  0  0  # atno 10765 bound_to 10752
  140.8349  134.2472  157.4838 H   0  0  0  0  0  0  0  0  0  0  0  0  # atno 11005 bound_to 11000
  146.3158  139.7916  142.8984 LP  0  0  0  0  0  0  0  0  0  0  0  0  # atno 17320 bound_to 7965
  145.3454  141.0296  143.3369 LP  0  0  0  0  0  0  0  0  0  0  0  0  # atno 17321 bound_to 7965
  140.7458  143.2881  151.3406 LP  0  0  0  0  0  0  0  0  0  0  0  0  # atno 17342 bound_to 10162
  139.6347  144.0653  152.2506 LP  0  0  0  0  0  0  0  0  0  0  0  0  # atno 17343 bound_to 10162
  156.8831  130.9563  151.3597 LP  0  0  0  0  0  0  0  0  0  0  0  0  # atno 17370 bound_to 10713
  157.6165  130.8622  149.9037 LP  0  0  0  0  0  0  0  0  0  0  0  0  # atno 17371 bound_to 10713
  139.8704  134.9605  156.4368 LP  0  0  0  0  0  0  0  0  0  0  0  0  # atno 17394 bound_to 11000
  140.8958  133.7815  155.9623 LP  0  0  0  0  0  0  0  0  0  0  0  0  # atno 17395 bound_to 11000

$$$$
