AV-unprocessed.smi:1677|AV-procd|sdf|6725|dock4
  -GOLD-   22720 7473D 1   1.00000     0.00000
 Structure written by MMmdl.
 36 37  0  0  0  0  0  0  0  0  1 V2000
  150.1565  138.9964  156.1544 C   0  0  0  0  0  0  0  0  0  0  0  0
  150.8608  140.2468  155.6027 C   0  0  1  0  0  0  0  0  0  0  0  0
  150.1805  140.8214  154.3410 C   0  0  0  0  0  0  0  0  0  0  0  0
  148.7474  140.9804  154.4996 N   0  0  0  0  0  0  0  0  0  0  0  0
  147.7518  140.3854  153.7361 C   0  0  0  0  0  0  0  0  0  0  0  0
  146.5506  140.8227  154.2471 C   0  0  0  0  0  0  0  0  0  0  0  0
  146.7819  141.6870  155.3147 N   0  0  0  0  0  0  0  0  0  0  0  0
  148.1048  141.7344  155.4025 C   0  0  0  0  0  0  0  0  0  0  0  0
  150.9165  141.2632  156.6493 N   0  0  0  0  0  0  0  0  0  0  0  0
  151.7948  141.2909  157.6642 C   0  0  0  0  0  0  0  0  0  0  0  0
  152.6745  140.4431  157.8191 O   0  0  0  0  0  0  0  0  0  0  0  0
  151.6572  142.4538  158.6562 C   0  0  2  0  0  0  0  0  0  0  0  0
  151.7691  143.8202  157.9408 C   0  0  0  0  0  0  0  0  0  0  0  0
  151.8908  144.9724  158.9227 C   0  0  0  0  0  0  0  0  0  0  0  0
  152.2089  144.8091  160.2185 C   0  0  0  0  0  0  0  0  0  0  0  0
  152.4874  143.4548  160.8462 C   0  0  0  0  0  0  0  0  0  0  0  0
  152.6976  142.3533  159.7898 C   0  0  0  0  0  0  0  0  0  0  0  0
  150.1771  138.1755  155.4372 H   0  0  0  0  0  0  0  0  0  0  0  0
  149.1131  139.2035  156.3942 H   0  0  0  0  0  0  0  0  0  0  0  0
  150.6434  138.6415  157.0633 H   0  0  0  0  0  0  0  0  0  0  0  0
  151.8814  139.9565  155.3453 H   0  0  0  0  0  0  0  0  0  0  0  0
  150.6113  141.7912  154.0873 H   0  0  0  0  0  0  0  0  0  0  0  0
  150.3532  140.1697  153.4835 H   0  0  0  0  0  0  0  0  0  0  0  0
  147.9755  139.7168  152.9177 H   0  0  0  0  0  0  0  0  0  0  0  0
  145.5459  140.5849  153.9299 H   0  0  0  0  0  0  0  0  0  0  0  0
  148.6178  142.3271  156.1458 H   0  0  0  0  0  0  0  0  0  0  0  0
  150.2290  142.0010  156.6017 H   0  0  0  0  0  0  0  0  0  0  0  0
  150.6671  142.3946  159.1129 H   0  0  0  0  0  0  0  0  0  0  0  0
  152.6350  143.8531  157.2781 H   0  0  0  0  0  0  0  0  0  0  0  0
  150.8880  143.9848  157.3195 H   0  0  0  0  0  0  0  0  0  0  0  0
  151.7210  145.9654  158.5328 H   0  0  0  0  0  0  0  0  0  0  0  0
  152.2669  145.6687  160.8699 H   0  0  0  0  0  0  0  0  0  0  0  0
  153.3671  143.5282  161.4859 H   0  0  0  0  0  0  0  0  0  0  0  0
  151.6453  143.2023  161.4912 H   0  0  0  0  0  0  0  0  0  0  0  0
  152.6555  141.3745  160.2693 H   0  0  0  0  0  0  0  0  0  0  0  0
  153.7015  142.4471  159.3722 H   0  0  0  0  0  0  0  0  0  0  0  0
  1  2  1  0  0  0  0
  1 18  1  0  0  0  0
  1 19  1  0  0  0  0
  1 20  1  0  0  0  0
  2  3  1  0  0  0  0
  2  9  1  0  0  0  0
  2 21  1  0  0  0  0
  3  4  1  0  0  0  0
  3 22  1  0  0  0  0
  3 23  1  0  0  0  0
  4  8  1  0  0  0  0
  4  5  1  0  0  0  0
  5  6  2  0  0  0  0
  5 24  1  0  0  0  0
  6  7  1  0  0  0  0
  6 25  1  0  0  0  0
  7  8  2  0  0  0  0
  8 26  1  0  0  0  0
  9 10  1  0  0  0  0
  9 27  1  0  0  0  0
 10 11  2  0  0  0  0
 10 12  1  0  0  0  0
 12 17  1  0  0  0  0
 12 13  1  0  0  0  0
 12 28  1  0  0  0  0
 13 14  1  0  0  0  0
 13 29  1  0  0  0  0
 13 30  1  0  0  0  0
 14 15  2  0  0  0  0
 14 31  1  0  0  0  0
 15 16  1  0  0  0  0
 15 32  1  0  0  0  0
 16 17  1  0  0  0  0
 16 33  1  0  0  0  0
 16 34  1  0  0  0  0
 17 35  1  0  0  0  0
 17 36  1  0  0  0  0
M  END
> <s_m_source_file>
AV-unprocessed.smi

> <i_m_source_file_index>
1677

> <i_lp_mmshare_version>
43012

> <i_f3d_flags>
0

> <s_epik_input>
W2NIXTFuW2NIXVtjSF1uMVtDSDJdW0NAQEhdKFtDSDNdKVtOSF1DKD1PKVtDQEBIXTJbQ0gyXVtDSF09W0NIXVtDSDJdW0NIMl0y

> <s_epik_cmdline>
J2VwaWtfcHl0aG9uJywgJy1waCcsICc3LjAnLCAnLXRuJywgJzgnLCAnLW1hJywgJzIwMCcsICctbWV0YWxfYmluZGluZycsICctaW1hZScsICc8aW5maWxlLm1hZT4nLCAnLW9tYWUnLCAnPG91dGZpbGUubWFlPic=

> <r_lp_tautomer_probability>
1

> <r_epik_Ionization_Penalty>
0.640435

> <r_epik_Ionization_Penalty_Charging>
0.640435

> <r_epik_Ionization_Penalty_Neutral>
2.11108e-08

> <r_epik_State_Penalty>
0.658069

> <r_epik_Charging_Adjusted_Penalty>
1.2985

> <i_epik_Tot_Q>
0

> <i_epik_Tot_abs_Q>
0

> <r_epik_Metal_State_Penalty>
0.311689

> <b_epik_Metal_Only>
0

> <s_lp_Force_Field>
OPLS_2005

> <r_lp_Energy>
10.0444

> <b_lp_Chiralities_Consistent>
1

> <s_lp_Variant>
AV-unprocessed.smi:1677-6

> <Gold.Version>
5.8.1

> <Gold.Id.Protein>
6NUR|6NUR_protein|mol2

> <Gold.PLP.Fitness>
43.9244

> <Gold.PLP.PLP>
-34.2400

> <Gold.PLP.part.hbond>
-1.0000

> <Gold.PLP.part.metal>
0.0000

> <Gold.PLP.part.buried>
0.8606

> <Gold.PLP.part.nonpolar>
-32.9819

> <Gold.PLP.part.repulsive>
0.1833

> <Gold.PLP.ligand.clash>
0.0000

> <Gold.PLP.ligand.torsion>
0.3849

> <Gold.PLP.Chemscore.Hbond>
0.8154

> <Gold.PLP.Chemscore.CHOScore>
2.6538

> <Gold.PLP.Chemscore.Metal>
0.0000

> <Gold.Chemscore.Hbonds>
donor molecule, donor type, donor heavy atom, donor atom, acceptor molecule, acceptor atom, score
      P1  H  7997  8009       L1    11  0.82
      L1  C     5    24       P1  7957  0.96
      L1  C     6    25       P1 10175  1.00
      L1  C     8    26       P1  8028  0.73

> <Gold.PLP.Chemscore.Internal.Correction>
0.0468

> <Gold.Rescore>
     Score         DG    S(hbond)    S(metal)    S(lipo)     H(rot)  DE(clash)    DE(int)     intcor
     13.84     -15.60       0.84        0.00     100.85       1.75       1.40       0.36       ----

> <Gold.Chemscore.Fitness>
13.8368

> <Gold.Chemscore.DG>
-15.6008

> <Gold.Chemscore.ZeroCoef>
-5.4800

> <Gold.Chemscore.Hbond>
0.8369

> <Gold.Chemscore.Metal>
0.0000

> <Gold.Chemscore.Lipo>
100.8456

> <Gold.Chemscore.Internal_Hbond>
0.0000

> <Gold.Chemscore.DEClash>
1.4044

> <Gold.Chemscore.DEInternal>
0.3596

> <Gold.Chemscore.Rot>
1.7475

> <Gold.Chemscore.Internal.Correction>
   9.000000E+99

> <Gold.Chemscore.Hbonds>
donor molecule, donor type, donor heavy atom, donor atom, acceptor molecule, acceptor atom, score
      P1  H  7997  8009       L1    11  0.77

> <Gold.Chemscore.Hbond.Weighted>
-2.7954

> <Gold.Chemscore.Metal.Weighted>
-0.0000

> <Gold.Chemscore.Lipo.Weighted>
-11.7989

> <Gold.Chemscore.Internal_Hbond.Weighted>
0.0000

> <Gold.Chemscore.DEClash.Weighted>
1.4044

> <Gold.Chemscore.DEInternal.Weighted>
0.3596

> <Gold.Chemscore.Rot.Weighted>
4.4735

> <Gold.Chemscore.Internal.Correction.Weighted>
   9.000000E+99

> <Gold.Protein.RotatedTorsions>
[ 6907 6896 6895 6894 ] final -147.53 input  -60.11 | X-H torsion
[ 7974 7965 7964 7962 ] final   -4.73 input  175.53 | X-H torsion
[ 8008 7997 7996 7995 ] final  168.03 input   59.86 | X-H torsion
[ 10167 10162 10161 10158 ] final   14.95 input  -65.29 | X-H torsion
[ 10718 10713 10712 10709 ] final  156.34 input   66.30 | X-H torsion
[ 10763 10752 10751 10750 ] final  105.79 input  -60.55 | X-H torsion
[ 11005 11000 10999 10996 ] final  -11.62 input  -57.11 | X-H torsion

> <Gold.Protein.ActiveResidues>
 VAL166  LYS551  ARG553  GLY616  TRP617  ASP618  TYR619  PRO620  LYS621  CYS622 
 ASP623  PHE694  ASN695  SER759  ASP760  ASP761  ALA762  ILE779  LEU786  VAL792 
 PHE793  MET794  SER795  GLU796  ALA797  LYS798  CYS799  TRP800  GLU811  SER814 

> <Gold.Protein.RotatedAtoms>
  151.1570  133.4870  159.2594 H   0  0  0  0  0  0  0  0  0  0  0  0  # atno 6907 bound_to 6896
  151.1494  135.0219  159.8671 H   0  0  0  0  0  0  0  0  0  0  0  0  # atno 6908 bound_to 6896
  152.5463  134.1455  159.8550 H   0  0  0  0  0  0  0  0  0  0  0  0  # atno 6909 bound_to 6896
  146.2367  140.1915  142.8332 H   0  0  0  0  0  0  0  0  0  0  0  0  # atno 7974 bound_to 7965
  156.1582  140.1601  156.8656 H   0  0  0  0  0  0  0  0  0  0  0  0  # atno 8008 bound_to 7997
  154.5135  140.0795  156.8072 H   0  0  0  0  0  0  0  0  0  0  0  0  # atno 8009 bound_to 7997
  155.3760  140.3402  155.4247 H   0  0  0  0  0  0  0  0  0  0  0  0  # atno 8010 bound_to 7997
  140.5901  143.8813  150.6865 H   0  0  0  0  0  0  0  0  0  0  0  0  # atno 10167 bound_to 10162
  157.2062  131.0687  151.1996 H   0  0  0  0  0  0  0  0  0  0  0  0  # atno 10718 bound_to 10713
  153.3842  135.3898  155.1878 H   0  0  0  0  0  0  0  0  0  0  0  0  # atno 10763 bound_to 10752
  154.8711  135.3733  154.4819 H   0  0  0  0  0  0  0  0  0  0  0  0  # atno 10764 bound_to 10752
  153.5299  135.7086  153.5750 H   0  0  0  0  0  0  0  0  0  0  0  0  # atno 10765 bound_to 10752
  140.7571  133.8545  155.9093 H   0  0  0  0  0  0  0  0  0  0  0  0  # atno 11005 bound_to 11000
  144.9854  140.8498  143.5372 LP  0  0  0  0  0  0  0  0  0  0  0  0  # atno 17320 bound_to 7965
  145.1913  139.2299  143.5241 LP  0  0  0  0  0  0  0  0  0  0  0  0  # atno 17321 bound_to 7965
  140.2333  143.3719  152.1547 LP  0  0  0  0  0  0  0  0  0  0  0  0  # atno 17342 bound_to 10162
  139.5222  144.7056  151.5365 LP  0  0  0  0  0  0  0  0  0  0  0  0  # atno 17343 bound_to 10162
  157.3718  130.7185  149.6570 LP  0  0  0  0  0  0  0  0  0  0  0  0  # atno 17370 bound_to 10713
  155.9695  130.4197  150.4386 LP  0  0  0  0  0  0  0  0  0  0  0  0  # atno 17371 bound_to 10713
  140.9697  134.1547  157.4586 LP  0  0  0  0  0  0  0  0  0  0  0  0  # atno 17394 bound_to 11000
  139.8777  134.9974  156.5846 LP  0  0  0  0  0  0  0  0  0  0  0  0  # atno 17395 bound_to 11000

$$$$
