AV-unprocessed.smi:2906|AV-procd|sdf|11165|dock4
  -GOLD-   2272016 53D 1   1.00000     0.00000
 Structure written by MMmdl.
 39 40  0  0  0  0  0  0  0  0  2 V2000
  146.8480  142.3392  154.1717 C   0  0  0  0  0  0  0  0  0  0  0  0
  148.2505  141.7124  154.2227 C   0  0  0  0  0  0  0  0  0  0  0  0
  148.2473  140.1779  154.1183 C   0  0  0  0  0  0  0  0  0  0  0  0
  147.2603  139.5965  153.6647 O   0  0  0  0  0  0  0  0  0  0  0  0
  149.3423  139.5089  154.5354 N   0  0  0  0  0  0  0  0  0  0  0  0
  149.5083  138.0570  154.5283 C   0  0  0  0  0  0  0  0  0  0  0  0
  150.7970  137.7786  155.3016 C   0  0  0  0  0  0  0  0  0  0  0  0
  151.6023  139.0733  155.1945 C   0  0  2  0  0  0  0  0  0  0  0  0
  152.4520  139.3027  156.3594 N   0  0  0  0  0  0  0  0  0  0  0  0
  152.0256  139.6349  157.5860 C   0  0  0  0  0  0  0  0  0  0  0  0
  150.8190  139.7704  157.8021 O   0  0  0  0  0  0  0  0  0  0  0  0
  153.0242  139.7924  158.4847 N   0  5  0  0  0  0  0  0  0  0  0  0
  152.9444  140.7568  159.4158 C   0  0  0  0  0  0  0  0  0  0  0  0
  152.4342  141.9686  159.1694 N   0  0  0  0  0  0  0  0  0  0  0  0
  152.4394  142.8152  160.2814 C   0  0  0  0  0  0  0  0  0  0  0  0
  151.9105  144.2120  160.1616 C   0  0  0  0  0  0  0  0  0  0  0  0
  151.5363  144.5711  158.7193 C   0  0  0  0  0  0  0  0  0  0  0  0
  152.9610  142.2251  161.4032 C   0  0  0  0  0  0  0  0  0  0  0  0
  153.4613  140.5869  161.0948 S   0  0  0  0  0  0  0  0  0  0  0  0
  150.5366  140.1666  155.0605 C   0  0  0  0  0  0  0  0  0  0  0  0
  146.9081  143.4239  154.2634 H   0  0  0  0  0  0  0  0  0  0  0  0
  146.2189  141.9753  154.9847 H   0  0  0  0  0  0  0  0  0  0  0  0
  146.3456  142.1170  153.2296 H   0  0  0  0  0  0  0  0  0  0  0  0
  148.8532  142.1189  153.4100 H   0  0  0  0  0  0  0  0  0  0  0  0
  148.7345  142.0038  155.1554 H   0  0  0  0  0  0  0  0  0  0  0  0
  148.6624  137.5392  154.9818 H   0  0  0  0  0  0  0  0  0  0  0  0
  149.6053  137.7151  153.4971 H   0  0  0  0  0  0  0  0  0  0  0  0
  150.5495  137.5767  156.3451 H   0  0  0  0  0  0  0  0  0  0  0  0
  151.3390  136.9134  154.9187 H   0  0  0  0  0  0  0  0  0  0  0  0
  152.2015  139.0534  154.2822 H   0  0  0  0  0  0  0  0  0  0  0  0
  153.4476  139.2016  156.2264 H   0  0  0  0  0  0  0  0  0  0  0  0
  151.0357  144.3351  160.8010 H   0  0  0  0  0  0  0  0  0  0  0  0
  152.6506  144.9244  160.5276 H   0  0  0  0  0  0  0  0  0  0  0  0
  151.1575  145.5912  158.6588 H   0  0  0  0  0  0  0  0  0  0  0  0
  150.7627  143.9051  158.3357 H   0  0  0  0  0  0  0  0  0  0  0  0
  152.4008  144.4958  158.0593 H   0  0  0  0  0  0  0  0  0  0  0  0
  153.0818  142.6515  162.3875 H   0  0  0  0  0  0  0  0  0  0  0  0
  150.8790  140.9703  154.4069 H   0  0  0  0  0  0  0  0  0  0  0  0
  150.2917  140.6036  156.0303 H   0  0  0  0  0  0  0  0  0  0  0  0
  1  2  1  0  0  0  0
  1 21  1  0  0  0  0
  1 22  1  0  0  0  0
  1 23  1  0  0  0  0
  2  3  1  0  0  0  0
  2 24  1  0  0  0  0
  2 25  1  0  0  0  0
  3  4  2  0  0  0  0
  3  5  1  0  0  0  0
  5 20  1  0  0  0  0
  5  6  1  0  0  0  0
  6  7  1  0  0  0  0
  6 26  1  0  0  0  0
  6 27  1  0  0  0  0
  7  8  1  0  0  0  0
  7 28  1  0  0  0  0
  7 29  1  0  0  0  0
  8  9  1  0  0  0  0
  8 20  1  0  0  0  0
  8 30  1  0  0  0  0
  9 10  1  0  0  0  0
  9 31  1  0  0  0  0
 10 11  2  0  0  0  0
 10 12  1  0  0  0  0
 12 13  1  0  0  0  0
 13 19  1  0  0  0  0
 13 14  2  0  0  0  0
 14 15  1  0  0  0  0
 15 16  1  0  0  0  0
 15 18  2  0  0  0  0
 16 17  1  0  0  0  0
 16 32  1  0  0  0  0
 16 33  1  0  0  0  0
 17 34  1  0  0  0  0
 17 35  1  0  0  0  0
 17 36  1  0  0  0  0
 18 19  1  0  0  0  0
 18 37  1  0  0  0  0
 20 38  1  0  0  0  0
 20 39  1  0  0  0  0
M  CHG  1  12  -1
M  END
> <s_m_source_file>
AV-unprocessed.smi

> <i_m_source_file_index>
2906

> <i_lp_mmshare_version>
43012

> <i_f3d_flags>
0

> <s_epik_input>
W0NIM11bQ0gyXUMoPU8pTjFbQ0gyXVtDSDJdW0NASF0oW0NIMl0xKVtOSF1DKD1PKVtOSF1jMm5jKFtjSF1zMilbQ0gyXVtDSDNd

> <s_epik_cmdline>
J2VwaWtfcHl0aG9uJywgJy1waCcsICc3LjAnLCAnLXRuJywgJzgnLCAnLW1hJywgJzIwMCcsICctbWV0YWxfYmluZGluZycsICctaW1hZScsICc8aW5maWxlLm1hZT4nLCAnLW9tYWUnLCAnPG91dGZpbGUubWFlPic=

> <r_lp_tautomer_probability>
1

> <r_epik_Ionization_Penalty>
7.20119

> <r_epik_Ionization_Penalty_Charging>
5.87168

> <r_epik_Ionization_Penalty_Neutral>
1.32951

> <r_epik_State_Penalty>
5.87165

> <r_epik_Charging_Adjusted_Penalty>
11.7433

> <i_epik_Tot_Q>
-1

> <i_epik_Tot_abs_Q>
1

> <r_epik_Metal_State_Penalty>
1.83511

> <b_epik_Metal_Only>
1

> <s_lp_Force_Field>
OPLS_2005

> <r_lp_Energy>
18.7216

> <b_lp_Chiralities_Consistent>
1

> <s_lp_Variant>
AV-unprocessed.smi:2906-4

> <Gold.Version>
5.8.1

> <Gold.Id.Protein>
6NUR|6NUR_protein|mol2

> <Gold.PLP.Fitness>
48.3825

> <Gold.PLP.PLP>
-44.3221

> <Gold.PLP.part.hbond>
-1.0000

> <Gold.PLP.part.metal>
0.0000

> <Gold.PLP.part.buried>
-3.0681

> <Gold.PLP.part.nonpolar>
-40.5583

> <Gold.PLP.part.repulsive>
1.1207

> <Gold.PLP.ligand.clash>
0.0000

> <Gold.PLP.ligand.torsion>
1.0069

> <Gold.PLP.Chemscore.Hbond>
2.0000

> <Gold.PLP.Chemscore.CHOScore>
0.0000

> <Gold.PLP.Chemscore.Metal>
0.0000

> <Gold.Chemscore.Hbonds>
donor molecule, donor type, donor heavy atom, donor atom, acceptor molecule, acceptor atom, score
      P1  H  7997  8010       L1    12  1.27

> <Gold.PLP.Chemscore.Internal.Correction>
0.0741

> <Gold.Rescore>
     Score         DG    S(hbond)    S(metal)    S(lipo)     H(rot)  DE(clash)    DE(int)     intcor
     12.04     -15.39       0.58        0.00      98.51       1.39       0.20       3.15       ----

> <Gold.Chemscore.Fitness>
12.0368

> <Gold.Chemscore.DG>
-15.3872

> <Gold.Chemscore.ZeroCoef>
-5.4800

> <Gold.Chemscore.Hbond>
0.5775

> <Gold.Chemscore.Metal>
0.0000

> <Gold.Chemscore.Lipo>
98.5083

> <Gold.Chemscore.Internal_Hbond>
0.0000

> <Gold.Chemscore.DEClash>
0.1996

> <Gold.Chemscore.DEInternal>
3.1509

> <Gold.Chemscore.Rot>
1.3856

> <Gold.Chemscore.Internal.Correction>
   9.000000E+99

> <Gold.Chemscore.Hbonds>
donor molecule, donor type, donor heavy atom, donor atom, acceptor molecule, acceptor atom, score
      P1  H  7997  8010       L1    12  0.13

> <Gold.Chemscore.Hbond.Weighted>
-1.9289

> <Gold.Chemscore.Metal.Weighted>
-0.0000

> <Gold.Chemscore.Lipo.Weighted>
-11.5255

> <Gold.Chemscore.Internal_Hbond.Weighted>
0.0000

> <Gold.Chemscore.DEClash.Weighted>
0.1996

> <Gold.Chemscore.DEInternal.Weighted>
3.1509

> <Gold.Chemscore.Rot.Weighted>
3.5471

> <Gold.Chemscore.Internal.Correction.Weighted>
   9.000000E+99

> <Gold.Protein.RotatedTorsions>
[ 6907 6896 6895 6894 ] final -136.00 input  -60.11 | X-H torsion
[ 7974 7965 7964 7962 ] final  -10.67 input  175.53 | X-H torsion
[ 8008 7997 7996 7995 ] final   26.18 input   59.86 | X-H torsion
[ 10167 10162 10161 10158 ] final   19.59 input  -65.29 | X-H torsion
[ 10718 10713 10712 10709 ] final  153.43 input   66.30 | X-H torsion
[ 10763 10752 10751 10750 ] final  -40.71 input  -60.55 | X-H torsion
[ 11005 11000 10999 10996 ] final  157.43 input  -57.11 | X-H torsion

> <Gold.Protein.ActiveResidues>
 VAL166  LYS551  ARG553  GLY616  TRP617  ASP618  TYR619  PRO620  LYS621  CYS622 
 ASP623  PHE694  ASN695  SER759  ASP760  ASP761  ALA762  ILE779  LEU786  VAL792 
 PHE793  MET794  SER795  GLU796  ALA797  LYS798  CYS799  TRP800  GLU811  SER814 

> <Gold.Protein.RotatedAtoms>
  151.0048  133.6022  159.2690 H   0  0  0  0  0  0  0  0  0  0  0  0  # atno 6907 bound_to 6896
  151.3195  135.0814  159.9310 H   0  0  0  0  0  0  0  0  0  0  0  0  # atno 6908 bound_to 6896
  152.5283  133.9698  159.7810 H   0  0  0  0  0  0  0  0  0  0  0  0  # atno 6909 bound_to 6896
  146.2213  140.2798  142.8361 H   0  0  0  0  0  0  0  0  0  0  0  0  # atno 7974 bound_to 7965
  155.0232  140.3150  155.4785 H   0  0  0  0  0  0  0  0  0  0  0  0  # atno 8008 bound_to 7997
  156.2888  140.2193  156.5293 H   0  0  0  0  0  0  0  0  0  0  0  0  # atno 8009 bound_to 7997
  154.7434  140.0472  157.0819 H   0  0  0  0  0  0  0  0  0  0  0  0  # atno 8010 bound_to 7997
  140.5567  143.9411  150.6614 H   0  0  0  0  0  0  0  0  0  0  0  0  # atno 10167 bound_to 10162
  157.2449  131.0767  151.1768 H   0  0  0  0  0  0  0  0  0  0  0  0  # atno 10718 bound_to 10713
  153.9504  135.6751  153.4744 H   0  0  0  0  0  0  0  0  0  0  0  0  # atno 10763 bound_to 10752
  153.0887  135.4885  154.8644 H   0  0  0  0  0  0  0  0  0  0  0  0  # atno 10764 bound_to 10752
  154.7328  135.3142  154.8821 H   0  0  0  0  0  0  0  0  0  0  0  0  # atno 10765 bound_to 10752
  140.1769  134.8504  157.2756 H   0  0  0  0  0  0  0  0  0  0  0  0  # atno 11005 bound_to 11000
  144.9205  140.7863  143.5751 LP  0  0  0  0  0  0  0  0  0  0  0  0  # atno 17320 bound_to 7965
  145.2735  139.1945  143.4829 LP  0  0  0  0  0  0  0  0  0  0  0  0  # atno 17321 bound_to 7965
  140.2851  143.3362  152.1115 LP  0  0  0  0  0  0  0  0  0  0  0  0  # atno 17342 bound_to 10162
  139.5051  144.6789  151.6059 LP  0  0  0  0  0  0  0  0  0  0  0  0  # atno 17343 bound_to 10162
  157.3339  130.6999  149.6341 LP  0  0  0  0  0  0  0  0  0  0  0  0  # atno 17370 bound_to 10713
  155.9668  130.4299  150.4854 LP  0  0  0  0  0  0  0  0  0  0  0  0  # atno 17371 bound_to 10713
  140.2313  134.3906  155.7521 LP  0  0  0  0  0  0  0  0  0  0  0  0  # atno 17394 bound_to 11000
  141.2221  133.7216  156.8644 LP  0  0  0  0  0  0  0  0  0  0  0  0  # atno 17395 bound_to 11000

$$$$
