AV-unprocessed.smi:227|AV-procd|sdf|1732|dock8
  -GOLD-   2262020223D 1   1.00000     0.00000
 Structure written by MMmdl.
 54 58  0  0  0  0  0  0  0  0  1 V2000
  151.4290  140.6242  155.3538 O   0  0  0  0  0  0  0  0  0  0  0  0
  150.3571  140.6149  156.2741 C   0  0  0  0  0  0  0  0  0  0  0  0
  150.3805  141.8680  157.1835 C   0  0  1  0  0  0  0  0  0  0  0  0
  149.2973  141.8208  158.2896 C   0  0  0  0  0  0  0  0  0  0  0  0
  148.0102  142.3280  157.8467 N   0  0  0  0  0  0  0  0  0  0  0  0
  147.6225  142.5486  156.5457 C   0  0  0  0  0  0  0  0  0  0  0  0
  146.4083  143.0022  156.3976 N   0  0  0  0  0  0  0  0  0  0  0  0
  145.9232  143.1147  157.6959 C   0  0  0  0  0  0  0  0  0  0  0  0
  144.6889  143.5414  158.2649 C   0  0  0  0  0  0  0  0  0  0  0  0
  143.6365  143.9770  157.5254 N   0  0  0  0  0  0  0  0  0  0  0  0
  142.3952  144.4334  158.1262 C   0  0  2  0  0  0  0  0  0  0  0  0
  141.4660  144.5090  156.8998 C   0  0  0  0  0  0  0  0  0  0  0  0
  142.4539  144.9219  155.7909 C   0  0  0  0  0  0  0  0  0  0  0  0
  143.7565  145.0900  156.5951 C   0  0  1  0  0  0  0  0  0  0  0  0
  143.6142  146.3703  157.4611 C   0  0  2  0  0  0  0  0  0  0  0  0
  144.9161  147.0950  157.8686 C   0  0  0  0  0  0  0  0  0  0  0  0
  145.7358  146.3547  158.7462 O   0  0  0  0  0  0  0  0  0  0  0  0
  142.7254  145.8606  158.6125 C   0  0  0  0  0  0  0  0  0  0  0  0
  144.5688  143.4747  159.6174 N   0  0  0  0  0  0  0  0  0  0  0  0
  145.5919  143.0568  160.3676 C   0  0  0  0  0  0  0  0  0  0  0  0
  146.8011  142.6512  159.9773 N   0  0  0  0  0  0  0  0  0  0  0  0
  146.9209  142.6910  158.6198 C   0  0  0  0  0  0  0  0  0  0  0  0
  151.7883  142.1404  157.7713 C   0  0  2  0  0  0  0  0  0  0  0  0
  152.1676  141.2661  158.9539 C   0  0  0  0  0  0  0  0  0  0  0  0
  153.3207  142.0479  159.5723 C   0  0  0  0  0  0  0  0  0  0  0  0
  153.0201  143.4192  159.3415 O   0  0  0  0  0  0  0  0  0  0  0  0
  151.9683  143.5322  158.3875 C   0  0  0  0  0  0  0  0  0  0  0  0
  152.2400  140.5666  155.8354 H   0  0  0  0  0  0  0  0  0  0  0  0
  149.4218  140.5555  155.7180 H   0  0  0  0  0  0  0  0  0  0  0  0
  150.4102  139.7004  156.8646 H   0  0  0  0  0  0  0  0  0  0  0  0
  150.1346  142.7144  156.5405 H   0  0  0  0  0  0  0  0  0  0  0  0
  149.1669  140.8002  158.6511 H   0  0  0  0  0  0  0  0  0  0  0  0
  149.6024  142.4141  159.1514 H   0  0  0  0  0  0  0  0  0  0  0  0
  148.2718  142.3546  155.7043 H   0  0  0  0  0  0  0  0  0  0  0  0
  142.0015  143.7872  158.9119 H   0  0  0  0  0  0  0  0  0  0  0  0
  141.0280  143.5350  156.6783 H   0  0  0  0  0  0  0  0  0  0  0  0
  140.6547  145.2253  157.0342 H   0  0  0  0  0  0  0  0  0  0  0  0
  142.5572  144.1224  155.0558 H   0  0  0  0  0  0  0  0  0  0  0  0
  142.1508  145.8253  155.2606 H   0  0  0  0  0  0  0  0  0  0  0  0
  144.6397  145.0890  155.9584 H   0  0  0  0  0  0  0  0  0  0  0  0
  143.0480  147.1087  156.8911 H   0  0  0  0  0  0  0  0  0  0  0  0
  145.4965  147.3434  156.9796 H   0  0  0  0  0  0  0  0  0  0  0  0
  144.6713  148.0386  158.3567 H   0  0  0  0  0  0  0  0  0  0  0  0
  146.5548  146.1712  158.3117 H   0  0  0  0  0  0  0  0  0  0  0  0
  141.8350  146.4721  158.7614 H   0  0  0  0  0  0  0  0  0  0  0  0
  143.2673  145.8296  159.5581 H   0  0  0  0  0  0  0  0  0  0  0  0
  145.4161  143.0458  161.4330 H   0  0  0  0  0  0  0  0  0  0  0  0
  152.5417  142.0060  156.9932 H   0  0  0  0  0  0  0  0  0  0  0  0
  151.3399  141.1981  159.6615 H   0  0  0  0  0  0  0  0  0  0  0  0
  152.4587  140.2549  158.6689 H   0  0  0  0  0  0  0  0  0  0  0  0
  153.4467  141.8381  160.6345 H   0  0  0  0  0  0  0  0  0  0  0  0
  154.2564  141.8078  159.0660 H   0  0  0  0  0  0  0  0  0  0  0  0
  152.1993  144.2912  157.6398 H   0  0  0  0  0  0  0  0  0  0  0  0
  151.0651  143.8425  158.9147 H   0  0  0  0  0  0  0  0  0  0  0  0
  1  2  1  0  0  0  0
  1 28  1  0  0  0  0
  2  3  1  0  0  0  0
  2 29  1  0  0  0  0
  2 30  1  0  0  0  0
  3  4  1  0  0  0  0
  3 23  1  0  0  0  0
  3 31  1  0  0  0  0
  4  5  1  0  0  0  0
  4 32  1  0  0  0  0
  4 33  1  0  0  0  0
  5 22  1  0  0  0  0
  5  6  1  0  0  0  0
  6  7  2  0  0  0  0
  6 34  1  0  0  0  0
  7  8  1  0  0  0  0
  8 22  2  0  0  0  0
  8  9  1  0  0  0  0
  9 10  1  0  0  0  0
  9 19  2  0  0  0  0
 10 14  1  0  0  0  0
 10 11  1  0  0  0  0
 11 18  1  0  0  0  0
 11 12  1  0  0  0  0
 11 35  1  0  0  0  0
 12 13  1  0  0  0  0
 12 36  1  0  0  0  0
 12 37  1  0  0  0  0
 13 14  1  0  0  0  0
 13 38  1  0  0  0  0
 13 39  1  0  0  0  0
 14 15  1  0  0  0  0
 14 40  1  0  0  0  0
 15 16  1  0  0  0  0
 15 18  1  0  0  0  0
 15 41  1  0  0  0  0
 16 17  1  0  0  0  0
 16 42  1  0  0  0  0
 16 43  1  0  0  0  0
 17 44  1  0  0  0  0
 18 45  1  0  0  0  0
 18 46  1  0  0  0  0
 19 20  1  0  0  0  0
 20 21  2  0  0  0  0
 20 47  1  0  0  0  0
 21 22  1  0  0  0  0
 23 27  1  0  0  0  0
 23 24  1  0  0  0  0
 23 48  1  0  0  0  0
 24 25  1  0  0  0  0
 24 49  1  0  0  0  0
 24 50  1  0  0  0  0
 25 26  1  0  0  0  0
 25 51  1  0  0  0  0
 25 52  1  0  0  0  0
 26 27  1  0  0  0  0
 27 53  1  0  0  0  0
 27 54  1  0  0  0  0
M  END
> <s_m_source_file>
AV-unprocessed.smi

> <i_m_source_file_index>
227

> <i_lp_mmshare_version>
43012

> <i_f3d_flags>
0

> <s_epik_input>
W0NIMl0xT1tDSDJdW0NIMl1bQ0BIXTFbQ0BIXShbQ0gyXVtPSF0pW0NIMl1uKFtjSF1uMiljKGMyMyluW2NIXW5jM04oW0NASF00NSlbQ0BASF0oW0NIMl1bQ0gyXTQpW0NASF0oW0NIMl01KVtDSDJdW09IXQ==

> <s_epik_cmdline>
J2VwaWtfcHl0aG9uJywgJy1waCcsICc3LjAnLCAnLXRuJywgJzgnLCAnLW1hJywgJzIwMCcsICctbWV0YWxfYmluZGluZycsICctaW1hZScsICc8aW5maWxlLm1hZT4nLCAnLW9tYWUnLCAnPG91dGZpbGUubWFlPic=

> <r_lp_tautomer_probability>
1

> <r_epik_Ionization_Penalty>
0.0055791

> <r_epik_Ionization_Penalty_Charging>
0

> <r_epik_Ionization_Penalty_Neutral>
0.0055791

> <r_epik_State_Penalty>
0.00401299

> <r_epik_Charging_Adjusted_Penalty>
0.00401299

> <i_epik_Tot_Q>
0

> <i_epik_Tot_abs_Q>
0

> <r_epik_Metal_State_Penalty>
-0

> <b_epik_Metal_Only>
0

> <s_lp_Force_Field>
OPLS_2005

> <r_lp_Energy>
91.5057

> <b_lp_Chiralities_Consistent>
1

> <s_lp_Variant>
AV-unprocessed.smi:227-6

> <Gold.Version>
5.8.1

> <Gold.Id.Protein>
6NUR|6NUR_protein|mol2

> <Gold.PLP.Fitness>
38.9536

> <Gold.PLP.PLP>
-30.7553

> <Gold.PLP.part.hbond>
-3.8537

> <Gold.PLP.part.metal>
0.0000

> <Gold.PLP.part.buried>
-4.4474

> <Gold.PLP.part.nonpolar>
-22.3943

> <Gold.PLP.part.repulsive>
0.1959

> <Gold.PLP.ligand.clash>
0.0000

> <Gold.PLP.ligand.torsion>
0.8138

> <Gold.PLP.Chemscore.Hbond>
3.1539

> <Gold.PLP.Chemscore.CHOScore>
0.0736

> <Gold.PLP.Chemscore.Metal>
0.0000

> <Gold.Chemscore.Hbonds>
donor molecule, donor type, donor heavy atom, donor atom, acceptor molecule, acceptor atom, score
      L1  H    17    44       P1  8029  1.00
      P1  H  6933  6944       L1    21  0.34
      P1  H  6934  6946       L1    21  0.99
      P1  H  7989  7998       L1     1  0.80
      L1  C     6    34       P1  8028  0.18

> <Gold.PLP.Chemscore.Internal.Correction>
0.1432

> <Gold.Rescore>
     Score         DG    S(hbond)    S(metal)    S(lipo)     H(rot)  DE(clash)    DE(int)     intcor
     11.85     -12.95       2.58        0.00      69.21       3.61       0.38       0.73       ----

> <Gold.Chemscore.Fitness>
11.8476

> <Gold.Chemscore.DG>
-12.9537

> <Gold.Chemscore.ZeroCoef>
-5.4800

> <Gold.Chemscore.Hbond>
2.5780

> <Gold.Chemscore.Metal>
0.0000

> <Gold.Chemscore.Lipo>
69.2084

> <Gold.Chemscore.Internal_Hbond>
0.0000

> <Gold.Chemscore.DEClash>
0.3773

> <Gold.Chemscore.DEInternal>
0.7288

> <Gold.Chemscore.Rot>
3.6071

> <Gold.Chemscore.Internal.Correction>
   9.000000E+99

> <Gold.Chemscore.Hbonds>
donor molecule, donor type, donor heavy atom, donor atom, acceptor molecule, acceptor atom, score
      L1  H    17    44       P1  8029  1.00
      P1  H  6933  6944       L1    21  0.33
      P1  H  6934  6946       L1    21  0.33
      P1  H  7989  7998       L1     1  0.70

> <Gold.Chemscore.Hbond.Weighted>
-8.6105

> <Gold.Chemscore.Metal.Weighted>
-0.0000

> <Gold.Chemscore.Lipo.Weighted>
-8.0974

> <Gold.Chemscore.Internal_Hbond.Weighted>
0.0000

> <Gold.Chemscore.DEClash.Weighted>
0.3773

> <Gold.Chemscore.DEInternal.Weighted>
0.7288

> <Gold.Chemscore.Rot.Weighted>
9.2342

> <Gold.Chemscore.Internal.Correction.Weighted>
   9.000000E+99

> <Gold.Protein.RotatedTorsions>
[ 6907 6896 6895 6894 ] final  163.00 input  -60.11 | X-H torsion
[ 7974 7965 7964 7962 ] final  122.94 input  175.53 | X-H torsion
[ 8008 7997 7996 7995 ] final -102.32 input   59.86 | X-H torsion
[ 10167 10162 10161 10158 ] final  -23.52 input  -65.29 | X-H torsion
[ 10718 10713 10712 10709 ] final   44.10 input   66.30 | X-H torsion
[ 10763 10752 10751 10750 ] final  -36.56 input  -60.55 | X-H torsion
[ 11005 11000 10999 10996 ] final  -75.55 input  -57.11 | X-H torsion

> <Gold.Protein.ActiveResidues>
 VAL166  LYS551  ARG553  GLY616  TRP617  ASP618  TYR619  PRO620  LYS621  CYS622 
 ASP623  PHE694  ASN695  SER759  ASP760  ASP761  ALA762  ILE779  LEU786  VAL792 
 PHE793  MET794  SER795  GLU796  ALA797  LYS798  CYS799  TRP800  GLU811  SER814 

> <Gold.Protein.RotatedAtoms>
  151.9319  133.3613  159.3933 H   0  0  0  0  0  0  0  0  0  0  0  0  # atno 6907 bound_to 6896
  150.7015  134.4528  159.5353 H   0  0  0  0  0  0  0  0  0  0  0  0  # atno 6908 bound_to 6896
  152.2170  134.8448  160.0541 H   0  0  0  0  0  0  0  0  0  0  0  0  # atno 6909 bound_to 6896
  145.1017  139.3514  143.4809 H   0  0  0  0  0  0  0  0  0  0  0  0  # atno 7974 bound_to 7965
  154.8550  140.0429  157.1628 H   0  0  0  0  0  0  0  0  0  0  0  0  # atno 8008 bound_to 7997
  154.8902  140.2985  155.5354 H   0  0  0  0  0  0  0  0  0  0  0  0  # atno 8009 bound_to 7997
  156.2997  140.2395  156.3916 H   0  0  0  0  0  0  0  0  0  0  0  0  # atno 8010 bound_to 7997
  140.7288  143.4435  151.0621 H   0  0  0  0  0  0  0  0  0  0  0  0  # atno 10167 bound_to 10162
  157.4231  130.7981  149.7533 H   0  0  0  0  0  0  0  0  0  0  0  0  # atno 10718 bound_to 10713
  153.8817  135.6821  153.4766 H   0  0  0  0  0  0  0  0  0  0  0  0  # atno 10763 bound_to 10752
  153.1230  135.4731  154.9224 H   0  0  0  0  0  0  0  0  0  0  0  0  # atno 10764 bound_to 10752
  154.7665  135.3226  154.8227 H   0  0  0  0  0  0  0  0  0  0  0  0  # atno 10765 bound_to 10752
  141.1646  133.6951  156.7534 H   0  0  0  0  0  0  0  0  0  0  0  0  # atno 11005 bound_to 11000
  146.3529  140.0896  142.8613 LP  0  0  0  0  0  0  0  0  0  0  0  0  # atno 17320 bound_to 7965
  145.0948  140.9308  143.4747 LP  0  0  0  0  0  0  0  0  0  0  0  0  # atno 17321 bound_to 7965
  139.8105  143.7958  152.3171 LP  0  0  0  0  0  0  0  0  0  0  0  0  # atno 17342 bound_to 10162
  139.8006  144.7375  150.9830 LP  0  0  0  0  0  0  0  0  0  0  0  0  # atno 17343 bound_to 10162
  155.9887  130.3957  150.3105 LP  0  0  0  0  0  0  0  0  0  0  0  0  # atno 17370 bound_to 10713
  157.1255  131.0258  151.2991 LP  0  0  0  0  0  0  0  0  0  0  0  0  # atno 17371 bound_to 10713
  140.2587  134.8483  157.3738 LP  0  0  0  0  0  0  0  0  0  0  0  0  # atno 17394 bound_to 11000
  140.1632  134.4702  155.7881 LP  0  0  0  0  0  0  0  0  0  0  0  0  # atno 17395 bound_to 11000

$$$$
