AV-unprocessed.smi:254|AV-procd|sdf|1948|dock2
  -GOLD-   2262021 83D 1   1.00000     0.00000
 Structure written by MMmdl.
 50 53  0  0  0  0  0  0  0  0  1 V2000
  154.1662  141.9436  160.2531 O   0  0  0  0  0  0  0  0  0  0  0  0
  153.1654  141.6745  159.5904 C   0  0  0  0  0  0  0  0  0  0  0  0
  152.7397  140.2528  159.2727 C   0  0  0  0  0  0  0  0  0  0  0  0
  151.5222  140.4823  158.5047 N   0  0  0  0  0  0  0  0  0  0  0  0
  150.7629  139.4770  157.9976 C   0  0  0  0  0  0  0  0  0  0  0  0
  150.4917  138.4130  158.7988 N   0  0  0  0  0  0  0  0  0  0  0  0
  149.7513  137.3953  158.3514 C   0  0  0  0  0  0  0  0  0  0  0  0
  149.1892  137.2379  157.1528 N   0  0  0  0  0  0  0  0  0  0  0  0
  149.4531  138.3008  156.3413 C   0  0  0  0  0  0  0  0  0  0  0  0
  150.2243  139.4516  156.6762 C   0  0  0  0  0  0  0  0  0  0  0  0
  150.2701  140.3119  155.5835 N   0  0  0  0  0  0  0  0  0  0  0  0
  149.5730  139.7065  154.6618 C   0  0  0  0  0  0  0  0  0  0  0  0
  149.0373  138.4962  155.0363 N   0  0  0  0  0  0  0  0  0  0  0  0
  148.2254  137.6101  154.2193 C   0  0  0  0  0  0  0  0  0  0  0  0
  146.8555  138.2159  153.8175 C   0  0  1  0  0  0  0  0  0  0  0  0
  146.9754  139.0579  152.5209 C   0  0  0  0  0  0  0  0  0  0  0  0
  147.4709  138.2965  151.4400 O   0  0  0  0  0  0  0  0  0  0  0  0
  145.7841  137.0967  153.6962 C   0  0  1  0  0  0  0  0  0  0  0  0
  144.4722  137.5328  153.0633 C   0  0  0  0  0  0  0  0  0  0  0  0
  143.8360  136.2041  152.6706 C   0  0  0  0  0  0  0  0  0  0  0  0
  144.9189  135.3333  152.3686 O   0  0  0  0  0  0  0  0  0  0  0  0
  146.1478  135.9288  152.7713 C   0  0  0  0  0  0  0  0  0  0  0  0
  151.2104  141.8974  158.3603 C   0  0  0  0  0  0  0  0  0  0  0  0
  152.3050  142.5503  159.0592 N   0  0  0  0  0  0  0  0  0  0  0  0
  152.3648  144.0066  159.1625 C   0  0  0  0  0  0  0  0  0  0  0  0
  151.4968  144.5506  160.3113 C   0  0  0  0  0  0  0  0  0  0  0  0
  151.6937  145.8640  160.4171 F   0  0  0  0  0  0  0  0  0  0  0  0
  150.2017  144.3348  160.0823 F   0  0  0  0  0  0  0  0  0  0  0  0
  151.8401  143.9757  161.4640 F   0  0  0  0  0  0  0  0  0  0  0  0
  153.4999  139.7417  158.6807 H   0  0  0  0  0  0  0  0  0  0  0  0
  152.5406  139.6927  160.1871 H   0  0  0  0  0  0  0  0  0  0  0  0
  149.5850  136.5930  159.0551 H   0  0  0  0  0  0  0  0  0  0  0  0
  149.4245  140.1326  153.6801 H   0  0  0  0  0  0  0  0  0  0  0  0
  148.7930  137.3424  153.3272 H   0  0  0  0  0  0  0  0  0  0  0  0
  148.0914  136.6903  154.7882 H   0  0  0  0  0  0  0  0  0  0  0  0
  146.5532  138.8870  154.6228 H   0  0  0  0  0  0  0  0  0  0  0  0
  146.0069  139.4381  152.1990 H   0  0  0  0  0  0  0  0  0  0  0  0
  147.6157  139.9259  152.6807 H   0  0  0  0  0  0  0  0  0  0  0  0
  147.9877  137.5846  151.7853 H   0  0  0  0  0  0  0  0  0  0  0  0
  145.5680  136.6965  154.6882 H   0  0  0  0  0  0  0  0  0  0  0  0
  143.8358  138.1078  153.7364 H   0  0  0  0  0  0  0  0  0  0  0  0
  144.6612  138.1348  152.1731 H   0  0  0  0  0  0  0  0  0  0  0  0
  143.2792  135.7860  153.5099 H   0  0  0  0  0  0  0  0  0  0  0  0
  143.1539  136.3020  151.8260 H   0  0  0  0  0  0  0  0  0  0  0  0
  146.6597  136.2885  151.8775 H   0  0  0  0  0  0  0  0  0  0  0  0
  146.7898  135.1940  153.2575 H   0  0  0  0  0  0  0  0  0  0  0  0
  151.1941  142.1947  157.3110 H   0  0  0  0  0  0  0  0  0  0  0  0
  150.2548  142.1414  158.8268 H   0  0  0  0  0  0  0  0  0  0  0  0
  153.4023  144.3081  159.3137 H   0  0  0  0  0  0  0  0  0  0  0  0
  152.0541  144.4523  158.2162 H   0  0  0  0  0  0  0  0  0  0  0  0
  1  2  2  0  0  0  0
  2 24  1  0  0  0  0
  2  3  1  0  0  0  0
  3  4  1  0  0  0  0
  3 30  1  0  0  0  0
  3 31  1  0  0  0  0
  4  5  1  0  0  0  0
  4 23  1  0  0  0  0
  5 10  1  0  0  0  0
  5  6  2  0  0  0  0
  6  7  1  0  0  0  0
  7  8  2  0  0  0  0
  7 32  1  0  0  0  0
  8  9  1  0  0  0  0
  9 13  1  0  0  0  0
  9 10  2  0  0  0  0
 10 11  1  0  0  0  0
 11 12  2  0  0  0  0
 12 13  1  0  0  0  0
 12 33  1  0  0  0  0
 13 14  1  0  0  0  0
 14 15  1  0  0  0  0
 14 34  1  0  0  0  0
 14 35  1  0  0  0  0
 15 16  1  0  0  0  0
 15 18  1  0  0  0  0
 15 36  1  0  0  0  0
 16 17  1  0  0  0  0
 16 37  1  0  0  0  0
 16 38  1  0  0  0  0
 17 39  1  0  0  0  0
 18 22  1  0  0  0  0
 18 19  1  0  0  0  0
 18 40  1  0  0  0  0
 19 20  1  0  0  0  0
 19 41  1  0  0  0  0
 19 42  1  0  0  0  0
 20 21  1  0  0  0  0
 20 43  1  0  0  0  0
 20 44  1  0  0  0  0
 21 22  1  0  0  0  0
 22 45  1  0  0  0  0
 22 46  1  0  0  0  0
 23 24  1  0  0  0  0
 23 47  1  0  0  0  0
 23 48  1  0  0  0  0
 24 25  1  0  0  0  0
 25 26  1  0  0  0  0
 25 49  1  0  0  0  0
 25 50  1  0  0  0  0
 26 27  1  0  0  0  0
 26 28  1  0  0  0  0
 26 29  1  0  0  0  0
M  END
> <s_m_source_file>
AV-unprocessed.smi

> <i_m_source_file_index>
254

> <i_lp_mmshare_version>
43012

> <i_f3d_flags>
0

> <s_epik_input>
RkMoRikoRilbQ0gyXU4xW0NIMl1OKFtDSDJdQzE9TyljKG5bY0hdbjIpYyhjMjMpbltjSF1uM1tDSDJdW0NASF0oW0NIMl1bT0hdKVtDQEBIXTRbQ0gyXVtDSDJdT1tDSDJdNA==

> <s_epik_cmdline>
J2VwaWtfcHl0aG9uJywgJy1waCcsICc3LjAnLCAnLXRuJywgJzgnLCAnLW1hJywgJzIwMCcsICctbWV0YWxfYmluZGluZycsICctaW1hZScsICc8aW5maWxlLm1hZT4nLCAnLW9tYWUnLCAnPG91dGZpbGUubWFlPic=

> <r_lp_tautomer_probability>
1

> <r_epik_Ionization_Penalty>
0.000292924

> <r_epik_Ionization_Penalty_Charging>
0

> <r_epik_Ionization_Penalty_Neutral>
0.000292924

> <r_epik_State_Penalty>
-0

> <r_epik_Charging_Adjusted_Penalty>
0

> <i_epik_Tot_Q>
0

> <i_epik_Tot_abs_Q>
0

> <r_epik_Metal_State_Penalty>
-0

> <b_epik_Metal_Only>
0

> <s_epik_Chemistry_Notes>
This compound contains an acetal/aminal-like group ( X-CH(R)-Y where X, Y are N, S, or O) that may be acid/base labile, releasing an aldehyde.

> <s_lp_Force_Field>
OPLS_2005

> <r_lp_Energy>
39.6801

> <b_lp_Chiralities_Consistent>
1

> <s_lp_Variant>
AV-unprocessed.smi:254-4

> <Gold.Version>
5.8.1

> <Gold.Id.Protein>
6NUR|6NUR_protein|mol2

> <Gold.PLP.Fitness>
52.6091

> <Gold.PLP.PLP>
-47.2552

> <Gold.PLP.part.hbond>
-2.9596

> <Gold.PLP.part.metal>
0.0000

> <Gold.PLP.part.buried>
-2.9453

> <Gold.PLP.part.nonpolar>
-40.9617

> <Gold.PLP.part.repulsive>
0.1271

> <Gold.PLP.ligand.clash>
0.0000

> <Gold.PLP.ligand.torsion>
1.6264

> <Gold.PLP.Chemscore.Hbond>
1.6500

> <Gold.PLP.Chemscore.CHOScore>
1.0000

> <Gold.PLP.Chemscore.Metal>
0.0000

> <Gold.Chemscore.Hbonds>
donor molecule, donor type, donor heavy atom, donor atom, acceptor molecule, acceptor atom, score
      L1  H    17    39       P1  7948  1.00
      P1  H  7954  7966       L1    17  0.25
      L1  C    12    33       P1  7957  1.00

> <Gold.PLP.Chemscore.Internal.Correction>
0.6566

> <Gold.Rescore>
     Score         DG    S(hbond)    S(metal)    S(lipo)     H(rot)  DE(clash)    DE(int)     intcor
      5.21      -7.55       0.98        0.00      61.92       3.30       0.66       1.68       ----

> <Gold.Chemscore.Fitness>
5.2141

> <Gold.Chemscore.DG>
-7.5508

> <Gold.Chemscore.ZeroCoef>
-5.4800

> <Gold.Chemscore.Hbond>
0.9782

> <Gold.Chemscore.Metal>
0.0000

> <Gold.Chemscore.Lipo>
61.9226

> <Gold.Chemscore.Internal_Hbond>
0.0000

> <Gold.Chemscore.DEClash>
0.6552

> <Gold.Chemscore.DEInternal>
1.6815

> <Gold.Chemscore.Rot>
3.2974

> <Gold.Chemscore.Internal.Correction>
   9.000000E+99

> <Gold.Chemscore.Hbonds>
donor molecule, donor type, donor heavy atom, donor atom, acceptor molecule, acceptor atom, score
      L1  H    17    39       P1  7948  0.99

> <Gold.Chemscore.Hbond.Weighted>
-3.2673

> <Gold.Chemscore.Metal.Weighted>
-0.0000

> <Gold.Chemscore.Lipo.Weighted>
-7.2449

> <Gold.Chemscore.Internal_Hbond.Weighted>
0.0000

> <Gold.Chemscore.DEClash.Weighted>
0.6552

> <Gold.Chemscore.DEInternal.Weighted>
1.6815

> <Gold.Chemscore.Rot.Weighted>
8.4414

> <Gold.Chemscore.Internal.Correction.Weighted>
   9.000000E+99

> <Gold.Protein.RotatedTorsions>
[ 6907 6896 6895 6894 ] final  175.72 input  -60.11 | X-H torsion
[ 7974 7965 7964 7962 ] final  117.18 input  175.53 | X-H torsion
[ 8008 7997 7996 7995 ] final  110.96 input   59.86 | X-H torsion
[ 10167 10162 10161 10158 ] final  153.43 input  -65.29 | X-H torsion
[ 10718 10713 10712 10709 ] final   50.52 input   66.30 | X-H torsion
[ 10763 10752 10751 10750 ] final -102.78 input  -60.55 | X-H torsion
[ 11005 11000 10999 10996 ] final  -80.51 input  -57.11 | X-H torsion

> <Gold.Protein.ActiveResidues>
 VAL166  LYS551  ARG553  GLY616  TRP617  ASP618  TYR619  PRO620  LYS621  CYS622 
 ASP623  PHE694  ASN695  SER759  ASP760  ASP761  ALA762  ILE779  LEU786  VAL792 
 PHE793  MET794  SER795  GLU796  ALA797  LYS798  CYS799  TRP800  GLU811  SER814 

> <Gold.Protein.RotatedAtoms>
  151.7316  133.3318  159.3341 H   0  0  0  0  0  0  0  0  0  0  0  0  # atno 6907 bound_to 6896
  150.7610  134.6358  159.6220 H   0  0  0  0  0  0  0  0  0  0  0  0  # atno 6908 bound_to 6896
  152.3588  134.6904  160.0265 H   0  0  0  0  0  0  0  0  0  0  0  0  # atno 6909 bound_to 6896
  145.1705  139.3104  143.4470 H   0  0  0  0  0  0  0  0  0  0  0  0  # atno 7974 bound_to 7965
  156.2090  140.3028  155.9690 H   0  0  0  0  0  0  0  0  0  0  0  0  # atno 8008 bound_to 7997
  155.2771  140.0436  157.3029 H   0  0  0  0  0  0  0  0  0  0  0  0  # atno 8009 bound_to 7997
  154.5673  140.2338  155.8253 H   0  0  0  0  0  0  0  0  0  0  0  0  # atno 8010 bound_to 7997
  139.4827  144.5274  151.7779 H   0  0  0  0  0  0  0  0  0  0  0  0  # atno 10167 bound_to 10162
  157.4893  130.8365  149.8183 H   0  0  0  0  0  0  0  0  0  0  0  0  # atno 10718 bound_to 10713
  154.7759  135.4848  153.9744 H   0  0  0  0  0  0  0  0  0  0  0  0  # atno 10763 bound_to 10752
  153.1428  135.6776  153.9008 H   0  0  0  0  0  0  0  0  0  0  0  0  # atno 10764 bound_to 10752
  153.8676  135.3147  155.3419 H   0  0  0  0  0  0  0  0  0  0  0  0  # atno 10765 bound_to 10752
  141.1668  133.7154  156.8284 H   0  0  0  0  0  0  0  0  0  0  0  0  # atno 11005 bound_to 11000
  146.3469  140.1848  142.8589 LP  0  0  0  0  0  0  0  0  0  0  0  0  # atno 17320 bound_to 7965
  145.0238  140.8815  143.5151 LP  0  0  0  0  0  0  0  0  0  0  0  0  # atno 17321 bound_to 7965
  140.4795  144.1470  150.5930 LP  0  0  0  0  0  0  0  0  0  0  0  0  # atno 17342 bound_to 10162
  140.4293  143.2575  151.9616 LP  0  0  0  0  0  0  0  0  0  0  0  0  # atno 17343 bound_to 10162
  156.0164  130.3812  150.2097 LP  0  0  0  0  0  0  0  0  0  0  0  0  # atno 17370 bound_to 10713
  157.0286  131.0000  151.3319 LP  0  0  0  0  0  0  0  0  0  0  0  0  # atno 17371 bound_to 10713
  140.2069  134.8856  157.3231 LP  0  0  0  0  0  0  0  0  0  0  0  0  # atno 17394 bound_to 11000
  140.2128  134.4118  155.7604 LP  0  0  0  0  0  0  0  0  0  0  0  0  # atno 17395 bound_to 11000

$$$$
