AV-unprocessed.smi:3238|AV-procd|sdf|12377|dock4
  -GOLD-   2272018233D 1   1.00000     0.00000
 Structure written by MMmdl.
 37 39  0  0  0  0  0  0  0  0  1 V2000
  146.6744  138.9966  152.1922 C   0  0  0  0  0  0  0  0  0  0  0  0
  147.5426  140.0526  152.6903 N   0  0  0  0  0  0  0  0  0  0  0  0
  147.5414  140.4972  153.9554 C   0  0  0  0  0  0  0  0  0  0  0  0
  146.7910  140.0466  154.8227 O   0  0  0  0  0  0  0  0  0  0  0  0
  148.5513  141.6067  154.2764 C   0  0  0  0  0  0  0  0  0  0  0  0
  149.6919  141.1173  155.1146 C   0  0  0  0  0  0  0  0  0  0  0  0
  150.4571  140.1071  154.7166 N   0  0  0  0  0  0  0  0  0  0  0  0
  151.3927  139.9814  155.7529 O   0  0  0  0  0  0  0  0  0  0  0  0
  151.0712  140.9350  156.6598 C   0  0  0  0  0  0  0  0  0  0  0  0
  151.9247  141.0970  157.8745 C   0  0  0  0  0  0  0  0  0  0  0  0
  151.4492  142.2388  158.7944 C   0  0  2  0  0  0  0  0  0  0  0  0
  151.1513  143.5633  158.0525 C   0  0  0  0  0  0  0  0  0  0  0  0
  152.0286  144.5855  158.7974 C   0  0  1  0  0  0  0  0  0  0  0  0
  151.4677  144.8122  160.2135 C   0  0  0  0  0  0  0  0  0  0  0  0
  151.8293  143.4998  160.9348 C   0  0  0  0  0  0  0  0  0  0  0  0
  152.5146  142.6801  159.8244 C   0  0  2  0  0  0  0  0  0  0  0  0
  153.2822  143.7672  159.0783 C   0  0  0  0  0  0  0  0  0  0  0  0
  150.0307  141.6851  156.3057 N   0  0  0  0  0  0  0  0  0  0  0  0
  146.8891  138.8039  151.1411 H   0  0  0  0  0  0  0  0  0  0  0  0
  145.6254  139.2821  152.2800 H   0  0  0  0  0  0  0  0  0  0  0  0
  146.8308  138.0705  152.7471 H   0  0  0  0  0  0  0  0  0  0  0  0
  148.1877  140.4686  152.0340 H   0  0  0  0  0  0  0  0  0  0  0  0
  148.9332  142.0190  153.3416 H   0  0  0  0  0  0  0  0  0  0  0  0
  148.0491  142.4212  154.8004 H   0  0  0  0  0  0  0  0  0  0  0  0
  151.9108  140.1546  158.4228 H   0  0  0  0  0  0  0  0  0  0  0  0
  152.9573  141.2540  157.5613 H   0  0  0  0  0  0  0  0  0  0  0  0
  150.5588  141.8953  159.3235 H   0  0  0  0  0  0  0  0  0  0  0  0
  151.4499  143.5109  157.0048 H   0  0  0  0  0  0  0  0  0  0  0  0
  150.0930  143.8248  158.0804 H   0  0  0  0  0  0  0  0  0  0  0  0
  152.1947  145.5072  158.2393 H   0  0  0  0  0  0  0  0  0  0  0  0
  151.9540  145.6616  160.6951 H   0  0  0  0  0  0  0  0  0  0  0  0
  150.3934  145.0009  160.2053 H   0  0  0  0  0  0  0  0  0  0  0  0
  152.5219  143.6930  161.7553 H   0  0  0  0  0  0  0  0  0  0  0  0
  150.9556  142.9960  161.3500 H   0  0  0  0  0  0  0  0  0  0  0  0
  153.1271  141.8636  160.2085 H   0  0  0  0  0  0  0  0  0  0  0  0
  153.7792  143.4116  158.1744 H   0  0  0  0  0  0  0  0  0  0  0  0
  154.0093  144.2899  159.7024 H   0  0  0  0  0  0  0  0  0  0  0  0
  1  2  1  0  0  0  0
  1 19  1  0  0  0  0
  1 20  1  0  0  0  0
  1 21  1  0  0  0  0
  2  3  1  0  0  0  0
  2 22  1  0  0  0  0
  3  4  2  0  0  0  0
  3  5  1  0  0  0  0
  5  6  1  0  0  0  0
  5 23  1  0  0  0  0
  5 24  1  0  0  0  0
  6 18  1  0  0  0  0
  6  7  2  0  0  0  0
  7  8  1  0  0  0  0
  8  9  1  0  0  0  0
  9 10  1  0  0  0  0
  9 18  2  0  0  0  0
 10 11  1  0  0  0  0
 10 25  1  0  0  0  0
 10 26  1  0  0  0  0
 11 16  1  0  0  0  0
 11 12  1  0  0  0  0
 11 27  1  0  0  0  0
 12 13  1  0  0  0  0
 12 28  1  0  0  0  0
 12 29  1  0  0  0  0
 13 17  1  0  0  0  0
 13 14  1  0  0  0  0
 13 30  1  0  0  0  0
 14 15  1  0  0  0  0
 14 31  1  0  0  0  0
 14 32  1  0  0  0  0
 15 16  1  0  0  0  0
 15 33  1  0  0  0  0
 15 34  1  0  0  0  0
 16 17  1  0  0  0  0
 16 35  1  0  0  0  0
 17 36  1  0  0  0  0
 17 37  1  0  0  0  0
M  END
> <s_m_source_file>
AV-unprocessed.smi

> <i_m_source_file_index>
3238

> <i_lp_mmshare_version>
43012

> <i_f3d_flags>
0

> <s_epik_input>
W0NIM11bTkhdQyg9TylbQ0gyXWMxbm9jKG4xKVtDSDJdW0NASF0oW0NIMl1bQ0BIXTIzKVtDQEhdKFtDSDJdMylbQ0gyXVtDSDJdMg==

> <s_epik_cmdline>
J2VwaWtfcHl0aG9uJywgJy1waCcsICc3LjAnLCAnLXRuJywgJzgnLCAnLW1hJywgJzIwMCcsICctbWV0YWxfYmluZGluZycsICctaW1hZScsICc8aW5maWxlLm1hZT4nLCAnLW9tYWUnLCAnPG91dGZpbGUubWFlPic=

> <r_lp_tautomer_probability>
1

> <r_epik_Ionization_Penalty>
1.02915e-07

> <r_epik_Ionization_Penalty_Charging>
0

> <r_epik_Ionization_Penalty_Neutral>
1.02915e-07

> <r_epik_State_Penalty>
-0

> <r_epik_Charging_Adjusted_Penalty>
0

> <i_epik_Tot_Q>
0

> <i_epik_Tot_abs_Q>
0

> <r_epik_Metal_State_Penalty>
-0

> <b_epik_Metal_Only>
0

> <s_lp_Force_Field>
OPLS_2005

> <r_lp_Energy>
47.6747

> <b_lp_Chiralities_Consistent>
1

> <s_lp_Variant>
AV-unprocessed.smi:3238-3

> <Gold.Version>
5.8.1

> <Gold.Id.Protein>
6NUR|6NUR_protein|mol2

> <Gold.PLP.Fitness>
48.1260

> <Gold.PLP.PLP>
-43.2663

> <Gold.PLP.part.hbond>
-1.6827

> <Gold.PLP.part.metal>
0.0000

> <Gold.PLP.part.buried>
-4.3353

> <Gold.PLP.part.nonpolar>
-35.8009

> <Gold.PLP.part.repulsive>
0.3491

> <Gold.PLP.ligand.clash>
0.0000

> <Gold.PLP.ligand.torsion>
0.2504

> <Gold.PLP.Chemscore.Hbond>
1.7800

> <Gold.PLP.Chemscore.CHOScore>
0.0000

> <Gold.PLP.Chemscore.Metal>
0.0000

> <Gold.Chemscore.Hbonds>
donor molecule, donor type, donor heavy atom, donor atom, acceptor molecule, acceptor atom, score
      L1  H     2    22       P1  7957  0.80
      P1  H  7989  7998       L1     7  0.80

> <Gold.PLP.Chemscore.Internal.Correction>
0.0205

> <Gold.Rescore>
     Score         DG    S(hbond)    S(metal)    S(lipo)     H(rot)  DE(clash)    DE(int)     intcor
     15.03     -16.65       1.04        0.00     106.40       1.85       0.09       1.52       ----

> <Gold.Chemscore.Fitness>
15.0343

> <Gold.Chemscore.DG>
-16.6519

> <Gold.Chemscore.ZeroCoef>
-5.4800

> <Gold.Chemscore.Hbond>
1.0352

> <Gold.Chemscore.Metal>
0.0000

> <Gold.Chemscore.Lipo>
106.3969

> <Gold.Chemscore.Internal_Hbond>
0.0000

> <Gold.Chemscore.DEClash>
0.0941

> <Gold.Chemscore.DEInternal>
1.5235

> <Gold.Chemscore.Rot>
1.8492

> <Gold.Chemscore.Internal.Correction>
   9.000000E+99

> <Gold.Chemscore.Hbonds>
donor molecule, donor type, donor heavy atom, donor atom, acceptor molecule, acceptor atom, score
      L1  H     2    22       P1  7957  0.80
      P1  H  7989  7998       L1     7  0.05

> <Gold.Chemscore.Hbond.Weighted>
-3.4574

> <Gold.Chemscore.Metal.Weighted>
-0.0000

> <Gold.Chemscore.Lipo.Weighted>
-12.4484

> <Gold.Chemscore.Internal_Hbond.Weighted>
0.0000

> <Gold.Chemscore.DEClash.Weighted>
0.0941

> <Gold.Chemscore.DEInternal.Weighted>
1.5235

> <Gold.Chemscore.Rot.Weighted>
4.7340

> <Gold.Chemscore.Internal.Correction.Weighted>
   9.000000E+99

> <Gold.Protein.RotatedTorsions>
[ 6907 6896 6895 6894 ] final  -85.32 input  -60.11 | X-H torsion
[ 7974 7965 7964 7962 ] final  131.26 input  175.53 | X-H torsion
[ 8008 7997 7996 7995 ] final  173.68 input   59.86 | X-H torsion
[ 10167 10162 10161 10158 ] final  142.48 input  -65.29 | X-H torsion
[ 10718 10713 10712 10709 ] final   83.28 input   66.30 | X-H torsion
[ 10763 10752 10751 10750 ] final -143.34 input  -60.55 | X-H torsion
[ 11005 11000 10999 10996 ] final -174.97 input  -57.11 | X-H torsion

> <Gold.Protein.ActiveResidues>
 VAL166  LYS551  ARG553  GLY616  TRP617  ASP618  TYR619  PRO620  LYS621  CYS622 
 ASP623  PHE694  ASN695  SER759  ASP760  ASP761  ALA762  ILE779  LEU786  VAL792 
 PHE793  MET794  SER795  GLU796  ALA797  LYS798  CYS799  TRP800  GLU811  SER814 

> <Gold.Protein.RotatedAtoms>
  150.6871  134.3222  159.4791 H   0  0  0  0  0  0  0  0  0  0  0  0  # atno 6907 bound_to 6896
  152.1096  134.9281  160.0576 H   0  0  0  0  0  0  0  0  0  0  0  0  # atno 6908 bound_to 6896
  152.0529  133.3992  159.4421 H   0  0  0  0  0  0  0  0  0  0  0  0  # atno 6909 bound_to 6896
  145.0092  139.4237  143.5253 H   0  0  0  0  0  0  0  0  0  0  0  0  # atno 7974 bound_to 7965
  156.1051  140.1454  156.9415 H   0  0  0  0  0  0  0  0  0  0  0  0  # atno 8008 bound_to 7997
  154.4728  140.0904  156.7232 H   0  0  0  0  0  0  0  0  0  0  0  0  # atno 8009 bound_to 7997
  155.4694  140.3441  155.4326 H   0  0  0  0  0  0  0  0  0  0  0  0  # atno 8010 bound_to 7997
  139.4993  144.6104  151.6284 H   0  0  0  0  0  0  0  0  0  0  0  0  # atno 10167 bound_to 10162
  157.6875  131.0084  150.2499 H   0  0  0  0  0  0  0  0  0  0  0  0  # atno 10718 bound_to 10713
  154.8474  135.3470  154.6172 H   0  0  0  0  0  0  0  0  0  0  0  0  # atno 10763 bound_to 10752
  153.6781  135.6981  153.5131 H   0  0  0  0  0  0  0  0  0  0  0  0  # atno 10764 bound_to 10752
  153.2690  135.4299  155.0925 H   0  0  0  0  0  0  0  0  0  0  0  0  # atno 10765 bound_to 10752
  140.4686  134.6187  157.4872 H   0  0  0  0  0  0  0  0  0  0  0  0  # atno 11005 bound_to 11000
  146.3467  139.9526  142.8727 LP  0  0  0  0  0  0  0  0  0  0  0  0  # atno 17320 bound_to 7965
  145.2047  140.9869  143.4135 LP  0  0  0  0  0  0  0  0  0  0  0  0  # atno 17321 bound_to 7965
  140.5777  144.0000  150.6251 LP  0  0  0  0  0  0  0  0  0  0  0  0  # atno 17342 bound_to 10162
  140.3138  143.3181  152.0852 LP  0  0  0  0  0  0  0  0  0  0  0  0  # atno 17343 bound_to 10162
  156.3098  130.3770  149.7672 LP  0  0  0  0  0  0  0  0  0  0  0  0  # atno 17370 bound_to 10713
  156.5276  130.8243  151.3226 LP  0  0  0  0  0  0  0  0  0  0  0  0  # atno 17371 bound_to 10713
  139.9900  134.7001  155.9707 LP  0  0  0  0  0  0  0  0  0  0  0  0  # atno 17394 bound_to 11000
  141.1588  133.6540  156.4248 LP  0  0  0  0  0  0  0  0  0  0  0  0  # atno 17395 bound_to 11000

$$$$
