AV-unprocessed.smi:3224|AV-procd|sdf|12310|dock4
  -GOLD-   2272018153D 1   1.00000     0.00000
 Structure written by MMmdl.
 30 31  0  0  0  0  0  0  0  0  2 V2000
  151.5648  138.9331  158.5413 C   0  0  0  0  0  0  0  0  0  0  0  0
  150.2671  139.0649  157.7152 C   0  0  0  0  0  0  0  0  0  0  0  0
  149.1907  138.5939  158.6012 N   0  0  0  0  0  0  0  0  0  0  0  0
  149.0077  137.4030  159.1990 C   0  0  0  0  0  0  0  0  0  0  0  0
  149.8232  136.4943  159.0367 O   0  0  0  0  0  0  0  0  0  0  0  0
  147.8759  137.3638  159.9479 N   0  5  0  0  0  0  0  0  0  0  0  0
  147.5745  136.4174  160.8648 C   0  0  0  0  0  0  0  0  0  0  0  0
  147.2585  135.1336  160.6266 N   0  0  0  0  0  0  0  0  0  0  0  0
  146.9949  134.3890  161.7766 C   0  0  0  0  0  0  0  0  0  0  0  0
  147.1109  135.1173  162.9290 C   0  0  0  0  0  0  0  0  0  0  0  0
  147.5566  136.7657  162.5961 S   0  0  0  0  0  0  0  0  0  0  0  0
  150.0418  140.5429  157.3048 C   0  0  0  0  0  0  0  0  0  0  0  0
  151.0154  140.9964  156.2021 C   0  0  0  0  0  0  0  0  0  0  0  0
  150.9277  140.1257  155.0807 O   0  0  0  0  0  0  0  0  0  0  0  0
  151.3100  138.7904  155.3876 C   0  0  0  0  0  0  0  0  0  0  0  0
  150.3557  138.1920  156.4370 C   0  0  0  0  0  0  0  0  0  0  0  0
  152.4477  139.2543  157.9907 H   0  0  0  0  0  0  0  0  0  0  0  0
  151.7346  137.8997  158.8459 H   0  0  0  0  0  0  0  0  0  0  0  0
  151.5163  139.5351  159.4497 H   0  0  0  0  0  0  0  0  0  0  0  0
  148.4724  139.2771  158.7911 H   0  0  0  0  0  0  0  0  0  0  0  0
  146.7319  133.3460  161.6808 H   0  0  0  0  0  0  0  0  0  0  0  0
  146.9630  134.7889  163.9465 H   0  0  0  0  0  0  0  0  0  0  0  0
  149.0330  140.6878  156.9211 H   0  0  0  0  0  0  0  0  0  0  0  0
  150.1271  141.1976  158.1729 H   0  0  0  0  0  0  0  0  0  0  0  0
  150.7609  142.0056  155.8779 H   0  0  0  0  0  0  0  0  0  0  0  0
  152.0423  141.0380  156.5669 H   0  0  0  0  0  0  0  0  0  0  0  0
  151.2691  138.1993  154.4727 H   0  0  0  0  0  0  0  0  0  0  0  0
  152.3459  138.7641  155.7274 H   0  0  0  0  0  0  0  0  0  0  0  0
  150.6640  137.1767  156.6884 H   0  0  0  0  0  0  0  0  0  0  0  0
  149.3788  138.0980  155.9649 H   0  0  0  0  0  0  0  0  0  0  0  0
  1  2  1  0  0  0  0
  1 17  1  0  0  0  0
  1 18  1  0  0  0  0
  1 19  1  0  0  0  0
  2 16  1  0  0  0  0
  2  3  1  0  0  0  0
  2 12  1  0  0  0  0
  3  4  1  0  0  0  0
  3 20  1  0  0  0  0
  4  5  2  0  0  0  0
  4  6  1  0  0  0  0
  6  7  1  0  0  0  0
  7 11  1  0  0  0  0
  7  8  2  0  0  0  0
  8  9  1  0  0  0  0
  9 10  2  0  0  0  0
  9 21  1  0  0  0  0
 10 11  1  0  0  0  0
 10 22  1  0  0  0  0
 12 13  1  0  0  0  0
 12 23  1  0  0  0  0
 12 24  1  0  0  0  0
 13 14  1  0  0  0  0
 13 25  1  0  0  0  0
 13 26  1  0  0  0  0
 14 15  1  0  0  0  0
 15 16  1  0  0  0  0
 15 27  1  0  0  0  0
 15 28  1  0  0  0  0
 16 29  1  0  0  0  0
 16 30  1  0  0  0  0
M  CHG  1   6  -1
M  END
> <s_m_source_file>
AV-unprocessed.smi

> <i_m_source_file_index>
3224

> <i_lp_mmshare_version>
43012

> <i_f3d_flags>
0

> <s_epik_input>
W0NIMl0xW0NIMl1PW0NIMl1bQ0gyXUMxKFtDSDNdKVtOSF1DKD1PKVtOSF1jMm5bY0hdW2NIXXMy

> <s_epik_cmdline>
J2VwaWtfcHl0aG9uJywgJy1waCcsICc3LjAnLCAnLXRuJywgJzgnLCAnLW1hJywgJzIwMCcsICctbWV0YWxfYmluZGluZycsICctaW1hZScsICc8aW5maWxlLm1hZT4nLCAnLW9tYWUnLCAnPG91dGZpbGUubWFlPic=

> <r_lp_tautomer_probability>
1

> <r_epik_Ionization_Penalty>
6.86712

> <r_epik_Ionization_Penalty_Charging>
5.8001

> <r_epik_Ionization_Penalty_Neutral>
1.06702

> <r_epik_State_Penalty>
5.80007

> <r_epik_Charging_Adjusted_Penalty>
11.6002

> <i_epik_Tot_Q>
-1

> <i_epik_Tot_abs_Q>
1

> <r_epik_Metal_State_Penalty>
1.77033

> <b_epik_Metal_Only>
1

> <s_lp_Force_Field>
OPLS_2005

> <r_lp_Energy>
12.9706

> <b_lp_Chiralities_Consistent>
1

> <s_lp_Variant>
AV-unprocessed.smi:3224-2

> <Gold.Version>
5.8.1

> <Gold.Id.Protein>
6NUR|6NUR_protein|mol2

> <Gold.PLP.Fitness>
36.5528

> <Gold.PLP.PLP>
-27.5900

> <Gold.PLP.part.hbond>
-3.6406

> <Gold.PLP.part.metal>
0.0000

> <Gold.PLP.part.buried>
-4.1029

> <Gold.PLP.part.nonpolar>
-21.3906

> <Gold.PLP.part.repulsive>
0.2583

> <Gold.PLP.ligand.clash>
0.0000

> <Gold.PLP.ligand.torsion>
0.7083

> <Gold.PLP.Chemscore.Hbond>
3.4591

> <Gold.PLP.Chemscore.CHOScore>
0.0000

> <Gold.PLP.Chemscore.Metal>
0.0000

> <Gold.Chemscore.Hbonds>
donor molecule, donor type, donor heavy atom, donor atom, acceptor molecule, acceptor atom, score
      P1  H  6896  6909       L1     5  1.00
      P1  H  6934  6947       L1     6  1.46
      P1  H  7989  7998       L1    14  1.00

> <Gold.PLP.Chemscore.Internal.Correction>
0.0020

> <Gold.Rescore>
     Score         DG    S(hbond)    S(metal)    S(lipo)     H(rot)  DE(clash)    DE(int)     intcor
     15.25     -16.50       2.14        0.00      54.88       1.00       0.00       1.25       ----

> <Gold.Chemscore.Fitness>
15.2499

> <Gold.Chemscore.DG>
-16.5024

> <Gold.Chemscore.ZeroCoef>
-5.4800

> <Gold.Chemscore.Hbond>
2.1440

> <Gold.Chemscore.Metal>
0.0000

> <Gold.Chemscore.Lipo>
54.8835

> <Gold.Chemscore.Internal_Hbond>
0.0000

> <Gold.Chemscore.DEClash>
0.0048

> <Gold.Chemscore.DEInternal>
1.2477

> <Gold.Chemscore.Rot>
1.0000

> <Gold.Chemscore.Internal.Correction>
   9.000000E+99

> <Gold.Chemscore.Hbonds>
donor molecule, donor type, donor heavy atom, donor atom, acceptor molecule, acceptor atom, score
      P1  H  6896  6909       L1     5  0.93
      P1  H  6934  6947       L1     6  0.20
      P1  H  7989  7998       L1    14  0.80

> <Gold.Chemscore.Hbond.Weighted>
-7.1611

> <Gold.Chemscore.Metal.Weighted>
-0.0000

> <Gold.Chemscore.Lipo.Weighted>
-6.4214

> <Gold.Chemscore.Internal_Hbond.Weighted>
0.0000

> <Gold.Chemscore.DEClash.Weighted>
0.0048

> <Gold.Chemscore.DEInternal.Weighted>
1.2477

> <Gold.Chemscore.Rot.Weighted>
2.5600

> <Gold.Chemscore.Internal.Correction.Weighted>
   9.000000E+99

> <Gold.Protein.RotatedTorsions>
[ 6907 6896 6895 6894 ] final   71.43 input  -60.11 | X-H torsion
[ 7974 7965 7964 7962 ] final -167.32 input  175.53 | X-H torsion
[ 8008 7997 7996 7995 ] final   64.36 input   59.86 | X-H torsion
[ 10167 10162 10161 10158 ] final   60.91 input  -65.29 | X-H torsion
[ 10718 10713 10712 10709 ] final -138.12 input   66.30 | X-H torsion
[ 10763 10752 10751 10750 ] final -115.49 input  -60.55 | X-H torsion
[ 11005 11000 10999 10996 ] final  -19.92 input  -57.11 | X-H torsion

> <Gold.Protein.ActiveResidues>
 VAL166  LYS551  ARG553  GLY616  TRP617  ASP618  TYR619  PRO620  LYS621  CYS622 
 ASP623  PHE694  ASN695  SER759  ASP760  ASP761  ALA762  ILE779  LEU786  VAL792 
 PHE793  MET794  SER795  GLU796  ALA797  LYS798  CYS799  TRP800  GLU811  SER814 

> <Gold.Protein.RotatedAtoms>
  152.4809  134.4722  159.9638 H   0  0  0  0  0  0  0  0  0  0  0  0  # atno 6907 bound_to 6896
  151.4728  133.3559  159.2834 H   0  0  0  0  0  0  0  0  0  0  0  0  # atno 6908 bound_to 6896
  150.8881  134.8307  159.7334 H   0  0  0  0  0  0  0  0  0  0  0  0  # atno 6909 bound_to 6896
  144.7226  140.2536  143.6275 H   0  0  0  0  0  0  0  0  0  0  0  0  # atno 7974 bound_to 7965
  155.6448  140.3497  155.4727 H   0  0  0  0  0  0  0  0  0  0  0  0  # atno 8008 bound_to 7997
  155.9896  140.1191  157.0674 H   0  0  0  0  0  0  0  0  0  0  0  0  # atno 8009 bound_to 7997
  154.4215  140.1122  156.5533 H   0  0  0  0  0  0  0  0  0  0  0  0  # atno 8010 bound_to 7997
  140.1604  144.4375  150.6712 H   0  0  0  0  0  0  0  0  0  0  0  0  # atno 10167 bound_to 10162
  156.2958  130.7400  151.1439 H   0  0  0  0  0  0  0  0  0  0  0  0  # atno 10718 bound_to 10713
  154.8483  135.4380  154.1671 H   0  0  0  0  0  0  0  0  0  0  0  0  # atno 10763 bound_to 10752
  153.2793  135.6952  153.7407 H   0  0  0  0  0  0  0  0  0  0  0  0  # atno 10764 bound_to 10752
  153.6617  135.3434  155.3104 H   0  0  0  0  0  0  0  0  0  0  0  0  # atno 10765 bound_to 10752
  140.8413  133.7924  155.9864 H   0  0  0  0  0  0  0  0  0  0  0  0  # atno 11005 bound_to 11000
  145.8204  139.2041  143.1941 LP  0  0  0  0  0  0  0  0  0  0  0  0  # atno 17320 bound_to 7965
  146.0519  140.8060  142.9777 LP  0  0  0  0  0  0  0  0  0  0  0  0  # atno 17321 bound_to 7965
  140.6646  143.2263  151.5773 LP  0  0  0  0  0  0  0  0  0  0  0  0  # atno 17342 bound_to 10162
  139.5383  144.2717  152.1299 LP  0  0  0  0  0  0  0  0  0  0  0  0  # atno 17343 bound_to 10162
  157.7355  131.0572  150.5468 LP  0  0  0  0  0  0  0  0  0  0  0  0  # atno 17370 bound_to 10713
  156.5589  130.4250  149.6072 LP  0  0  0  0  0  0  0  0  0  0  0  0  # atno 17371 bound_to 10713
  140.8891  134.2517  157.5104 LP  0  0  0  0  0  0  0  0  0  0  0  0  # atno 17394 bound_to 11000
  139.8703  134.9653  156.4523 LP  0  0  0  0  0  0  0  0  0  0  0  0  # atno 17395 bound_to 11000

$$$$
