AV-unprocessed.smi:1202|AV-procd|sdf|5029|dock2
  -GOLD-   22720 4 53D 1   1.00000     0.00000
 Structure written by MMmdl.
 45 46  0  0  0  0  0  0  0  0  2 V2000
  147.6456  132.8958  152.6165 C   0  0  0  0  0  0  0  0  0  0  0  0
  146.9467  134.1082  152.2184 N   0  0  0  0  0  0  0  0  0  0  0  0
  145.7180  134.1281  151.6831 C   0  0  0  0  0  0  0  0  0  0  0  0
  145.0531  133.1112  151.4816 O   0  0  0  0  0  0  0  0  0  0  0  0
  145.1514  135.5100  151.3408 C   0  0  0  0  0  0  0  0  0  0  0  0
  145.9898  136.6263  151.8494 N   0  3  2  0  0  0  0  0  0  0  0  0
  145.7865  136.8978  153.2980 C   0  0  0  0  0  0  0  0  0  0  0  0
  146.7757  137.9594  153.8067 C   0  0  0  0  0  0  0  0  0  0  0  0
  146.6614  139.2608  152.9916 C   0  0  1  0  0  0  0  0  0  0  0  0
  147.6690  140.2303  153.4101 N   0  0  0  0  0  0  0  0  0  0  0  0
  147.7826  140.7447  154.6442 C   0  0  0  0  0  0  0  0  0  0  0  0
  147.0463  140.4235  155.5781 O   0  0  0  0  0  0  0  0  0  0  0  0
  148.9155  141.7610  154.8468 C   0  0  0  0  0  0  0  0  0  0  0  0
  149.8588  141.3800  155.9114 N   0  0  0  0  0  0  0  0  0  0  0  0
  149.7835  142.0960  157.1229 C   0  0  0  0  0  0  0  0  0  0  0  0
  150.5955  141.8277  158.1576 C   0  0  0  0  0  0  0  0  0  0  0  0
  151.5679  140.7712  158.0066 C   0  0  0  0  0  0  0  0  0  0  0  0
  151.6510  140.0827  156.8508 C   0  0  0  0  0  0  0  0  0  0  0  0
  150.7672  140.3745  155.7162 C   0  0  0  0  0  0  0  0  0  0  0  0
  150.8385  139.7535  154.6553 O   0  0  0  0  0  0  0  0  0  0  0  0
  146.8306  138.9475  151.4964 C   0  0  0  0  0  0  0  0  0  0  0  0
  145.8426  137.8617  151.0385 C   0  0  0  0  0  0  0  0  0  0  0  0
  148.6163  133.1493  153.0427 H   0  0  0  0  0  0  0  0  0  0  0  0
  147.8100  132.2430  151.7583 H   0  0  0  0  0  0  0  0  0  0  0  0
  147.0766  132.3469  153.3678 H   0  0  0  0  0  0  0  0  0  0  0  0
  147.4279  134.9848  152.3612 H   0  0  0  0  0  0  0  0  0  0  0  0
  145.0940  135.5600  150.2526 H   0  0  0  0  0  0  0  0  0  0  0  0
  144.1302  135.6082  151.7129 H   0  0  0  0  0  0  0  0  0  0  0  0
  144.7612  137.2313  153.4665 H   0  0  0  0  0  0  0  0  0  0  0  0
  145.9177  135.9822  153.8754 H   0  0  0  0  0  0  0  0  0  0  0  0
  146.5873  138.1567  154.8627 H   0  0  0  0  0  0  0  0  0  0  0  0
  147.7921  137.5679  153.7424 H   0  0  0  0  0  0  0  0  0  0  0  0
  145.6685  139.6904  153.1407 H   0  0  0  0  0  0  0  0  0  0  0  0
  148.3198  140.5469  152.7057 H   0  0  0  0  0  0  0  0  0  0  0  0
  149.4373  141.8805  153.8962 H   0  0  0  0  0  0  0  0  0  0  0  0
  148.4889  142.7425  155.0627 H   0  0  0  0  0  0  0  0  0  0  0  0
  149.0344  142.8739  157.1529 H   0  0  0  0  0  0  0  0  0  0  0  0
  150.5257  142.3898  159.0774 H   0  0  0  0  0  0  0  0  0  0  0  0
  152.2326  140.5324  158.8238 H   0  0  0  0  0  0  0  0  0  0  0  0
  152.3852  139.2962  156.7555 H   0  0  0  0  0  0  0  0  0  0  0  0
  146.6828  139.8525  150.9057 H   0  0  0  0  0  0  0  0  0  0  0  0
  147.8504  138.6130  151.2992 H   0  0  0  0  0  0  0  0  0  0  0  0
  146.0237  137.6365  149.9867 H   0  0  0  0  0  0  0  0  0  0  0  0
  144.8172  138.2276  151.1135 H   0  0  0  0  0  0  0  0  0  0  0  0
  146.9485  136.3267  151.7384 H   0  0  0  0  0  0  0  0  0  0  0  0
  1  2  1  0  0  0  0
  1 23  1  0  0  0  0
  1 24  1  0  0  0  0
  1 25  1  0  0  0  0
  2  3  1  0  0  0  0
  2 26  1  0  0  0  0
  3  4  2  0  0  0  0
  3  5  1  0  0  0  0
  5  6  1  0  0  0  0
  5 27  1  0  0  0  0
  5 28  1  0  0  0  0
  6 22  1  0  0  0  0
  6  7  1  0  0  0  0
  6 45  1  0  0  0  0
  7  8  1  0  0  0  0
  7 29  1  0  0  0  0
  7 30  1  0  0  0  0
  8  9  1  0  0  0  0
  8 31  1  0  0  0  0
  8 32  1  0  0  0  0
  9 10  1  0  0  0  0
  9 21  1  0  0  0  0
  9 33  1  0  0  0  0
 10 11  1  0  0  0  0
 10 34  1  0  0  0  0
 11 12  2  0  0  0  0
 11 13  1  0  0  0  0
 13 14  1  0  0  0  0
 13 35  1  0  0  0  0
 13 36  1  0  0  0  0
 14 19  1  0  0  0  0
 14 15  1  0  0  0  0
 15 16  2  0  0  0  0
 15 37  1  0  0  0  0
 16 17  1  0  0  0  0
 16 38  1  0  0  0  0
 17 18  2  0  0  0  0
 17 39  1  0  0  0  0
 18 19  1  0  0  0  0
 18 40  1  0  0  0  0
 19 20  2  0  0  0  0
 21 22  1  0  0  0  0
 21 41  1  0  0  0  0
 21 42  1  0  0  0  0
 22 43  1  0  0  0  0
 22 44  1  0  0  0  0
M  CHG  1   6   1
M  END
> <s_m_source_file>
AV-unprocessed.smi

> <i_m_source_file_index>
1202

> <i_lp_mmshare_version>
43012

> <i_f3d_flags>
0

> <s_epik_input>
W0NIM11bTkhdQyg9TylbQ0gyXU4xW0NIMl1bQ0gyXVtDSF0oW0NIMl1bQ0gyXTEpW05IXUMoPU8pW0NIMl1uMltjSF1bY0hdW2NIXVtjSF1jMj1P

> <s_epik_cmdline>
J2VwaWtfcHl0aG9uJywgJy1waCcsICc3LjAnLCAnLXRuJywgJzgnLCAnLW1hJywgJzIwMCcsICctbWV0YWxfYmluZGluZycsICctaW1hZScsICc8aW5maWxlLm1hZT4nLCAnLW9tYWUnLCAnPG91dGZpbGUubWFlPic=

> <r_lp_tautomer_probability>
1

> <r_epik_Ionization_Penalty>
0.983979

> <r_epik_Ionization_Penalty_Charging>
0.983957

> <r_epik_Ionization_Penalty_Neutral>
2.18432e-05

> <r_epik_State_Penalty>
1.03106

> <r_epik_Charging_Adjusted_Penalty>
2.01502

> <i_epik_Tot_Q>
1

> <i_epik_Tot_abs_Q>
1

> <r_epik_Metal_State_Penalty>
1.03477

> <b_epik_Metal_Only>
0

> <s_lp_Force_Field>
OPLS_2005

> <r_lp_Energy>
22.8296

> <b_lp_Chiralities_Consistent>
1

> <s_lp_Variant>
AV-unprocessed.smi:1202-2

> <Gold.Version>
5.8.1

> <Gold.Id.Protein>
6NUR|6NUR_protein|mol2

> <Gold.PLP.Fitness>
53.6819

> <Gold.PLP.PLP>
-36.6302

> <Gold.PLP.part.hbond>
-4.0000

> <Gold.PLP.part.metal>
0.0000

> <Gold.PLP.part.buried>
3.1084

> <Gold.PLP.part.nonpolar>
-37.5077

> <Gold.PLP.part.repulsive>
0.3796

> <Gold.PLP.ligand.clash>
0.0000

> <Gold.PLP.ligand.torsion>
0.4948

> <Gold.PLP.Chemscore.Hbond>
4.9920

> <Gold.PLP.Chemscore.CHOScore>
1.0000

> <Gold.PLP.Chemscore.Metal>
0.0000

> <Gold.Chemscore.Hbonds>
donor molecule, donor type, donor heavy atom, donor atom, acceptor molecule, acceptor atom, score
      L1  H     2    26       P1  7948  0.94
      L1  H     6    45       P1  7948  2.00
      L1  H    10    34       P1  7957  0.87
      P1  H  7989  7998       L1    20  1.00
      L1  C    15    37       P1  8028  0.93

> <Gold.PLP.Chemscore.Internal.Correction>
0.0653

> <Gold.Rescore>
     Score         DG    S(hbond)    S(metal)    S(lipo)     H(rot)  DE(clash)    DE(int)     intcor
     17.80     -21.59       3.82        0.00      77.48       2.23       3.00       0.79       ----

> <Gold.Chemscore.Fitness>
17.8028

> <Gold.Chemscore.DG>
-21.5898

> <Gold.Chemscore.ZeroCoef>
-5.4800

> <Gold.Chemscore.Hbond>
3.8219

> <Gold.Chemscore.Metal>
0.0000

> <Gold.Chemscore.Lipo>
77.4799

> <Gold.Chemscore.Internal_Hbond>
0.0000

> <Gold.Chemscore.DEClash>
2.9965

> <Gold.Chemscore.DEInternal>
0.7906

> <Gold.Chemscore.Rot>
2.2346

> <Gold.Chemscore.Internal.Correction>
   9.000000E+99

> <Gold.Chemscore.Hbonds>
donor molecule, donor type, donor heavy atom, donor atom, acceptor molecule, acceptor atom, score
      L1  H     2    26       P1  7948  0.86
      L1  H     6    45       P1  7948  0.97
      L1  H    10    34       P1  7957  0.80
      P1  H  7989  7998       L1    20  0.55

> <Gold.Chemscore.Hbond.Weighted>
-12.7652

> <Gold.Chemscore.Metal.Weighted>
-0.0000

> <Gold.Chemscore.Lipo.Weighted>
-9.0651

> <Gold.Chemscore.Internal_Hbond.Weighted>
0.0000

> <Gold.Chemscore.DEClash.Weighted>
2.9965

> <Gold.Chemscore.DEInternal.Weighted>
0.7906

> <Gold.Chemscore.Rot.Weighted>
5.7205

> <Gold.Chemscore.Internal.Correction.Weighted>
   9.000000E+99

> <Gold.Protein.RotatedTorsions>
[ 6907 6896 6895 6894 ] final  -80.04 input  -60.11 | X-H torsion
[ 7974 7965 7964 7962 ] final  -46.32 input  175.53 | X-H torsion
[ 8008 7997 7996 7995 ] final  -11.93 input   59.86 | X-H torsion
[ 10167 10162 10161 10158 ] final   -2.32 input  -65.29 | X-H torsion
[ 10718 10713 10712 10709 ] final -131.70 input   66.30 | X-H torsion
[ 10763 10752 10751 10750 ] final  -40.84 input  -60.55 | X-H torsion
[ 11005 11000 10999 10996 ] final  123.12 input  -57.11 | X-H torsion

> <Gold.Protein.ActiveResidues>
 VAL166  LYS551  ARG553  GLY616  TRP617  ASP618  TYR619  PRO620  LYS621  CYS622 
 ASP623  PHE694  ASN695  SER759  ASP760  ASP761  ALA762  ILE779  LEU786  VAL792 
 PHE793  MET794  SER795  GLU796  ALA797  LYS798  CYS799  TRP800  GLU811  SER814 

> <Gold.Protein.RotatedAtoms>
  150.6937  134.4030  159.5127 H   0  0  0  0  0  0  0  0  0  0  0  0  # atno 6907 bound_to 6896
  152.1801  134.8759  160.0536 H   0  0  0  0  0  0  0  0  0  0  0  0  # atno 6908 bound_to 6896
  151.9753  133.3704  159.4123 H   0  0  0  0  0  0  0  0  0  0  0  0  # atno 6909 bound_to 6896
  145.9731  140.7363  142.9401 H   0  0  0  0  0  0  0  0  0  0  0  0  # atno 7974 bound_to 7965
  154.5421  140.2289  155.8623 H   0  0  0  0  0  0  0  0  0  0  0  0  # atno 8008 bound_to 7997
  156.1869  140.3087  155.9217 H   0  0  0  0  0  0  0  0  0  0  0  0  # atno 8009 bound_to 7997
  155.3236  140.0441  157.3031 H   0  0  0  0  0  0  0  0  0  0  0  0  # atno 8010 bound_to 7997
  140.6846  143.6671  150.8216 H   0  0  0  0  0  0  0  0  0  0  0  0  # atno 10167 bound_to 10162
  156.2271  130.7014  151.0819 H   0  0  0  0  0  0  0  0  0  0  0  0  # atno 10718 bound_to 10713
  153.9526  135.6749  153.4744 H   0  0  0  0  0  0  0  0  0  0  0  0  # atno 10763 bound_to 10752
  153.0877  135.4890  154.8626 H   0  0  0  0  0  0  0  0  0  0  0  0  # atno 10764 bound_to 10752
  154.7317  135.3140  154.8839 H   0  0  0  0  0  0  0  0  0  0  0  0  # atno 10765 bound_to 10752
  139.9298  134.9641  156.8211 H   0  0  0  0  0  0  0  0  0  0  0  0  # atno 11005 bound_to 11000
  144.6842  140.2781  143.7296 LP  0  0  0  0  0  0  0  0  0  0  0  0  # atno 17320 bound_to 7965
  145.7878  139.1915  143.2120 LP  0  0  0  0  0  0  0  0  0  0  0  0  # atno 17321 bound_to 7965
  140.0376  143.5379  152.2732 LP  0  0  0  0  0  0  0  0  0  0  0  0  # atno 17342 bound_to 10162
  139.6194  144.7626  151.2773 LP  0  0  0  0  0  0  0  0  0  0  0  0  # atno 17343 bound_to 10162
  157.7115  131.0731  150.6482 LP  0  0  0  0  0  0  0  0  0  0  0  0  # atno 17370 bound_to 10713
  156.6547  130.4495  149.5707 LP  0  0  0  0  0  0  0  0  0  0  0  0  # atno 17371 bound_to 10713
  140.6233  133.9973  155.7628 LP  0  0  0  0  0  0  0  0  0  0  0  0  # atno 17394 bound_to 11000
  141.0880  133.9961  157.3283 LP  0  0  0  0  0  0  0  0  0  0  0  0  # atno 17395 bound_to 11000

$$$$
