AV-unprocessed.smi:1236|AV-procd|sdf|5180|dock2
  -GOLD-   22720 4263D 1   1.00000     0.00000
 Structure written by MMmdl.
 39 40  0  0  0  0  0  0  0  0  1 V2000
  150.0466  132.8351  155.0847 C   0  0  0  0  0  0  0  0  0  0  0  0
  149.4492  134.2451  154.9872 C   0  0  1  0  0  0  0  0  0  0  0  0
  150.5544  135.3230  155.0064 C   0  0  0  0  0  0  0  0  0  0  0  0
  150.0986  136.7022  154.8260 N   0  0  0  0  0  0  0  0  0  0  0  0
  149.4350  137.2391  156.0122 C   0  0  0  0  0  0  0  0  0  0  0  0
  148.9738  138.6910  155.7998 C   0  0  0  0  0  0  0  0  0  0  0  0
  150.0879  139.4982  155.4325 O   0  0  0  0  0  0  0  0  0  0  0  0
  150.7398  139.0319  154.2556 C   0  0  0  0  0  0  0  0  0  0  0  0
  151.2054  137.5808  154.4651 C   0  0  0  0  0  0  0  0  0  0  0  0
  148.6648  134.3478  153.7572 N   0  0  0  0  0  0  0  0  0  0  0  0
  147.6359  133.5585  153.4131 C   0  0  0  0  0  0  0  0  0  0  0  0
  147.2426  132.6124  154.0962 O   0  0  0  0  0  0  0  0  0  0  0  0
  147.1011  133.9444  152.2412 N   0  0  0  0  0  0  0  0  0  0  0  0
  145.9982  133.3761  151.5496 C   0  0  0  0  0  0  0  0  0  0  0  0
  145.8197  131.9881  151.7462 C   0  0  0  0  0  0  0  0  0  0  0  0
  144.7543  131.3283  151.1034 C   0  0  0  0  0  0  0  0  0  0  0  0
  143.8927  132.0750  150.2801 C   0  0  0  0  0  0  0  0  0  0  0  0
  144.1399  133.4528  150.1388 C   0  0  0  0  0  0  0  0  0  0  0  0
  145.1607  134.0868  150.7535 N   0  0  0  0  0  0  0  0  0  0  0  0
  150.6248  132.7178  156.0014 H   0  0  0  0  0  0  0  0  0  0  0  0
  150.7089  132.6235  154.2444 H   0  0  0  0  0  0  0  0  0  0  0  0
  149.2632  132.0764  155.0912 H   0  0  0  0  0  0  0  0  0  0  0  0
  148.8066  134.3716  155.8591 H   0  0  0  0  0  0  0  0  0  0  0  0
  151.1166  135.2467  155.9385 H   0  0  0  0  0  0  0  0  0  0  0  0
  151.2642  135.0827  154.2137 H   0  0  0  0  0  0  0  0  0  0  0  0
  148.5669  136.6349  156.2706 H   0  0  0  0  0  0  0  0  0  0  0  0
  150.1116  137.1960  156.8669 H   0  0  0  0  0  0  0  0  0  0  0  0
  148.2070  138.7417  155.0254 H   0  0  0  0  0  0  0  0  0  0  0  0
  148.5319  139.0868  156.7142 H   0  0  0  0  0  0  0  0  0  0  0  0
  150.0611  139.1001  153.4041 H   0  0  0  0  0  0  0  0  0  0  0  0
  151.5914  139.6770  154.0398 H   0  0  0  0  0  0  0  0  0  0  0  0
  151.9680  137.5558  155.2450 H   0  0  0  0  0  0  0  0  0  0  0  0
  151.6814  137.2215  153.5518 H   0  0  0  0  0  0  0  0  0  0  0  0
  148.9110  135.0995  153.1305 H   0  0  0  0  0  0  0  0  0  0  0  0
  147.5274  134.7431  151.7956 H   0  0  0  0  0  0  0  0  0  0  0  0
  146.4911  131.4297  152.3825 H   0  0  0  0  0  0  0  0  0  0  0  0
  144.6016  130.2682  151.2402 H   0  0  0  0  0  0  0  0  0  0  0  0
  143.0643  131.6050  149.7710 H   0  0  0  0  0  0  0  0  0  0  0  0
  143.5017  134.0626  149.5166 H   0  0  0  0  0  0  0  0  0  0  0  0
  1  2  1  0  0  0  0
  1 20  1  0  0  0  0
  1 21  1  0  0  0  0
  1 22  1  0  0  0  0
  2  3  1  0  0  0  0
  2 10  1  0  0  0  0
  2 23  1  0  0  0  0
  3  4  1  0  0  0  0
  3 24  1  0  0  0  0
  3 25  1  0  0  0  0
  4  9  1  0  0  0  0
  4  5  1  0  0  0  0
  5  6  1  0  0  0  0
  5 26  1  0  0  0  0
  5 27  1  0  0  0  0
  6  7  1  0  0  0  0
  6 28  1  0  0  0  0
  6 29  1  0  0  0  0
  7  8  1  0  0  0  0
  8  9  1  0  0  0  0
  8 30  1  0  0  0  0
  8 31  1  0  0  0  0
  9 32  1  0  0  0  0
  9 33  1  0  0  0  0
 10 11  1  0  0  0  0
 10 34  1  0  0  0  0
 11 12  2  0  0  0  0
 11 13  1  0  0  0  0
 13 14  1  0  0  0  0
 13 35  1  0  0  0  0
 14 19  1  0  0  0  0
 14 15  2  0  0  0  0
 15 16  1  0  0  0  0
 15 36  1  0  0  0  0
 16 17  2  0  0  0  0
 16 37  1  0  0  0  0
 17 18  1  0  0  0  0
 17 38  1  0  0  0  0
 18 19  2  0  0  0  0
 18 39  1  0  0  0  0
M  END
> <s_m_source_file>
AV-unprocessed.smi

> <i_m_source_file_index>
1236

> <i_lp_mmshare_version>
43012

> <i_f3d_flags>
0

> <s_epik_input>
W0NIMl0xW0NIMl1PW0NIMl1bQ0gyXU4xW0NIMl1bQ0BASF0oW0NIM10pW05IXUMoPU8pW05IXWMyW2NIXVtjSF1bY0hdW2NIXW4y

> <s_epik_cmdline>
J2VwaWtfcHl0aG9uJywgJy1waCcsICc3LjAnLCAnLXRuJywgJzgnLCAnLW1hJywgJzIwMCcsICctbWV0YWxfYmluZGluZycsICctaW1hZScsICc8aW5maWxlLm1hZT4nLCAnLW9tYWUnLCAnPG91dGZpbGUubWFlPic=

> <r_epik_Ionization_Penalty>
0.26604

> <r_epik_Ionization_Penalty_Charging>
0

> <r_epik_Ionization_Penalty_Neutral>
0.26604

> <r_epik_State_Penalty>
0.257924

> <r_epik_Charging_Adjusted_Penalty>
0.257924

> <i_epik_Tot_Q>
0

> <i_epik_Tot_abs_Q>
0

> <r_epik_Metal_State_Penalty>
0.257923

> <b_epik_Metal_Only>
0

> <s_lp_Force_Field>
OPLS_2005

> <r_lp_Energy>
27.6221

> <b_lp_Chiralities_Consistent>
1

> <s_lp_Variant>
AV-unprocessed.smi:1236-2

> <Gold.Version>
5.8.1

> <Gold.Id.Protein>
6NUR|6NUR_protein|mol2

> <Gold.PLP.Fitness>
39.5290

> <Gold.PLP.PLP>
-31.1502

> <Gold.PLP.part.hbond>
-2.0000

> <Gold.PLP.part.metal>
0.0000

> <Gold.PLP.part.buried>
-4.8829

> <Gold.PLP.part.nonpolar>
-24.2705

> <Gold.PLP.part.repulsive>
0.4256

> <Gold.PLP.ligand.clash>
0.0000

> <Gold.PLP.ligand.torsion>
0.3264

> <Gold.PLP.Chemscore.Hbond>
2.0000

> <Gold.PLP.Chemscore.CHOScore>
1.0000

> <Gold.PLP.Chemscore.Metal>
0.0000

> <Gold.Chemscore.Hbonds>
donor molecule, donor type, donor heavy atom, donor atom, acceptor molecule, acceptor atom, score
      L1  H    10    34       P1  7948  1.00
      L1  H    13    35       P1  7948  0.98
      L1  C    18    39       P1 10186  1.00

> <Gold.PLP.Chemscore.Internal.Correction>
0.0317

> <Gold.Rescore>
     Score         DG    S(hbond)    S(metal)    S(lipo)     H(rot)  DE(clash)    DE(int)     intcor
     11.88     -15.15       1.63        0.00      69.16       1.51       0.08       3.18       ----

> <Gold.Chemscore.Fitness>
11.8827

> <Gold.Chemscore.DG>
-15.1468

> <Gold.Chemscore.ZeroCoef>
-5.4800

> <Gold.Chemscore.Hbond>
1.6292

> <Gold.Chemscore.Metal>
0.0000

> <Gold.Chemscore.Lipo>
69.1601

> <Gold.Chemscore.Internal_Hbond>
0.0000

> <Gold.Chemscore.DEClash>
0.0796

> <Gold.Chemscore.DEInternal>
3.1845

> <Gold.Chemscore.Rot>
1.5104

> <Gold.Chemscore.Internal.Correction>
   9.000000E+99

> <Gold.Chemscore.Hbonds>
donor molecule, donor type, donor heavy atom, donor atom, acceptor molecule, acceptor atom, score
      L1  H    10    34       P1  7948  0.30
      L1  H    13    35       P1  7948  0.54

> <Gold.Chemscore.Hbond.Weighted>
-5.4416

> <Gold.Chemscore.Metal.Weighted>
-0.0000

> <Gold.Chemscore.Lipo.Weighted>
-8.0917

> <Gold.Chemscore.Internal_Hbond.Weighted>
0.0000

> <Gold.Chemscore.DEClash.Weighted>
0.0796

> <Gold.Chemscore.DEInternal.Weighted>
3.1845

> <Gold.Chemscore.Rot.Weighted>
3.8665

> <Gold.Chemscore.Internal.Correction.Weighted>
   9.000000E+99

> <Gold.Protein.RotatedTorsions>
[ 6907 6896 6895 6894 ] final  163.85 input  -60.11 | X-H torsion
[ 7974 7965 7964 7962 ] final  -71.89 input  175.53 | X-H torsion
[ 8008 7997 7996 7995 ] final   87.95 input   59.86 | X-H torsion
[ 10167 10162 10161 10158 ] final   75.74 input  -65.29 | X-H torsion
[ 10718 10713 10712 10709 ] final -161.77 input   66.30 | X-H torsion
[ 10763 10752 10751 10750 ] final -166.84 input  -60.55 | X-H torsion
[ 11005 11000 10999 10996 ] final    4.01 input  -57.11 | X-H torsion

> <Gold.Protein.ActiveResidues>
 VAL166  LYS551  ARG553  GLY616  TRP617  ASP618  TYR619  PRO620  LYS621  CYS622 
 ASP623  PHE694  ASN695  SER759  ASP760  ASP761  ALA762  ILE779  LEU786  VAL792 
 PHE793  MET794  SER795  GLU796  ALA797  LYS798  CYS799  TRP800  GLU811  SER814 

> <Gold.Protein.RotatedAtoms>
  151.9189  133.3580  159.3889 H   0  0  0  0  0  0  0  0  0  0  0  0  # atno 6907 bound_to 6896
  150.7041  134.4655  159.5410 H   0  0  0  0  0  0  0  0  0  0  0  0  # atno 6908 bound_to 6896
  152.2275  134.8354  160.0529 H   0  0  0  0  0  0  0  0  0  0  0  0  # atno 6909 bound_to 6896
  145.6722  140.9217  143.0877 H   0  0  0  0  0  0  0  0  0  0  0  0  # atno 7974 bound_to 7965
  155.9817  140.3377  155.6669 H   0  0  0  0  0  0  0  0  0  0  0  0  # atno 8008 bound_to 7997
  155.6540  140.0708  157.2595 H   0  0  0  0  0  0  0  0  0  0  0  0  # atno 8009 bound_to 7997
  154.4193  140.1720  156.1692 H   0  0  0  0  0  0  0  0  0  0  0  0  # atno 8010 bound_to 7997
  139.9997  144.5695  150.7747 H   0  0  0  0  0  0  0  0  0  0  0  0  # atno 10167 bound_to 10162
  156.6009  130.8810  151.2913 H   0  0  0  0  0  0  0  0  0  0  0  0  # atno 10718 bound_to 10713
  154.6793  135.2952  154.9636 H   0  0  0  0  0  0  0  0  0  0  0  0  # atno 10763 bound_to 10752
  154.0636  135.6628  153.4819 H   0  0  0  0  0  0  0  0  0  0  0  0  # atno 10764 bound_to 10752
  153.0536  135.5158  154.7827 H   0  0  0  0  0  0  0  0  0  0  0  0  # atno 10765 bound_to 10752
  140.5867  133.9962  155.8071 H   0  0  0  0  0  0  0  0  0  0  0  0  # atno 11005 bound_to 11000
  144.7053  139.8587  143.7432 LP  0  0  0  0  0  0  0  0  0  0  0  0  # atno 17320 bound_to 7965
  146.1036  139.4033  143.0331 LP  0  0  0  0  0  0  0  0  0  0  0  0  # atno 17321 bound_to 7965
  140.7423  143.2830  151.3543 LP  0  0  0  0  0  0  0  0  0  0  0  0  # atno 17342 bound_to 10162
  139.6280  144.0776  152.2451 LP  0  0  0  0  0  0  0  0  0  0  0  0  # atno 17343 bound_to 10162
  157.7280  130.9650  150.1722 LP  0  0  0  0  0  0  0  0  0  0  0  0  # atno 17370 bound_to 10713
  156.2470  130.3696  149.8274 LP  0  0  0  0  0  0  0  0  0  0  0  0  # atno 17371 bound_to 10713
  141.0962  133.9840  157.3157 LP  0  0  0  0  0  0  0  0  0  0  0  0  # atno 17394 bound_to 11000
  139.9293  135.0200  156.8343 LP  0  0  0  0  0  0  0  0  0  0  0  0  # atno 17395 bound_to 11000

$$$$
