AV-unprocessed.smi:82|AV-procd|sdf|797|dock2
  -GOLD-   2262017173D 1   1.00000     0.00000
 Structure written by MMmdl.
 59 62  0  0  0  0  0  0  0  0  2 V2000
  152.5257  138.9912  155.1490 C   0  0  0  0  0  0  0  0  0  0  0  0
  151.7550  140.1775  155.0658 O   0  0  0  0  0  0  0  0  0  0  0  0
  151.4053  140.6902  156.3408 C   0  0  0  0  0  0  0  0  0  0  0  0
  150.6218  141.9994  156.1515 C   0  0  0  0  0  0  0  0  0  0  0  0
  149.2194  141.7691  155.6994 N   0  3  1  0  0  0  0  0  0  0  0  0
  149.1810  141.0148  154.4136 C   0  0  0  0  0  0  0  0  0  0  0  0
  147.7484  140.8227  153.8907 C   0  0  0  0  0  0  0  0  0  0  0  0
  146.8799  140.2506  154.9070 N   0  0  0  0  0  0  0  0  0  0  0  0
  146.8162  138.9017  154.9504 C   0  0  0  0  0  0  0  0  0  0  0  0
  147.1431  138.2397  156.0899 N   0  0  0  0  0  0  0  0  0  0  0  0
  147.0798  136.9053  156.1261 C   0  0  0  0  0  0  0  0  0  0  0  0
  146.7211  136.0609  155.1566 N   0  0  0  0  0  0  0  0  0  0  0  0
  146.3902  136.7249  154.0109 C   0  0  0  0  0  0  0  0  0  0  0  0
  146.4108  138.1357  153.8270 C   0  0  0  0  0  0  0  0  0  0  0  0
  146.0132  138.4572  152.5367 N   0  0  0  0  0  0  0  0  0  0  0  0
  145.7701  137.2993  151.9851 C   0  0  0  0  0  0  0  0  0  0  0  0
  145.9701  136.2039  152.7970 N   0  0  0  0  0  0  0  0  0  0  0  0
  145.7779  134.8277  152.4327 C   0  0  0  0  0  0  0  0  0  0  0  0
  146.1659  134.3049  151.0482 C   0  0  0  0  0  0  0  0  0  0  0  0
  144.9939  133.2977  151.1091 C   0  0  0  0  0  0  0  0  0  0  0  0
  144.2190  133.1474  149.7881 C   0  0  0  0  0  0  0  0  0  0  0  0
  142.9943  132.4660  149.9655 O   0  0  0  0  0  0  0  0  0  0  0  0
  145.4018  131.9010  151.6234 C   0  0  0  0  0  0  0  0  0  0  0  0
  146.2266  131.2106  150.7073 O   0  0  0  0  0  0  0  0  0  0  0  0
  144.3845  134.2652  152.1511 C   0  0  0  0  0  0  0  0  0  0  0  0
  146.8983  140.9360  156.1908 C   0  0  0  0  0  0  0  0  0  0  0  0
  148.3282  141.1599  156.7399 C   0  0  2  0  0  0  0  0  0  0  0  0
  148.2178  142.0153  158.0188 C   0  0  0  0  0  0  0  0  0  0  0  0
  152.7725  138.6438  154.1456 H   0  0  0  0  0  0  0  0  0  0  0  0
  151.9743  138.1966  155.6537 H   0  0  0  0  0  0  0  0  0  0  0  0
  153.4601  139.1644  155.6846 H   0  0  0  0  0  0  0  0  0  0  0  0
  150.8398  139.9545  156.9121 H   0  0  0  0  0  0  0  0  0  0  0  0
  152.3142  140.8959  156.9081 H   0  0  0  0  0  0  0  0  0  0  0  0
  150.6170  142.5758  157.0776 H   0  0  0  0  0  0  0  0  0  0  0  0
  151.1848  142.5932  155.4364 H   0  0  0  0  0  0  0  0  0  0  0  0
  149.7533  141.5323  153.6459 H   0  0  0  0  0  0  0  0  0  0  0  0
  149.6605  140.0452  154.5516 H   0  0  0  0  0  0  0  0  0  0  0  0
  147.3323  141.7851  153.5908 H   0  0  0  0  0  0  0  0  0  0  0  0
  147.7516  140.1948  152.9985 H   0  0  0  0  0  0  0  0  0  0  0  0
  147.3559  136.4483  157.0649 H   0  0  0  0  0  0  0  0  0  0  0  0
  145.4359  137.2144  150.9610 H   0  0  0  0  0  0  0  0  0  0  0  0
  146.2669  134.2315  153.2055 H   0  0  0  0  0  0  0  0  0  0  0  0
  146.0487  135.0536  150.2636 H   0  0  0  0  0  0  0  0  0  0  0  0
  147.1572  133.8530  151.0018 H   0  0  0  0  0  0  0  0  0  0  0  0
  143.9863  134.1245  149.3636 H   0  0  0  0  0  0  0  0  0  0  0  0
  144.8115  132.6221  149.0383 H   0  0  0  0  0  0  0  0  0  0  0  0
  142.2929  133.0237  149.6657 H   0  0  0  0  0  0  0  0  0  0  0  0
  145.9235  131.9715  152.5784 H   0  0  0  0  0  0  0  0  0  0  0  0
  144.5254  131.2787  151.8052 H   0  0  0  0  0  0  0  0  0  0  0  0
  147.1296  131.3784  150.9287 H   0  0  0  0  0  0  0  0  0  0  0  0
  143.9137  133.7840  153.0087 H   0  0  0  0  0  0  0  0  0  0  0  0
  143.7112  134.9973  151.7023 H   0  0  0  0  0  0  0  0  0  0  0  0
  146.4006  141.8971  156.0564 H   0  0  0  0  0  0  0  0  0  0  0  0
  146.2979  140.3803  156.9132 H   0  0  0  0  0  0  0  0  0  0  0  0
  148.7504  140.1927  157.0153 H   0  0  0  0  0  0  0  0  0  0  0  0
  147.4265  141.6387  158.6680 H   0  0  0  0  0  0  0  0  0  0  0  0
  147.9808  143.0535  157.7838 H   0  0  0  0  0  0  0  0  0  0  0  0
  149.1268  141.9991  158.6179 H   0  0  0  0  0  0  0  0  0  0  0  0
  148.8309  142.6822  155.5106 H   0  0  0  0  0  0  0  0  0  0  0  0
  1  2  1  0  0  0  0
  1 29  1  0  0  0  0
  1 30  1  0  0  0  0
  1 31  1  0  0  0  0
  2  3  1  0  0  0  0
  3  4  1  0  0  0  0
  3 32  1  0  0  0  0
  3 33  1  0  0  0  0
  4  5  1  0  0  0  0
  4 34  1  0  0  0  0
  4 35  1  0  0  0  0
  5 27  1  0  0  0  0
  5  6  1  0  0  0  0
  5 59  1  0  0  0  0
  6  7  1  0  0  0  0
  6 36  1  0  0  0  0
  6 37  1  0  0  0  0
  7  8  1  0  0  0  0
  7 38  1  0  0  0  0
  7 39  1  0  0  0  0
  8  9  1  0  0  0  0
  8 26  1  0  0  0  0
  9 14  1  0  0  0  0
  9 10  2  0  0  0  0
 10 11  1  0  0  0  0
 11 12  2  0  0  0  0
 11 40  1  0  0  0  0
 12 13  1  0  0  0  0
 13 17  1  0  0  0  0
 13 14  2  0  0  0  0
 14 15  1  0  0  0  0
 15 16  2  0  0  0  0
 16 17  1  0  0  0  0
 16 41  1  0  0  0  0
 17 18  1  0  0  0  0
 18 25  1  0  0  0  0
 18 19  1  0  0  0  0
 18 42  1  0  0  0  0
 19 20  1  0  0  0  0
 19 43  1  0  0  0  0
 19 44  1  0  0  0  0
 20 21  1  0  0  0  0
 20 23  1  0  0  0  0
 20 25  1  0  0  0  0
 21 22  1  0  0  0  0
 21 45  1  0  0  0  0
 21 46  1  0  0  0  0
 22 47  1  0  0  0  0
 23 24  1  0  0  0  0
 23 48  1  0  0  0  0
 23 49  1  0  0  0  0
 24 50  1  0  0  0  0
 25 51  1  0  0  0  0
 25 52  1  0  0  0  0
 26 27  1  0  0  0  0
 26 53  1  0  0  0  0
 26 54  1  0  0  0  0
 27 28  1  0  0  0  0
 27 55  1  0  0  0  0
 28 56  1  0  0  0  0
 28 57  1  0  0  0  0
 28 58  1  0  0  0  0
M  CHG  1   5   1
M  END
> <s_m_source_file>
AV-unprocessed.smi

> <i_m_source_file_index>
82

> <i_lp_mmshare_version>
43012

> <i_f3d_flags>
0

> <s_epik_input>
W0NIM11PW0NIMl1bQ0gyXU4xW0NIMl1bQ0gyXU4oW0NIMl1bQ0BIXTFbQ0gzXSljKG5bY0hdbjIpYyhjMjMpbltjSF1uM1tDSF0oW0NIMl00KVtDSDJdQzQoW0NIMl1bT0hdKVtDSDJdW09IXQ==

> <s_epik_cmdline>
J2VwaWtfcHl0aG9uJywgJy1waCcsICc3LjAnLCAnLXRuJywgJzgnLCAnLW1hJywgJzIwMCcsICctbWV0YWxfYmluZGluZycsICctaW1hZScsICc8aW5maWxlLm1hZT4nLCAnLW9tYWUnLCAnPG91dGZpbGUubWFlPic=

> <r_lp_tautomer_probability>
1

> <r_epik_Ionization_Penalty>
0.304275

> <r_epik_Ionization_Penalty_Charging>
0.304214

> <r_epik_Ionization_Penalty_Neutral>
6.13137e-05

> <r_epik_State_Penalty>
0.300354

> <r_epik_Charging_Adjusted_Penalty>
0.604567

> <i_epik_Tot_Q>
1

> <i_epik_Tot_abs_Q>
1

> <r_epik_Metal_State_Penalty>
0.301147

> <b_epik_Metal_Only>
0

> <s_lp_Force_Field>
OPLS_2005

> <r_lp_Energy>
60.5055

> <b_lp_Chiralities_Consistent>
1

> <s_lp_Variant>
AV-unprocessed.smi:82-4

> <Gold.Version>
5.8.1

> <Gold.Id.Protein>
6NUR|6NUR_protein|mol2

> <Gold.PLP.Fitness>
56.2398

> <Gold.PLP.PLP>
-39.9469

> <Gold.PLP.part.hbond>
-4.9680

> <Gold.PLP.part.metal>
0.0000

> <Gold.PLP.part.buried>
-6.6896

> <Gold.PLP.part.nonpolar>
-29.3802

> <Gold.PLP.part.repulsive>
0.9536

> <Gold.PLP.ligand.clash>
0.0000

> <Gold.PLP.ligand.torsion>
0.8444

> <Gold.PLP.Chemscore.Hbond>
4.6785

> <Gold.PLP.Chemscore.CHOScore>
0.9776

> <Gold.PLP.Chemscore.Metal>
0.0000

> <Gold.Chemscore.Hbonds>
donor molecule, donor type, donor heavy atom, donor atom, acceptor molecule, acceptor atom, score
      L1  H     5    59       P1  8028  1.98
      L1  H    22    47       P1 10186  1.00
      L1  H    24    50       P1 10747  0.77
      P1  H  7989  7998       L1     2  0.91
      L1  C    16    41       P1 10171  0.97

> <Gold.PLP.Chemscore.Internal.Correction>
1.0135

> <Gold.Rescore>
     Score         DG    S(hbond)    S(metal)    S(lipo)     H(rot)  DE(clash)    DE(int)     intcor
     14.83     -17.45       3.59        0.00      85.16       3.91       0.34       2.27       ----

> <Gold.Chemscore.Fitness>
14.8311

> <Gold.Chemscore.DG>
-17.4489

> <Gold.Chemscore.ZeroCoef>
-5.4800

> <Gold.Chemscore.Hbond>
3.5936

> <Gold.Chemscore.Metal>
0.0000

> <Gold.Chemscore.Lipo>
85.1641

> <Gold.Chemscore.Internal_Hbond>
0.0000

> <Gold.Chemscore.DEClash>
0.3429

> <Gold.Chemscore.DEInternal>
2.2748

> <Gold.Chemscore.Rot>
3.9055

> <Gold.Chemscore.Internal.Correction>
   9.000000E+99

> <Gold.Chemscore.Hbonds>
donor molecule, donor type, donor heavy atom, donor atom, acceptor molecule, acceptor atom, score
      L1  H     5    59       P1  8028  0.89
      L1  H    22    47       P1 10186  1.00
      L1  H    24    50       P1 10747  0.71
      P1  H  7989  7998       L1     2  0.81

> <Gold.Chemscore.Hbond.Weighted>
-12.0027

> <Gold.Chemscore.Metal.Weighted>
-0.0000

> <Gold.Chemscore.Lipo.Weighted>
-9.9642

> <Gold.Chemscore.Internal_Hbond.Weighted>
0.0000

> <Gold.Chemscore.DEClash.Weighted>
0.3429

> <Gold.Chemscore.DEInternal.Weighted>
2.2748

> <Gold.Chemscore.Rot.Weighted>
9.9980

> <Gold.Chemscore.Internal.Correction.Weighted>
   9.000000E+99

> <Gold.Protein.RotatedTorsions>
[ 6907 6896 6895 6894 ] final  -10.18 input  -60.11 | X-H torsion
[ 7974 7965 7964 7962 ] final  -96.66 input  175.53 | X-H torsion
[ 8008 7997 7996 7995 ] final  -54.39 input   59.86 | X-H torsion
[ 10167 10162 10161 10158 ] final  170.33 input  -65.29 | X-H torsion
[ 10718 10713 10712 10709 ] final -148.43 input   66.30 | X-H torsion
[ 10763 10752 10751 10750 ] final -135.83 input  -60.55 | X-H torsion
[ 11005 11000 10999 10996 ] final -111.24 input  -57.11 | X-H torsion

> <Gold.Protein.ActiveResidues>
 VAL166  LYS551  ARG553  GLY616  TRP617  ASP618  TYR619  PRO620  LYS621  CYS622 
 ASP623  PHE694  ASN695  SER759  ASP760  ASP761  ALA762  ILE779  LEU786  VAL792 
 PHE793  MET794  SER795  GLU796  ALA797  LYS798  CYS799  TRP800  GLU811  SER814 

> <Gold.Protein.RotatedAtoms>
  151.4061  135.0978  159.9570 H   0  0  0  0  0  0  0  0  0  0  0  0  # atno 6907 bound_to 6896
  152.5035  133.8842  159.7372 H   0  0  0  0  0  0  0  0  0  0  0  0  # atno 6908 bound_to 6896
  150.9326  133.6692  159.2836 H   0  0  0  0  0  0  0  0  0  0  0  0  # atno 6909 bound_to 6896
  145.3440  140.9465  143.2592 H   0  0  0  0  0  0  0  0  0  0  0  0  # atno 7974 bound_to 7965
  154.4161  140.1177  156.5308 H   0  0  0  0  0  0  0  0  0  0  0  0  # atno 8008 bound_to 7997
  155.6608  140.3496  155.4763 H   0  0  0  0  0  0  0  0  0  0  0  0  # atno 8009 bound_to 7997
  155.9715  140.1142  157.0798 H   0  0  0  0  0  0  0  0  0  0  0  0  # atno 8010 bound_to 7997
  139.5016  144.3608  151.9827 H   0  0  0  0  0  0  0  0  0  0  0  0  # atno 10167 bound_to 10162
  156.4201  130.8024  151.2247 H   0  0  0  0  0  0  0  0  0  0  0  0  # atno 10718 bound_to 10713
  154.8696  135.3691  154.4961 H   0  0  0  0  0  0  0  0  0  0  0  0  # atno 10763 bound_to 10752
  153.5605  135.7023  153.5554 H   0  0  0  0  0  0  0  0  0  0  0  0  # atno 10764 bound_to 10752
  153.3632  135.4041  155.1697 H   0  0  0  0  0  0  0  0  0  0  0  0  # atno 10765 bound_to 10752
  141.0745  133.9323  157.2417 H   0  0  0  0  0  0  0  0  0  0  0  0  # atno 11005 bound_to 11000
  144.8768  139.4959  143.6741 LP  0  0  0  0  0  0  0  0  0  0  0  0  # atno 17320 bound_to 7965
  146.2996  139.7383  142.9101 LP  0  0  0  0  0  0  0  0  0  0  0  0  # atno 17321 bound_to 7965
  140.3044  144.3610  150.6051 LP  0  0  0  0  0  0  0  0  0  0  0  0  # atno 17342 bound_to 10162
  140.5848  143.2170  151.7362 LP  0  0  0  0  0  0  0  0  0  0  0  0  # atno 17343 bound_to 10162
  157.7508  131.0231  150.3818 LP  0  0  0  0  0  0  0  0  0  0  0  0  # atno 17370 bound_to 10713
  156.4134  130.3938  149.6875 LP  0  0  0  0  0  0  0  0  0  0  0  0  # atno 17371 bound_to 10713
  139.9558  135.0166  156.9123 LP  0  0  0  0  0  0  0  0  0  0  0  0  # atno 17394 bound_to 11000
  140.5602  134.0542  155.7396 LP  0  0  0  0  0  0  0  0  0  0  0  0  # atno 17395 bound_to 11000

$$$$
