AV-unprocessed.smi:118|AV-procd|sdf|1132|dock5
  -GOLD-   2262018263D 1   1.00000     0.00000
 Structure written by MMmdl.
 41 44  0  0  0  0  0  0  0  0  1 V2000
  150.2927  136.5183  159.0229 O   0  0  0  0  0  0  0  0  0  0  0  0
  149.4124  137.3195  158.7060 C   0  0  0  0  0  0  0  0  0  0  0  0
  149.6812  138.3869  157.6332 C   0  0  0  0  0  0  0  0  0  0  0  0
  150.6611  139.4096  158.0605 N   0  0  0  0  0  0  0  0  0  0  0  0
  151.9741  139.0005  158.4015 C   0  0  0  0  0  0  0  0  0  0  0  0
  152.3135  137.8183  158.3329 O   0  0  0  0  0  0  0  0  0  0  0  0
  152.8716  140.0646  158.8370 C   0  0  0  0  0  0  0  0  0  0  0  0
  154.1424  139.7716  159.1618 F   0  0  0  0  0  0  0  0  0  0  0  0
  152.4473  141.3424  158.9196 C   0  0  0  0  0  0  0  0  0  0  0  0
  151.1546  141.7243  158.6064 N   0  0  0  0  0  0  0  0  0  0  0  0
  150.6911  143.1634  158.7084 C   0  0  1  0  0  0  0  0  0  0  0  0
  151.1549  143.7934  160.0374 C   0  0  0  0  0  0  0  0  0  0  0  0
  151.8722  145.0500  159.5852 C   0  0  0  0  0  0  0  0  0  0  0  0
  152.3648  144.6532  158.2020 C   0  0  0  0  0  0  0  0  0  0  0  0
  151.2630  143.9219  157.6812 O   0  0  0  0  0  0  0  0  0  0  0  0
  150.2335  140.7554  158.1522 C   0  0  0  0  0  0  0  0  0  0  0  0
  149.0816  141.0771  157.8514 O   0  0  0  0  0  0  0  0  0  0  0  0
  148.1819  137.3505  159.2482 N   0  0  0  0  0  0  0  0  0  0  0  0
  147.6431  136.5158  160.2662 C   0  0  0  0  0  0  0  0  0  0  0  0
  148.1443  135.2216  160.5615 C   0  0  0  0  0  0  0  0  0  0  0  0
  147.5563  134.4316  161.5746 C   0  0  0  0  0  0  0  0  0  0  0  0
  146.4502  134.9079  162.3072 C   0  0  0  0  0  0  0  0  0  0  0  0
  145.9385  136.1826  162.0058 C   0  0  0  0  0  0  0  0  0  0  0  0
  146.5239  136.9779  160.9937 C   0  0  0  0  0  0  0  0  0  0  0  0
  145.8940  138.2096  160.8235 N   0  0  0  0  0  0  0  0  0  0  0  0
  144.7970  138.1072  161.8833 S   0  0  0  0  0  0  0  0  0  0  0  0
  144.8510  136.7779  162.6362 N   0  0  0  0  0  0  0  0  0  0  0  0
  150.0028  137.8801  156.7222 H   0  0  0  0  0  0  0  0  0  0  0  0
  148.7371  138.8577  157.3534 H   0  0  0  0  0  0  0  0  0  0  0  0
  153.1637  142.0809  159.2453 H   0  0  0  0  0  0  0  0  0  0  0  0
  149.6075  143.1298  158.5824 H   0  0  0  0  0  0  0  0  0  0  0  0
  150.3055  143.9970  160.6902 H   0  0  0  0  0  0  0  0  0  0  0  0
  151.8469  143.1261  160.5541 H   0  0  0  0  0  0  0  0  0  0  0  0
  151.1661  145.8776  159.5068 H   0  0  0  0  0  0  0  0  0  0  0  0
  152.6774  145.3477  160.2571 H   0  0  0  0  0  0  0  0  0  0  0  0
  152.6098  145.5122  157.5773 H   0  0  0  0  0  0  0  0  0  0  0  0
  153.2453  144.0128  158.2710 H   0  0  0  0  0  0  0  0  0  0  0  0
  147.5912  138.1172  158.9605 H   0  0  0  0  0  0  0  0  0  0  0  0
  148.9751  134.8063  160.0124 H   0  0  0  0  0  0  0  0  0  0  0  0
  147.9552  133.4504  161.7861 H   0  0  0  0  0  0  0  0  0  0  0  0
  146.0011  134.3021  163.0804 H   0  0  0  0  0  0  0  0  0  0  0  0
  1  2  2  0  0  0  0
  2  3  1  0  0  0  0
  2 18  1  0  0  0  0
  3  4  1  0  0  0  0
  3 28  1  0  0  0  0
  3 29  1  0  0  0  0
  4 16  1  0  0  0  0
  4  5  1  0  0  0  0
  5  6  2  0  0  0  0
  5  7  1  0  0  0  0
  7  8  1  0  0  0  0
  7  9  2  0  0  0  0
  9 10  1  0  0  0  0
  9 30  1  0  0  0  0
 10 11  1  0  0  0  0
 10 16  1  0  0  0  0
 11 15  1  0  0  0  0
 11 12  1  0  0  0  0
 11 31  1  0  0  0  0
 12 13  1  0  0  0  0
 12 32  1  0  0  0  0
 12 33  1  0  0  0  0
 13 14  1  0  0  0  0
 13 34  1  0  0  0  0
 13 35  1  0  0  0  0
 14 15  1  0  0  0  0
 14 36  1  0  0  0  0
 14 37  1  0  0  0  0
 16 17  2  0  0  0  0
 18 19  1  0  0  0  0
 18 38  1  0  0  0  0
 19 24  1  0  0  0  0
 19 20  2  0  0  0  0
 20 21  1  0  0  0  0
 20 39  1  0  0  0  0
 21 22  2  0  0  0  0
 21 40  1  0  0  0  0
 22 23  1  0  0  0  0
 22 41  1  0  0  0  0
 23 27  1  0  0  0  0
 23 24  2  0  0  0  0
 24 25  1  0  0  0  0
 25 26  2  0  0  0  0
 26 27  2  0  0  0  0
M  END
> <s_m_source_file>
AV-unprocessed.smi

> <i_m_source_file_index>
118

> <i_lp_mmshare_version>
43012

> <i_f3d_flags>
0

> <s_epik_input>
TjE9Uz1OYyhjMTIpYyhbY0hdW2NIXVtjSF0yKVtOSF1DKD1PKVtDSDJdbjNjKD1PKWMoRilbY0hdbihjMz1PKVtDQEBIXTRbQ0gyXVtDSDJdW0NIMl1PNA==

> <s_epik_cmdline>
J2VwaWtfcHl0aG9uJywgJy1waCcsICc3LjAnLCAnLXRuJywgJzgnLCAnLW1hJywgJzIwMCcsICctbWV0YWxfYmluZGluZycsICctaW1hZScsICc8aW5maWxlLm1hZT4nLCAnLW9tYWUnLCAnPG91dGZpbGUubWFlPic=

> <r_lp_tautomer_probability>
1

> <r_epik_Ionization_Penalty>
1.81156e-06

> <r_epik_Ionization_Penalty_Charging>
3.88729e-08

> <r_epik_Ionization_Penalty_Neutral>
1.77269e-06

> <r_epik_State_Penalty>
-0

> <r_epik_Charging_Adjusted_Penalty>
3.88729e-08

> <i_epik_Tot_Q>
0

> <i_epik_Tot_abs_Q>
0

> <r_epik_Metal_State_Penalty>
-0

> <b_epik_Metal_Only>
0

> <s_epik_Chemistry_Notes>
This compound contains an acetal/aminal-like group ( X-CH(R)-Y where X, Y are N, S, or O) that may be acid/base labile, releasing an aldehyde.

> <s_lp_Force_Field>
OPLS_2005

> <r_lp_Energy>
52.0747

> <b_lp_Chiralities_Consistent>
1

> <s_lp_Variant>
AV-unprocessed.smi:118-2

> <Gold.Version>
5.8.1

> <Gold.Id.Protein>
6NUR|6NUR_protein|mol2

> <Gold.PLP.Fitness>
47.7379

> <Gold.PLP.PLP>
-43.4439

> <Gold.PLP.part.hbond>
-1.7163

> <Gold.PLP.part.metal>
0.0000

> <Gold.PLP.part.buried>
-8.0234

> <Gold.PLP.part.nonpolar>
-34.5569

> <Gold.PLP.part.repulsive>
0.3934

> <Gold.PLP.ligand.clash>
0.0031

> <Gold.PLP.ligand.torsion>
0.4904

> <Gold.PLP.Chemscore.Hbond>
1.7552

> <Gold.PLP.Chemscore.CHOScore>
0.0000

> <Gold.PLP.Chemscore.Metal>
0.0000

> <Gold.Chemscore.Hbonds>
donor molecule, donor type, donor heavy atom, donor atom, acceptor molecule, acceptor atom, score
      P1  H  6896  6907       L1     1  1.00
      P1  H  6934  6947       L1    25  0.67

> <Gold.PLP.Chemscore.Internal.Correction>
0.0122

> <Gold.Rescore>
     Score         DG    S(hbond)    S(metal)    S(lipo)     H(rot)  DE(clash)    DE(int)     intcor
     12.43     -17.62       1.70        0.00      94.50       1.80       0.44       4.75       ----

> <Gold.Chemscore.Fitness>
12.4301

> <Gold.Chemscore.DG>
-17.6217

> <Gold.Chemscore.ZeroCoef>
-5.4800

> <Gold.Chemscore.Hbond>
1.7028

> <Gold.Chemscore.Metal>
0.0000

> <Gold.Chemscore.Lipo>
94.5000

> <Gold.Chemscore.Internal_Hbond>
0.0000

> <Gold.Chemscore.DEClash>
0.4375

> <Gold.Chemscore.DEInternal>
4.7542

> <Gold.Chemscore.Rot>
1.7977

> <Gold.Chemscore.Internal.Correction>
   9.000000E+99

> <Gold.Chemscore.Hbonds>
donor molecule, donor type, donor heavy atom, donor atom, acceptor molecule, acceptor atom, score
      P1  H  6896  6907       L1     1  1.00
      P1  H  6934  6947       L1    25  0.11

> <Gold.Chemscore.Hbond.Weighted>
-5.6874

> <Gold.Chemscore.Metal.Weighted>
-0.0000

> <Gold.Chemscore.Lipo.Weighted>
-11.0565

> <Gold.Chemscore.Internal_Hbond.Weighted>
0.0000

> <Gold.Chemscore.DEClash.Weighted>
0.4375

> <Gold.Chemscore.DEInternal.Weighted>
4.7542

> <Gold.Chemscore.Rot.Weighted>
4.6022

> <Gold.Chemscore.Internal.Correction.Weighted>
   9.000000E+99

> <Gold.Protein.RotatedTorsions>
[ 6907 6896 6895 6894 ] final  -45.98 input  -60.11 | X-H torsion
[ 7974 7965 7964 7962 ] final -118.01 input  175.53 | X-H torsion
[ 8008 7997 7996 7995 ] final   37.83 input   59.86 | X-H torsion
[ 10167 10162 10161 10158 ] final    2.59 input  -65.29 | X-H torsion
[ 10718 10713 10712 10709 ] final  -10.72 input   66.30 | X-H torsion
[ 10763 10752 10751 10750 ] final   37.14 input  -60.55 | X-H torsion
[ 11005 11000 10999 10996 ] final   21.11 input  -57.11 | X-H torsion

> <Gold.Protein.ActiveResidues>
 VAL166  LYS551  ARG553  GLY616  TRP617  ASP618  TYR619  PRO620  LYS621  CYS622 
 ASP623  PHE694  ASN695  SER759  ASP760  ASP761  ALA762  ILE779  LEU786  VAL792 
 PHE793  MET794  SER795  GLU796  ALA797  LYS798  CYS799  TRP800  GLU811  SER814 

> <Gold.Protein.RotatedAtoms>
  150.9161  134.8578  159.7457 H   0  0  0  0  0  0  0  0  0  0  0  0  # atno 6907 bound_to 6896
  152.4969  134.4287  159.9515 H   0  0  0  0  0  0  0  0  0  0  0  0  # atno 6908 bound_to 6896
  151.4325  133.3626  159.2806 H   0  0  0  0  0  0  0  0  0  0  0  0  # atno 6909 bound_to 6896
  145.0787  140.8410  143.4052 H   0  0  0  0  0  0  0  0  0  0  0  0  # atno 7974 bound_to 7965
  155.2103  140.3323  155.4330 H   0  0  0  0  0  0  0  0  0  0  0  0  # atno 8008 bound_to 7997
  156.2373  140.1878  156.7133 H   0  0  0  0  0  0  0  0  0  0  0  0  # atno 8009 bound_to 7997
  154.6082  140.0613  156.9445 H   0  0  0  0  0  0  0  0  0  0  0  0  # atno 8010 bound_to 7997
  140.6628  143.7259  150.7770 H   0  0  0  0  0  0  0  0  0  0  0  0  # atno 10167 bound_to 10162
  156.6695  130.5005  149.6005 H   0  0  0  0  0  0  0  0  0  0  0  0  # atno 10718 bound_to 10713
  153.0049  135.6286  154.2097 H   0  0  0  0  0  0  0  0  0  0  0  0  # atno 10763 bound_to 10752
  154.1841  135.2812  155.3044 H   0  0  0  0  0  0  0  0  0  0  0  0  # atno 10764 bound_to 10752
  154.5811  135.5647  153.7246 H   0  0  0  0  0  0  0  0  0  0  0  0  # atno 10765 bound_to 10752
  140.3952  134.1776  155.7663 H   0  0  0  0  0  0  0  0  0  0  0  0  # atno 11005 bound_to 11000
  145.1204  139.2697  143.5591 LP  0  0  0  0  0  0  0  0  0  0  0  0  # atno 17320 bound_to 7965
  146.3530  140.0826  142.8617 LP  0  0  0  0  0  0  0  0  0  0  0  0  # atno 17321 bound_to 7965
  140.0931  143.4858  152.2467 LP  0  0  0  0  0  0  0  0  0  0  0  0  # atno 17342 bound_to 10162
  139.5867  144.7534  151.3503 LP  0  0  0  0  0  0  0  0  0  0  0  0  # atno 17343 bound_to 10162
  156.1950  130.6583  151.1103 LP  0  0  0  0  0  0  0  0  0  0  0  0  # atno 17370 bound_to 10713
  157.7082  131.0746  150.6593 LP  0  0  0  0  0  0  0  0  0  0  0  0  # atno 17371 bound_to 10713
  141.1876  133.8277  157.1024 LP  0  0  0  0  0  0  0  0  0  0  0  0  # atno 17394 bound_to 11000
  140.0377  134.9870  157.0902 LP  0  0  0  0  0  0  0  0  0  0  0  0  # atno 17395 bound_to 11000

$$$$
