AV-unprocessed.smi:1670|AV-procd|sdf|6695|dock3
  -GOLD-   22720 7433D 1   1.00000     0.00000
 Structure written by MMmdl.
 41 42  0  0  0  0  0  0  0  0  1 V2000
  147.0983  139.8364  152.4699 C   0  0  0  0  0  0  0  0  0  0  0  0
  146.5684  138.7137  153.3724 C   0  0  2  0  0  0  0  0  0  0  0  0
  147.2390  138.7450  154.7631 C   0  0  0  0  0  0  0  0  0  0  0  0
  148.6165  138.2829  154.7307 N   0  0  0  0  0  0  0  0  0  0  0  0
  149.6948  138.8504  154.0851 C   0  0  0  0  0  0  0  0  0  0  0  0
  150.7863  138.0780  154.3619 C   0  0  0  0  0  0  0  0  0  0  0  0
  150.2681  137.0458  155.1932 C   0  0  0  0  0  0  0  0  0  0  0  0
  148.9684  137.1678  155.4079 N   0  0  0  0  0  0  0  0  0  0  0  0
  146.7947  137.4266  152.7156 N   0  0  0  0  0  0  0  0  0  0  0  0
  145.8664  136.4779  152.5240 C   0  0  0  0  0  0  0  0  0  0  0  0
  144.6779  136.6019  152.8215 O   0  0  0  0  0  0  0  0  0  0  0  0
  146.3960  135.3639  152.0005 N   0  0  0  0  0  0  0  0  0  0  0  0
  145.6645  134.1262  151.7491 C   0  0  2  0  0  0  0  0  0  0  0  0
  146.5982  133.0554  151.1463 C   0  0  0  0  0  0  0  0  0  0  0  0
  145.8331  131.7634  150.8107 C   0  0  0  0  0  0  0  0  0  0  0  0
  144.6198  132.0226  149.8979 C   0  0  2  0  0  0  0  0  0  0  0  0
  145.0551  132.3802  148.6009 O   0  0  0  0  0  0  0  0  0  0  0  0
  143.7058  133.1229  150.4698 C   0  0  0  0  0  0  0  0  0  0  0  0
  144.4812  134.4089  150.8058 C   0  0  0  0  0  0  0  0  0  0  0  0
  146.9208  140.8150  152.9168 H   0  0  0  0  0  0  0  0  0  0  0  0
  146.6042  139.8256  151.4977 H   0  0  0  0  0  0  0  0  0  0  0  0
  148.1711  139.7381  152.3004 H   0  0  0  0  0  0  0  0  0  0  0  0
  145.4974  138.8814  153.4994 H   0  0  0  0  0  0  0  0  0  0  0  0
  147.2078  139.7526  155.1819 H   0  0  0  0  0  0  0  0  0  0  0  0
  146.6911  138.1051  155.4559 H   0  0  0  0  0  0  0  0  0  0  0  0
  149.5976  139.7509  153.4968 H   0  0  0  0  0  0  0  0  0  0  0  0
  151.8011  138.2293  154.0254 H   0  0  0  0  0  0  0  0  0  0  0  0
  150.7942  136.2170  155.6433 H   0  0  0  0  0  0  0  0  0  0  0  0
  147.7429  137.2224  152.4358 H   0  0  0  0  0  0  0  0  0  0  0  0
  147.3843  135.3576  151.7949 H   0  0  0  0  0  0  0  0  0  0  0  0
  145.2648  133.7556  152.6951 H   0  0  0  0  0  0  0  0  0  0  0  0
  147.0731  133.4440  150.2444 H   0  0  0  0  0  0  0  0  0  0  0  0
  147.4076  132.8245  151.8402 H   0  0  0  0  0  0  0  0  0  0  0  0
  146.5056  131.0377  150.3517 H   0  0  0  0  0  0  0  0  0  0  0  0
  145.4867  131.3093  151.7399 H   0  0  0  0  0  0  0  0  0  0  0  0
  144.0461  131.1008  149.7970 H   0  0  0  0  0  0  0  0  0  0  0  0
  145.3282  133.2848  148.6148 H   0  0  0  0  0  0  0  0  0  0  0  0
  142.8973  133.3442  149.7720 H   0  0  0  0  0  0  0  0  0  0  0  0
  143.2294  132.7514  151.3778 H   0  0  0  0  0  0  0  0  0  0  0  0
  143.8051  135.1333  151.2614 H   0  0  0  0  0  0  0  0  0  0  0  0
  144.8439  134.8655  149.8837 H   0  0  0  0  0  0  0  0  0  0  0  0
  1  2  1  0  0  0  0
  1 20  1  0  0  0  0
  1 21  1  0  0  0  0
  1 22  1  0  0  0  0
  2  3  1  0  0  0  0
  2  9  1  0  0  0  0
  2 23  1  0  0  0  0
  3  4  1  0  0  0  0
  3 24  1  0  0  0  0
  3 25  1  0  0  0  0
  4  8  1  0  0  0  0
  4  5  1  0  0  0  0
  5  6  2  0  0  0  0
  5 26  1  0  0  0  0
  6  7  1  0  0  0  0
  6 27  1  0  0  0  0
  7  8  2  0  0  0  0
  7 28  1  0  0  0  0
  9 10  1  0  0  0  0
  9 29  1  0  0  0  0
 10 11  2  0  0  0  0
 10 12  1  0  0  0  0
 12 13  1  0  0  0  0
 12 30  1  0  0  0  0
 13 19  1  0  0  0  0
 13 14  1  0  0  0  0
 13 31  1  0  0  0  0
 14 15  1  0  0  0  0
 14 32  1  0  0  0  0
 14 33  1  0  0  0  0
 15 16  1  0  0  0  0
 15 34  1  0  0  0  0
 15 35  1  0  0  0  0
 16 17  1  0  0  0  0
 16 18  1  0  0  0  0
 16 36  1  0  0  0  0
 17 37  1  0  0  0  0
 18 19  1  0  0  0  0
 18 38  1  0  0  0  0
 18 39  1  0  0  0  0
 19 40  1  0  0  0  0
 19 41  1  0  0  0  0
M  END
> <s_m_source_file>
AV-unprocessed.smi

> <i_m_source_file_index>
1670

> <i_lp_mmshare_version>
43012

> <i_f3d_flags>
0

> <s_epik_input>
bjFbY0hdW2NIXVtjSF1uMVtDSDJdW0NAQEhdKFtDSDNdKVtOSF1DKD1PKVtOSF1bQ0BASF0yW0NIMl1bQ0gyXVtDQEBIXShbT0hdKVtDSDJdW0NIMl0y

> <s_epik_cmdline>
J2VwaWtfcHl0aG9uJywgJy1waCcsICc3LjAnLCAnLXRuJywgJzgnLCAnLW1hJywgJzIwMCcsICctbWV0YWxfYmluZGluZycsICctaW1hZScsICc8aW5maWxlLm1hZT4nLCAnLW9tYWUnLCAnPG91dGZpbGUubWFlPic=

> <r_lp_tautomer_probability>
1

> <r_epik_Ionization_Penalty>
7.33369e-05

> <r_epik_Ionization_Penalty_Charging>
0

> <r_epik_Ionization_Penalty_Neutral>
7.33369e-05

> <r_epik_State_Penalty>
-0

> <r_epik_Charging_Adjusted_Penalty>
0

> <i_epik_Tot_Q>
0

> <i_epik_Tot_abs_Q>
0

> <r_epik_Metal_State_Penalty>
-0

> <b_epik_Metal_Only>
0

> <s_lp_Force_Field>
OPLS_2005

> <r_lp_Energy>
7.35879

> <b_lp_Chiralities_Consistent>
1

> <s_lp_Variant>
AV-unprocessed.smi:1670-3

> <Gold.Version>
5.8.1

> <Gold.Id.Protein>
6NUR|6NUR_protein|mol2

> <Gold.PLP.Fitness>
42.5654

> <Gold.PLP.PLP>
-31.1951

> <Gold.PLP.part.hbond>
-4.0000

> <Gold.PLP.part.metal>
0.0000

> <Gold.PLP.part.buried>
-0.1635

> <Gold.PLP.part.nonpolar>
-27.2622

> <Gold.PLP.part.repulsive>
0.3227

> <Gold.PLP.ligand.clash>
0.0000

> <Gold.PLP.ligand.torsion>
0.1947

> <Gold.PLP.Chemscore.Hbond>
2.9200

> <Gold.PLP.Chemscore.CHOScore>
0.9929

> <Gold.PLP.Chemscore.Metal>
0.0000

> <Gold.Chemscore.Hbonds>
donor molecule, donor type, donor heavy atom, donor atom, acceptor molecule, acceptor atom, score
      L1  H     9    29       P1  7948  1.00
      L1  H    12    30       P1  7948  0.99
      L1  H    17    37       P1  7921  0.93
      L1  C     5    26       P1  7957  1.00

> <Gold.PLP.Chemscore.Internal.Correction>
0.0210

> <Gold.Rescore>
     Score         DG    S(hbond)    S(metal)    S(lipo)     H(rot)  DE(clash)    DE(int)     intcor
     15.09     -18.25       2.52        0.00      85.77       2.22       1.64       1.53       ----

> <Gold.Chemscore.Fitness>
15.0876

> <Gold.Chemscore.DG>
-18.2503

> <Gold.Chemscore.ZeroCoef>
-5.4800

> <Gold.Chemscore.Hbond>
2.5222

> <Gold.Chemscore.Metal>
0.0000

> <Gold.Chemscore.Lipo>
85.7730

> <Gold.Chemscore.Internal_Hbond>
0.0000

> <Gold.Chemscore.DEClash>
1.6351

> <Gold.Chemscore.DEInternal>
1.5277

> <Gold.Chemscore.Rot>
2.2224

> <Gold.Chemscore.Internal.Correction>
   9.000000E+99

> <Gold.Chemscore.Hbonds>
donor molecule, donor type, donor heavy atom, donor atom, acceptor molecule, acceptor atom, score
      L1  H     9    29       P1  7948  0.97
      L1  H    12    30       P1  7948  0.92
      L1  H    17    37       P1  7921  0.23

> <Gold.Chemscore.Hbond.Weighted>
-8.4242

> <Gold.Chemscore.Metal.Weighted>
-0.0000

> <Gold.Chemscore.Lipo.Weighted>
-10.0354

> <Gold.Chemscore.Internal_Hbond.Weighted>
0.0000

> <Gold.Chemscore.DEClash.Weighted>
1.6351

> <Gold.Chemscore.DEInternal.Weighted>
1.5277

> <Gold.Chemscore.Rot.Weighted>
5.6893

> <Gold.Chemscore.Internal.Correction.Weighted>
   9.000000E+99

> <Gold.Protein.RotatedTorsions>
[ 6907 6896 6895 6894 ] final   44.74 input  -60.11 | X-H torsion
[ 7974 7965 7964 7962 ] final -109.34 input  175.53 | X-H torsion
[ 8008 7997 7996 7995 ] final   65.98 input   59.86 | X-H torsion
[ 10167 10162 10161 10158 ] final  -46.33 input  -65.29 | X-H torsion
[ 10718 10713 10712 10709 ] final    0.68 input   66.30 | X-H torsion
[ 10763 10752 10751 10750 ] final -133.69 input  -60.55 | X-H torsion
[ 11005 11000 10999 10996 ] final  175.53 input  -57.11 | X-H torsion

> <Gold.Protein.ActiveResidues>
 VAL166  LYS551  ARG553  GLY616  TRP617  ASP618  TYR619  PRO620  LYS621  CYS622 
 ASP623  PHE694  ASN695  SER759  ASP760  ASP761  ALA762  ILE779  LEU786  VAL792 
 PHE793  MET794  SER795  GLU796  ALA797  LYS798  CYS799  TRP800  GLU811  SER814 

> <Gold.Protein.RotatedAtoms>
  152.2362  134.8274  160.0466 H   0  0  0  0  0  0  0  0  0  0  0  0  # atno 6907 bound_to 6896
  151.9005  133.3532  159.3837 H   0  0  0  0  0  0  0  0  0  0  0  0  # atno 6908 bound_to 6896
  150.7040  134.4759  159.5491 H   0  0  0  0  0  0  0  0  0  0  0  0  # atno 6909 bound_to 6896
  145.1817  140.8974  143.3476 H   0  0  0  0  0  0  0  0  0  0  0  0  # atno 7974 bound_to 7965
  155.6703  140.3497  155.4816 H   0  0  0  0  0  0  0  0  0  0  0  0  # atno 8008 bound_to 7997
  155.9694  140.1152  157.0849 H   0  0  0  0  0  0  0  0  0  0  0  0  # atno 8009 bound_to 7997
  154.4162  140.1160  156.5272 H   0  0  0  0  0  0  0  0  0  0  0  0  # atno 8010 bound_to 7997
  140.6822  143.2836  151.3767 H   0  0  0  0  0  0  0  0  0  0  0  0  # atno 10167 bound_to 10162
  156.8370  130.5508  149.5681 H   0  0  0  0  0  0  0  0  0  0  0  0  # atno 10718 bound_to 10713
  154.8729  135.3758  154.4614 H   0  0  0  0  0  0  0  0  0  0  0  0  # atno 10763 bound_to 10752
  153.5282  135.7028  153.5702 H   0  0  0  0  0  0  0  0  0  0  0  0  # atno 10764 bound_to 10752
  153.3918  135.3970  155.1894 H   0  0  0  0  0  0  0  0  0  0  0  0  # atno 10765 bound_to 10752
  140.3632  134.7094  157.4345 H   0  0  0  0  0  0  0  0  0  0  0  0  # atno 11005 bound_to 11000
  145.0130  139.3493  143.6111 LP  0  0  0  0  0  0  0  0  0  0  0  0  # atno 17320 bound_to 7965
  146.3452  139.9399  142.8742 LP  0  0  0  0  0  0  0  0  0  0  0  0  # atno 17321 bound_to 7965
  139.6152  144.1017  152.2339 LP  0  0  0  0  0  0  0  0  0  0  0  0  # atno 17342 bound_to 10162
  140.0443  144.5982  150.7386 LP  0  0  0  0  0  0  0  0  0  0  0  0  # atno 17343 bound_to 10162
  156.0902  130.5890  150.9719 LP  0  0  0  0  0  0  0  0  0  0  0  0  # atno 17370 bound_to 10713
  157.6376  131.0914  150.8316 LP  0  0  0  0  0  0  0  0  0  0  0  0  # atno 17371 bound_to 10713
  140.0610  134.5996  155.8749 LP  0  0  0  0  0  0  0  0  0  0  0  0  # atno 17394 bound_to 11000
  141.1977  133.6598  156.5757 LP  0  0  0  0  0  0  0  0  0  0  0  0  # atno 17395 bound_to 11000

$$$$
