AV-unprocessed.smi:2774|AV-procd|sdf|10687|dock8
  -GOLD-   2272015133D 1   1.00000     0.00000
 Structure written by MMmdl.
 34 35  0  0  0  0  0  0  0  0  1 V2000
  148.7574  140.6986  153.9783 O   0  0  0  0  0  0  0  0  0  0  0  0
  149.9307  140.8072  154.7606 C   0  0  1  0  0  0  0  0  0  0  0  0
  149.6070  141.5624  156.0645 C   0  0  0  0  0  0  0  0  0  0  0  0
  150.5413  142.6642  156.3095 N   0  0  0  0  0  0  0  0  0  0  0  0
  150.7645  143.0146  157.7145 C   0  0  1  0  0  0  0  0  0  0  0  0
  151.6232  141.9536  158.4427 C   0  0  0  0  0  0  0  0  0  0  0  0
  151.8414  142.2783  159.9299 C   0  0  0  0  0  0  0  0  0  0  0  0
  152.5681  143.6122  160.1433 C   0  0  0  0  0  0  0  0  0  0  0  0
  151.5964  144.9918  159.4855 S   0  0  0  0  0  0  0  0  0  0  0  0
  151.4284  144.4028  157.7790 C   0  0  0  0  0  0  0  0  0  0  0  0
  150.6452  139.4798  154.9867 C   0  0  0  0  0  0  0  0  0  0  0  0
  150.0782  138.2532  154.5746 C   0  0  0  0  0  0  0  0  0  0  0  0
  150.7907  137.0633  154.8230 C   0  0  0  0  0  0  0  0  0  0  0  0
  151.9940  137.0328  155.4345 N   0  0  0  0  0  0  0  0  0  0  0  0
  152.5309  138.2074  155.8277 C   0  0  0  0  0  0  0  0  0  0  0  0
  151.9008  139.4521  155.6292 C   0  0  0  0  0  0  0  0  0  0  0  0
  149.0048  140.4302  153.1068 H   0  0  0  0  0  0  0  0  0  0  0  0
  150.6055  141.4356  154.1777 H   0  0  0  0  0  0  0  0  0  0  0  0
  148.5941  141.9612  155.9985 H   0  0  0  0  0  0  0  0  0  0  0  0
  149.6071  140.8543  156.8923 H   0  0  0  0  0  0  0  0  0  0  0  0
  151.4288  142.4566  155.8623 H   0  0  0  0  0  0  0  0  0  0  0  0
  149.7975  143.0823  158.2151 H   0  0  0  0  0  0  0  0  0  0  0  0
  151.1488  140.9748  158.3875 H   0  0  0  0  0  0  0  0  0  0  0  0
  152.5891  141.8530  157.9453 H   0  0  0  0  0  0  0  0  0  0  0  0
  150.8816  142.2956  160.4474 H   0  0  0  0  0  0  0  0  0  0  0  0
  152.4213  141.4776  160.3899 H   0  0  0  0  0  0  0  0  0  0  0  0
  152.7423  143.7823  161.2057 H   0  0  0  0  0  0  0  0  0  0  0  0
  153.5437  143.5978  159.6560 H   0  0  0  0  0  0  0  0  0  0  0  0
  152.4150  144.3805  157.3143 H   0  0  0  0  0  0  0  0  0  0  0  0
  150.8340  145.1332  157.2284 H   0  0  0  0  0  0  0  0  0  0  0  0
  149.1154  138.2173  154.0868 H   0  0  0  0  0  0  0  0  0  0  0  0
  150.3817  136.1099  154.5229 H   0  0  0  0  0  0  0  0  0  0  0  0
  153.4925  138.1545  156.3165 H   0  0  0  0  0  0  0  0  0  0  0  0
  152.3726  140.3635  155.9663 H   0  0  0  0  0  0  0  0  0  0  0  0
  1  2  1  0  0  0  0
  1 17  1  0  0  0  0
  2  3  1  0  0  0  0
  2 11  1  0  0  0  0
  2 18  1  0  0  0  0
  3  4  1  0  0  0  0
  3 19  1  0  0  0  0
  3 20  1  0  0  0  0
  4  5  1  0  0  0  0
  4 21  1  0  0  0  0
  5 10  1  0  0  0  0
  5  6  1  0  0  0  0
  5 22  1  0  0  0  0
  6  7  1  0  0  0  0
  6 23  1  0  0  0  0
  6 24  1  0  0  0  0
  7  8  1  0  0  0  0
  7 25  1  0  0  0  0
  7 26  1  0  0  0  0
  8  9  1  0  0  0  0
  8 27  1  0  0  0  0
  8 28  1  0  0  0  0
  9 10  1  0  0  0  0
 10 29  1  0  0  0  0
 10 30  1  0  0  0  0
 11 16  1  0  0  0  0
 11 12  2  0  0  0  0
 12 13  1  0  0  0  0
 12 31  1  0  0  0  0
 13 14  2  0  0  0  0
 13 32  1  0  0  0  0
 14 15  1  0  0  0  0
 15 16  2  0  0  0  0
 15 33  1  0  0  0  0
 16 34  1  0  0  0  0
M  END
> <s_m_source_file>
AV-unprocessed.smi

> <i_m_source_file_index>
2774

> <i_lp_mmshare_version>
43012

> <i_f3d_flags>
0

> <s_epik_input>
W2NIXTFbY0hdbltjSF1bY0hdYzFbQ0BIXShbT0hdKVtDSDJdW05IXVtDQEBIXTJbQ0gyXVtDSDJdW0NIMl1TW0NIMl0y

> <s_epik_cmdline>
J2VwaWtfcHl0aG9uJywgJy1waCcsICc3LjAnLCAnLXRuJywgJzgnLCAnLW1hJywgJzIwMCcsICctbWV0YWxfYmluZGluZycsICctaW1hZScsICc8aW5maWxlLm1hZT4nLCAnLW9tYWUnLCAnPG91dGZpbGUubWFlPic=

> <r_epik_Ionization_Penalty>
2.08116

> <r_epik_Ionization_Penalty_Charging>
0

> <r_epik_Ionization_Penalty_Neutral>
2.08116

> <r_epik_State_Penalty>
2.1944

> <r_epik_Charging_Adjusted_Penalty>
2.1944

> <i_epik_Tot_Q>
0

> <i_epik_Tot_abs_Q>
0

> <r_epik_Metal_State_Penalty>
2.1769

> <b_epik_Metal_Only>
0

> <s_lp_Force_Field>
OPLS_2005

> <r_lp_Energy>
17.4731

> <b_lp_Chiralities_Consistent>
1

> <s_lp_Variant>
AV-unprocessed.smi:2774-8

> <Gold.Version>
5.8.1

> <Gold.Id.Protein>
6NUR|6NUR_protein|mol2

> <Gold.PLP.Fitness>
44.6355

> <Gold.PLP.PLP>
-38.6741

> <Gold.PLP.part.hbond>
-3.0851

> <Gold.PLP.part.metal>
0.0000

> <Gold.PLP.part.buried>
1.3642

> <Gold.PLP.part.nonpolar>
-37.2834

> <Gold.PLP.part.repulsive>
0.1022

> <Gold.PLP.ligand.clash>
0.0000

> <Gold.PLP.ligand.torsion>
0.9742

> <Gold.PLP.Chemscore.Hbond>
2.0000

> <Gold.PLP.Chemscore.CHOScore>
0.6156

> <Gold.PLP.Chemscore.Metal>
0.0000

> <Gold.Chemscore.Hbonds>
donor molecule, donor type, donor heavy atom, donor atom, acceptor molecule, acceptor atom, score
      L1  H     1    17       P1  7957  0.89
      P1  H 10752 10765       L1    14  0.82

> <Gold.PLP.Chemscore.Internal.Correction>
0.0630

> <Gold.Rescore>
     Score         DG    S(hbond)    S(metal)    S(lipo)     H(rot)  DE(clash)    DE(int)     intcor
     18.15     -20.68       1.87        0.00     117.78       1.89       1.60       0.93       ----

> <Gold.Chemscore.Fitness>
18.1525

> <Gold.Chemscore.DG>
-20.6775

> <Gold.Chemscore.ZeroCoef>
-5.4800

> <Gold.Chemscore.Hbond>
1.8749

> <Gold.Chemscore.Metal>
0.0000

> <Gold.Chemscore.Lipo>
117.7843

> <Gold.Chemscore.Internal_Hbond>
0.0000

> <Gold.Chemscore.DEClash>
1.5969

> <Gold.Chemscore.DEInternal>
0.9282

> <Gold.Chemscore.Rot>
1.8928

> <Gold.Chemscore.Internal.Correction>
   9.000000E+99

> <Gold.Chemscore.Hbonds>
donor molecule, donor type, donor heavy atom, donor atom, acceptor molecule, acceptor atom, score
      L1  H     1    17       P1  7957  0.87
      P1  H 10752 10765       L1    14  0.32

> <Gold.Chemscore.Hbond.Weighted>
-6.2623

> <Gold.Chemscore.Metal.Weighted>
-0.0000

> <Gold.Chemscore.Lipo.Weighted>
-13.7808

> <Gold.Chemscore.Internal_Hbond.Weighted>
0.0000

> <Gold.Chemscore.DEClash.Weighted>
1.5969

> <Gold.Chemscore.DEInternal.Weighted>
0.9282

> <Gold.Chemscore.Rot.Weighted>
4.8455

> <Gold.Chemscore.Internal.Correction.Weighted>
   9.000000E+99

> <Gold.Protein.RotatedTorsions>
[ 6907 6896 6895 6894 ] final   98.52 input  -60.11 | X-H torsion
[ 7974 7965 7964 7962 ] final   69.10 input  175.53 | X-H torsion
[ 8008 7997 7996 7995 ] final -128.12 input   59.86 | X-H torsion
[ 10167 10162 10161 10158 ] final  119.25 input  -65.29 | X-H torsion
[ 10718 10713 10712 10709 ] final -160.43 input   66.30 | X-H torsion
[ 10763 10752 10751 10750 ] final  169.06 input  -60.55 | X-H torsion
[ 11005 11000 10999 10996 ] final  -25.87 input  -57.11 | X-H torsion

> <Gold.Protein.ActiveResidues>
 VAL166  LYS551  ARG553  GLY616  TRP617  ASP618  TYR619  PRO620  LYS621  CYS622 
 ASP623  PHE694  ASN695  SER759  ASP760  ASP761  ALA762  ILE779  LEU786  VAL792 
 PHE793  MET794  SER795  GLU796  ALA797  LYS798  CYS799  TRP800  GLU811  SER814 

> <Gold.Protein.RotatedAtoms>
  152.5408  134.0568  159.8134 H   0  0  0  0  0  0  0  0  0  0  0  0  # atno 6907 bound_to 6896
  151.0702  133.5465  159.2635 H   0  0  0  0  0  0  0  0  0  0  0  0  # atno 6908 bound_to 6896
  151.2331  135.0570  159.9049 H   0  0  0  0  0  0  0  0  0  0  0  0  # atno 6909 bound_to 6896
  145.7945  139.2951  143.1191 H   0  0  0  0  0  0  0  0  0  0  0  0  # atno 7974 bound_to 7965
  155.2574  140.0434  157.2993 H   0  0  0  0  0  0  0  0  0  0  0  0  # atno 8008 bound_to 7997
  154.5731  140.2379  155.8131 H   0  0  0  0  0  0  0  0  0  0  0  0  # atno 8009 bound_to 7997
  156.2138  140.2991  155.9800 H   0  0  0  0  0  0  0  0  0  0  0  0  # atno 8010 bound_to 7997
  139.6058  144.7069  151.2957 H   0  0  0  0  0  0  0  0  0  0  0  0  # atno 10167 bound_to 10162
  156.5820  130.8734  151.2867 H   0  0  0  0  0  0  0  0  0  0  0  0  # atno 10718 bound_to 10713
  154.3777  135.2753  155.2229 H   0  0  0  0  0  0  0  0  0  0  0  0  # atno 10763 bound_to 10752
  154.4349  135.5968  153.6096 H   0  0  0  0  0  0  0  0  0  0  0  0  # atno 10764 bound_to 10752
  152.9835  135.6004  154.4016 H   0  0  0  0  0  0  0  0  0  0  0  0  # atno 10765 bound_to 10752
  140.8977  133.7545  156.0503 H   0  0  0  0  0  0  0  0  0  0  0  0  # atno 11005 bound_to 11000
  145.9942  140.8576  143.0051 LP  0  0  0  0  0  0  0  0  0  0  0  0  # atno 17320 bound_to 7965
  144.6777  140.2259  143.7361 LP  0  0  0  0  0  0  0  0  0  0  0  0  # atno 17321 bound_to 7965
  140.7284  143.6938  150.7901 LP  0  0  0  0  0  0  0  0  0  0  0  0  # atno 17342 bound_to 10162
  140.0523  143.5237  152.2668 LP  0  0  0  0  0  0  0  0  0  0  0  0  # atno 17343 bound_to 10162
  157.7324  130.9715  150.1927 LP  0  0  0  0  0  0  0  0  0  0  0  0  # atno 17370 bound_to 10713
  156.2623  130.3712  149.8118 LP  0  0  0  0  0  0  0  0  0  0  0  0  # atno 17371 bound_to 10713
  140.8268  134.3225  157.5363 LP  0  0  0  0  0  0  0  0  0  0  0  0  # atno 17394 bound_to 11000
  139.8738  134.9341  156.3597 LP  0  0  0  0  0  0  0  0  0  0  0  0  # atno 17395 bound_to 11000

$$$$
