AV-unprocessed.smi:651|AV-procd|sdf|3185|dock1
  -GOLD-   22720 0113D 1   1.00000     0.00000
 Structure written by MMmdl.
 38 39  0  0  0  0  0  0  0  0  1 V2000
  151.7680  145.5744  159.9543 C   0  0  0  0  0  0  0  0  0  0  0  0
  151.8779  144.1620  159.4198 C   0  0  0  0  0  0  0  0  0  0  0  0
  152.5161  143.1517  160.1700 C   0  0  0  0  0  0  0  0  0  0  0  0
  152.5883  141.8555  159.6244 C   0  0  0  0  0  0  0  0  0  0  0  0
  152.0218  141.6195  158.3544 C   0  0  0  0  0  0  0  0  0  0  0  0
  152.0627  140.2366  157.7256 C   0  0  0  0  0  0  0  0  0  0  0  0
  151.5952  140.2715  156.2679 C   0  0  0  0  0  0  0  0  0  0  0  0
  152.4172  140.1706  155.3576 O   0  0  0  0  0  0  0  0  0  0  0  0
  150.2796  140.4360  156.0576 N   0  0  0  0  0  0  0  0  0  0  0  0
  149.6340  140.5104  154.7467 C   0  0  1  0  0  0  0  0  0  0  0  0
  149.1930  139.1145  154.2667 C   0  0  0  0  0  0  0  0  0  0  0  0
  147.7891  139.2709  153.6695 C   0  0  0  0  0  0  0  0  0  0  0  0
  147.5434  140.7785  153.5685 C   0  0  0  0  0  0  0  0  0  0  0  0
  148.3728  141.4138  154.6948 C   0  0  1  0  0  0  0  0  0  0  0  0
  147.5611  141.4831  156.0069 C   0  0  0  0  0  0  0  0  0  0  0  0
  147.5513  142.6531  156.6505 N   0  0  0  0  0  0  0  0  0  0  0  0
  146.9600  140.5003  156.4376 O   0  0  0  0  0  0  0  0  0  0  0  0
  151.4112  142.7015  157.6847 C   0  0  0  0  0  0  0  0  0  0  0  0
  151.3361  143.9466  158.2009 N   0  0  0  0  0  0  0  0  0  0  0  0
  152.0067  145.6129  161.0176 H   0  0  0  0  0  0  0  0  0  0  0  0
  150.7559  145.9575  159.8208 H   0  0  0  0  0  0  0  0  0  0  0  0
  152.4573  146.2322  159.4245 H   0  0  0  0  0  0  0  0  0  0  0  0
  152.9398  143.3618  161.1411 H   0  0  0  0  0  0  0  0  0  0  0  0
  153.0655  141.0572  160.1735 H   0  0  0  0  0  0  0  0  0  0  0  0
  153.0765  139.8362  157.7660 H   0  0  0  0  0  0  0  0  0  0  0  0
  151.4313  139.5584  158.3016 H   0  0  0  0  0  0  0  0  0  0  0  0
  149.6791  140.5178  156.8655 H   0  0  0  0  0  0  0  0  0  0  0  0
  150.3543  140.8949  154.0218 H   0  0  0  0  0  0  0  0  0  0  0  0
  149.8939  138.7319  153.5239 H   0  0  0  0  0  0  0  0  0  0  0  0
  149.1670  138.3915  155.0835 H   0  0  0  0  0  0  0  0  0  0  0  0
  147.6940  138.7765  152.7025 H   0  0  0  0  0  0  0  0  0  0  0  0
  147.0538  138.8196  154.3367 H   0  0  0  0  0  0  0  0  0  0  0  0
  147.9059  141.1431  152.6064 H   0  0  0  0  0  0  0  0  0  0  0  0
  146.4813  141.0231  153.6226 H   0  0  0  0  0  0  0  0  0  0  0  0
  148.6593  142.4296  154.4169 H   0  0  0  0  0  0  0  0  0  0  0  0
  147.0321  142.7514  157.5110 H   0  0  0  0  0  0  0  0  0  0  0  0
  148.0612  143.4376  156.2710 H   0  0  0  0  0  0  0  0  0  0  0  0
  150.9631  142.5639  156.7116 H   0  0  0  0  0  0  0  0  0  0  0  0
  1  2  1  0  0  0  0
  1 20  1  0  0  0  0
  1 21  1  0  0  0  0
  1 22  1  0  0  0  0
  2 19  1  0  0  0  0
  2  3  2  0  0  0  0
  3  4  1  0  0  0  0
  3 23  1  0  0  0  0
  4  5  2  0  0  0  0
  4 24  1  0  0  0  0
  5  6  1  0  0  0  0
  5 18  1  0  0  0  0
  6  7  1  0  0  0  0
  6 25  1  0  0  0  0
  6 26  1  0  0  0  0
  7  8  2  0  0  0  0
  7  9  1  0  0  0  0
  9 10  1  0  0  0  0
  9 27  1  0  0  0  0
 10 14  1  0  0  0  0
 10 11  1  0  0  0  0
 10 28  1  0  0  0  0
 11 12  1  0  0  0  0
 11 29  1  0  0  0  0
 11 30  1  0  0  0  0
 12 13  1  0  0  0  0
 12 31  1  0  0  0  0
 12 32  1  0  0  0  0
 13 14  1  0  0  0  0
 13 33  1  0  0  0  0
 13 34  1  0  0  0  0
 14 15  1  0  0  0  0
 14 35  1  0  0  0  0
 15 16  1  0  0  0  0
 15 17  2  0  0  0  0
 16 36  1  0  0  0  0
 16 37  1  0  0  0  0
 18 19  2  0  0  0  0
 18 38  1  0  0  0  0
M  END
> <s_m_source_file>
AV-unprocessed.smi

> <i_m_source_file_index>
651

> <i_lp_mmshare_version>
43012

> <i_f3d_flags>
0

> <s_epik_input>
W0NIM11jMVtjSF1bY0hdYyhbY0hdbjEpW0NIMl1DKD1PKVtOSF1bQ0BASF0yW0NIMl1bQ0gyXVtDSDJdW0NASF0yQyg9TylbTkgyXQ==

> <s_epik_cmdline>
J2VwaWtfcHl0aG9uJywgJy1waCcsICc3LjAnLCAnLXRuJywgJzgnLCAnLW1hJywgJzIwMCcsICctbWV0YWxfYmluZGluZycsICctaW1hZScsICc8aW5maWxlLm1hZT4nLCAnLW9tYWUnLCAnPG91dGZpbGUubWFlPic=

> <r_epik_Ionization_Penalty>
0.0159502

> <r_epik_Ionization_Penalty_Charging>
0

> <r_epik_Ionization_Penalty_Neutral>
0.0159502

> <r_epik_State_Penalty>
0.012563

> <r_epik_Charging_Adjusted_Penalty>
0.012563

> <i_epik_Tot_Q>
0

> <i_epik_Tot_abs_Q>
0

> <r_epik_Metal_State_Penalty>
0.0122326

> <b_epik_Metal_Only>
0

> <s_lp_Force_Field>
OPLS_2005

> <r_lp_Energy>
12.2285

> <b_lp_Chiralities_Consistent>
1

> <s_lp_Variant>
AV-unprocessed.smi:651-2

> <Gold.Version>
5.8.1

> <Gold.Id.Protein>
6NUR|6NUR_protein|mol2

> <Gold.PLP.Fitness>
44.4698

> <Gold.PLP.PLP>
-38.5806

> <Gold.PLP.part.hbond>
-3.0000

> <Gold.PLP.part.metal>
0.0000

> <Gold.PLP.part.buried>
0.0087

> <Gold.PLP.part.nonpolar>
-34.2442

> <Gold.PLP.part.repulsive>
0.2178

> <Gold.PLP.ligand.clash>
0.0000

> <Gold.PLP.ligand.torsion>
0.7913

> <Gold.PLP.Chemscore.Hbond>
2.4755

> <Gold.PLP.Chemscore.CHOScore>
0.0000

> <Gold.PLP.Chemscore.Metal>
0.0000

> <Gold.Chemscore.Hbonds>
donor molecule, donor type, donor heavy atom, donor atom, acceptor molecule, acceptor atom, score
      L1  H    16    37       P1  8028  0.90
      P1  H  7989  7998       L1     8  0.47
      P1  H  7997  8009       L1     8  0.88

> <Gold.PLP.Chemscore.Internal.Correction>
0.0452

> <Gold.Rescore>
     Score         DG    S(hbond)    S(metal)    S(lipo)     H(rot)  DE(clash)    DE(int)     intcor
     17.25     -18.42       1.85        0.00     101.01       1.97       0.16       1.01       ----

> <Gold.Chemscore.Fitness>
17.2549

> <Gold.Chemscore.DG>
-18.4202

> <Gold.Chemscore.ZeroCoef>
-5.4800

> <Gold.Chemscore.Hbond>
1.8463

> <Gold.Chemscore.Metal>
0.0000

> <Gold.Chemscore.Lipo>
101.0061

> <Gold.Chemscore.Internal_Hbond>
0.0000

> <Gold.Chemscore.DEClash>
0.1561

> <Gold.Chemscore.DEInternal>
1.0092

> <Gold.Chemscore.Rot>
1.9704

> <Gold.Chemscore.Internal.Correction>
   9.000000E+99

> <Gold.Chemscore.Hbonds>
donor molecule, donor type, donor heavy atom, donor atom, acceptor molecule, acceptor atom, score
      L1  H    16    37       P1  8028  0.18
      P1  H  7989  7998       L1     8  0.39
      P1  H  7997  8009       L1     8  0.70

> <Gold.Chemscore.Hbond.Weighted>
-6.1668

> <Gold.Chemscore.Metal.Weighted>
-0.0000

> <Gold.Chemscore.Lipo.Weighted>
-11.8177

> <Gold.Chemscore.Internal_Hbond.Weighted>
0.0000

> <Gold.Chemscore.DEClash.Weighted>
0.1561

> <Gold.Chemscore.DEInternal.Weighted>
1.0092

> <Gold.Chemscore.Rot.Weighted>
5.0443

> <Gold.Chemscore.Internal.Correction.Weighted>
   9.000000E+99

> <Gold.Protein.RotatedTorsions>
[ 6907 6896 6895 6894 ] final  -98.06 input  -60.11 | X-H torsion
[ 7974 7965 7964 7962 ] final  -25.09 input  175.53 | X-H torsion
[ 8008 7997 7996 7995 ] final -147.94 input   59.86 | X-H torsion
[ 10167 10162 10161 10158 ] final  -97.10 input  -65.29 | X-H torsion
[ 10718 10713 10712 10709 ] final  -53.74 input   66.30 | X-H torsion
[ 10763 10752 10751 10750 ] final  108.51 input  -60.55 | X-H torsion
[ 11005 11000 10999 10996 ] final  174.65 input  -57.11 | X-H torsion

> <Gold.Protein.ActiveResidues>
 VAL166  LYS551  ARG553  GLY616  TRP617  ASP618  TYR619  PRO620  LYS621  CYS622 
 ASP623  PHE694  ASN695  SER759  ASP760  ASP761  ALA762  ILE779  LEU786  VAL792 
 PHE793  MET794  SER795  GLU796  ALA797  LYS798  CYS799  TRP800  GLU811  SER814 

> <Gold.Protein.RotatedAtoms>
  150.7035  134.1253  159.4049 H   0  0  0  0  0  0  0  0  0  0  0  0  # atno 6907 bound_to 6896
  151.9239  135.0284  160.0533 H   0  0  0  0  0  0  0  0  0  0  0  0  # atno 6908 bound_to 6896
  152.2233  133.4965  159.5211 H   0  0  0  0  0  0  0  0  0  0  0  0  # atno 6909 bound_to 6896
  146.1513  140.4839  142.8610 H   0  0  0  0  0  0  0  0  0  0  0  0  # atno 7974 bound_to 7965
  155.5836  140.0646  157.2777 H   0  0  0  0  0  0  0  0  0  0  0  0  # atno 8008 bound_to 7997
  154.4325  140.1847  156.1049 H   0  0  0  0  0  0  0  0  0  0  0  0  # atno 8009 bound_to 7997
  156.0286  140.3309  155.7119 H   0  0  0  0  0  0  0  0  0  0  0  0  # atno 8010 bound_to 7997
  140.2869  143.3246  152.0385 H   0  0  0  0  0  0  0  0  0  0  0  0  # atno 10167 bound_to 10162
  156.1509  130.4151  149.9946 H   0  0  0  0  0  0  0  0  0  0  0  0  # atno 10718 bound_to 10713
  153.4217  135.3809  155.2115 H   0  0  0  0  0  0  0  0  0  0  0  0  # atno 10763 bound_to 10752
  154.8745  135.3819  154.4376 H   0  0  0  0  0  0  0  0  0  0  0  0  # atno 10764 bound_to 10752
  153.4897  135.7088  153.5954 H   0  0  0  0  0  0  0  0  0  0  0  0  # atno 10765 bound_to 10752
  140.3536  134.7173  157.4284 H   0  0  0  0  0  0  0  0  0  0  0  0  # atno 11005 bound_to 11000
  144.7908  140.6028  143.6543 LP  0  0  0  0  0  0  0  0  0  0  0  0  # atno 17320 bound_to 7965
  145.4815  139.1495  143.3759 LP  0  0  0  0  0  0  0  0  0  0  0  0  # atno 17321 bound_to 7965
  139.4948  144.6552  151.6588 LP  0  0  0  0  0  0  0  0  0  0  0  0  # atno 17342 bound_to 10162
  140.5765  144.0020  150.6244 LP  0  0  0  0  0  0  0  0  0  0  0  0  # atno 17343 bound_to 10162
  156.7804  130.9219  151.3646 LP  0  0  0  0  0  0  0  0  0  0  0  0  # atno 17370 bound_to 10713
  157.6656  130.9005  149.9925 LP  0  0  0  0  0  0  0  0  0  0  0  0  # atno 17371 bound_to 10713
  140.0683  134.5898  155.8670 LP  0  0  0  0  0  0  0  0  0  0  0  0  # atno 17394 bound_to 11000
  141.2005  133.6613  156.5899 LP  0  0  0  0  0  0  0  0  0  0  0  0  # atno 17395 bound_to 11000

$$$$
