AV-unprocessed.smi:2427|AV-procd|sdf|9579|dock5
  -GOLD-   2272013213D 1   1.00000     0.00000
 Structure written by MMmdl.
 35 36  0  0  0  0  0  0  0  0  3 V2000
  152.5210  140.0314  155.3468 O   0  0  0  0  0  0  0  0  0  0  0  0
  151.7980  139.4295  156.1424 C   0  0  0  0  0  0  0  0  0  0  0  0
  152.2768  139.1129  157.5669 C   0  0  0  0  0  0  0  0  0  0  0  0
  152.5457  140.3127  158.3775 N   0  0  0  0  0  0  0  0  0  0  0  0
  151.5682  141.3271  158.3589 C   0  0  0  0  0  0  0  0  0  0  0  0
  151.7100  142.4710  159.0567 C   0  0  0  0  0  0  0  0  0  0  0  0
  150.6982  143.5041  159.0217 N   0  3  0  0  0  0  0  0  0  0  0  0
  149.5287  143.1769  158.8476 O   0  0  0  0  0  0  0  0  0  0  0  0
  151.0373  144.6750  159.1660 O   0  5  0  0  0  0  0  0  0  0  0  0
  152.9170  142.6353  159.8435 C   0  0  0  0  0  0  0  0  0  0  0  0
  153.8581  141.6708  159.8614 C   0  0  0  0  0  0  0  0  0  0  0  0
  153.7029  140.4281  159.0984 C   0  0  0  0  0  0  0  0  0  0  0  0
  154.5610  139.5453  159.1072 O   0  0  0  0  0  0  0  0  0  0  0  0
  150.5564  139.0218  155.8404 N   0  0  0  0  0  0  0  0  0  0  0  0
  149.8948  139.2223  154.5564 C   0  0  0  0  0  0  0  0  0  0  0  0
  148.6388  140.0995  154.6933 C   0  0  1  0  0  0  0  0  0  0  0  0
  148.9122  141.5968  154.5575 C   0  0  0  0  0  0  0  0  0  0  0  0
  147.5985  142.1600  154.0341 C   0  0  0  0  0  0  0  0  0  0  0  0
  146.7911  140.9218  153.6352 C   0  0  0  0  0  0  0  0  0  0  0  0
  147.7326  139.8589  153.6284 O   0  0  0  0  0  0  0  0  0  0  0  0
  151.5222  138.4910  158.0507 H   0  0  0  0  0  0  0  0  0  0  0  0
  153.1678  138.4847  157.5107 H   0  0  0  0  0  0  0  0  0  0  0  0
  150.7108  141.1114  157.7374 H   0  0  0  0  0  0  0  0  0  0  0  0
  153.0758  143.5333  160.4223 H   0  0  0  0  0  0  0  0  0  0  0  0
  154.7505  141.8152  160.4527 H   0  0  0  0  0  0  0  0  0  0  0  0
  150.0270  138.5420  156.5540 H   0  0  0  0  0  0  0  0  0  0  0  0
  150.5937  139.6716  153.8489 H   0  0  0  0  0  0  0  0  0  0  0  0
  149.6291  138.2455  154.1512 H   0  0  0  0  0  0  0  0  0  0  0  0
  148.1325  139.9063  155.6410 H   0  0  0  0  0  0  0  0  0  0  0  0
  149.2231  142.0502  155.4992 H   0  0  0  0  0  0  0  0  0  0  0  0
  149.7005  141.7741  153.8245 H   0  0  0  0  0  0  0  0  0  0  0  0
  147.0730  142.7383  154.7947 H   0  0  0  0  0  0  0  0  0  0  0  0
  147.7752  142.8130  153.1787 H   0  0  0  0  0  0  0  0  0  0  0  0
  146.0195  140.7116  154.3777 H   0  0  0  0  0  0  0  0  0  0  0  0
  146.3080  141.0295  152.6637 H   0  0  0  0  0  0  0  0  0  0  0  0
  1  2  2  0  0  0  0
  2  3  1  0  0  0  0
  2 14  1  0  0  0  0
  3  4  1  0  0  0  0
  3 21  1  0  0  0  0
  3 22  1  0  0  0  0
  4 12  1  0  0  0  0
  4  5  1  0  0  0  0
  5  6  2  0  0  0  0
  5 23  1  0  0  0  0
  6  7  1  0  0  0  0
  6 10  1  0  0  0  0
  7  8  2  0  0  0  0
  7  9  1  0  0  0  0
 10 11  2  0  0  0  0
 10 24  1  0  0  0  0
 11 12  1  0  0  0  0
 11 25  1  0  0  0  0
 12 13  2  0  0  0  0
 14 15  1  0  0  0  0
 14 26  1  0  0  0  0
 15 16  1  0  0  0  0
 15 27  1  0  0  0  0
 15 28  1  0  0  0  0
 16 20  1  0  0  0  0
 16 17  1  0  0  0  0
 16 29  1  0  0  0  0
 17 18  1  0  0  0  0
 17 30  1  0  0  0  0
 17 31  1  0  0  0  0
 18 19  1  0  0  0  0
 18 32  1  0  0  0  0
 18 33  1  0  0  0  0
 19 20  1  0  0  0  0
 19 34  1  0  0  0  0
 19 35  1  0  0  0  0
M  CHG  1   7   1
M  CHG  1   9  -1
M  END
> <s_m_source_file>
AV-unprocessed.smi

> <i_m_source_file_index>
2427

> <i_lp_mmshare_version>
43012

> <i_f3d_flags>
0

> <s_epik_input>
TzFbQ0gyXVtDSDJdW0NIMl1bQ0BIXTFbQ0gyXVtOSF1DKD1PKVtDSDJdbjJbY0hdYyhbTitdKD1PKVtPLV0pW2NIXVtjSF1jMj1P

> <s_epik_cmdline>
J2VwaWtfcHl0aG9uJywgJy1waCcsICc3LjAnLCAnLXRuJywgJzgnLCAnLW1hJywgJzIwMCcsICctbWV0YWxfYmluZGluZycsICctaW1hZScsICc8aW5maWxlLm1hZT4nLCAnLW9tYWUnLCAnPG91dGZpbGUubWFlPic=

> <r_lp_tautomer_probability>
1

> <r_epik_Ionization_Penalty>
2.69366e-08

> <r_epik_Ionization_Penalty_Charging>
7.76344e-11

> <r_epik_Ionization_Penalty_Neutral>
2.6859e-08

> <r_epik_State_Penalty>
-0

> <r_epik_Charging_Adjusted_Penalty>
7.76344e-11

> <i_epik_Tot_Q>
0

> <i_epik_Tot_abs_Q>
2

> <r_epik_Metal_State_Penalty>
-0

> <b_epik_Metal_Only>
0

> <s_lp_Force_Field>
OPLS_2005

> <r_lp_Energy>
28.9532

> <b_lp_Chiralities_Consistent>
1

> <s_lp_Variant>
AV-unprocessed.smi:2427-2

> <Gold.Version>
5.8.1

> <Gold.Id.Protein>
6NUR|6NUR_protein|mol2

> <Gold.PLP.Fitness>
39.9209

> <Gold.PLP.PLP>
-34.6520

> <Gold.PLP.part.hbond>
-3.3499

> <Gold.PLP.part.metal>
0.0000

> <Gold.PLP.part.buried>
-2.5573

> <Gold.PLP.part.nonpolar>
-29.1820

> <Gold.PLP.part.repulsive>
0.9040

> <Gold.PLP.ligand.clash>
0.0000

> <Gold.PLP.ligand.torsion>
0.8276

> <Gold.PLP.Chemscore.Hbond>
2.2873

> <Gold.PLP.Chemscore.CHOScore>
0.0000

> <Gold.PLP.Chemscore.Metal>
0.0000

> <Gold.Chemscore.Hbonds>
donor molecule, donor type, donor heavy atom, donor atom, acceptor molecule, acceptor atom, score
      P1  H  7989  7998       L1     1  0.35
      P1  H  7997  8008       L1    13  0.78
      P1  H  7997  8009       L1     1  1.00

> <Gold.PLP.Chemscore.Internal.Correction>
0.0622

> <Gold.Rescore>
     Score         DG    S(hbond)    S(metal)    S(lipo)     H(rot)  DE(clash)    DE(int)     intcor
     14.31     -15.30       1.80        0.00      74.23       1.90       0.18       0.81       ----

> <Gold.Chemscore.Fitness>
14.3101

> <Gold.Chemscore.DG>
-15.3021

> <Gold.Chemscore.ZeroCoef>
-5.4800

> <Gold.Chemscore.Hbond>
1.8000

> <Gold.Chemscore.Metal>
0.0000

> <Gold.Chemscore.Lipo>
74.2344

> <Gold.Chemscore.Internal_Hbond>
0.0000

> <Gold.Chemscore.DEClash>
0.1770

> <Gold.Chemscore.DEInternal>
0.8150

> <Gold.Chemscore.Rot>
1.9044

> <Gold.Chemscore.Internal.Correction>
   9.000000E+99

> <Gold.Chemscore.Hbonds>
donor molecule, donor type, donor heavy atom, donor atom, acceptor molecule, acceptor atom, score
      P1  H  7989  7998       L1     1  0.35
      P1  H  7997  8008       L1    13  0.13
      P1  H  7997  8009       L1     1  0.85

> <Gold.Chemscore.Hbond.Weighted>
-6.0119

> <Gold.Chemscore.Metal.Weighted>
-0.0000

> <Gold.Chemscore.Lipo.Weighted>
-8.6854

> <Gold.Chemscore.Internal_Hbond.Weighted>
0.0000

> <Gold.Chemscore.DEClash.Weighted>
0.1770

> <Gold.Chemscore.DEInternal.Weighted>
0.8150

> <Gold.Chemscore.Rot.Weighted>
4.8753

> <Gold.Chemscore.Internal.Correction.Weighted>
   9.000000E+99

> <Gold.Protein.RotatedTorsions>
[ 6907 6896 6895 6894 ] final  -33.05 input  -60.11 | X-H torsion
[ 7974 7965 7964 7962 ] final  153.24 input  175.53 | X-H torsion
[ 8008 7997 7996 7995 ] final -139.58 input   59.86 | X-H torsion
[ 10167 10162 10161 10158 ] final -146.15 input  -65.29 | X-H torsion
[ 10718 10713 10712 10709 ] final  -35.75 input   66.30 | X-H torsion
[ 10763 10752 10751 10750 ] final  162.55 input  -60.55 | X-H torsion
[ 11005 11000 10999 10996 ] final  -15.48 input  -57.11 | X-H torsion

> <Gold.Protein.ActiveResidues>
 VAL166  LYS551  ARG553  GLY616  TRP617  ASP618  TYR619  PRO620  LYS621  CYS622 
 ASP623  PHE694  ASN695  SER759  ASP760  ASP761  ALA762  ILE779  LEU786  VAL792 
 PHE793  MET794  SER795  GLU796  ALA797  LYS798  CYS799  TRP800  GLU811  SER814 

> <Gold.Protein.RotatedAtoms>
  151.0707  134.9797  159.8307 H   0  0  0  0  0  0  0  0  0  0  0  0  # atno 6907 bound_to 6896
  152.5408  134.2302  159.8832 H   0  0  0  0  0  0  0  0  0  0  0  0  # atno 6908 bound_to 6896
  151.2327  133.4398  159.2638 H   0  0  0  0  0  0  0  0  0  0  0  0  # atno 6909 bound_to 6896
  144.8168  139.6775  143.6118 H   0  0  0  0  0  0  0  0  0  0  0  0  # atno 7974 bound_to 7965
  155.4471  140.0536  157.3005 H   0  0  0  0  0  0  0  0  0  0  0  0  # atno 8008 bound_to 7997
  154.4793  140.2074  155.9759 H   0  0  0  0  0  0  0  0  0  0  0  0  # atno 8009 bound_to 7997
  156.1181  140.3193  155.8173 H   0  0  0  0  0  0  0  0  0  0  0  0  # atno 8010 bound_to 7997
  139.7739  143.8197  152.2629 H   0  0  0  0  0  0  0  0  0  0  0  0  # atno 10167 bound_to 10162
  156.3349  130.4285  149.7839 H   0  0  0  0  0  0  0  0  0  0  0  0  # atno 10718 bound_to 10713
  154.2801  135.2763  155.2701 H   0  0  0  0  0  0  0  0  0  0  0  0  # atno 10763 bound_to 10752
  154.5226  135.5752  153.6696 H   0  0  0  0  0  0  0  0  0  0  0  0  # atno 10764 bound_to 10752
  152.9930  135.6208  154.2959 H   0  0  0  0  0  0  0  0  0  0  0  0  # atno 10765 bound_to 10752
  140.7970  133.8243  155.9434 H   0  0  0  0  0  0  0  0  0  0  0  0  # atno 11005 bound_to 11000
  146.2471  139.6121  142.9452 LP  0  0  0  0  0  0  0  0  0  0  0  0  # atno 17320 bound_to 7965
  145.5197  141.0432  143.2442 LP  0  0  0  0  0  0  0  0  0  0  0  0  # atno 17321 bound_to 7965
  139.8240  144.7283  150.9536 LP  0  0  0  0  0  0  0  0  0  0  0  0  # atno 17342 bound_to 10162
  140.7815  143.4132  151.0959 LP  0  0  0  0  0  0  0  0  0  0  0  0  # atno 17343 bound_to 10162
  156.5097  130.8166  151.3164 LP  0  0  0  0  0  0  0  0  0  0  0  0  # atno 17370 bound_to 10713
  157.7437  130.9918  150.2613 LP  0  0  0  0  0  0  0  0  0  0  0  0  # atno 17371 bound_to 10713
  140.9332  134.1995  157.4849 LP  0  0  0  0  0  0  0  0  0  0  0  0  # atno 17394 bound_to 11000
  139.8725  134.9841  156.5227 LP  0  0  0  0  0  0  0  0  0  0  0  0  # atno 17395 bound_to 11000

$$$$
