AV-unprocessed.smi:2057|AV-procd|sdf|8341|dock5
  -GOLD-   2272011 13D 1   1.00000     0.00000
 Structure written by MMmdl.
 44 46  0  0  0  0  0  0  0  0  1 V2000
  151.5141  145.3136  158.7961 C   0  0  0  0  0  0  0  0  0  0  0  0
  152.4071  144.6369  159.6689 O   0  0  0  0  0  0  0  0  0  0  0  0
  152.4927  143.2644  159.5747 C   0  0  0  0  0  0  0  0  0  0  0  0
  153.3840  142.6169  160.4496 C   0  0  0  0  0  0  0  0  0  0  0  0
  153.5424  141.2198  160.4154 C   0  0  0  0  0  0  0  0  0  0  0  0
  152.8019  140.4306  159.5008 C   0  0  0  0  0  0  0  0  0  0  0  0
  152.9266  139.0587  159.4091 O   0  0  0  0  0  0  0  0  0  0  0  0
  153.7273  138.3849  160.3688 C   0  0  0  0  0  0  0  0  0  0  0  0
  151.8903  141.0733  158.6273 C   0  0  0  0  0  0  0  0  0  0  0  0
  151.0810  140.2540  157.6262 C   0  0  1  0  0  0  0  0  0  0  0  0
  149.6949  140.2483  157.9124 O   0  0  0  0  0  0  0  0  0  0  0  0
  151.3170  140.7510  156.1866 C   0  0  0  0  0  0  0  0  0  0  0  0
  150.4538  140.0869  155.2197 N   0  0  0  0  0  0  0  0  0  0  0  0
  150.6021  138.8642  154.6502 C   0  0  0  0  0  0  0  0  0  0  0  0
  151.7710  137.9806  154.9817 C   0  0  0  0  0  0  0  0  0  0  0  0
  151.8028  136.7740  154.2463 O   0  0  0  0  0  0  0  0  0  0  0  0
  149.6461  138.5124  153.7863 N   0  0  0  0  0  0  0  0  0  0  0  0
  148.8003  139.6041  153.8025 C   0  0  0  0  0  0  0  0  0  0  0  0
  147.5983  139.8473  153.0999 C   0  0  0  0  0  0  0  0  0  0  0  0
  146.8968  141.0574  153.2830 C   0  0  0  0  0  0  0  0  0  0  0  0
  147.3858  142.0396  154.1688 C   0  0  0  0  0  0  0  0  0  0  0  0
  148.5818  141.8173  154.8780 C   0  0  0  0  0  0  0  0  0  0  0  0
  149.2774  140.6076  154.6914 C   0  0  0  0  0  0  0  0  0  0  0  0
  151.7490  142.4794  158.6612 C   0  0  0  0  0  0  0  0  0  0  0  0
  151.5647  146.3850  158.9900 H   0  0  0  0  0  0  0  0  0  0  0  0
  150.4823  144.9984  158.9570 H   0  0  0  0  0  0  0  0  0  0  0  0
  151.7821  145.1547  157.7507 H   0  0  0  0  0  0  0  0  0  0  0  0
  153.9597  143.1995  161.1539 H   0  0  0  0  0  0  0  0  0  0  0  0
  154.2458  140.7776  161.1040 H   0  0  0  0  0  0  0  0  0  0  0  0
  153.7216  137.3164  160.1531 H   0  0  0  0  0  0  0  0  0  0  0  0
  153.3376  138.5189  161.3789 H   0  0  0  0  0  0  0  0  0  0  0  0
  154.7636  138.7227  160.3315 H   0  0  0  0  0  0  0  0  0  0  0  0
  151.3918  139.2113  157.6956 H   0  0  0  0  0  0  0  0  0  0  0  0
  149.3486  141.1080  157.7275 H   0  0  0  0  0  0  0  0  0  0  0  0
  151.1869  141.8315  156.1245 H   0  0  0  0  0  0  0  0  0  0  0  0
  152.3497  140.5549  155.8948 H   0  0  0  0  0  0  0  0  0  0  0  0
  152.6978  138.5228  154.7951 H   0  0  0  0  0  0  0  0  0  0  0  0
  151.7423  137.7351  156.0435 H   0  0  0  0  0  0  0  0  0  0  0  0
  151.3953  136.9279  153.4075 H   0  0  0  0  0  0  0  0  0  0  0  0
  147.2152  139.1016  152.4194 H   0  0  0  0  0  0  0  0  0  0  0  0
  145.9787  141.2325  152.7413 H   0  0  0  0  0  0  0  0  0  0  0  0
  146.8425  142.9635  154.3035 H   0  0  0  0  0  0  0  0  0  0  0  0
  148.9604  142.5672  155.5569 H   0  0  0  0  0  0  0  0  0  0  0  0
  151.0622  142.9436  157.9700 H   0  0  0  0  0  0  0  0  0  0  0  0
  1  2  1  0  0  0  0
  1 25  1  0  0  0  0
  1 26  1  0  0  0  0
  1 27  1  0  0  0  0
  2  3  1  0  0  0  0
  3 24  1  0  0  0  0
  3  4  2  0  0  0  0
  4  5  1  0  0  0  0
  4 28  1  0  0  0  0
  5  6  2  0  0  0  0
  5 29  1  0  0  0  0
  6  7  1  0  0  0  0
  6  9  1  0  0  0  0
  7  8  1  0  0  0  0
  8 30  1  0  0  0  0
  8 31  1  0  0  0  0
  8 32  1  0  0  0  0
  9 10  1  0  0  0  0
  9 24  2  0  0  0  0
 10 11  1  0  0  0  0
 10 12  1  0  0  0  0
 10 33  1  0  0  0  0
 11 34  1  0  0  0  0
 12 13  1  0  0  0  0
 12 35  1  0  0  0  0
 12 36  1  0  0  0  0
 13 23  1  0  0  0  0
 13 14  1  0  0  0  0
 14 15  1  0  0  0  0
 14 17  2  0  0  0  0
 15 16  1  0  0  0  0
 15 37  1  0  0  0  0
 15 38  1  0  0  0  0
 16 39  1  0  0  0  0
 17 18  1  0  0  0  0
 18 23  2  0  0  0  0
 18 19  1  0  0  0  0
 19 20  2  0  0  0  0
 19 40  1  0  0  0  0
 20 21  1  0  0  0  0
 20 41  1  0  0  0  0
 21 22  2  0  0  0  0
 21 42  1  0  0  0  0
 22 23  1  0  0  0  0
 22 43  1  0  0  0  0
 24 44  1  0  0  0  0
M  END
> <s_m_source_file>
AV-unprocessed.smi

> <i_m_source_file_index>
2057

> <i_lp_mmshare_version>
43012

> <i_f3d_flags>
0

> <s_epik_input>
W0NIM11PYzFbY0hdW2NIXWMoT1tDSDNdKWMoW2NIXTEpW0NASF0oW09IXSlbQ0gyXW4oYyhuMilbQ0gyXVtPSF0pYyhjMjMpW2NIXVtjSF1bY0hdW2NIXTM=

> <s_epik_cmdline>
J2VwaWtfcHl0aG9uJywgJy1waCcsICc3LjAnLCAnLXRuJywgJzgnLCAnLW1hJywgJzIwMCcsICctbWV0YWxfYmluZGluZycsICctaW1hZScsICc8aW5maWxlLm1hZT4nLCAnLW9tYWUnLCAnPG91dGZpbGUubWFlPic=

> <r_lp_tautomer_probability>
1

> <r_epik_Ionization_Penalty>
0.0634722

> <r_epik_Ionization_Penalty_Charging>
0

> <r_epik_Ionization_Penalty_Neutral>
0.0634722

> <r_epik_State_Penalty>
0.0551572

> <r_epik_Charging_Adjusted_Penalty>
0.0551572

> <i_epik_Tot_Q>
0

> <i_epik_Tot_abs_Q>
0

> <r_epik_Metal_State_Penalty>
5.78034e-05

> <b_epik_Metal_Only>
0

> <s_lp_Force_Field>
OPLS_2005

> <r_lp_Energy>
19.4747

> <b_lp_Chiralities_Consistent>
1

> <s_lp_Variant>
AV-unprocessed.smi:2057-2

> <Gold.Version>
5.8.1

> <Gold.Id.Protein>
6NUR|6NUR_protein|mol2

> <Gold.PLP.Fitness>
53.9283

> <Gold.PLP.PLP>
-50.0944

> <Gold.PLP.part.hbond>
-2.0000

> <Gold.PLP.part.metal>
0.0000

> <Gold.PLP.part.buried>
-1.2499

> <Gold.PLP.part.nonpolar>
-48.1129

> <Gold.PLP.part.repulsive>
1.7422

> <Gold.PLP.ligand.clash>
0.0000

> <Gold.PLP.ligand.torsion>
0.4643

> <Gold.PLP.Chemscore.Hbond>
1.5616

> <Gold.PLP.Chemscore.CHOScore>
0.0000

> <Gold.PLP.Chemscore.Metal>
0.0000

> <Gold.Chemscore.Hbonds>
donor molecule, donor type, donor heavy atom, donor atom, acceptor molecule, acceptor atom, score
      L1  H    16    39       P1  7949  0.57
      P1  H 10752 10763       L1    16  1.00

> <Gold.PLP.Chemscore.Internal.Correction>
0.0777

> <Gold.Rescore>
     Score         DG    S(hbond)    S(metal)    S(lipo)     H(rot)  DE(clash)    DE(int)     intcor
     14.82     -15.87       0.96        0.00     130.72       3.17       0.70       0.35       ----

> <Gold.Chemscore.Fitness>
14.8219

> <Gold.Chemscore.DG>
-15.8702

> <Gold.Chemscore.ZeroCoef>
-5.4800

> <Gold.Chemscore.Hbond>
0.9588

> <Gold.Chemscore.Metal>
0.0000

> <Gold.Chemscore.Lipo>
130.7178

> <Gold.Chemscore.Internal_Hbond>
0.0000

> <Gold.Chemscore.DEClash>
0.6953

> <Gold.Chemscore.DEInternal>
0.3530

> <Gold.Chemscore.Rot>
3.1665

> <Gold.Chemscore.Internal.Correction>
   9.000000E+99

> <Gold.Chemscore.Hbonds>
donor molecule, donor type, donor heavy atom, donor atom, acceptor molecule, acceptor atom, score
      L1  H    16    39       P1  7949  0.44
      P1  H 10752 10763       L1    16  0.77

> <Gold.Chemscore.Hbond.Weighted>
-3.2024

> <Gold.Chemscore.Metal.Weighted>
-0.0000

> <Gold.Chemscore.Lipo.Weighted>
-15.2940

> <Gold.Chemscore.Internal_Hbond.Weighted>
0.0000

> <Gold.Chemscore.DEClash.Weighted>
0.6953

> <Gold.Chemscore.DEInternal.Weighted>
0.3530

> <Gold.Chemscore.Rot.Weighted>
8.1062

> <Gold.Chemscore.Internal.Correction.Weighted>
   9.000000E+99

> <Gold.Protein.RotatedTorsions>
[ 6907 6896 6895 6894 ] final  -24.92 input  -60.11 | X-H torsion
[ 7974 7965 7964 7962 ] final  -59.61 input  175.53 | X-H torsion
[ 8008 7997 7996 7995 ] final   21.79 input   59.86 | X-H torsion
[ 10167 10162 10161 10158 ] final  149.77 input  -65.29 | X-H torsion
[ 10718 10713 10712 10709 ] final   21.26 input   66.30 | X-H torsion
[ 10763 10752 10751 10750 ] final   31.50 input  -60.55 | X-H torsion
[ 11005 11000 10999 10996 ] final -132.58 input  -57.11 | X-H torsion

> <Gold.Protein.ActiveResidues>
 VAL166  LYS551  ARG553  GLY616  TRP617  ASP618  TYR619  PRO620  LYS621  CYS622 
 ASP623  PHE694  ASN695  SER759  ASP760  ASP761  ALA762  ILE779  LEU786  VAL792 
 PHE793  MET794  SER795  GLU796  ALA797  LYS798  CYS799  TRP800  GLU811  SER814 

> <Gold.Protein.RotatedAtoms>
  151.1826  135.0367  159.8798 H   0  0  0  0  0  0  0  0  0  0  0  0  # atno 6907 bound_to 6896
  152.5444  134.1046  159.8342 H   0  0  0  0  0  0  0  0  0  0  0  0  # atno 6908 bound_to 6896
  151.1165  133.5088  159.2636 H   0  0  0  0  0  0  0  0  0  0  0  0  # atno 6909 bound_to 6896
  145.8253  140.8514  143.0111 H   0  0  0  0  0  0  0  0  0  0  0  0  # atno 7974 bound_to 7965
  154.9560  140.3072  155.5053 H   0  0  0  0  0  0  0  0  0  0  0  0  # atno 8008 bound_to 7997
  156.2982  140.2310  156.4579 H   0  0  0  0  0  0  0  0  0  0  0  0  # atno 8009 bound_to 7997
  154.8010  140.0434  157.1261 H   0  0  0  0  0  0  0  0  0  0  0  0  # atno 8010 bound_to 7997
  139.4857  144.5575  151.7291 H   0  0  0  0  0  0  0  0  0  0  0  0  # atno 10167 bound_to 10162
  157.1360  130.6612  149.5966 H   0  0  0  0  0  0  0  0  0  0  0  0  # atno 10718 bound_to 10713
  153.0312  135.6437  154.1208 H   0  0  0  0  0  0  0  0  0  0  0  0  # atno 10763 bound_to 10752
  154.0930  135.2865  155.3269 H   0  0  0  0  0  0  0  0  0  0  0  0  # atno 10764 bound_to 10752
  154.6451  135.5446  153.7899 H   0  0  0  0  0  0  0  0  0  0  0  0  # atno 10765 bound_to 10752
  140.9157  134.1510  157.4354 H   0  0  0  0  0  0  0  0  0  0  0  0  # atno 11005 bound_to 11000
  144.6744  140.0593  143.7476 LP  0  0  0  0  0  0  0  0  0  0  0  0  # atno 17320 bound_to 7965
  145.9630  139.2814  143.1144 LP  0  0  0  0  0  0  0  0  0  0  0  0  # atno 17321 bound_to 7965
  140.5139  144.0983  150.6003 LP  0  0  0  0  0  0  0  0  0  0  0  0  # atno 17342 bound_to 10162
  140.3918  143.2748  152.0051 LP  0  0  0  0  0  0  0  0  0  0  0  0  # atno 17343 bound_to 10162
  155.9798  130.4794  150.6736 LP  0  0  0  0  0  0  0  0  0  0  0  0  # atno 17370 bound_to 10713
  157.4350  131.0854  151.1001 LP  0  0  0  0  0  0  0  0  0  0  0  0  # atno 17371 bound_to 10713
  139.8765  134.9953  156.5735 LP  0  0  0  0  0  0  0  0  0  0  0  0  # atno 17394 bound_to 11000
  140.8053  133.8473  155.8762 LP  0  0  0  0  0  0  0  0  0  0  0  0  # atno 17395 bound_to 11000

$$$$
