AV-unprocessed.smi:693|AV-procd|sdf|3372|dock6
  -GOLD-   22720 0353D 1   1.00000     0.00000
 Structure written by MMmdl.
 46 47  0  0  0  0  0  0  0  0  1 V2000
  152.0882  145.4011  159.8442 C   0  0  0  0  0  0  0  0  0  0  0  0
  151.4917  144.1265  159.2847 C   0  0  0  0  0  0  0  0  0  0  0  0
  152.1293  142.8830  159.4799 C   0  0  0  0  0  0  0  0  0  0  0  0
  151.5321  141.7305  158.9341 C   0  0  0  0  0  0  0  0  0  0  0  0
  150.3261  141.8645  158.2159 C   0  0  0  0  0  0  0  0  0  0  0  0
  149.6422  140.6551  157.6101 C   0  0  0  0  0  0  0  0  0  0  0  0
  150.2495  139.3351  158.1114 C   0  0  0  0  0  0  0  0  0  0  0  0
  149.2189  138.4171  158.5807 N   0  0  0  0  0  0  0  0  0  0  0  0
  149.4401  137.2634  159.2333 C   0  0  0  0  0  0  0  0  0  0  0  0
  150.5776  136.8570  159.4752 O   0  0  0  0  0  0  0  0  0  0  0  0
  148.3175  136.5812  159.5760 N   0  0  0  0  0  0  0  0  0  0  0  0
  146.9438  136.9023  159.1565 C   0  0  0  0  0  0  0  0  0  0  0  0
  146.2200  137.5643  160.3398 C   0  0  0  0  0  0  0  0  0  0  0  0
  146.2430  136.6511  161.5804 C   0  0  0  0  0  0  0  0  0  0  0  0
  147.6669  136.1314  161.9070 C   0  0  1  0  0  0  0  0  0  0  0  0
  147.6908  135.0845  163.0443 C   0  0  0  0  0  0  0  0  0  0  0  0
  146.7371  133.9054  162.8241 C   0  0  0  0  0  0  0  0  0  0  0  0
  146.9811  133.1145  161.7764 N   0  0  0  0  0  0  0  0  0  0  0  0
  145.7799  133.7223  163.5728 O   0  0  0  0  0  0  0  0  0  0  0  0
  148.3209  135.5579  160.6292 C   0  0  0  0  0  0  0  0  0  0  0  0
  149.7705  143.1539  158.0778 C   0  0  0  0  0  0  0  0  0  0  0  0
  150.3357  144.2645  158.5986 N   0  0  0  0  0  0  0  0  0  0  0  0
  152.9150  145.1861  160.5219 H   0  0  0  0  0  0  0  0  0  0  0  0
  151.3363  145.9663  160.3958 H   0  0  0  0  0  0  0  0  0  0  0  0
  152.4643  146.0275  159.0350 H   0  0  0  0  0  0  0  0  0  0  0  0
  153.0539  142.8109  160.0335 H   0  0  0  0  0  0  0  0  0  0  0  0
  151.9928  140.7625  159.0661 H   0  0  0  0  0  0  0  0  0  0  0  0
  148.5786  140.6984  157.8486 H   0  0  0  0  0  0  0  0  0  0  0  0
  149.7157  140.7120  156.5232 H   0  0  0  0  0  0  0  0  0  0  0  0
  150.7897  138.8446  157.3013 H   0  0  0  0  0  0  0  0  0  0  0  0
  150.9770  139.5208  158.9035 H   0  0  0  0  0  0  0  0  0  0  0  0
  148.2603  138.6818  158.4064 H   0  0  0  0  0  0  0  0  0  0  0  0
  146.8854  137.5452  158.2785 H   0  0  0  0  0  0  0  0  0  0  0  0
  146.4294  135.9828  158.8734 H   0  0  0  0  0  0  0  0  0  0  0  0
  146.7014  138.5145  160.5756 H   0  0  0  0  0  0  0  0  0  0  0  0
  145.1901  137.7972  160.0681 H   0  0  0  0  0  0  0  0  0  0  0  0
  145.8252  137.1956  162.4266 H   0  0  0  0  0  0  0  0  0  0  0  0
  145.5823  135.8011  161.4046 H   0  0  0  0  0  0  0  0  0  0  0  0
  148.2689  136.9849  162.2249 H   0  0  0  0  0  0  0  0  0  0  0  0
  148.7019  134.6951  163.1700 H   0  0  0  0  0  0  0  0  0  0  0  0
  147.4365  135.5651  163.9904 H   0  0  0  0  0  0  0  0  0  0  0  0
  146.3801  132.3255  161.5880 H   0  0  0  0  0  0  0  0  0  0  0  0
  147.7673  133.3107  161.1741 H   0  0  0  0  0  0  0  0  0  0  0  0
  147.7690  134.6825  160.2837 H   0  0  0  0  0  0  0  0  0  0  0  0
  149.3276  135.1983  160.8478 H   0  0  0  0  0  0  0  0  0  0  0  0
  148.8470  143.2987  157.5365 H   0  0  0  0  0  0  0  0  0  0  0  0
  1  2  1  0  0  0  0
  1 23  1  0  0  0  0
  1 24  1  0  0  0  0
  1 25  1  0  0  0  0
  2 22  1  0  0  0  0
  2  3  2  0  0  0  0
  3  4  1  0  0  0  0
  3 26  1  0  0  0  0
  4  5  2  0  0  0  0
  4 27  1  0  0  0  0
  5  6  1  0  0  0  0
  5 21  1  0  0  0  0
  6  7  1  0  0  0  0
  6 28  1  0  0  0  0
  6 29  1  0  0  0  0
  7  8  1  0  0  0  0
  7 30  1  0  0  0  0
  7 31  1  0  0  0  0
  8  9  1  0  0  0  0
  8 32  1  0  0  0  0
  9 10  2  0  0  0  0
  9 11  1  0  0  0  0
 11 20  1  0  0  0  0
 11 12  1  0  0  0  0
 12 13  1  0  0  0  0
 12 33  1  0  0  0  0
 12 34  1  0  0  0  0
 13 14  1  0  0  0  0
 13 35  1  0  0  0  0
 13 36  1  0  0  0  0
 14 15  1  0  0  0  0
 14 37  1  0  0  0  0
 14 38  1  0  0  0  0
 15 16  1  0  0  0  0
 15 20  1  0  0  0  0
 15 39  1  0  0  0  0
 16 17  1  0  0  0  0
 16 40  1  0  0  0  0
 16 41  1  0  0  0  0
 17 18  1  0  0  0  0
 17 19  2  0  0  0  0
 18 42  1  0  0  0  0
 18 43  1  0  0  0  0
 20 44  1  0  0  0  0
 20 45  1  0  0  0  0
 21 22  2  0  0  0  0
 21 46  1  0  0  0  0
M  END
> <s_m_source_file>
AV-unprocessed.smi

> <i_m_source_file_index>
693

> <i_lp_mmshare_version>
43012

> <i_f3d_flags>
0

> <s_epik_input>
W0NIM11jMVtjSF1bY0hdYyhbY0hdbjEpW0NIMl1bQ0gyXVtOSF1DKD1PKU4yW0NIMl1bQ0gyXVtDSDJdW0NASF0oW0NIMl0yKVtDSDJdQyg9TylbTkgyXQ==

> <s_epik_cmdline>
J2VwaWtfcHl0aG9uJywgJy1waCcsICc3LjAnLCAnLXRuJywgJzgnLCAnLW1hJywgJzIwMCcsICctbWV0YWxfYmluZGluZycsICctaW1hZScsICc8aW5maWxlLm1hZT4nLCAnLW9tYWUnLCAnPG91dGZpbGUubWFlPic=

> <r_epik_Ionization_Penalty>
0.056948

> <r_epik_Ionization_Penalty_Charging>
0

> <r_epik_Ionization_Penalty_Neutral>
0.056948

> <r_epik_State_Penalty>
0.0490937

> <r_epik_Charging_Adjusted_Penalty>
0.0490937

> <i_epik_Tot_Q>
0

> <i_epik_Tot_abs_Q>
0

> <r_epik_Metal_State_Penalty>
0.0447689

> <b_epik_Metal_Only>
0

> <s_lp_Force_Field>
OPLS_2005

> <r_lp_Energy>
25.6146

> <b_lp_Chiralities_Consistent>
1

> <s_lp_Variant>
AV-unprocessed.smi:693-1

> <Gold.Version>
5.8.1

> <Gold.Id.Protein>
6NUR|6NUR_protein|mol2

> <Gold.PLP.Fitness>
42.4966

> <Gold.PLP.PLP>
-37.7842

> <Gold.PLP.part.hbond>
-2.0000

> <Gold.PLP.part.metal>
0.0000

> <Gold.PLP.part.buried>
-3.9569

> <Gold.PLP.part.nonpolar>
-32.3958

> <Gold.PLP.part.repulsive>
0.4348

> <Gold.PLP.ligand.clash>
0.0000

> <Gold.PLP.ligand.torsion>
0.6780

> <Gold.PLP.Chemscore.Hbond>
1.0000

> <Gold.PLP.Chemscore.CHOScore>
1.0000

> <Gold.PLP.Chemscore.Metal>
0.0000

> <Gold.Chemscore.Hbonds>
donor molecule, donor type, donor heavy atom, donor atom, acceptor molecule, acceptor atom, score
      P1  H  6896  6909       L1    10  1.00
      L1  C    21    46       P1  8028  0.76

> <Gold.PLP.Chemscore.Internal.Correction>
0.0684

> <Gold.Rescore>
     Score         DG    S(hbond)    S(metal)    S(lipo)     H(rot)  DE(clash)    DE(int)     intcor
     12.95     -14.09       0.97        0.00      95.19       2.25       0.18       0.96       ----

> <Gold.Chemscore.Fitness>
12.9464

> <Gold.Chemscore.DG>
-14.0865

> <Gold.Chemscore.ZeroCoef>
-5.4800

> <Gold.Chemscore.Hbond>
0.9678

> <Gold.Chemscore.Metal>
0.0000

> <Gold.Chemscore.Lipo>
95.1897

> <Gold.Chemscore.Internal_Hbond>
0.0000

> <Gold.Chemscore.DEClash>
0.1759

> <Gold.Chemscore.DEInternal>
0.9642

> <Gold.Chemscore.Rot>
2.2512

> <Gold.Chemscore.Internal.Correction>
   9.000000E+99

> <Gold.Chemscore.Hbonds>
donor molecule, donor type, donor heavy atom, donor atom, acceptor molecule, acceptor atom, score
      P1  H  6896  6909       L1    10  1.00

> <Gold.Chemscore.Hbond.Weighted>
-3.2324

> <Gold.Chemscore.Metal.Weighted>
-0.0000

> <Gold.Chemscore.Lipo.Weighted>
-11.1372

> <Gold.Chemscore.Internal_Hbond.Weighted>
0.0000

> <Gold.Chemscore.DEClash.Weighted>
0.1759

> <Gold.Chemscore.DEInternal.Weighted>
0.9642

> <Gold.Chemscore.Rot.Weighted>
5.7631

> <Gold.Chemscore.Internal.Correction.Weighted>
   9.000000E+99

> <Gold.Protein.RotatedTorsions>
[ 6907 6896 6895 6894 ] final   89.26 input  -60.11 | X-H torsion
[ 7974 7965 7964 7962 ] final -148.31 input  175.53 | X-H torsion
[ 8008 7997 7996 7995 ] final  -95.19 input   59.86 | X-H torsion
[ 10167 10162 10161 10158 ] final -140.71 input  -65.29 | X-H torsion
[ 10718 10713 10712 10709 ] final  -72.03 input   66.30 | X-H torsion
[ 10763 10752 10751 10750 ] final -133.25 input  -60.55 | X-H torsion
[ 11005 11000 10999 10996 ] final   29.63 input  -57.11 | X-H torsion

> <Gold.Protein.ActiveResidues>
 VAL166  LYS551  ARG553  GLY616  TRP617  ASP618  TYR619  PRO620  LYS621  CYS622 
 ASP623  PHE694  ASN695  SER759  ASP760  ASP761  ALA762  ILE779  LEU786  VAL792 
 PHE793  MET794  SER795  GLU796  ALA797  LYS798  CYS799  TRP800  GLU811  SER814 

> <Gold.Protein.RotatedAtoms>
  152.5434  134.1994  159.8705 H   0  0  0  0  0  0  0  0  0  0  0  0  # atno 6907 bound_to 6896
  151.1984  133.4618  159.2603 H   0  0  0  0  0  0  0  0  0  0  0  0  # atno 6908 bound_to 6896
  151.1013  134.9986  159.8506 H   0  0  0  0  0  0  0  0  0  0  0  0  # atno 6909 bound_to 6896
  144.8037  140.5213  143.5689 H   0  0  0  0  0  0  0  0  0  0  0  0  # atno 7974 bound_to 7965
  154.7581  140.0482  157.0951 H   0  0  0  0  0  0  0  0  0  0  0  0  # atno 8008 bound_to 7997
  154.9972  140.3120  155.4863 H   0  0  0  0  0  0  0  0  0  0  0  0  # atno 8009 bound_to 7997
  156.2899  140.2208  156.5080 H   0  0  0  0  0  0  0  0  0  0  0  0  # atno 8010 bound_to 7997
  139.8256  143.7516  152.2666 H   0  0  0  0  0  0  0  0  0  0  0  0  # atno 10167 bound_to 10162
  156.0337  130.4363  150.2532 H   0  0  0  0  0  0  0  0  0  0  0  0  # atno 10718 bound_to 10713
  154.8735  135.3772  154.4542 H   0  0  0  0  0  0  0  0  0  0  0  0  # atno 10763 bound_to 10752
  153.5215  135.7029  153.5734 H   0  0  0  0  0  0  0  0  0  0  0  0  # atno 10764 bound_to 10752
  153.3978  135.3956  155.1933 H   0  0  0  0  0  0  0  0  0  0  0  0  # atno 10765 bound_to 10752
  140.3029  134.2736  155.7750 H   0  0  0  0  0  0  0  0  0  0  0  0  # atno 11005 bound_to 11000
  145.5489  139.1476  143.3405 LP  0  0  0  0  0  0  0  0  0  0  0  0  # atno 17320 bound_to 7965
  146.2325  140.5628  142.8969 LP  0  0  0  0  0  0  0  0  0  0  0  0  # atno 17321 bound_to 7965
  139.7707  144.7477  151.0228 LP  0  0  0  0  0  0  0  0  0  0  0  0  # atno 17342 bound_to 10162
  140.7810  143.4648  151.0228 LP  0  0  0  0  0  0  0  0  0  0  0  0  # atno 17343 bound_to 10162
  157.0633  131.0096  151.3215 LP  0  0  0  0  0  0  0  0  0  0  0  0  # atno 17370 bound_to 10713
  157.5054  130.7906  149.7649 LP  0  0  0  0  0  0  0  0  0  0  0  0  # atno 17371 bound_to 10713
  141.2124  133.7658  156.9794 LP  0  0  0  0  0  0  0  0  0  0  0  0  # atno 17394 bound_to 11000
  140.1093  134.9487  157.2041 LP  0  0  0  0  0  0  0  0  0  0  0  0  # atno 17395 bound_to 11000

$$$$
