AV-unprocessed.smi:3330|AV-procd|sdf|12807|dock8
  -GOLD-   2272019173D 1   1.00000     0.00000
 Structure written by MMmdl.
 38 39  0  0  0  0  0  0  0  0  1 V2000
  150.5207  139.7646  158.3435 C   0  0  0  0  0  0  0  0  0  0  0  0
  151.5367  140.5616  157.4955 C   0  0  2  0  0  0  0  0  0  0  0  0
  151.2304  141.9865  157.5845 N   0  0  0  0  0  0  0  0  0  0  0  0
  151.2688  142.4946  158.9476 C   0  0  0  0  0  0  0  0  0  0  0  0
  152.7249  142.5150  159.4374 C   0  0  0  0  0  0  0  0  0  0  0  0
  152.8036  142.8694  160.8568 N   0  0  0  0  0  0  0  0  0  0  0  0
  153.4886  142.1717  161.7723 C   0  0  0  0  0  0  0  0  0  0  0  0
  154.1449  141.1455  161.5970 O   0  0  0  0  0  0  0  0  0  0  0  0
  153.3376  142.8606  163.1110 C   0  0  0  0  0  0  0  0  0  0  0  0
  152.5074  143.9754  162.7087 N   0  0  0  0  0  0  0  0  0  0  0  0
  152.2191  143.9522  161.4009 C   0  0  0  0  0  0  0  0  0  0  0  0
  151.5378  144.7892  160.8108 O   0  0  0  0  0  0  0  0  0  0  0  0
  151.5303  140.1581  155.9959 C   0  0  1  0  0  0  0  0  0  0  0  0
  151.8942  138.6773  155.7790 C   0  0  0  0  0  0  0  0  0  0  0  0
  150.2492  140.4426  155.3606 N   0  0  0  0  0  0  0  0  0  0  0  0
  149.4318  139.5884  154.6473 C   0  0  0  0  0  0  0  0  0  0  0  0
  148.3370  140.3030  154.2540 C   0  0  0  0  0  0  0  0  0  0  0  0
  148.5765  141.6033  154.7791 C   0  0  0  0  0  0  0  0  0  0  0  0
  149.7206  141.6843  155.4381 N   0  0  0  0  0  0  0  0  0  0  0  0
  150.7331  138.6957  158.3273 H   0  0  0  0  0  0  0  0  0  0  0  0
  149.5039  139.9032  157.9745 H   0  0  0  0  0  0  0  0  0  0  0  0
  150.5372  140.0619  159.3913 H   0  0  0  0  0  0  0  0  0  0  0  0
  152.5391  140.3870  157.8894 H   0  0  0  0  0  0  0  0  0  0  0  0
  150.3357  142.1800  157.1575 H   0  0  0  0  0  0  0  0  0  0  0  0
  150.8513  143.5001  158.9915 H   0  0  0  0  0  0  0  0  0  0  0  0
  150.6640  141.8578  159.5949 H   0  0  0  0  0  0  0  0  0  0  0  0
  153.1885  141.5397  159.2761 H   0  0  0  0  0  0  0  0  0  0  0  0
  153.3088  143.2214  158.8443 H   0  0  0  0  0  0  0  0  0  0  0  0
  152.8322  142.2234  163.8374 H   0  0  0  0  0  0  0  0  0  0  0  0
  154.2984  143.1943  163.5041 H   0  0  0  0  0  0  0  0  0  0  0  0
  152.1909  144.6867  163.3518 H   0  0  0  0  0  0  0  0  0  0  0  0
  152.2842  140.7587  155.4822 H   0  0  0  0  0  0  0  0  0  0  0  0
  152.8998  138.4558  156.1361 H   0  0  0  0  0  0  0  0  0  0  0  0
  151.8639  138.4188  154.7201 H   0  0  0  0  0  0  0  0  0  0  0  0
  151.2045  138.0152  156.3033 H   0  0  0  0  0  0  0  0  0  0  0  0
  149.6940  138.5536  154.4828 H   0  0  0  0  0  0  0  0  0  0  0  0
  147.4934  139.9502  153.6797 H   0  0  0  0  0  0  0  0  0  0  0  0
  147.9574  142.4848  154.7021 H   0  0  0  0  0  0  0  0  0  0  0  0
  1  2  1  0  0  0  0
  1 20  1  0  0  0  0
  1 21  1  0  0  0  0
  1 22  1  0  0  0  0
  2  3  1  0  0  0  0
  2 13  1  0  0  0  0
  2 23  1  0  0  0  0
  3  4  1  0  0  0  0
  3 24  1  0  0  0  0
  4  5  1  0  0  0  0
  4 25  1  0  0  0  0
  4 26  1  0  0  0  0
  5  6  1  0  0  0  0
  5 27  1  0  0  0  0
  5 28  1  0  0  0  0
  6 11  1  0  0  0  0
  6  7  1  0  0  0  0
  7  8  2  0  0  0  0
  7  9  1  0  0  0  0
  9 10  1  0  0  0  0
  9 29  1  0  0  0  0
  9 30  1  0  0  0  0
 10 11  1  0  0  0  0
 10 31  1  0  0  0  0
 11 12  2  0  0  0  0
 13 14  1  0  0  0  0
 13 15  1  0  0  0  0
 13 32  1  0  0  0  0
 14 33  1  0  0  0  0
 14 34  1  0  0  0  0
 14 35  1  0  0  0  0
 15 19  1  0  0  0  0
 15 16  1  0  0  0  0
 16 17  2  0  0  0  0
 16 36  1  0  0  0  0
 17 18  1  0  0  0  0
 17 37  1  0  0  0  0
 18 19  2  0  0  0  0
 18 38  1  0  0  0  0
M  END
> <s_m_source_file>
AV-unprocessed.smi

> <i_m_source_file_index>
3330

> <i_lp_mmshare_version>
43012

> <i_f3d_flags>
0

> <s_epik_input>
bjFbY0hdW2NIXVtjSF1uMVtDQEBIXShbQ0gzXSlbQ0BIXShbQ0gzXSlbTkhdW0NIMl1bQ0gyXU4yQyg9TylbQ0gyXVtOSF1DMj1P

> <s_epik_cmdline>
J2VwaWtfcHl0aG9uJywgJy1waCcsICc3LjAnLCAnLXRuJywgJzgnLCAnLW1hJywgJzIwMCcsICctbWV0YWxfYmluZGluZycsICctaW1hZScsICc8aW5maWxlLm1hZT4nLCAnLW9tYWUnLCAnPG91dGZpbGUubWFlPic=

> <r_lp_tautomer_probability>
1

> <r_epik_Ionization_Penalty>
2.2997

> <r_epik_Ionization_Penalty_Charging>
0

> <r_epik_Ionization_Penalty_Neutral>
2.2997

> <r_epik_State_Penalty>
2.44917

> <r_epik_Charging_Adjusted_Penalty>
2.44917

> <i_epik_Tot_Q>
0

> <i_epik_Tot_abs_Q>
0

> <r_epik_Metal_State_Penalty>
2.52438

> <b_epik_Metal_Only>
0

> <s_lp_Force_Field>
OPLS_2005

> <r_lp_Energy>
27.6633

> <b_lp_Chiralities_Consistent>
1

> <s_lp_Variant>
AV-unprocessed.smi:3330-7

> <Gold.Version>
5.8.1

> <Gold.Id.Protein>
6NUR|6NUR_protein|mol2

> <Gold.PLP.Fitness>
47.0041

> <Gold.PLP.PLP>
-44.7558

> <Gold.PLP.part.hbond>
-1.9729

> <Gold.PLP.part.metal>
0.0000

> <Gold.PLP.part.buried>
-4.7580

> <Gold.PLP.part.nonpolar>
-37.6003

> <Gold.PLP.part.repulsive>
0.3989

> <Gold.PLP.ligand.clash>
0.0000

> <Gold.PLP.ligand.torsion>
0.1596

> <Gold.PLP.Chemscore.Hbond>
0.0000

> <Gold.PLP.Chemscore.CHOScore>
0.8100

> <Gold.PLP.Chemscore.Metal>
0.0000

> <Gold.Chemscore.Hbonds>
donor molecule, donor type, donor heavy atom, donor atom, acceptor molecule, acceptor atom, score
      L1  C    18    38       P1  8028  0.70

> <Gold.PLP.Chemscore.Internal.Correction>
0.1375

> <Gold.Rescore>
     Score         DG    S(hbond)    S(metal)    S(lipo)     H(rot)  DE(clash)    DE(int)     intcor
      6.02      -7.66       0.00        0.00      75.41       2.60       0.06       1.59       ----

> <Gold.Chemscore.Fitness>
6.0156

> <Gold.Chemscore.DG>
-7.6598

> <Gold.Chemscore.ZeroCoef>
-5.4800

> <Gold.Chemscore.Hbond>
0.0000

> <Gold.Chemscore.Metal>
0.0000

> <Gold.Chemscore.Lipo>
75.4147

> <Gold.Chemscore.Internal_Hbond>
0.0000

> <Gold.Chemscore.DEClash>
0.0577

> <Gold.Chemscore.DEInternal>
1.5865

> <Gold.Chemscore.Rot>
2.5952

> <Gold.Chemscore.Internal.Correction>
   9.000000E+99

> <Gold.Chemscore.Hbond.Weighted>
-0.0000

> <Gold.Chemscore.Metal.Weighted>
-0.0000

> <Gold.Chemscore.Lipo.Weighted>
-8.8235

> <Gold.Chemscore.Internal_Hbond.Weighted>
0.0000

> <Gold.Chemscore.DEClash.Weighted>
0.0577

> <Gold.Chemscore.DEInternal.Weighted>
1.5865

> <Gold.Chemscore.Rot.Weighted>
6.6437

> <Gold.Chemscore.Internal.Correction.Weighted>
   9.000000E+99

> <Gold.Protein.RotatedTorsions>
[ 6907 6896 6895 6894 ] final -174.47 input  -60.11 | X-H torsion
[ 7974 7965 7964 7962 ] final  148.68 input  175.53 | X-H torsion
[ 8008 7997 7996 7995 ] final   43.54 input   59.86 | X-H torsion
[ 10167 10162 10161 10158 ] final -149.10 input  -65.29 | X-H torsion
[ 10718 10713 10712 10709 ] final  110.05 input   66.30 | X-H torsion
[ 10763 10752 10751 10750 ] final  -83.16 input  -60.55 | X-H torsion
[ 11005 11000 10999 10996 ] final -109.69 input  -57.11 | X-H torsion

> <Gold.Protein.ActiveResidues>
 VAL166  LYS551  ARG553  GLY616  TRP617  ASP618  TYR619  PRO620  LYS621  CYS622 
 ASP623  PHE694  ASN695  SER759  ASP760  ASP761  ALA762  ILE779  LEU786  VAL792 
 PHE793  MET794  SER795  GLU796  ALA797  LYS798  CYS799  TRP800  GLU811  SER814 

> <Gold.Protein.RotatedAtoms>
  151.5729  133.3387  159.2992 H   0  0  0  0  0  0  0  0  0  0  0  0  # atno 6907 bound_to 6896
  150.8357  134.7632  159.6902 H   0  0  0  0  0  0  0  0  0  0  0  0  # atno 6908 bound_to 6896
  152.4434  134.5552  159.9930 H   0  0  0  0  0  0  0  0  0  0  0  0  # atno 6909 bound_to 6896
  144.8495  139.6184  143.5980 H   0  0  0  0  0  0  0  0  0  0  0  0  # atno 7974 bound_to 7965
  155.3044  140.3387  155.4246 H   0  0  0  0  0  0  0  0  0  0  0  0  # atno 8008 bound_to 7997
  156.1985  140.1724  156.7986 H   0  0  0  0  0  0  0  0  0  0  0  0  # atno 8009 bound_to 7997
  154.5530  140.0702  156.8681 H   0  0  0  0  0  0  0  0  0  0  0  0  # atno 8010 bound_to 7997
  139.7473  143.8571  152.2578 H   0  0  0  0  0  0  0  0  0  0  0  0  # atno 10167 bound_to 10162
  157.6512  131.0925  150.6545 H   0  0  0  0  0  0  0  0  0  0  0  0  # atno 10718 bound_to 10713
  154.5844  135.5566  153.7216 H   0  0  0  0  0  0  0  0  0  0  0  0  # atno 10763 bound_to 10752
  153.0093  135.6328  154.1937 H   0  0  0  0  0  0  0  0  0  0  0  0  # atno 10764 bound_to 10752
  154.1878  135.2884  155.3011 H   0  0  0  0  0  0  0  0  0  0  0  0  # atno 10765 bound_to 10752
  141.0833  133.9182  157.2241 H   0  0  0  0  0  0  0  0  0  0  0  0  # atno 11005 bound_to 11000
  146.2773  139.6785  142.9254 LP  0  0  0  0  0  0  0  0  0  0  0  0  # atno 17320 bound_to 7965
  145.4528  141.0429  143.2795 LP  0  0  0  0  0  0  0  0  0  0  0  0  # atno 17321 bound_to 7965
  139.8539  144.7150  150.9180 LP  0  0  0  0  0  0  0  0  0  0  0  0  # atno 17342 bound_to 10162
  140.7793  143.3875  151.1368 LP  0  0  0  0  0  0  0  0  0  0  0  0  # atno 17343 bound_to 10162
  156.6856  130.4580  149.5615 LP  0  0  0  0  0  0  0  0  0  0  0  0  # atno 17370 bound_to 10713
  156.1898  130.6552  151.1048 LP  0  0  0  0  0  0  0  0  0  0  0  0  # atno 17371 bound_to 10713
  139.9649  135.0144  156.9360 LP  0  0  0  0  0  0  0  0  0  0  0  0  # atno 17394 bound_to 11000
  140.5419  134.0711  155.7344 LP  0  0  0  0  0  0  0  0  0  0  0  0  # atno 17395 bound_to 11000

$$$$
