AV-unprocessed.smi:219|AV-procd|sdf|1680|dock8
  -GOLD-   2262020113D 1   1.00000     0.00000
 Structure written by MMmdl.
 50 53  0  0  0  0  0  0  0  0  1 V2000
  150.2518  145.0546  158.3647 N   0  0  0  0  0  0  0  0  0  0  0  0
  151.2967  144.2691  158.0927 C   0  0  0  0  0  0  0  0  0  0  0  0
  152.4509  144.6913  158.0977 O   0  0  0  0  0  0  0  0  0  0  0  0
  150.9968  142.7998  157.7669 C   0  0  0  0  0  0  0  0  0  0  0  0
  151.6477  141.7555  158.7214 C   0  0  2  0  0  0  0  0  0  0  0  0
  152.4751  142.5048  159.7914 C   0  0  0  0  0  0  0  0  0  0  0  0
  153.1716  141.5434  160.7638 C   0  0  0  0  0  0  0  0  0  0  0  0
  154.0299  140.5432  159.9829 C   0  0  0  0  0  0  0  0  0  0  0  0
  153.1739  139.8097  158.9425 C   0  0  0  0  0  0  0  0  0  0  0  0
  152.4986  140.7535  158.0491 N   0  0  0  0  0  0  0  0  0  0  0  0
  151.9627  140.1248  156.9783 C   0  0  0  0  0  0  0  0  0  0  0  0
  152.7707  139.6324  156.0022 N   0  0  0  0  0  0  0  0  0  0  0  0
  152.2377  138.9893  154.9587 C   0  0  0  0  0  0  0  0  0  0  0  0
  150.9521  138.7377  154.7004 N   0  0  0  0  0  0  0  0  0  0  0  0
  150.1417  139.2377  155.6774 C   0  0  0  0  0  0  0  0  0  0  0  0
  150.5627  139.9380  156.8415 C   0  0  0  0  0  0  0  0  0  0  0  0
  149.4643  140.2825  157.6176 N   0  0  0  0  0  0  0  0  0  0  0  0
  148.4471  139.8151  156.9465 C   0  0  0  0  0  0  0  0  0  0  0  0
  148.7612  139.1819  155.7642 N   0  0  0  0  0  0  0  0  0  0  0  0
  147.8279  138.5749  154.8270 C   0  0  0  0  0  0  0  0  0  0  0  0
  146.7539  139.5560  154.2975 C   0  0  2  0  0  0  0  0  0  0  0  0
  145.9671  138.8914  153.3249 O   0  0  0  0  0  0  0  0  0  0  0  0
  147.3663  140.8095  153.6685 C   0  0  0  0  0  0  0  0  0  0  0  0
  147.0373  141.9109  154.6690 C   0  0  0  0  0  0  0  0  0  0  0  0
  145.7680  141.5163  155.1577 O   0  0  0  0  0  0  0  0  0  0  0  0
  145.8317  140.1183  155.3983 C   0  0  0  0  0  0  0  0  0  0  0  0
  150.4026  146.0283  158.5859 H   0  0  0  0  0  0  0  0  0  0  0  0
  149.3167  144.6743  158.3499 H   0  0  0  0  0  0  0  0  0  0  0  0
  149.9205  142.6317  157.7047 H   0  0  0  0  0  0  0  0  0  0  0  0
  151.3763  142.6489  156.7556 H   0  0  0  0  0  0  0  0  0  0  0  0
  150.8588  141.2112  159.2431 H   0  0  0  0  0  0  0  0  0  0  0  0
  153.2263  143.1272  159.3023 H   0  0  0  0  0  0  0  0  0  0  0  0
  151.8339  143.1828  160.3557 H   0  0  0  0  0  0  0  0  0  0  0  0
  153.7893  142.1010  161.4681 H   0  0  0  0  0  0  0  0  0  0  0  0
  152.4253  141.0098  161.3537 H   0  0  0  0  0  0  0  0  0  0  0  0
  154.8472  141.0662  159.4844 H   0  0  0  0  0  0  0  0  0  0  0  0
  154.4869  139.8261  160.6652 H   0  0  0  0  0  0  0  0  0  0  0  0
  153.8051  139.1350  158.3618 H   0  0  0  0  0  0  0  0  0  0  0  0
  152.4314  139.1930  159.4515 H   0  0  0  0  0  0  0  0  0  0  0  0
  152.9427  138.6223  154.2276 H   0  0  0  0  0  0  0  0  0  0  0  0
  147.4305  139.9244  157.2958 H   0  0  0  0  0  0  0  0  0  0  0  0
  148.3987  138.1625  153.9938 H   0  0  0  0  0  0  0  0  0  0  0  0
  147.3541  137.7252  155.3207 H   0  0  0  0  0  0  0  0  0  0  0  0
  145.2185  139.4332  153.1264 H   0  0  0  0  0  0  0  0  0  0  0  0
  148.4378  140.7248  153.4835 H   0  0  0  0  0  0  0  0  0  0  0  0
  146.8889  141.0438  152.7154 H   0  0  0  0  0  0  0  0  0  0  0  0
  147.7593  141.9278  155.4870 H   0  0  0  0  0  0  0  0  0  0  0  0
  147.0057  142.9005  154.2129 H   0  0  0  0  0  0  0  0  0  0  0  0
  144.8381  139.6682  155.4106 H   0  0  0  0  0  0  0  0  0  0  0  0
  146.2682  139.9780  156.3874 H   0  0  0  0  0  0  0  0  0  0  0  0
  1  2  1  0  0  0  0
  1 27  1  0  0  0  0
  1 28  1  0  0  0  0
  2  3  2  0  0  0  0
  2  4  1  0  0  0  0
  4  5  1  0  0  0  0
  4 29  1  0  0  0  0
  4 30  1  0  0  0  0
  5 10  1  0  0  0  0
  5  6  1  0  0  0  0
  5 31  1  0  0  0  0
  6  7  1  0  0  0  0
  6 32  1  0  0  0  0
  6 33  1  0  0  0  0
  7  8  1  0  0  0  0
  7 34  1  0  0  0  0
  7 35  1  0  0  0  0
  8  9  1  0  0  0  0
  8 36  1  0  0  0  0
  8 37  1  0  0  0  0
  9 10  1  0  0  0  0
  9 38  1  0  0  0  0
  9 39  1  0  0  0  0
 10 11  1  0  0  0  0
 11 16  1  0  0  0  0
 11 12  2  0  0  0  0
 12 13  1  0  0  0  0
 13 14  2  0  0  0  0
 13 40  1  0  0  0  0
 14 15  1  0  0  0  0
 15 19  1  0  0  0  0
 15 16  2  0  0  0  0
 16 17  1  0  0  0  0
 17 18  2  0  0  0  0
 18 19  1  0  0  0  0
 18 41  1  0  0  0  0
 19 20  1  0  0  0  0
 20 21  1  0  0  0  0
 20 42  1  0  0  0  0
 20 43  1  0  0  0  0
 21 26  1  0  0  0  0
 21 22  1  0  0  0  0
 21 23  1  0  0  0  0
 22 44  1  0  0  0  0
 23 24  1  0  0  0  0
 23 45  1  0  0  0  0
 23 46  1  0  0  0  0
 24 25  1  0  0  0  0
 24 47  1  0  0  0  0
 24 48  1  0  0  0  0
 25 26  1  0  0  0  0
 26 49  1  0  0  0  0
 26 50  1  0  0  0  0
M  END
> <s_m_source_file>
AV-unprocessed.smi

> <i_m_source_file_index>
219

> <i_lp_mmshare_version>
43012

> <i_f3d_flags>
0

> <s_epik_input>
W05IMl1DKD1PKVtDSDJdW0NAQEhdMVtDSDJdW0NIMl1bQ0gyXVtDSDJdTjFjKG5bY0hdbjIpYyhjMjMpbltjSF1uM1tDSDJdW0NAQF00KFtPSF0pW0NIMl1bQ0gyXU9bQ0gyXTQ=

> <s_epik_cmdline>
J2VwaWtfcHl0aG9uJywgJy1waCcsICc3LjAnLCAnLXRuJywgJzgnLCAnLW1hJywgJzIwMCcsICctbWV0YWxfYmluZGluZycsICctaW1hZScsICc8aW5maWxlLm1hZT4nLCAnLW9tYWUnLCAnPG91dGZpbGUubWFlPic=

> <r_lp_tautomer_probability>
1

> <r_epik_Ionization_Penalty>
0.00228532

> <r_epik_Ionization_Penalty_Charging>
0

> <r_epik_Ionization_Penalty_Neutral>
0.00228532

> <r_epik_State_Penalty>
0.00140978

> <r_epik_Charging_Adjusted_Penalty>
0.00140978

> <i_epik_Tot_Q>
0

> <i_epik_Tot_abs_Q>
0

> <r_epik_Metal_State_Penalty>
-0

> <b_epik_Metal_Only>
0

> <s_lp_Force_Field>
OPLS_2005

> <r_lp_Energy>
33.6932

> <b_lp_Chiralities_Consistent>
1

> <s_lp_Variant>
AV-unprocessed.smi:219-3

> <Gold.Version>
5.8.1

> <Gold.Id.Protein>
6NUR|6NUR_protein|mol2

> <Gold.PLP.Fitness>
46.0556

> <Gold.PLP.PLP>
-42.3789

> <Gold.PLP.part.hbond>
-4.4125

> <Gold.PLP.part.metal>
0.0000

> <Gold.PLP.part.buried>
-5.3892

> <Gold.PLP.part.nonpolar>
-33.6691

> <Gold.PLP.part.repulsive>
0.5414

> <Gold.PLP.ligand.clash>
1.1626

> <Gold.PLP.ligand.torsion>
1.2677

> <Gold.PLP.Chemscore.Hbond>
2.3661

> <Gold.PLP.Chemscore.CHOScore>
0.0000

> <Gold.PLP.Chemscore.Metal>
0.0000

> <Gold.Chemscore.Hbonds>
donor molecule, donor type, donor heavy atom, donor atom, acceptor molecule, acceptor atom, score
      L1  H     1    28       P1  8029  0.15
      L1  H    22    44       P1 10175  1.00
      P1  H  7997  8009       L1    12  1.00

> <Gold.PLP.Chemscore.Internal.Correction>
0.2765

> <Gold.Rescore>
     Score         DG    S(hbond)    S(metal)    S(lipo)     H(rot)  DE(clash)    DE(int)     intcor
      9.11     -13.23       2.03        0.00      82.10       3.37       0.10       4.02       ----

> <Gold.Chemscore.Fitness>
9.1133

> <Gold.Chemscore.DG>
-13.2317

> <Gold.Chemscore.ZeroCoef>
-5.4800

> <Gold.Chemscore.Hbond>
2.0277

> <Gold.Chemscore.Metal>
0.0000

> <Gold.Chemscore.Lipo>
82.0999

> <Gold.Chemscore.Internal_Hbond>
0.0000

> <Gold.Chemscore.DEClash>
0.0993

> <Gold.Chemscore.DEInternal>
4.0191

> <Gold.Chemscore.Rot>
3.3697

> <Gold.Chemscore.Internal.Correction>
   9.000000E+99

> <Gold.Chemscore.Hbonds>
donor molecule, donor type, donor heavy atom, donor atom, acceptor molecule, acceptor atom, score
      L1  H     1    28       P1  8029  0.06
      L1  H    22    44       P1 10175  0.98
      P1  H  7997  8009       L1    12  0.85

> <Gold.Chemscore.Hbond.Weighted>
-6.7724

> <Gold.Chemscore.Metal.Weighted>
-0.0000

> <Gold.Chemscore.Lipo.Weighted>
-9.6057

> <Gold.Chemscore.Internal_Hbond.Weighted>
0.0000

> <Gold.Chemscore.DEClash.Weighted>
0.0993

> <Gold.Chemscore.DEInternal.Weighted>
4.0191

> <Gold.Chemscore.Rot.Weighted>
8.6264

> <Gold.Chemscore.Internal.Correction.Weighted>
   9.000000E+99

> <Gold.Protein.RotatedTorsions>
[ 6907 6896 6895 6894 ] final   27.31 input  -60.11 | X-H torsion
[ 7974 7965 7964 7962 ] final  100.71 input  175.53 | X-H torsion
[ 8008 7997 7996 7995 ] final -150.81 input   59.86 | X-H torsion
[ 10167 10162 10161 10158 ] final  147.22 input  -65.29 | X-H torsion
[ 10718 10713 10712 10709 ] final   14.39 input   66.30 | X-H torsion
[ 10763 10752 10751 10750 ] final  122.49 input  -60.55 | X-H torsion
[ 11005 11000 10999 10996 ] final   -1.48 input  -57.11 | X-H torsion

> <Gold.Protein.ActiveResidues>
 VAL166  LYS551  ARG553  GLY616  TRP617  ASP618  TYR619  PRO620  LYS621  CYS622 
 ASP623  PHE694  ASN695  SER759  ASP760  ASP761  ALA762  ILE779  LEU786  VAL792 
 PHE793  MET794  SER795  GLU796  ALA797  LYS798  CYS799  TRP800  GLU811  SER814 

> <Gold.Protein.RotatedAtoms>
  152.0003  134.9932  160.0564 H   0  0  0  0  0  0  0  0  0  0  0  0  # atno 6907 bound_to 6896
  152.1525  133.4526  159.4829 H   0  0  0  0  0  0  0  0  0  0  0  0  # atno 6908 bound_to 6896
  150.6877  134.2089  159.4394 H   0  0  0  0  0  0  0  0  0  0  0  0  # atno 6909 bound_to 6896
  145.3819  139.2378  143.3399 H   0  0  0  0  0  0  0  0  0  0  0  0  # atno 7974 bound_to 7965
  155.6295  140.0690  157.2653 H   0  0  0  0  0  0  0  0  0  0  0  0  # atno 8008 bound_to 7997
  154.4209  140.1770  156.1506 H   0  0  0  0  0  0  0  0  0  0  0  0  # atno 8009 bound_to 7997
  155.9944  140.3342  155.6787 H   0  0  0  0  0  0  0  0  0  0  0  0  # atno 8010 bound_to 7997
  139.4894  144.5772  151.6943 H   0  0  0  0  0  0  0  0  0  0  0  0  # atno 10167 bound_to 10162
  157.0384  130.6221  149.5747 H   0  0  0  0  0  0  0  0  0  0  0  0  # atno 10718 bound_to 10713
  153.6306  135.3397  155.3040 H   0  0  0  0  0  0  0  0  0  0  0  0  # atno 10763 bound_to 10752
  154.8581  135.4294  154.2110 H   0  0  0  0  0  0  0  0  0  0  0  0  # atno 10764 bound_to 10752
  153.3005  135.7024  153.7281 H   0  0  0  0  0  0  0  0  0  0  0  0  # atno 10765 bound_to 10752
  140.6478  133.9432  155.8362 H   0  0  0  0  0  0  0  0  0  0  0  0  # atno 11005 bound_to 11000
  146.2838  140.4488  142.8766 LP  0  0  0  0  0  0  0  0  0  0  0  0  # atno 17320 bound_to 7965
  144.8501  140.6989  143.6173 LP  0  0  0  0  0  0  0  0  0  0  0  0  # atno 17321 bound_to 7965
  140.5370  144.0639  150.6074 LP  0  0  0  0  0  0  0  0  0  0  0  0  # atno 17342 bound_to 10162
  140.3649  143.2887  152.0343 LP  0  0  0  0  0  0  0  0  0  0  0  0  # atno 17343 bound_to 10162
  156.0046  130.5131  150.7785 LP  0  0  0  0  0  0  0  0  0  0  0  0  # atno 17370 bound_to 10713
  157.5124  131.0926  151.0182 LP  0  0  0  0  0  0  0  0  0  0  0  0  # atno 17371 bound_to 10713
  141.0559  134.0417  157.3722 LP  0  0  0  0  0  0  0  0  0  0  0  0  # atno 17394 bound_to 11000
  139.9057  135.0178  156.7473 LP  0  0  0  0  0  0  0  0  0  0  0  0  # atno 17395 bound_to 11000

$$$$
