AV-unprocessed.smi:1173|AV-procd|sdf|4945|dock3
  -GOLD-   22720 3533D 1   1.00000     0.00000
 Structure written by MMmdl.
 37 38  0  0  0  0  0  0  0  0  1 V2000
  147.9657  140.4114  156.8507 C   0  0  0  0  0  0  0  0  0  0  0  0
  148.1370  140.6968  155.4211 N   0  0  0  0  0  0  0  0  0  0  0  0
  146.9084  140.9474  154.6492 C   0  0  0  0  0  0  0  0  0  0  0  0
  146.3577  142.3680  154.8379 C   0  0  0  0  0  0  0  0  0  0  0  0
  146.0495  142.7281  156.0860 N   0  0  0  0  0  0  0  0  0  0  0  0
  146.1941  143.1238  153.8813 O   0  0  0  0  0  0  0  0  0  0  0  0
  149.3553  140.7525  154.8255 C   0  0  0  0  0  0  0  0  0  0  0  0
  149.5203  141.0654  153.6457 O   0  0  0  0  0  0  0  0  0  0  0  0
  150.5567  140.4098  155.6570 C   0  0  0  0  0  0  0  0  0  0  0  0
  150.8630  141.2547  156.6670 N   0  0  0  0  0  0  0  0  0  0  0  0
  151.9344  140.9803  157.4221 C   0  0  0  0  0  0  0  0  0  0  0  0
  152.2345  141.8651  158.4666 N   0  0  0  0  0  0  0  0  0  0  0  0
  151.9525  143.2995  158.3650 C   0  0  0  0  0  0  0  0  0  0  0  0
  151.6767  143.9050  159.7517 C   0  0  0  0  0  0  0  0  0  0  0  0
  152.7647  143.6272  160.6240 O   0  0  0  0  0  0  0  0  0  0  0  0
  152.9379  142.2285  160.8119 C   0  0  0  0  0  0  0  0  0  0  0  0
  153.2608  141.5571  159.4662 C   0  0  0  0  0  0  0  0  0  0  0  0
  152.7390  139.9229  157.2518 N   0  0  0  0  0  0  0  0  0  0  0  0
  152.4581  139.0733  156.2412 C   0  0  0  0  0  0  0  0  0  0  0  0
  151.3561  139.2730  155.3885 C   0  0  0  0  0  0  0  0  0  0  0  0
  151.0410  138.1804  154.0850 Cl  0  0  0  0  0  0  0  0  0  0  0  0
  148.2569  139.3863  157.0793 H   0  0  0  0  0  0  0  0  0  0  0  0
  146.9314  140.5251  157.1759 H   0  0  0  0  0  0  0  0  0  0  0  0
  148.5687  141.0861  157.4601 H   0  0  0  0  0  0  0  0  0  0  0  0
  147.0838  140.7894  153.5847 H   0  0  0  0  0  0  0  0  0  0  0  0
  146.1378  140.2226  154.9188 H   0  0  0  0  0  0  0  0  0  0  0  0
  145.6802  143.6497  156.2698 H   0  0  0  0  0  0  0  0  0  0  0  0
  146.1843  142.0742  156.8438 H   0  0  0  0  0  0  0  0  0  0  0  0
  152.8107  143.7913  157.9060 H   0  0  0  0  0  0  0  0  0  0  0  0
  151.0924  143.5048  157.7281 H   0  0  0  0  0  0  0  0  0  0  0  0
  151.5557  144.9854  159.6706 H   0  0  0  0  0  0  0  0  0  0  0  0
  150.7488  143.5118  160.1704 H   0  0  0  0  0  0  0  0  0  0  0  0
  153.7531  142.0645  161.5167 H   0  0  0  0  0  0  0  0  0  0  0  0
  152.0410  141.7948  161.2574 H   0  0  0  0  0  0  0  0  0  0  0  0
  153.3566  140.4850  159.6369 H   0  0  0  0  0  0  0  0  0  0  0  0
  154.2247  141.9068  159.0947 H   0  0  0  0  0  0  0  0  0  0  0  0
  153.1223  138.2320  156.1098 H   0  0  0  0  0  0  0  0  0  0  0  0
  1  2  1  0  0  0  0
  1 22  1  0  0  0  0
  1 23  1  0  0  0  0
  1 24  1  0  0  0  0
  2  3  1  0  0  0  0
  2  7  1  0  0  0  0
  3  4  1  0  0  0  0
  3 25  1  0  0  0  0
  3 26  1  0  0  0  0
  4  5  1  0  0  0  0
  4  6  2  0  0  0  0
  5 27  1  0  0  0  0
  5 28  1  0  0  0  0
  7  8  2  0  0  0  0
  7  9  1  0  0  0  0
  9 20  1  0  0  0  0
  9 10  2  0  0  0  0
 10 11  1  0  0  0  0
 11 12  1  0  0  0  0
 11 18  2  0  0  0  0
 12 17  1  0  0  0  0
 12 13  1  0  0  0  0
 13 14  1  0  0  0  0
 13 29  1  0  0  0  0
 13 30  1  0  0  0  0
 14 15  1  0  0  0  0
 14 31  1  0  0  0  0
 14 32  1  0  0  0  0
 15 16  1  0  0  0  0
 16 17  1  0  0  0  0
 16 33  1  0  0  0  0
 16 34  1  0  0  0  0
 17 35  1  0  0  0  0
 17 36  1  0  0  0  0
 18 19  1  0  0  0  0
 19 20  2  0  0  0  0
 19 37  1  0  0  0  0
 20 21  1  0  0  0  0
M  END
> <s_m_source_file>
AV-unprocessed.smi

> <i_m_source_file_index>
1173

> <i_lp_mmshare_version>
43012

> <i_f3d_flags>
0

> <s_epik_input>
W05IMl1DKD1PKVtDSDJdTihbQ0gzXSlDKD1PKWMxbmMobltjSF1jMUNsKU4yW0NIMl1bQ0gyXU9bQ0gyXVtDSDJdMg==

> <s_epik_cmdline>
J2VwaWtfcHl0aG9uJywgJy1waCcsICc3LjAnLCAnLXRuJywgJzgnLCAnLW1hJywgJzIwMCcsICctbWV0YWxfYmluZGluZycsICctaW1hZScsICc8aW5maWxlLm1hZT4nLCAnLW9tYWUnLCAnPG91dGZpbGUubWFlPic=

> <r_lp_tautomer_probability>
1

> <r_epik_Ionization_Penalty>
9.52456e-08

> <r_epik_Ionization_Penalty_Charging>
0

> <r_epik_Ionization_Penalty_Neutral>
9.52456e-08

> <r_epik_State_Penalty>
-0

> <r_epik_Charging_Adjusted_Penalty>
0

> <i_epik_Tot_Q>
0

> <i_epik_Tot_abs_Q>
0

> <r_epik_Metal_State_Penalty>
-0

> <b_epik_Metal_Only>
0

> <s_lp_Force_Field>
OPLS_2005

> <r_lp_Energy>
19.8888

> <b_lp_Chiralities_Consistent>
1

> <s_lp_Variant>
AV-unprocessed.smi:1173-1

> <Gold.Version>
5.8.1

> <Gold.Id.Protein>
6NUR|6NUR_protein|mol2

> <Gold.PLP.Fitness>
42.7977

> <Gold.PLP.PLP>
-38.1874

> <Gold.PLP.part.hbond>
-3.7568

> <Gold.PLP.part.metal>
0.0000

> <Gold.PLP.part.buried>
-5.6934

> <Gold.PLP.part.nonpolar>
-32.0368

> <Gold.PLP.part.repulsive>
3.3208

> <Gold.PLP.ligand.clash>
0.0000

> <Gold.PLP.ligand.torsion>
1.7716

> <Gold.PLP.Chemscore.Hbond>
2.1292

> <Gold.PLP.Chemscore.CHOScore>
0.0000

> <Gold.PLP.Chemscore.Metal>
0.0000

> <Gold.Chemscore.Hbonds>
donor molecule, donor type, donor heavy atom, donor atom, acceptor molecule, acceptor atom, score
      P1  H  7989  7998       L1     8  0.24
      P1  H  7997  8008       L1    18  0.80
      P1  H  8011  8017       L1     8  0.99

> <Gold.PLP.Chemscore.Internal.Correction>
1.7659

> <Gold.Rescore>
     Score         DG    S(hbond)    S(metal)    S(lipo)     H(rot)  DE(clash)    DE(int)     intcor
     12.12     -15.39       1.43        0.00      77.51       1.54       1.48       1.79       ----

> <Gold.Chemscore.Fitness>
12.1183

> <Gold.Chemscore.DG>
-15.3892

> <Gold.Chemscore.ZeroCoef>
-5.4800

> <Gold.Chemscore.Hbond>
1.4303

> <Gold.Chemscore.Metal>
0.0000

> <Gold.Chemscore.Lipo>
77.5076

> <Gold.Chemscore.Internal_Hbond>
0.0000

> <Gold.Chemscore.DEClash>
1.4787

> <Gold.Chemscore.DEInternal>
1.7921

> <Gold.Chemscore.Rot>
1.5377

> <Gold.Chemscore.Internal.Correction>
   9.000000E+99

> <Gold.Chemscore.Hbonds>
donor molecule, donor type, donor heavy atom, donor atom, acceptor molecule, acceptor atom, score
      P1  H  7989  7998       L1     8  0.08
      P1  H  7997  8008       L1    18  0.11
      P1  H  8011  8017       L1     8  0.94

> <Gold.Chemscore.Hbond.Weighted>
-4.7773

> <Gold.Chemscore.Metal.Weighted>
-0.0000

> <Gold.Chemscore.Lipo.Weighted>
-9.0684

> <Gold.Chemscore.Internal_Hbond.Weighted>
0.0000

> <Gold.Chemscore.DEClash.Weighted>
1.4787

> <Gold.Chemscore.DEInternal.Weighted>
1.7921

> <Gold.Chemscore.Rot.Weighted>
3.9366

> <Gold.Chemscore.Internal.Correction.Weighted>
   9.000000E+99

> <Gold.Protein.RotatedTorsions>
[ 6907 6896 6895 6894 ] final  -25.08 input  -60.11 | X-H torsion
[ 7974 7965 7964 7962 ] final  119.51 input  175.53 | X-H torsion
[ 8008 7997 7996 7995 ] final  -77.21 input   59.86 | X-H torsion
[ 10167 10162 10161 10158 ] final  -51.36 input  -65.29 | X-H torsion
[ 10718 10713 10712 10709 ] final  -63.50 input   66.30 | X-H torsion
[ 10763 10752 10751 10750 ] final  153.75 input  -60.55 | X-H torsion
[ 11005 11000 10999 10996 ] final -164.49 input  -57.11 | X-H torsion

> <Gold.Protein.ActiveResidues>
 VAL166  LYS551  ARG553  GLY616  TRP617  ASP618  TYR619  PRO620  LYS621  CYS622 
 ASP623  PHE694  ASN695  SER759  ASP760  ASP761  ALA762  ILE779  LEU786  VAL792 
 PHE793  MET794  SER795  GLU796  ALA797  LYS798  CYS799  TRP800  GLU811  SER814 

> <Gold.Protein.RotatedAtoms>
  151.1803  135.0358  159.8789 H   0  0  0  0  0  0  0  0  0  0  0  0  # atno 6907 bound_to 6896
  152.5445  134.1070  159.8352 H   0  0  0  0  0  0  0  0  0  0  0  0  # atno 6908 bound_to 6896
  151.1187  133.5073  159.2635 H   0  0  0  0  0  0  0  0  0  0  0  0  # atno 6909 bound_to 6896
  145.1422  139.3261  143.4610 H   0  0  0  0  0  0  0  0  0  0  0  0  # atno 7974 bound_to 7965
  154.5575  140.0714  156.8767 H   0  0  0  0  0  0  0  0  0  0  0  0  # atno 8008 bound_to 7997
  155.2874  140.3375  155.4236 H   0  0  0  0  0  0  0  0  0  0  0  0  # atno 8009 bound_to 7997
  156.2015  140.1723  156.7876 H   0  0  0  0  0  0  0  0  0  0  0  0  # atno 8010 bound_to 7997
  140.6592  143.2622  151.4492 H   0  0  0  0  0  0  0  0  0  0  0  0  # atno 10167 bound_to 10162
  156.0787  130.4221  150.1286 H   0  0  0  0  0  0  0  0  0  0  0  0  # atno 10718 bound_to 10713
  154.1413  135.2820  155.3160 H   0  0  0  0  0  0  0  0  0  0  0  0  # atno 10763 bound_to 10752
  154.6285  135.5443  153.7657 H   0  0  0  0  0  0  0  0  0  0  0  0  # atno 10764 bound_to 10752
  153.0250  135.6456  154.1560 H   0  0  0  0  0  0  0  0  0  0  0  0  # atno 10765 bound_to 10752
  140.5863  134.5090  157.5186 H   0  0  0  0  0  0  0  0  0  0  0  0  # atno 11005 bound_to 11000
  146.3504  140.1464  142.8593 LP  0  0  0  0  0  0  0  0  0  0  0  0  # atno 17320 bound_to 7965
  145.0520  140.9024  143.4990 LP  0  0  0  0  0  0  0  0  0  0  0  0  # atno 17321 bound_to 7965
  139.5822  144.1685  152.1982 LP  0  0  0  0  0  0  0  0  0  0  0  0  # atno 17342 bound_to 10162
  140.1014  144.5536  150.6987 LP  0  0  0  0  0  0  0  0  0  0  0  0  # atno 17343 bound_to 10162
  156.9322  130.9717  151.3531 LP  0  0  0  0  0  0  0  0  0  0  0  0  # atno 17370 bound_to 10713
  157.5894  130.8433  149.8637 LP  0  0  0  0  0  0  0  0  0  0  0  0  # atno 17371 bound_to 10713
  139.9294  134.7993  156.0974 LP  0  0  0  0  0  0  0  0  0  0  0  0  # atno 17394 bound_to 11000
  141.0964  133.6694  156.2654 LP  0  0  0  0  0  0  0  0  0  0  0  0  # atno 17395 bound_to 11000

$$$$
