AV-unprocessed.smi:644|AV-procd|sdf|3155|dock9
  -GOLD-   22720 0 83D 1   1.00000     0.00000
 Structure written by MMmdl.
 37 39  0  0  0  0  0  0  0  0  1 V2000
  153.4667  142.4057  161.4180 C   0  0  0  0  0  0  0  0  0  0  0  0
  152.7480  142.1304  160.1090 C   0  0  0  0  0  0  0  0  0  0  0  0
  153.1203  141.0011  159.3454 C   0  0  0  0  0  0  0  0  0  0  0  0
  152.4752  140.7082  158.1240 C   0  0  0  0  0  0  0  0  0  0  0  0
  152.6728  139.6707  157.2290 N   0  0  0  0  0  0  0  0  0  0  0  0
  151.7691  139.9476  156.2934 C   0  0  0  0  0  0  0  0  0  0  0  0
  151.0055  141.0415  156.4785 N   0  0  0  0  0  0  0  0  0  0  0  0
  149.9601  141.5400  155.6022 C   0  0  0  0  0  0  0  0  0  0  0  0
  149.5353  140.5035  154.5445 C   0  0  2  0  0  0  0  0  0  0  0  0
  149.5128  141.1135  153.2677 O   0  0  0  0  0  0  0  0  0  0  0  0
  148.1498  139.9089  154.8424 C   0  0  0  0  0  0  0  0  0  0  0  0
  147.3953  140.6442  156.3218 S   0  0  0  0  0  0  0  0  0  0  0  0
  146.5233  141.9371  155.5167 C   0  0  0  0  0  0  0  0  0  0  0  0
  145.6875  142.7736  156.1440 N   0  0  0  0  0  0  0  0  0  0  0  0
  145.1295  143.7036  155.2759 N   0  0  0  0  0  0  0  0  0  0  0  0
  145.5654  143.5293  154.0252 C   0  0  0  0  0  0  0  0  0  0  0  0
  146.7019  142.2143  153.7884 S   0  0  0  0  0  0  0  0  0  0  0  0
  151.4402  141.5837  157.6830 C   0  0  0  0  0  0  0  0  0  0  0  0
  151.0619  142.7114  158.4328 C   0  0  0  0  0  0  0  0  0  0  0  0
  151.7152  142.9883  159.6520 C   0  0  0  0  0  0  0  0  0  0  0  0
  151.2972  144.2065  160.4567 C   0  0  0  0  0  0  0  0  0  0  0  0
  154.2444  141.6656  161.6081 H   0  0  0  0  0  0  0  0  0  0  0  0
  152.7653  142.3757  162.2522 H   0  0  0  0  0  0  0  0  0  0  0  0
  153.9389  143.3881  161.3965 H   0  0  0  0  0  0  0  0  0  0  0  0
  153.9062  140.3471  159.6933 H   0  0  0  0  0  0  0  0  0  0  0  0
  151.6516  139.3162  155.4247 H   0  0  0  0  0  0  0  0  0  0  0  0
  149.1061  141.8221  156.2194 H   0  0  0  0  0  0  0  0  0  0  0  0
  150.3124  142.4537  155.1210 H   0  0  0  0  0  0  0  0  0  0  0  0
  150.2699  139.6976  154.5208 H   0  0  0  0  0  0  0  0  0  0  0  0
  149.4271  140.4366  152.6139 H   0  0  0  0  0  0  0  0  0  0  0  0
  147.4790  140.0876  154.0011 H   0  0  0  0  0  0  0  0  0  0  0  0
  148.2190  138.8277  154.9686 H   0  0  0  0  0  0  0  0  0  0  0  0
  145.2150  144.1793  153.2372 H   0  0  0  0  0  0  0  0  0  0  0  0
  150.2738  143.3560  158.0724 H   0  0  0  0  0  0  0  0  0  0  0  0
  150.4748  144.7380  159.9770 H   0  0  0  0  0  0  0  0  0  0  0  0
  152.1311  144.9012  160.5580 H   0  0  0  0  0  0  0  0  0  0  0  0
  150.9677  143.9124  161.4536 H   0  0  0  0  0  0  0  0  0  0  0  0
  1  2  1  0  0  0  0
  1 22  1  0  0  0  0
  1 23  1  0  0  0  0
  1 24  1  0  0  0  0
  2 20  1  0  0  0  0
  2  3  2  0  0  0  0
  3  4  1  0  0  0  0
  3 25  1  0  0  0  0
  4 18  2  0  0  0  0
  4  5  1  0  0  0  0
  5  6  2  0  0  0  0
  6  7  1  0  0  0  0
  6 26  1  0  0  0  0
  7  8  1  0  0  0  0
  7 18  1  0  0  0  0
  8  9  1  0  0  0  0
  8 27  1  0  0  0  0
  8 28  1  0  0  0  0
  9 10  1  0  0  0  0
  9 11  1  0  0  0  0
  9 29  1  0  0  0  0
 10 30  1  0  0  0  0
 11 12  1  0  0  0  0
 11 31  1  0  0  0  0
 11 32  1  0  0  0  0
 12 13  1  0  0  0  0
 13 17  1  0  0  0  0
 13 14  2  0  0  0  0
 14 15  1  0  0  0  0
 15 16  2  0  0  0  0
 16 17  1  0  0  0  0
 16 33  1  0  0  0  0
 18 19  1  0  0  0  0
 19 20  2  0  0  0  0
 19 34  1  0  0  0  0
 20 21  1  0  0  0  0
 21 35  1  0  0  0  0
 21 36  1  0  0  0  0
 21 37  1  0  0  0  0
M  END
> <s_m_source_file>
AV-unprocessed.smi

> <i_m_source_file_index>
644

> <i_lp_mmshare_version>
43012

> <i_f3d_flags>
0

> <s_epik_input>
W0NIM11jKFtjSF0xKWMoW0NIM10pW2NIXWMoYzEyKW4oW2NIXW4yKVtDSDJdW0NASF0oW09IXSlbQ0gyXVNjM25uW2NIXXMz

> <s_epik_cmdline>
J2VwaWtfcHl0aG9uJywgJy1waCcsICc3LjAnLCAnLXRuJywgJzgnLCAnLW1hJywgJzIwMCcsICctbWV0YWxfYmluZGluZycsICctaW1hZScsICc8aW5maWxlLm1hZT4nLCAnLW9tYWUnLCAnPG91dGZpbGUubWFlPic=

> <r_lp_tautomer_probability>
1

> <r_epik_Ionization_Penalty>
0.105397

> <r_epik_Ionization_Penalty_Charging>
0

> <r_epik_Ionization_Penalty_Neutral>
0.105397

> <r_epik_State_Penalty>
0.0952713

> <r_epik_Charging_Adjusted_Penalty>
0.0952713

> <i_epik_Tot_Q>
0

> <i_epik_Tot_abs_Q>
0

> <r_epik_Metal_State_Penalty>
0.0807681

> <b_epik_Metal_Only>
0

> <s_lp_Force_Field>
OPLS_2005

> <r_lp_Energy>
9.27729

> <b_lp_Chiralities_Consistent>
1

> <s_lp_Variant>
AV-unprocessed.smi:644-1

> <Gold.Version>
5.8.1

> <Gold.Id.Protein>
6NUR|6NUR_protein|mol2

> <Gold.PLP.Fitness>
49.6559

> <Gold.PLP.PLP>
-44.4908

> <Gold.PLP.part.hbond>
-3.4380

> <Gold.PLP.part.metal>
0.0000

> <Gold.PLP.part.buried>
-5.5226

> <Gold.PLP.part.nonpolar>
-34.7392

> <Gold.PLP.part.repulsive>
0.3098

> <Gold.PLP.ligand.clash>
0.0000

> <Gold.PLP.ligand.torsion>
1.8144

> <Gold.PLP.Chemscore.Hbond>
2.9169

> <Gold.PLP.Chemscore.CHOScore>
0.0000

> <Gold.PLP.Chemscore.Metal>
0.0000

> <Gold.Chemscore.Hbonds>
donor molecule, donor type, donor heavy atom, donor atom, acceptor molecule, acceptor atom, score
      L1  H    10    30       P1  7957  0.89
      P1  H  7989  7998       L1    10  0.01
      P1  H  7997  8010       L1     5  1.00
      P1  H  8011  8017       L1    10  1.00

> <Gold.PLP.Chemscore.Internal.Correction>
0.0431

> <Gold.Rescore>
     Score         DG    S(hbond)    S(metal)    S(lipo)     H(rot)  DE(clash)    DE(int)     intcor
     16.98     -19.28       2.12        0.00     111.14       2.46       0.35       1.95       ----

> <Gold.Chemscore.Fitness>
16.9838

> <Gold.Chemscore.DG>
-19.2806

> <Gold.Chemscore.ZeroCoef>
-5.4800

> <Gold.Chemscore.Hbond>
2.1233

> <Gold.Chemscore.Metal>
0.0000

> <Gold.Chemscore.Lipo>
111.1397

> <Gold.Chemscore.Internal_Hbond>
0.0000

> <Gold.Chemscore.DEClash>
0.3497

> <Gold.Chemscore.DEInternal>
1.9471

> <Gold.Chemscore.Rot>
2.4588

> <Gold.Chemscore.Internal.Correction>
   9.000000E+99

> <Gold.Chemscore.Hbonds>
donor molecule, donor type, donor heavy atom, donor atom, acceptor molecule, acceptor atom, score
      L1  H    10    30       P1  7957  0.82
      P1  H  7997  8010       L1     5  0.20
      P1  H  8011  8017       L1    10  0.30

> <Gold.Chemscore.Hbond.Weighted>
-7.0919

> <Gold.Chemscore.Metal.Weighted>
-0.0000

> <Gold.Chemscore.Lipo.Weighted>
-13.0033

> <Gold.Chemscore.Internal_Hbond.Weighted>
0.0000

> <Gold.Chemscore.DEClash.Weighted>
0.3497

> <Gold.Chemscore.DEInternal.Weighted>
1.9471

> <Gold.Chemscore.Rot.Weighted>
6.2946

> <Gold.Chemscore.Internal.Correction.Weighted>
   9.000000E+99

> <Gold.Protein.RotatedTorsions>
[ 6907 6896 6895 6894 ] final   60.72 input  -60.11 | X-H torsion
[ 7974 7965 7964 7962 ] final -124.33 input  175.53 | X-H torsion
[ 8008 7997 7996 7995 ] final   66.98 input   59.86 | X-H torsion
[ 10167 10162 10161 10158 ] final  122.97 input  -65.29 | X-H torsion
[ 10718 10713 10712 10709 ] final -117.02 input   66.30 | X-H torsion
[ 10763 10752 10751 10750 ] final -140.80 input  -60.55 | X-H torsion
[ 11005 11000 10999 10996 ] final  -85.18 input  -57.11 | X-H torsion

> <Gold.Protein.ActiveResidues>
 VAL166  LYS551  ARG553  GLY616  TRP617  ASP618  TYR619  PRO620  LYS621  CYS622 
 ASP623  PHE694  ASN695  SER759  ASP760  ASP761  ALA762  ILE779  LEU786  VAL792 
 PHE793  MET794  SER795  GLU796  ALA797  LYS798  CYS799  TRP800  GLU811  SER814 

> <Gold.Protein.RotatedAtoms>
  152.4027  134.6258  160.0062 H   0  0  0  0  0  0  0  0  0  0  0  0  # atno 6907 bound_to 6896
  151.6459  133.3318  159.3148 H   0  0  0  0  0  0  0  0  0  0  0  0  # atno 6908 bound_to 6896
  150.7926  134.7003  159.6591 H   0  0  0  0  0  0  0  0  0  0  0  0  # atno 6909 bound_to 6896
  145.0093  140.7891  143.4448 H   0  0  0  0  0  0  0  0  0  0  0  0  # atno 7974 bound_to 7965
  155.6859  140.3496  155.4874 H   0  0  0  0  0  0  0  0  0  0  0  0  # atno 8008 bound_to 7997
  155.9567  140.1129  157.0953 H   0  0  0  0  0  0  0  0  0  0  0  0  # atno 8009 bound_to 7997
  154.4134  140.1183  156.5110 H   0  0  0  0  0  0  0  0  0  0  0  0  # atno 8010 bound_to 7997
  139.5827  144.6993  151.3488 H   0  0  0  0  0  0  0  0  0  0  0  0  # atno 10167 bound_to 10162
  156.1004  130.6167  150.9111 H   0  0  0  0  0  0  0  0  0  0  0  0  # atno 10718 bound_to 10713
  154.8566  135.3542  154.5766 H   0  0  0  0  0  0  0  0  0  0  0  0  # atno 10763 bound_to 10752
  153.6378  135.6999  153.5257 H   0  0  0  0  0  0  0  0  0  0  0  0  # atno 10764 bound_to 10752
  153.2996  135.4210  155.1200 H   0  0  0  0  0  0  0  0  0  0  0  0  # atno 10765 bound_to 10752
  141.1643  133.7386  156.8978 H   0  0  0  0  0  0  0  0  0  0  0  0  # atno 11005 bound_to 11000
  145.2046  139.2235  143.5175 LP  0  0  0  0  0  0  0  0  0  0  0  0  # atno 17320 bound_to 7965
  146.3467  140.1870  142.8589 LP  0  0  0  0  0  0  0  0  0  0  0  0  # atno 17321 bound_to 7965
  140.7103  143.7408  150.7555 LP  0  0  0  0  0  0  0  0  0  0  0  0  # atno 17342 bound_to 10162
  140.0945  143.4846  152.2460 LP  0  0  0  0  0  0  0  0  0  0  0  0  # atno 17343 bound_to 10162
  157.6173  131.0932  150.8686 LP  0  0  0  0  0  0  0  0  0  0  0  0  # atno 17370 bound_to 10713
  156.8815  130.5181  149.5290 LP  0  0  0  0  0  0  0  0  0  0  0  0  # atno 17371 bound_to 10713
  140.1604  134.9169  157.2707 LP  0  0  0  0  0  0  0  0  0  0  0  0  # atno 17394 bound_to 11000
  140.2618  134.3562  155.7404 LP  0  0  0  0  0  0  0  0  0  0  0  0  # atno 17395 bound_to 11000

$$$$
