AV-unprocessed.smi:890|AV-procd|sdf|4060|dock9
  -GOLD-   22720 1553D 1   1.00000     0.00000
 Structure written by MMmdl.
 53 56  0  0  0  0  0  0  0  0  3 V2000
  146.8816  137.2657  153.2537 O   0  0  0  0  0  0  0  0  0  0  0  0
  146.0883  138.1902  153.0862 C   0  0  0  0  0  0  0  0  0  0  0  0
  146.2885  139.4722  153.4384 N   0  0  0  0  0  0  0  0  0  0  0  0
  147.4221  140.0937  154.0442 C   0  0  0  0  0  0  0  0  0  0  0  0
  148.6920  139.4708  154.1735 C   0  0  0  0  0  0  0  0  0  0  0  0
  149.7555  140.1665  154.7823 C   0  0  0  0  0  0  0  0  0  0  0  0
  149.5407  141.4743  155.2520 C   0  0  0  0  0  0  0  0  0  0  0  0
  148.3254  142.0420  155.1122 N   0  3  0  0  0  0  0  0  0  0  0  0
  147.2697  141.4175  154.5345 C   0  0  0  0  0  0  0  0  0  0  0  0
  146.0461  142.1037  154.4416 N   0  0  0  0  0  0  0  0  0  0  0  0
  146.0914  143.3790  153.7460 C   0  0  0  0  0  0  0  0  0  0  0  0
  144.7744  144.0744  154.0949 C   0  0  0  0  0  0  0  0  0  0  0  0
  144.3367  143.4402  155.4208 C   0  0  0  0  0  0  0  0  0  0  0  0
  145.3842  142.3602  155.7103 C   0  0  0  0  0  0  0  0  0  0  0  0
  144.8849  138.0302  152.5167 N   0  0  0  0  0  0  0  0  0  0  0  0
  144.3663  136.7712  151.9884 C   0  0  2  0  0  0  0  0  0  0  0  0
  143.9250  135.8610  153.1465 C   0  0  0  0  0  0  0  0  0  0  0  0
  143.4451  134.4957  152.6253 C   0  0  0  0  0  0  0  0  0  0  0  0
  144.4986  133.8342  151.8161 N   0  3  1  0  0  0  0  0  0  0  0  0
  144.1046  132.4713  151.3973 C   0  0  0  0  0  0  0  0  0  0  0  0
  144.9151  131.9344  150.2404 C   0  0  0  0  0  0  0  0  0  0  0  0
  143.4975  132.4107  150.0149 C   0  0  0  0  0  0  0  0  0  0  0  0
  144.9172  134.6745  150.6665 C   0  0  0  0  0  0  0  0  0  0  0  0
  145.4277  136.0463  151.1392 C   0  0  0  0  0  0  0  0  0  0  0  0
  145.5198  140.0974  153.2447 H   0  0  0  0  0  0  0  0  0  0  0  0
  148.8885  138.4729  153.8181 H   0  0  0  0  0  0  0  0  0  0  0  0
  150.7247  139.7005  154.8853 H   0  0  0  0  0  0  0  0  0  0  0  0
  150.2976  142.0797  155.7293 H   0  0  0  0  0  0  0  0  0  0  0  0
  146.9341  143.9782  154.0937 H   0  0  0  0  0  0  0  0  0  0  0  0
  146.1979  143.2382  152.6699 H   0  0  0  0  0  0  0  0  0  0  0  0
  144.8938  145.1557  154.1672 H   0  0  0  0  0  0  0  0  0  0  0  0
  144.0277  143.8737  153.3255 H   0  0  0  0  0  0  0  0  0  0  0  0
  144.2876  144.1703  156.2292 H   0  0  0  0  0  0  0  0  0  0  0  0
  143.3460  142.9966  155.3139 H   0  0  0  0  0  0  0  0  0  0  0  0
  144.9246  141.4524  156.1020 H   0  0  0  0  0  0  0  0  0  0  0  0
  146.1002  142.7209  156.4502 H   0  0  0  0  0  0  0  0  0  0  0  0
  144.2912  138.8415  152.4229 H   0  0  0  0  0  0  0  0  0  0  0  0
  143.4932  136.9791  151.3662 H   0  0  0  0  0  0  0  0  0  0  0  0
  144.7542  135.7121  153.8401 H   0  0  0  0  0  0  0  0  0  0  0  0
  143.1270  136.3388  153.7163 H   0  0  0  0  0  0  0  0  0  0  0  0
  143.1764  133.8585  153.4687 H   0  0  0  0  0  0  0  0  0  0  0  0
  142.5445  134.6187  152.0214 H   0  0  0  0  0  0  0  0  0  0  0  0
  143.7570  131.8040  152.1839 H   0  0  0  0  0  0  0  0  0  0  0  0
  145.7199  132.5505  149.8427 H   0  0  0  0  0  0  0  0  0  0  0  0
  145.0917  130.8612  150.2067 H   0  0  0  0  0  0  0  0  0  0  0  0
  142.7404  131.6510  149.8315 H   0  0  0  0  0  0  0  0  0  0  0  0
  143.3623  133.3425  149.4689 H   0  0  0  0  0  0  0  0  0  0  0  0
  145.7049  134.1658  150.1095 H   0  0  0  0  0  0  0  0  0  0  0  0
  144.0772  134.8022  149.9815 H   0  0  0  0  0  0  0  0  0  0  0  0
  145.6994  136.6520  150.2738 H   0  0  0  0  0  0  0  0  0  0  0  0
  146.3412  135.9117  151.7206 H   0  0  0  0  0  0  0  0  0  0  0  0
  145.3064  133.7310  152.4135 H   0  0  0  0  0  0  0  0  0  0  0  0
  148.1947  142.9922  155.4598 H   0  0  0  0  0  0  0  0  0  0  0  0
  1  2  2  0  0  0  0
  2  3  1  0  0  0  0
  2 15  1  0  0  0  0
  3  4  1  0  0  0  0
  3 25  1  0  0  0  0
  4  9  1  0  0  0  0
  4  5  2  0  0  0  0
  5  6  1  0  0  0  0
  5 26  1  0  0  0  0
  6  7  2  0  0  0  0
  6 27  1  0  0  0  0
  7  8  1  0  0  0  0
  7 28  1  0  0  0  0
  8  9  2  0  0  0  0
  8 53  1  0  0  0  0
  9 10  1  0  0  0  0
 10 14  1  0  0  0  0
 10 11  1  0  0  0  0
 11 12  1  0  0  0  0
 11 29  1  0  0  0  0
 11 30  1  0  0  0  0
 12 13  1  0  0  0  0
 12 31  1  0  0  0  0
 12 32  1  0  0  0  0
 13 14  1  0  0  0  0
 13 33  1  0  0  0  0
 13 34  1  0  0  0  0
 14 35  1  0  0  0  0
 14 36  1  0  0  0  0
 15 16  1  0  0  0  0
 15 37  1  0  0  0  0
 16 24  1  0  0  0  0
 16 17  1  0  0  0  0
 16 38  1  0  0  0  0
 17 18  1  0  0  0  0
 17 39  1  0  0  0  0
 17 40  1  0  0  0  0
 18 19  1  0  0  0  0
 18 41  1  0  0  0  0
 18 42  1  0  0  0  0
 19 20  1  0  0  0  0
 19 23  1  0  0  0  0
 19 52  1  0  0  0  0
 20 22  1  0  0  0  0
 20 21  1  0  0  0  0
 20 43  1  0  0  0  0
 21 22  1  0  0  0  0
 21 44  1  0  0  0  0
 21 45  1  0  0  0  0
 22 46  1  0  0  0  0
 22 47  1  0  0  0  0
 23 24  1  0  0  0  0
 23 48  1  0  0  0  0
 23 49  1  0  0  0  0
 24 50  1  0  0  0  0
 24 51  1  0  0  0  0
M  CHG  1   8   1
M  CHG  1  19   1
M  END
> <s_m_source_file>
AV-unprocessed.smi

> <i_m_source_file_index>
890

> <i_lp_mmshare_version>
43012

> <i_f3d_flags>
0

> <s_epik_input>
W0NIMl0xW0NIMl1bQ0hdMU4oW0NIMl1bQ0gyXTIpW0NIMl1bQ0gyXVtDSF0yW05IXUMoPU8pW05IXWMzW2NIXVtjSF1bY0hdbmMzTjRbQ0gyXVtDSDJdW0NIMl1bQ0gyXTQ=

> <s_epik_cmdline>
J2VwaWtfcHl0aG9uJywgJy1waCcsICc3LjAnLCAnLXRuJywgJzgnLCAnLW1hJywgJzIwMCcsICctbWV0YWxfYmluZGluZycsICctaW1hZScsICc8aW5maWxlLm1hZT4nLCAnLW9tYWUnLCAnPG91dGZpbGUubWFlPic=

> <r_lp_tautomer_probability>
0.999994

> <r_epik_Ionization_Penalty>
1.36901

> <r_epik_Ionization_Penalty_Charging>
1.36899

> <r_epik_Ionization_Penalty_Neutral>
1.88098e-05

> <r_epik_State_Penalty>
1.38441

> <r_epik_Charging_Adjusted_Penalty>
2.7534

> <i_epik_Tot_Q>
2

> <i_epik_Tot_abs_Q>
2

> <r_epik_Metal_State_Penalty>
1.45718

> <b_epik_Metal_Only>
0

> <s_lp_Force_Field>
OPLS_2005

> <r_lp_Energy>
65.7128

> <b_lp_Chiralities_Consistent>
1

> <s_lp_Variant>
AV-unprocessed.smi:890-4

> <Gold.Version>
5.8.1

> <Gold.Id.Protein>
6NUR|6NUR_protein|mol2

> <Gold.PLP.Fitness>
54.0540

> <Gold.PLP.PLP>
-42.6213

> <Gold.PLP.part.hbond>
-4.0000

> <Gold.PLP.part.metal>
0.0000

> <Gold.PLP.part.buried>
-3.7162

> <Gold.PLP.part.nonpolar>
-38.4791

> <Gold.PLP.part.repulsive>
3.4144

> <Gold.PLP.ligand.clash>
0.0000

> <Gold.PLP.ligand.torsion>
0.9242

> <Gold.PLP.Chemscore.Hbond>
4.0000

> <Gold.PLP.Chemscore.CHOScore>
0.0000

> <Gold.PLP.Chemscore.Metal>
0.0000

> <Gold.Chemscore.Hbonds>
donor molecule, donor type, donor heavy atom, donor atom, acceptor molecule, acceptor atom, score
      L1  H     3    25       P1 10175  1.00
      L1  H     8    53       P1  8028  1.95
      L1  H    15    37       P1 10175  1.00

> <Gold.PLP.Chemscore.Internal.Correction>
1.2811

> <Gold.Rescore>
     Score         DG    S(hbond)    S(metal)    S(lipo)     H(rot)  DE(clash)    DE(int)     intcor
     17.99     -22.26       2.73        0.00      94.92       1.35       0.94       3.33       ----

> <Gold.Chemscore.Fitness>
17.9916

> <Gold.Chemscore.DG>
-22.2590

> <Gold.Chemscore.ZeroCoef>
-5.4800

> <Gold.Chemscore.Hbond>
2.7326

> <Gold.Chemscore.Metal>
0.0000

> <Gold.Chemscore.Lipo>
94.9178

> <Gold.Chemscore.Internal_Hbond>
0.0000

> <Gold.Chemscore.DEClash>
0.9397

> <Gold.Chemscore.DEInternal>
3.3276

> <Gold.Chemscore.Rot>
1.3489

> <Gold.Chemscore.Internal.Correction>
   9.000000E+99

> <Gold.Chemscore.Hbonds>
donor molecule, donor type, donor heavy atom, donor atom, acceptor molecule, acceptor atom, score
      L1  H     3    25       P1 10175  0.90
      L1  H     8    53       P1  8028  0.88
      L1  H    15    37       P1 10175  1.00

> <Gold.Chemscore.Hbond.Weighted>
-9.1268

> <Gold.Chemscore.Metal.Weighted>
-0.0000

> <Gold.Chemscore.Lipo.Weighted>
-11.1054

> <Gold.Chemscore.Internal_Hbond.Weighted>
0.0000

> <Gold.Chemscore.DEClash.Weighted>
0.9397

> <Gold.Chemscore.DEInternal.Weighted>
3.3276

> <Gold.Chemscore.Rot.Weighted>
3.4532

> <Gold.Chemscore.Internal.Correction.Weighted>
   9.000000E+99

> <Gold.Protein.RotatedTorsions>
[ 6907 6896 6895 6894 ] final  127.82 input  -60.11 | X-H torsion
[ 7974 7965 7964 7962 ] final -167.00 input  175.53 | X-H torsion
[ 8008 7997 7996 7995 ] final  142.38 input   59.86 | X-H torsion
[ 10167 10162 10161 10158 ] final  117.31 input  -65.29 | X-H torsion
[ 10718 10713 10712 10709 ] final  152.57 input   66.30 | X-H torsion
[ 10763 10752 10751 10750 ] final   30.05 input  -60.55 | X-H torsion
[ 11005 11000 10999 10996 ] final  -48.39 input  -57.11 | X-H torsion

> <Gold.Protein.ActiveResidues>
 VAL166  LYS551  ARG553  GLY616  TRP617  ASP618  TYR619  PRO620  LYS621  CYS622 
 ASP623  PHE694  ASN695  SER759  ASP760  ASP761  ALA762  ILE779  LEU786  VAL792 
 PHE793  MET794  SER795  GLU796  ALA797  LYS798  CYS799  TRP800  GLU811  SER814 

> <Gold.Protein.RotatedAtoms>
  152.3777  133.6503  159.6136 H   0  0  0  0  0  0  0  0  0  0  0  0  # atno 6907 bound_to 6896
  150.7717  133.9166  159.3394 H   0  0  0  0  0  0  0  0  0  0  0  0  # atno 6908 bound_to 6896
  151.6977  135.0937  160.0296 H   0  0  0  0  0  0  0  0  0  0  0  0  # atno 6909 bound_to 6896
  144.7232  140.2583  143.6268 H   0  0  0  0  0  0  0  0  0  0  0  0  # atno 7974 bound_to 7965
  156.2950  140.2290  156.4718 H   0  0  0  0  0  0  0  0  0  0  0  0  # atno 8008 bound_to 7997
  154.7928  140.0453  157.1235 H   0  0  0  0  0  0  0  0  0  0  0  0  # atno 8009 bound_to 7997
  154.9625  140.3056  155.5028 H   0  0  0  0  0  0  0  0  0  0  0  0  # atno 8010 bound_to 7997
  139.6187  144.7097  151.2681 H   0  0  0  0  0  0  0  0  0  0  0  0  # atno 10167 bound_to 10162
  157.2561  131.0788  151.1697 H   0  0  0  0  0  0  0  0  0  0  0  0  # atno 10718 bound_to 10713
  153.0394  135.6474  154.0984 H   0  0  0  0  0  0  0  0  0  0  0  0  # atno 10763 bound_to 10752
  154.0694  135.2882  155.3312 H   0  0  0  0  0  0  0  0  0  0  0  0  # atno 10764 bound_to 10752
  154.6605  135.5393  153.8076 H   0  0  0  0  0  0  0  0  0  0  0  0  # atno 10765 bound_to 10752
  141.0697  133.6683  156.3434 H   0  0  0  0  0  0  0  0  0  0  0  0  # atno 11005 bound_to 11000
  145.8161  139.2023  143.1965 LP  0  0  0  0  0  0  0  0  0  0  0  0  # atno 17320 bound_to 7965
  146.0554  140.8026  142.9761 LP  0  0  0  0  0  0  0  0  0  0  0  0  # atno 17321 bound_to 7965
  140.7368  143.6696  150.8093 LP  0  0  0  0  0  0  0  0  0  0  0  0  # atno 17342 bound_to 10162
  140.0304  143.5450  152.2762 LP  0  0  0  0  0  0  0  0  0  0  0  0  # atno 17343 bound_to 10162
  157.3226  130.6945  149.6278 LP  0  0  0  0  0  0  0  0  0  0  0  0  # atno 17370 bound_to 10713
  155.9665  130.4331  150.4991 LP  0  0  0  0  0  0  0  0  0  0  0  0  # atno 17371 bound_to 10713
  140.5698  134.5851  157.5455 LP  0  0  0  0  0  0  0  0  0  0  0  0  # atno 17394 bound_to 11000
  139.9511  134.7614  156.0445 LP  0  0  0  0  0  0  0  0  0  0  0  0  # atno 17395 bound_to 11000

$$$$
