AV-unprocessed.smi:908|AV-procd|sdf|4114|dock1
  -GOLD-   22720 2 13D 1   1.00000     0.00000
 Structure written by MMmdl.
 38 38  0  0  0  0  0  0  0  0  1 V2000
  146.9540  141.1817  154.8317 C   0  0  0  0  0  0  0  0  0  0  0  0
  148.2833  141.3924  154.0994 C   0  0  0  0  0  0  0  0  0  0  0  0
  149.4828  141.4346  155.0599 C   0  0  0  0  0  0  0  0  0  0  0  0
  149.6865  140.1490  155.7174 N   0  0  0  0  0  0  0  0  0  0  0  0
  150.8164  139.4275  155.6677 C   0  0  0  0  0  0  0  0  0  0  0  0
  151.8113  139.7736  155.0286 O   0  0  0  0  0  0  0  0  0  0  0  0
  150.8061  138.1052  156.4439 C   0  0  0  0  0  0  0  0  0  0  0  0
  149.4770  137.7516  156.9342 N   0  0  0  0  0  0  0  0  0  0  0  0
  149.1596  137.5272  158.2201 C   0  0  0  0  0  0  0  0  0  0  0  0
  149.9736  137.6098  159.1395 O   0  0  0  0  0  0  0  0  0  0  0  0
  147.7107  137.1288  158.5183 C   0  0  0  0  0  0  0  0  0  0  0  0
  147.5841  136.4290  159.7892 N   0  0  0  0  0  0  0  0  0  0  0  0
  147.7583  137.1262  160.9413 N   0  0  0  0  0  0  0  0  0  0  0  0
  147.5801  136.2480  161.9163 C   0  0  0  0  0  0  0  0  0  0  0  0
  147.6955  136.6819  163.3486 C   0  0  0  0  0  0  0  0  0  0  0  0
  147.2870  134.9660  161.3830 C   0  0  0  0  0  0  0  0  0  0  0  0
  146.9773  133.5245  162.2812 Cl  0  0  0  0  0  0  0  0  0  0  0  0
  147.2950  135.0933  160.0255 C   0  0  0  0  0  0  0  0  0  0  0  0
  147.0581  134.0955  158.9379 C   0  0  0  0  0  0  0  0  0  0  0  0
  146.1220  141.1595  154.1274 H   0  0  0  0  0  0  0  0  0  0  0  0
  146.7654  141.9845  155.5449 H   0  0  0  0  0  0  0  0  0  0  0  0
  146.9518  140.2385  155.3789 H   0  0  0  0  0  0  0  0  0  0  0  0
  148.4190  140.5916  153.3712 H   0  0  0  0  0  0  0  0  0  0  0  0
  148.2365  142.3218  153.5303 H   0  0  0  0  0  0  0  0  0  0  0  0
  150.3911  141.6786  154.5083 H   0  0  0  0  0  0  0  0  0  0  0  0
  149.3508  142.2218  155.8044 H   0  0  0  0  0  0  0  0  0  0  0  0
  148.9158  139.7877  156.2607 H   0  0  0  0  0  0  0  0  0  0  0  0
  151.2052  137.2995  155.8247 H   0  0  0  0  0  0  0  0  0  0  0  0
  151.4729  138.2012  157.3009 H   0  0  0  0  0  0  0  0  0  0  0  0
  148.7486  137.6537  156.2421 H   0  0  0  0  0  0  0  0  0  0  0  0
  147.0833  138.0203  158.5284 H   0  0  0  0  0  0  0  0  0  0  0  0
  147.3309  136.4862  157.7223 H   0  0  0  0  0  0  0  0  0  0  0  0
  147.8688  135.8307  164.0068 H   0  0  0  0  0  0  0  0  0  0  0  0
  146.7832  137.1776  163.6803 H   0  0  0  0  0  0  0  0  0  0  0  0
  148.5232  137.3782  163.4862 H   0  0  0  0  0  0  0  0  0  0  0  0
  146.8423  133.1095  159.3491 H   0  0  0  0  0  0  0  0  0  0  0  0
  147.9353  134.0041  158.2973 H   0  0  0  0  0  0  0  0  0  0  0  0
  146.2124  134.3894  158.3166 H   0  0  0  0  0  0  0  0  0  0  0  0
  1  2  1  0  0  0  0
  1 20  1  0  0  0  0
  1 21  1  0  0  0  0
  1 22  1  0  0  0  0
  2  3  1  0  0  0  0
  2 23  1  0  0  0  0
  2 24  1  0  0  0  0
  3  4  1  0  0  0  0
  3 25  1  0  0  0  0
  3 26  1  0  0  0  0
  4  5  1  0  0  0  0
  4 27  1  0  0  0  0
  5  6  2  0  0  0  0
  5  7  1  0  0  0  0
  7  8  1  0  0  0  0
  7 28  1  0  0  0  0
  7 29  1  0  0  0  0
  8  9  1  0  0  0  0
  8 30  1  0  0  0  0
  9 10  2  0  0  0  0
  9 11  1  0  0  0  0
 11 12  1  0  0  0  0
 11 31  1  0  0  0  0
 11 32  1  0  0  0  0
 12 18  1  0  0  0  0
 12 13  1  0  0  0  0
 13 14  2  0  0  0  0
 14 15  1  0  0  0  0
 14 16  1  0  0  0  0
 15 33  1  0  0  0  0
 15 34  1  0  0  0  0
 15 35  1  0  0  0  0
 16 17  1  0  0  0  0
 16 18  2  0  0  0  0
 18 19  1  0  0  0  0
 19 36  1  0  0  0  0
 19 37  1  0  0  0  0
 19 38  1  0  0  0  0
M  END
> <s_m_source_file>
AV-unprocessed.smi

> <i_m_source_file_index>
908

> <i_lp_mmshare_version>
43012

> <i_f3d_flags>
0

> <s_epik_input>
W0NIM11bQ0gyXVtDSDJdW05IXUMoPU8pW0NIMl1bTkhdQyg9TylbQ0gyXW4xbmMoW0NIM10pYyhDbCljMVtDSDNd

> <s_epik_cmdline>
J2VwaWtfcHl0aG9uJywgJy1waCcsICc3LjAnLCAnLXRuJywgJzgnLCAnLW1hJywgJzIwMCcsICctbWV0YWxfYmluZGluZycsICctaW1hZScsICc8aW5maWxlLm1hZT4nLCAnLW9tYWUnLCAnPG91dGZpbGUubWFlPic=

> <r_lp_tautomer_probability>
1

> <r_epik_Ionization_Penalty>
3.40177e-06

> <r_epik_Ionization_Penalty_Charging>
0

> <r_epik_Ionization_Penalty_Neutral>
3.40177e-06

> <r_epik_State_Penalty>
-0

> <r_epik_Charging_Adjusted_Penalty>
0

> <i_epik_Tot_Q>
0

> <i_epik_Tot_abs_Q>
0

> <r_epik_Metal_State_Penalty>
-0

> <b_epik_Metal_Only>
0

> <s_lp_Force_Field>
OPLS_2005

> <r_lp_Energy>
0.427377

> <b_lp_Chiralities_Consistent>
1

> <s_lp_Variant>
AV-unprocessed.smi:908-1

> <Gold.Version>
5.8.1

> <Gold.Id.Protein>
6NUR|6NUR_protein|mol2

> <Gold.PLP.Fitness>
39.3323

> <Gold.PLP.PLP>
-32.7693

> <Gold.PLP.part.hbond>
-3.3183

> <Gold.PLP.part.metal>
0.0000

> <Gold.PLP.part.buried>
-4.6887

> <Gold.PLP.part.nonpolar>
-25.4872

> <Gold.PLP.part.repulsive>
0.0969

> <Gold.PLP.ligand.clash>
0.0000

> <Gold.PLP.ligand.torsion>
0.5139

> <Gold.PLP.Chemscore.Hbond>
2.4960

> <Gold.PLP.Chemscore.CHOScore>
0.0000

> <Gold.PLP.Chemscore.Metal>
0.0000

> <Gold.Chemscore.Hbonds>
donor molecule, donor type, donor heavy atom, donor atom, acceptor molecule, acceptor atom, score
      P1  H  6931  6943       L1    13  0.78
      P1  H  6934  6947       L1    13  0.88
      P1  H  7989  7998       L1     6  0.99

> <Gold.PLP.Chemscore.Internal.Correction>
0.1029

> <Gold.Rescore>
     Score         DG    S(hbond)    S(metal)    S(lipo)     H(rot)  DE(clash)    DE(int)     intcor
     12.99     -14.68       1.92        0.00      70.27       2.13       0.06       1.63       ----

> <Gold.Chemscore.Fitness>
12.9898

> <Gold.Chemscore.DG>
-14.6786

> <Gold.Chemscore.ZeroCoef>
-5.4800

> <Gold.Chemscore.Hbond>
1.9248

> <Gold.Chemscore.Metal>
0.0000

> <Gold.Chemscore.Lipo>
70.2726

> <Gold.Chemscore.Internal_Hbond>
0.0000

> <Gold.Chemscore.DEClash>
0.0553

> <Gold.Chemscore.DEInternal>
1.6335

> <Gold.Chemscore.Rot>
2.1297

> <Gold.Chemscore.Internal.Correction>
   9.000000E+99

> <Gold.Chemscore.Hbonds>
donor molecule, donor type, donor heavy atom, donor atom, acceptor molecule, acceptor atom, score
      P1  H  6931  6943       L1    13  0.13
      P1  H  6934  6947       L1    13  0.80
      P1  H  7989  7998       L1     6  0.93

> <Gold.Chemscore.Hbond.Weighted>
-6.4287

> <Gold.Chemscore.Metal.Weighted>
-0.0000

> <Gold.Chemscore.Lipo.Weighted>
-8.2219

> <Gold.Chemscore.Internal_Hbond.Weighted>
0.0000

> <Gold.Chemscore.DEClash.Weighted>
0.0553

> <Gold.Chemscore.DEInternal.Weighted>
1.6335

> <Gold.Chemscore.Rot.Weighted>
5.4520

> <Gold.Chemscore.Internal.Correction.Weighted>
   9.000000E+99

> <Gold.Protein.RotatedTorsions>
[ 6907 6896 6895 6894 ] final  -20.00 input  -60.11 | X-H torsion
[ 7974 7965 7964 7962 ] final  152.45 input  175.53 | X-H torsion
[ 8008 7997 7996 7995 ] final  172.18 input   59.86 | X-H torsion
[ 10167 10162 10161 10158 ] final  -94.60 input  -65.29 | X-H torsion
[ 10718 10713 10712 10709 ] final  -43.41 input   66.30 | X-H torsion
[ 10763 10752 10751 10750 ] final    4.38 input  -60.55 | X-H torsion
[ 11005 11000 10999 10996 ] final  -48.89 input  -57.11 | X-H torsion

> <Gold.Protein.ActiveResidues>
 VAL166  LYS551  ARG553  GLY616  TRP617  ASP618  TYR619  PRO620  LYS621  CYS622 
 ASP623  PHE694  ASN695  SER759  ASP760  ASP761  ALA762  ILE779  LEU786  VAL792 
 PHE793  MET794  SER795  GLU796  ALA797  LYS798  CYS799  TRP800  GLU811  SER814 

> <Gold.Protein.RotatedAtoms>
  151.2547  135.0634  159.9075 H   0  0  0  0  0  0  0  0  0  0  0  0  # atno 6907 bound_to 6896
  152.5375  134.0294  159.8028 H   0  0  0  0  0  0  0  0  0  0  0  0  # atno 6908 bound_to 6896
  151.0508  133.5576  159.2673 H   0  0  0  0  0  0  0  0  0  0  0  0  # atno 6909 bound_to 6896
  144.8222  139.6670  143.6095 H   0  0  0  0  0  0  0  0  0  0  0  0  # atno 7974 bound_to 7965
  156.1199  140.1492  156.9219 H   0  0  0  0  0  0  0  0  0  0  0  0  # atno 8008 bound_to 7997
  154.4828  140.0874  156.7459 H   0  0  0  0  0  0  0  0  0  0  0  0  # atno 8009 bound_to 7997
  155.4446  140.3432  155.4296 H   0  0  0  0  0  0  0  0  0  0  0  0  # atno 8010 bound_to 7997
  140.3127  143.3095  152.0131 H   0  0  0  0  0  0  0  0  0  0  0  0  # atno 10167 bound_to 10162
  156.2493  130.4186  149.8668 H   0  0  0  0  0  0  0  0  0  0  0  0  # atno 10718 bound_to 10713
  153.2719  135.6933  153.7472 H   0  0  0  0  0  0  0  0  0  0  0  0  # atno 10763 bound_to 10752
  153.6492  135.3380  155.3095 H   0  0  0  0  0  0  0  0  0  0  0  0  # atno 10764 bound_to 10752
  154.8467  135.4450  154.1744 H   0  0  0  0  0  0  0  0  0  0  0  0  # atno 10765 bound_to 10752
  141.0727  133.6674  156.3507 H   0  0  0  0  0  0  0  0  0  0  0  0  # atno 11005 bound_to 11000
  146.2527  139.6235  142.9416 LP  0  0  0  0  0  0  0  0  0  0  0  0  # atno 17320 bound_to 7965
  145.5080  141.0436  143.2503 LP  0  0  0  0  0  0  0  0  0  0  0  0  # atno 17321 bound_to 7965
  139.4890  144.6372  151.6951 LP  0  0  0  0  0  0  0  0  0  0  0  0  # atno 17342 bound_to 10162
  140.5554  144.0357  150.6145 LP  0  0  0  0  0  0  0  0  0  0  0  0  # atno 17343 bound_to 10162
  156.6222  130.8631  151.3478 LP  0  0  0  0  0  0  0  0  0  0  0  0  # atno 17370 bound_to 10713
  157.7208  130.9556  150.1431 LP  0  0  0  0  0  0  0  0  0  0  0  0  # atno 17371 bound_to 10713
  140.5638  134.5908  157.5440 LP  0  0  0  0  0  0  0  0  0  0  0  0  # atno 17394 bound_to 11000
  139.9540  134.7567  156.0383 LP  0  0  0  0  0  0  0  0  0  0  0  0  # atno 17395 bound_to 11000

$$$$
