AV-unprocessed.smi:865|AV-procd|sdf|3990|dock1
  -GOLD-   22720 1463D 1   1.00000     0.00000
 Structure written by MMmdl.
 36 36  0  0  0  0  0  0  0  0  1 V2000
  151.8738  145.5509  159.8920 C   0  0  0  0  0  0  0  0  0  0  0  0
  151.8952  144.6412  158.6543 C   0  0  0  0  0  0  0  0  0  0  0  0
  151.6352  143.1420  158.9547 C   0  0  0  0  0  0  0  0  0  0  0  0
  152.8247  142.4998  159.7139 C   0  0  0  0  0  0  0  0  0  0  0  0
  152.9068  142.8625  161.2045 C   0  0  0  0  0  0  0  0  0  0  0  0
  151.2472  142.3412  157.6795 C   0  0  2  0  0  0  0  0  0  0  0  0
  149.9130  142.6533  157.3259 O   0  0  0  0  0  0  0  0  0  0  0  0
  151.3773  140.8102  157.8479 C   0  0  0  0  0  0  0  0  0  0  0  0
  150.7167  140.0963  156.7615 N   0  0  0  0  0  0  0  0  0  0  0  0
  151.3225  139.6436  155.6532 C   0  0  0  0  0  0  0  0  0  0  0  0
  152.5100  139.8395  155.3963 O   0  0  0  0  0  0  0  0  0  0  0  0
  150.4589  138.8283  154.6918 C   0  0  0  0  0  0  0  0  0  0  0  0
  149.2140  139.5184  154.4118 N   0  0  0  0  0  0  0  0  0  0  0  0
  148.1497  139.1513  153.6947 C   0  0  0  0  0  0  0  0  0  0  0  0
  147.2072  140.0815  153.7083 N   0  0  0  0  0  0  0  0  0  0  0  0
  147.7589  141.0776  154.4968 N   0  0  0  0  0  0  0  0  0  0  0  0
  148.9494  140.7489  154.9175 N   0  0  0  0  0  0  0  0  0  0  0  0
  151.9613  146.5971  159.5982 H   0  0  0  0  0  0  0  0  0  0  0  0
  152.6982  145.3390  160.5717 H   0  0  0  0  0  0  0  0  0  0  0  0
  150.9413  145.4418  160.4461 H   0  0  0  0  0  0  0  0  0  0  0  0
  151.1354  145.0191  157.9716 H   0  0  0  0  0  0  0  0  0  0  0  0
  152.8463  144.7592  158.1341 H   0  0  0  0  0  0  0  0  0  0  0  0
  150.7748  143.0974  159.6241 H   0  0  0  0  0  0  0  0  0  0  0  0
  152.8015  141.4153  159.6037 H   0  0  0  0  0  0  0  0  0  0  0  0
  153.7611  142.8206  159.2604 H   0  0  0  0  0  0  0  0  0  0  0  0
  153.8328  142.4853  161.6389 H   0  0  0  0  0  0  0  0  0  0  0  0
  152.0866  142.4304  161.7769 H   0  0  0  0  0  0  0  0  0  0  0  0
  152.8908  143.9429  161.3499 H   0  0  0  0  0  0  0  0  0  0  0  0
  151.8956  142.6461  156.8586 H   0  0  0  0  0  0  0  0  0  0  0  0
  149.9289  143.2826  156.6211 H   0  0  0  0  0  0  0  0  0  0  0  0
  152.4285  140.5256  157.7964 H   0  0  0  0  0  0  0  0  0  0  0  0
  151.0195  140.4739  158.8228 H   0  0  0  0  0  0  0  0  0  0  0  0
  149.7359  139.8888  156.8837 H   0  0  0  0  0  0  0  0  0  0  0  0
  150.9968  138.6491  153.7594 H   0  0  0  0  0  0  0  0  0  0  0  0
  150.2298  137.8544  155.1265 H   0  0  0  0  0  0  0  0  0  0  0  0
  148.0650  138.2097  153.1727 H   0  0  0  0  0  0  0  0  0  0  0  0
  1  2  1  0  0  0  0
  1 18  1  0  0  0  0
  1 19  1  0  0  0  0
  1 20  1  0  0  0  0
  2  3  1  0  0  0  0
  2 21  1  0  0  0  0
  2 22  1  0  0  0  0
  3  4  1  0  0  0  0
  3  6  1  0  0  0  0
  3 23  1  0  0  0  0
  4  5  1  0  0  0  0
  4 24  1  0  0  0  0
  4 25  1  0  0  0  0
  5 26  1  0  0  0  0
  5 27  1  0  0  0  0
  5 28  1  0  0  0  0
  6  7  1  0  0  0  0
  6  8  1  0  0  0  0
  6 29  1  0  0  0  0
  7 30  1  0  0  0  0
  8  9  1  0  0  0  0
  8 31  1  0  0  0  0
  8 32  1  0  0  0  0
  9 10  1  0  0  0  0
  9 33  1  0  0  0  0
 10 11  2  0  0  0  0
 10 12  1  0  0  0  0
 12 13  1  0  0  0  0
 12 34  1  0  0  0  0
 12 35  1  0  0  0  0
 13 17  1  0  0  0  0
 13 14  1  0  0  0  0
 14 15  2  0  0  0  0
 14 36  1  0  0  0  0
 15 16  1  0  0  0  0
 16 17  2  0  0  0  0
M  END
> <s_m_source_file>
AV-unprocessed.smi

> <i_m_source_file_index>
865

> <i_lp_mmshare_version>
43012

> <i_f3d_flags>
0

> <s_epik_input>
W0NIM11bQ0gyXVtDSF0oW0NIMl1bQ0gzXSlbQ0BIXShbT0hdKVtDSDJdW05IXUMoPU8pW0NIMl1uMVtjSF1ubm4x

> <s_epik_cmdline>
J2VwaWtfcHl0aG9uJywgJy1waCcsICc3LjAnLCAnLXRuJywgJzgnLCAnLW1hJywgJzIwMCcsICctbWV0YWxfYmluZGluZycsICctaW1hZScsICc8aW5maWxlLm1hZT4nLCAnLW9tYWUnLCAnPG91dGZpbGUubWFlPic=

> <r_lp_tautomer_probability>
1

> <r_epik_Ionization_Penalty>
9.39891e-07

> <r_epik_Ionization_Penalty_Charging>
0

> <r_epik_Ionization_Penalty_Neutral>
9.39891e-07

> <r_epik_State_Penalty>
-0

> <r_epik_Charging_Adjusted_Penalty>
0

> <i_epik_Tot_Q>
0

> <i_epik_Tot_abs_Q>
0

> <r_epik_Metal_State_Penalty>
-0

> <b_epik_Metal_Only>
0

> <s_lp_Force_Field>
OPLS_2005

> <r_lp_Energy>
13.4574

> <b_lp_Chiralities_Consistent>
1

> <s_lp_Variant>
AV-unprocessed.smi:865-1

> <Gold.Version>
5.8.1

> <Gold.Id.Protein>
6NUR|6NUR_protein|mol2

> <Gold.PLP.Fitness>
45.1920

> <Gold.PLP.PLP>
-37.5174

> <Gold.PLP.part.hbond>
-3.0000

> <Gold.PLP.part.metal>
0.0000

> <Gold.PLP.part.buried>
-4.2400

> <Gold.PLP.part.nonpolar>
-31.1972

> <Gold.PLP.part.repulsive>
0.4521

> <Gold.PLP.ligand.clash>
0.0000

> <Gold.PLP.ligand.torsion>
1.0269

> <Gold.PLP.Chemscore.Hbond>
2.0625

> <Gold.PLP.Chemscore.CHOScore>
1.0000

> <Gold.PLP.Chemscore.Metal>
0.0000

> <Gold.Chemscore.Hbonds>
donor molecule, donor type, donor heavy atom, donor atom, acceptor molecule, acceptor atom, score
      L1  H     7    30       P1  8028  0.90
      P1  H  7989  7998       L1    11  0.04
      P1  H  7997  8008       L1    11  1.00
      L1  C    14    36       P1  7948  1.00

> <Gold.PLP.Chemscore.Internal.Correction>
0.5412

> <Gold.Rescore>
     Score         DG    S(hbond)    S(metal)    S(lipo)     H(rot)  DE(clash)    DE(int)     intcor
      9.28     -11.68       1.93        0.00      80.87       3.80       0.06       2.34       ----

> <Gold.Chemscore.Fitness>
9.2769

> <Gold.Chemscore.DG>
-11.6815

> <Gold.Chemscore.ZeroCoef>
-5.4800

> <Gold.Chemscore.Hbond>
1.9338

> <Gold.Chemscore.Metal>
0.0000

> <Gold.Chemscore.Lipo>
80.8664

> <Gold.Chemscore.Internal_Hbond>
0.0000

> <Gold.Chemscore.DEClash>
0.0618

> <Gold.Chemscore.DEInternal>
2.3429

> <Gold.Chemscore.Rot>
3.7964

> <Gold.Chemscore.Internal.Correction>
   9.000000E+99

> <Gold.Chemscore.Hbonds>
donor molecule, donor type, donor heavy atom, donor atom, acceptor molecule, acceptor atom, score
      L1  H     7    30       P1  8028  0.83
      P1  H  7997  8008       L1    11  0.93

> <Gold.Chemscore.Hbond.Weighted>
-6.4590

> <Gold.Chemscore.Metal.Weighted>
-0.0000

> <Gold.Chemscore.Lipo.Weighted>
-9.4614

> <Gold.Chemscore.Internal_Hbond.Weighted>
0.0000

> <Gold.Chemscore.DEClash.Weighted>
0.0618

> <Gold.Chemscore.DEInternal.Weighted>
2.3429

> <Gold.Chemscore.Rot.Weighted>
9.7188

> <Gold.Chemscore.Internal.Correction.Weighted>
   9.000000E+99

> <Gold.Protein.RotatedTorsions>
[ 6907 6896 6895 6894 ] final  -12.15 input  -60.11 | X-H torsion
[ 7974 7965 7964 7962 ] final  -15.05 input  175.53 | X-H torsion
[ 8008 7997 7996 7995 ] final  -17.80 input   59.86 | X-H torsion
[ 10167 10162 10161 10158 ] final -128.20 input  -65.29 | X-H torsion
[ 10718 10713 10712 10709 ] final  -13.53 input   66.30 | X-H torsion
[ 10763 10752 10751 10750 ] final  113.08 input  -60.55 | X-H torsion
[ 11005 11000 10999 10996 ] final   65.05 input  -57.11 | X-H torsion

> <Gold.Protein.ActiveResidues>
 VAL166  LYS551  ARG553  GLY616  TRP617  ASP618  TYR619  PRO620  LYS621  CYS622 
 ASP623  PHE694  ASN695  SER759  ASP760  ASP761  ALA762  ILE779  LEU786  VAL792 
 PHE793  MET794  SER795  GLU796  ALA797  LYS798  CYS799  TRP800  GLU811  SER814 

> <Gold.Protein.RotatedAtoms>
  151.3750  135.0929  159.9477 H   0  0  0  0  0  0  0  0  0  0  0  0  # atno 6907 bound_to 6896
  152.5125  133.9128  159.7506 H   0  0  0  0  0  0  0  0  0  0  0  0  # atno 6908 bound_to 6896
  150.9549  133.6453  159.2794 H   0  0  0  0  0  0  0  0  0  0  0  0  # atno 6909 bound_to 6896
  146.2048  140.3437  142.8411 H   0  0  0  0  0  0  0  0  0  0  0  0  # atno 7974 bound_to 7965
  154.4952  140.2133  155.9462 H   0  0  0  0  0  0  0  0  0  0  0  0  # atno 8008 bound_to 7997
  156.1360  140.3188  155.8390 H   0  0  0  0  0  0  0  0  0  0  0  0  # atno 8009 bound_to 7997
  155.4208  140.0497  157.3016 H   0  0  0  0  0  0  0  0  0  0  0  0  # atno 8010 bound_to 7997
  139.9528  143.6037  152.2470 H   0  0  0  0  0  0  0  0  0  0  0  0  # atno 10167 bound_to 10162
  156.6289  130.4896  149.6136 H   0  0  0  0  0  0  0  0  0  0  0  0  # atno 10718 bound_to 10713
  153.4872  135.3666  155.2473 H   0  0  0  0  0  0  0  0  0  0  0  0  # atno 10763 bound_to 10752
  154.8753  135.3968  154.3631 H   0  0  0  0  0  0  0  0  0  0  0  0  # atno 10764 bound_to 10752
  153.4244  135.7081  153.6338 H   0  0  0  0  0  0  0  0  0  0  0  0  # atno 10765 bound_to 10752
  139.9919  134.6578  156.0076 H   0  0  0  0  0  0  0  0  0  0  0  0  # atno 11005 bound_to 11000
  144.8767  140.7346  143.6012 LP  0  0  0  0  0  0  0  0  0  0  0  0  # atno 17320 bound_to 7965
  145.3357  139.1746  143.4513 LP  0  0  0  0  0  0  0  0  0  0  0  0  # atno 17321 bound_to 7965
  139.6615  144.7662  151.1953 LP  0  0  0  0  0  0  0  0  0  0  0  0  # atno 17342 bound_to 10162
  140.7578  143.6003  150.8707 LP  0  0  0  0  0  0  0  0  0  0  0  0  # atno 17343 bound_to 10162
  156.2251  130.6761  151.1407 LP  0  0  0  0  0  0  0  0  0  0  0  0  # atno 17370 bound_to 10713
  157.7206  131.0684  150.6151 LP  0  0  0  0  0  0  0  0  0  0  0  0  # atno 17371 bound_to 10713
  141.1573  133.6541  156.4203 LP  0  0  0  0  0  0  0  0  0  0  0  0  # atno 17394 bound_to 11000
  140.4892  134.6592  157.5203 LP  0  0  0  0  0  0  0  0  0  0  0  0  # atno 17395 bound_to 11000

$$$$
