AV-unprocessed.smi:284|AV-procd|sdf|2163|dock2
  -GOLD-   2262021523D 1   1.00000     0.00000
 Structure written by MMmdl.
 60 62  0  0  0  0  0  0  0  0  1 V2000
  147.2259  136.7836  154.3746 C   0  0  0  0  0  0  0  0  0  0  0  0
  148.6255  136.5320  154.9128 C   0  0  0  0  0  0  0  0  0  0  0  0
  148.9593  135.3803  155.5389 C   0  0  0  0  0  0  0  0  0  0  0  0
  150.2200  135.1215  156.0413 N   0  0  0  0  0  0  0  0  0  0  0  0
  150.5161  133.8145  156.7358 C   0  0  2  0  0  0  0  0  0  0  0  0
  150.3009  132.6275  155.8021 C   0  0  0  0  0  0  0  0  0  0  0  0
  150.0430  131.5322  156.8158 C   0  0  2  0  0  0  0  0  0  0  0  0
  149.3581  130.4296  156.2548 O   0  0  0  0  0  0  0  0  0  0  0  0
  149.2947  132.2770  157.9411 C   0  0  2  0  0  0  0  0  0  0  0  0
  147.7563  132.1522  157.9983 C   0  0  0  0  0  0  0  0  0  0  0  0
  147.3222  130.8314  158.2517 O   0  0  0  0  0  0  0  0  0  0  0  0
  149.6360  133.6576  157.8072 O   0  0  0  0  0  0  0  0  0  0  0  0
  151.2426  136.0796  155.8926 C   0  0  0  0  0  0  0  0  0  0  0  0
  152.3804  135.8659  156.3177 O   0  0  0  0  0  0  0  0  0  0  0  0
  150.9287  137.2920  155.2375 N   0  0  0  0  0  0  0  0  0  0  0  0
  151.9923  138.3112  155.0947 C   0  0  0  0  0  0  0  0  0  0  0  0
  151.6347  139.6659  155.7263 C   0  0  0  0  0  0  0  0  0  0  0  0
  151.1486  140.5643  155.0389 O   0  0  0  0  0  0  0  0  0  0  0  0
  151.9270  139.7764  157.0353 N   0  0  0  0  0  0  0  0  0  0  0  0
  151.7238  140.8757  157.9140 C   0  0  0  0  0  0  0  0  0  0  0  0
  152.2820  140.9686  159.2101 C   0  0  0  0  0  0  0  0  0  0  0  0
  152.0423  142.1025  160.0105 C   0  0  0  0  0  0  0  0  0  0  0  0
  151.2483  143.1757  159.5363 C   0  0  0  0  0  0  0  0  0  0  0  0
  150.9675  144.4327  160.3820 C   0  0  0  0  0  0  0  0  0  0  0  0
  151.6124  145.6602  159.7067 C   0  0  0  0  0  0  0  0  0  0  0  0
  151.5333  144.3332  161.8166 C   0  0  0  0  0  0  0  0  0  0  0  0
  149.4445  144.6561  160.4982 C   0  0  0  0  0  0  0  0  0  0  0  0
  150.7106  143.0790  158.2318 C   0  0  0  0  0  0  0  0  0  0  0  0
  150.9469  141.9462  157.4311 C   0  0  0  0  0  0  0  0  0  0  0  0
  149.6347  137.5792  154.7368 C   0  0  0  0  0  0  0  0  0  0  0  0
  149.3971  138.6589  154.1917 O   0  0  0  0  0  0  0  0  0  0  0  0
  146.5574  135.9458  154.5753 H   0  0  0  0  0  0  0  0  0  0  0  0
  147.2546  136.9368  153.2952 H   0  0  0  0  0  0  0  0  0  0  0  0
  146.7936  137.6722  154.8359 H   0  0  0  0  0  0  0  0  0  0  0  0
  148.1986  134.6222  155.6508 H   0  0  0  0  0  0  0  0  0  0  0  0
  151.5280  133.8622  157.1399 H   0  0  0  0  0  0  0  0  0  0  0  0
  149.4246  132.8029  155.1763 H   0  0  0  0  0  0  0  0  0  0  0  0
  151.1709  132.4550  155.1681 H   0  0  0  0  0  0  0  0  0  0  0  0
  151.0017  131.1802  157.1998 H   0  0  0  0  0  0  0  0  0  0  0  0
  149.8378  130.1299  155.4978 H   0  0  0  0  0  0  0  0  0  0  0  0
  149.6873  131.9374  158.9004 H   0  0  0  0  0  0  0  0  0  0  0  0
  147.3656  132.7890  158.7924 H   0  0  0  0  0  0  0  0  0  0  0  0
  147.3122  132.5037  157.0669 H   0  0  0  0  0  0  0  0  0  0  0  0
  146.4545  130.8662  158.6238 H   0  0  0  0  0  0  0  0  0  0  0  0
  152.9270  137.9530  155.5302 H   0  0  0  0  0  0  0  0  0  0  0  0
  152.2422  138.4811  154.0465 H   0  0  0  0  0  0  0  0  0  0  0  0
  152.3999  138.9834  157.4438 H   0  0  0  0  0  0  0  0  0  0  0  0
  152.9105  140.1902  159.6128 H   0  0  0  0  0  0  0  0  0  0  0  0
  152.4898  142.1210  160.9916 H   0  0  0  0  0  0  0  0  0  0  0  0
  151.4417  146.5675  160.2871 H   0  0  0  0  0  0  0  0  0  0  0  0
  151.2101  145.8377  158.7093 H   0  0  0  0  0  0  0  0  0  0  0  0
  152.6911  145.5338  159.6074 H   0  0  0  0  0  0  0  0  0  0  0  0
  152.6186  144.2256  161.8171 H   0  0  0  0  0  0  0  0  0  0  0  0
  151.1077  143.4884  162.3598 H   0  0  0  0  0  0  0  0  0  0  0  0
  151.3051  145.2303  162.3932 H   0  0  0  0  0  0  0  0  0  0  0  0
  149.2176  145.5255  161.1164 H   0  0  0  0  0  0  0  0  0  0  0  0
  148.9536  143.7948  160.9527 H   0  0  0  0  0  0  0  0  0  0  0  0
  148.9766  144.8274  159.5290 H   0  0  0  0  0  0  0  0  0  0  0  0
  150.1089  143.8795  157.8284 H   0  0  0  0  0  0  0  0  0  0  0  0
  150.5226  141.9026  156.4386 H   0  0  0  0  0  0  0  0  0  0  0  0
  1  2  1  0  0  0  0
  1 32  1  0  0  0  0
  1 33  1  0  0  0  0
  1 34  1  0  0  0  0
  2 30  1  0  0  0  0
  2  3  2  0  0  0  0
  3  4  1  0  0  0  0
  3 35  1  0  0  0  0
  4  5  1  0  0  0  0
  4 13  1  0  0  0  0
  5 12  1  0  0  0  0
  5  6  1  0  0  0  0
  5 36  1  0  0  0  0
  6  7  1  0  0  0  0
  6 37  1  0  0  0  0
  6 38  1  0  0  0  0
  7  8  1  0  0  0  0
  7  9  1  0  0  0  0
  7 39  1  0  0  0  0
  8 40  1  0  0  0  0
  9 10  1  0  0  0  0
  9 12  1  0  0  0  0
  9 41  1  0  0  0  0
 10 11  1  0  0  0  0
 10 42  1  0  0  0  0
 10 43  1  0  0  0  0
 11 44  1  0  0  0  0
 13 14  2  0  0  0  0
 13 15  1  0  0  0  0
 15 16  1  0  0  0  0
 15 30  1  0  0  0  0
 16 17  1  0  0  0  0
 16 45  1  0  0  0  0
 16 46  1  0  0  0  0
 17 18  2  0  0  0  0
 17 19  1  0  0  0  0
 19 20  1  0  0  0  0
 19 47  1  0  0  0  0
 20 29  1  0  0  0  0
 20 21  2  0  0  0  0
 21 22  1  0  0  0  0
 21 48  1  0  0  0  0
 22 23  2  0  0  0  0
 22 49  1  0  0  0  0
 23 24  1  0  0  0  0
 23 28  1  0  0  0  0
 24 25  1  0  0  0  0
 24 26  1  0  0  0  0
 24 27  1  0  0  0  0
 25 50  1  0  0  0  0
 25 51  1  0  0  0  0
 25 52  1  0  0  0  0
 26 53  1  0  0  0  0
 26 54  1  0  0  0  0
 26 55  1  0  0  0  0
 27 56  1  0  0  0  0
 27 57  1  0  0  0  0
 27 58  1  0  0  0  0
 28 29  2  0  0  0  0
 28 59  1  0  0  0  0
 29 60  1  0  0  0  0
 30 31  2  0  0  0  0
M  END
> <s_m_source_file>
AV-unprocessed.smi

> <i_m_source_file_index>
284

> <i_lp_mmshare_version>
43012

> <i_f3d_flags>
0

> <s_epik_input>
W09IXVtDSDJdW0NAQEhdKE8xKVtDQEhdKFtPSF0pW0NIMl1bQ0BIXTFuKFtjSF1jMltDSDNdKWMoPU8pbihjMj1PKVtDSDJdQyg9TylbTkhdYzNbY0hdW2NIXWMoQyhbQ0gzXSkoW0NIM10pW0NIM10pW2NIXVtjSF0z

> <s_epik_cmdline>
J2VwaWtfcHl0aG9uJywgJy1waCcsICc3LjAnLCAnLXRuJywgJzgnLCAnLW1hJywgJzIwMCcsICctbWV0YWxfYmluZGluZycsICctaW1hZScsICc8aW5maWxlLm1hZT4nLCAnLW9tYWUnLCAnPG91dGZpbGUubWFlPic=

> <r_lp_tautomer_probability>
1

> <r_epik_Ionization_Penalty>
4.92358e-06

> <r_epik_Ionization_Penalty_Charging>
1.29777e-07

> <r_epik_Ionization_Penalty_Neutral>
4.79381e-06

> <r_epik_State_Penalty>
-0

> <r_epik_Charging_Adjusted_Penalty>
1.29777e-07

> <i_epik_Tot_Q>
0

> <i_epik_Tot_abs_Q>
0

> <r_epik_Metal_State_Penalty>
-0

> <b_epik_Metal_Only>
0

> <s_epik_Chemistry_Notes>
This compound contains an acetal/aminal-like group ( X-CH(R)-Y where X, Y are N, S, or O) that may be acid/base labile, releasing an aldehyde.

> <s_lp_Force_Field>
OPLS_2005

> <r_lp_Energy>
44.8012

> <b_lp_Chiralities_Consistent>
1

> <s_lp_Variant>
AV-unprocessed.smi:284-7

> <Gold.Version>
5.8.1

> <Gold.Id.Protein>
6NUR|6NUR_protein|mol2

> <Gold.PLP.Fitness>
53.6323

> <Gold.PLP.PLP>
-45.5257

> <Gold.PLP.part.hbond>
-2.8607

> <Gold.PLP.part.metal>
0.0000

> <Gold.PLP.part.buried>
-4.9062

> <Gold.PLP.part.nonpolar>
-37.7645

> <Gold.PLP.part.repulsive>
0.3957

> <Gold.PLP.ligand.clash>
0.0000

> <Gold.PLP.ligand.torsion>
0.4792

> <Gold.PLP.Chemscore.Hbond>
3.0000

> <Gold.PLP.Chemscore.CHOScore>
0.0000

> <Gold.PLP.Chemscore.Metal>
0.0000

> <Gold.Chemscore.Hbonds>
donor molecule, donor type, donor heavy atom, donor atom, acceptor molecule, acceptor atom, score
      P1  H  6896  6908       L1    12  1.00
      P1  H  7989  7998       L1    18  0.94
      P1  H 10752 10763       L1    14  0.89

> <Gold.PLP.Chemscore.Internal.Correction>
0.0650

> <Gold.Rescore>
     Score         DG    S(hbond)    S(metal)    S(lipo)     H(rot)  DE(clash)    DE(int)     intcor
     13.53     -18.16       2.10        0.00     120.11       3.27       0.09       4.53       ----

> <Gold.Chemscore.Fitness>
13.5350

> <Gold.Chemscore.DG>
-18.1573

> <Gold.Chemscore.ZeroCoef>
-5.4800

> <Gold.Chemscore.Hbond>
2.0973

> <Gold.Chemscore.Metal>
0.0000

> <Gold.Chemscore.Lipo>
120.1062

> <Gold.Chemscore.Internal_Hbond>
0.0000

> <Gold.Chemscore.DEClash>
0.0921

> <Gold.Chemscore.DEInternal>
4.5302

> <Gold.Chemscore.Rot>
3.2735

> <Gold.Chemscore.Internal.Correction>
   9.000000E+99

> <Gold.Chemscore.Hbonds>
donor molecule, donor type, donor heavy atom, donor atom, acceptor molecule, acceptor atom, score
      P1  H  6896  6908       L1    12  0.09
      P1  H  7989  7998       L1    18  0.91
      P1  H 10752 10763       L1    14  0.17

> <Gold.Chemscore.Hbond.Weighted>
-7.0049

> <Gold.Chemscore.Metal.Weighted>
-0.0000

> <Gold.Chemscore.Lipo.Weighted>
-14.0524

> <Gold.Chemscore.Internal_Hbond.Weighted>
0.0000

> <Gold.Chemscore.DEClash.Weighted>
0.0921

> <Gold.Chemscore.DEInternal.Weighted>
4.5302

> <Gold.Chemscore.Rot.Weighted>
8.3801

> <Gold.Chemscore.Internal.Correction.Weighted>
   9.000000E+99

> <Gold.Protein.RotatedTorsions>
[ 6907 6896 6895 6894 ] final  123.11 input  -60.11 | X-H torsion
[ 7974 7965 7964 7962 ] final -101.60 input  175.53 | X-H torsion
[ 8008 7997 7996 7995 ] final  121.83 input   59.86 | X-H torsion
[ 10167 10162 10161 10158 ] final  163.39 input  -65.29 | X-H torsion
[ 10718 10713 10712 10709 ] final  -75.06 input   66.30 | X-H torsion
[ 10763 10752 10751 10750 ] final   78.70 input  -60.55 | X-H torsion
[ 11005 11000 10999 10996 ] final -123.48 input  -57.11 | X-H torsion

> <Gold.Protein.ActiveResidues>
 VAL166  LYS551  ARG553  GLY616  TRP617  ASP618  TYR619  PRO620  LYS621  CYS622 
 ASP623  PHE694  ASN695  SER759  ASP760  ASP761  ALA762  ILE779  LEU786  VAL792 
 PHE793  MET794  SER795  GLU796  ALA797  LYS798  CYS799  TRP800  GLU811  SER814 

> <Gold.Protein.RotatedAtoms>
  152.4188  133.7082  159.6463 H   0  0  0  0  0  0  0  0  0  0  0  0  # atno 6907 bound_to 6896
  150.8065  133.8490  159.3209 H   0  0  0  0  0  0  0  0  0  0  0  0  # atno 6908 bound_to 6896
  151.6213  135.1034  160.0153 H   0  0  0  0  0  0  0  0  0  0  0  0  # atno 6909 bound_to 6896
  145.2796  140.9322  143.2940 H   0  0  0  0  0  0  0  0  0  0  0  0  # atno 7974 bound_to 7965
  156.2703  140.2799  156.1371 H   0  0  0  0  0  0  0  0  0  0  0  0  # atno 8008 bound_to 7997
  155.0992  140.0389  157.2709 H   0  0  0  0  0  0  0  0  0  0  0  0  # atno 8009 bound_to 7997
  154.6828  140.2612  155.6896 H   0  0  0  0  0  0  0  0  0  0  0  0  # atno 8010 bound_to 7997
  139.4873  144.4342  151.9033 H   0  0  0  0  0  0  0  0  0  0  0  0  # atno 10167 bound_to 10162
  156.0221  130.4431  150.2986 H   0  0  0  0  0  0  0  0  0  0  0  0  # atno 10718 bound_to 10713
  153.0895  135.4867  154.8662 H   0  0  0  0  0  0  0  0  0  0  0  0  # atno 10763 bound_to 10752
  154.7251  135.3048  154.8986 H   0  0  0  0  0  0  0  0  0  0  0  0  # atno 10764 bound_to 10752
  153.9638  135.6809  153.4799 H   0  0  0  0  0  0  0  0  0  0  0  0  # atno 10765 bound_to 10752
  140.9916  134.0531  157.3648 H   0  0  0  0  0  0  0  0  0  0  0  0  # atno 11005 bound_to 11000
  144.9265  139.4349  143.6516 LP  0  0  0  0  0  0  0  0  0  0  0  0  # atno 17320 bound_to 7965
  146.3221  139.8153  142.8937 LP  0  0  0  0  0  0  0  0  0  0  0  0  # atno 17321 bound_to 7965
  140.3791  144.2759  150.5910 LP  0  0  0  0  0  0  0  0  0  0  0  0  # atno 17342 bound_to 10162
  140.5250  143.2256  151.8329 LP  0  0  0  0  0  0  0  0  0  0  0  0  # atno 17343 bound_to 10162
  157.1089  131.0216  151.3056 LP  0  0  0  0  0  0  0  0  0  0  0  0  # atno 17370 bound_to 10713
  157.4721  130.7715  149.7333 LP  0  0  0  0  0  0  0  0  0  0  0  0  # atno 17371 bound_to 10713
  139.8995  135.0159  156.7197 LP  0  0  0  0  0  0  0  0  0  0  0  0  # atno 17394 bound_to 11000
  140.7031  133.9288  155.8037 LP  0  0  0  0  0  0  0  0  0  0  0  0  # atno 17395 bound_to 11000

$$$$
