AV-unprocessed.smi:3111|AV-procd|sdf|11833|dock8
  -GOLD-   2272017203D 1   1.00000     0.00000
 Structure written by MMmdl.
 29 29  0  0  0  0  0  0  0  0  1 V2000
  147.0964  140.2261  152.8772 C   0  0  0  0  0  0  0  0  0  0  0  0
  147.2869  140.6964  154.2408 N   0  0  0  0  0  0  0  0  0  0  0  0
  148.4467  141.1660  154.7208 C   0  0  0  0  0  0  0  0  0  0  0  0
  149.4695  141.2551  154.0395 O   0  0  0  0  0  0  0  0  0  0  0  0
  148.4352  141.6182  156.1868 C   0  0  0  0  0  0  0  0  0  0  0  0
  149.6791  142.2711  156.5857 N   0  0  0  0  0  0  0  0  0  0  0  0
  150.5025  141.8418  157.5558 C   0  0  0  0  0  0  0  0  0  0  0  0
  150.2585  140.8604  158.2590 O   0  0  0  0  0  0  0  0  0  0  0  0
  151.8015  142.6417  157.7423 C   0  0  1  0  0  0  0  0  0  0  0  0
  151.5683  144.1630  157.8090 C   0  0  0  0  0  0  0  0  0  0  0  0
  152.5230  142.1670  158.9151 N   0  0  0  0  0  0  0  0  0  0  0  0
  152.8815  142.9143  160.0306 C   0  0  0  0  0  0  0  0  0  0  0  0
  153.5534  142.0631  160.8784 C   0  0  0  0  0  0  0  0  0  0  0  0
  153.6236  140.7940  160.3101 N   0  0  0  0  0  0  0  0  0  0  0  0
  152.9944  140.9321  159.1504 C   0  0  0  0  0  0  0  0  0  0  0  0
  146.0650  139.9034  152.7358 H   0  0  0  0  0  0  0  0  0  0  0  0
  147.7508  139.3799  152.6636 H   0  0  0  0  0  0  0  0  0  0  0  0
  147.3074  141.0197  152.1594 H   0  0  0  0  0  0  0  0  0  0  0  0
  146.4898  140.6576  154.8594 H   0  0  0  0  0  0  0  0  0  0  0  0
  147.6173  142.3257  156.3248 H   0  0  0  0  0  0  0  0  0  0  0  0
  148.2287  140.7681  156.8398 H   0  0  0  0  0  0  0  0  0  0  0  0
  149.9589  143.0806  156.0510 H   0  0  0  0  0  0  0  0  0  0  0  0
  152.4269  142.4449  156.8699 H   0  0  0  0  0  0  0  0  0  0  0  0
  151.0504  144.5227  156.9192 H   0  0  0  0  0  0  0  0  0  0  0  0
  152.5164  144.6979  157.8727 H   0  0  0  0  0  0  0  0  0  0  0  0
  150.9724  144.4455  158.6779 H   0  0  0  0  0  0  0  0  0  0  0  0
  152.6369  143.9619  160.1271 H   0  0  0  0  0  0  0  0  0  0  0  0
  153.9897  142.2656  161.8453 H   0  0  0  0  0  0  0  0  0  0  0  0
  152.8759  140.1156  158.4530 H   0  0  0  0  0  0  0  0  0  0  0  0
  1  2  1  0  0  0  0
  1 16  1  0  0  0  0
  1 17  1  0  0  0  0
  1 18  1  0  0  0  0
  2  3  1  0  0  0  0
  2 19  1  0  0  0  0
  3  4  2  0  0  0  0
  3  5  1  0  0  0  0
  5  6  1  0  0  0  0
  5 20  1  0  0  0  0
  5 21  1  0  0  0  0
  6  7  1  0  0  0  0
  6 22  1  0  0  0  0
  7  8  2  0  0  0  0
  7  9  1  0  0  0  0
  9 10  1  0  0  0  0
  9 11  1  0  0  0  0
  9 23  1  0  0  0  0
 10 24  1  0  0  0  0
 10 25  1  0  0  0  0
 10 26  1  0  0  0  0
 11 15  1  0  0  0  0
 11 12  1  0  0  0  0
 12 13  2  0  0  0  0
 12 27  1  0  0  0  0
 13 14  1  0  0  0  0
 13 28  1  0  0  0  0
 14 15  2  0  0  0  0
 15 29  1  0  0  0  0
M  END
> <s_m_source_file>
AV-unprocessed.smi

> <i_m_source_file_index>
3111

> <i_lp_mmshare_version>
43012

> <i_f3d_flags>
0

> <s_epik_input>
W0NIM11bTkhdQyg9TylbQ0gyXVtOSF1DKD1PKVtDQEhdKFtDSDNdKW4xW2NIXVtjSF1uW2NIXTE=

> <s_epik_cmdline>
J2VwaWtfcHl0aG9uJywgJy1waCcsICc3LjAnLCAnLXRuJywgJzgnLCAnLW1hJywgJzIwMCcsICctbWV0YWxfYmluZGluZycsICctaW1hZScsICc8aW5maWxlLm1hZT4nLCAnLW9tYWUnLCAnPG91dGZpbGUubWFlPic=

> <r_lp_tautomer_probability>
1

> <r_epik_Ionization_Penalty>
0.278299

> <r_epik_Ionization_Penalty_Charging>
0.278299

> <r_epik_Ionization_Penalty_Neutral>
1.78617e-07

> <r_epik_State_Penalty>
0.270759

> <r_epik_Charging_Adjusted_Penalty>
0.549058

> <i_epik_Tot_Q>
0

> <i_epik_Tot_abs_Q>
0

> <r_epik_Metal_State_Penalty>
0.183212

> <b_epik_Metal_Only>
0

> <s_lp_Force_Field>
OPLS_2005

> <r_lp_Energy>
4.73549

> <b_lp_Chiralities_Consistent>
1

> <s_lp_Variant>
AV-unprocessed.smi:3111-2

> <Gold.Version>
5.8.1

> <Gold.Id.Protein>
6NUR|6NUR_protein|mol2

> <Gold.PLP.Fitness>
34.2597

> <Gold.PLP.PLP>
-30.0163

> <Gold.PLP.part.hbond>
-3.0000

> <Gold.PLP.part.metal>
0.0000

> <Gold.PLP.part.buried>
-2.7106

> <Gold.PLP.part.nonpolar>
-24.3175

> <Gold.PLP.part.repulsive>
0.2535

> <Gold.PLP.ligand.clash>
0.0000

> <Gold.PLP.ligand.torsion>
0.2540

> <Gold.PLP.Chemscore.Hbond>
1.5567

> <Gold.PLP.Chemscore.CHOScore>
0.0000

> <Gold.PLP.Chemscore.Metal>
0.0000

> <Gold.Chemscore.Hbonds>
donor molecule, donor type, donor heavy atom, donor atom, acceptor molecule, acceptor atom, score
      L1  H     6    22       P1  8028  0.56
      P1  H  7989  7998       L1     4  0.17
      P1  H  8011  8017       L1     4  0.68

> <Gold.PLP.Chemscore.Internal.Correction>
0.0812

> <Gold.Rescore>
     Score         DG    S(hbond)    S(metal)    S(lipo)     H(rot)  DE(clash)    DE(int)     intcor
     10.06     -11.60       1.66        0.00      54.57       2.27       0.11       1.43       ----

> <Gold.Chemscore.Fitness>
10.0616

> <Gold.Chemscore.DG>
-11.6048

> <Gold.Chemscore.ZeroCoef>
-5.4800

> <Gold.Chemscore.Hbond>
1.6629

> <Gold.Chemscore.Metal>
0.0000

> <Gold.Chemscore.Lipo>
54.5672

> <Gold.Chemscore.Internal_Hbond>
0.0000

> <Gold.Chemscore.DEClash>
0.1105

> <Gold.Chemscore.DEInternal>
1.4327

> <Gold.Chemscore.Rot>
2.2709

> <Gold.Chemscore.Internal.Correction>
   9.000000E+99

> <Gold.Chemscore.Hbonds>
donor molecule, donor type, donor heavy atom, donor atom, acceptor molecule, acceptor atom, score
      L1  H     6    22       P1  8028  0.54
      P1  H  7989  7998       L1     4  0.17
      P1  H  8011  8017       L1     4  0.65

> <Gold.Chemscore.Hbond.Weighted>
-5.5539

> <Gold.Chemscore.Metal.Weighted>
-0.0000

> <Gold.Chemscore.Lipo.Weighted>
-6.3844

> <Gold.Chemscore.Internal_Hbond.Weighted>
0.0000

> <Gold.Chemscore.DEClash.Weighted>
0.1105

> <Gold.Chemscore.DEInternal.Weighted>
1.4327

> <Gold.Chemscore.Rot.Weighted>
5.8135

> <Gold.Chemscore.Internal.Correction.Weighted>
   9.000000E+99

> <Gold.Protein.RotatedTorsions>
[ 6907 6896 6895 6894 ] final  167.30 input  -60.11 | X-H torsion
[ 7974 7965 7964 7962 ] final  -46.10 input  175.53 | X-H torsion
[ 8008 7997 7996 7995 ] final -147.35 input   59.86 | X-H torsion
[ 10167 10162 10161 10158 ] final -152.82 input  -65.29 | X-H torsion
[ 10718 10713 10712 10709 ] final   73.96 input   66.30 | X-H torsion
[ 10763 10752 10751 10750 ] final  -45.03 input  -60.55 | X-H torsion
[ 11005 11000 10999 10996 ] final -125.00 input  -57.11 | X-H torsion

> <Gold.Protein.ActiveResidues>
 VAL166  LYS551  ARG553  GLY616  TRP617  ASP618  TYR619  PRO620  LYS621  CYS622 
 ASP623  PHE694  ASN695  SER759  ASP760  ASP761  ALA762  ILE779  LEU786  VAL792 
 PHE793  MET794  SER795  GLU796  ALA797  LYS798  CYS799  TRP800  GLU811  SER814 

> <Gold.Protein.RotatedAtoms>
  151.8654  133.3465  159.3717 H   0  0  0  0  0  0  0  0  0  0  0  0  # atno 6907 bound_to 6896
  150.7167  134.5165  159.5642 H   0  0  0  0  0  0  0  0  0  0  0  0  # atno 6908 bound_to 6896
  152.2687  134.7957  160.0469 H   0  0  0  0  0  0  0  0  0  0  0  0  # atno 6909 bound_to 6896
  145.9754  140.7340  142.9390 H   0  0  0  0  0  0  0  0  0  0  0  0  # atno 7974 bound_to 7965
  155.5742  140.0637  157.2799 H   0  0  0  0  0  0  0  0  0  0  0  0  # atno 8008 bound_to 7997
  154.4352  140.1863  156.0956 H   0  0  0  0  0  0  0  0  0  0  0  0  # atno 8009 bound_to 7997
  156.0354  140.3302  155.7188 H   0  0  0  0  0  0  0  0  0  0  0  0  # atno 8010 bound_to 7997
  139.7149  143.9049  152.2482 H   0  0  0  0  0  0  0  0  0  0  0  0  # atno 10167 bound_to 10162
  157.6571  130.9654  150.1143 H   0  0  0  0  0  0  0  0  0  0  0  0  # atno 10718 bound_to 10713
  154.0219  135.6668  153.4773 H   0  0  0  0  0  0  0  0  0  0  0  0  # atno 10763 bound_to 10752
  153.0576  135.5046  154.8015 H   0  0  0  0  0  0  0  0  0  0  0  0  # atno 10764 bound_to 10752
  154.6932  135.3065  154.9414 H   0  0  0  0  0  0  0  0  0  0  0  0  # atno 10765 bound_to 10752
  140.9797  134.0691  157.3779 H   0  0  0  0  0  0  0  0  0  0  0  0  # atno 11005 bound_to 11000
  144.6847  140.2818  143.7291 LP  0  0  0  0  0  0  0  0  0  0  0  0  # atno 17320 bound_to 7965
  145.7847  139.1904  143.2137 LP  0  0  0  0  0  0  0  0  0  0  0  0  # atno 17321 bound_to 7965
  139.8929  144.6955  150.8750 LP  0  0  0  0  0  0  0  0  0  0  0  0  # atno 17342 bound_to 10162
  140.7741  143.3573  151.1897 LP  0  0  0  0  0  0  0  0  0  0  0  0  # atno 17343 bound_to 10162
  156.2031  130.3661  149.8763 LP  0  0  0  0  0  0  0  0  0  0  0  0  # atno 17370 bound_to 10713
  156.6661  130.8801  151.3555 LP  0  0  0  0  0  0  0  0  0  0  0  0  # atno 17371 bound_to 10713
  139.8945  135.0136  156.6953 LP  0  0  0  0  0  0  0  0  0  0  0  0  # atno 17394 bound_to 11000
  140.7206  133.9144  155.8144 LP  0  0  0  0  0  0  0  0  0  0  0  0  # atno 17395 bound_to 11000

$$$$
