AV-unprocessed.smi:1008|AV-procd|sdf|4410|dock5
  -GOLD-   22720 2353D 1   1.00000     0.00000
 Structure written by MMmdl.
 23 23  0  0  0  0  0  0  0  0  1 V2000
  149.7468  141.5589  156.0497 C   0  0  0  0  0  0  0  0  0  0  0  0
  149.8119  140.3081  155.1911 C   0  0  0  0  0  0  0  0  0  0  0  0
  148.6839  140.0576  154.3978 N   0  0  0  0  0  0  0  0  0  0  0  0
  148.6554  139.0120  153.6372 C   0  0  0  0  0  0  0  0  0  0  0  0
  147.6150  138.6442  152.8092 N   0  0  0  0  0  0  0  0  0  0  0  0
  149.7311  138.1252  153.5892 N   0  0  0  0  0  0  0  0  0  0  0  0
  150.8633  138.2830  154.3112 C   0  0  0  0  0  0  0  0  0  0  0  0
  151.7805  137.4685  154.2184 O   0  0  0  0  0  0  0  0  0  0  0  0
  150.8909  139.4748  155.1768 C   0  0  0  0  0  0  0  0  0  0  0  0
  152.1322  139.7004  156.0354 C   0  0  0  0  0  0  0  0  0  0  0  0
  152.3478  138.5682  157.0499 C   0  0  0  0  0  0  0  0  0  0  0  0
  153.3834  138.9171  157.9422 O   0  0  0  0  0  0  0  0  0  0  0  0
  149.6707  137.3204  152.9831 H   0  0  0  0  0  0  0  0  0  0  0  0
  150.6245  142.1849  155.8871 H   0  0  0  0  0  0  0  0  0  0  0  0
  149.7005  141.2923  157.1057 H   0  0  0  0  0  0  0  0  0  0  0  0
  148.8645  142.1554  155.8150 H   0  0  0  0  0  0  0  0  0  0  0  0
  146.7607  139.1762  152.7238 H   0  0  0  0  0  0  0  0  0  0  0  0
  147.6252  137.8191  152.2273 H   0  0  0  0  0  0  0  0  0  0  0  0
  153.0139  139.7965  155.4023 H   0  0  0  0  0  0  0  0  0  0  0  0
  152.0483  140.6570  156.5536 H   0  0  0  0  0  0  0  0  0  0  0  0
  151.4377  138.3793  157.6198 H   0  0  0  0  0  0  0  0  0  0  0  0
  152.6148  137.6408  156.5425 H   0  0  0  0  0  0  0  0  0  0  0  0
  153.3103  138.3765  158.7138 H   0  0  0  0  0  0  0  0  0  0  0  0
  1  2  1  0  0  0  0
  1 14  1  0  0  0  0
  1 15  1  0  0  0  0
  1 16  1  0  0  0  0
  2  9  2  0  0  0  0
  2  3  1  0  0  0  0
  3  4  2  0  0  0  0
  4  5  1  0  0  0  0
  4  6  1  0  0  0  0
  5 17  1  0  0  0  0
  5 18  1  0  0  0  0
  6 13  1  0  0  0  0
  6  7  1  0  0  0  0
  7  8  2  0  0  0  0
  7  9  1  0  0  0  0
  9 10  1  0  0  0  0
 10 11  1  0  0  0  0
 10 19  1  0  0  0  0
 10 20  1  0  0  0  0
 11 12  1  0  0  0  0
 11 21  1  0  0  0  0
 11 22  1  0  0  0  0
 12 23  1  0  0  0  0
M  END
> <s_m_source_file>
AV-unprocessed.smi

> <i_m_source_file_index>
1008

> <i_lp_mmshare_version>
43012

> <i_f3d_flags>
0

> <s_epik_input>
W0NIM11jMW5jKFtOSDJdKVtuSF1jKD1PKWMxW0NIMl1bQ0gyXVtPSF0=

> <s_epik_cmdline>
J2VwaWtfcHl0aG9uJywgJy1waCcsICc3LjAnLCAnLXRuJywgJzgnLCAnLW1hJywgJzIwMCcsICctbWV0YWxfYmluZGluZycsICctaW1hZScsICc8aW5maWxlLm1hZT4nLCAnLW9tYWUnLCAnPG91dGZpbGUubWFlPic=

> <r_lp_tautomer_probability>
0.878315

> <r_epik_Ionization_Penalty>
0.000554322

> <r_epik_Ionization_Penalty_Charging>
3.57358e-05

> <r_epik_Ionization_Penalty_Neutral>
0.000518586

> <r_epik_State_Penalty>
0.0663044

> <r_epik_Charging_Adjusted_Penalty>
0.0663402

> <i_epik_Tot_Q>
0

> <i_epik_Tot_abs_Q>
0

> <r_epik_Metal_State_Penalty>
0.196169

> <b_epik_Metal_Only>
0

> <s_lp_Force_Field>
OPLS_2005

> <r_lp_Energy>
7.47934

> <b_lp_Chiralities_Consistent>
1

> <s_lp_Variant>
AV-unprocessed.smi:1008-1

> <Gold.Version>
5.8.1

> <Gold.Id.Protein>
6NUR|6NUR_protein|mol2

> <Gold.PLP.Fitness>
31.4410

> <Gold.PLP.PLP>
-20.3573

> <Gold.PLP.part.hbond>
-5.8960

> <Gold.PLP.part.metal>
0.0000

> <Gold.PLP.part.buried>
-0.0856

> <Gold.PLP.part.nonpolar>
-16.0002

> <Gold.PLP.part.repulsive>
0.3943

> <Gold.PLP.ligand.clash>
0.0000

> <Gold.PLP.ligand.torsion>
0.0264

> <Gold.PLP.Chemscore.Hbond>
3.7120

> <Gold.PLP.Chemscore.CHOScore>
0.0000

> <Gold.PLP.Chemscore.Metal>
0.0000

> <Gold.Chemscore.Hbonds>
donor molecule, donor type, donor heavy atom, donor atom, acceptor molecule, acceptor atom, score
      L1  H     5    18       P1  7948  0.65
      L1  H     6    13       P1  7948  1.00
      P1  H  7997  8009       L1    12  1.00
      P1  H 10752 10765       L1     8  0.66

> <Gold.PLP.Chemscore.Internal.Correction>
0.0006

> <Gold.Rescore>
     Score         DG    S(hbond)    S(metal)    S(lipo)     H(rot)  DE(clash)    DE(int)     intcor
     13.31     -13.38       2.86        0.00      30.77       2.06       0.01       0.05       ----

> <Gold.Chemscore.Fitness>
13.3135

> <Gold.Chemscore.DG>
-13.3753

> <Gold.Chemscore.ZeroCoef>
-5.4800

> <Gold.Chemscore.Hbond>
2.8644

> <Gold.Chemscore.Metal>
0.0000

> <Gold.Chemscore.Lipo>
30.7741

> <Gold.Chemscore.Internal_Hbond>
0.0000

> <Gold.Chemscore.DEClash>
0.0069

> <Gold.Chemscore.DEInternal>
0.0549

> <Gold.Chemscore.Rot>
2.0595

> <Gold.Chemscore.Internal.Correction>
   9.000000E+99

> <Gold.Chemscore.Hbonds>
donor molecule, donor type, donor heavy atom, donor atom, acceptor molecule, acceptor atom, score
      L1  H     5    18       P1  7948  0.63
      L1  H     6    13       P1  7948  0.55
      P1  H  7997  8009       L1    12  0.87
      P1  H 10752 10765       L1     8  0.63

> <Gold.Chemscore.Hbond.Weighted>
-9.5672

> <Gold.Chemscore.Metal.Weighted>
-0.0000

> <Gold.Chemscore.Lipo.Weighted>
-3.6006

> <Gold.Chemscore.Internal_Hbond.Weighted>
0.0000

> <Gold.Chemscore.DEClash.Weighted>
0.0069

> <Gold.Chemscore.DEInternal.Weighted>
0.0549

> <Gold.Chemscore.Rot.Weighted>
5.2724

> <Gold.Chemscore.Internal.Correction.Weighted>
   9.000000E+99

> <Gold.Protein.RotatedTorsions>
[ 6907 6896 6895 6894 ] final  -56.80 input  -60.11 | X-H torsion
[ 7974 7965 7964 7962 ] final  156.88 input  175.53 | X-H torsion
[ 8008 7997 7996 7995 ] final  141.34 input   59.86 | X-H torsion
[ 10167 10162 10161 10158 ] final  123.29 input  -65.29 | X-H torsion
[ 10718 10713 10712 10709 ] final   16.16 input   66.30 | X-H torsion
[ 10763 10752 10751 10750 ] final  145.80 input  -60.55 | X-H torsion
[ 11005 11000 10999 10996 ] final  150.68 input  -57.11 | X-H torsion

> <Gold.Protein.ActiveResidues>
 VAL166  LYS551  ARG553  GLY616  TRP617  ASP618  TYR619  PRO620  LYS621  CYS622 
 ASP623  PHE694  ASN695  SER759  ASP760  ASP761  ALA762  ILE779  LEU786  VAL792 
 PHE793  MET794  SER795  GLU796  ALA797  LYS798  CYS799  TRP800  GLU811  SER814 

> <Gold.Protein.RotatedAtoms>
  150.8138  134.7308  159.6711 H   0  0  0  0  0  0  0  0  0  0  0  0  # atno 6907 bound_to 6896
  152.4257  134.5869  159.9973 H   0  0  0  0  0  0  0  0  0  0  0  0  # atno 6908 bound_to 6896
  151.6072  133.3313  159.3095 H   0  0  0  0  0  0  0  0  0  0  0  0  # atno 6909 bound_to 6896
  144.7936  139.7265  143.6211 H   0  0  0  0  0  0  0  0  0  0  0  0  # atno 7974 bound_to 7965
  156.2967  140.2318  156.4549 H   0  0  0  0  0  0  0  0  0  0  0  0  # atno 8008 bound_to 7997
  154.8069  140.0445  157.1335 H   0  0  0  0  0  0  0  0  0  0  0  0  # atno 8009 bound_to 7997
  154.9468  140.3036  155.5098 H   0  0  0  0  0  0  0  0  0  0  0  0  # atno 8010 bound_to 7997
  139.5808  144.6985  151.3534 H   0  0  0  0  0  0  0  0  0  0  0  0  # atno 10167 bound_to 10162
  157.0639  130.6320  149.5791 H   0  0  0  0  0  0  0  0  0  0  0  0  # atno 10718 bound_to 10713
  154.0114  135.2914  155.3392 H   0  0  0  0  0  0  0  0  0  0  0  0  # atno 10763 bound_to 10752
  154.7101  135.5153  153.8656 H   0  0  0  0  0  0  0  0  0  0  0  0  # atno 10764 bound_to 10752
  153.0721  135.6651  154.0345 H   0  0  0  0  0  0  0  0  0  0  0  0  # atno 10765 bound_to 10752
  140.1152  134.8899  157.1994 H   0  0  0  0  0  0  0  0  0  0  0  0  # atno 11005 bound_to 11000
  146.2197  139.5613  142.9626 LP  0  0  0  0  0  0  0  0  0  0  0  0  # atno 17320 bound_to 7965
  145.5730  141.0392  143.2163 LP  0  0  0  0  0  0  0  0  0  0  0  0  # atno 17321 bound_to 7965
  140.7086  143.7449  150.7526 LP  0  0  0  0  0  0  0  0  0  0  0  0  # atno 17342 bound_to 10162
  140.0981  143.4814  152.2441 LP  0  0  0  0  0  0  0  0  0  0  0  0  # atno 17343 bound_to 10162
  155.9970  130.5041  150.7519 LP  0  0  0  0  0  0  0  0  0  0  0  0  # atno 17370 bound_to 10713
  157.4933  131.0912  151.0402 LP  0  0  0  0  0  0  0  0  0  0  0  0  # atno 17371 bound_to 10713
  140.3038  134.3102  155.7283 LP  0  0  0  0  0  0  0  0  0  0  0  0  # atno 17394 bound_to 11000
  141.2139  133.7608  156.9678 LP  0  0  0  0  0  0  0  0  0  0  0  0  # atno 17395 bound_to 11000

$$$$
