AV-unprocessed.smi:2611|AV-procd|sdf|10210|dock9
  -GOLD-   2272014213D 1   1.00000     0.00000
 Structure written by MMmdl.
 39 40  0  0  0  0  0  0  0  0  1 V2000
  152.4471  138.2572  154.3397 C   0  0  0  0  0  0  0  0  0  0  0  0
  150.9532  137.9080  154.2684 C   0  0  0  0  0  0  0  0  0  0  0  0
  150.0467  139.1474  154.2893 C   0  0  0  0  0  0  0  0  0  0  0  0
  150.5642  136.9180  155.3234 C   0  0  0  0  0  0  0  0  0  0  0  0
  151.1726  135.7416  155.4223 N   0  0  0  0  0  0  0  0  0  0  0  0
  150.5343  135.1355  156.5138 O   0  0  0  0  0  0  0  0  0  0  0  0
  149.5987  136.0207  156.9325 C   0  0  0  0  0  0  0  0  0  0  0  0
  148.7728  135.6843  158.1283 C   0  0  0  0  0  0  0  0  0  0  0  0
  148.8879  136.7434  159.2361 C   0  0  0  0  0  0  0  0  0  0  0  0
  148.2057  136.3205  160.4536 N   0  0  0  0  0  0  0  0  0  0  0  0
  147.1538  136.9436  161.0117 C   0  0  0  0  0  0  0  0  0  0  0  0
  146.6791  137.9772  160.5385 O   0  0  0  0  0  0  0  0  0  0  0  0
  146.6791  136.3573  162.1404 N   0  0  0  0  0  0  0  0  0  0  0  0
  147.0310  135.0132  162.6271 C   0  0  0  0  0  0  0  0  0  0  0  0
  145.9679  134.0116  162.1463 C   0  0  0  0  0  0  0  0  0  0  0  0
  144.3343  134.4124  162.8422 S   0  0  0  0  0  0  0  0  0  0  0  0
  144.2522  136.1847  162.4339 C   0  0  0  0  0  0  0  0  0  0  0  0
  145.5343  136.9133  162.8712 C   0  0  0  0  0  0  0  0  0  0  0  0
  149.5833  137.1558  156.2389 N   0  0  0  0  0  0  0  0  0  0  0  0
  153.0638  137.3625  154.2496 H   0  0  0  0  0  0  0  0  0  0  0  0
  152.6971  138.7410  155.2842 H   0  0  0  0  0  0  0  0  0  0  0  0
  152.7302  138.9357  153.5346 H   0  0  0  0  0  0  0  0  0  0  0  0
  150.7961  137.4290  153.3005 H   0  0  0  0  0  0  0  0  0  0  0  0
  149.0000  138.8696  154.1612 H   0  0  0  0  0  0  0  0  0  0  0  0
  150.3061  139.8361  153.4851 H   0  0  0  0  0  0  0  0  0  0  0  0
  150.1353  139.6892  155.2316 H   0  0  0  0  0  0  0  0  0  0  0  0
  147.7346  135.5760  157.8118 H   0  0  0  0  0  0  0  0  0  0  0  0
  149.0880  134.7102  158.5045 H   0  0  0  0  0  0  0  0  0  0  0  0
  149.9371  136.9118  159.4805 H   0  0  0  0  0  0  0  0  0  0  0  0
  148.4910  137.7008  158.8943 H   0  0  0  0  0  0  0  0  0  0  0  0
  148.5522  135.4857  160.9034 H   0  0  0  0  0  0  0  0  0  0  0  0
  148.0211  134.6873  162.3081 H   0  0  0  0  0  0  0  0  0  0  0  0
  147.0753  135.0126  163.7172 H   0  0  0  0  0  0  0  0  0  0  0  0
  145.9037  134.0172  161.0576 H   0  0  0  0  0  0  0  0  0  0  0  0
  146.2357  132.9985  162.4458 H   0  0  0  0  0  0  0  0  0  0  0  0
  144.0991  136.2956  161.3598 H   0  0  0  0  0  0  0  0  0  0  0  0
  143.3812  136.6174  162.9264 H   0  0  0  0  0  0  0  0  0  0  0  0
  145.6830  136.8022  163.9462 H   0  0  0  0  0  0  0  0  0  0  0  0
  145.4283  137.9864  162.7046 H   0  0  0  0  0  0  0  0  0  0  0  0
  1  2  1  0  0  0  0
  1 20  1  0  0  0  0
  1 21  1  0  0  0  0
  1 22  1  0  0  0  0
  2  3  1  0  0  0  0
  2  4  1  0  0  0  0
  2 23  1  0  0  0  0
  3 24  1  0  0  0  0
  3 25  1  0  0  0  0
  3 26  1  0  0  0  0
  4 19  1  0  0  0  0
  4  5  2  0  0  0  0
  5  6  1  0  0  0  0
  6  7  1  0  0  0  0
  7  8  1  0  0  0  0
  7 19  2  0  0  0  0
  8  9  1  0  0  0  0
  8 27  1  0  0  0  0
  8 28  1  0  0  0  0
  9 10  1  0  0  0  0
  9 29  1  0  0  0  0
  9 30  1  0  0  0  0
 10 11  1  0  0  0  0
 10 31  1  0  0  0  0
 11 12  2  0  0  0  0
 11 13  1  0  0  0  0
 13 18  1  0  0  0  0
 13 14  1  0  0  0  0
 14 15  1  0  0  0  0
 14 32  1  0  0  0  0
 14 33  1  0  0  0  0
 15 16  1  0  0  0  0
 15 34  1  0  0  0  0
 15 35  1  0  0  0  0
 16 17  1  0  0  0  0
 17 18  1  0  0  0  0
 17 36  1  0  0  0  0
 17 37  1  0  0  0  0
 18 38  1  0  0  0  0
 18 39  1  0  0  0  0
M  END
> <s_m_source_file>
AV-unprocessed.smi

> <i_m_source_file_index>
2611

> <i_lp_mmshare_version>
43012

> <i_f3d_flags>
0

> <s_epik_input>
W0NIM11bQ0hdKFtDSDNdKWMxbm9jKG4xKVtDSDJdW0NIMl1bTkhdQyg9TylOMltDSDJdW0NIMl1TW0NIMl1bQ0gyXTI=

> <s_epik_cmdline>
J2VwaWtfcHl0aG9uJywgJy1waCcsICc3LjAnLCAnLXRuJywgJzgnLCAnLW1hJywgJzIwMCcsICctbWV0YWxfYmluZGluZycsICctaW1hZScsICc8aW5maWxlLm1hZT4nLCAnLW9tYWUnLCAnPG91dGZpbGUubWFlPic=

> <r_lp_tautomer_probability>
1

> <r_epik_Ionization_Penalty>
4.28847e-05

> <r_epik_Ionization_Penalty_Charging>
0

> <r_epik_Ionization_Penalty_Neutral>
4.28847e-05

> <r_epik_State_Penalty>
-0

> <r_epik_Charging_Adjusted_Penalty>
0

> <i_epik_Tot_Q>
0

> <i_epik_Tot_abs_Q>
0

> <r_epik_Metal_State_Penalty>
-0

> <b_epik_Metal_Only>
0

> <s_lp_Force_Field>
OPLS_2005

> <r_lp_Energy>
14.602

> <b_lp_Chiralities_Consistent>
1

> <s_lp_Variant>
AV-unprocessed.smi:2611-1

> <Gold.Version>
5.8.1

> <Gold.Id.Protein>
6NUR|6NUR_protein|mol2

> <Gold.PLP.Fitness>
40.6038

> <Gold.PLP.PLP>
-34.6989

> <Gold.PLP.part.hbond>
-2.6060

> <Gold.PLP.part.metal>
0.0000

> <Gold.PLP.part.buried>
-3.8798

> <Gold.PLP.part.nonpolar>
-28.9317

> <Gold.PLP.part.repulsive>
0.2470

> <Gold.PLP.ligand.clash>
0.0000

> <Gold.PLP.ligand.torsion>
0.1058

> <Gold.PLP.Chemscore.Hbond>
2.0000

> <Gold.PLP.Chemscore.CHOScore>
0.0000

> <Gold.PLP.Chemscore.Metal>
0.0000

> <Gold.Chemscore.Hbonds>
donor molecule, donor type, donor heavy atom, donor atom, acceptor molecule, acceptor atom, score
      P1  H  6934  6947       L1    12  0.21
      P1  H 10752 10763       L1     5  1.00

> <Gold.PLP.Chemscore.Internal.Correction>
0.1166

> <Gold.Rescore>
     Score         DG    S(hbond)    S(metal)    S(lipo)     H(rot)  DE(clash)    DE(int)     intcor
     14.60     -14.90       1.87        0.00      64.69       1.72       0.09       0.21       ----

> <Gold.Chemscore.Fitness>
14.5970

> <Gold.Chemscore.DG>
-14.8996

> <Gold.Chemscore.ZeroCoef>
-5.4800

> <Gold.Chemscore.Hbond>
1.8720

> <Gold.Chemscore.Metal>
0.0000

> <Gold.Chemscore.Lipo>
64.6881

> <Gold.Chemscore.Internal_Hbond>
0.0000

> <Gold.Chemscore.DEClash>
0.0949

> <Gold.Chemscore.DEInternal>
0.2077

> <Gold.Chemscore.Rot>
1.7193

> <Gold.Chemscore.Internal.Correction>
   9.000000E+99

> <Gold.Chemscore.Hbonds>
donor molecule, donor type, donor heavy atom, donor atom, acceptor molecule, acceptor atom, score
      P1  H  6934  6947       L1    12  0.20
      P1  H 10752 10763       L1     5  0.98

> <Gold.Chemscore.Hbond.Weighted>
-6.2526

> <Gold.Chemscore.Metal.Weighted>
-0.0000

> <Gold.Chemscore.Lipo.Weighted>
-7.5685

> <Gold.Chemscore.Internal_Hbond.Weighted>
0.0000

> <Gold.Chemscore.DEClash.Weighted>
0.0949

> <Gold.Chemscore.DEInternal.Weighted>
0.2077

> <Gold.Chemscore.Rot.Weighted>
4.4015

> <Gold.Chemscore.Internal.Correction.Weighted>
   9.000000E+99

> <Gold.Protein.RotatedTorsions>
[ 6907 6896 6895 6894 ] final  135.58 input  -60.11 | X-H torsion
[ 7974 7965 7964 7962 ] final  -77.81 input  175.53 | X-H torsion
[ 8008 7997 7996 7995 ] final  141.87 input   59.86 | X-H torsion
[ 10167 10162 10161 10158 ] final   -0.75 input  -65.29 | X-H torsion
[ 10718 10713 10712 10709 ] final   13.88 input   66.30 | X-H torsion
[ 10763 10752 10751 10750 ] final   75.86 input  -60.55 | X-H torsion
[ 11005 11000 10999 10996 ] final  -61.53 input  -57.11 | X-H torsion

> <Gold.Protein.ActiveResidues>
 VAL166  LYS551  ARG553  GLY616  TRP617  ASP618  TYR619  PRO620  LYS621  CYS622 
 ASP623  PHE694  ASN695  SER759  ASP760  ASP761  ALA762  ILE779  LEU786  VAL792 
 PHE793  MET794  SER795  GLU796  ALA797  LYS798  CYS799  TRP800  GLU811  SER814 

> <Gold.Protein.RotatedAtoms>
  152.2988  133.5634  159.5604 H   0  0  0  0  0  0  0  0  0  0  0  0  # atno 6907 bound_to 6896
  150.7268  134.0322  159.3746 H   0  0  0  0  0  0  0  0  0  0  0  0  # atno 6908 bound_to 6896
  151.8223  135.0648  160.0477 H   0  0  0  0  0  0  0  0  0  0  0  0  # atno 6909 bound_to 6896
  145.5948  140.9421  143.1273 H   0  0  0  0  0  0  0  0  0  0  0  0  # atno 7974 bound_to 7965
  156.2959  140.2303  156.4636 H   0  0  0  0  0  0  0  0  0  0  0  0  # atno 8008 bound_to 7997
  154.7997  140.0449  157.1284 H   0  0  0  0  0  0  0  0  0  0  0  0  # atno 8009 bound_to 7997
  154.9548  140.3046  155.5061 H   0  0  0  0  0  0  0  0  0  0  0  0  # atno 8010 bound_to 7997
  140.6781  143.6858  150.8068 H   0  0  0  0  0  0  0  0  0  0  0  0  # atno 10167 bound_to 10162
  157.0311  130.6193  149.5735 H   0  0  0  0  0  0  0  0  0  0  0  0  # atno 10718 bound_to 10713
  153.0684  135.4973  154.8251 H   0  0  0  0  0  0  0  0  0  0  0  0  # atno 10763 bound_to 10752
  154.6987  135.2997  154.9376 H   0  0  0  0  0  0  0  0  0  0  0  0  # atno 10764 bound_to 10752
  154.0106  135.6754  153.4818 H   0  0  0  0  0  0  0  0  0  0  0  0  # atno 10765 bound_to 10752
  141.1327  133.6631  156.5389 H   0  0  0  0  0  0  0  0  0  0  0  0  # atno 11005 bound_to 11000
  144.7335  139.7654  143.7338 LP  0  0  0  0  0  0  0  0  0  0  0  0  # atno 17320 bound_to 7965
  146.1620  139.4738  142.9982 LP  0  0  0  0  0  0  0  0  0  0  0  0  # atno 17321 bound_to 7965
  140.0554  143.5208  152.2654 LP  0  0  0  0  0  0  0  0  0  0  0  0  # atno 17342 bound_to 10162
  139.6085  144.7602  151.3006 LP  0  0  0  0  0  0  0  0  0  0  0  0  # atno 17343 bound_to 10162
  156.0069  130.5157  150.7861 LP  0  0  0  0  0  0  0  0  0  0  0  0  # atno 17370 bound_to 10713
  157.5177  131.0929  151.0118 LP  0  0  0  0  0  0  0  0  0  0  0  0  # atno 17371 bound_to 10713
  140.4155  134.7234  157.4860 LP  0  0  0  0  0  0  0  0  0  0  0  0  # atno 17394 bound_to 11000
  140.0396  134.6286  155.8997 LP  0  0  0  0  0  0  0  0  0  0  0  0  # atno 17395 bound_to 11000

$$$$
