AV-unprocessed.smi:173|AV-procd|sdf|1424|dock9
  -GOLD-   2262019193D 1   1.00000     0.00000
 Structure written by MMmdl.
 60 64  0  0  0  0  0  0  0  0  1 V2000
  144.1568  140.1963  155.0098 O   0  0  0  0  0  0  0  0  0  0  0  0
  143.4805  141.1057  155.8593 C   0  0  0  0  0  0  0  0  0  0  0  0
  144.3407  142.3952  155.8464 C   0  0  0  0  0  0  0  0  0  0  0  0
  145.7431  142.1860  156.1701 N   0  0  0  0  0  0  0  0  0  0  0  0
  146.3317  142.3194  157.4074 C   0  0  0  0  0  0  0  0  0  0  0  0
  147.6123  142.0731  157.4442 N   0  0  0  0  0  0  0  0  0  0  0  0
  147.9357  141.7577  156.1297 C   0  0  0  0  0  0  0  0  0  0  0  0
  149.1352  141.3821  155.4605 C   0  0  0  0  0  0  0  0  0  0  0  0
  150.3426  141.2455  156.0578 N   0  0  0  0  0  0  0  0  0  0  0  0
  150.3054  141.4190  157.5106 C   0  0  0  0  0  0  0  0  0  0  0  0
  151.5148  142.1953  158.0568 C   0  0  1  0  0  0  0  0  0  0  0  0
  151.5982  143.6261  157.5345 C   0  0  0  0  0  0  0  0  0  0  0  0
  152.4973  144.2957  158.5553 C   0  0  0  0  0  0  0  0  0  0  0  0
  152.2508  143.4875  159.8321 C   0  0  0  0  0  0  0  0  0  0  0  0
  151.3991  142.4102  159.4562 O   0  0  0  0  0  0  0  0  0  0  0  0
  151.2679  140.2521  155.4913 C   0  0  0  0  0  0  0  0  0  0  0  0
  150.6411  139.0039  154.8551 C   0  0  0  0  0  0  0  0  0  0  0  0
  151.8323  138.0607  154.6678 C   0  0  0  0  0  0  0  0  0  0  0  0
  152.8368  138.4202  155.7762 C   0  0  0  0  0  0  0  0  0  0  0  0
  152.2818  139.6659  156.4803 C   0  0  0  0  0  0  0  0  0  0  0  0
  149.0724  141.1612  154.1232 N   0  0  0  0  0  0  0  0  0  0  0  0
  147.9084  141.2815  153.4783 C   0  0  0  0  0  0  0  0  0  0  0  0
  146.7116  141.6094  153.9697 N   0  0  0  0  0  0  0  0  0  0  0  0
  146.7730  141.8391  155.3130 C   0  0  0  0  0  0  0  0  0  0  0  0
  142.0582  141.3262  155.2991 C   0  0  0  0  0  0  0  0  0  0  0  0
  141.1941  140.0567  155.4101 C   0  0  0  0  0  0  0  0  0  0  0  0
  141.1507  139.6136  156.7614 O   0  0  0  0  0  0  0  0  0  0  0  0
  142.4310  139.2464  157.2620 C   0  0  0  0  0  0  0  0  0  0  0  0
  143.3659  140.4691  157.2615 C   0  0  0  0  0  0  0  0  0  0  0  0
  143.8274  140.3049  154.1307 H   0  0  0  0  0  0  0  0  0  0  0  0
  144.2887  142.8732  154.8669 H   0  0  0  0  0  0  0  0  0  0  0  0
  143.9390  143.1194  156.5572 H   0  0  0  0  0  0  0  0  0  0  0  0
  145.7748  142.5984  158.2902 H   0  0  0  0  0  0  0  0  0  0  0  0
  149.4021  141.9741  157.7699 H   0  0  0  0  0  0  0  0  0  0  0  0
  150.2247  140.4512  158.0063 H   0  0  0  0  0  0  0  0  0  0  0  0
  152.4471  141.6705  157.8384 H   0  0  0  0  0  0  0  0  0  0  0  0
  151.9878  143.6874  156.5181 H   0  0  0  0  0  0  0  0  0  0  0  0
  150.6114  144.0915  157.5494 H   0  0  0  0  0  0  0  0  0  0  0  0
  153.5417  144.2069  158.2537 H   0  0  0  0  0  0  0  0  0  0  0  0
  152.2702  145.3552  158.6761 H   0  0  0  0  0  0  0  0  0  0  0  0
  153.1878  143.0998  160.2334 H   0  0  0  0  0  0  0  0  0  0  0  0
  151.7698  144.0843  160.6072 H   0  0  0  0  0  0  0  0  0  0  0  0
  151.8252  140.7491  154.6976 H   0  0  0  0  0  0  0  0  0  0  0  0
  149.9302  138.5252  155.5297 H   0  0  0  0  0  0  0  0  0  0  0  0
  150.1247  139.2204  153.9196 H   0  0  0  0  0  0  0  0  0  0  0  0
  151.5310  137.0135  154.7062 H   0  0  0  0  0  0  0  0  0  0  0  0
  152.2878  138.2336  153.6918 H   0  0  0  0  0  0  0  0  0  0  0  0
  152.9655  137.6000  156.4835 H   0  0  0  0  0  0  0  0  0  0  0  0
  153.8141  138.6295  155.3397 H   0  0  0  0  0  0  0  0  0  0  0  0
  153.0651  140.3757  156.7480 H   0  0  0  0  0  0  0  0  0  0  0  0
  151.7850  139.3579  157.3998 H   0  0  0  0  0  0  0  0  0  0  0  0
  147.9405  141.0851  152.4168 H   0  0  0  0  0  0  0  0  0  0  0  0
  141.5574  142.1164  155.8577 H   0  0  0  0  0  0  0  0  0  0  0  0
  142.1015  141.6619  154.2622 H   0  0  0  0  0  0  0  0  0  0  0  0
  140.1773  140.2698  155.0798 H   0  0  0  0  0  0  0  0  0  0  0  0
  141.5737  139.2617  154.7666 H   0  0  0  0  0  0  0  0  0  0  0  0
  142.3139  138.8688  158.2778 H   0  0  0  0  0  0  0  0  0  0  0  0
  142.8466  138.4305  156.6690 H   0  0  0  0  0  0  0  0  0  0  0  0
  144.3505  140.1909  157.6393 H   0  0  0  0  0  0  0  0  0  0  0  0
  142.9599  141.1947  157.9661 H   0  0  0  0  0  0  0  0  0  0  0  0
  1  2  1  0  0  0  0
  1 30  1  0  0  0  0
  2 29  1  0  0  0  0
  2  3  1  0  0  0  0
  2 25  1  0  0  0  0
  3  4  1  0  0  0  0
  3 31  1  0  0  0  0
  3 32  1  0  0  0  0
  4 24  1  0  0  0  0
  4  5  1  0  0  0  0
  5  6  2  0  0  0  0
  5 33  1  0  0  0  0
  6  7  1  0  0  0  0
  7 24  2  0  0  0  0
  7  8  1  0  0  0  0
  8  9  1  0  0  0  0
  8 21  2  0  0  0  0
  9 10  1  0  0  0  0
  9 16  1  0  0  0  0
 10 11  1  0  0  0  0
 10 34  1  0  0  0  0
 10 35  1  0  0  0  0
 11 15  1  0  0  0  0
 11 12  1  0  0  0  0
 11 36  1  0  0  0  0
 12 13  1  0  0  0  0
 12 37  1  0  0  0  0
 12 38  1  0  0  0  0
 13 14  1  0  0  0  0
 13 39  1  0  0  0  0
 13 40  1  0  0  0  0
 14 15  1  0  0  0  0
 14 41  1  0  0  0  0
 14 42  1  0  0  0  0
 16 20  1  0  0  0  0
 16 17  1  0  0  0  0
 16 43  1  0  0  0  0
 17 18  1  0  0  0  0
 17 44  1  0  0  0  0
 17 45  1  0  0  0  0
 18 19  1  0  0  0  0
 18 46  1  0  0  0  0
 18 47  1  0  0  0  0
 19 20  1  0  0  0  0
 19 48  1  0  0  0  0
 19 49  1  0  0  0  0
 20 50  1  0  0  0  0
 20 51  1  0  0  0  0
 21 22  1  0  0  0  0
 22 23  2  0  0  0  0
 22 52  1  0  0  0  0
 23 24  1  0  0  0  0
 25 26  1  0  0  0  0
 25 53  1  0  0  0  0
 25 54  1  0  0  0  0
 26 27  1  0  0  0  0
 26 55  1  0  0  0  0
 26 56  1  0  0  0  0
 27 28  1  0  0  0  0
 28 29  1  0  0  0  0
 28 57  1  0  0  0  0
 28 58  1  0  0  0  0
 29 59  1  0  0  0  0
 29 60  1  0  0  0  0
M  END
> <s_m_source_file>
AV-unprocessed.smi

> <i_m_source_file_index>
173

> <i_lp_mmshare_version>
43012

> <i_f3d_flags>
0

> <s_epik_input>
W0NIMl0xW0NIMl1PW0NIMl1bQ0gyXUMxKFtPSF0pW0NIMl1uKFtjSF1uMiljKGMyMyluW2NIXW5jM04oW0NIMl1bQ0BASF00W0NIMl1bQ0gyXVtDSDJdTzQpW0NIXTVbQ0gyXVtDSDJdW0NIMl1bQ0gyXTU=

> <s_epik_cmdline>
J2VwaWtfcHl0aG9uJywgJy1waCcsICc3LjAnLCAnLXRuJywgJzgnLCAnLW1hJywgJzIwMCcsICctbWV0YWxfYmluZGluZycsICctaW1hZScsICc8aW5maWxlLm1hZT4nLCAnLW9tYWUnLCAnPG91dGZpbGUubWFlPic=

> <r_lp_tautomer_probability>
1

> <r_epik_Ionization_Penalty>
0.0053129

> <r_epik_Ionization_Penalty_Charging>
0

> <r_epik_Ionization_Penalty_Neutral>
0.0053129

> <r_epik_State_Penalty>
0.00367355

> <r_epik_Charging_Adjusted_Penalty>
0.00367355

> <i_epik_Tot_Q>
0

> <i_epik_Tot_abs_Q>
0

> <r_epik_Metal_State_Penalty>
-0

> <b_epik_Metal_Only>
0

> <s_lp_Force_Field>
OPLS_2005

> <r_lp_Energy>
59.0129

> <b_lp_Chiralities_Consistent>
1

> <s_lp_Variant>
AV-unprocessed.smi:173-2

> <Gold.Version>
5.8.1

> <Gold.Id.Protein>
6NUR|6NUR_protein|mol2

> <Gold.PLP.Fitness>
46.4981

> <Gold.PLP.PLP>
-43.6895

> <Gold.PLP.part.hbond>
-2.2226

> <Gold.PLP.part.metal>
0.0000

> <Gold.PLP.part.buried>
-4.2301

> <Gold.PLP.part.nonpolar>
-37.3479

> <Gold.PLP.part.repulsive>
0.5427

> <Gold.PLP.ligand.clash>
0.0000

> <Gold.PLP.ligand.torsion>
2.1512

> <Gold.PLP.Chemscore.Hbond>
1.0422

> <Gold.PLP.Chemscore.CHOScore>
0.9467

> <Gold.PLP.Chemscore.Metal>
0.0000

> <Gold.Chemscore.Hbonds>
donor molecule, donor type, donor heavy atom, donor atom, acceptor molecule, acceptor atom, score
      L1  H     1    30       P1 10175  1.00
      P1  H  8011  8017       L1    21  0.01
      L1  C    22    52       P1  7957  1.00

> <Gold.PLP.Chemscore.Internal.Correction>
1.1443

> <Gold.Rescore>
     Score         DG    S(hbond)    S(metal)    S(lipo)     H(rot)  DE(clash)    DE(int)     intcor
      8.44     -13.39       1.00        0.00      95.85       2.59       0.09       4.86       ----

> <Gold.Chemscore.Fitness>
8.4374

> <Gold.Chemscore.DG>
-13.3892

> <Gold.Chemscore.ZeroCoef>
-5.4800

> <Gold.Chemscore.Hbond>
0.9969

> <Gold.Chemscore.Metal>
0.0000

> <Gold.Chemscore.Lipo>
95.8460

> <Gold.Chemscore.Internal_Hbond>
0.0000

> <Gold.Chemscore.DEClash>
0.0943

> <Gold.Chemscore.DEInternal>
4.8575

> <Gold.Chemscore.Rot>
2.5916

> <Gold.Chemscore.Internal.Correction>
   9.000000E+99

> <Gold.Chemscore.Hbonds>
donor molecule, donor type, donor heavy atom, donor atom, acceptor molecule, acceptor atom, score
      L1  H     1    30       P1 10175  1.00

> <Gold.Chemscore.Hbond.Weighted>
-3.3298

> <Gold.Chemscore.Metal.Weighted>
-0.0000

> <Gold.Chemscore.Lipo.Weighted>
-11.2140

> <Gold.Chemscore.Internal_Hbond.Weighted>
0.0000

> <Gold.Chemscore.DEClash.Weighted>
0.0943

> <Gold.Chemscore.DEInternal.Weighted>
4.8575

> <Gold.Chemscore.Rot.Weighted>
6.6346

> <Gold.Chemscore.Internal.Correction.Weighted>
   9.000000E+99

> <Gold.Protein.RotatedTorsions>
[ 6907 6896 6895 6894 ] final -137.16 input  -60.11 | X-H torsion
[ 7974 7965 7964 7962 ] final -162.99 input  175.53 | X-H torsion
[ 8008 7997 7996 7995 ] final   83.89 input   59.86 | X-H torsion
[ 10167 10162 10161 10158 ] final    6.78 input  -65.29 | X-H torsion
[ 10718 10713 10712 10709 ] final  -66.13 input   66.30 | X-H torsion
[ 10763 10752 10751 10750 ] final  -55.54 input  -60.55 | X-H torsion
[ 11005 11000 10999 10996 ] final    2.80 input  -57.11 | X-H torsion

> <Gold.Protein.ActiveResidues>
 VAL166  LYS551  ARG553  GLY616  TRP617  ASP618  TYR619  PRO620  LYS621  CYS622 
 ASP623  PHE694  ASN695  SER759  ASP760  ASP761  ALA762  ILE779  LEU786  VAL792 
 PHE793  MET794  SER795  GLU796  ALA797  LYS798  CYS799  TRP800  GLU811  SER814 

> <Gold.Protein.RotatedAtoms>
  151.0190  133.5894  159.2673 H   0  0  0  0  0  0  0  0  0  0  0  0  # atno 6907 bound_to 6896
  151.3018  135.0769  159.9251 H   0  0  0  0  0  0  0  0  0  0  0  0  # atno 6908 bound_to 6896
  152.5318  133.9871  159.7887 H   0  0  0  0  0  0  0  0  0  0  0  0  # atno 6909 bound_to 6896
  144.7340  140.3173  143.6177 H   0  0  0  0  0  0  0  0  0  0  0  0  # atno 7974 bound_to 7965
  155.9299  140.3415  155.6240 H   0  0  0  0  0  0  0  0  0  0  0  0  # atno 8008 bound_to 7997
  155.7170  140.0779  157.2365 H   0  0  0  0  0  0  0  0  0  0  0  0  # atno 8009 bound_to 7997
  154.4083  140.1612  156.2347 H   0  0  0  0  0  0  0  0  0  0  0  0  # atno 8010 bound_to 7997
  140.6409  143.7777  150.7426 H   0  0  0  0  0  0  0  0  0  0  0  0  # atno 10167 bound_to 10162
  156.0630  130.4257  150.1664 H   0  0  0  0  0  0  0  0  0  0  0  0  # atno 10718 bound_to 10713
  154.1925  135.6425  153.5064 H   0  0  0  0  0  0  0  0  0  0  0  0  # atno 10763 bound_to 10752
  153.0031  135.5432  154.6400 H   0  0  0  0  0  0  0  0  0  0  0  0  # atno 10764 bound_to 10752
  154.5793  135.2924  155.0722 H   0  0  0  0  0  0  0  0  0  0  0  0  # atno 10765 bound_to 10752
  140.6003  133.9842  155.8129 H   0  0  0  0  0  0  0  0  0  0  0  0  # atno 11005 bound_to 11000
  145.7604  139.1823  143.2270 LP  0  0  0  0  0  0  0  0  0  0  0  0  # atno 17320 bound_to 7965
  146.0991  140.7566  142.9558 LP  0  0  0  0  0  0  0  0  0  0  0  0  # atno 17321 bound_to 7965
  140.1408  143.4443  152.2195 LP  0  0  0  0  0  0  0  0  0  0  0  0  # atno 17342 bound_to 10162
  139.5618  144.7410  151.4133 LP  0  0  0  0  0  0  0  0  0  0  0  0  # atno 17343 bound_to 10162
  156.9728  130.9840  151.3455 LP  0  0  0  0  0  0  0  0  0  0  0  0  # atno 17370 bound_to 10713
  157.5652  130.8273  149.8318 LP  0  0  0  0  0  0  0  0  0  0  0  0  # atno 17371 bound_to 10713
  141.0877  133.9965  157.3287 LP  0  0  0  0  0  0  0  0  0  0  0  0  # atno 17394 bound_to 11000
  139.9235  135.0201  156.8152 LP  0  0  0  0  0  0  0  0  0  0  0  0  # atno 17395 bound_to 11000

$$$$
