AV-unprocessed.smi:2531|AV-procd|sdf|9964|dock6
  -GOLD-   2272014 03D 1   1.00000     0.00000
 Structure written by MMmdl.
 46 48  0  0  0  0  0  0  0  0  1 V2000
  150.8786  141.4285  159.5070 O   0  0  0  0  0  0  0  0  0  0  0  0
  151.0875  142.0390  158.4578 C   0  0  0  0  0  0  0  0  0  0  0  0
  152.3101  142.9727  158.3044 C   0  0  0  0  0  0  0  0  0  0  0  0
  153.1222  143.1491  159.5990 C   0  0  0  0  0  0  0  0  0  0  0  0
  152.4382  144.2845  160.3724 C   0  0  0  0  0  0  0  0  0  0  0  0
  151.6341  145.0853  159.3366 C   0  0  0  0  0  0  0  0  0  0  0  0
  151.8947  144.4163  157.9809 C   0  0  0  0  0  0  0  0  0  0  0  0
  150.2723  141.8497  157.3376 N   0  0  0  0  0  0  0  0  0  0  0  0
  150.8162  141.7742  155.9900 C   0  0  0  0  0  0  0  0  0  0  0  0
  149.6072  140.8857  155.6757 C   0  0  0  0  0  0  0  0  0  0  0  0
  150.0605  139.3861  154.6961 S   0  0  0  0  0  0  0  0  0  0  0  0
  151.3701  139.6199  154.0682 O   0  0  0  0  0  0  0  0  0  0  0  0
  149.8402  138.1743  155.5004 O   0  0  0  0  0  0  0  0  0  0  0  0
  148.8772  139.3936  153.4439 N   0  0  0  0  0  0  0  0  0  0  0  0
  147.4772  139.5548  153.8308 C   0  0  0  0  0  0  0  0  0  0  0  0
  146.6064  139.8010  152.5915 C   0  0  0  0  0  0  0  0  0  0  0  0
  145.9053  138.5397  152.1235 C   0  0  0  0  0  0  0  0  0  0  0  0
  145.0718  137.8107  152.9985 C   0  0  0  0  0  0  0  0  0  0  0  0
  144.4393  136.6505  152.5110 C   0  0  0  0  0  0  0  0  0  0  0  0
  144.6621  136.2669  151.1746 C   0  0  0  0  0  0  0  0  0  0  0  0
  145.5113  137.0640  150.3813 C   0  0  0  0  0  0  0  0  0  0  0  0
  146.1230  138.1777  150.8388 N   0  0  0  0  0  0  0  0  0  0  0  0
  149.4652  140.6487  157.1858 C   0  0  0  0  0  0  0  0  0  0  0  0
  152.9554  142.5703  157.5233 H   0  0  0  0  0  0  0  0  0  0  0  0
  153.2110  142.2381  160.1926 H   0  0  0  0  0  0  0  0  0  0  0  0
  154.1382  143.4508  159.3403 H   0  0  0  0  0  0  0  0  0  0  0  0
  151.7651  143.8754  161.1268 H   0  0  0  0  0  0  0  0  0  0  0  0
  153.1689  144.9062  160.8908 H   0  0  0  0  0  0  0  0  0  0  0  0
  150.5721  145.0359  159.5796 H   0  0  0  0  0  0  0  0  0  0  0  0
  151.9164  146.1383  159.3229 H   0  0  0  0  0  0  0  0  0  0  0  0
  152.7202  144.9213  157.4778 H   0  0  0  0  0  0  0  0  0  0  0  0
  151.0303  144.4879  157.3193 H   0  0  0  0  0  0  0  0  0  0  0  0
  150.8302  142.7270  155.4599 H   0  0  0  0  0  0  0  0  0  0  0  0
  151.7689  141.2438  155.9320 H   0  0  0  0  0  0  0  0  0  0  0  0
  148.7791  141.4336  155.2231 H   0  0  0  0  0  0  0  0  0  0  0  0
  149.1299  140.0598  152.7144 H   0  0  0  0  0  0  0  0  0  0  0  0
  147.1446  138.6605  154.3590 H   0  0  0  0  0  0  0  0  0  0  0  0
  147.3956  140.3923  154.5248 H   0  0  0  0  0  0  0  0  0  0  0  0
  145.8550  140.5625  152.8060 H   0  0  0  0  0  0  0  0  0  0  0  0
  147.2180  140.1942  151.7780 H   0  0  0  0  0  0  0  0  0  0  0  0
  144.9180  138.1316  154.0184 H   0  0  0  0  0  0  0  0  0  0  0  0
  143.7942  136.0663  153.1505 H   0  0  0  0  0  0  0  0  0  0  0  0
  144.1931  135.3836  150.7667 H   0  0  0  0  0  0  0  0  0  0  0  0
  145.7042  136.8001  149.3520 H   0  0  0  0  0  0  0  0  0  0  0  0
  149.9593  139.7487  157.5557 H   0  0  0  0  0  0  0  0  0  0  0  0
  148.4485  140.7517  157.5657 H   0  0  0  0  0  0  0  0  0  0  0  0
  1  2  2  0  0  0  0
  2  3  1  0  0  0  0
  2  8  1  0  0  0  0
  3  7  1  0  0  0  0
  3  4  1  0  0  0  0
  3 24  1  0  0  0  0
  4  5  1  0  0  0  0
  4 25  1  0  0  0  0
  4 26  1  0  0  0  0
  5  6  1  0  0  0  0
  5 27  1  0  0  0  0
  5 28  1  0  0  0  0
  6  7  1  0  0  0  0
  6 29  1  0  0  0  0
  6 30  1  0  0  0  0
  7 31  1  0  0  0  0
  7 32  1  0  0  0  0
  8 23  1  0  0  0  0
  8  9  1  0  0  0  0
  9 10  1  0  0  0  0
  9 33  1  0  0  0  0
  9 34  1  0  0  0  0
 10 11  1  0  0  0  0
 10 23  1  0  0  0  0
 10 35  1  0  0  0  0
 11 12  2  0  0  0  0
 11 13  2  0  0  0  0
 11 14  1  0  0  0  0
 14 15  1  0  0  0  0
 14 36  1  0  0  0  0
 15 16  1  0  0  0  0
 15 37  1  0  0  0  0
 15 38  1  0  0  0  0
 16 17  1  0  0  0  0
 16 39  1  0  0  0  0
 16 40  1  0  0  0  0
 17 22  1  0  0  0  0
 17 18  2  0  0  0  0
 18 19  1  0  0  0  0
 18 41  1  0  0  0  0
 19 20  2  0  0  0  0
 19 42  1  0  0  0  0
 20 21  1  0  0  0  0
 20 43  1  0  0  0  0
 21 22  2  0  0  0  0
 21 44  1  0  0  0  0
 23 45  1  0  0  0  0
 23 46  1  0  0  0  0
M  END
> <s_m_source_file>
AV-unprocessed.smi

> <i_m_source_file_index>
2531

> <i_lp_mmshare_version>
43012

> <i_f3d_flags>
0

> <s_epik_input>
W0NIMl0xW0NIMl1bQ0gyXVtDSDJdW0NIXTFDKD1PKU4yW0NIMl1bQ0hdKFtDSDJdMilTKD1PKSg9TylbTkhdW0NIMl1bQ0gyXWMzW2NIXVtjSF1bY0hdW2NIXW4z

> <s_epik_cmdline>
J2VwaWtfcHl0aG9uJywgJy1waCcsICc3LjAnLCAnLXRuJywgJzgnLCAnLW1hJywgJzIwMCcsICctbWV0YWxfYmluZGluZycsICctaW1hZScsICc8aW5maWxlLm1hZT4nLCAnLW9tYWUnLCAnPG91dGZpbGUubWFlPic=

> <r_epik_Ionization_Penalty>
0.0203172

> <r_epik_Ionization_Penalty_Charging>
0

> <r_epik_Ionization_Penalty_Neutral>
0.0203172

> <r_epik_State_Penalty>
0.0162494

> <r_epik_Charging_Adjusted_Penalty>
0.0162494

> <i_epik_Tot_Q>
0

> <i_epik_Tot_abs_Q>
0

> <r_epik_Metal_State_Penalty>
0.0444853

> <b_epik_Metal_Only>
0

> <s_lp_Force_Field>
OPLS_2005

> <r_lp_Energy>
30.9959

> <b_lp_Chiralities_Consistent>
1

> <s_lp_Variant>
AV-unprocessed.smi:2531-1

> <Gold.Version>
5.8.1

> <Gold.Id.Protein>
6NUR|6NUR_protein|mol2

> <Gold.PLP.Fitness>
56.0658

> <Gold.PLP.PLP>
-44.9664

> <Gold.PLP.part.hbond>
-4.3549

> <Gold.PLP.part.metal>
0.0000

> <Gold.PLP.part.buried>
-2.1123

> <Gold.PLP.part.nonpolar>
-40.5275

> <Gold.PLP.part.repulsive>
2.6065

> <Gold.PLP.ligand.clash>
0.0000

> <Gold.PLP.ligand.torsion>
1.2906

> <Gold.PLP.Chemscore.Hbond>
3.0000

> <Gold.PLP.Chemscore.CHOScore>
1.0000

> <Gold.PLP.Chemscore.Metal>
0.0000

> <Gold.Chemscore.Hbonds>
donor molecule, donor type, donor heavy atom, donor atom, acceptor molecule, acceptor atom, score
      L1  H    14    36       P1  7957  0.77
      P1  H  7954  7966       L1    22  0.38
      P1  H  7989  7998       L1    12  0.63
      L1  C    21    44       P1  7921  0.76

> <Gold.PLP.Chemscore.Internal.Correction>
1.6807

> <Gold.Rescore>
     Score         DG    S(hbond)    S(metal)    S(lipo)     H(rot)  DE(clash)    DE(int)     intcor
     20.71     -24.29       2.72        0.00     123.62       1.85       2.17       1.42       ----

> <Gold.Chemscore.Fitness>
20.7125

> <Gold.Chemscore.DG>
-24.2949

> <Gold.Chemscore.ZeroCoef>
-5.4800

> <Gold.Chemscore.Hbond>
2.7202

> <Gold.Chemscore.Metal>
0.0000

> <Gold.Chemscore.Lipo>
123.6230

> <Gold.Chemscore.Internal_Hbond>
0.0000

> <Gold.Chemscore.DEClash>
2.1672

> <Gold.Chemscore.DEInternal>
1.4151

> <Gold.Chemscore.Rot>
1.8494

> <Gold.Chemscore.Internal.Correction>
   9.000000E+99

> <Gold.Chemscore.Hbonds>
donor molecule, donor type, donor heavy atom, donor atom, acceptor molecule, acceptor atom, score
      L1  H    14    36       P1  7957  0.77
      P1  H  7954  7966       L1    22  0.08
      P1  H  7989  7998       L1    12  0.63

> <Gold.Chemscore.Hbond.Weighted>
-9.0855

> <Gold.Chemscore.Metal.Weighted>
-0.0000

> <Gold.Chemscore.Lipo.Weighted>
-14.4639

> <Gold.Chemscore.Internal_Hbond.Weighted>
0.0000

> <Gold.Chemscore.DEClash.Weighted>
2.1672

> <Gold.Chemscore.DEInternal.Weighted>
1.4151

> <Gold.Chemscore.Rot.Weighted>
4.7346

> <Gold.Chemscore.Internal.Correction.Weighted>
   9.000000E+99

> <Gold.Protein.RotatedTorsions>
[ 6907 6896 6895 6894 ] final  -18.90 input  -60.11 | X-H torsion
[ 7974 7965 7964 7962 ] final  170.68 input  175.53 | X-H torsion
[ 8008 7997 7996 7995 ] final -179.57 input   59.86 | X-H torsion
[ 10167 10162 10161 10158 ] final   31.76 input  -65.29 | X-H torsion
[ 10718 10713 10712 10709 ] final  -63.00 input   66.30 | X-H torsion
[ 10763 10752 10751 10750 ] final  108.88 input  -60.55 | X-H torsion
[ 11005 11000 10999 10996 ] final -175.09 input  -57.11 | X-H torsion

> <Gold.Protein.ActiveResidues>
 VAL166  LYS551  ARG553  GLY616  TRP617  ASP618  TYR619  PRO620  LYS621  CYS622 
 ASP623  PHE694  ASN695  SER759  ASP760  ASP761  ALA762  ILE779  LEU786  VAL792 
 PHE793  MET794  SER795  GLU796  ALA797  LYS798  CYS799  TRP800  GLU811  SER814 

> <Gold.Protein.RotatedAtoms>
  151.2712  135.0685  159.9134 H   0  0  0  0  0  0  0  0  0  0  0  0  # atno 6907 bound_to 6896
  152.5350  134.0129  159.7957 H   0  0  0  0  0  0  0  0  0  0  0  0  # atno 6908 bound_to 6896
  151.0367  133.5692  159.2686 H   0  0  0  0  0  0  0  0  0  0  0  0  # atno 6909 bound_to 6896
  144.7317  139.9238  143.6421 H   0  0  0  0  0  0  0  0  0  0  0  0  # atno 7974 bound_to 7965
  156.0320  140.1284  157.0247 H   0  0  0  0  0  0  0  0  0  0  0  0  # atno 8008 bound_to 7997
  154.4354  140.1047  156.6184 H   0  0  0  0  0  0  0  0  0  0  0  0  # atno 8009 bound_to 7997
  155.5792  140.3467  155.4538 H   0  0  0  0  0  0  0  0  0  0  0  0  # atno 8010 bound_to 7997
  140.4559  144.0979  150.6202 H   0  0  0  0  0  0  0  0  0  0  0  0  # atno 10167 bound_to 10162
  156.0819  130.4215  150.1215 H   0  0  0  0  0  0  0  0  0  0  0  0  # atno 10718 bound_to 10713
  153.4269  135.3798  155.2146 H   0  0  0  0  0  0  0  0  0  0  0  0  # atno 10763 bound_to 10752
  154.8748  135.3830  154.4316 H   0  0  0  0  0  0  0  0  0  0  0  0  # atno 10764 bound_to 10752
  153.4843  135.7088  153.5983 H   0  0  0  0  0  0  0  0  0  0  0  0  # atno 10765 bound_to 10752
  140.4672  134.6199  157.4867 H   0  0  0  0  0  0  0  0  0  0  0  0  # atno 11005 bound_to 11000
  146.0910  139.3899  143.0406 LP  0  0  0  0  0  0  0  0  0  0  0  0  # atno 17320 bound_to 7965
  145.7711  140.9896  143.1149 LP  0  0  0  0  0  0  0  0  0  0  0  0  # atno 17321 bound_to 7965
  140.4151  143.2638  151.9784 LP  0  0  0  0  0  0  0  0  0  0  0  0  # atno 17342 bound_to 10162
  139.4801  144.5881  151.7819 LP  0  0  0  0  0  0  0  0  0  0  0  0  # atno 17343 bound_to 10162
  156.9244  130.9693  151.3543 LP  0  0  0  0  0  0  0  0  0  0  0  0  # atno 17370 bound_to 10713
  157.5939  130.8463  149.8700 LP  0  0  0  0  0  0  0  0  0  0  0  0  # atno 17371 bound_to 10713
  139.9908  134.6989  155.9693 LP  0  0  0  0  0  0  0  0  0  0  0  0  # atno 17394 bound_to 11000
  141.1594  133.6540  156.4268 LP  0  0  0  0  0  0  0  0  0  0  0  0  # atno 17395 bound_to 11000

$$$$
