AV-unprocessed.smi:705|AV-procd|sdf|3447|dock4
  -GOLD-   22720 0433D 1   1.00000     0.00000
 Structure written by MMmdl.
 29 30  0  0  0  0  0  0  0  0  2 V2000
  150.4803  138.9404  153.8739 N   0  0  0  0  0  0  0  0  0  0  0  0
  151.4128  138.5161  154.7317 C   0  0  0  0  0  0  0  0  0  0  0  0
  152.0373  137.4719  154.5557 O   0  0  0  0  0  0  0  0  0  0  0  0
  151.6373  139.3434  155.9354 C   0  0  0  0  0  0  0  0  0  0  0  0
  151.0000  140.5101  156.2489 C   0  0  0  0  0  0  0  0  0  0  0  0
  151.6133  140.8842  157.4833 C   0  0  0  0  0  0  0  0  0  0  0  0
  151.3045  142.0942  158.3278 C   0  0  1  0  0  0  0  0  0  0  0  0
  152.5532  142.9652  158.5666 C   0  0  0  0  0  0  0  0  0  0  0  0
  152.1979  144.1882  159.4260 C   0  0  0  0  0  0  0  0  0  0  0  0
  151.0347  144.9778  158.8024 C   0  0  0  0  0  0  0  0  0  0  0  0
  149.8587  144.1044  158.5960 N   0  3  0  0  0  0  0  0  0  0  0  0
  150.1501  142.9331  157.7400 C   0  0  0  0  0  0  0  0  0  0  0  0
  152.5514  140.0220  157.8731 N   0  0  0  0  0  0  0  0  0  0  0  0
  152.5667  139.0801  156.9095 N   0  0  0  0  0  0  0  0  0  0  0  0
  153.1925  138.2873  156.9344 H   0  0  0  0  0  0  0  0  0  0  0  0
  150.2872  138.4066  153.0389 H   0  0  0  0  0  0  0  0  0  0  0  0
  149.9691  139.7894  154.0652 H   0  0  0  0  0  0  0  0  0  0  0  0
  150.2223  141.0179  155.6975 H   0  0  0  0  0  0  0  0  0  0  0  0
  150.9734  141.7376  159.3045 H   0  0  0  0  0  0  0  0  0  0  0  0
  153.3341  142.3812  159.0552 H   0  0  0  0  0  0  0  0  0  0  0  0
  152.9650  143.3005  157.6135 H   0  0  0  0  0  0  0  0  0  0  0  0
  151.9259  143.8640  160.4316 H   0  0  0  0  0  0  0  0  0  0  0  0
  153.0705  144.8329  159.5348 H   0  0  0  0  0  0  0  0  0  0  0  0
  150.7521  145.8087  159.4492 H   0  0  0  0  0  0  0  0  0  0  0  0
  151.3363  145.4059  157.8455 H   0  0  0  0  0  0  0  0  0  0  0  0
  149.5432  143.7732  159.4963 H   0  0  0  0  0  0  0  0  0  0  0  0
  150.3979  143.2840  156.7372 H   0  0  0  0  0  0  0  0  0  0  0  0
  149.2468  142.3286  157.6519 H   0  0  0  0  0  0  0  0  0  0  0  0
  149.1194  144.6450  158.1700 H   0  0  0  0  0  0  0  0  0  0  0  0
  1  2  1  0  0  0  0
  1 16  1  0  0  0  0
  1 17  1  0  0  0  0
  2  3  2  0  0  0  0
  2  4  1  0  0  0  0
  4 14  1  0  0  0  0
  4  5  2  0  0  0  0
  5  6  1  0  0  0  0
  5 18  1  0  0  0  0
  6  7  1  0  0  0  0
  6 13  2  0  0  0  0
  7 12  1  0  0  0  0
  7  8  1  0  0  0  0
  7 19  1  0  0  0  0
  8  9  1  0  0  0  0
  8 20  1  0  0  0  0
  8 21  1  0  0  0  0
  9 10  1  0  0  0  0
  9 22  1  0  0  0  0
  9 23  1  0  0  0  0
 10 11  1  0  0  0  0
 10 24  1  0  0  0  0
 10 25  1  0  0  0  0
 11 12  1  0  0  0  0
 11 26  1  0  0  0  0
 11 29  1  0  0  0  0
 12 27  1  0  0  0  0
 12 28  1  0  0  0  0
 13 14  1  0  0  0  0
 14 15  1  0  0  0  0
M  CHG  1  11   1
M  END
> <s_m_source_file>
AV-unprocessed.smi

> <i_m_source_file_index>
705

> <i_lp_mmshare_version>
43012

> <i_f3d_flags>
0

> <s_epik_input>
W05IMl1DKD1PKWMxW2NIXWMoW25IXW4xKVtDQEBIXTJbQ0gyXVtDSDJdW0NIMl1bTkhdW0NIMl0y

> <s_epik_cmdline>
J2VwaWtfcHl0aG9uJywgJy1waCcsICc3LjAnLCAnLXRuJywgJzgnLCAnLW1hJywgJzIwMCcsICctbWV0YWxfYmluZGluZycsICctaW1hZScsICc8aW5maWxlLm1hZT4nLCAnLW9tYWUnLCAnPG91dGZpbGUubWFlPic=

> <r_lp_tautomer_probability>
0.5

> <r_epik_Ionization_Penalty>
0.000242638

> <r_epik_Ionization_Penalty_Charging>
0.000157527

> <r_epik_Ionization_Penalty_Neutral>
8.51112e-05

> <r_epik_State_Penalty>
0.41068

> <r_epik_Charging_Adjusted_Penalty>
0.410837

> <i_epik_Tot_Q>
1

> <i_epik_Tot_abs_Q>
1

> <r_epik_Metal_State_Penalty>
0.446108

> <b_epik_Metal_Only>
0

> <s_lp_Force_Field>
OPLS_2005

> <r_lp_Energy>
10.1374

> <b_lp_Chiralities_Consistent>
1

> <s_lp_Variant>
AV-unprocessed.smi:705-2

> <Gold.Version>
5.8.1

> <Gold.Id.Protein>
6NUR|6NUR_protein|mol2

> <Gold.PLP.Fitness>
35.4399

> <Gold.PLP.PLP>
-26.9194

> <Gold.PLP.part.hbond>
-4.3962

> <Gold.PLP.part.metal>
0.0000

> <Gold.PLP.part.buried>
-2.3770

> <Gold.PLP.part.nonpolar>
-21.9664

> <Gold.PLP.part.repulsive>
0.6942

> <Gold.PLP.ligand.clash>
0.0000

> <Gold.PLP.ligand.torsion>
0.0170

> <Gold.PLP.Chemscore.Hbond>
2.8406

> <Gold.PLP.Chemscore.CHOScore>
0.0000

> <Gold.PLP.Chemscore.Metal>
0.0000

> <Gold.Chemscore.Hbonds>
donor molecule, donor type, donor heavy atom, donor atom, acceptor molecule, acceptor atom, score
      L1  H    11    29       P1  8029  2.00
      P1  H 10752 10764       L1     3  0.84

> <Gold.PLP.Chemscore.Internal.Correction>
0.0328

> <Gold.Rescore>
     Score         DG    S(hbond)    S(metal)    S(lipo)     H(rot)  DE(clash)    DE(int)     intcor
     14.94     -14.98       1.21        0.00      68.39       1.00       0.02       0.02       ----

> <Gold.Chemscore.Fitness>
14.9378

> <Gold.Chemscore.DG>
-14.9756

> <Gold.Chemscore.ZeroCoef>
-5.4800

> <Gold.Chemscore.Hbond>
1.2139

> <Gold.Chemscore.Metal>
0.0000

> <Gold.Chemscore.Lipo>
68.3857

> <Gold.Chemscore.Internal_Hbond>
0.0000

> <Gold.Chemscore.DEClash>
0.0174

> <Gold.Chemscore.DEInternal>
0.0205

> <Gold.Chemscore.Rot>
1.0000

> <Gold.Chemscore.Internal.Correction>
   9.000000E+99

> <Gold.Chemscore.Hbonds>
donor molecule, donor type, donor heavy atom, donor atom, acceptor molecule, acceptor atom, score
      L1  H    11    29       P1  8029  0.25
      P1  H 10752 10764       L1     3  0.77

> <Gold.Chemscore.Hbond.Weighted>
-4.0545

> <Gold.Chemscore.Metal.Weighted>
-0.0000

> <Gold.Chemscore.Lipo.Weighted>
-8.0011

> <Gold.Chemscore.Internal_Hbond.Weighted>
0.0000

> <Gold.Chemscore.DEClash.Weighted>
0.0174

> <Gold.Chemscore.DEInternal.Weighted>
0.0205

> <Gold.Chemscore.Rot.Weighted>
2.5600

> <Gold.Chemscore.Internal.Correction.Weighted>
   9.000000E+99

> <Gold.Protein.RotatedTorsions>
[ 6907 6896 6895 6894 ] final   -2.41 input  -60.11 | X-H torsion
[ 7974 7965 7964 7962 ] final  109.68 input  175.53 | X-H torsion
[ 8008 7997 7996 7995 ] final  128.37 input   59.86 | X-H torsion
[ 10167 10162 10161 10158 ] final -158.66 input  -65.29 | X-H torsion
[ 10718 10713 10712 10709 ] final   47.35 input   66.30 | X-H torsion
[ 10763 10752 10751 10750 ] final  -71.14 input  -60.55 | X-H torsion
[ 11005 11000 10999 10996 ] final  127.70 input  -57.11 | X-H torsion

> <Gold.Protein.ActiveResidues>
 VAL166  LYS551  ARG553  GLY616  TRP617  ASP618  TYR619  PRO620  LYS621  CYS622 
 ASP623  PHE694  ASN695  SER759  ASP760  ASP761  ALA762  ILE779  LEU786  VAL792 
 PHE793  MET794  SER795  GLU796  ALA797  LYS798  CYS799  TRP800  GLU811  SER814 

> <Gold.Protein.RotatedAtoms>
  151.5304  135.1068  159.9900 H   0  0  0  0  0  0  0  0  0  0  0  0  # atno 6907 bound_to 6896
  152.4581  133.7760  159.6835 H   0  0  0  0  0  0  0  0  0  0  0  0  # atno 6908 bound_to 6896
  150.8532  133.7690  159.3043 H   0  0  0  0  0  0  0  0  0  0  0  0  # atno 6909 bound_to 6896
  145.2647  139.2689  143.3998 H   0  0  0  0  0  0  0  0  0  0  0  0  # atno 7974 bound_to 7965
  156.2913  140.2646  156.2425 H   0  0  0  0  0  0  0  0  0  0  0  0  # atno 8008 bound_to 7997
  154.9963  140.0388  157.2359 H   0  0  0  0  0  0  0  0  0  0  0  0  # atno 8009 bound_to 7997
  154.7641  140.2766  155.6195 H   0  0  0  0  0  0  0  0  0  0  0  0  # atno 8010 bound_to 7997
  139.6675  143.9803  152.2264 H   0  0  0  0  0  0  0  0  0  0  0  0  # atno 10167 bound_to 10162
  157.4576  130.8177  149.7853 H   0  0  0  0  0  0  0  0  0  0  0  0  # atno 10718 bound_to 10713
  154.4276  135.5972  153.6048 H   0  0  0  0  0  0  0  0  0  0  0  0  # atno 10763 bound_to 10752
  152.9797  135.5967  154.3879 H   0  0  0  0  0  0  0  0  0  0  0  0  # atno 10764 bound_to 10752
  154.3713  135.2841  155.2243 H   0  0  0  0  0  0  0  0  0  0  0  0  # atno 10765 bound_to 10752
  139.9521  134.9620  156.8893 H   0  0  0  0  0  0  0  0  0  0  0  0  # atno 11005 bound_to 11000
  146.3265  140.3074  142.8624 LP  0  0  0  0  0  0  0  0  0  0  0  0  # atno 17320 bound_to 7965
  144.9387  140.8055  143.5644 LP  0  0  0  0  0  0  0  0  0  0  0  0  # atno 17321 bound_to 7965
  139.9559  144.6590  150.8127 LP  0  0  0  0  0  0  0  0  0  0  0  0  # atno 17342 bound_to 10162
  140.7605  143.3153  151.2748 LP  0  0  0  0  0  0  0  0  0  0  0  0  # atno 17343 bound_to 10162
  156.0014  130.3878  150.2591 LP  0  0  0  0  0  0  0  0  0  0  0  0  # atno 17370 bound_to 10713
  157.0767  131.0132  151.3171 LP  0  0  0  0  0  0  0  0  0  0  0  0  # atno 17371 bound_to 10713
  140.5694  134.0458  155.7425 LP  0  0  0  0  0  0  0  0  0  0  0  0  # atno 17394 bound_to 11000
  141.1186  133.9499  157.2774 LP  0  0  0  0  0  0  0  0  0  0  0  0  # atno 17395 bound_to 11000

$$$$
