AV-unprocessed.smi:3032|AV-procd|sdf|11570|dock8
  -GOLD-   2272016533D 1   1.00000     0.00000
 Structure written by MMmdl.
 36 37  0  0  0  0  0  0  0  0  2 V2000
  152.1011  144.6254  158.0176 C   0  0  0  0  0  0  0  0  0  0  0  0
  152.7556  143.9136  159.2101 C   0  0  1  0  0  0  0  0  0  0  0  0
  151.9080  144.0573  160.4889 C   0  0  0  0  0  0  0  0  0  0  0  0
  152.5592  143.3388  161.6815 C   0  0  0  0  0  0  0  0  0  0  0  0
  152.8236  141.8584  161.3644 C   0  0  0  0  0  0  0  0  0  0  0  0
  153.6858  141.7075  160.0943 C   0  0  1  0  0  0  0  0  0  0  0  0
  153.9367  140.2308  159.7625 C   0  0  0  0  0  0  0  0  0  0  0  0
  154.9947  139.6930  160.0910 O   0  0  0  0  0  0  0  0  0  0  0  0
  152.9431  139.5888  159.1283 N   0  0  0  0  0  0  0  0  0  0  0  0
  152.8914  138.1549  158.8548 C   0  0  0  0  0  0  0  0  0  0  0  0
  153.6294  137.8023  157.5508 C   0  0  0  0  0  0  0  0  0  0  0  0
  152.8466  138.1547  156.3005 C   0  0  0  0  0  0  0  0  0  0  0  0
  152.6023  139.4027  155.8514 N   0  5  0  0  0  0  0  0  0  0  0  0
  151.9373  139.3535  154.7135 N   0  0  0  0  0  0  0  0  0  0  0  0
  151.7875  138.0449  154.4780 C   0  0  0  0  0  0  0  0  0  0  0  0
  152.3348  137.2848  155.4321 N   0  0  0  0  0  0  0  0  0  0  0  0
  153.0165  142.4261  158.9034 C   0  0  0  0  0  0  0  0  0  0  0  0
  151.1278  144.1933  157.7830 H   0  0  0  0  0  0  0  0  0  0  0  0
  152.7234  144.5473  157.1257 H   0  0  0  0  0  0  0  0  0  0  0  0
  151.9543  145.6856  158.2251 H   0  0  0  0  0  0  0  0  0  0  0  0
  153.7190  144.3936  159.3890 H   0  0  0  0  0  0  0  0  0  0  0  0
  151.7695  145.1120  160.7290 H   0  0  0  0  0  0  0  0  0  0  0  0
  150.9119  143.6463  160.3185 H   0  0  0  0  0  0  0  0  0  0  0  0
  153.4984  143.8312  161.9361 H   0  0  0  0  0  0  0  0  0  0  0  0
  151.9185  143.4217  162.5597 H   0  0  0  0  0  0  0  0  0  0  0  0
  153.3196  141.3864  162.2136 H   0  0  0  0  0  0  0  0  0  0  0  0
  151.8702  141.3429  161.2373 H   0  0  0  0  0  0  0  0  0  0  0  0
  154.6498  142.1849  160.2800 H   0  0  0  0  0  0  0  0  0  0  0  0
  152.1139  140.1187  158.9034 H   0  0  0  0  0  0  0  0  0  0  0  0
  153.3464  137.6256  159.6919 H   0  0  0  0  0  0  0  0  0  0  0  0
  151.8608  137.8017  158.7934 H   0  0  0  0  0  0  0  0  0  0  0  0
  154.5855  138.3256  157.5154 H   0  0  0  0  0  0  0  0  0  0  0  0
  153.8602  136.7369  157.5322 H   0  0  0  0  0  0  0  0  0  0  0  0
  151.2807  137.6455  153.6082 H   0  0  0  0  0  0  0  0  0  0  0  0
  152.0736  141.9365  158.6532 H   0  0  0  0  0  0  0  0  0  0  0  0
  153.6494  142.3406  158.0187 H   0  0  0  0  0  0  0  0  0  0  0  0
  1  2  1  0  0  0  0
  1 18  1  0  0  0  0
  1 19  1  0  0  0  0
  1 20  1  0  0  0  0
  2 17  1  0  0  0  0
  2  3  1  0  0  0  0
  2 21  1  0  0  0  0
  3  4  1  0  0  0  0
  3 22  1  0  0  0  0
  3 23  1  0  0  0  0
  4  5  1  0  0  0  0
  4 24  1  0  0  0  0
  4 25  1  0  0  0  0
  5  6  1  0  0  0  0
  5 26  1  0  0  0  0
  5 27  1  0  0  0  0
  6  7  1  0  0  0  0
  6 17  1  0  0  0  0
  6 28  1  0  0  0  0
  7  8  2  0  0  0  0
  7  9  1  0  0  0  0
  9 10  1  0  0  0  0
  9 29  1  0  0  0  0
 10 11  1  0  0  0  0
 10 30  1  0  0  0  0
 10 31  1  0  0  0  0
 11 32  1  0  0  0  0
 11 33  1  0  0  0  0
 11 12  1  0  0  0  0
 12 16  2  0  0  0  0
 12 13  1  0  0  0  0
 13 14  1  0  0  0  0
 14 15  2  0  0  0  0
 15 16  1  0  0  0  0
 15 34  1  0  0  0  0
 17 35  1  0  0  0  0
 17 36  1  0  0  0  0
M  CHG  1  13  -1
M  END
> <s_m_source_file>
AV-unprocessed.smi

> <i_m_source_file_index>
3032

> <i_lp_mmshare_version>
43012

> <i_f3d_flags>
0

> <s_epik_input>
W0NIM11bQ0BASF0xW0NIMl1bQ0gyXVtDSDJdW0NASF0oW0NIMl0xKUMoPU8pW05IXVtDSDJdW0NIMl1jMm5uW2NIXVtuSF0y

> <s_epik_cmdline>
J2VwaWtfcHl0aG9uJywgJy1waCcsICc3LjAnLCAnLXRuJywgJzgnLCAnLW1hJywgJzIwMCcsICctbWV0YWxfYmluZGluZycsICctaW1hZScsICc8aW5maWxlLm1hZT4nLCAnLW9tYWUnLCAnPG91dGZpbGUubWFlPic=

> <r_lp_tautomer_probability>
0.948284

> <r_epik_Ionization_Penalty>
12.042

> <r_epik_Ionization_Penalty_Charging>
12.042

> <r_epik_Ionization_Penalty_Neutral>
4.36781e-08

> <r_epik_State_Penalty>
4.67286

> <r_epik_Charging_Adjusted_Penalty>
16.7149

> <i_epik_Tot_Q>
-1

> <i_epik_Tot_abs_Q>
1

> <r_epik_Metal_State_Penalty>
0.981637

> <b_epik_Metal_Only>
1

> <s_lp_Force_Field>
OPLS_2005

> <r_lp_Energy>
10.6668

> <b_lp_Chiralities_Consistent>
1

> <s_lp_Variant>
AV-unprocessed.smi:3032-14

> <Gold.Version>
5.8.1

> <Gold.Id.Protein>
6NUR|6NUR_protein|mol2

> <Gold.PLP.Fitness>
50.4658

> <Gold.PLP.PLP>
-39.2292

> <Gold.PLP.part.hbond>
-3.0000

> <Gold.PLP.part.metal>
0.0000

> <Gold.PLP.part.buried>
-5.9691

> <Gold.PLP.part.nonpolar>
-30.2312

> <Gold.PLP.part.repulsive>
0.1915

> <Gold.PLP.ligand.clash>
0.0000

> <Gold.PLP.ligand.torsion>
0.8632

> <Gold.PLP.Chemscore.Hbond>
3.6960

> <Gold.PLP.Chemscore.CHOScore>
0.6181

> <Gold.PLP.Chemscore.Metal>
0.0000

> <Gold.Chemscore.Hbonds>
donor molecule, donor type, donor heavy atom, donor atom, acceptor molecule, acceptor atom, score
      P1  H  7989  7998       L1    14  0.96
      P1  H  7997  8008       L1    13  2.00
      P1  H 10752 10765       L1    16  0.75
      L1  C    15    34       P1  7949  0.60

> <Gold.PLP.Chemscore.Internal.Correction>
0.0206

> <Gold.Rescore>
     Score         DG    S(hbond)    S(metal)    S(lipo)     H(rot)  DE(clash)    DE(int)     intcor
     17.52     -18.50       2.41        0.00      90.87       2.21       0.01       0.97       ----

> <Gold.Chemscore.Fitness>
17.5153

> <Gold.Chemscore.DG>
-18.5031

> <Gold.Chemscore.ZeroCoef>
-5.4800

> <Gold.Chemscore.Hbond>
2.4136

> <Gold.Chemscore.Metal>
0.0000

> <Gold.Chemscore.Lipo>
90.8708

> <Gold.Chemscore.Internal_Hbond>
0.0000

> <Gold.Chemscore.DEClash>
0.0133

> <Gold.Chemscore.DEInternal>
0.9745

> <Gold.Chemscore.Rot>
2.2149

> <Gold.Chemscore.Internal.Correction>
   9.000000E+99

> <Gold.Chemscore.Hbonds>
donor molecule, donor type, donor heavy atom, donor atom, acceptor molecule, acceptor atom, score
      P1  H  7989  7998       L1    14  0.91
      P1  H  7997  8008       L1    13  0.25
      P1  H 10752 10765       L1    16  0.64

> <Gold.Chemscore.Hbond.Weighted>
-8.0615

> <Gold.Chemscore.Metal.Weighted>
-0.0000

> <Gold.Chemscore.Lipo.Weighted>
-10.6319

> <Gold.Chemscore.Internal_Hbond.Weighted>
0.0000

> <Gold.Chemscore.DEClash.Weighted>
0.0133

> <Gold.Chemscore.DEInternal.Weighted>
0.9745

> <Gold.Chemscore.Rot.Weighted>
5.6702

> <Gold.Chemscore.Internal.Correction.Weighted>
   9.000000E+99

> <Gold.Protein.RotatedTorsions>
[ 6907 6896 6895 6894 ] final -140.77 input  -60.11 | X-H torsion
[ 7974 7965 7964 7962 ] final  101.18 input  175.53 | X-H torsion
[ 8008 7997 7996 7995 ] final  -22.23 input   59.86 | X-H torsion
[ 10167 10162 10161 10158 ] final  -92.52 input  -65.29 | X-H torsion
[ 10718 10713 10712 10709 ] final  -65.16 input   66.30 | X-H torsion
[ 10763 10752 10751 10750 ] final -169.66 input  -60.55 | X-H torsion
[ 11005 11000 10999 10996 ] final   -7.02 input  -57.11 | X-H torsion

> <Gold.Protein.ActiveResidues>
 VAL166  LYS551  ARG553  GLY616  TRP617  ASP618  TYR619  PRO620  LYS621  CYS622 
 ASP623  PHE694  ASN695  SER759  ASP760  ASP761  ALA762  ILE779  LEU786  VAL792 
 PHE793  MET794  SER795  GLU796  ALA797  LYS798  CYS799  TRP800  GLU811  SER814 

> <Gold.Protein.RotatedAtoms>
  151.0651  133.5512  159.2631 H   0  0  0  0  0  0  0  0  0  0  0  0  # atno 6907 bound_to 6896
  151.2473  135.0609  159.9058 H   0  0  0  0  0  0  0  0  0  0  0  0  # atno 6908 bound_to 6896
  152.5403  134.0416  159.8124 H   0  0  0  0  0  0  0  0  0  0  0  0  # atno 6909 bound_to 6896
  145.3758  139.2389  143.3430 H   0  0  0  0  0  0  0  0  0  0  0  0  # atno 7974 bound_to 7965
  154.4657  140.2013  156.0126 H   0  0  0  0  0  0  0  0  0  0  0  0  # atno 8008 bound_to 7997
  156.0921  140.3256  155.7801 H   0  0  0  0  0  0  0  0  0  0  0  0  # atno 8009 bound_to 7997
  155.4938  140.0548  157.2940 H   0  0  0  0  0  0  0  0  0  0  0  0  # atno 8010 bound_to 7997
  140.3340  143.2979  151.9910 H   0  0  0  0  0  0  0  0  0  0  0  0  # atno 10167 bound_to 10162
  156.0686  130.4243  150.1524 H   0  0  0  0  0  0  0  0  0  0  0  0  # atno 10718 bound_to 10713
  154.6499  135.2910  155.0000 H   0  0  0  0  0  0  0  0  0  0  0  0  # atno 10763 bound_to 10752
  154.1096  135.6564  153.4886 H   0  0  0  0  0  0  0  0  0  0  0  0  # atno 10764 bound_to 10752
  153.0371  135.5262  154.7403 H   0  0  0  0  0  0  0  0  0  0  0  0  # atno 10765 bound_to 10752
  140.7082  133.8931  155.8732 H   0  0  0  0  0  0  0  0  0  0  0  0  # atno 11005 bound_to 11000
  146.2865  140.4416  142.8756 LP  0  0  0  0  0  0  0  0  0  0  0  0  # atno 17320 bound_to 7965
  144.8543  140.7048  143.6148 LP  0  0  0  0  0  0  0  0  0  0  0  0  # atno 17321 bound_to 7965
  139.4851  144.6212  151.7252 LP  0  0  0  0  0  0  0  0  0  0  0  0  # atno 17342 bound_to 10162
  140.5371  144.0638  150.6074 LP  0  0  0  0  0  0  0  0  0  0  0  0  # atno 17343 bound_to 10162
  156.9579  130.9795  151.3485 LP  0  0  0  0  0  0  0  0  0  0  0  0  # atno 17370 bound_to 10713
  157.5743  130.8332  149.8434 LP  0  0  0  0  0  0  0  0  0  0  0  0  # atno 17371 bound_to 10713
  141.0106  134.1025  157.4225 LP  0  0  0  0  0  0  0  0  0  0  0  0  # atno 17394 bound_to 11000
  139.8878  135.0093  156.6585 LP  0  0  0  0  0  0  0  0  0  0  0  0  # atno 17395 bound_to 11000

$$$$
