AV-unprocessed.smi:221|AV-procd|sdf|1686|dock10
  -GOLD-   2262020123D 1   1.00000     0.00000
 Structure written by MMmdl.
 50 53  0  0  0  0  0  0  0  0  1 V2000
  145.1172  136.3747  149.7437 N   0  0  0  0  0  0  0  0  0  0  0  0
  144.9346  135.7389  150.9032 C   0  0  0  0  0  0  0  0  0  0  0  0
  144.3897  136.2777  151.8651 O   0  0  0  0  0  0  0  0  0  0  0  0
  145.4204  134.2842  150.9781 C   0  0  2  0  0  0  0  0  0  0  0  0
  144.6730  133.3801  149.9892 C   0  0  0  0  0  0  0  0  0  0  0  0
  144.8338  131.9929  150.6009 C   0  0  1  0  0  0  0  0  0  0  0  0
  146.0239  131.4927  150.2652 F   0  0  0  0  0  0  0  0  0  0  0  0
  144.7992  132.2649  152.1068 C   0  0  0  0  0  0  0  0  0  0  0  0
  145.1517  133.6717  152.2811 N   0  0  0  0  0  0  0  0  0  0  0  0
  146.0524  133.9323  153.2541 C   0  0  0  0  0  0  0  0  0  0  0  0
  145.9028  135.0898  153.9430 N   0  0  0  0  0  0  0  0  0  0  0  0
  146.7661  135.4048  154.9136 C   0  0  0  0  0  0  0  0  0  0  0  0
  147.8259  134.7169  155.3456 N   0  0  0  0  0  0  0  0  0  0  0  0
  147.9759  133.5517  154.6524 C   0  0  0  0  0  0  0  0  0  0  0  0
  147.1402  133.0829  153.6008 C   0  0  0  0  0  0  0  0  0  0  0  0
  147.6008  131.8560  153.1383 N   0  0  0  0  0  0  0  0  0  0  0  0
  148.6521  131.6146  153.8729 C   0  0  0  0  0  0  0  0  0  0  0  0
  148.9536  132.5850  154.8020 N   0  0  0  0  0  0  0  0  0  0  0  0
  150.0612  132.5804  155.7405 C   0  0  0  0  0  0  0  0  0  0  0  0
  149.8878  131.5750  156.9067 C   0  0  2  0  0  0  0  0  0  0  0  0
  151.0784  131.5934  157.9008 C   0  0  0  0  0  0  0  0  0  0  0  0
  151.3725  132.9028  158.3427 O   0  0  0  0  0  0  0  0  0  0  0  0
  149.5738  130.1679  156.3344 C   0  0  2  0  0  0  0  0  0  0  0  0
  149.4269  129.0464  157.3467 C   0  0  0  0  0  0  0  0  0  0  0  0
  149.5041  127.8178  156.4462 C   0  0  0  0  0  0  0  0  0  0  0  0
  150.4033  128.1653  155.3970 O   0  0  0  0  0  0  0  0  0  0  0  0
  150.5979  129.5772  155.3594 C   0  0  0  0  0  0  0  0  0  0  0  0
  146.4894  134.2465  150.7595 H   0  0  0  0  0  0  0  0  0  0  0  0
  144.0746  131.2825  150.2729 H   0  0  0  0  0  0  0  0  0  0  0  0
  144.8180  137.3342  149.6468 H   0  0  0  0  0  0  0  0  0  0  0  0
  145.5564  135.8973  148.9701 H   0  0  0  0  0  0  0  0  0  0  0  0
  143.6132  133.6383  149.9490 H   0  0  0  0  0  0  0  0  0  0  0  0
  145.0706  133.4412  148.9755 H   0  0  0  0  0  0  0  0  0  0  0  0
  143.7853  132.1330  152.4855 H   0  0  0  0  0  0  0  0  0  0  0  0
  145.4409  131.5752  152.6582 H   0  0  0  0  0  0  0  0  0  0  0  0
  146.5817  136.3431  155.4158 H   0  0  0  0  0  0  0  0  0  0  0  0
  149.2449  130.7197  153.7505 H   0  0  0  0  0  0  0  0  0  0  0  0
  150.9677  132.3540  155.1780 H   0  0  0  0  0  0  0  0  0  0  0  0
  150.1855  133.5913  156.1304 H   0  0  0  0  0  0  0  0  0  0  0  0
  148.9959  131.8719  157.4611 H   0  0  0  0  0  0  0  0  0  0  0  0
  150.8661  131.0061  158.7918 H   0  0  0  0  0  0  0  0  0  0  0  0
  151.9701  131.1603  157.4471 H   0  0  0  0  0  0  0  0  0  0  0  0
  150.8520  133.5126  157.8423 H   0  0  0  0  0  0  0  0  0  0  0  0
  148.6187  130.2258  155.8088 H   0  0  0  0  0  0  0  0  0  0  0  0
  150.2503  129.0291  158.0592 H   0  0  0  0  0  0  0  0  0  0  0  0
  148.4937  129.0984  157.9084 H   0  0  0  0  0  0  0  0  0  0  0  0
  149.8369  126.9275  156.9800 H   0  0  0  0  0  0  0  0  0  0  0  0
  148.5271  127.6052  156.0097 H   0  0  0  0  0  0  0  0  0  0  0  0
  150.4746  129.9641  154.3477 H   0  0  0  0  0  0  0  0  0  0  0  0
  151.6215  129.7790  155.6733 H   0  0  0  0  0  0  0  0  0  0  0  0
  1  2  1  0  0  0  0
  1 30  1  0  0  0  0
  1 31  1  0  0  0  0
  2  3  2  0  0  0  0
  2  4  1  0  0  0  0
  4 28  1  0  0  0  0
  4  9  1  0  0  0  0
  4  5  1  0  0  0  0
  5  6  1  0  0  0  0
  5 32  1  0  0  0  0
  5 33  1  0  0  0  0
  6 29  1  0  0  0  0
  6  7  1  0  0  0  0
  6  8  1  0  0  0  0
  8  9  1  0  0  0  0
  8 34  1  0  0  0  0
  8 35  1  0  0  0  0
  9 10  1  0  0  0  0
 10 15  1  0  0  0  0
 10 11  2  0  0  0  0
 11 12  1  0  0  0  0
 12 13  2  0  0  0  0
 12 36  1  0  0  0  0
 13 14  1  0  0  0  0
 14 18  1  0  0  0  0
 14 15  2  0  0  0  0
 15 16  1  0  0  0  0
 16 17  2  0  0  0  0
 17 18  1  0  0  0  0
 17 37  1  0  0  0  0
 18 19  1  0  0  0  0
 19 20  1  0  0  0  0
 19 38  1  0  0  0  0
 19 39  1  0  0  0  0
 20 21  1  0  0  0  0
 20 23  1  0  0  0  0
 20 40  1  0  0  0  0
 21 22  1  0  0  0  0
 21 41  1  0  0  0  0
 21 42  1  0  0  0  0
 22 43  1  0  0  0  0
 23 27  1  0  0  0  0
 23 24  1  0  0  0  0
 23 44  1  0  0  0  0
 24 25  1  0  0  0  0
 24 45  1  0  0  0  0
 24 46  1  0  0  0  0
 25 26  1  0  0  0  0
 25 47  1  0  0  0  0
 25 48  1  0  0  0  0
 26 27  1  0  0  0  0
 27 49  1  0  0  0  0
 27 50  1  0  0  0  0
M  END
> <s_m_source_file>
AV-unprocessed.smi

> <i_m_source_file_index>
221

> <i_lp_mmshare_version>
43012

> <i_f3d_flags>
0

> <s_epik_input>
W05IMl1DKD1PKVtDQEBIXTFbQ0gyXVtDQEBIXShGKVtDSDJdTjFjKG5bY0hdbjIpYyhjMjMpbltjSF1uM1tDSDJdW0NASF0oW0NIMl1bT0hdKVtDQEBIXTRbQ0gyXVtDSDJdT1tDSDJdNA==

> <s_epik_cmdline>
J2VwaWtfcHl0aG9uJywgJy1waCcsICc3LjAnLCAnLXRuJywgJzgnLCAnLW1hJywgJzIwMCcsICctbWV0YWxfYmluZGluZycsICctaW1hZScsICc8aW5maWxlLm1hZT4nLCAnLW9tYWUnLCAnPG91dGZpbGUubWFlPic=

> <r_lp_tautomer_probability>
1

> <r_epik_Ionization_Penalty>
0.000818822

> <r_epik_Ionization_Penalty_Charging>
0

> <r_epik_Ionization_Penalty_Neutral>
0.000818822

> <r_epik_State_Penalty>
0.000440551

> <r_epik_Charging_Adjusted_Penalty>
0.000440551

> <i_epik_Tot_Q>
0

> <i_epik_Tot_abs_Q>
0

> <r_epik_Metal_State_Penalty>
-0

> <b_epik_Metal_Only>
0

> <s_lp_Force_Field>
OPLS_2005

> <r_lp_Energy>
52.3399

> <b_lp_Chiralities_Consistent>
1

> <s_lp_Variant>
AV-unprocessed.smi:221-1

> <Gold.Version>
5.8.1

> <Gold.Id.Protein>
6NUR|6NUR_protein|mol2

> <Gold.PLP.Fitness>
43.0839

> <Gold.PLP.PLP>
-36.3182

> <Gold.PLP.part.hbond>
-3.0000

> <Gold.PLP.part.metal>
0.0000

> <Gold.PLP.part.buried>
-5.4333

> <Gold.PLP.part.nonpolar>
-29.7411

> <Gold.PLP.part.repulsive>
1.7150

> <Gold.PLP.ligand.clash>
0.0000

> <Gold.PLP.ligand.torsion>
0.9360

> <Gold.PLP.Chemscore.Hbond>
2.7680

> <Gold.PLP.Chemscore.CHOScore>
0.0000

> <Gold.PLP.Chemscore.Metal>
0.0000

> <Gold.Chemscore.Hbonds>
donor molecule, donor type, donor heavy atom, donor atom, acceptor molecule, acceptor atom, score
      L1  H     1    30       P1 10171  1.00
      L1  H     1    31       P1  7921  1.00
      P1  H  6896  6908       L1    22  0.03

> <Gold.PLP.Chemscore.Internal.Correction>
0.3337

> <Gold.Rescore>
     Score         DG    S(hbond)    S(metal)    S(lipo)     H(rot)  DE(clash)    DE(int)     intcor
      7.85     -11.96       2.57        0.00      63.44       3.72       0.14       3.96       ----

> <Gold.Chemscore.Fitness>
7.8545

> <Gold.Chemscore.DG>
-11.9569

> <Gold.Chemscore.ZeroCoef>
-5.4800

> <Gold.Chemscore.Hbond>
2.5683

> <Gold.Chemscore.Metal>
0.0000

> <Gold.Chemscore.Lipo>
63.4395

> <Gold.Chemscore.Internal_Hbond>
0.0000

> <Gold.Chemscore.DEClash>
0.1429

> <Gold.Chemscore.DEInternal>
3.9595

> <Gold.Chemscore.Rot>
3.7202

> <Gold.Chemscore.Internal.Correction>
   9.000000E+99

> <Gold.Chemscore.Hbonds>
donor molecule, donor type, donor heavy atom, donor atom, acceptor molecule, acceptor atom, score
      L1  H     1    30       P1 10171  0.94
      L1  H     1    31       P1  7921  1.00
      P1  H  6896  6908       L1    22  0.06

> <Gold.Chemscore.Hbond.Weighted>
-8.5783

> <Gold.Chemscore.Metal.Weighted>
-0.0000

> <Gold.Chemscore.Lipo.Weighted>
-7.4224

> <Gold.Chemscore.Internal_Hbond.Weighted>
0.0000

> <Gold.Chemscore.DEClash.Weighted>
0.1429

> <Gold.Chemscore.DEInternal.Weighted>
3.9595

> <Gold.Chemscore.Rot.Weighted>
9.5237

> <Gold.Chemscore.Internal.Correction.Weighted>
   9.000000E+99

> <Gold.Protein.RotatedTorsions>
[ 6907 6896 6895 6894 ] final   47.48 input  -60.11 | X-H torsion
[ 7974 7965 7964 7962 ] final -127.52 input  175.53 | X-H torsion
[ 8008 7997 7996 7995 ] final  -71.82 input   59.86 | X-H torsion
[ 10167 10162 10161 10158 ] final   79.54 input  -65.29 | X-H torsion
[ 10718 10713 10712 10709 ] final    5.30 input   66.30 | X-H torsion
[ 10763 10752 10751 10750 ] final -155.73 input  -60.55 | X-H torsion
[ 11005 11000 10999 10996 ] final  128.72 input  -57.11 | X-H torsion

> <Gold.Protein.ActiveResidues>
 VAL166  LYS551  ARG553  GLY616  TRP617  ASP618  TYR619  PRO620  LYS621  CYS622 
 ASP623  PHE694  ASN695  SER759  ASP760  ASP761  ALA762  ILE779  LEU786  VAL792 
 PHE793  MET794  SER795  GLU796  ALA797  LYS798  CYS799  TRP800  GLU811  SER814 

> <Gold.Protein.RotatedAtoms>
  152.2685  134.7958  160.0418 H   0  0  0  0  0  0  0  0  0  0  0  0  # atno 6907 bound_to 6896
  151.8579  133.3446  159.3702 H   0  0  0  0  0  0  0  0  0  0  0  0  # atno 6908 bound_to 6896
  150.7143  134.5163  159.5676 H   0  0  0  0  0  0  0  0  0  0  0  0  # atno 6909 bound_to 6896
  144.9763  140.7596  143.4639 H   0  0  0  0  0  0  0  0  0  0  0  0  # atno 7974 bound_to 7965
  154.5118  140.0808  156.8004 H   0  0  0  0  0  0  0  0  0  0  0  0  # atno 8008 bound_to 7997
  155.3768  140.3426  155.4227 H   0  0  0  0  0  0  0  0  0  0  0  0  # atno 8009 bound_to 7997
  156.1582  140.1580  156.8645 H   0  0  0  0  0  0  0  0  0  0  0  0  # atno 8010 bound_to 7997
  139.9592  144.5972  150.8088 H   0  0  0  0  0  0  0  0  0  0  0  0  # atno 10167 bound_to 10162
  156.9053  130.5736  149.5647 H   0  0  0  0  0  0  0  0  0  0  0  0  # atno 10718 bound_to 10713
  154.7766  135.3161  154.8079 H   0  0  0  0  0  0  0  0  0  0  0  0  # atno 10763 bound_to 10752
  153.8801  135.6836  153.4772 H   0  0  0  0  0  0  0  0  0  0  0  0  # atno 10764 bound_to 10752
  153.1391  135.4747  154.9404 H   0  0  0  0  0  0  0  0  0  0  0  0  # atno 10765 bound_to 10752
  139.9576  134.9609  156.9044 H   0  0  0  0  0  0  0  0  0  0  0  0  # atno 11005 bound_to 11000
  145.2485  139.2041  143.4955 LP  0  0  0  0  0  0  0  0  0  0  0  0  # atno 17320 bound_to 7965
  146.3396  140.2394  142.8595 LP  0  0  0  0  0  0  0  0  0  0  0  0  # atno 17321 bound_to 7965
  140.7558  143.3054  151.2975 LP  0  0  0  0  0  0  0  0  0  0  0  0  # atno 17342 bound_to 10162
  139.6567  144.0263  152.2664 LP  0  0  0  0  0  0  0  0  0  0  0  0  # atno 17343 bound_to 10162
  156.0562  130.5623  150.9096 LP  0  0  0  0  0  0  0  0  0  0  0  0  # atno 17370 bound_to 10713
  157.6001  131.0941  150.8975 LP  0  0  0  0  0  0  0  0  0  0  0  0  # atno 17371 bound_to 10713
  140.5573  134.0569  155.7387 LP  0  0  0  0  0  0  0  0  0  0  0  0  # atno 17394 bound_to 11000
  141.1250  133.9399  157.2654 LP  0  0  0  0  0  0  0  0  0  0  0  0  # atno 17395 bound_to 11000

$$$$
