AV-unprocessed.smi:3329|AV-procd|sdf|12798|dock7
  -GOLD-   2272019153D 1   1.00000     0.00000
 Structure written by MMmdl.
 41 42  0  0  0  0  0  0  0  0  1 V2000
  144.3461  132.2480  149.2311 C   0  0  0  0  0  0  0  0  0  0  0  0
  144.0076  133.1698  150.3671 C   0  0  0  0  0  0  0  0  0  0  0  0
  143.0845  132.9484  151.4289 C   0  0  0  0  0  0  0  0  0  0  0  0
  143.0198  133.9637  152.2748 N   0  0  0  0  0  0  0  0  0  0  0  0
  143.8951  134.8667  151.7845 N   0  0  0  0  0  0  0  0  0  0  0  0
  144.0954  136.1283  152.4750 C   0  0  0  0  0  0  0  0  0  0  0  0
  145.4512  136.7744  152.1416 C   0  0  0  0  0  0  0  0  0  0  0  0
  145.3324  138.2254  152.1533 N   0  0  0  0  0  0  0  0  0  0  0  0
  146.6525  138.8571  152.0668 C   0  0  0  0  0  0  0  0  0  0  0  0
  147.2679  139.0629  153.4499 C   0  0  0  0  0  0  0  0  0  0  0  0
  146.8005  139.9129  154.2060 O   0  0  0  0  0  0  0  0  0  0  0  0
  148.3154  138.2786  153.7589 N   0  0  0  0  0  0  0  0  0  0  0  0
  149.0740  138.2335  155.0114 C   0  0  2  0  0  0  0  0  0  0  0  0
  148.1195  137.9497  156.1884 C   0  0  0  0  0  0  0  0  0  0  0  0
  149.6495  139.5750  155.2214 C   0  0  0  0  0  0  0  0  0  0  0  0
  150.0987  140.6291  155.3859 N   0  0  0  0  0  0  0  0  0  0  0  0
  150.1994  137.1929  154.9978 C   0  0  0  0  0  0  0  0  0  0  0  0
  149.9810  135.7534  155.4082 C   0  0  0  0  0  0  0  0  0  0  0  0
  150.8356  136.6636  156.2634 C   0  0  0  0  0  0  0  0  0  0  0  0
  144.5029  134.4150  150.6322 C   0  0  0  0  0  0  0  0  0  0  0  0
  144.0492  131.2201  149.4410 H   0  0  0  0  0  0  0  0  0  0  0  0
  145.4169  132.2367  149.0265 H   0  0  0  0  0  0  0  0  0  0  0  0
  143.8450  132.5459  148.3099 H   0  0  0  0  0  0  0  0  0  0  0  0
  142.4632  132.0835  151.6092 H   0  0  0  0  0  0  0  0  0  0  0  0
  143.2764  136.8030  152.2209 H   0  0  0  0  0  0  0  0  0  0  0  0
  144.0257  135.9459  153.5482 H   0  0  0  0  0  0  0  0  0  0  0  0
  146.1928  136.4632  152.8784 H   0  0  0  0  0  0  0  0  0  0  0  0
  145.8019  136.4339  151.1660 H   0  0  0  0  0  0  0  0  0  0  0  0
  144.7431  138.5070  151.3825 H   0  0  0  0  0  0  0  0  0  0  0  0
  147.3247  138.2366  151.4723 H   0  0  0  0  0  0  0  0  0  0  0  0
  146.5678  139.8208  151.5620 H   0  0  0  0  0  0  0  0  0  0  0  0
  148.6067  137.6200  153.0508 H   0  0  0  0  0  0  0  0  0  0  0  0
  148.6477  138.0099  157.1407 H   0  0  0  0  0  0  0  0  0  0  0  0
  147.6774  136.9551  156.1295 H   0  0  0  0  0  0  0  0  0  0  0  0
  147.3045  138.6740  156.2213 H   0  0  0  0  0  0  0  0  0  0  0  0
  150.8799  137.3122  154.1573 H   0  0  0  0  0  0  0  0  0  0  0  0
  149.0061  135.4669  155.7966 H   0  0  0  0  0  0  0  0  0  0  0  0
  150.4902  134.9865  154.8279 H   0  0  0  0  0  0  0  0  0  0  0  0
  151.9116  136.5019  156.2504 H   0  0  0  0  0  0  0  0  0  0  0  0
  150.4283  136.9845  157.2197 H   0  0  0  0  0  0  0  0  0  0  0  0
  145.2339  135.0100  150.1045 H   0  0  0  0  0  0  0  0  0  0  0  0
  1  2  1  0  0  0  0
  1 21  1  0  0  0  0
  1 22  1  0  0  0  0
  1 23  1  0  0  0  0
  2 20  2  0  0  0  0
  2  3  1  0  0  0  0
  3  4  2  0  0  0  0
  3 24  1  0  0  0  0
  4  5  1  0  0  0  0
  5  6  1  0  0  0  0
  5 20  1  0  0  0  0
  6  7  1  0  0  0  0
  6 25  1  0  0  0  0
  6 26  1  0  0  0  0
  7  8  1  0  0  0  0
  7 27  1  0  0  0  0
  7 28  1  0  0  0  0
  8  9  1  0  0  0  0
  8 29  1  0  0  0  0
  9 10  1  0  0  0  0
  9 30  1  0  0  0  0
  9 31  1  0  0  0  0
 10 11  2  0  0  0  0
 10 12  1  0  0  0  0
 12 13  1  0  0  0  0
 12 32  1  0  0  0  0
 13 14  1  0  0  0  0
 13 15  1  0  0  0  0
 13 17  1  0  0  0  0
 14 33  1  0  0  0  0
 14 34  1  0  0  0  0
 14 35  1  0  0  0  0
 15 16  3  0  0  0  0
 17 19  1  0  0  0  0
 17 18  1  0  0  0  0
 17 36  1  0  0  0  0
 18 19  1  0  0  0  0
 18 37  1  0  0  0  0
 18 38  1  0  0  0  0
 19 39  1  0  0  0  0
 19 40  1  0  0  0  0
 20 41  1  0  0  0  0
M  END
> <s_m_source_file>
AV-unprocessed.smi

> <i_m_source_file_index>
3329

> <i_lp_mmshare_version>
43012

> <i_f3d_flags>
0

> <s_epik_input>
W0NIM11jMVtjSF1ubihbY0hdMSlbQ0gyXVtDSDJdW05IXVtDSDJdQyg9TylbTkhdW0NAQF0oW0NIM10pKEMjTilbQ0hdMltDSDJdW0NIMl0y

> <s_epik_cmdline>
J2VwaWtfcHl0aG9uJywgJy1waCcsICc3LjAnLCAnLXRuJywgJzgnLCAnLW1hJywgJzIwMCcsICctbWV0YWxfYmluZGluZycsICctaW1hZScsICc8aW5maWxlLm1hZT4nLCAnLW9tYWUnLCAnPG91dGZpbGUubWFlPic=

> <r_lp_tautomer_probability>
1

> <r_epik_Ionization_Penalty>
0.481866

> <r_epik_Ionization_Penalty_Charging>
0

> <r_epik_Ionization_Penalty_Neutral>
0.481866

> <r_epik_State_Penalty>
0.48398

> <r_epik_Charging_Adjusted_Penalty>
0.48398

> <i_epik_Tot_Q>
0

> <i_epik_Tot_abs_Q>
0

> <r_epik_Metal_State_Penalty>
0.5042

> <b_epik_Metal_Only>
0

> <s_lp_Force_Field>
OPLS_2005

> <r_lp_Energy>
14.7625

> <b_lp_Chiralities_Consistent>
1

> <s_lp_Variant>
AV-unprocessed.smi:3329-4

> <Gold.Version>
5.8.1

> <Gold.Id.Protein>
6NUR|6NUR_protein|mol2

> <Gold.PLP.Fitness>
47.7616

> <Gold.PLP.PLP>
-38.0394

> <Gold.PLP.part.hbond>
-5.0000

> <Gold.PLP.part.metal>
0.0000

> <Gold.PLP.part.buried>
-0.9727

> <Gold.PLP.part.nonpolar>
-32.0540

> <Gold.PLP.part.repulsive>
0.4681

> <Gold.PLP.ligand.clash>
0.0000

> <Gold.PLP.ligand.torsion>
1.6078

> <Gold.PLP.Chemscore.Hbond>
2.8000

> <Gold.PLP.Chemscore.CHOScore>
0.9729

> <Gold.PLP.Chemscore.Metal>
0.0000

> <Gold.Chemscore.Hbonds>
donor molecule, donor type, donor heavy atom, donor atom, acceptor molecule, acceptor atom, score
      L1  H     8    29       P1 10171  1.00
      L1  H    12    32       P1  7948  1.00
      L1  C    20    41       P1  7921  0.74

> <Gold.PLP.Chemscore.Internal.Correction>
1.6191

> <Gold.Rescore>
     Score         DG    S(hbond)    S(metal)    S(lipo)     H(rot)  DE(clash)    DE(int)     intcor
     15.31     -18.34       2.98        0.00      75.45       2.31       0.19       2.84       ----

> <Gold.Chemscore.Fitness>
15.3063

> <Gold.Chemscore.DG>
-18.3359

> <Gold.Chemscore.ZeroCoef>
-5.4800

> <Gold.Chemscore.Hbond>
2.9788

> <Gold.Chemscore.Metal>
0.0000

> <Gold.Chemscore.Lipo>
75.4522

> <Gold.Chemscore.Internal_Hbond>
0.0000

> <Gold.Chemscore.DEClash>
0.1886

> <Gold.Chemscore.DEInternal>
2.8410

> <Gold.Chemscore.Rot>
2.3129

> <Gold.Chemscore.Internal.Correction>
   9.000000E+99

> <Gold.Chemscore.Hbonds>
donor molecule, donor type, donor heavy atom, donor atom, acceptor molecule, acceptor atom, score
      L1  H     8    29       P1 10171  1.00
      L1  H    12    32       P1  7948  1.00
      P1  H  7989  7998       L1    16  0.02

> <Gold.Chemscore.Hbond.Weighted>
-9.9492

> <Gold.Chemscore.Metal.Weighted>
-0.0000

> <Gold.Chemscore.Lipo.Weighted>
-8.8279

> <Gold.Chemscore.Internal_Hbond.Weighted>
0.0000

> <Gold.Chemscore.DEClash.Weighted>
0.1886

> <Gold.Chemscore.DEInternal.Weighted>
2.8410

> <Gold.Chemscore.Rot.Weighted>
5.9211

> <Gold.Chemscore.Internal.Correction.Weighted>
   9.000000E+99

> <Gold.Protein.RotatedTorsions>
[ 6907 6896 6895 6894 ] final  -92.58 input  -60.11 | X-H torsion
[ 7974 7965 7964 7962 ] final  -18.16 input  175.53 | X-H torsion
[ 8008 7997 7996 7995 ] final -113.54 input   59.86 | X-H torsion
[ 10167 10162 10161 10158 ] final  -62.04 input  -65.29 | X-H torsion
[ 10718 10713 10712 10709 ] final  129.99 input   66.30 | X-H torsion
[ 10763 10752 10751 10750 ] final  143.09 input  -60.55 | X-H torsion
[ 11005 11000 10999 10996 ] final  -48.10 input  -57.11 | X-H torsion

> <Gold.Protein.ActiveResidues>
 VAL166  LYS551  ARG553  GLY616  TRP617  ASP618  TYR619  PRO620  LYS621  CYS622 
 ASP623  PHE694  ASN695  SER759  ASP760  ASP761  ALA762  ILE779  LEU786  VAL792 
 PHE793  MET794  SER795  GLU796  ALA797  LYS798  CYS799  TRP800  GLU811  SER814 

> <Gold.Protein.RotatedAtoms>
  150.6908  134.2100  159.4355 H   0  0  0  0  0  0  0  0  0  0  0  0  # atno 6907 bound_to 6896
  152.0062  134.9899  160.0576 H   0  0  0  0  0  0  0  0  0  0  0  0  # atno 6908 bound_to 6896
  152.1532  133.4500  159.4861 H   0  0  0  0  0  0  0  0  0  0  0  0  # atno 6909 bound_to 6896
  146.1906  140.3882  142.8459 H   0  0  0  0  0  0  0  0  0  0  0  0  # atno 7974 bound_to 7965
  155.0223  140.0393  157.2442 H   0  0  0  0  0  0  0  0  0  0  0  0  # atno 8008 bound_to 7997
  154.7367  140.2741  155.6385 H   0  0  0  0  0  0  0  0  0  0  0  0  # atno 8009 bound_to 7997
  156.2854  140.2673  156.2083 H   0  0  0  0  0  0  0  0  0  0  0  0  # atno 8010 bound_to 7997
  140.5966  143.2352  151.6022 H   0  0  0  0  0  0  0  0  0  0  0  0  # atno 10167 bound_to 10162
  157.5104  131.1096  150.9301 H   0  0  0  0  0  0  0  0  0  0  0  0  # atno 10718 bound_to 10713
  153.9667  135.2955  155.3430 H   0  0  0  0  0  0  0  0  0  0  0  0  # atno 10763 bound_to 10752
  154.7345  135.5053  153.9022 H   0  0  0  0  0  0  0  0  0  0  0  0  # atno 10764 bound_to 10752
  153.0920  135.6710  153.9947 H   0  0  0  0  0  0  0  0  0  0  0  0  # atno 10765 bound_to 10752
  141.0680  133.6687  156.3392 H   0  0  0  0  0  0  0  0  0  0  0  0  # atno 11005 bound_to 11000
  144.8479  140.6957  143.6187 LP  0  0  0  0  0  0  0  0  0  0  0  0  # atno 17320 bound_to 7965
  145.3805  139.1638  143.4283 LP  0  0  0  0  0  0  0  0  0  0  0  0  # atno 17321 bound_to 7965
  139.5262  144.3052  152.1040 LP  0  0  0  0  0  0  0  0  0  0  0  0  # atno 17342 bound_to 10162
  140.2225  144.4452  150.6335 LP  0  0  0  0  0  0  0  0  0  0  0  0  # atno 17343 bound_to 10162
  156.9944  130.5575  149.5306 LP  0  0  0  0  0  0  0  0  0  0  0  0  # atno 17370 bound_to 10713
  156.0285  130.5378  150.8471 LP  0  0  0  0  0  0  0  0  0  0  0  0  # atno 17371 bound_to 10713
  140.5732  134.5819  157.5462 LP  0  0  0  0  0  0  0  0  0  0  0  0  # atno 17394 bound_to 11000
  139.9495  134.7641  156.0481 LP  0  0  0  0  0  0  0  0  0  0  0  0  # atno 17395 bound_to 11000

$$$$
