AV-unprocessed.smi:2141|AV-procd|sdf|8718|dock4
  -GOLD-   2272011483D 1   1.00000     0.00000
 Structure written by MMmdl.
 42 43  0  0  0  0  0  0  0  0  1 V2000
  143.0198  135.6967  152.4700 C   0  0  0  0  0  0  0  0  0  0  0  0
  144.6082  135.4665  151.5695 S   0  0  0  0  0  0  0  0  0  0  0  0
  145.5302  134.7063  152.4270 O   0  0  0  0  0  0  0  0  0  0  0  0
  144.3014  134.9972  150.2100 O   0  0  0  0  0  0  0  0  0  0  0  0
  145.2255  137.0734  151.4290 N   0  0  0  0  0  0  0  0  0  0  0  0
  145.7269  137.7968  152.6029 C   0  0  0  0  0  0  0  0  0  0  0  0
  146.9284  138.7029  152.2639 C   0  0  0  0  0  0  0  0  0  0  0  0
  147.4215  139.5263  153.4564 C   0  0  0  0  0  0  0  0  0  0  0  0
  146.6107  140.1627  154.1288 O   0  0  0  0  0  0  0  0  0  0  0  0
  148.7452  139.4795  153.6914 N   0  0  0  0  0  0  0  0  0  0  0  0
  149.4638  140.0520  154.7738 C   0  0  0  0  0  0  0  0  0  0  0  0
  150.5705  139.4409  155.4065 C   0  0  0  0  0  0  0  0  0  0  0  0
  151.1996  140.1101  156.4738 C   0  0  0  0  0  0  0  0  0  0  0  0
  150.7054  141.3688  156.8902 C   0  0  0  0  0  0  0  0  0  0  0  0
  151.3284  142.0602  157.9511 N   0  0  0  0  0  0  0  0  0  0  0  0
  151.4770  141.3114  159.1963 C   0  0  0  0  0  0  0  0  0  0  0  0
  152.4338  142.0455  160.1519 C   0  0  0  0  0  0  0  0  0  0  0  0
  151.9829  143.3804  160.3569 O   0  0  0  0  0  0  0  0  0  0  0  0
  151.9554  144.1225  159.1424 C   0  0  0  0  0  0  0  0  0  0  0  0
  150.9757  143.4638  158.1567 C   0  0  0  0  0  0  0  0  0  0  0  0
  149.6360  141.9447  156.2879 N   0  0  0  0  0  0  0  0  0  0  0  0
  149.0336  141.2985  155.2687 C   0  0  0  0  0  0  0  0  0  0  0  0
  142.5310  134.7303  152.5905 H   0  0  0  0  0  0  0  0  0  0  0  0
  142.3678  136.3593  151.9011 H   0  0  0  0  0  0  0  0  0  0  0  0
  143.2096  136.1259  153.4529 H   0  0  0  0  0  0  0  0  0  0  0  0
  144.7464  137.6472  150.7348 H   0  0  0  0  0  0  0  0  0  0  0  0
  144.9225  138.3896  153.0400 H   0  0  0  0  0  0  0  0  0  0  0  0
  146.0168  137.0673  153.3590 H   0  0  0  0  0  0  0  0  0  0  0  0
  147.7488  138.0960  151.8782 H   0  0  0  0  0  0  0  0  0  0  0  0
  146.6558  139.3874  151.4594 H   0  0  0  0  0  0  0  0  0  0  0  0
  149.2787  138.8661  153.0923 H   0  0  0  0  0  0  0  0  0  0  0  0
  150.9436  138.4755  155.1014 H   0  0  0  0  0  0  0  0  0  0  0  0
  152.0583  139.6586  156.9479 H   0  0  0  0  0  0  0  0  0  0  0  0
  150.4959  141.2050  159.6609 H   0  0  0  0  0  0  0  0  0  0  0  0
  151.8543  140.3050  159.0201 H   0  0  0  0  0  0  0  0  0  0  0  0
  152.4702  141.5324  161.1130 H   0  0  0  0  0  0  0  0  0  0  0  0
  153.4505  142.0509  159.7556 H   0  0  0  0  0  0  0  0  0  0  0  0
  151.6425  145.1444  159.3564 H   0  0  0  0  0  0  0  0  0  0  0  0
  152.9578  144.1794  158.7148 H   0  0  0  0  0  0  0  0  0  0  0  0
  151.0006  144.0023  157.2084 H   0  0  0  0  0  0  0  0  0  0  0  0
  149.9576  143.5280  158.5430 H   0  0  0  0  0  0  0  0  0  0  0  0
  148.1864  141.8020  154.8260 H   0  0  0  0  0  0  0  0  0  0  0  0
  1  2  1  0  0  0  0
  1 23  1  0  0  0  0
  1 24  1  0  0  0  0
  1 25  1  0  0  0  0
  2  3  2  0  0  0  0
  2  4  2  0  0  0  0
  2  5  1  0  0  0  0
  5  6  1  0  0  0  0
  5 26  1  0  0  0  0
  6  7  1  0  0  0  0
  6 27  1  0  0  0  0
  6 28  1  0  0  0  0
  7  8  1  0  0  0  0
  7 29  1  0  0  0  0
  7 30  1  0  0  0  0
  8  9  2  0  0  0  0
  8 10  1  0  0  0  0
 10 11  1  0  0  0  0
 10 31  1  0  0  0  0
 11 22  1  0  0  0  0
 11 12  2  0  0  0  0
 12 13  1  0  0  0  0
 12 32  1  0  0  0  0
 13 14  2  0  0  0  0
 13 33  1  0  0  0  0
 14 15  1  0  0  0  0
 14 21  1  0  0  0  0
 15 20  1  0  0  0  0
 15 16  1  0  0  0  0
 16 17  1  0  0  0  0
 16 34  1  0  0  0  0
 16 35  1  0  0  0  0
 17 18  1  0  0  0  0
 17 36  1  0  0  0  0
 17 37  1  0  0  0  0
 18 19  1  0  0  0  0
 19 20  1  0  0  0  0
 19 38  1  0  0  0  0
 19 39  1  0  0  0  0
 20 40  1  0  0  0  0
 20 41  1  0  0  0  0
 21 22  2  0  0  0  0
 22 42  1  0  0  0  0
M  END
> <s_m_source_file>
AV-unprocessed.smi

> <i_m_source_file_index>
2141

> <i_lp_mmshare_version>
43012

> <i_f3d_flags>
0

> <s_epik_input>
W0NIM11TKD1PKSg9TylbTkhdW0NIMl1bQ0gyXUMoPU8pW05IXWMxW2NIXVtjSF1jKG5bY0hdMSlOMltDSDJdW0NIMl1PW0NIMl1bQ0gyXTI=

> <s_epik_cmdline>
J2VwaWtfcHl0aG9uJywgJy1waCcsICc3LjAnLCAnLXRuJywgJzgnLCAnLW1hJywgJzIwMCcsICctbWV0YWxfYmluZGluZycsICctaW1hZScsICc8aW5maWxlLm1hZT4nLCAnLW9tYWUnLCAnPG91dGZpbGUubWFlPic=

> <r_lp_tautomer_probability>
1

> <r_epik_Ionization_Penalty>
0.000610192

> <r_epik_Ionization_Penalty_Charging>
0

> <r_epik_Ionization_Penalty_Neutral>
0.000610192

> <r_epik_State_Penalty>
0.000370803

> <r_epik_Charging_Adjusted_Penalty>
0.000370803

> <i_epik_Tot_Q>
0

> <i_epik_Tot_abs_Q>
0

> <r_epik_Metal_State_Penalty>
0.0170256

> <b_epik_Metal_Only>
0

> <s_lp_Force_Field>
OPLS_2005

> <r_lp_Energy>
9.95274

> <b_lp_Chiralities_Consistent>
1

> <s_lp_Variant>
AV-unprocessed.smi:2141-1

> <Gold.Version>
5.8.1

> <Gold.Id.Protein>
6NUR|6NUR_protein|mol2

> <Gold.PLP.Fitness>
44.4791

> <Gold.PLP.PLP>
-40.8343

> <Gold.PLP.part.hbond>
-2.0000

> <Gold.PLP.part.metal>
0.0000

> <Gold.PLP.part.buried>
-5.0543

> <Gold.PLP.part.nonpolar>
-35.5792

> <Gold.PLP.part.repulsive>
2.7879

> <Gold.PLP.ligand.clash>
0.0000

> <Gold.PLP.ligand.torsion>
1.2537

> <Gold.PLP.Chemscore.Hbond>
1.5920

> <Gold.PLP.Chemscore.CHOScore>
0.0000

> <Gold.PLP.Chemscore.Metal>
0.0000

> <Gold.Chemscore.Hbonds>
donor molecule, donor type, donor heavy atom, donor atom, acceptor molecule, acceptor atom, score
      L1  H     5    26       P1 10171  1.00
      L1  H    10    31       P1  7957  0.05

> <Gold.PLP.Chemscore.Internal.Correction>
1.3762

> <Gold.Rescore>
     Score         DG    S(hbond)    S(metal)    S(lipo)     H(rot)  DE(clash)    DE(int)     intcor
     13.15     -15.78       1.60        0.00      86.06       1.99       0.08       2.55       ----

> <Gold.Chemscore.Fitness>
13.1480

> <Gold.Chemscore.DG>
-15.7771

> <Gold.Chemscore.ZeroCoef>
-5.4800

> <Gold.Chemscore.Hbond>
1.5955

> <Gold.Chemscore.Metal>
0.0000

> <Gold.Chemscore.Lipo>
86.0598

> <Gold.Chemscore.Internal_Hbond>
0.0000

> <Gold.Chemscore.DEClash>
0.0827

> <Gold.Chemscore.DEInternal>
2.5464

> <Gold.Chemscore.Rot>
1.9925

> <Gold.Chemscore.Internal.Correction>
   9.000000E+99

> <Gold.Chemscore.Hbonds>
donor molecule, donor type, donor heavy atom, donor atom, acceptor molecule, acceptor atom, score
      L1  H     5    26       P1 10171  0.98
      L1  H    10    31       P1  7957  0.05

> <Gold.Chemscore.Hbond.Weighted>
-5.3289

> <Gold.Chemscore.Metal.Weighted>
-0.0000

> <Gold.Chemscore.Lipo.Weighted>
-10.0690

> <Gold.Chemscore.Internal_Hbond.Weighted>
0.0000

> <Gold.Chemscore.DEClash.Weighted>
0.0827

> <Gold.Chemscore.DEInternal.Weighted>
2.5464

> <Gold.Chemscore.Rot.Weighted>
5.1008

> <Gold.Chemscore.Internal.Correction.Weighted>
   9.000000E+99

> <Gold.Protein.RotatedTorsions>
[ 6907 6896 6895 6894 ] final  -30.57 input  -60.11 | X-H torsion
[ 7974 7965 7964 7962 ] final   79.39 input  175.53 | X-H torsion
[ 8008 7997 7996 7995 ] final -153.02 input   59.86 | X-H torsion
[ 10167 10162 10161 10158 ] final -125.68 input  -65.29 | X-H torsion
[ 10718 10713 10712 10709 ] final  -99.69 input   66.30 | X-H torsion
[ 10763 10752 10751 10750 ] final -168.56 input  -60.55 | X-H torsion
[ 11005 11000 10999 10996 ] final  -87.90 input  -57.11 | X-H torsion

> <Gold.Protein.ActiveResidues>
 VAL166  LYS551  ARG553  GLY616  TRP617  ASP618  TYR619  PRO620  LYS621  CYS622 
 ASP623  PHE694  ASN695  SER759  ASP760  ASP761  ALA762  ILE779  LEU786  VAL792 
 PHE793  MET794  SER795  GLU796  ALA797  LYS798  CYS799  TRP800  GLU811  SER814 

> <Gold.Protein.RotatedAtoms>
  151.1038  134.9988  159.8461 H   0  0  0  0  0  0  0  0  0  0  0  0  # atno 6907 bound_to 6896
  152.5439  134.1918  159.8687 H   0  0  0  0  0  0  0  0  0  0  0  0  # atno 6908 bound_to 6896
  151.1963  133.4593  159.2629 H   0  0  0  0  0  0  0  0  0  0  0  0  # atno 6909 bound_to 6896
  145.6648  139.2481  143.1902 H   0  0  0  0  0  0  0  0  0  0  0  0  # atno 7974 bound_to 7965
  155.6643  140.0726  157.2543 H   0  0  0  0  0  0  0  0  0  0  0  0  # atno 8008 bound_to 7997
  154.4136  140.1710  156.1861 H   0  0  0  0  0  0  0  0  0  0  0  0  # atno 8009 bound_to 7997
  155.9670  140.3365  155.6545 H   0  0  0  0  0  0  0  0  0  0  0  0  # atno 8010 bound_to 7997
  139.9795  143.5757  152.2383 H   0  0  0  0  0  0  0  0  0  0  0  0  # atno 10167 bound_to 10162
  156.0141  130.5294  150.6707 H   0  0  0  0  0  0  0  0  0  0  0  0  # atno 10718 bound_to 10713
  154.6616  135.2925  154.9859 H   0  0  0  0  0  0  0  0  0  0  0  0  # atno 10763 bound_to 10752
  154.0917  135.6589  153.4857 H   0  0  0  0  0  0  0  0  0  0  0  0  # atno 10764 bound_to 10752
  153.0433  135.5221  154.7569 H   0  0  0  0  0  0  0  0  0  0  0  0  # atno 10765 bound_to 10752
  141.1610  133.7538  156.9373 H   0  0  0  0  0  0  0  0  0  0  0  0  # atno 11005 bound_to 11000
  146.1095  140.7445  142.9510 LP  0  0  0  0  0  0  0  0  0  0  0  0  # atno 17320 bound_to 7965
  144.7077  140.3916  143.7105 LP  0  0  0  0  0  0  0  0  0  0  0  0  # atno 17321 bound_to 7965
  139.6420  144.7655  151.2319 LP  0  0  0  0  0  0  0  0  0  0  0  0  # atno 17342 bound_to 10162
  140.7494  143.6301  150.8431 LP  0  0  0  0  0  0  0  0  0  0  0  0  # atno 17343 bound_to 10162
  157.4430  131.0863  151.0924 LP  0  0  0  0  0  0  0  0  0  0  0  0  # atno 17370 bound_to 10713
  157.1462  130.6164  149.5569 LP  0  0  0  0  0  0  0  0  0  0  0  0  # atno 17371 bound_to 10713
  140.1345  134.9334  157.2383 LP  0  0  0  0  0  0  0  0  0  0  0  0  # atno 17394 bound_to 11000
  140.2911  134.3239  155.7315 LP  0  0  0  0  0  0  0  0  0  0  0  0  # atno 17395 bound_to 11000

$$$$
