AV-unprocessed.smi:1645|AV-procd|sdf|6604|dock2
  -GOLD-   22720 7303D 1   1.00000     0.00000
 Structure written by MMmdl.
 55 58  0  0  0  0  0  0  0  0  2 V2000
  147.3930  136.0141  156.1145 O   0  0  0  0  0  0  0  0  0  0  0  0
  147.8330  136.1345  154.9720 C   0  0  0  0  0  0  0  0  0  0  0  0
  148.6982  137.0754  154.5554 N   0  0  0  0  0  0  0  0  0  0  0  0
  149.3281  138.1178  155.2913 C   0  0  0  0  0  0  0  0  0  0  0  0
  149.3653  138.2121  156.7028 C   0  0  0  0  0  0  0  0  0  0  0  0
  150.0296  139.3020  157.2969 C   0  0  0  0  0  0  0  0  0  0  0  0
  150.6418  140.2742  156.4728 C   0  0  0  0  0  0  0  0  0  0  0  0
  151.3111  141.3723  157.0539 N   0  0  0  0  0  0  0  0  0  0  0  0
  151.6959  141.2019  158.4561 C   0  0  0  0  0  0  0  0  0  0  0  0
  152.7652  142.2294  158.8650 C   0  0  0  0  0  0  0  0  0  0  0  0
  152.3065  143.6608  158.5476 C   0  0  0  0  0  0  0  0  0  0  0  0
  151.9179  143.7733  157.0657 C   0  0  0  0  0  0  0  0  0  0  0  0
  150.8639  142.7183  156.6878 C   0  0  0  0  0  0  0  0  0  0  0  0
  150.6089  140.1802  155.1214 N   0  0  0  0  0  0  0  0  0  0  0  0
  149.9701  139.1349  154.5563 C   0  0  0  0  0  0  0  0  0  0  0  0
  147.4858  135.3181  153.9670 N   0  0  0  0  0  0  0  0  0  0  0  0
  146.5803  134.1796  154.0988 C   0  0  2  0  0  0  0  0  0  0  0  0
  147.2727  132.8324  153.9387 C   0  0  0  0  0  0  0  0  0  0  0  0
  146.1099  131.8783  153.6450 C   0  0  0  0  0  0  0  0  0  0  0  0
  145.0315  132.6906  153.0287 N   0  3  2  0  0  0  0  0  0  0  0  0
  144.5670  132.1808  151.7106 C   0  0  0  0  0  0  0  0  0  0  0  0
  143.7701  133.2553  150.9561 C   0  0  0  0  0  0  0  0  0  0  0  0
  144.6384  134.4914  150.6541 C   0  0  0  0  0  0  0  0  0  0  0  0
  145.8166  134.6384  151.6364 C   0  0  0  0  0  0  0  0  0  0  0  0
  145.4531  134.1203  153.0498 C   0  0  2  0  0  0  0  0  0  0  0  0
  148.9522  137.0344  153.5791 H   0  0  0  0  0  0  0  0  0  0  0  0
  148.9084  137.4807  157.3489 H   0  0  0  0  0  0  0  0  0  0  0  0
  150.0751  139.3727  158.3735 H   0  0  0  0  0  0  0  0  0  0  0  0
  150.8071  141.3260  159.0763 H   0  0  0  0  0  0  0  0  0  0  0  0
  152.0738  140.1994  158.6524 H   0  0  0  0  0  0  0  0  0  0  0  0
  152.9865  142.1344  159.9283 H   0  0  0  0  0  0  0  0  0  0  0  0
  153.6944  142.0177  158.3344 H   0  0  0  0  0  0  0  0  0  0  0  0
  151.4518  143.9208  159.1734 H   0  0  0  0  0  0  0  0  0  0  0  0
  153.0982  144.3718  158.7856 H   0  0  0  0  0  0  0  0  0  0  0  0
  151.5388  144.7727  156.8519 H   0  0  0  0  0  0  0  0  0  0  0  0
  152.8052  143.6395  156.4453 H   0  0  0  0  0  0  0  0  0  0  0  0
  150.6735  142.7735  155.6153 H   0  0  0  0  0  0  0  0  0  0  0  0
  149.9220  142.9328  157.1948 H   0  0  0  0  0  0  0  0  0  0  0  0
  149.9734  139.1106  153.4762 H   0  0  0  0  0  0  0  0  0  0  0  0
  147.8870  135.4835  153.0553 H   0  0  0  0  0  0  0  0  0  0  0  0
  146.1308  134.2037  155.0940 H   0  0  0  0  0  0  0  0  0  0  0  0
  147.9549  132.8561  153.0878 H   0  0  0  0  0  0  0  0  0  0  0  0
  147.8448  132.5411  154.8203 H   0  0  0  0  0  0  0  0  0  0  0  0
  146.4280  131.0411  153.0219 H   0  0  0  0  0  0  0  0  0  0  0  0
  145.7235  131.4611  154.5755 H   0  0  0  0  0  0  0  0  0  0  0  0
  145.4206  131.8770  151.1018 H   0  0  0  0  0  0  0  0  0  0  0  0
  143.9585  131.2901  151.8688 H   0  0  0  0  0  0  0  0  0  0  0  0
  143.3621  132.8508  150.0294 H   0  0  0  0  0  0  0  0  0  0  0  0
  142.9124  133.5508  151.5623 H   0  0  0  0  0  0  0  0  0  0  0  0
  145.0304  134.4358  149.6378 H   0  0  0  0  0  0  0  0  0  0  0  0
  144.0099  135.3821  150.6876 H   0  0  0  0  0  0  0  0  0  0  0  0
  146.6744  134.0810  151.2573 H   0  0  0  0  0  0  0  0  0  0  0  0
  146.1240  135.6837  151.6649 H   0  0  0  0  0  0  0  0  0  0  0  0
  144.6102  134.7134  153.4080 H   0  0  0  0  0  0  0  0  0  0  0  0
  144.2413  132.6313  153.6553 H   0  0  0  0  0  0  0  0  0  0  0  0
  1  2  2  0  0  0  0
  2  3  1  0  0  0  0
  2 16  1  0  0  0  0
  3  4  1  0  0  0  0
  3 26  1  0  0  0  0
  4 15  1  0  0  0  0
  4  5  2  0  0  0  0
  5  6  1  0  0  0  0
  5 27  1  0  0  0  0
  6  7  2  0  0  0  0
  6 28  1  0  0  0  0
  7  8  1  0  0  0  0
  7 14  1  0  0  0  0
  8 13  1  0  0  0  0
  8  9  1  0  0  0  0
  9 10  1  0  0  0  0
  9 29  1  0  0  0  0
  9 30  1  0  0  0  0
 10 11  1  0  0  0  0
 10 31  1  0  0  0  0
 10 32  1  0  0  0  0
 11 12  1  0  0  0  0
 11 33  1  0  0  0  0
 11 34  1  0  0  0  0
 12 13  1  0  0  0  0
 12 35  1  0  0  0  0
 12 36  1  0  0  0  0
 13 37  1  0  0  0  0
 13 38  1  0  0  0  0
 14 15  2  0  0  0  0
 15 39  1  0  0  0  0
 16 17  1  0  0  0  0
 16 40  1  0  0  0  0
 17 25  1  0  0  0  0
 17 18  1  0  0  0  0
 17 41  1  0  0  0  0
 18 19  1  0  0  0  0
 18 42  1  0  0  0  0
 18 43  1  0  0  0  0
 19 20  1  0  0  0  0
 19 44  1  0  0  0  0
 19 45  1  0  0  0  0
 20 25  1  0  0  0  0
 20 21  1  0  0  0  0
 20 55  1  0  0  0  0
 21 22  1  0  0  0  0
 21 46  1  0  0  0  0
 21 47  1  0  0  0  0
 22 23  1  0  0  0  0
 22 48  1  0  0  0  0
 22 49  1  0  0  0  0
 23 24  1  0  0  0  0
 23 50  1  0  0  0  0
 23 51  1  0  0  0  0
 24 25  1  0  0  0  0
 24 52  1  0  0  0  0
 24 53  1  0  0  0  0
 25 54  1  0  0  0  0
M  CHG  1  20   1
M  END
> <s_m_source_file>
AV-unprocessed.smi

> <i_m_source_file_index>
1645

> <i_lp_mmshare_version>
43012

> <i_f3d_flags>
0

> <s_epik_input>
W0NIMl0xW0NIMl1bQ0gyXVtDSDJdW0NASF0oTjEyKVtDQEBIXShbQ0gyXVtDSDJdMilbTkhdQyg9TylbTkhdYzNbY0hdW2NIXWMobltjSF0zKU40W0NIMl1bQ0gyXVtDSDJdW0NIMl1bQ0gyXTQ=

> <s_epik_cmdline>
J2VwaWtfcHl0aG9uJywgJy1waCcsICc3LjAnLCAnLXRuJywgJzgnLCAnLW1hJywgJzIwMCcsICctbWV0YWxfYmluZGluZycsICctaW1hZScsICc8aW5maWxlLm1hZT4nLCAnLW9tYWUnLCAnPG91dGZpbGUubWFlPic=

> <r_lp_tautomer_probability>
1

> <r_epik_Ionization_Penalty>
0.0808019

> <r_epik_Ionization_Penalty_Charging>
0.000974069

> <r_epik_Ionization_Penalty_Neutral>
0.0798278

> <r_epik_State_Penalty>
0.0653665

> <r_epik_Charging_Adjusted_Penalty>
0.0663406

> <i_epik_Tot_Q>
1

> <i_epik_Tot_abs_Q>
1

> <r_epik_Metal_State_Penalty>
0.0585673

> <b_epik_Metal_Only>
0

> <s_lp_Force_Field>
OPLS_2005

> <r_lp_Energy>
57.3455

> <b_lp_Chiralities_Consistent>
1

> <s_lp_Variant>
AV-unprocessed.smi:1645-5

> <Gold.Version>
5.8.1

> <Gold.Id.Protein>
6NUR|6NUR_protein|mol2

> <Gold.PLP.Fitness>
50.9440

> <Gold.PLP.PLP>
-34.6520

> <Gold.PLP.part.hbond>
-3.8242

> <Gold.PLP.part.metal>
0.0000

> <Gold.PLP.part.buried>
-5.3179

> <Gold.PLP.part.nonpolar>
-27.0929

> <Gold.PLP.part.repulsive>
0.1041

> <Gold.PLP.ligand.clash>
0.0000

> <Gold.PLP.ligand.torsion>
0.3993

> <Gold.PLP.Chemscore.Hbond>
4.5513

> <Gold.PLP.Chemscore.CHOScore>
1.0000

> <Gold.PLP.Chemscore.Metal>
0.0000

> <Gold.Chemscore.Hbonds>
donor molecule, donor type, donor heavy atom, donor atom, acceptor molecule, acceptor atom, score
      L1  H     3    26       P1  7948  1.00
      L1  H    16    40       P1  7948  1.00
      L1  H    20    55       P1 10957  1.59
      P1  H  7989  7998       L1    14  0.98
      L1  C    15    39       P1  7957  1.00

> <Gold.PLP.Chemscore.Internal.Correction>
0.4369

> <Gold.Rescore>
     Score         DG    S(hbond)    S(metal)    S(lipo)     H(rot)  DE(clash)    DE(int)     intcor
     21.97     -24.91       3.10        0.00     103.35       1.17       1.55       1.39       ----

> <Gold.Chemscore.Fitness>
21.9661

> <Gold.Chemscore.DG>
-24.9093

> <Gold.Chemscore.ZeroCoef>
-5.4800

> <Gold.Chemscore.Hbond>
3.0960

> <Gold.Chemscore.Metal>
0.0000

> <Gold.Chemscore.Lipo>
103.3486

> <Gold.Chemscore.Internal_Hbond>
0.0000

> <Gold.Chemscore.DEClash>
1.5515

> <Gold.Chemscore.DEInternal>
1.3917

> <Gold.Chemscore.Rot>
1.1731

> <Gold.Chemscore.Internal.Correction>
   9.000000E+99

> <Gold.Chemscore.Hbonds>
donor molecule, donor type, donor heavy atom, donor atom, acceptor molecule, acceptor atom, score
      L1  H     3    26       P1  7948  0.97
      L1  H    16    40       P1  7948  0.99
      L1  H    20    55       P1 10957  0.39
      P1  H  7989  7998       L1    14  0.23

> <Gold.Chemscore.Hbond.Weighted>
-10.3407

> <Gold.Chemscore.Metal.Weighted>
-0.0000

> <Gold.Chemscore.Lipo.Weighted>
-12.0918

> <Gold.Chemscore.Internal_Hbond.Weighted>
0.0000

> <Gold.Chemscore.DEClash.Weighted>
1.5515

> <Gold.Chemscore.DEInternal.Weighted>
1.3917

> <Gold.Chemscore.Rot.Weighted>
3.0032

> <Gold.Chemscore.Internal.Correction.Weighted>
   9.000000E+99

> <Gold.Protein.RotatedTorsions>
[ 6907 6896 6895 6894 ] final    1.25 input  -60.11 | X-H torsion
[ 7974 7965 7964 7962 ] final -165.24 input  175.53 | X-H torsion
[ 8008 7997 7996 7995 ] final  125.59 input   59.86 | X-H torsion
[ 10167 10162 10161 10158 ] final   63.47 input  -65.29 | X-H torsion
[ 10718 10713 10712 10709 ] final  -22.00 input   66.30 | X-H torsion
[ 10763 10752 10751 10750 ] final  177.51 input  -60.55 | X-H torsion
[ 11005 11000 10999 10996 ] final -115.87 input  -57.11 | X-H torsion

> <Gold.Protein.ActiveResidues>
 VAL166  LYS551  ARG553  GLY616  TRP617  ASP618  TYR619  PRO620  LYS621  CYS622 
 ASP623  PHE694  ASN695  SER759  ASP760  ASP761  ALA762  ILE779  LEU786  VAL792 
 PHE793  MET794  SER795  GLU796  ALA797  LYS798  CYS799  TRP800  GLU811  SER814 

> <Gold.Protein.RotatedAtoms>
  151.5896  135.1054  160.0035 H   0  0  0  0  0  0  0  0  0  0  0  0  # atno 6907 bound_to 6896
  152.4313  133.7278  159.6581 H   0  0  0  0  0  0  0  0  0  0  0  0  # atno 6908 bound_to 6896
  150.8205  133.8189  159.3163 H   0  0  0  0  0  0  0  0  0  0  0  0  # atno 6909 bound_to 6896
  144.7275  140.2843  143.6231 H   0  0  0  0  0  0  0  0  0  0  0  0  # atno 7974 bound_to 7965
  156.2838  140.2713  156.1974 H   0  0  0  0  0  0  0  0  0  0  0  0  # atno 8008 bound_to 7997
  155.0396  140.0386  157.2522 H   0  0  0  0  0  0  0  0  0  0  0  0  # atno 8009 bound_to 7997
  154.7285  140.2702  155.6482 H   0  0  0  0  0  0  0  0  0  0  0  0  # atno 8010 bound_to 7997
  140.1327  144.4628  150.6855 H   0  0  0  0  0  0  0  0  0  0  0  0  # atno 10167 bound_to 10162
  156.5105  130.4609  149.6650 H   0  0  0  0  0  0  0  0  0  0  0  0  # atno 10718 bound_to 10713
  154.4954  135.2781  155.1463 H   0  0  0  0  0  0  0  0  0  0  0  0  # atno 10763 bound_to 10752
  154.3118  135.6227  153.5472 H   0  0  0  0  0  0  0  0  0  0  0  0  # atno 10764 bound_to 10752
  152.9894  135.5721  154.5385 H   0  0  0  0  0  0  0  0  0  0  0  0  # atno 10765 bound_to 10752
  141.0459  133.9763  157.2918 H   0  0  0  0  0  0  0  0  0  0  0  0  # atno 11005 bound_to 11000
  145.7918  139.1930  143.2098 LP  0  0  0  0  0  0  0  0  0  0  0  0  # atno 17320 bound_to 7965
  146.0749  140.7828  142.9670 LP  0  0  0  0  0  0  0  0  0  0  0  0  # atno 17321 bound_to 7965
  140.6807  143.2325  151.5391 LP  0  0  0  0  0  0  0  0  0  0  0  0  # atno 17342 bound_to 10162
  139.5511  144.2393  152.1532 LP  0  0  0  0  0  0  0  0  0  0  0  0  # atno 17343 bound_to 10162
  156.3245  130.7298  151.2216 LP  0  0  0  0  0  0  0  0  0  0  0  0  # atno 17370 bound_to 10713
  157.7451  131.0447  150.4805 LP  0  0  0  0  0  0  0  0  0  0  0  0  # atno 17371 bound_to 10713
  139.9311  135.0200  156.8404 LP  0  0  0  0  0  0  0  0  0  0  0  0  # atno 17394 bound_to 11000
  140.6147  134.0049  155.7592 LP  0  0  0  0  0  0  0  0  0  0  0  0  # atno 17395 bound_to 11000

$$$$
