AV-unprocessed.smi:2099|AV-procd|sdf|8572|dock4
  -GOLD-   2272011303D 1   1.00000     0.00000
 Structure written by MMmdl.
 31 32  0  0  0  0  0  0  0  0  2 V2000
  153.4012  141.7465  159.4875 C   0  0  0  0  0  0  0  0  0  0  0  0
  152.8460  143.1765  159.4285 C   0  0  2  0  0  0  0  0  0  0  0  0
  152.5264  143.7141  160.8365 C   0  0  0  0  0  0  0  0  0  0  0  0
  151.9636  145.1452  160.7825 C   0  0  0  0  0  0  0  0  0  0  0  0
  150.7219  145.2491  159.8710 C   0  0  2  0  0  0  0  0  0  0  0  0
  149.5712  144.5541  160.4480 N   0  0  0  0  0  0  0  0  0  0  0  0
  148.4781  145.1254  160.9737 C   0  0  0  0  0  0  0  0  0  0  0  0
  148.3737  146.3540  160.9940 O   0  0  0  0  0  0  0  0  0  0  0  0
  147.5761  144.2366  161.4489 N   0  5  0  0  0  0  0  0  0  0  0  0
  146.2629  144.4465  161.2601 C   0  0  0  0  0  0  0  0  0  0  0  0
  145.7974  145.3336  160.3660 N   0  0  0  0  0  0  0  0  0  0  0  0
  144.4108  145.3898  160.3240 N   0  0  0  0  0  0  0  0  0  0  0  0
  143.8637  144.5333  161.1865 C   0  0  0  0  0  0  0  0  0  0  0  0
  144.9915  143.5791  162.1260 S   0  0  0  0  0  0  0  0  0  0  0  0
  151.0309  144.6893  158.4688 C   0  0  0  0  0  0  0  0  0  0  0  0
  151.6015  143.2603  158.5238 C   0  0  0  0  0  0  0  0  0  0  0  0
  152.6714  141.0557  159.9115 H   0  0  0  0  0  0  0  0  0  0  0  0
  154.3008  141.6995  160.1018 H   0  0  0  0  0  0  0  0  0  0  0  0
  153.6627  141.3853  158.4926 H   0  0  0  0  0  0  0  0  0  0  0  0
  153.6198  143.8117  158.9948 H   0  0  0  0  0  0  0  0  0  0  0  0
  151.8083  143.0574  161.3297 H   0  0  0  0  0  0  0  0  0  0  0  0
  153.4257  143.7014  161.4530 H   0  0  0  0  0  0  0  0  0  0  0  0
  151.7308  145.4914  161.7898 H   0  0  0  0  0  0  0  0  0  0  0  0
  152.7368  145.8165  160.4071 H   0  0  0  0  0  0  0  0  0  0  0  0
  150.4569  146.3019  159.7593 H   0  0  0  0  0  0  0  0  0  0  0  0
  149.6093  143.5455  160.4534 H   0  0  0  0  0  0  0  0  0  0  0  0
  142.7894  144.4605  161.2674 H   0  0  0  0  0  0  0  0  0  0  0  0
  150.1338  144.7097  157.8486 H   0  0  0  0  0  0  0  0  0  0  0  0
  151.7533  145.3413  157.9760 H   0  0  0  0  0  0  0  0  0  0  0  0
  151.8527  142.9312  157.5150 H   0  0  0  0  0  0  0  0  0  0  0  0
  150.8351  142.5739  158.8861 H   0  0  0  0  0  0  0  0  0  0  0  0
  1  2  1  0  0  0  0
  1 17  1  0  0  0  0
  1 18  1  0  0  0  0
  1 19  1  0  0  0  0
  2 16  1  0  0  0  0
  2  3  1  0  0  0  0
  2 20  1  0  0  0  0
  3  4  1  0  0  0  0
  3 21  1  0  0  0  0
  3 22  1  0  0  0  0
  4  5  1  0  0  0  0
  4 23  1  0  0  0  0
  4 24  1  0  0  0  0
  5  6  1  0  0  0  0
  5 15  1  0  0  0  0
  5 25  1  0  0  0  0
  6  7  1  0  0  0  0
  6 26  1  0  0  0  0
  7  8  2  0  0  0  0
  7  9  1  0  0  0  0
  9 10  1  0  0  0  0
 10 14  1  0  0  0  0
 10 11  2  0  0  0  0
 11 12  1  0  0  0  0
 12 13  2  0  0  0  0
 13 14  1  0  0  0  0
 13 27  1  0  0  0  0
 15 16  1  0  0  0  0
 15 28  1  0  0  0  0
 15 29  1  0  0  0  0
 16 30  1  0  0  0  0
 16 31  1  0  0  0  0
M  CHG  1   9  -1
M  END
> <s_m_source_file>
AV-unprocessed.smi

> <i_m_source_file_index>
2099

> <i_lp_mmshare_version>
43012

> <i_f3d_flags>
0

> <s_epik_input>
W0NIM11bQ0BASF0xW0NIMl1bQ0gyXVtDQEhdKFtDSDJdW0NIMl0xKVtOSF1DKD1PKVtOSF1jMm5uW2NIXXMy

> <s_epik_cmdline>
J2VwaWtfcHl0aG9uJywgJy1waCcsICc3LjAnLCAnLXRuJywgJzgnLCAnLW1hJywgJzIwMCcsICctbWV0YWxfYmluZGluZycsICctaW1hZScsICc8aW5maWxlLm1hZT4nLCAnLW9tYWUnLCAnPG91dGZpbGUubWFlPic=

> <r_lp_tautomer_probability>
1

> <r_epik_Ionization_Penalty>
4.54895

> <r_epik_Ionization_Penalty_Charging>
4.4996

> <r_epik_Ionization_Penalty_Neutral>
0.0493438

> <r_epik_State_Penalty>
4.4993

> <r_epik_Charging_Adjusted_Penalty>
8.99891

> <i_epik_Tot_Q>
-1

> <i_epik_Tot_abs_Q>
1

> <r_epik_Metal_State_Penalty>
0.819079

> <b_epik_Metal_Only>
1

> <s_lp_Force_Field>
OPLS_2005

> <r_lp_Energy>
5.8403

> <b_lp_Chiralities_Consistent>
1

> <s_lp_Variant>
AV-unprocessed.smi:2099-4

> <Gold.Version>
5.8.1

> <Gold.Id.Protein>
6NUR|6NUR_protein|mol2

> <Gold.PLP.Fitness>
42.8185

> <Gold.PLP.PLP>
-37.7285

> <Gold.PLP.part.hbond>
-2.8882

> <Gold.PLP.part.metal>
0.0000

> <Gold.PLP.part.buried>
-6.6537

> <Gold.PLP.part.nonpolar>
-29.5051

> <Gold.PLP.part.repulsive>
0.8174

> <Gold.PLP.ligand.clash>
0.0000

> <Gold.PLP.ligand.torsion>
0.4595

> <Gold.PLP.Chemscore.Hbond>
2.0000

> <Gold.PLP.Chemscore.CHOScore>
0.0000

> <Gold.PLP.Chemscore.Metal>
0.0000

> <Gold.Chemscore.Hbonds>
donor molecule, donor type, donor heavy atom, donor atom, acceptor molecule, acceptor atom, score
      P1  H  6933  6944       L1     9  1.76

> <Gold.PLP.Chemscore.Internal.Correction>
0.0090

> <Gold.Rescore>
     Score         DG    S(hbond)    S(metal)    S(lipo)     H(rot)  DE(clash)    DE(int)     intcor
     13.64     -16.94       0.87        0.00      94.97       1.00       1.46       1.84       ----

> <Gold.Chemscore.Fitness>
13.6355

> <Gold.Chemscore.DG>
-16.9382

> <Gold.Chemscore.ZeroCoef>
-5.4800

> <Gold.Chemscore.Hbond>
0.8704

> <Gold.Chemscore.Metal>
0.0000

> <Gold.Chemscore.Lipo>
94.9661

> <Gold.Chemscore.Internal_Hbond>
0.0000

> <Gold.Chemscore.DEClash>
1.4583

> <Gold.Chemscore.DEInternal>
1.8444

> <Gold.Chemscore.Rot>
1.0000

> <Gold.Chemscore.Internal.Correction>
   9.000000E+99

> <Gold.Chemscore.Hbonds>
donor molecule, donor type, donor heavy atom, donor atom, acceptor molecule, acceptor atom, score
      P1  H  6933  6944       L1     9  0.51

> <Gold.Chemscore.Hbond.Weighted>
-2.9071

> <Gold.Chemscore.Metal.Weighted>
-0.0000

> <Gold.Chemscore.Lipo.Weighted>
-11.1110

> <Gold.Chemscore.Internal_Hbond.Weighted>
0.0000

> <Gold.Chemscore.DEClash.Weighted>
1.4583

> <Gold.Chemscore.DEInternal.Weighted>
1.8444

> <Gold.Chemscore.Rot.Weighted>
2.5600

> <Gold.Chemscore.Internal.Correction.Weighted>
   9.000000E+99

> <Gold.Protein.RotatedTorsions>
[ 6907 6896 6895 6894 ] final  -11.29 input  -60.11 | X-H torsion
[ 7974 7965 7964 7962 ] final  118.64 input  175.53 | X-H torsion
[ 8008 7997 7996 7995 ] final   -7.31 input   59.86 | X-H torsion
[ 10167 10162 10161 10158 ] final  -57.92 input  -65.29 | X-H torsion
[ 10718 10713 10712 10709 ] final -124.37 input   66.30 | X-H torsion
[ 10763 10752 10751 10750 ] final  -28.30 input  -60.55 | X-H torsion
[ 11005 11000 10999 10996 ] final   68.66 input  -57.11 | X-H torsion

> <Gold.Protein.ActiveResidues>
 VAL166  LYS551  ARG553  GLY616  TRP617  ASP618  TYR619  PRO620  LYS621  CYS622 
 ASP623  PHE694  ASN695  SER759  ASP760  ASP761  ALA762  ILE779  LEU786  VAL792 
 PHE793  MET794  SER795  GLU796  ALA797  LYS798  CYS799  TRP800  GLU811  SER814 

> <Gold.Protein.RotatedAtoms>
  151.3886  135.0952  159.9518 H   0  0  0  0  0  0  0  0  0  0  0  0  # atno 6907 bound_to 6896
  152.5087  133.9002  159.7447 H   0  0  0  0  0  0  0  0  0  0  0  0  # atno 6908 bound_to 6896
  150.9451  133.6557  159.2811 H   0  0  0  0  0  0  0  0  0  0  0  0  # atno 6909 bound_to 6896
  145.1528  139.3200  143.4558 H   0  0  0  0  0  0  0  0  0  0  0  0  # atno 7974 bound_to 7965
  154.5851  140.2410  155.7999 H   0  0  0  0  0  0  0  0  0  0  0  0  # atno 8008 bound_to 7997
  156.2207  140.2998  155.9901 H   0  0  0  0  0  0  0  0  0  0  0  0  # atno 8009 bound_to 7997
  155.2473  140.0409  157.2973 H   0  0  0  0  0  0  0  0  0  0  0  0  # atno 8010 bound_to 7997
  140.6229  143.2426  151.5436 H   0  0  0  0  0  0  0  0  0  0  0  0  # atno 10167 bound_to 10162
  156.1582  130.6583  151.0011 H   0  0  0  0  0  0  0  0  0  0  0  0  # atno 10718 bound_to 10713
  153.7461  135.6929  153.4956 H   0  0  0  0  0  0  0  0  0  0  0  0  # atno 10763 bound_to 10752
  153.2035  135.4428  155.0294 H   0  0  0  0  0  0  0  0  0  0  0  0  # atno 10764 bound_to 10752
  154.8204  135.3419  154.6984 H   0  0  0  0  0  0  0  0  0  0  0  0  # atno 10765 bound_to 10752
  139.9698  134.6919  156.0469 H   0  0  0  0  0  0  0  0  0  0  0  0  # atno 11005 bound_to 11000
  146.3492  140.1609  142.8591 LP  0  0  0  0  0  0  0  0  0  0  0  0  # atno 17320 bound_to 7965
  145.0413  140.8947  143.5051 LP  0  0  0  0  0  0  0  0  0  0  0  0  # atno 17321 bound_to 7965
  139.5454  144.2535  152.1432 LP  0  0  0  0  0  0  0  0  0  0  0  0  # atno 17342 bound_to 10162
  140.1759  144.4891  150.6554 LP  0  0  0  0  0  0  0  0  0  0  0  0  # atno 17343 bound_to 10162
  157.6711  131.0861  150.7609 LP  0  0  0  0  0  0  0  0  0  0  0  0  # atno 17370 bound_to 10713
  156.7673  130.4817  149.5425 LP  0  0  0  0  0  0  0  0  0  0  0  0  # atno 17371 bound_to 10713
  141.1378  133.6571  156.3643 LP  0  0  0  0  0  0  0  0  0  0  0  0  # atno 17394 bound_to 11000
  140.5317  134.6206  157.5352 LP  0  0  0  0  0  0  0  0  0  0  0  0  # atno 17395 bound_to 11000

$$$$
