AV-unprocessed.smi:882|AV-procd|sdf|4037|dock5
  -GOLD-   22720 1533D 1   1.00000     0.00000
 Structure written by MMmdl.
 33 34  0  0  0  0  0  0  0  0  1 V2000
  138.0056  140.7321  153.7756 C   0  0  0  0  0  0  0  0  0  0  0  0
  139.2034  140.6972  154.0102 C   0  0  0  0  0  0  0  0  0  0  0  0
  140.6459  140.6413  154.3021 C   0  0  0  0  0  0  0  0  0  0  0  0
  141.2651  139.4026  153.8449 N   0  0  0  0  0  0  0  0  0  0  0  0
  140.7639  138.1689  154.0259 C   0  0  0  0  0  0  0  0  0  0  0  0
  139.7179  137.9416  154.6343 O   0  0  0  0  0  0  0  0  0  0  0  0
  141.5997  137.0440  153.4872 C   0  0  0  0  0  0  0  0  0  0  0  0
  141.1849  135.6976  153.5817 C   0  0  0  0  0  0  0  0  0  0  0  0
  142.0238  134.6844  153.0793 C   0  0  0  0  0  0  0  0  0  0  0  0
  143.2664  135.0381  152.5021 C   0  0  0  0  0  0  0  0  0  0  0  0
  144.1249  134.0388  151.9942 N   0  0  0  0  0  0  0  0  0  0  0  0
  145.4211  134.5050  151.5074 C   0  0  0  0  0  0  0  0  0  0  0  0
  146.3660  133.3138  151.2721 C   0  0  0  0  0  0  0  0  0  0  0  0
  145.7509  132.3756  150.3957 O   0  0  0  0  0  0  0  0  0  0  0  0
  144.5472  131.8500  150.9440 C   0  0  0  0  0  0  0  0  0  0  0  0
  143.5377  132.9893  151.1629 C   0  0  0  0  0  0  0  0  0  0  0  0
  143.6642  136.3315  152.4169 N   0  0  0  0  0  0  0  0  0  0  0  0
  142.8578  137.2995  152.9012 C   0  0  0  0  0  0  0  0  0  0  0  0
  136.9592  140.7596  153.5698 H   0  0  0  0  0  0  0  0  0  0  0  0
  141.1231  141.4808  153.7967 H   0  0  0  0  0  0  0  0  0  0  0  0
  140.7923  140.7864  155.3735 H   0  0  0  0  0  0  0  0  0  0  0  0
  142.1429  139.4889  153.3536 H   0  0  0  0  0  0  0  0  0  0  0  0
  140.2389  135.4321  154.0310 H   0  0  0  0  0  0  0  0  0  0  0  0
  141.7003  133.6558  153.1325 H   0  0  0  0  0  0  0  0  0  0  0  0
  145.2699  135.0502  150.5749 H   0  0  0  0  0  0  0  0  0  0  0  0
  145.8916  135.1961  152.2050 H   0  0  0  0  0  0  0  0  0  0  0  0
  147.2985  133.6577  150.8247 H   0  0  0  0  0  0  0  0  0  0  0  0
  146.6250  132.8309  152.2158 H   0  0  0  0  0  0  0  0  0  0  0  0
  144.1360  131.1118  150.2555 H   0  0  0  0  0  0  0  0  0  0  0  0
  144.7570  131.3304  151.8803 H   0  0  0  0  0  0  0  0  0  0  0  0
  142.6402  132.5896  151.6364 H   0  0  0  0  0  0  0  0  0  0  0  0
  143.2398  133.4130  150.2027 H   0  0  0  0  0  0  0  0  0  0  0  0
  143.2332  138.3084  152.8094 H   0  0  0  0  0  0  0  0  0  0  0  0
  1  2  3  0  0  0  0
  1 19  1  0  0  0  0
  2  3  1  0  0  0  0
  3  4  1  0  0  0  0
  3 20  1  0  0  0  0
  3 21  1  0  0  0  0
  4  5  1  0  0  0  0
  4 22  1  0  0  0  0
  5  6  2  0  0  0  0
  5  7  1  0  0  0  0
  7 18  1  0  0  0  0
  7  8  2  0  0  0  0
  8  9  1  0  0  0  0
  8 23  1  0  0  0  0
  9 10  2  0  0  0  0
  9 24  1  0  0  0  0
 10 11  1  0  0  0  0
 10 17  1  0  0  0  0
 11 16  1  0  0  0  0
 11 12  1  0  0  0  0
 12 13  1  0  0  0  0
 12 25  1  0  0  0  0
 12 26  1  0  0  0  0
 13 14  1  0  0  0  0
 13 27  1  0  0  0  0
 13 28  1  0  0  0  0
 14 15  1  0  0  0  0
 15 16  1  0  0  0  0
 15 29  1  0  0  0  0
 15 30  1  0  0  0  0
 16 31  1  0  0  0  0
 16 32  1  0  0  0  0
 17 18  2  0  0  0  0
 18 33  1  0  0  0  0
M  END
> <s_m_source_file>
AV-unprocessed.smi

> <i_m_source_file_index>
882

> <i_lp_mmshare_version>
43012

> <i_f3d_flags>
0

> <s_epik_input>
W0NIXSNDW0NIMl1bTkhdQyg9TyljMVtjSF1bY0hdYyhuW2NIXTEpTjJbQ0gyXVtDSDJdT1tDSDJdW0NIMl0y

> <s_epik_cmdline>
J2VwaWtfcHl0aG9uJywgJy1waCcsICc3LjAnLCAnLXRuJywgJzgnLCAnLW1hJywgJzIwMCcsICctbWV0YWxfYmluZGluZycsICctaW1hZScsICc8aW5maWxlLm1hZT4nLCAnLW9tYWUnLCAnPG91dGZpbGUubWFlPic=

> <r_lp_tautomer_probability>
1

> <r_epik_Ionization_Penalty>
1.53095e-05

> <r_epik_Ionization_Penalty_Charging>
0

> <r_epik_Ionization_Penalty_Neutral>
1.53095e-05

> <r_epik_State_Penalty>
-0

> <r_epik_Charging_Adjusted_Penalty>
0

> <i_epik_Tot_Q>
0

> <i_epik_Tot_abs_Q>
0

> <r_epik_Metal_State_Penalty>
-0

> <b_epik_Metal_Only>
0

> <s_lp_Force_Field>
OPLS_2005

> <r_lp_Energy>
17.8132

> <b_lp_Chiralities_Consistent>
1

> <s_lp_Variant>
AV-unprocessed.smi:882-1

> <Gold.Version>
5.8.1

> <Gold.Id.Protein>
6NUR|6NUR_protein|mol2

> <Gold.PLP.Fitness>
38.9477

> <Gold.PLP.PLP>
-33.1994

> <Gold.PLP.part.hbond>
-1.7645

> <Gold.PLP.part.metal>
0.0000

> <Gold.PLP.part.buried>
-6.1405

> <Gold.PLP.part.nonpolar>
-25.6611

> <Gold.PLP.part.repulsive>
0.4782

> <Gold.PLP.ligand.clash>
0.0000

> <Gold.PLP.ligand.torsion>
0.2946

> <Gold.PLP.Chemscore.Hbond>
1.0000

> <Gold.PLP.Chemscore.CHOScore>
1.0000

> <Gold.PLP.Chemscore.Metal>
0.0000

> <Gold.Chemscore.Hbonds>
donor molecule, donor type, donor heavy atom, donor atom, acceptor molecule, acceptor atom, score
      L1  H     4    22       P1 10175  1.00
      L1  C    18    33       P1 10175  1.00

> <Gold.PLP.Chemscore.Internal.Correction>
0.3375

> <Gold.Rescore>
     Score         DG    S(hbond)    S(metal)    S(lipo)     H(rot)  DE(clash)    DE(int)     intcor
     13.21     -13.59       0.96        0.00      68.10       1.19       0.17       0.22       ----

> <Gold.Chemscore.Fitness>
13.2112

> <Gold.Chemscore.DG>
-13.5947

> <Gold.Chemscore.ZeroCoef>
-5.4800

> <Gold.Chemscore.Hbond>
0.9553

> <Gold.Chemscore.Metal>
0.0000

> <Gold.Chemscore.Lipo>
68.0967

> <Gold.Chemscore.Internal_Hbond>
0.0000

> <Gold.Chemscore.DEClash>
0.1672

> <Gold.Chemscore.DEInternal>
0.2163

> <Gold.Chemscore.Rot>
1.1887

> <Gold.Chemscore.Internal.Correction>
   9.000000E+99

> <Gold.Chemscore.Hbonds>
donor molecule, donor type, donor heavy atom, donor atom, acceptor molecule, acceptor atom, score
      L1  H     4    22       P1 10175  0.94

> <Gold.Chemscore.Hbond.Weighted>
-3.1906

> <Gold.Chemscore.Metal.Weighted>
-0.0000

> <Gold.Chemscore.Lipo.Weighted>
-7.9673

> <Gold.Chemscore.Internal_Hbond.Weighted>
0.0000

> <Gold.Chemscore.DEClash.Weighted>
0.1672

> <Gold.Chemscore.DEInternal.Weighted>
0.2163

> <Gold.Chemscore.Rot.Weighted>
3.0432

> <Gold.Chemscore.Internal.Correction.Weighted>
   9.000000E+99

> <Gold.Protein.RotatedTorsions>
[ 6907 6896 6895 6894 ] final   14.77 input  -60.11 | X-H torsion
[ 7974 7965 7964 7962 ] final   14.06 input  175.53 | X-H torsion
[ 8008 7997 7996 7995 ] final  -87.71 input   59.86 | X-H torsion
[ 10167 10162 10161 10158 ] final   -1.69 input  -65.29 | X-H torsion
[ 10718 10713 10712 10709 ] final  -72.79 input   66.30 | X-H torsion
[ 10763 10752 10751 10750 ] final   84.97 input  -60.55 | X-H torsion
[ 11005 11000 10999 10996 ] final -105.37 input  -57.11 | X-H torsion

> <Gold.Protein.ActiveResidues>
 VAL166  LYS551  ARG553  GLY616  TRP617  ASP618  TYR619  PRO620  LYS621  CYS622 
 ASP623  PHE694  ASN695  SER759  ASP760  ASP761  ALA762  ILE779  LEU786  VAL792 
 PHE793  MET794  SER795  GLU796  ALA797  LYS798  CYS799  TRP800  GLU811  SER814 

> <Gold.Protein.RotatedAtoms>
  151.8076  135.0690  160.0408 H   0  0  0  0  0  0  0  0  0  0  0  0  # atno 6907 bound_to 6896
  152.3044  133.5684  159.5648 H   0  0  0  0  0  0  0  0  0  0  0  0  # atno 6908 bound_to 6896
  150.7289  134.0160  159.3727 H   0  0  0  0  0  0  0  0  0  0  0  0  # atno 6909 bound_to 6896
  146.2314  139.9096  142.8526 H   0  0  0  0  0  0  0  0  0  0  0  0  # atno 7974 bound_to 7965
  154.6663  140.0562  157.0117 H   0  0  0  0  0  0  0  0  0  0  0  0  # atno 8008 bound_to 7997
  155.1154  140.3242  155.4492 H   0  0  0  0  0  0  0  0  0  0  0  0  # atno 8009 bound_to 7997
  156.2639  140.2007  156.6277 H   0  0  0  0  0  0  0  0  0  0  0  0  # atno 8010 bound_to 7997
  140.6821  143.6745  150.8157 H   0  0  0  0  0  0  0  0  0  0  0  0  # atno 10167 bound_to 10162
  156.0306  130.4380  150.2645 H   0  0  0  0  0  0  0  0  0  0  0  0  # atno 10718 bound_to 10713
  153.1431  135.4634  154.9525 H   0  0  0  0  0  0  0  0  0  0  0  0  # atno 10763 bound_to 10752
  154.7763  135.3174  154.8087 H   0  0  0  0  0  0  0  0  0  0  0  0  # atno 10764 bound_to 10752
  153.8606  135.6913  153.4837 H   0  0  0  0  0  0  0  0  0  0  0  0  # atno 10765 bound_to 10752
  141.1056  133.8802  157.1726 H   0  0  0  0  0  0  0  0  0  0  0  0  # atno 11005 bound_to 11000
  145.2242  140.9947  143.4028 LP  0  0  0  0  0  0  0  0  0  0  0  0  # atno 17320 bound_to 7965
  144.9584  139.4006  143.6368 LP  0  0  0  0  0  0  0  0  0  0  0  0  # atno 17321 bound_to 7965
  140.0447  143.5311  152.2702 LP  0  0  0  0  0  0  0  0  0  0  0  0  # atno 17342 bound_to 10162
  139.6150  144.7617  151.2865 LP  0  0  0  0  0  0  0  0  0  0  0  0  # atno 17343 bound_to 10162
  157.0747  131.0126  151.3178 LP  0  0  0  0  0  0  0  0  0  0  0  0  # atno 17370 bound_to 10713
  157.4973  130.7858  149.7568 LP  0  0  0  0  0  0  0  0  0  0  0  0  # atno 17371 bound_to 10713
  139.9925  135.0059  157.0008 LP  0  0  0  0  0  0  0  0  0  0  0  0  # atno 17394 bound_to 11000
  140.4910  134.1193  155.7232 LP  0  0  0  0  0  0  0  0  0  0  0  0  # atno 17395 bound_to 11000

$$$$
