AV-unprocessed.smi:2061|AV-procd|sdf|8392|dock7
  -GOLD-   2272011 73D 1   1.00000     0.00000
 Structure written by MMmdl.
 45 46  0  0  0  0  0  0  0  0  3 V2000
  153.1927  142.2630  161.1294 C   0  0  0  0  0  0  0  0  0  0  0  0
  152.3567  142.1422  159.9010 C   0  0  0  0  0  0  0  0  0  0  0  0
  152.5564  141.5202  158.7008 C   0  0  0  0  0  0  0  0  0  0  0  0
  151.3585  141.7993  157.9908 C   0  0  0  0  0  0  0  0  0  0  0  0
  151.1744  141.3290  156.6639 N   0  0  0  0  0  0  0  0  0  0  0  0
  151.7111  140.2433  156.0793 C   0  0  0  0  0  0  0  0  0  0  0  0
  152.5757  139.5820  156.6668 O   0  0  0  0  0  0  0  0  0  0  0  0
  151.1835  140.0010  154.8472 N   0  5  0  0  0  0  0  0  0  0  0  0
  150.4544  138.7853  154.4681 C   0  0  0  0  0  0  0  0  0  0  0  0
  148.9797  139.0903  154.0804 C   0  0  2  0  0  0  0  0  0  0  0  0
  148.3939  140.3598  154.7474 C   0  0  0  0  0  0  0  0  0  0  0  0
  148.1224  137.8692  154.2126 N   0  3  1  0  0  0  0  0  0  0  0  0
  148.4534  136.9304  155.3161 C   0  0  0  0  0  0  0  0  0  0  0  0
  147.6734  135.6193  155.1301 C   0  0  1  0  0  0  0  0  0  0  0  0
  147.9370  134.6271  156.2677 C   0  0  0  0  0  0  0  0  0  0  0  0
  146.2770  135.9083  155.1077 O   0  0  0  0  0  0  0  0  0  0  0  0
  145.8686  136.8233  154.0892 C   0  0  2  0  0  0  0  0  0  0  0  0
  145.9174  136.1871  152.6884 C   0  0  0  0  0  0  0  0  0  0  0  0
  146.6653  138.1400  154.1917 C   0  0  0  0  0  0  0  0  0  0  0  0
  150.5082  142.5350  158.6920 N   0  0  0  0  0  0  0  0  0  0  0  0
  151.1420  142.7552  159.9204 O   0  0  0  0  0  0  0  0  0  0  0  0
  154.1760  142.6672  160.8889 H   0  0  0  0  0  0  0  0  0  0  0  0
  153.3325  141.2886  161.5975 H   0  0  0  0  0  0  0  0  0  0  0  0
  152.7257  142.9243  161.8598 H   0  0  0  0  0  0  0  0  0  0  0  0
  153.4201  140.9552  158.3839 H   0  0  0  0  0  0  0  0  0  0  0  0
  150.5213  141.8538  156.1013 H   0  0  0  0  0  0  0  0  0  0  0  0
  150.9392  138.2896  153.6271 H   0  0  0  0  0  0  0  0  0  0  0  0
  150.4563  138.0437  155.2683 H   0  0  0  0  0  0  0  0  0  0  0  0
  149.0263  139.3319  153.0176 H   0  0  0  0  0  0  0  0  0  0  0  0
  148.9835  141.2474  154.5107 H   0  0  0  0  0  0  0  0  0  0  0  0
  148.3465  140.2860  155.8352 H   0  0  0  0  0  0  0  0  0  0  0  0
  147.3837  140.5545  154.3866 H   0  0  0  0  0  0  0  0  0  0  0  0
  149.5212  136.7127  155.3243 H   0  0  0  0  0  0  0  0  0  0  0  0
  148.2072  137.3790  156.2794 H   0  0  0  0  0  0  0  0  0  0  0  0
  147.9710  135.1444  154.1948 H   0  0  0  0  0  0  0  0  0  0  0  0
  148.9941  134.3650  156.3210 H   0  0  0  0  0  0  0  0  0  0  0  0
  147.3744  133.7053  156.1181 H   0  0  0  0  0  0  0  0  0  0  0  0
  147.6449  135.0436  157.2322 H   0  0  0  0  0  0  0  0  0  0  0  0
  144.8224  137.0532  154.2927 H   0  0  0  0  0  0  0  0  0  0  0  0
  145.4766  136.8518  151.9454 H   0  0  0  0  0  0  0  0  0  0  0  0
  145.3574  135.2521  152.6665 H   0  0  0  0  0  0  0  0  0  0  0  0
  146.9355  135.9739  152.3647 H   0  0  0  0  0  0  0  0  0  0  0  0
  146.3909  138.6759  155.1017 H   0  0  0  0  0  0  0  0  0  0  0  0
  146.4099  138.7872  153.3514 H   0  0  0  0  0  0  0  0  0  0  0  0
  148.3083  137.3551  153.3620 H   0  0  0  0  0  0  0  0  0  0  0  0
  1  2  1  0  0  0  0
  1 22  1  0  0  0  0
  1 23  1  0  0  0  0
  1 24  1  0  0  0  0
  2 21  1  0  0  0  0
  2  3  2  0  0  0  0
  3  4  1  0  0  0  0
  3 25  1  0  0  0  0
  4  5  1  0  0  0  0
  4 20  2  0  0  0  0
  5  6  1  0  0  0  0
  5 26  1  0  0  0  0
  6  7  2  0  0  0  0
  6  8  1  0  0  0  0
  8  9  1  0  0  0  0
  9 10  1  0  0  0  0
  9 27  1  0  0  0  0
  9 28  1  0  0  0  0
 10 11  1  0  0  0  0
 10 12  1  0  0  0  0
 10 29  1  0  0  0  0
 11 30  1  0  0  0  0
 11 31  1  0  0  0  0
 11 32  1  0  0  0  0
 12 19  1  0  0  0  0
 12 13  1  0  0  0  0
 12 45  1  0  0  0  0
 13 14  1  0  0  0  0
 13 33  1  0  0  0  0
 13 34  1  0  0  0  0
 14 15  1  0  0  0  0
 14 16  1  0  0  0  0
 14 35  1  0  0  0  0
 15 36  1  0  0  0  0
 15 37  1  0  0  0  0
 15 38  1  0  0  0  0
 16 17  1  0  0  0  0
 17 18  1  0  0  0  0
 17 19  1  0  0  0  0
 17 39  1  0  0  0  0
 18 40  1  0  0  0  0
 18 41  1  0  0  0  0
 18 42  1  0  0  0  0
 19 43  1  0  0  0  0
 19 44  1  0  0  0  0
 20 21  1  0  0  0  0
M  CHG  1   8  -1
M  CHG  1  12   1
M  END
> <s_m_source_file>
AV-unprocessed.smi

> <i_m_source_file_index>
2061

> <i_lp_mmshare_version>
43012

> <i_f3d_flags>
0

> <s_epik_input>
W0NIM11jMVtjSF1jKG5vMSlbTkhdQyg9TylbTkhdW0NIMl1bQ0BIXShbQ0gzXSlOMltDSDJdW0NAQEhdKFtDSDNdKU9bQ0BASF0oW0NIM10pW0NIMl0y

> <s_epik_cmdline>
J2VwaWtfcHl0aG9uJywgJy1waCcsICc3LjAnLCAnLXRuJywgJzgnLCAnLW1hJywgJzIwMCcsICctbWV0YWxfYmluZGluZycsICctaW1hZScsICc8aW5maWxlLm1hZT4nLCAnLW9tYWUnLCAnPG91dGZpbGUubWFlPic=

> <r_epik_Ionization_Penalty>
6.8073

> <r_epik_Ionization_Penalty_Charging>
6.80729

> <r_epik_Ionization_Penalty_Neutral>
5.65391e-06

> <r_epik_State_Penalty>
7.47323

> <r_epik_Charging_Adjusted_Penalty>
14.2805

> <i_epik_Tot_Q>
0

> <i_epik_Tot_abs_Q>
2

> <r_epik_Metal_State_Penalty>
3.40035

> <b_epik_Metal_Only>
1

> <s_lp_Force_Field>
OPLS_2005

> <r_lp_Energy>
16.7719

> <b_lp_Chiralities_Consistent>
1

> <s_lp_Variant>
AV-unprocessed.smi:2061-33

> <Gold.Version>
5.8.1

> <Gold.Id.Protein>
6NUR|6NUR_protein|mol2

> <Gold.PLP.Fitness>
37.6845

> <Gold.PLP.PLP>
-28.7965

> <Gold.PLP.part.hbond>
-4.0000

> <Gold.PLP.part.metal>
0.0000

> <Gold.PLP.part.buried>
-4.4590

> <Gold.PLP.part.nonpolar>
-20.1813

> <Gold.PLP.part.repulsive>
0.2772

> <Gold.PLP.ligand.clash>
0.0000

> <Gold.PLP.ligand.torsion>
1.6604

> <Gold.PLP.Chemscore.Hbond>
4.0000

> <Gold.PLP.Chemscore.CHOScore>
0.0000

> <Gold.PLP.Chemscore.Metal>
0.0000

> <Gold.Chemscore.Hbonds>
donor molecule, donor type, donor heavy atom, donor atom, acceptor molecule, acceptor atom, score
      L1  H    12    45       P1  7948  2.00
      P1  H  7989  7998       L1     8  1.00
      P1  H  7997  8010       L1     7  1.00

> <Gold.PLP.Chemscore.Internal.Correction>
0.2087

> <Gold.Rescore>
     Score         DG    S(hbond)    S(metal)    S(lipo)     H(rot)  DE(clash)    DE(int)     intcor
     15.41     -18.51       2.88        0.00      63.17       1.56       0.17       2.93       ----

> <Gold.Chemscore.Fitness>
15.4120

> <Gold.Chemscore.DG>
-18.5142

> <Gold.Chemscore.ZeroCoef>
-5.4800

> <Gold.Chemscore.Hbond>
2.8815

> <Gold.Chemscore.Metal>
0.0000

> <Gold.Chemscore.Lipo>
63.1685

> <Gold.Chemscore.Internal_Hbond>
0.0000

> <Gold.Chemscore.DEClash>
0.1739

> <Gold.Chemscore.DEInternal>
2.9283

> <Gold.Chemscore.Rot>
1.5550

> <Gold.Chemscore.Internal.Correction>
   9.000000E+99

> <Gold.Chemscore.Hbonds>
donor molecule, donor type, donor heavy atom, donor atom, acceptor molecule, acceptor atom, score
      L1  H    12    45       P1  7948  0.98
      P1  H  7989  7998       L1     8  0.77
      P1  H  7997  8010       L1     7  0.94

> <Gold.Chemscore.Hbond.Weighted>
-9.6244

> <Gold.Chemscore.Metal.Weighted>
-0.0000

> <Gold.Chemscore.Lipo.Weighted>
-7.3907

> <Gold.Chemscore.Internal_Hbond.Weighted>
0.0000

> <Gold.Chemscore.DEClash.Weighted>
0.1739

> <Gold.Chemscore.DEInternal.Weighted>
2.9283

> <Gold.Chemscore.Rot.Weighted>
3.9809

> <Gold.Chemscore.Internal.Correction.Weighted>
   9.000000E+99

> <Gold.Protein.RotatedTorsions>
[ 6907 6896 6895 6894 ] final -123.86 input  -60.11 | X-H torsion
[ 7974 7965 7964 7962 ] final    5.27 input  175.53 | X-H torsion
[ 8008 7997 7996 7995 ] final   70.81 input   59.86 | X-H torsion
[ 10167 10162 10161 10158 ] final  -39.63 input  -65.29 | X-H torsion
[ 10718 10713 10712 10709 ] final  135.16 input   66.30 | X-H torsion
[ 10763 10752 10751 10750 ] final   50.83 input  -60.55 | X-H torsion
[ 11005 11000 10999 10996 ] final -147.69 input  -57.11 | X-H torsion

> <Gold.Protein.ActiveResidues>
 VAL166  LYS551  ARG553  GLY616  TRP617  ASP618  TYR619  PRO620  LYS621  CYS622 
 ASP623  PHE694  ASN695  SER759  ASP760  ASP761  ALA762  ILE779  LEU786  VAL792 
 PHE793  MET794  SER795  GLU796  ALA797  LYS798  CYS799  TRP800  GLU811  SER814 

> <Gold.Protein.RotatedAtoms>
  150.8712  133.7503  159.2960 H   0  0  0  0  0  0  0  0  0  0  0  0  # atno 6907 bound_to 6896
  151.5115  135.1063  159.9864 H   0  0  0  0  0  0  0  0  0  0  0  0  # atno 6908 bound_to 6896
  152.4696  133.7955  159.6980 H   0  0  0  0  0  0  0  0  0  0  0  0  # atno 6909 bound_to 6896
  146.2441  140.0410  142.8382 H   0  0  0  0  0  0  0  0  0  0  0  0  # atno 7974 bound_to 7965
  155.7444  140.3490  155.5120 H   0  0  0  0  0  0  0  0  0  0  0  0  # atno 8008 bound_to 7997
  155.9064  140.1043  157.1333 H   0  0  0  0  0  0  0  0  0  0  0  0  # atno 8009 bound_to 7997
  154.4050  140.1276  156.4488 H   0  0  0  0  0  0  0  0  0  0  0  0  # atno 8010 bound_to 7997
  140.7058  143.3202  151.2810 H   0  0  0  0  0  0  0  0  0  0  0  0  # atno 10167 bound_to 10162
  157.4599  131.1072  150.9932 H   0  0  0  0  0  0  0  0  0  0  0  0  # atno 10718 bound_to 10713
  152.9784  135.5866  154.4317 H   0  0  0  0  0  0  0  0  0  0  0  0  # atno 10763 bound_to 10752
  154.3929  135.2768  155.2146 H   0  0  0  0  0  0  0  0  0  0  0  0  # atno 10764 bound_to 10752
  154.4010  135.6103  153.5951 H   0  0  0  0  0  0  0  0  0  0  0  0  # atno 10765 bound_to 10752
  140.7691  134.3210  157.5080 H   0  0  0  0  0  0  0  0  0  0  0  0  # atno 11005 bound_to 11000
  145.1070  140.9381  143.4679 LP  0  0  0  0  0  0  0  0  0  0  0  0  # atno 17320 bound_to 7965
  145.0615  139.3102  143.5878 LP  0  0  0  0  0  0  0  0  0  0  0  0  # atno 17321 bound_to 7965
  139.6654  144.0115  152.2719 LP  0  0  0  0  0  0  0  0  0  0  0  0  # atno 17342 bound_to 10162
  139.9696  144.6503  150.8002 LP  0  0  0  0  0  0  0  0  0  0  0  0  # atno 17343 bound_to 10162
  157.0733  130.5873  149.5406 LP  0  0  0  0  0  0  0  0  0  0  0  0  # atno 17370 bound_to 10713
  156.0024  130.5105  150.7710 LP  0  0  0  0  0  0  0  0  0  0  0  0  # atno 17371 bound_to 10713
  139.8758  134.9249  156.3362 LP  0  0  0  0  0  0  0  0  0  0  0  0  # atno 17394 bound_to 11000
  140.9591  133.7400  156.0376 LP  0  0  0  0  0  0  0  0  0  0  0  0  # atno 17395 bound_to 11000

$$$$
