AV-unprocessed.smi:1705|AV-procd|sdf|6885|dock6
  -GOLD-   22720 8 93D 1   1.00000     0.00000
 Structure written by MMmdl.
 38 39  0  0  0  0  0  0  0  0  1 V2000
  151.8460  140.1613  159.2118 C   0  0  0  0  0  0  0  0  0  0  0  0
  151.7398  141.4915  158.4501 C   0  0  1  0  0  0  0  0  0  0  0  0
  150.3461  141.7675  158.1349 N   0  0  0  0  0  0  0  0  0  0  0  0
  149.6688  141.4015  156.9757 C   0  0  0  0  0  0  0  0  0  0  0  0
  150.2804  140.7107  155.9725 C   0  0  0  0  0  0  0  0  0  0  0  0
  151.6368  140.2645  156.0304 C   0  0  0  0  0  0  0  0  0  0  0  0
  152.7258  139.8726  156.0723 N   0  0  0  0  0  0  0  0  0  0  0  0
  149.5750  140.3351  154.7489 C   0  0  0  0  0  0  0  0  0  0  0  0
  150.0958  139.7156  153.8182 O   0  0  0  0  0  0  0  0  0  0  0  0
  148.2265  140.7410  154.6948 N   0  0  0  0  0  0  0  0  0  0  0  0
  147.5001  140.3985  153.4879 C   0  0  0  0  0  0  0  0  0  0  0  0
  147.5704  141.4592  155.7159 C   0  0  0  0  0  0  0  0  0  0  0  0
  146.3914  141.8102  155.6083 O   0  0  0  0  0  0  0  0  0  0  0  0
  148.3236  141.7692  156.8752 N   0  0  0  0  0  0  0  0  0  0  0  0
  147.5970  142.5145  157.8838 C   0  0  0  0  0  0  0  0  0  0  0  0
  152.3277  142.6697  159.2483 C   0  0  1  0  0  0  0  0  0  0  0  0
  152.0741  144.0488  158.6409 C   0  0  0  0  0  0  0  0  0  0  0  0
  152.1924  144.9816  159.8342 C   0  0  0  0  0  0  0  0  0  0  0  0
  151.9759  144.0657  161.0423 C   0  0  0  0  0  0  0  0  0  0  0  0
  151.6696  142.7877  160.5009 O   0  0  0  0  0  0  0  0  0  0  0  0
  152.8858  139.8861  159.3888 H   0  0  0  0  0  0  0  0  0  0  0  0
  151.3862  139.3464  158.6533 H   0  0  0  0  0  0  0  0  0  0  0  0
  151.3467  140.2196  160.1795 H   0  0  0  0  0  0  0  0  0  0  0  0
  152.3055  141.4063  157.5227 H   0  0  0  0  0  0  0  0  0  0  0  0
  150.0434  142.6499  158.5218 H   0  0  0  0  0  0  0  0  0  0  0  0
  146.4454  140.6586  153.5669 H   0  0  0  0  0  0  0  0  0  0  0  0
  147.5914  139.3202  153.3443 H   0  0  0  0  0  0  0  0  0  0  0  0
  147.9638  140.9499  152.6683 H   0  0  0  0  0  0  0  0  0  0  0  0
  147.3752  143.4963  157.4619 H   0  0  0  0  0  0  0  0  0  0  0  0
  148.1922  142.6216  158.7875 H   0  0  0  0  0  0  0  0  0  0  0  0
  146.6882  141.9589  158.1226 H   0  0  0  0  0  0  0  0  0  0  0  0
  153.3969  142.5273  159.4185 H   0  0  0  0  0  0  0  0  0  0  0  0
  152.7726  144.2958  157.8411 H   0  0  0  0  0  0  0  0  0  0  0  0
  151.0628  144.0999  158.2352 H   0  0  0  0  0  0  0  0  0  0  0  0
  153.1829  145.4360  159.8775 H   0  0  0  0  0  0  0  0  0  0  0  0
  151.4557  145.7842  159.7876 H   0  0  0  0  0  0  0  0  0  0  0  0
  152.8851  143.9969  161.6407 H   0  0  0  0  0  0  0  0  0  0  0  0
  151.1689  144.4121  161.6882 H   0  0  0  0  0  0  0  0  0  0  0  0
  1  2  1  0  0  0  0
  1 21  1  0  0  0  0
  1 22  1  0  0  0  0
  1 23  1  0  0  0  0
  2  3  1  0  0  0  0
  2 16  1  0  0  0  0
  2 24  1  0  0  0  0
  3  4  1  0  0  0  0
  3 25  1  0  0  0  0
  4 14  1  0  0  0  0
  4  5  2  0  0  0  0
  5  6  1  0  0  0  0
  5  8  1  0  0  0  0
  6  7  3  0  0  0  0
  8  9  2  0  0  0  0
  8 10  1  0  0  0  0
 10 11  1  0  0  0  0
 10 12  1  0  0  0  0
 11 26  1  0  0  0  0
 11 27  1  0  0  0  0
 11 28  1  0  0  0  0
 12 13  2  0  0  0  0
 12 14  1  0  0  0  0
 14 15  1  0  0  0  0
 15 29  1  0  0  0  0
 15 30  1  0  0  0  0
 15 31  1  0  0  0  0
 16 20  1  0  0  0  0
 16 17  1  0  0  0  0
 16 32  1  0  0  0  0
 17 18  1  0  0  0  0
 17 33  1  0  0  0  0
 17 34  1  0  0  0  0
 18 19  1  0  0  0  0
 18 35  1  0  0  0  0
 18 36  1  0  0  0  0
 19 20  1  0  0  0  0
 19 37  1  0  0  0  0
 19 38  1  0  0  0  0
M  END
> <s_m_source_file>
AV-unprocessed.smi

> <i_m_source_file_index>
1705

> <i_lp_mmshare_version>
43012

> <i_f3d_flags>
0

> <s_epik_input>
TzFbQ0gyXVtDSDJdW0NIMl1bQ0BIXTFbQ0BIXShbQ0gzXSlbTkhdYzJjKEMjTiljKD1PKW4oW0NIM10pYyg9TyluMltDSDNd

> <s_epik_cmdline>
J2VwaWtfcHl0aG9uJywgJy1waCcsICc3LjAnLCAnLXRuJywgJzgnLCAnLW1hJywgJzIwMCcsICctbWV0YWxfYmluZGluZycsICctaW1hZScsICc8aW5maWxlLm1hZT4nLCAnLW9tYWUnLCAnPG91dGZpbGUubWFlPic=

> <r_epik_Ionization_Penalty>
0.000446268

> <r_epik_Ionization_Penalty_Charging>
9.41922e-10

> <r_epik_Ionization_Penalty_Neutral>
0.000446267

> <r_epik_State_Penalty>
0.000275531

> <r_epik_Charging_Adjusted_Penalty>
0.000275532

> <i_epik_Tot_Q>
0

> <i_epik_Tot_abs_Q>
0

> <r_epik_Metal_State_Penalty>
-0

> <b_epik_Metal_Only>
0

> <s_lp_Force_Field>
OPLS_2005

> <r_lp_Energy>
37.8394

> <b_lp_Chiralities_Consistent>
1

> <s_lp_Variant>
AV-unprocessed.smi:1705-4

> <Gold.Version>
5.8.1

> <Gold.Id.Protein>
6NUR|6NUR_protein|mol2

> <Gold.PLP.Fitness>
41.7317

> <Gold.PLP.PLP>
-36.7940

> <Gold.PLP.part.hbond>
-2.8310

> <Gold.PLP.part.metal>
0.0000

> <Gold.PLP.part.buried>
-3.9541

> <Gold.PLP.part.nonpolar>
-32.2611

> <Gold.PLP.part.repulsive>
3.0518

> <Gold.PLP.ligand.clash>
9.0509

> <Gold.PLP.ligand.torsion>
0.4137

> <Gold.PLP.Chemscore.Hbond>
1.9120

> <Gold.PLP.Chemscore.CHOScore>
0.0000

> <Gold.PLP.Chemscore.Metal>
0.0000

> <Gold.Chemscore.Hbonds>
donor molecule, donor type, donor heavy atom, donor atom, acceptor molecule, acceptor atom, score
      P1  H  7989  7998       L1     9  0.91
      P1  H  7997  8009       L1     7  1.00

> <Gold.PLP.Chemscore.Internal.Correction>
9.0800

> <Gold.Rescore>
     Score         DG    S(hbond)    S(metal)    S(lipo)     H(rot)  DE(clash)    DE(int)     intcor
     14.71     -17.82       2.03        0.00      75.39       1.28       0.37       2.74       ----

> <Gold.Chemscore.Fitness>
14.7146

> <Gold.Chemscore.DG>
-17.8229

> <Gold.Chemscore.ZeroCoef>
-5.4800

> <Gold.Chemscore.Hbond>
2.0342

> <Gold.Chemscore.Metal>
0.0000

> <Gold.Chemscore.Lipo>
75.3865

> <Gold.Chemscore.Internal_Hbond>
0.0000

> <Gold.Chemscore.DEClash>
0.3687

> <Gold.Chemscore.DEInternal>
2.7396

> <Gold.Chemscore.Rot>
1.2780

> <Gold.Chemscore.Internal.Correction>
   9.000000E+99

> <Gold.Chemscore.Hbonds>
donor molecule, donor type, donor heavy atom, donor atom, acceptor molecule, acceptor atom, score
      P1  H  7989  7998       L1     9  0.23
      P1  H  7997  8009       L1     7  1.00

> <Gold.Chemscore.Hbond.Weighted>
-6.7944

> <Gold.Chemscore.Metal.Weighted>
-0.0000

> <Gold.Chemscore.Lipo.Weighted>
-8.8202

> <Gold.Chemscore.Internal_Hbond.Weighted>
0.0000

> <Gold.Chemscore.DEClash.Weighted>
0.3687

> <Gold.Chemscore.DEInternal.Weighted>
2.7396

> <Gold.Chemscore.Rot.Weighted>
3.2717

> <Gold.Chemscore.Internal.Correction.Weighted>
   9.000000E+99

> <Gold.Protein.RotatedTorsions>
[ 6907 6896 6895 6894 ] final -115.38 input  -60.11 | X-H torsion
[ 7974 7965 7964 7962 ] final -151.01 input  175.53 | X-H torsion
[ 8008 7997 7996 7995 ] final -158.35 input   59.86 | X-H torsion
[ 10167 10162 10161 10158 ] final -160.75 input  -65.29 | X-H torsion
[ 10718 10713 10712 10709 ] final  155.02 input   66.30 | X-H torsion
[ 10763 10752 10751 10750 ] final  -56.35 input  -60.55 | X-H torsion
[ 11005 11000 10999 10996 ] final   51.29 input  -57.11 | X-H torsion

> <Gold.Protein.ActiveResidues>
 VAL166  LYS551  ARG553  GLY616  TRP617  ASP618  TYR619  PRO620  LYS621  CYS622 
 ASP623  PHE694  ASN695  SER759  ASP760  ASP761  ALA762  ILE779  LEU786  VAL792 
 PHE793  MET794  SER795  GLU796  ALA797  LYS798  CYS799  TRP800  GLU811  SER814 

> <Gold.Protein.RotatedAtoms>
  150.7974  133.8666  159.3246 H   0  0  0  0  0  0  0  0  0  0  0  0  # atno 6907 bound_to 6896
  151.6487  135.1002  160.0166 H   0  0  0  0  0  0  0  0  0  0  0  0  # atno 6908 bound_to 6896
  152.4057  133.6846  159.6389 H   0  0  0  0  0  0  0  0  0  0  0  0  # atno 6909 bound_to 6896
  144.7875  140.4856  143.5796 H   0  0  0  0  0  0  0  0  0  0  0  0  # atno 7974 bound_to 7965
  155.7462  140.0820  157.2222 H   0  0  0  0  0  0  0  0  0  0  0  0  # atno 8008 bound_to 7997
  154.4016  140.1569  156.2728 H   0  0  0  0  0  0  0  0  0  0  0  0  # atno 8009 bound_to 7997
  155.8973  140.3412  155.6003 H   0  0  0  0  0  0  0  0  0  0  0  0  # atno 8010 bound_to 7997
  139.6516  144.0074  152.2165 H   0  0  0  0  0  0  0  0  0  0  0  0  # atno 10167 bound_to 10162
  157.2239  131.0724  151.1895 H   0  0  0  0  0  0  0  0  0  0  0  0  # atno 10718 bound_to 10713
  154.2053  135.6404  153.5099 H   0  0  0  0  0  0  0  0  0  0  0  0  # atno 10763 bound_to 10752
  153.0002  135.5461  154.6272 H   0  0  0  0  0  0  0  0  0  0  0  0  # atno 10764 bound_to 10752
  154.5695  135.2915  155.0814 H   0  0  0  0  0  0  0  0  0  0  0  0  # atno 10765 bound_to 10752
  140.0945  134.5164  155.8820 H   0  0  0  0  0  0  0  0  0  0  0  0  # atno 11005 bound_to 11000
  145.5884  139.1494  143.3196 LP  0  0  0  0  0  0  0  0  0  0  0  0  # atno 17320 bound_to 7965
  146.2112  140.6011  142.9058 LP  0  0  0  0  0  0  0  0  0  0  0  0  # atno 17321 bound_to 7965
  139.9789  144.6442  150.7919 LP  0  0  0  0  0  0  0  0  0  0  0  0  # atno 17342 bound_to 10162
  140.7540  143.3019  151.3059 LP  0  0  0  0  0  0  0  0  0  0  0  0  # atno 17343 bound_to 10162
  157.3548  130.7100  149.6463 LP  0  0  0  0  0  0  0  0  0  0  0  0  # atno 17370 bound_to 10713
  155.9680  130.4242  150.4598 LP  0  0  0  0  0  0  0  0  0  0  0  0  # atno 17371 bound_to 10713
  141.2088  133.6677  156.6394 LP  0  0  0  0  0  0  0  0  0  0  0  0  # atno 17394 bound_to 11000
  140.3306  134.7932  157.4323 LP  0  0  0  0  0  0  0  0  0  0  0  0  # atno 17395 bound_to 11000

$$$$
