AV-unprocessed.smi:3331|AV-procd|sdf|12817|dock9
  -GOLD-   2272019193D 1   1.00000     0.00000
 Structure written by MMmdl.
 47 48  0  0  0  0  0  0  0  0  2 V2000
  148.4977  141.0210  154.1491 C   0  0  0  0  0  0  0  0  0  0  0  0
  149.3155  139.9761  154.9208 C   0  0  2  0  0  0  0  0  0  0  0  0
  150.6804  140.5466  155.3697 C   0  0  0  0  0  0  0  0  0  0  0  0
  151.5913  139.4855  156.0275 C   0  0  1  0  0  0  0  0  0  0  0  0
  151.1709  139.1744  157.4753 C   0  0  0  0  0  0  0  0  0  0  0  0
  151.6552  138.2248  155.1376 C   0  0  0  0  0  0  0  0  0  0  0  0
  150.2948  137.7267  154.8857 N   0  0  0  0  0  0  0  0  0  0  0  0
  149.7493  136.5868  155.3822 C   0  0  0  0  0  0  0  0  0  0  0  0
  150.3828  135.8305  156.1211 O   0  0  0  0  0  0  0  0  0  0  0  0
  148.2983  136.2044  155.0269 C   0  0  2  0  0  0  0  0  0  0  0  0
  147.5061  135.8562  156.3009 C   0  0  0  0  0  0  0  0  0  0  0  0
  148.2854  135.0744  154.0699 N   0  3  0  0  0  0  0  0  0  0  0  0
  146.9591  134.4814  153.7947 C   0  0  0  0  0  0  0  0  0  0  0  0
  147.0768  133.2486  152.8846 C   0  0  0  0  0  0  0  0  0  0  0  0
  145.9520  133.1346  151.9729 N   0  0  0  0  0  0  0  0  0  0  0  0
  145.7865  132.2586  150.9207 C   0  0  0  0  0  0  0  0  0  0  0  0
  144.5669  132.5180  150.3644 C   0  0  0  0  0  0  0  0  0  0  0  0
  144.0539  133.5845  151.1543 C   0  0  0  0  0  0  0  0  0  0  0  0
  144.8844  133.9497  152.1179 N   0  0  0  0  0  0  0  0  0  0  0  0
  149.5191  138.6901  154.0923 C   0  0  0  0  0  0  0  0  0  0  0  0
  149.0069  141.3275  153.2349 H   0  0  0  0  0  0  0  0  0  0  0  0
  148.3313  141.9132  154.7533 H   0  0  0  0  0  0  0  0  0  0  0  0
  147.5205  140.6264  153.8691 H   0  0  0  0  0  0  0  0  0  0  0  0
  148.7457  139.7140  155.8136 H   0  0  0  0  0  0  0  0  0  0  0  0
  151.1955  140.9462  154.4948 H   0  0  0  0  0  0  0  0  0  0  0  0
  150.5359  141.3923  156.0433 H   0  0  0  0  0  0  0  0  0  0  0  0
  152.5969  139.9044  156.0796 H   0  0  0  0  0  0  0  0  0  0  0  0
  150.1707  138.7446  157.5286 H   0  0  0  0  0  0  0  0  0  0  0  0
  151.1726  140.0784  158.0846 H   0  0  0  0  0  0  0  0  0  0  0  0
  151.8603  138.4685  157.9386 H   0  0  0  0  0  0  0  0  0  0  0  0
  152.1108  138.4827  154.1801 H   0  0  0  0  0  0  0  0  0  0  0  0
  152.3291  137.4864  155.5671 H   0  0  0  0  0  0  0  0  0  0  0  0
  147.8285  137.0401  154.5113 H   0  0  0  0  0  0  0  0  0  0  0  0
  147.5445  136.6640  157.0323 H   0  0  0  0  0  0  0  0  0  0  0  0
  147.9014  134.9602  156.7813 H   0  0  0  0  0  0  0  0  0  0  0  0
  146.4539  135.6770  156.0806 H   0  0  0  0  0  0  0  0  0  0  0  0
  148.6393  135.4256  153.1907 H   0  0  0  0  0  0  0  0  0  0  0  0
  146.4902  134.1971  154.7366 H   0  0  0  0  0  0  0  0  0  0  0  0
  146.3099  135.2215  153.3243 H   0  0  0  0  0  0  0  0  0  0  0  0
  148.0037  133.2774  152.3093 H   0  0  0  0  0  0  0  0  0  0  0  0
  147.1145  132.3433  153.4916 H   0  0  0  0  0  0  0  0  0  0  0  0
  146.5406  131.5307  150.6594 H   0  0  0  0  0  0  0  0  0  0  0  0
  144.1104  132.0221  149.5204 H   0  0  0  0  0  0  0  0  0  0  0  0
  143.1091  134.0993  151.0580 H   0  0  0  0  0  0  0  0  0  0  0  0
  148.5518  138.2963  153.7772 H   0  0  0  0  0  0  0  0  0  0  0  0
  150.0562  138.9155  153.1698 H   0  0  0  0  0  0  0  0  0  0  0  0
  148.9176  134.3571  154.3956 H   0  0  0  0  0  0  0  0  0  0  0  0
  1  2  1  0  0  0  0
  1 21  1  0  0  0  0
  1 22  1  0  0  0  0
  1 23  1  0  0  0  0
  2 20  1  0  0  0  0
  2  3  1  0  0  0  0
  2 24  1  0  0  0  0
  3  4  1  0  0  0  0
  3 25  1  0  0  0  0
  3 26  1  0  0  0  0
  4  5  1  0  0  0  0
  4  6  1  0  0  0  0
  4 27  1  0  0  0  0
  5 28  1  0  0  0  0
  5 29  1  0  0  0  0
  5 30  1  0  0  0  0
  6  7  1  0  0  0  0
  6 31  1  0  0  0  0
  6 32  1  0  0  0  0
  7  8  1  0  0  0  0
  7 20  1  0  0  0  0
  8  9  2  0  0  0  0
  8 10  1  0  0  0  0
 10 11  1  0  0  0  0
 10 12  1  0  0  0  0
 10 33  1  0  0  0  0
 11 34  1  0  0  0  0
 11 35  1  0  0  0  0
 11 36  1  0  0  0  0
 12 13  1  0  0  0  0
 12 37  1  0  0  0  0
 12 47  1  0  0  0  0
 13 14  1  0  0  0  0
 13 38  1  0  0  0  0
 13 39  1  0  0  0  0
 14 15  1  0  0  0  0
 14 40  1  0  0  0  0
 14 41  1  0  0  0  0
 15 19  1  0  0  0  0
 15 16  1  0  0  0  0
 16 17  2  0  0  0  0
 16 42  1  0  0  0  0
 17 18  1  0  0  0  0
 17 43  1  0  0  0  0
 18 19  2  0  0  0  0
 18 44  1  0  0  0  0
 20 45  1  0  0  0  0
 20 46  1  0  0  0  0
M  CHG  1  12   1
M  END
> <s_m_source_file>
AV-unprocessed.smi

> <i_m_source_file_index>
3331

> <i_lp_mmshare_version>
43012

> <i_f3d_flags>
0

> <s_epik_input>
W0NIM11bQ0BASF0xW0NIMl1bQ0BASF0oW0NIM10pW0NIMl1OKFtDSDJdMSlDKD1PKVtDQEhdKFtDSDNdKVtOSF1bQ0gyXVtDSDJdbjJbY0hdW2NIXVtjSF1uMg==

> <s_epik_cmdline>
J2VwaWtfcHl0aG9uJywgJy1waCcsICc3LjAnLCAnLXRuJywgJzgnLCAnLW1hJywgJzIwMCcsICctbWV0YWxfYmluZGluZycsICctaW1hZScsICc8aW5maWxlLm1hZT4nLCAnLW9tYWUnLCAnPG91dGZpbGUubWFlPic=

> <r_lp_tautomer_probability>
1

> <r_epik_Ionization_Penalty>
0.189706

> <r_epik_Ionization_Penalty_Charging>
0.189703

> <r_epik_Ionization_Penalty_Neutral>
2.45875e-06

> <r_epik_State_Penalty>
0.179341

> <r_epik_Charging_Adjusted_Penalty>
0.369044

> <i_epik_Tot_Q>
1

> <i_epik_Tot_abs_Q>
1

> <r_epik_Metal_State_Penalty>
0.179578

> <b_epik_Metal_Only>
0

> <s_lp_Force_Field>
OPLS_2005

> <r_lp_Energy>
28.246

> <b_lp_Chiralities_Consistent>
1

> <s_lp_Variant>
AV-unprocessed.smi:3331-1

> <Gold.Version>
5.8.1

> <Gold.Id.Protein>
6NUR|6NUR_protein|mol2

> <Gold.PLP.Fitness>
42.7034

> <Gold.PLP.PLP>
-31.9502

> <Gold.PLP.part.hbond>
-1.0000

> <Gold.PLP.part.metal>
0.0000

> <Gold.PLP.part.buried>
-2.3933

> <Gold.PLP.part.nonpolar>
-28.2842

> <Gold.PLP.part.repulsive>
0.1305

> <Gold.PLP.ligand.clash>
0.0000

> <Gold.PLP.ligand.torsion>
0.6181

> <Gold.PLP.Chemscore.Hbond>
2.0000

> <Gold.PLP.Chemscore.CHOScore>
1.9765

> <Gold.PLP.Chemscore.Metal>
0.0000

> <Gold.Chemscore.Hbonds>
donor molecule, donor type, donor heavy atom, donor atom, acceptor molecule, acceptor atom, score
      L1  H    12    37       P1  7948  2.00
      L1  C    16    42       P1 10747  0.95
      L1  C    18    44       P1 10186  0.83

> <Gold.PLP.Chemscore.Internal.Correction>
0.0598

> <Gold.Rescore>
     Score         DG    S(hbond)    S(metal)    S(lipo)     H(rot)  DE(clash)    DE(int)     intcor
     12.76     -13.37       0.92        0.00      78.98       1.73       0.00       0.60       ----

> <Gold.Chemscore.Fitness>
12.7612

> <Gold.Chemscore.DG>
-13.3659

> <Gold.Chemscore.ZeroCoef>
-5.4800

> <Gold.Chemscore.Hbond>
0.9169

> <Gold.Chemscore.Metal>
0.0000

> <Gold.Chemscore.Lipo>
78.9786

> <Gold.Chemscore.Internal_Hbond>
0.0000

> <Gold.Chemscore.DEClash>
0.0015

> <Gold.Chemscore.DEInternal>
0.6032

> <Gold.Chemscore.Rot>
1.7254

> <Gold.Chemscore.Internal.Correction>
   9.000000E+99

> <Gold.Chemscore.Hbonds>
donor molecule, donor type, donor heavy atom, donor atom, acceptor molecule, acceptor atom, score
      L1  H    12    37       P1  7948  0.89

> <Gold.Chemscore.Hbond.Weighted>
-3.0625

> <Gold.Chemscore.Metal.Weighted>
-0.0000

> <Gold.Chemscore.Lipo.Weighted>
-9.2405

> <Gold.Chemscore.Internal_Hbond.Weighted>
0.0000

> <Gold.Chemscore.DEClash.Weighted>
0.0015

> <Gold.Chemscore.DEInternal.Weighted>
0.6032

> <Gold.Chemscore.Rot.Weighted>
4.4170

> <Gold.Chemscore.Internal.Correction.Weighted>
   9.000000E+99

> <Gold.Protein.RotatedTorsions>
[ 6907 6896 6895 6894 ] final  -54.99 input  -60.11 | X-H torsion
[ 7974 7965 7964 7962 ] final   56.51 input  175.53 | X-H torsion
[ 8008 7997 7996 7995 ] final  -92.62 input   59.86 | X-H torsion
[ 10167 10162 10161 10158 ] final   54.15 input  -65.29 | X-H torsion
[ 10718 10713 10712 10709 ] final -120.83 input   66.30 | X-H torsion
[ 10763 10752 10751 10750 ] final  -51.19 input  -60.55 | X-H torsion
[ 11005 11000 10999 10996 ] final -173.35 input  -57.11 | X-H torsion

> <Gold.Protein.ActiveResidues>
 VAL166  LYS551  ARG553  GLY616  TRP617  ASP618  TYR619  PRO620  LYS621  CYS622 
 ASP623  PHE694  ASN695  SER759  ASP760  ASP761  ALA762  ILE779  LEU786  VAL792 
 PHE793  MET794  SER795  GLU796  ALA797  LYS798  CYS799  TRP800  GLU811  SER814 

> <Gold.Protein.RotatedAtoms>
  150.8290  134.7534  159.6836 H   0  0  0  0  0  0  0  0  0  0  0  0  # atno 6907 bound_to 6896
  152.4397  134.5613  159.9905 H   0  0  0  0  0  0  0  0  0  0  0  0  # atno 6908 bound_to 6896
  151.5778  133.3344  159.3038 H   0  0  0  0  0  0  0  0  0  0  0  0  # atno 6909 bound_to 6896
  145.9390  139.3872  143.0375 H   0  0  0  0  0  0  0  0  0  0  0  0  # atno 7974 bound_to 7965
  154.7255  140.0507  157.0678 H   0  0  0  0  0  0  0  0  0  0  0  0  # atno 8008 bound_to 7997
  155.0371  140.3164  155.4718 H   0  0  0  0  0  0  0  0  0  0  0  0  # atno 8009 bound_to 7997
  156.2828  140.2139  156.5494 H   0  0  0  0  0  0  0  0  0  0  0  0  # atno 8010 bound_to 7997
  140.2332  144.3664  150.6407 H   0  0  0  0  0  0  0  0  0  0  0  0  # atno 10167 bound_to 10162
  156.1289  130.6380  150.9588 H   0  0  0  0  0  0  0  0  0  0  0  0  # atno 10718 bound_to 10713
  154.1225  135.6532  153.4906 H   0  0  0  0  0  0  0  0  0  0  0  0  # atno 10763 bound_to 10752
  153.0221  135.5273  154.7082 H   0  0  0  0  0  0  0  0  0  0  0  0  # atno 10764 bound_to 10752
  154.6294  135.2974  155.0204 H   0  0  0  0  0  0  0  0  0  0  0  0  # atno 10765 bound_to 10752
  140.4868  134.6023  157.4940 H   0  0  0  0  0  0  0  0  0  0  0  0  # atno 11005 bound_to 11000
  145.8325  140.9623  143.0842 LP  0  0  0  0  0  0  0  0  0  0  0  0  # atno 17320 bound_to 7965
  144.6776  140.0180  143.7484 LP  0  0  0  0  0  0  0  0  0  0  0  0  # atno 17321 bound_to 7965
  140.6169  143.2173  151.6773 LP  0  0  0  0  0  0  0  0  0  0  0  0  # atno 17342 bound_to 10162
  139.5103  144.3548  152.0618 LP  0  0  0  0  0  0  0  0  0  0  0  0  # atno 17343 bound_to 10162
  157.6468  131.0903  150.8135 LP  0  0  0  0  0  0  0  0  0  0  0  0  # atno 17370 bound_to 10713
  156.8222  130.4988  149.5341 LP  0  0  0  0  0  0  0  0  0  0  0  0  # atno 17371 bound_to 10713
  139.9793  134.7163  155.9889 LP  0  0  0  0  0  0  0  0  0  0  0  0  # atno 17394 bound_to 11000
  141.1504  133.6549  156.3996 LP  0  0  0  0  0  0  0  0  0  0  0  0  # atno 17395 bound_to 11000

$$$$
