AV-unprocessed.smi:1994|AV-procd|sdf|8073|dock1
  -GOLD-   2272010283D 1   1.00000     0.00000
 Structure written by MMmdl.
 39 41  0  0  0  0  0  0  0  0  1 V2000
  151.2923  137.2975  155.1906 C   0  0  0  0  0  0  0  0  0  0  0  0
  150.3153  138.3741  154.8386 C   0  0  0  0  0  0  0  0  0  0  0  0
  149.2257  138.1331  154.1086 N   0  0  0  0  0  0  0  0  0  0  0  0
  148.6341  139.3790  154.0269 C   0  0  0  0  0  0  0  0  0  0  0  0
  147.4451  139.7919  153.3837 C   0  0  0  0  0  0  0  0  0  0  0  0
  147.0359  141.1406  153.4367 C   0  0  0  0  0  0  0  0  0  0  0  0
  147.8075  142.0941  154.1322 C   0  0  0  0  0  0  0  0  0  0  0  0
  148.9955  141.7041  154.7799 C   0  0  0  0  0  0  0  0  0  0  0  0
  149.3994  140.3567  154.7239 C   0  0  0  0  0  0  0  0  0  0  0  0
  150.4863  139.6583  155.2395 N   0  0  0  0  0  0  0  0  0  0  0  0
  151.5680  140.2202  156.0365 C   0  0  0  0  0  0  0  0  0  0  0  0
  151.2257  140.2738  157.5394 C   0  0  1  0  0  0  0  0  0  0  0  0
  150.5031  139.1303  157.9507 O   0  0  0  0  0  0  0  0  0  0  0  0
  152.4548  140.4546  158.4453 C   0  0  0  0  0  0  0  0  0  0  0  0
  152.0720  141.0728  159.6678 O   0  0  0  0  0  0  0  0  0  0  0  0
  151.8855  142.4387  159.6828 C   0  0  0  0  0  0  0  0  0  0  0  0
  151.6435  143.2217  158.5252 C   0  0  0  0  0  0  0  0  0  0  0  0
  151.4670  144.6153  158.6305 C   0  0  0  0  0  0  0  0  0  0  0  0
  151.5286  145.2428  159.8884 C   0  0  0  0  0  0  0  0  0  0  0  0
  151.7668  144.4740  161.0424 C   0  0  0  0  0  0  0  0  0  0  0  0
  151.9439  143.0807  160.9386 C   0  0  0  0  0  0  0  0  0  0  0  0
  152.1738  142.3524  162.0574 F   0  0  0  0  0  0  0  0  0  0  0  0
  150.9259  136.3249  154.8600 H   0  0  0  0  0  0  0  0  0  0  0  0
  151.4429  137.2573  156.2693 H   0  0  0  0  0  0  0  0  0  0  0  0
  152.2504  137.4868  154.7062 H   0  0  0  0  0  0  0  0  0  0  0  0
  146.8475  139.0692  152.8479 H   0  0  0  0  0  0  0  0  0  0  0  0
  146.1255  141.4451  152.9413 H   0  0  0  0  0  0  0  0  0  0  0  0
  147.4870  143.1250  154.1676 H   0  0  0  0  0  0  0  0  0  0  0  0
  149.5897  142.4310  155.3135 H   0  0  0  0  0  0  0  0  0  0  0  0
  152.4797  139.6477  155.8662 H   0  0  0  0  0  0  0  0  0  0  0  0
  151.7705  141.2264  155.6677 H   0  0  0  0  0  0  0  0  0  0  0  0
  150.5644  141.1235  157.7131 H   0  0  0  0  0  0  0  0  0  0  0  0
  149.9525  139.3687  158.6806 H   0  0  0  0  0  0  0  0  0  0  0  0
  152.8743  139.4708  158.6610 H   0  0  0  0  0  0  0  0  0  0  0  0
  153.2223  141.0380  157.9338 H   0  0  0  0  0  0  0  0  0  0  0  0
  151.5895  142.7777  157.5430 H   0  0  0  0  0  0  0  0  0  0  0  0
  151.2844  145.2036  157.7433 H   0  0  0  0  0  0  0  0  0  0  0  0
  151.3938  146.3113  159.9680 H   0  0  0  0  0  0  0  0  0  0  0  0
  151.8151  144.9532  162.0093 H   0  0  0  0  0  0  0  0  0  0  0  0
  1  2  1  0  0  0  0
  1 23  1  0  0  0  0
  1 24  1  0  0  0  0
  1 25  1  0  0  0  0
  2 10  1  0  0  0  0
  2  3  2  0  0  0  0
  3  4  1  0  0  0  0
  4  9  2  0  0  0  0
  4  5  1  0  0  0  0
  5  6  2  0  0  0  0
  5 26  1  0  0  0  0
  6  7  1  0  0  0  0
  6 27  1  0  0  0  0
  7  8  2  0  0  0  0
  7 28  1  0  0  0  0
  8  9  1  0  0  0  0
  8 29  1  0  0  0  0
  9 10  1  0  0  0  0
 10 11  1  0  0  0  0
 11 12  1  0  0  0  0
 11 30  1  0  0  0  0
 11 31  1  0  0  0  0
 12 13  1  0  0  0  0
 12 14  1  0  0  0  0
 12 32  1  0  0  0  0
 13 33  1  0  0  0  0
 14 15  1  0  0  0  0
 14 34  1  0  0  0  0
 14 35  1  0  0  0  0
 15 16  1  0  0  0  0
 16 21  1  0  0  0  0
 16 17  2  0  0  0  0
 17 18  1  0  0  0  0
 17 36  1  0  0  0  0
 18 19  2  0  0  0  0
 18 37  1  0  0  0  0
 19 20  1  0  0  0  0
 19 38  1  0  0  0  0
 20 21  2  0  0  0  0
 20 39  1  0  0  0  0
 21 22  1  0  0  0  0
M  END
> <s_m_source_file>
AV-unprocessed.smi

> <i_m_source_file_index>
1994

> <i_lp_mmshare_version>
43012

> <i_f3d_flags>
0

> <s_epik_input>
W2NIXTFbY0hdW2NIXVtjSF1jKGMxMiluKGMobjIpW0NIM10pW0NIMl1bQ0BIXShbT0hdKVtDSDJdT2MzW2NIXVtjSF1bY0hdW2NIXWMzRg==

> <s_epik_cmdline>
J2VwaWtfcHl0aG9uJywgJy1waCcsICc3LjAnLCAnLXRuJywgJzgnLCAnLW1hJywgJzIwMCcsICctbWV0YWxfYmluZGluZycsICctaW1hZScsICc8aW5maWxlLm1hZT4nLCAnLW9tYWUnLCAnPG91dGZpbGUubWFlPic=

> <r_lp_tautomer_probability>
1

> <r_epik_Ionization_Penalty>
0.112614

> <r_epik_Ionization_Penalty_Charging>
0

> <r_epik_Ionization_Penalty_Neutral>
0.112614

> <r_epik_State_Penalty>
0.10231

> <r_epik_Charging_Adjusted_Penalty>
0.10231

> <i_epik_Tot_Q>
0

> <i_epik_Tot_abs_Q>
0

> <r_epik_Metal_State_Penalty>
0.000111664

> <b_epik_Metal_Only>
0

> <s_lp_Force_Field>
OPLS_2005

> <r_lp_Energy>
17.3721

> <b_lp_Chiralities_Consistent>
1

> <s_lp_Variant>
AV-unprocessed.smi:1994-2

> <Gold.Version>
5.8.1

> <Gold.Id.Protein>
6NUR|6NUR_protein|mol2

> <Gold.PLP.Fitness>
51.7663

> <Gold.PLP.PLP>
-53.9346

> <Gold.PLP.part.hbond>
0.0000

> <Gold.PLP.part.metal>
0.0000

> <Gold.PLP.part.buried>
-3.9005

> <Gold.PLP.part.nonpolar>
-50.0976

> <Gold.PLP.part.repulsive>
1.1089

> <Gold.PLP.ligand.clash>
0.0000

> <Gold.PLP.ligand.torsion>
1.1548

> <Gold.PLP.Chemscore.Hbond>
0.0000

> <Gold.PLP.Chemscore.CHOScore>
0.0000

> <Gold.PLP.Chemscore.Metal>
0.0000

> <Gold.PLP.Chemscore.Internal.Correction>
0.1412

> <Gold.Rescore>
     Score         DG    S(hbond)    S(metal)    S(lipo)     H(rot)  DE(clash)    DE(int)     intcor
     14.26     -15.45       0.00        0.00     133.09       2.19       0.09       1.10       ----

> <Gold.Chemscore.Fitness>
14.2598

> <Gold.Chemscore.DG>
-15.4489

> <Gold.Chemscore.ZeroCoef>
-5.4800

> <Gold.Chemscore.Hbond>
0.0000

> <Gold.Chemscore.Metal>
0.0000

> <Gold.Chemscore.Lipo>
133.0922

> <Gold.Chemscore.Internal_Hbond>
0.0000

> <Gold.Chemscore.DEClash>
0.0884

> <Gold.Chemscore.DEInternal>
1.1008

> <Gold.Chemscore.Rot>
2.1886

> <Gold.Chemscore.Internal.Correction>
   9.000000E+99

> <Gold.Chemscore.Hbond.Weighted>
-0.0000

> <Gold.Chemscore.Metal.Weighted>
-0.0000

> <Gold.Chemscore.Lipo.Weighted>
-15.5718

> <Gold.Chemscore.Internal_Hbond.Weighted>
0.0000

> <Gold.Chemscore.DEClash.Weighted>
0.0884

> <Gold.Chemscore.DEInternal.Weighted>
1.1008

> <Gold.Chemscore.Rot.Weighted>
5.6028

> <Gold.Chemscore.Internal.Correction.Weighted>
   9.000000E+99

> <Gold.Protein.RotatedTorsions>
[ 6907 6896 6895 6894 ] final -134.04 input  -60.11 | X-H torsion
[ 7974 7965 7964 7962 ] final    4.58 input  175.53 | X-H torsion
[ 8008 7997 7996 7995 ] final  -44.20 input   59.86 | X-H torsion
[ 10167 10162 10161 10158 ] final  177.99 input  -65.29 | X-H torsion
[ 10718 10713 10712 10709 ] final -173.30 input   66.30 | X-H torsion
[ 10763 10752 10751 10750 ] final -117.06 input  -60.55 | X-H torsion
[ 11005 11000 10999 10996 ] final  -45.71 input  -57.11 | X-H torsion

> <Gold.Protein.ActiveResidues>
 VAL166  LYS551  ARG553  GLY616  TRP617  ASP618  TYR619  PRO620  LYS621  CYS622 
 ASP623  PHE694  ASN695  SER759  ASP760  ASP761  ALA762  ILE779  LEU786  VAL792 
 PHE793  MET794  SER795  GLU796  ALA797  LYS798  CYS799  TRP800  GLU811  SER814 

> <Gold.Protein.RotatedAtoms>
  150.9811  133.6244  159.2722 H   0  0  0  0  0  0  0  0  0  0  0  0  # atno 6907 bound_to 6896
  151.3498  135.0881  159.9409 H   0  0  0  0  0  0  0  0  0  0  0  0  # atno 6908 bound_to 6896
  152.5216  133.9406  159.7679 H   0  0  0  0  0  0  0  0  0  0  0  0  # atno 6909 bound_to 6896
  146.2443  140.0513  142.8375 H   0  0  0  0  0  0  0  0  0  0  0  0  # atno 7974 bound_to 7965
  154.3997  140.1428  156.3645 H   0  0  0  0  0  0  0  0  0  0  0  0  # atno 8008 bound_to 7997
  155.8150  140.3471  155.5459 H   0  0  0  0  0  0  0  0  0  0  0  0  # atno 8009 bound_to 7997
  155.8347  140.0917  157.1762 H   0  0  0  0  0  0  0  0  0  0  0  0  # atno 8010 bound_to 7997
  139.5276  144.2733  152.0609 H   0  0  0  0  0  0  0  0  0  0  0  0  # atno 10167 bound_to 10162
  156.7683  130.9439  151.3119 H   0  0  0  0  0  0  0  0  0  0  0  0  # atno 10718 bound_to 10713
  154.8542  135.4323  154.1920 H   0  0  0  0  0  0  0  0  0  0  0  0  # atno 10763 bound_to 10752
  153.2986  135.6967  153.7230 H   0  0  0  0  0  0  0  0  0  0  0  0  # atno 10764 bound_to 10752
  153.6369  135.3475  155.3034 H   0  0  0  0  0  0  0  0  0  0  0  0  # atno 10765 bound_to 10752
  141.0533  133.6735  156.3052 H   0  0  0  0  0  0  0  0  0  0  0  0  # atno 11005 bound_to 11000
  145.0981  140.9328  143.4729 LP  0  0  0  0  0  0  0  0  0  0  0  0  # atno 17320 bound_to 7965
  145.0701  139.3038  143.5836 LP  0  0  0  0  0  0  0  0  0  0  0  0  # atno 17321 bound_to 7965
  140.2191  144.4484  150.6350 LP  0  0  0  0  0  0  0  0  0  0  0  0  # atno 17342 bound_to 10162
  140.6430  143.2207  151.6248 LP  0  0  0  0  0  0  0  0  0  0  0  0  # atno 17343 bound_to 10162
  157.6703  130.9045  150.0025 LP  0  0  0  0  0  0  0  0  0  0  0  0  # atno 17370 bound_to 10713
  156.1295  130.3643  149.9755 LP  0  0  0  0  0  0  0  0  0  0  0  0  # atno 17371 bound_to 10713
  140.6013  134.5552  157.5518 LP  0  0  0  0  0  0  0  0  0  0  0  0  # atno 17394 bound_to 11000
  139.9369  134.7859  156.0780 LP  0  0  0  0  0  0  0  0  0  0  0  0  # atno 17395 bound_to 11000

$$$$
