AV-unprocessed.smi:776|AV-procd|sdf|3699|dock8
  -GOLD-   22720 1123D 1   1.00000     0.00000
 Structure written by MMmdl.
 44 45  0  0  0  0  0  0  0  0  1 V2000
  152.5615  136.5636  157.6841 C   0  0  0  0  0  0  0  0  0  0  0  0
  153.0223  138.0285  157.7216 C   0  0  0  0  0  0  0  0  0  0  0  0
  153.0130  138.6261  159.1368 C   0  0  0  0  0  0  0  0  0  0  0  0
  152.2626  138.8799  156.7505 C   0  0  0  0  0  0  0  0  0  0  0  0
  152.8545  139.4327  155.6967 N   0  0  0  0  0  0  0  0  0  0  0  0
  151.8139  140.1309  155.0677 O   0  0  0  0  0  0  0  0  0  0  0  0
  150.7078  139.8943  155.8127 C   0  0  0  0  0  0  0  0  0  0  0  0
  149.4234  140.5450  155.4224 C   0  0  0  0  0  0  0  0  0  0  0  0
  148.9346  141.5541  156.4739 C   0  0  0  0  0  0  0  0  0  0  0  0
  150.0202  142.4031  156.9511 N   0  0  0  0  0  0  0  0  0  0  0  0
  150.7229  142.2044  158.0794 C   0  0  0  0  0  0  0  0  0  0  0  0
  150.5359  141.2274  158.8044 O   0  0  0  0  0  0  0  0  0  0  0  0
  151.7184  143.1086  158.2643 N   0  0  0  0  0  0  0  0  0  0  0  0
  151.5568  144.5122  157.8412 C   0  0  0  0  0  0  0  0  0  0  0  0
  151.0165  145.3360  159.0267 C   0  0  0  0  0  0  0  0  0  0  0  0
  151.9371  145.2119  160.2553 C   0  0  0  0  0  0  0  0  0  0  0  0
  152.2747  143.7429  160.5735 C   0  0  0  0  0  0  0  0  0  0  0  0
  152.7631  143.0077  159.3080 C   0  0  1  0  0  0  0  0  0  0  0  0
  153.2619  141.5787  159.6106 C   0  0  0  0  0  0  0  0  0  0  0  0
  150.9313  139.1353  156.8823 N   0  0  0  0  0  0  0  0  0  0  0  0
  152.6486  136.1504  156.6786 H   0  0  0  0  0  0  0  0  0  0  0  0
  151.5213  136.4652  157.9959 H   0  0  0  0  0  0  0  0  0  0  0  0
  153.1658  135.9456  158.3485 H   0  0  0  0  0  0  0  0  0  0  0  0
  154.0638  138.0287  157.3961 H   0  0  0  0  0  0  0  0  0  0  0  0
  153.4233  139.6363  159.1381 H   0  0  0  0  0  0  0  0  0  0  0  0
  153.6140  138.0252  159.8199 H   0  0  0  0  0  0  0  0  0  0  0  0
  152.0016  138.6762  159.5413 H   0  0  0  0  0  0  0  0  0  0  0  0
  149.5634  141.0414  154.4616 H   0  0  0  0  0  0  0  0  0  0  0  0
  148.6764  139.7659  155.2654 H   0  0  0  0  0  0  0  0  0  0  0  0
  148.1286  142.1687  156.0694 H   0  0  0  0  0  0  0  0  0  0  0  0
  148.5207  141.0237  157.3319 H   0  0  0  0  0  0  0  0  0  0  0  0
  150.2619  143.1994  156.3796 H   0  0  0  0  0  0  0  0  0  0  0  0
  152.5188  144.9103  157.5152 H   0  0  0  0  0  0  0  0  0  0  0  0
  150.8922  144.6319  156.9851 H   0  0  0  0  0  0  0  0  0  0  0  0
  150.9156  146.3835  158.7413 H   0  0  0  0  0  0  0  0  0  0  0  0
  150.0150  144.9889  159.2850 H   0  0  0  0  0  0  0  0  0  0  0  0
  152.8633  145.7536  160.0595 H   0  0  0  0  0  0  0  0  0  0  0  0
  151.4787  145.6904  161.1211 H   0  0  0  0  0  0  0  0  0  0  0  0
  153.0365  143.7037  161.3527 H   0  0  0  0  0  0  0  0  0  0  0  0
  151.3939  143.2413  160.9762 H   0  0  0  0  0  0  0  0  0  0  0  0
  153.6383  143.5399  158.9316 H   0  0  0  0  0  0  0  0  0  0  0  0
  154.1661  141.6130  160.2187 H   0  0  0  0  0  0  0  0  0  0  0  0
  153.5075  141.0419  158.6937 H   0  0  0  0  0  0  0  0  0  0  0  0
  152.5338  140.9897  160.1676 H   0  0  0  0  0  0  0  0  0  0  0  0
  1  2  1  0  0  0  0
  1 21  1  0  0  0  0
  1 22  1  0  0  0  0
  1 23  1  0  0  0  0
  2  3  1  0  0  0  0
  2  4  1  0  0  0  0
  2 24  1  0  0  0  0
  3 25  1  0  0  0  0
  3 26  1  0  0  0  0
  3 27  1  0  0  0  0
  4 20  1  0  0  0  0
  4  5  2  0  0  0  0
  5  6  1  0  0  0  0
  6  7  1  0  0  0  0
  7  8  1  0  0  0  0
  7 20  2  0  0  0  0
  8  9  1  0  0  0  0
  8 28  1  0  0  0  0
  8 29  1  0  0  0  0
  9 10  1  0  0  0  0
  9 30  1  0  0  0  0
  9 31  1  0  0  0  0
 10 11  1  0  0  0  0
 10 32  1  0  0  0  0
 11 12  2  0  0  0  0
 11 13  1  0  0  0  0
 13 18  1  0  0  0  0
 13 14  1  0  0  0  0
 14 15  1  0  0  0  0
 14 33  1  0  0  0  0
 14 34  1  0  0  0  0
 15 16  1  0  0  0  0
 15 35  1  0  0  0  0
 15 36  1  0  0  0  0
 16 17  1  0  0  0  0
 16 37  1  0  0  0  0
 16 38  1  0  0  0  0
 17 18  1  0  0  0  0
 17 39  1  0  0  0  0
 17 40  1  0  0  0  0
 18 19  1  0  0  0  0
 18 41  1  0  0  0  0
 19 42  1  0  0  0  0
 19 43  1  0  0  0  0
 19 44  1  0  0  0  0
M  END
> <s_m_source_file>
AV-unprocessed.smi

> <i_m_source_file_index>
776

> <i_lp_mmshare_version>
43012

> <i_f3d_flags>
0

> <s_epik_input>
W0NIM11bQ0hdKFtDSDNdKWMxbm9jKG4xKVtDSDJdW0NIMl1bTkhdQyg9TylOMltDSDJdW0NIMl1bQ0gyXVtDSDJdW0NASF0yW0NIM10=

> <s_epik_cmdline>
J2VwaWtfcHl0aG9uJywgJy1waCcsICc3LjAnLCAnLXRuJywgJzgnLCAnLW1hJywgJzIwMCcsICctbWV0YWxfYmluZGluZycsICctaW1hZScsICc8aW5maWxlLm1hZT4nLCAnLW9tYWUnLCAnPG91dGZpbGUubWFlPic=

> <r_lp_tautomer_probability>
1

> <r_epik_Ionization_Penalty>
6.23032e-05

> <r_epik_Ionization_Penalty_Charging>
0

> <r_epik_Ionization_Penalty_Neutral>
6.23032e-05

> <r_epik_State_Penalty>
-0

> <r_epik_Charging_Adjusted_Penalty>
0

> <i_epik_Tot_Q>
0

> <i_epik_Tot_abs_Q>
0

> <r_epik_Metal_State_Penalty>
-0

> <b_epik_Metal_Only>
0

> <s_lp_Force_Field>
OPLS_2005

> <r_lp_Energy>
26.0958

> <b_lp_Chiralities_Consistent>
1

> <s_lp_Variant>
AV-unprocessed.smi:776-1

> <Gold.Version>
5.8.1

> <Gold.Id.Protein>
6NUR|6NUR_protein|mol2

> <Gold.PLP.Fitness>
47.0543

> <Gold.PLP.PLP>
-40.6701

> <Gold.PLP.part.hbond>
-3.0210

> <Gold.PLP.part.metal>
0.0000

> <Gold.PLP.part.buried>
-5.9953

> <Gold.PLP.part.nonpolar>
-32.1711

> <Gold.PLP.part.repulsive>
0.0640

> <Gold.PLP.ligand.clash>
0.0000

> <Gold.PLP.ligand.torsion>
0.5029

> <Gold.PLP.Chemscore.Hbond>
2.2964

> <Gold.PLP.Chemscore.CHOScore>
0.0000

> <Gold.PLP.Chemscore.Metal>
0.0000

> <Gold.Chemscore.Hbonds>
donor molecule, donor type, donor heavy atom, donor atom, acceptor molecule, acceptor atom, score
      L1  H    10    32       P1  8028  0.34
      P1  H  7989  7998       L1     6  0.90
      P1  H  7997  8008       L1     5  1.00

> <Gold.PLP.Chemscore.Internal.Correction>
0.5006

> <Gold.Rescore>
     Score         DG    S(hbond)    S(metal)    S(lipo)     H(rot)  DE(clash)    DE(int)     intcor
     17.57     -20.66       2.65        0.00      90.10       1.65       0.00       3.09       ----

> <Gold.Chemscore.Fitness>
17.5701

> <Gold.Chemscore.DG>
-20.6589

> <Gold.Chemscore.ZeroCoef>
-5.4800

> <Gold.Chemscore.Hbond>
2.6508

> <Gold.Chemscore.Metal>
0.0000

> <Gold.Chemscore.Lipo>
90.0981

> <Gold.Chemscore.Internal_Hbond>
0.0000

> <Gold.Chemscore.DEClash>
0.0000

> <Gold.Chemscore.DEInternal>
3.0888

> <Gold.Chemscore.Rot>
1.6470

> <Gold.Chemscore.Internal.Correction>
   9.000000E+99

> <Gold.Chemscore.Hbonds>
donor molecule, donor type, donor heavy atom, donor atom, acceptor molecule, acceptor atom, score
      L1  H    10    32       P1  8028  0.35
      P1  H  7989  7998       L1     6  0.86
      P1  H  7997  8008       L1     5  0.60

> <Gold.Chemscore.Hbond.Weighted>
-8.8538

> <Gold.Chemscore.Metal.Weighted>
-0.0000

> <Gold.Chemscore.Lipo.Weighted>
-10.5415

> <Gold.Chemscore.Internal_Hbond.Weighted>
0.0000

> <Gold.Chemscore.DEClash.Weighted>
0.0000

> <Gold.Chemscore.DEInternal.Weighted>
3.0888

> <Gold.Chemscore.Rot.Weighted>
4.2164

> <Gold.Chemscore.Internal.Correction.Weighted>
   9.000000E+99

> <Gold.Protein.RotatedTorsions>
[ 6907 6896 6895 6894 ] final -119.46 input  -60.11 | X-H torsion
[ 7974 7965 7964 7962 ] final  -31.53 input  175.53 | X-H torsion
[ 8008 7997 7996 7995 ] final  -39.33 input   59.86 | X-H torsion
[ 10167 10162 10161 10158 ] final -173.83 input  -65.29 | X-H torsion
[ 10718 10713 10712 10709 ] final -169.62 input   66.30 | X-H torsion
[ 10763 10752 10751 10750 ] final  -38.53 input  -60.55 | X-H torsion
[ 11005 11000 10999 10996 ] final  -60.77 input  -57.11 | X-H torsion

> <Gold.Protein.ActiveResidues>
 VAL166  LYS551  ARG553  GLY616  TRP617  ASP618  TYR619  PRO620  LYS621  CYS622 
 ASP623  PHE694  ASN695  SER759  ASP760  ASP761  ALA762  ILE779  LEU786  VAL792 
 PHE793  MET794  SER795  GLU796  ALA797  LYS798  CYS799  TRP800  GLU811  SER814 

> <Gold.Protein.RotatedAtoms>
  150.8307  133.8096  159.3099 H   0  0  0  0  0  0  0  0  0  0  0  0  # atno 6907 bound_to 6896
  151.5827  135.1056  160.0030 H   0  0  0  0  0  0  0  0  0  0  0  0  # atno 6908 bound_to 6896
  152.4387  133.7366  159.6673 H   0  0  0  0  0  0  0  0  0  0  0  0  # atno 6909 bound_to 6896
  146.1060  140.5678  142.8799 H   0  0  0  0  0  0  0  0  0  0  0  0  # atno 7974 bound_to 7965
  154.4024  140.1554  156.2846 H   0  0  0  0  0  0  0  0  0  0  0  0  # atno 8008 bound_to 7997
  155.8839  140.3442  155.5885 H   0  0  0  0  0  0  0  0  0  0  0  0  # atno 8009 bound_to 7997
  155.7636  140.0821  157.2134 H   0  0  0  0  0  0  0  0  0  0  0  0  # atno 8010 bound_to 7997
  139.5667  144.1739  152.1323 H   0  0  0  0  0  0  0  0  0  0  0  0  # atno 10167 bound_to 10162
  156.7142  130.9245  151.3092 H   0  0  0  0  0  0  0  0  0  0  0  0  # atno 10718 bound_to 10713
  153.9144  135.6789  153.4750 H   0  0  0  0  0  0  0  0  0  0  0  0  # atno 10763 bound_to 10752
  153.1061  135.4805  154.8951 H   0  0  0  0  0  0  0  0  0  0  0  0  # atno 10764 bound_to 10752
  154.7510  135.3185  154.8513 H   0  0  0  0  0  0  0  0  0  0  0  0  # atno 10765 bound_to 10752
  141.1300  133.6625  156.5274 H   0  0  0  0  0  0  0  0  0  0  0  0  # atno 11005 bound_to 11000
  144.7471  140.5097  143.6828 LP  0  0  0  0  0  0  0  0  0  0  0  0  # atno 17320 bound_to 7965
  145.5759  139.1486  143.3262 LP  0  0  0  0  0  0  0  0  0  0  0  0  # atno 17321 bound_to 7965
  140.1263  144.5328  150.6831 LP  0  0  0  0  0  0  0  0  0  0  0  0  # atno 17342 bound_to 10162
  140.6951  143.2399  151.5024 LP  0  0  0  0  0  0  0  0  0  0  0  0  # atno 17343 bound_to 10162
  157.6924  130.9247  150.0549 LP  0  0  0  0  0  0  0  0  0  0  0  0  # atno 17370 bound_to 10713
  156.1639  130.3644  149.9260 LP  0  0  0  0  0  0  0  0  0  0  0  0  # atno 17371 bound_to 10713
  140.4243  134.7159  157.4907 LP  0  0  0  0  0  0  0  0  0  0  0  0  # atno 17394 bound_to 11000
  140.0338  134.6368  155.9071 LP  0  0  0  0  0  0  0  0  0  0  0  0  # atno 17395 bound_to 11000

$$$$
