AV-unprocessed.smi:2802|AV-procd|sdf|10806|dock7
  -GOLD-   2272015243D 1   1.00000     0.00000
 Structure written by MMmdl.
 47 48  0  0  0  0  0  0  0  0  1 V2000
  145.9209  143.4141  154.0743 C   0  0  0  0  0  0  0  0  0  0  0  0
  146.9058  142.6700  154.9877 C   0  0  1  0  0  0  0  0  0  0  0  0
  146.1850  141.5931  155.8195 C   0  0  0  0  0  0  0  0  0  0  0  0
  147.1282  140.8081  156.7602 C   0  0  0  0  0  0  0  0  0  0  0  0
  147.5444  141.6785  157.9658 C   0  0  0  0  0  0  0  0  0  0  0  0
  146.3601  139.5957  157.3253 C   0  0  0  0  0  0  0  0  0  0  0  0
  148.3549  140.2772  155.9645 C   0  0  0  0  0  0  0  0  0  0  0  0
  149.0979  141.2929  155.0398 C   0  0  2  0  0  0  0  0  0  0  0  0
  150.0835  140.5843  154.0627 C   0  0  0  0  0  0  0  0  0  0  0  0
  149.4496  139.7178  153.1428 O   0  0  0  0  0  0  0  0  0  0  0  0
  149.8252  142.3350  155.7790 N   0  0  0  0  0  0  0  0  0  0  0  0
  150.7814  142.2006  156.7161 C   0  0  0  0  0  0  0  0  0  0  0  0
  151.2047  141.1206  157.1243 O   0  0  0  0  0  0  0  0  0  0  0  0
  151.3484  143.5009  157.2887 C   0  0  0  0  0  0  0  0  0  0  0  0
  152.1039  143.2280  158.5770 C   0  0  0  0  0  0  0  0  0  0  0  0
  151.7270  143.8499  159.7858 C   0  0  0  0  0  0  0  0  0  0  0  0
  152.4420  143.5415  160.9587 C   0  0  0  0  0  0  0  0  0  0  0  0
  153.5082  142.6243  160.8725 C   0  0  0  0  0  0  0  0  0  0  0  0
  153.8806  142.0259  159.7207 N   0  0  0  0  0  0  0  0  0  0  0  0
  153.1905  142.3272  158.5998 C   0  0  0  0  0  0  0  0  0  0  0  0
  148.0452  142.0293  154.1726 C   0  0  0  0  0  0  0  0  0  0  0  0
  145.4489  142.7362  153.3622 H   0  0  0  0  0  0  0  0  0  0  0  0
  146.4262  144.1952  153.5057 H   0  0  0  0  0  0  0  0  0  0  0  0
  145.1303  143.8901  154.6551 H   0  0  0  0  0  0  0  0  0  0  0  0
  147.3304  143.4145  155.6607 H   0  0  0  0  0  0  0  0  0  0  0  0
  145.3808  142.0491  156.3988 H   0  0  0  0  0  0  0  0  0  0  0  0
  145.6992  140.8967  155.1342 H   0  0  0  0  0  0  0  0  0  0  0  0
  148.2678  141.1624  158.5979 H   0  0  0  0  0  0  0  0  0  0  0  0
  146.6853  141.9262  158.5898 H   0  0  0  0  0  0  0  0  0  0  0  0
  147.9884  142.6237  157.6663 H   0  0  0  0  0  0  0  0  0  0  0  0
  146.9860  139.0086  157.9985 H   0  0  0  0  0  0  0  0  0  0  0  0
  146.0199  138.9288  156.5321 H   0  0  0  0  0  0  0  0  0  0  0  0
  145.4782  139.9076  157.8859 H   0  0  0  0  0  0  0  0  0  0  0  0
  149.0500  139.7990  156.6547 H   0  0  0  0  0  0  0  0  0  0  0  0
  148.0028  139.4685  155.3217 H   0  0  0  0  0  0  0  0  0  0  0  0
  150.6081  141.3213  153.4538 H   0  0  0  0  0  0  0  0  0  0  0  0
  150.8557  140.0374  154.6057 H   0  0  0  0  0  0  0  0  0  0  0  0
  149.7715  139.9104  152.2756 H   0  0  0  0  0  0  0  0  0  0  0  0
  149.5659  143.2821  155.5454 H   0  0  0  0  0  0  0  0  0  0  0  0
  152.0180  143.9659  156.5638 H   0  0  0  0  0  0  0  0  0  0  0  0
  150.5370  144.2072  157.4695 H   0  0  0  0  0  0  0  0  0  0  0  0
  150.8979  144.5416  159.8179 H   0  0  0  0  0  0  0  0  0  0  0  0
  152.1779  143.9942  161.9029 H   0  0  0  0  0  0  0  0  0  0  0  0
  154.0765  142.3634  161.7530 H   0  0  0  0  0  0  0  0  0  0  0  0
  153.5064  141.8248  157.6974 H   0  0  0  0  0  0  0  0  0  0  0  0
  147.6000  141.3277  153.4650 H   0  0  0  0  0  0  0  0  0  0  0  0
  148.5357  142.7914  153.5646 H   0  0  0  0  0  0  0  0  0  0  0  0
  1  2  1  0  0  0  0
  1 22  1  0  0  0  0
  1 23  1  0  0  0  0
  1 24  1  0  0  0  0
  2 21  1  0  0  0  0
  2  3  1  0  0  0  0
  2 25  1  0  0  0  0
  3  4  1  0  0  0  0
  3 26  1  0  0  0  0
  3 27  1  0  0  0  0
  4  5  1  0  0  0  0
  4  6  1  0  0  0  0
  4  7  1  0  0  0  0
  5 28  1  0  0  0  0
  5 29  1  0  0  0  0
  5 30  1  0  0  0  0
  6 31  1  0  0  0  0
  6 32  1  0  0  0  0
  6 33  1  0  0  0  0
  7  8  1  0  0  0  0
  7 34  1  0  0  0  0
  7 35  1  0  0  0  0
  8  9  1  0  0  0  0
  8 11  1  0  0  0  0
  8 21  1  0  0  0  0
  9 10  1  0  0  0  0
  9 36  1  0  0  0  0
  9 37  1  0  0  0  0
 10 38  1  0  0  0  0
 11 12  1  0  0  0  0
 11 39  1  0  0  0  0
 12 13  2  0  0  0  0
 12 14  1  0  0  0  0
 14 15  1  0  0  0  0
 14 40  1  0  0  0  0
 14 41  1  0  0  0  0
 15 20  1  0  0  0  0
 15 16  2  0  0  0  0
 16 17  1  0  0  0  0
 16 42  1  0  0  0  0
 17 18  2  0  0  0  0
 17 43  1  0  0  0  0
 18 19  1  0  0  0  0
 18 44  1  0  0  0  0
 19 20  2  0  0  0  0
 20 45  1  0  0  0  0
 21 46  1  0  0  0  0
 21 47  1  0  0  0  0
M  END
> <s_m_source_file>
AV-unprocessed.smi

> <i_m_source_file_index>
2802

> <i_lp_mmshare_version>
43012

> <i_f3d_flags>
0

> <s_epik_input>
W0NIM11DMShbQ0gzXSlbQ0gyXVtDQEBIXShbQ0gzXSlbQ0gyXVtDQF0oW0NIMl0xKShbQ0gyXVtPSF0pW05IXUMoPU8pW0NIMl1jMltjSF1bY0hdW2NIXW5bY0hdMg==

> <s_epik_cmdline>
J2VwaWtfcHl0aG9uJywgJy1waCcsICc3LjAnLCAnLXRuJywgJzgnLCAnLW1hJywgJzIwMCcsICctbWV0YWxfYmluZGluZycsICctaW1hZScsICc8aW5maWxlLm1hZT4nLCAnLW9tYWUnLCAnPG91dGZpbGUubWFlPic=

> <r_epik_Ionization_Penalty>
0.004793

> <r_epik_Ionization_Penalty_Charging>
0

> <r_epik_Ionization_Penalty_Neutral>
0.004793

> <r_epik_State_Penalty>
0.00347421

> <r_epik_Charging_Adjusted_Penalty>
0.00347421

> <i_epik_Tot_Q>
0

> <i_epik_Tot_abs_Q>
0

> <r_epik_Metal_State_Penalty>
-0

> <b_epik_Metal_Only>
0

> <s_lp_Force_Field>
OPLS_2005

> <r_lp_Energy>
17.3779

> <b_lp_Chiralities_Consistent>
1

> <s_lp_Variant>
AV-unprocessed.smi:2802-4

> <Gold.Version>
5.8.1

> <Gold.Id.Protein>
6NUR|6NUR_protein|mol2

> <Gold.PLP.Fitness>
46.9024

> <Gold.PLP.PLP>
-41.8089

> <Gold.PLP.part.hbond>
-2.0000

> <Gold.PLP.part.metal>
0.0000

> <Gold.PLP.part.buried>
-4.7369

> <Gold.PLP.part.nonpolar>
-34.7257

> <Gold.PLP.part.repulsive>
0.1306

> <Gold.PLP.ligand.clash>
0.0000

> <Gold.PLP.ligand.torsion>
0.2962

> <Gold.PLP.Chemscore.Hbond>
1.8800

> <Gold.PLP.Chemscore.CHOScore>
0.0000

> <Gold.PLP.Chemscore.Metal>
0.0000

> <Gold.Chemscore.Hbonds>
donor molecule, donor type, donor heavy atom, donor atom, acceptor molecule, acceptor atom, score
      L1  H    11    39       P1  8028  1.00

> <Gold.PLP.Chemscore.Internal.Correction>
0.0459

> <Gold.Rescore>
     Score         DG    S(hbond)    S(metal)    S(lipo)     H(rot)  DE(clash)    DE(int)     intcor
     16.70     -18.77       1.80        0.00     105.90       2.00       0.27       1.80       ----

> <Gold.Chemscore.Fitness>
16.6979

> <Gold.Chemscore.DG>
-18.7691

> <Gold.Chemscore.ZeroCoef>
-5.4800

> <Gold.Chemscore.Hbond>
1.8040

> <Gold.Chemscore.Metal>
0.0000

> <Gold.Chemscore.Lipo>
105.9014

> <Gold.Chemscore.Internal_Hbond>
0.0000

> <Gold.Chemscore.DEClash>
0.2681

> <Gold.Chemscore.DEInternal>
1.8031

> <Gold.Chemscore.Rot>
2.0026

> <Gold.Chemscore.Internal.Correction>
   9.000000E+99

> <Gold.Chemscore.Hbonds>
donor molecule, donor type, donor heavy atom, donor atom, acceptor molecule, acceptor atom, score
      L1  H    10    38       P1  7957  0.07
      L1  H    11    39       P1  8028  0.98

> <Gold.Chemscore.Hbond.Weighted>
-6.0253

> <Gold.Chemscore.Metal.Weighted>
-0.0000

> <Gold.Chemscore.Lipo.Weighted>
-12.3905

> <Gold.Chemscore.Internal_Hbond.Weighted>
0.0000

> <Gold.Chemscore.DEClash.Weighted>
0.2681

> <Gold.Chemscore.DEInternal.Weighted>
1.8031

> <Gold.Chemscore.Rot.Weighted>
5.1267

> <Gold.Chemscore.Internal.Correction.Weighted>
   9.000000E+99

> <Gold.Protein.RotatedTorsions>
[ 6907 6896 6895 6894 ] final  132.06 input  -60.11 | X-H torsion
[ 7974 7965 7964 7962 ] final  128.91 input  175.53 | X-H torsion
[ 8008 7997 7996 7995 ] final -111.39 input   59.86 | X-H torsion
[ 10167 10162 10161 10158 ] final  141.43 input  -65.29 | X-H torsion
[ 10718 10713 10712 10709 ] final  -56.09 input   66.30 | X-H torsion
[ 10763 10752 10751 10750 ] final  -73.41 input  -60.55 | X-H torsion
[ 11005 11000 10999 10996 ] final  -16.32 input  -57.11 | X-H torsion

> <Gold.Protein.ActiveResidues>
 VAL166  LYS551  ARG553  GLY616  TRP617  ASP618  TYR619  PRO620  LYS621  CYS622 
 ASP623  PHE694  ASN695  SER759  ASP760  ASP761  ALA762  ILE779  LEU786  VAL792 
 PHE793  MET794  SER795  GLU796  ALA797  LYS798  CYS799  TRP800  GLU811  SER814 

> <Gold.Protein.RotatedAtoms>
  152.3363  133.6015  159.5844 H   0  0  0  0  0  0  0  0  0  0  0  0  # atno 6907 bound_to 6896
  150.7452  133.9791  159.3579 H   0  0  0  0  0  0  0  0  0  0  0  0  # atno 6908 bound_to 6896
  151.7661  135.0799  160.0404 H   0  0  0  0  0  0  0  0  0  0  0  0  # atno 6909 bound_to 6896
  145.0343  139.4018  143.5134 H   0  0  0  0  0  0  0  0  0  0  0  0  # atno 7974 bound_to 7965
  154.9890  140.0395  157.2311 H   0  0  0  0  0  0  0  0  0  0  0  0  # atno 8008 bound_to 7997
  154.7645  140.2790  155.6164 H   0  0  0  0  0  0  0  0  0  0  0  0  # atno 8009 bound_to 7997
  156.2910  140.2622  156.2432 H   0  0  0  0  0  0  0  0  0  0  0  0  # atno 8010 bound_to 7997
  139.5021  144.6172  151.6137 H   0  0  0  0  0  0  0  0  0  0  0  0  # atno 10167 bound_to 10162
  156.1316  130.4159  150.0259 H   0  0  0  0  0  0  0  0  0  0  0  0  # atno 10718 bound_to 10713
  154.4591  135.5898  153.6243 H   0  0  0  0  0  0  0  0  0  0  0  0  # atno 10763 bound_to 10752
  152.9821  135.6039  154.3508 H   0  0  0  0  0  0  0  0  0  0  0  0  # atno 10764 bound_to 10752
  154.3378  135.2842  155.2417 H   0  0  0  0  0  0  0  0  0  0  0  0  # atno 10765 bound_to 10752
  140.8056  133.8180  155.9513 H   0  0  0  0  0  0  0  0  0  0  0  0  # atno 11005 bound_to 11000
  146.3502  139.9910  142.8685 LP  0  0  0  0  0  0  0  0  0  0  0  0  # atno 17320 bound_to 7965
  145.1729  140.9730  143.4311 LP  0  0  0  0  0  0  0  0  0  0  0  0  # atno 17321 bound_to 7965
  140.5863  143.9858  150.6297 LP  0  0  0  0  0  0  0  0  0  0  0  0  # atno 17342 bound_to 10162
  140.3024  143.3252  152.0959 LP  0  0  0  0  0  0  0  0  0  0  0  0  # atno 17343 bound_to 10162
  156.8169  130.9345  151.3642 LP  0  0  0  0  0  0  0  0  0  0  0  0  # atno 17370 bound_to 10713
  157.6493  130.8871  149.9601 LP  0  0  0  0  0  0  0  0  0  0  0  0  # atno 17371 bound_to 10713
  140.9250  134.2094  157.4902 LP  0  0  0  0  0  0  0  0  0  0  0  0  # atno 17394 bound_to 11000
  139.8718  134.9808  156.5093 LP  0  0  0  0  0  0  0  0  0  0  0  0  # atno 17395 bound_to 11000

$$$$
