AV-unprocessed.smi:869|AV-procd|sdf|4006|dock4
  -GOLD-   22720 1493D 1   1.00000     0.00000
 Structure written by MMmdl.
 47 49  0  0  0  0  0  0  0  0  2 V2000
  147.3502  141.3817  154.2495 C   0  0  0  0  0  0  0  0  0  0  0  0
  148.1692  141.5312  155.3959 O   0  0  0  0  0  0  0  0  0  0  0  0
  149.5500  141.3993  155.0988 C   0  0  0  0  0  0  0  0  0  0  0  0
  150.4086  141.7803  156.2601 C   0  0  0  0  0  0  0  0  0  0  0  0
  150.4219  142.9920  156.8844 N   0  3  0  0  0  0  0  0  0  0  0  0
  151.3477  142.9773  157.9280 C   0  0  0  0  0  0  0  0  0  0  0  0
  151.7117  143.9643  158.8387 C   0  0  0  0  0  0  0  0  0  0  0  0
  152.6985  143.6189  159.7854 C   0  0  0  0  0  0  0  0  0  0  0  0
  153.2828  142.3355  159.8023 C   0  0  0  0  0  0  0  0  0  0  0  0
  152.9052  141.3428  158.8736 C   0  0  0  0  0  0  0  0  0  0  0  0
  151.9292  141.6930  157.9413 C   0  0  0  0  0  0  0  0  0  0  0  0
  151.3194  140.9891  156.8972 N   0  0  0  0  0  0  0  0  0  0  0  0
  151.7122  139.5932  156.6477 C   0  0  0  0  0  0  0  0  0  0  0  0
  151.7825  139.2476  155.1466 C   0  0  1  0  0  0  0  0  0  0  0  0
  153.1202  139.3845  154.7087 O   0  0  0  0  0  0  0  0  0  0  0  0
  151.3193  137.8093  154.8676 C   0  0  0  0  0  0  0  0  0  0  0  0
  150.9807  137.1914  156.1022 O   0  0  0  0  0  0  0  0  0  0  0  0
  150.5475  135.8827  156.0813 C   0  0  0  0  0  0  0  0  0  0  0  0
  150.2193  135.2983  157.3219 C   0  0  0  0  0  0  0  0  0  0  0  0
  149.7730  133.9650  157.3962 C   0  0  0  0  0  0  0  0  0  0  0  0
  149.6477  133.1954  156.2228 C   0  0  0  0  0  0  0  0  0  0  0  0
  149.1747  131.7582  156.2974 C   0  0  0  0  0  0  0  0  0  0  0  0
  149.9722  133.7688  154.9777 C   0  0  0  0  0  0  0  0  0  0  0  0
  150.4182  135.1028  154.9041 C   0  0  0  0  0  0  0  0  0  0  0  0
  146.3029  141.4919  154.5305 H   0  0  0  0  0  0  0  0  0  0  0  0
  147.4760  140.3959  153.8004 H   0  0  0  0  0  0  0  0  0  0  0  0
  147.5787  142.1401  153.4997 H   0  0  0  0  0  0  0  0  0  0  0  0
  149.7739  140.3685  154.8213 H   0  0  0  0  0  0  0  0  0  0  0  0
  149.8087  142.0330  154.2494 H   0  0  0  0  0  0  0  0  0  0  0  0
  151.2655  144.9478  158.8277 H   0  0  0  0  0  0  0  0  0  0  0  0
  153.0131  144.3528  160.5132 H   0  0  0  0  0  0  0  0  0  0  0  0
  154.0359  142.1076  160.5426 H   0  0  0  0  0  0  0  0  0  0  0  0
  153.3570  140.3621  158.8954 H   0  0  0  0  0  0  0  0  0  0  0  0
  152.6818  139.4293  157.1195 H   0  0  0  0  0  0  0  0  0  0  0  0
  151.0071  138.9422  157.1657 H   0  0  0  0  0  0  0  0  0  0  0  0
  151.1574  139.9453  154.5884 H   0  0  0  0  0  0  0  0  0  0  0  0
  153.1116  139.6130  153.7915 H   0  0  0  0  0  0  0  0  0  0  0  0
  150.4821  137.7982  154.1670 H   0  0  0  0  0  0  0  0  0  0  0  0
  152.1405  137.2498  154.4164 H   0  0  0  0  0  0  0  0  0  0  0  0
  150.3119  135.8789  158.2281 H   0  0  0  0  0  0  0  0  0  0  0  0
  149.5288  133.5361  158.3571 H   0  0  0  0  0  0  0  0  0  0  0  0
  150.0278  131.0802  156.2698 H   0  0  0  0  0  0  0  0  0  0  0  0
  148.5213  131.5236  155.4566 H   0  0  0  0  0  0  0  0  0  0  0  0
  148.6198  131.5743  157.2179 H   0  0  0  0  0  0  0  0  0  0  0  0
  149.8815  133.1853  154.0731 H   0  0  0  0  0  0  0  0  0  0  0  0
  150.6571  135.5033  153.9307 H   0  0  0  0  0  0  0  0  0  0  0  0
  149.8351  143.7698  156.6108 H   0  0  0  0  0  0  0  0  0  0  0  0
  1  2  1  0  0  0  0
  1 25  1  0  0  0  0
  1 26  1  0  0  0  0
  1 27  1  0  0  0  0
  2  3  1  0  0  0  0
  3  4  1  0  0  0  0
  3 28  1  0  0  0  0
  3 29  1  0  0  0  0
  4 12  1  0  0  0  0
  4  5  2  0  0  0  0
  5  6  1  0  0  0  0
  5 47  1  0  0  0  0
  6 11  2  0  0  0  0
  6  7  1  0  0  0  0
  7  8  2  0  0  0  0
  7 30  1  0  0  0  0
  8  9  1  0  0  0  0
  8 31  1  0  0  0  0
  9 10  2  0  0  0  0
  9 32  1  0  0  0  0
 10 11  1  0  0  0  0
 10 33  1  0  0  0  0
 11 12  1  0  0  0  0
 12 13  1  0  0  0  0
 13 14  1  0  0  0  0
 13 34  1  0  0  0  0
 13 35  1  0  0  0  0
 14 15  1  0  0  0  0
 14 16  1  0  0  0  0
 14 36  1  0  0  0  0
 15 37  1  0  0  0  0
 16 17  1  0  0  0  0
 16 38  1  0  0  0  0
 16 39  1  0  0  0  0
 17 18  1  0  0  0  0
 18 24  1  0  0  0  0
 18 19  2  0  0  0  0
 19 20  1  0  0  0  0
 19 40  1  0  0  0  0
 20 21  2  0  0  0  0
 20 41  1  0  0  0  0
 21 22  1  0  0  0  0
 21 23  1  0  0  0  0
 22 42  1  0  0  0  0
 22 43  1  0  0  0  0
 22 44  1  0  0  0  0
 23 24  2  0  0  0  0
 23 45  1  0  0  0  0
 24 46  1  0  0  0  0
M  CHG  1   5   1
M  END
> <s_m_source_file>
AV-unprocessed.smi

> <i_m_source_file_index>
869

> <i_lp_mmshare_version>
43012

> <i_f3d_flags>
0

> <s_epik_input>
W2NIXTFbY0hdW2NIXVtjSF1jKGMxMiluKGMobjIpW0NIMl1PW0NIM10pW0NIMl1bQ0BIXShbT0hdKVtDSDJdT2MzW2NIXVtjSF1jKFtDSDNdKVtjSF1bY0hdMw==

> <s_epik_cmdline>
J2VwaWtfcHl0aG9uJywgJy1waCcsICc3LjAnLCAnLXRuJywgJzgnLCAnLW1hJywgJzIwMCcsICctbWV0YWxfYmluZGluZycsICctaW1hZScsICc8aW5maWxlLm1hZT4nLCAnLW9tYWUnLCAnPG91dGZpbGUubWFlPic=

> <r_lp_tautomer_probability>
1

> <r_epik_Ionization_Penalty>
1.5538

> <r_epik_Ionization_Penalty_Charging>
1.5538

> <r_epik_Ionization_Penalty_Neutral>
2.3993e-06

> <r_epik_State_Penalty>
1.64824

> <r_epik_Charging_Adjusted_Penalty>
3.20204

> <i_epik_Tot_Q>
1

> <i_epik_Tot_abs_Q>
1

> <r_epik_Metal_State_Penalty>
5.70315

> <b_epik_Metal_Only>
0

> <s_lp_Force_Field>
OPLS_2005

> <r_lp_Energy>
19.236

> <b_lp_Chiralities_Consistent>
1

> <s_lp_Variant>
AV-unprocessed.smi:869-4

> <Gold.Version>
5.8.1

> <Gold.Id.Protein>
6NUR|6NUR_protein|mol2

> <Gold.PLP.Fitness>
54.6121

> <Gold.PLP.PLP>
-48.5550

> <Gold.PLP.part.hbond>
-3.0000

> <Gold.PLP.part.metal>
0.0000

> <Gold.PLP.part.buried>
-5.3522

> <Gold.PLP.part.nonpolar>
-41.3013

> <Gold.PLP.part.repulsive>
0.3465

> <Gold.PLP.ligand.clash>
0.0000

> <Gold.PLP.ligand.torsion>
1.5621

> <Gold.PLP.Chemscore.Hbond>
3.0000

> <Gold.PLP.Chemscore.CHOScore>
0.0000

> <Gold.PLP.Chemscore.Metal>
0.0000

> <Gold.Chemscore.Hbonds>
donor molecule, donor type, donor heavy atom, donor atom, acceptor molecule, acceptor atom, score
      L1  H     5    47       P1  8028  2.00
      P1  H  7997  8010       L1    15  1.00

> <Gold.PLP.Chemscore.Internal.Correction>
0.1814

> <Gold.Rescore>
     Score         DG    S(hbond)    S(metal)    S(lipo)     H(rot)  DE(clash)    DE(int)     intcor
     19.47     -21.14       1.97        0.00     131.31       2.45       0.21       1.46       ----

> <Gold.Chemscore.Fitness>
19.4670

> <Gold.Chemscore.DG>
-21.1397

> <Gold.Chemscore.ZeroCoef>
-5.4800

> <Gold.Chemscore.Hbond>
1.9661

> <Gold.Chemscore.Metal>
0.0000

> <Gold.Chemscore.Lipo>
131.3116

> <Gold.Chemscore.Internal_Hbond>
0.0000

> <Gold.Chemscore.DEClash>
0.2107

> <Gold.Chemscore.DEInternal>
1.4620

> <Gold.Chemscore.Rot>
2.4494

> <Gold.Chemscore.Internal.Correction>
   9.000000E+99

> <Gold.Chemscore.Hbonds>
donor molecule, donor type, donor heavy atom, donor atom, acceptor molecule, acceptor atom, score
      L1  H     5    47       P1  8028  0.99
      P1  H  7997  8010       L1    15  0.84

> <Gold.Chemscore.Hbond.Weighted>
-6.5667

> <Gold.Chemscore.Metal.Weighted>
-0.0000

> <Gold.Chemscore.Lipo.Weighted>
-15.3635

> <Gold.Chemscore.Internal_Hbond.Weighted>
0.0000

> <Gold.Chemscore.DEClash.Weighted>
0.2107

> <Gold.Chemscore.DEInternal.Weighted>
1.4620

> <Gold.Chemscore.Rot.Weighted>
6.2704

> <Gold.Chemscore.Internal.Correction.Weighted>
   9.000000E+99

> <Gold.Protein.RotatedTorsions>
[ 6907 6896 6895 6894 ] final   75.07 input  -60.11 | X-H torsion
[ 7974 7965 7964 7962 ] final -108.17 input  175.53 | X-H torsion
[ 8008 7997 7996 7995 ] final  118.18 input   59.86 | X-H torsion
[ 10167 10162 10161 10158 ] final -137.56 input  -65.29 | X-H torsion
[ 10718 10713 10712 10709 ] final  153.44 input   66.30 | X-H torsion
[ 10763 10752 10751 10750 ] final  124.60 input  -60.55 | X-H torsion
[ 11005 11000 10999 10996 ] final -123.63 input  -57.11 | X-H torsion

> <Gold.Protein.ActiveResidues>
 VAL166  LYS551  ARG553  GLY616  TRP617  ASP618  TYR619  PRO620  LYS621  CYS622 
 ASP623  PHE694  ASN695  SER759  ASP760  ASP761  ALA762  ILE779  LEU786  VAL792 
 PHE793  MET794  SER795  GLU796  ALA797  LYS798  CYS799  TRP800  GLU811  SER814 

> <Gold.Protein.RotatedAtoms>
  152.5007  134.4176  159.9469 H   0  0  0  0  0  0  0  0  0  0  0  0  # atno 6907 bound_to 6896
  151.4148  133.3710  159.2756 H   0  0  0  0  0  0  0  0  0  0  0  0  # atno 6908 bound_to 6896
  150.9265  134.8704  159.7583 H   0  0  0  0  0  0  0  0  0  0  0  0  # atno 6909 bound_to 6896
  145.1962  140.9036  143.3396 H   0  0  0  0  0  0  0  0  0  0  0  0  # atno 7974 bound_to 7965
  156.2533  140.2880  156.0794 H   0  0  0  0  0  0  0  0  0  0  0  0  # atno 8008 bound_to 7997
  155.1583  140.0399  157.2854 H   0  0  0  0  0  0  0  0  0  0  0  0  # atno 8009 bound_to 7997
  154.6411  140.2522  155.7328 H   0  0  0  0  0  0  0  0  0  0  0  0  # atno 8010 bound_to 7997
  139.8565  143.7131  152.2654 H   0  0  0  0  0  0  0  0  0  0  0  0  # atno 10167 bound_to 10162
  157.2447  131.0766  151.1769 H   0  0  0  0  0  0  0  0  0  0  0  0  # atno 10718 bound_to 10713
  153.6640  135.3341  155.3135 H   0  0  0  0  0  0  0  0  0  0  0  0  # atno 10763 bound_to 10752
  154.8508  135.4370  154.1775 H   0  0  0  0  0  0  0  0  0  0  0  0  # atno 10764 bound_to 10752
  153.2749  135.7003  153.7519 H   0  0  0  0  0  0  0  0  0  0  0  0  # atno 10765 bound_to 10752
  140.9904  134.0547  157.3661 H   0  0  0  0  0  0  0  0  0  0  0  0  # atno 11005 bound_to 11000
  144.9992  139.3614  143.6176 LP  0  0  0  0  0  0  0  0  0  0  0  0  # atno 17320 bound_to 7965
  146.3426  139.9208  142.8767 LP  0  0  0  0  0  0  0  0  0  0  0  0  # atno 17321 bound_to 7965
  139.7414  144.7558  151.0646 LP  0  0  0  0  0  0  0  0  0  0  0  0  # atno 17342 bound_to 10162
  140.7781  143.4967  150.9823 LP  0  0  0  0  0  0  0  0  0  0  0  0  # atno 17343 bound_to 10162
  157.3341  130.7000  149.6342 LP  0  0  0  0  0  0  0  0  0  0  0  0  # atno 17370 bound_to 10713
  155.9668  130.4299  150.4851 LP  0  0  0  0  0  0  0  0  0  0  0  0  # atno 17371 bound_to 10713
  139.8989  135.0156  156.7173 LP  0  0  0  0  0  0  0  0  0  0  0  0  # atno 17394 bound_to 11000
  140.7049  133.9274  155.8047 LP  0  0  0  0  0  0  0  0  0  0  0  0  # atno 17395 bound_to 11000

$$$$
