AV-unprocessed.smi:142|AV-procd|sdf|1191|dock8
  -GOLD-   2262018343D 1   1.00000     0.00000
 Structure written by MMmdl.
 52 55  0  0  0  0  0  0  0  0  1 V2000
  150.2930  140.0612  155.1967 C   0  0  0  0  0  0  0  0  0  0  0  0
  151.1879  139.4237  156.2680 C   0  0  2  0  0  0  0  0  0  0  0  0
  150.5302  138.2301  156.7963 N   0  0  0  0  0  0  0  0  0  0  0  0
  150.8015  136.9694  156.4264 C   0  0  0  0  0  0  0  0  0  0  0  0
  151.6148  136.6854  155.5458 O   0  0  0  0  0  0  0  0  0  0  0  0
  150.0327  135.8712  157.1754 C   0  0  0  0  0  0  0  0  0  0  0  0
  148.6939  136.3075  157.6278 N   0  0  0  0  0  0  0  0  0  0  0  0
  147.8319  136.9213  156.6848 C   0  0  0  0  0  0  0  0  0  0  0  0
  148.1737  137.0710  155.5106 O   0  0  0  0  0  0  0  0  0  0  0  0
  146.5436  137.3645  157.2050 C   0  0  0  0  0  0  0  0  0  0  0  0
  145.6673  137.9706  156.3859 F   0  0  0  0  0  0  0  0  0  0  0  0
  146.2179  137.1799  158.5010 C   0  0  0  0  0  0  0  0  0  0  0  0
  147.0586  136.5616  159.4055 N   0  0  0  0  0  0  0  0  0  0  0  0
  146.6322  136.4476  160.8510 C   0  0  1  0  0  0  0  0  0  0  0  0
  146.6590  135.0051  161.3915 C   0  0  0  0  0  0  0  0  0  0  0  0
  147.6188  135.1000  162.5666 C   0  0  0  0  0  0  0  0  0  0  0  0
  147.5959  136.5868  162.9035 C   0  0  0  0  0  0  0  0  0  0  0  0
  147.5004  137.2095  161.6319 O   0  0  0  0  0  0  0  0  0  0  0  0
  148.3410  136.1362  158.9880 C   0  0  0  0  0  0  0  0  0  0  0  0
  149.1352  135.6374  159.7867 O   0  0  0  0  0  0  0  0  0  0  0  0
  151.5524  140.4399  157.3480 C   0  0  0  0  0  0  0  0  0  0  0  0
  152.1931  139.9972  158.5250 C   0  0  0  0  0  0  0  0  0  0  0  0
  152.5477  140.9130  159.5343 C   0  0  0  0  0  0  0  0  0  0  0  0
  152.2658  142.2848  159.3749 C   0  0  0  0  0  0  0  0  0  0  0  0
  152.6178  143.2076  160.3816 C   0  0  0  0  0  0  0  0  0  0  0  0
  152.3329  144.5768  160.2141 C   0  0  0  0  0  0  0  0  0  0  0  0
  151.6957  145.0274  159.0418 C   0  0  0  0  0  0  0  0  0  0  0  0
  151.3417  144.1101  158.0334 C   0  0  0  0  0  0  0  0  0  0  0  0
  151.6260  142.7384  158.1952 C   0  0  0  0  0  0  0  0  0  0  0  0
  151.2765  141.8176  157.1872 C   0  0  0  0  0  0  0  0  0  0  0  0
  150.7866  140.9144  154.7307 H   0  0  0  0  0  0  0  0  0  0  0  0
  149.3533  140.4138  155.6236 H   0  0  0  0  0  0  0  0  0  0  0  0
  150.0547  139.3486  154.4064 H   0  0  0  0  0  0  0  0  0  0  0  0
  152.1123  139.1073  155.7807 H   0  0  0  0  0  0  0  0  0  0  0  0
  149.8437  138.3729  157.5227 H   0  0  0  0  0  0  0  0  0  0  0  0
  149.9470  134.9931  156.5328 H   0  0  0  0  0  0  0  0  0  0  0  0
  150.6495  135.5299  158.0079 H   0  0  0  0  0  0  0  0  0  0  0  0
  145.2538  137.5330  158.8375 H   0  0  0  0  0  0  0  0  0  0  0  0
  145.6313  136.8785  160.9047 H   0  0  0  0  0  0  0  0  0  0  0  0
  145.6550  134.7417  161.7259 H   0  0  0  0  0  0  0  0  0  0  0  0
  146.9731  134.2802  160.6401 H   0  0  0  0  0  0  0  0  0  0  0  0
  147.3262  134.4709  163.4073 H   0  0  0  0  0  0  0  0  0  0  0  0
  148.6221  134.8041  162.2590 H   0  0  0  0  0  0  0  0  0  0  0  0
  146.7170  136.8373  163.4996 H   0  0  0  0  0  0  0  0  0  0  0  0
  148.4850  136.9112  163.4448 H   0  0  0  0  0  0  0  0  0  0  0  0
  152.4152  138.9484  158.6578 H   0  0  0  0  0  0  0  0  0  0  0  0
  153.0365  140.5573  160.4297 H   0  0  0  0  0  0  0  0  0  0  0  0
  153.1061  142.8710  161.2847 H   0  0  0  0  0  0  0  0  0  0  0  0
  152.6027  145.2823  160.9860 H   0  0  0  0  0  0  0  0  0  0  0  0
  151.4775  146.0777  158.9158 H   0  0  0  0  0  0  0  0  0  0  0  0
  150.8511  144.4641  157.1381 H   0  0  0  0  0  0  0  0  0  0  0  0
  150.7946  142.1753  156.2888 H   0  0  0  0  0  0  0  0  0  0  0  0
  1  2  1  0  0  0  0
  1 31  1  0  0  0  0
  1 32  1  0  0  0  0
  1 33  1  0  0  0  0
  2  3  1  0  0  0  0
  2 21  1  0  0  0  0
  2 34  1  0  0  0  0
  3  4  1  0  0  0  0
  3 35  1  0  0  0  0
  4  5  2  0  0  0  0
  4  6  1  0  0  0  0
  6  7  1  0  0  0  0
  6 36  1  0  0  0  0
  6 37  1  0  0  0  0
  7 19  1  0  0  0  0
  7  8  1  0  0  0  0
  8  9  2  0  0  0  0
  8 10  1  0  0  0  0
 10 11  1  0  0  0  0
 10 12  2  0  0  0  0
 12 13  1  0  0  0  0
 12 38  1  0  0  0  0
 13 14  1  0  0  0  0
 13 19  1  0  0  0  0
 14 18  1  0  0  0  0
 14 15  1  0  0  0  0
 14 39  1  0  0  0  0
 15 16  1  0  0  0  0
 15 40  1  0  0  0  0
 15 41  1  0  0  0  0
 16 17  1  0  0  0  0
 16 42  1  0  0  0  0
 16 43  1  0  0  0  0
 17 18  1  0  0  0  0
 17 44  1  0  0  0  0
 17 45  1  0  0  0  0
 19 20  2  0  0  0  0
 21 30  1  0  0  0  0
 21 22  2  0  0  0  0
 22 23  1  0  0  0  0
 22 46  1  0  0  0  0
 23 24  2  0  0  0  0
 23 47  1  0  0  0  0
 24 29  1  0  0  0  0
 24 25  1  0  0  0  0
 25 26  2  0  0  0  0
 25 48  1  0  0  0  0
 26 27  1  0  0  0  0
 26 49  1  0  0  0  0
 27 28  2  0  0  0  0
 27 50  1  0  0  0  0
 28 29  1  0  0  0  0
 28 51  1  0  0  0  0
 29 30  2  0  0  0  0
 30 52  1  0  0  0  0
M  END
> <s_m_source_file>
AV-unprocessed.smi

> <i_m_source_file_index>
142

> <i_lp_mmshare_version>
43012

> <i_f3d_flags>
0

> <s_epik_input>
W2NIXTFbY0hdW2NIXVtjSF1jKGMxMilbY0hdYyhbY0hdW2NIXTIpW0NASF0oW0NIM10pW05IXUMoPU8pW0NIMl1uM2MoPU8pYyhGKVtjSF1uKGMzPU8pW0NAQEhdNFtDSDJdW0NIMl1bQ0gyXU80

> <s_epik_cmdline>
J2VwaWtfcHl0aG9uJywgJy1waCcsICc3LjAnLCAnLXRuJywgJzgnLCAnLW1hJywgJzIwMCcsICctbWV0YWxfYmluZGluZycsICctaW1hZScsICc8aW5maWxlLm1hZT4nLCAnLW9tYWUnLCAnPG91dGZpbGUubWFlPic=

> <r_lp_tautomer_probability>
1

> <r_epik_Ionization_Penalty>
3.35688e-08

> <r_epik_Ionization_Penalty_Charging>
3.59856e-09

> <r_epik_Ionization_Penalty_Neutral>
2.99702e-08

> <r_epik_State_Penalty>
-0

> <r_epik_Charging_Adjusted_Penalty>
3.59856e-09

> <i_epik_Tot_Q>
0

> <i_epik_Tot_abs_Q>
0

> <r_epik_Metal_State_Penalty>
-0

> <b_epik_Metal_Only>
0

> <s_epik_Chemistry_Notes>
This compound contains an acetal/aminal-like group ( X-CH(R)-Y where X, Y are N, S, or O) that may be acid/base labile, releasing an aldehyde.

> <s_lp_Force_Field>
OPLS_2005

> <r_lp_Energy>
25.6775

> <b_lp_Chiralities_Consistent>
1

> <s_lp_Variant>
AV-unprocessed.smi:142-3

> <Gold.Version>
5.8.1

> <Gold.Id.Protein>
6NUR|6NUR_protein|mol2

> <Gold.PLP.Fitness>
59.2203

> <Gold.PLP.PLP>
-50.8721

> <Gold.PLP.part.hbond>
-4.0000

> <Gold.PLP.part.metal>
0.0000

> <Gold.PLP.part.buried>
-6.6808

> <Gold.PLP.part.nonpolar>
-41.3690

> <Gold.PLP.part.repulsive>
0.1349

> <Gold.PLP.ligand.clash>
0.0000

> <Gold.PLP.ligand.torsion>
0.9828

> <Gold.PLP.Chemscore.Hbond>
3.4112

> <Gold.PLP.Chemscore.CHOScore>
0.0000

> <Gold.PLP.Chemscore.Metal>
0.0000

> <Gold.Chemscore.Hbonds>
donor molecule, donor type, donor heavy atom, donor atom, acceptor molecule, acceptor atom, score
      P1  H  6896  6907       L1    20  1.00
      P1  H  6931  6943       L1    18  0.61
      P1  H  6934  6947       L1    18  0.80
      P1  H 10752 10763       L1     5  1.00

> <Gold.PLP.Chemscore.Internal.Correction>
0.0802

> <Gold.Rescore>
     Score         DG    S(hbond)    S(metal)    S(lipo)     H(rot)  DE(clash)    DE(int)     intcor
     22.10     -25.81       2.92        0.00     134.50       2.02       0.06       3.65       ----

> <Gold.Chemscore.Fitness>
22.1010

> <Gold.Chemscore.DG>
-25.8131

> <Gold.Chemscore.ZeroCoef>
-5.4800

> <Gold.Chemscore.Hbond>
2.9227

> <Gold.Chemscore.Metal>
0.0000

> <Gold.Chemscore.Lipo>
134.4978

> <Gold.Chemscore.Internal_Hbond>
0.0000

> <Gold.Chemscore.DEClash>
0.0588

> <Gold.Chemscore.DEInternal>
3.6533

> <Gold.Chemscore.Rot>
2.0175

> <Gold.Chemscore.Internal.Correction>
   9.000000E+99

> <Gold.Chemscore.Hbonds>
donor molecule, donor type, donor heavy atom, donor atom, acceptor molecule, acceptor atom, score
      P1  H  6896  6907       L1    20  0.97
      P1  H  6931  6943       L1    18  0.05
      P1  H  6934  6947       L1    18  0.27
      P1  H 10752 10763       L1     5  0.99

> <Gold.Chemscore.Hbond.Weighted>
-9.7617

> <Gold.Chemscore.Metal.Weighted>
-0.0000

> <Gold.Chemscore.Lipo.Weighted>
-15.7362

> <Gold.Chemscore.Internal_Hbond.Weighted>
0.0000

> <Gold.Chemscore.DEClash.Weighted>
0.0588

> <Gold.Chemscore.DEInternal.Weighted>
3.6533

> <Gold.Chemscore.Rot.Weighted>
5.1648

> <Gold.Chemscore.Internal.Correction.Weighted>
   9.000000E+99

> <Gold.Protein.RotatedTorsions>
[ 6907 6896 6895 6894 ] final  -66.55 input  -60.11 | X-H torsion
[ 7974 7965 7964 7962 ] final -175.23 input  175.53 | X-H torsion
[ 8008 7997 7996 7995 ] final -150.73 input   59.86 | X-H torsion
[ 10167 10162 10161 10158 ] final  -72.33 input  -65.29 | X-H torsion
[ 10718 10713 10712 10709 ] final -105.05 input   66.30 | X-H torsion
[ 10763 10752 10751 10750 ] final   72.57 input  -60.55 | X-H torsion
[ 11005 11000 10999 10996 ] final   84.32 input  -57.11 | X-H torsion

> <Gold.Protein.ActiveResidues>
 VAL166  LYS551  ARG553  GLY616  TRP617  ASP618  TYR619  PRO620  LYS621  CYS622 
 ASP623  PHE694  ASN695  SER759  ASP760  ASP761  ALA762  ILE779  LEU786  VAL792 
 PHE793  MET794  SER795  GLU796  ALA797  LYS798  CYS799  TRP800  GLU811  SER814 

> <Gold.Protein.RotatedAtoms>
  150.7459  134.6005  159.6033 H   0  0  0  0  0  0  0  0  0  0  0  0  # atno 6907 bound_to 6896
  152.3368  134.7185  160.0284 H   0  0  0  0  0  0  0  0  0  0  0  0  # atno 6908 bound_to 6896
  151.7650  133.3301  159.3465 H   0  0  0  0  0  0  0  0  0  0  0  0  # atno 6909 bound_to 6896
  144.7129  140.1353  143.6396 H   0  0  0  0  0  0  0  0  0  0  0  0  # atno 7974 bound_to 7965
  155.6281  140.0688  157.2657 H   0  0  0  0  0  0  0  0  0  0  0  0  # atno 8008 bound_to 7997
  154.4212  140.1772  156.1492 H   0  0  0  0  0  0  0  0  0  0  0  0  # atno 8009 bound_to 7997
  155.9955  140.3341  155.6797 H   0  0  0  0  0  0  0  0  0  0  0  0  # atno 8010 bound_to 7997
  140.5201  143.2333  151.7445 H   0  0  0  0  0  0  0  0  0  0  0  0  # atno 10167 bound_to 10162
  156.0329  130.5544  150.7483 H   0  0  0  0  0  0  0  0  0  0  0  0  # atno 10718 bound_to 10713
  153.0467  135.5095  154.7763 H   0  0  0  0  0  0  0  0  0  0  0  0  # atno 10763 bound_to 10752
  154.6658  135.2945  154.9809 H   0  0  0  0  0  0  0  0  0  0  0  0  # atno 10764 bound_to 10752
  154.0645  135.6686  153.4868 H   0  0  0  0  0  0  0  0  0  0  0  0  # atno 10765 bound_to 10752
  139.9004  134.8208  156.2429 H   0  0  0  0  0  0  0  0  0  0  0  0  # atno 11005 bound_to 11000
  145.9251  139.2570  143.1358 LP  0  0  0  0  0  0  0  0  0  0  0  0  # atno 17320 bound_to 7965
  145.9581  140.8857  143.0225 LP  0  0  0  0  0  0  0  0  0  0  0  0  # atno 17321 bound_to 7965
  139.4921  144.4267  151.9917 LP  0  0  0  0  0  0  0  0  0  0  0  0  # atno 17342 bound_to 10162
  140.3364  144.3256  150.5976 LP  0  0  0  0  0  0  0  0  0  0  0  0  # atno 17343 bound_to 10162
  157.5034  131.0920  151.0286 LP  0  0  0  0  0  0  0  0  0  0  0  0  # atno 17370 bound_to 10713
  157.0661  130.5845  149.5394 LP  0  0  0  0  0  0  0  0  0  0  0  0  # atno 17371 bound_to 10713
  141.0273  133.7008  156.1370 LP  0  0  0  0  0  0  0  0  0  0  0  0  # atno 17394 bound_to 11000
  140.7147  134.4423  157.5579 LP  0  0  0  0  0  0  0  0  0  0  0  0  # atno 17395 bound_to 11000

$$$$
