AV-unprocessed.smi:1208|AV-procd|sdf|5063|dock1
  -GOLD-   22720 4103D 1   1.00000     0.00000
 Structure written by MMmdl.
 35 36  0  0  0  0  0  0  0  0  2 V2000
  152.0618  138.0568  156.8767 C   0  0  0  0  0  0  0  0  0  0  0  0
  151.9353  137.8993  158.3991 C   0  0  2  0  0  0  0  0  0  0  0  0
  150.5198  137.8057  158.7518 N   0  0  0  0  0  0  0  0  0  0  0  0
  149.7082  136.7664  158.5009 C   0  0  0  0  0  0  0  0  0  0  0  0
  150.0784  135.7388  157.9312 O   0  0  0  0  0  0  0  0  0  0  0  0
  148.2622  136.9189  158.9981 C   0  0  0  0  0  0  0  0  0  0  0  0
  147.9713  136.1731  160.2312 N   0  0  0  0  0  0  0  0  0  0  0  0
  147.9633  137.0001  161.4347 N   0  5  0  0  0  0  0  0  0  0  0  0
  147.7134  136.4175  162.6374 C   0  0  0  0  0  0  0  0  0  0  0  0
  147.7061  137.0455  163.6935 O   0  0  0  0  0  0  0  0  0  0  0  0
  147.4404  134.9900  162.6626 C   0  0  0  0  0  0  0  0  0  0  0  0
  147.4322  134.2553  161.5330 C   0  0  0  0  0  0  0  0  0  0  0  0
  147.6985  134.8369  160.2230 C   0  0  0  0  0  0  0  0  0  0  0  0
  147.6797  134.1738  159.1855 O   0  0  0  0  0  0  0  0  0  0  0  0
  152.5906  139.0690  159.1597 C   0  0  1  0  0  0  0  0  0  0  0  0
  154.0880  139.2445  158.8928 C   0  0  0  0  0  0  0  0  0  0  0  0
  154.2869  140.7097  159.2030 C   0  0  0  0  0  0  0  0  0  0  0  0
  153.0054  141.3175  158.6432 C   0  0  0  0  0  0  0  0  0  0  0  0
  152.0041  140.3118  158.7753 O   0  0  0  0  0  0  0  0  0  0  0  0
  153.1073  138.0921  156.5699 H   0  0  0  0  0  0  0  0  0  0  0  0
  151.5823  138.9727  156.5298 H   0  0  0  0  0  0  0  0  0  0  0  0
  151.5964  137.2188  156.3563 H   0  0  0  0  0  0  0  0  0  0  0  0
  152.4549  136.9819  158.6814 H   0  0  0  0  0  0  0  0  0  0  0  0
  150.1221  138.5999  159.2315 H   0  0  0  0  0  0  0  0  0  0  0  0
  148.0687  137.9836  159.1403 H   0  0  0  0  0  0  0  0  0  0  0  0
  147.5741  136.5987  158.2135 H   0  0  0  0  0  0  0  0  0  0  0  0
  147.2371  134.5086  163.6076 H   0  0  0  0  0  0  0  0  0  0  0  0
  147.2218  133.1983  161.5986 H   0  0  0  0  0  0  0  0  0  0  0  0
  152.4366  138.9515  160.2337 H   0  0  0  0  0  0  0  0  0  0  0  0
  154.7098  138.5899  159.5044 H   0  0  0  0  0  0  0  0  0  0  0  0
  154.3174  139.0513  157.8436 H   0  0  0  0  0  0  0  0  0  0  0  0
  154.3375  140.8607  160.2821 H   0  0  0  0  0  0  0  0  0  0  0  0
  155.1887  141.1266  158.7539 H   0  0  0  0  0  0  0  0  0  0  0  0
  152.7203  142.2349  159.1584 H   0  0  0  0  0  0  0  0  0  0  0  0
  153.1250  141.5470  157.5836 H   0  0  0  0  0  0  0  0  0  0  0  0
  1  2  1  0  0  0  0
  1 20  1  0  0  0  0
  1 21  1  0  0  0  0
  1 22  1  0  0  0  0
  2  3  1  0  0  0  0
  2 15  1  0  0  0  0
  2 23  1  0  0  0  0
  3  4  1  0  0  0  0
  3 24  1  0  0  0  0
  4  5  2  0  0  0  0
  4  6  1  0  0  0  0
  6 25  1  0  0  0  0
  6 26  1  0  0  0  0
  6  7  1  0  0  0  0
  7  8  1  0  0  0  0
  7 13  1  0  0  0  0
  8  9  1  0  0  0  0
  9 10  2  0  0  0  0
  9 11  1  0  0  0  0
 11 27  1  0  0  0  0
 11 12  2  0  0  0  0
 12 28  1  0  0  0  0
 12 13  1  0  0  0  0
 13 14  2  0  0  0  0
 15 19  1  0  0  0  0
 15 16  1  0  0  0  0
 15 29  1  0  0  0  0
 16 17  1  0  0  0  0
 16 30  1  0  0  0  0
 16 31  1  0  0  0  0
 17 18  1  0  0  0  0
 17 32  1  0  0  0  0
 17 33  1  0  0  0  0
 18 19  1  0  0  0  0
 18 34  1  0  0  0  0
 18 35  1  0  0  0  0
M  CHG  1   8  -1
M  END
> <s_m_source_file>
AV-unprocessed.smi

> <i_m_source_file_index>
1208

> <i_lp_mmshare_version>
43012

> <i_f3d_flags>
0

> <s_epik_input>
TzFbQ0gyXVtDSDJdW0NIMl1bQ0BIXTFbQ0BIXShbQ0gzXSlbTkhdQyg9TylbQ0gyXW4yW25IXWMoPU8pW2NIXVtjSF1jMj1P

> <s_epik_cmdline>
J2VwaWtfcHl0aG9uJywgJy1waCcsICc3LjAnLCAnLXRuJywgJzgnLCAnLW1hJywgJzIwMCcsICctbWV0YWxfYmluZGluZycsICctaW1hZScsICc8aW5maWxlLm1hZT4nLCAnLW9tYWUnLCAnPG91dGZpbGUubWFlPic=

> <r_lp_tautomer_probability>
1

> <r_epik_Ionization_Penalty>
0.0975494

> <r_epik_Ionization_Penalty_Charging>
0.0975494

> <r_epik_Ionization_Penalty_Neutral>
2.30132e-08

> <r_epik_State_Penalty>
0.034345

> <r_epik_Charging_Adjusted_Penalty>
0.131894

> <i_epik_Tot_Q>
-1

> <i_epik_Tot_abs_Q>
1

> <r_epik_Metal_State_Penalty>
0.034345

> <b_epik_Metal_Only>
0

> <s_lp_Force_Field>
OPLS_2005

> <r_lp_Energy>
33.2444

> <b_lp_Chiralities_Consistent>
1

> <s_lp_Variant>
AV-unprocessed.smi:1208-3

> <Gold.Version>
5.8.1

> <Gold.Id.Protein>
6NUR|6NUR_protein|mol2

> <Gold.PLP.Fitness>
43.3702

> <Gold.PLP.PLP>
-31.8548

> <Gold.PLP.part.hbond>
-3.2929

> <Gold.PLP.part.metal>
0.0000

> <Gold.PLP.part.buried>
-2.4132

> <Gold.PLP.part.nonpolar>
-26.4407

> <Gold.PLP.part.repulsive>
0.2317

> <Gold.PLP.ligand.clash>
0.0000

> <Gold.PLP.ligand.torsion>
0.6454

> <Gold.PLP.Chemscore.Hbond>
4.2560

> <Gold.PLP.Chemscore.CHOScore>
0.0000

> <Gold.PLP.Chemscore.Metal>
0.0000

> <Gold.Chemscore.Hbonds>
donor molecule, donor type, donor heavy atom, donor atom, acceptor molecule, acceptor atom, score
      P1  H  6896  6908       L1     5  0.43
      P1  H  6931  6943       L1     8  2.00
      P1  H  6934  6947       L1     8  0.77

> <Gold.PLP.Chemscore.Internal.Correction>
0.0382

> <Gold.Rescore>
     Score         DG    S(hbond)    S(metal)    S(lipo)     H(rot)  DE(clash)    DE(int)     intcor
     12.61     -14.33       1.96        0.00      63.32       1.99       1.17       0.55       ----

> <Gold.Chemscore.Fitness>
12.6140

> <Gold.Chemscore.DG>
-14.3285

> <Gold.Chemscore.ZeroCoef>
-5.4800

> <Gold.Chemscore.Hbond>
1.9595

> <Gold.Chemscore.Metal>
0.0000

> <Gold.Chemscore.Lipo>
63.3192

> <Gold.Chemscore.Internal_Hbond>
0.0000

> <Gold.Chemscore.DEClash>
1.1691

> <Gold.Chemscore.DEInternal>
0.5453

> <Gold.Chemscore.Rot>
1.9940

> <Gold.Chemscore.Internal.Correction>
   9.000000E+99

> <Gold.Chemscore.Hbonds>
donor molecule, donor type, donor heavy atom, donor atom, acceptor molecule, acceptor atom, score
      P1  H  6896  6908       L1     5  0.04
      P1  H  6931  6943       L1     8  0.30
      P1  H  6934  6947       L1     8  0.28

> <Gold.Chemscore.Hbond.Weighted>
-6.5448

> <Gold.Chemscore.Metal.Weighted>
-0.0000

> <Gold.Chemscore.Lipo.Weighted>
-7.4083

> <Gold.Chemscore.Internal_Hbond.Weighted>
0.0000

> <Gold.Chemscore.DEClash.Weighted>
1.1691

> <Gold.Chemscore.DEInternal.Weighted>
0.5453

> <Gold.Chemscore.Rot.Weighted>
5.1047

> <Gold.Chemscore.Internal.Correction.Weighted>
   9.000000E+99

> <Gold.Protein.RotatedTorsions>
[ 6907 6896 6895 6894 ] final -168.22 input  -60.11 | X-H torsion
[ 7974 7965 7964 7962 ] final   14.27 input  175.53 | X-H torsion
[ 8008 7997 7996 7995 ] final   63.87 input   59.86 | X-H torsion
[ 10167 10162 10161 10158 ] final   18.79 input  -65.29 | X-H torsion
[ 10718 10713 10712 10709 ] final -108.55 input   66.30 | X-H torsion
[ 10763 10752 10751 10750 ] final  -26.07 input  -60.55 | X-H torsion
[ 11005 11000 10999 10996 ] final  -53.62 input  -57.11 | X-H torsion

> <Gold.Protein.ActiveResidues>
 VAL166  LYS551  ARG553  GLY616  TRP617  ASP618  TYR619  PRO620  LYS621  CYS622 
 ASP623  PHE694  ASN695  SER759  ASP760  ASP761  ALA762  ILE779  LEU786  VAL792 
 PHE793  MET794  SER795  GLU796  ALA797  LYS798  CYS799  TRP800  GLU811  SER814 

> <Gold.Protein.RotatedAtoms>
  151.4721  133.3566  159.2824 H   0  0  0  0  0  0  0  0  0  0  0  0  # atno 6907 bound_to 6896
  150.8954  134.8364  159.7333 H   0  0  0  0  0  0  0  0  0  0  0  0  # atno 6908 bound_to 6896
  152.4848  134.4635  159.9665 H   0  0  0  0  0  0  0  0  0  0  0  0  # atno 6909 bound_to 6896
  146.2309  139.9065  142.8531 H   0  0  0  0  0  0  0  0  0  0  0  0  # atno 7974 bound_to 7965
  155.6370  140.3496  155.4702 H   0  0  0  0  0  0  0  0  0  0  0  0  # atno 8008 bound_to 7997
  155.9957  140.1203  157.0619 H   0  0  0  0  0  0  0  0  0  0  0  0  # atno 8009 bound_to 7997
  154.4232  140.1110  156.5613 H   0  0  0  0  0  0  0  0  0  0  0  0  # atno 8010 bound_to 7997
  140.5627  143.9307  150.6654 H   0  0  0  0  0  0  0  0  0  0  0  0  # atno 10167 bound_to 10162
  156.0491  130.5718  150.7977 H   0  0  0  0  0  0  0  0  0  0  0  0  # atno 10718 bound_to 10713
  153.7100  135.6951  153.5040 H   0  0  0  0  0  0  0  0  0  0  0  0  # atno 10763 bound_to 10752
  153.2280  135.4347  155.0562 H   0  0  0  0  0  0  0  0  0  0  0  0  # atno 10764 bound_to 10752
  154.8318  135.3477  154.6637 H   0  0  0  0  0  0  0  0  0  0  0  0  # atno 10765 bound_to 10752
  141.0985  133.6621  156.4198 H   0  0  0  0  0  0  0  0  0  0  0  0  # atno 11005 bound_to 11000
  145.2271  140.9958  143.4012 LP  0  0  0  0  0  0  0  0  0  0  0  0  # atno 17320 bound_to 7965
  144.9561  139.4030  143.6378 LP  0  0  0  0  0  0  0  0  0  0  0  0  # atno 17321 bound_to 7965
  140.2762  143.3421  152.1193 LP  0  0  0  0  0  0  0  0  0  0  0  0  # atno 17342 bound_to 10162
  139.5078  144.6838  151.5939 LP  0  0  0  0  0  0  0  0  0  0  0  0  # atno 17343 bound_to 10162
  157.5399  131.0940  150.9842 LP  0  0  0  0  0  0  0  0  0  0  0  0  # atno 17370 bound_to 10713
  157.0127  130.5643  149.5322 LP  0  0  0  0  0  0  0  0  0  0  0  0  # atno 17371 bound_to 10713
  140.5081  134.6421  157.5274 LP  0  0  0  0  0  0  0  0  0  0  0  0  # atno 17394 bound_to 11000
  139.9829  134.7109  155.9827 LP  0  0  0  0  0  0  0  0  0  0  0  0  # atno 17395 bound_to 11000

$$$$
