AV-unprocessed.smi:162|AV-procd|sdf|1379|dock9
  -GOLD-   2262019103D 1   1.00000     0.00000
 Structure written by MMmdl.
 54 57  0  0  0  0  0  0  0  0  1 V2000
  151.8423  145.4896  159.8654 C   0  0  0  0  0  0  0  0  0  0  0  0
  152.0655  144.9840  158.5611 O   0  0  0  0  0  0  0  0  0  0  0  0
  151.4115  143.7462  158.3387 C   0  0  0  0  0  0  0  0  0  0  0  0
  152.3761  142.6007  158.6905 C   0  0  1  0  0  0  0  0  0  0  0  0
  152.8693  142.6333  160.1361 C   0  0  0  0  0  0  0  0  0  0  0  0
  153.3115  141.1907  160.4062 C   0  0  2  0  0  0  0  0  0  0  0  0
  154.7252  141.1051  160.2896 O   0  0  0  0  0  0  0  0  0  0  0  0
  155.2428  139.8200  160.5951 C   0  0  0  0  0  0  0  0  0  0  0  0
  152.6188  140.3616  159.3068 C   0  0  0  0  0  0  0  0  0  0  0  0
  151.7677  141.2836  158.5681 N   0  0  0  0  0  0  0  0  0  0  0  0
  151.4521  140.8792  157.3183 C   0  0  0  0  0  0  0  0  0  0  0  0
  152.3911  140.1619  156.6547 N   0  0  0  0  0  0  0  0  0  0  0  0
  152.1442  139.7196  155.4180 C   0  0  0  0  0  0  0  0  0  0  0  0
  151.0453  139.8797  154.6776 N   0  0  0  0  0  0  0  0  0  0  0  0
  150.0999  140.6040  155.3428 C   0  0  0  0  0  0  0  0  0  0  0  0
  150.2190  141.1411  156.6553 C   0  0  0  0  0  0  0  0  0  0  0  0
  149.0563  141.8231  156.9944 N   0  0  0  0  0  0  0  0  0  0  0  0
  148.2911  141.6898  155.9457 C   0  0  0  0  0  0  0  0  0  0  0  0
  148.8363  140.9655  154.9098 N   0  0  0  0  0  0  0  0  0  0  0  0
  148.2066  140.6583  153.6347 C   0  0  0  0  0  0  0  0  0  0  0  0
  147.5021  139.2795  153.6015 C   0  0  0  0  0  0  0  0  0  0  0  0
  148.4935  138.2866  153.8035 O   0  0  0  0  0  0  0  0  0  0  0  0
  146.4695  139.1741  154.7416 C   0  0  0  0  0  0  0  0  0  0  0  0
  145.6295  137.8878  154.6467 C   0  0  0  0  0  0  0  0  0  0  0  0
  145.0020  137.8090  153.3726 O   0  0  0  0  0  0  0  0  0  0  0  0
  145.9361  137.7277  152.3029 C   0  0  0  0  0  0  0  0  0  0  0  0
  146.7991  139.0012  152.2544 C   0  0  0  0  0  0  0  0  0  0  0  0
  153.2433  142.6545  158.0319 H   0  0  0  0  0  0  0  0  0  0  0  0
  152.9895  140.8898  161.4048 H   0  0  0  0  0  0  0  0  0  0  0  0
  152.3569  146.4433  159.9804 H   0  0  0  0  0  0  0  0  0  0  0  0
  152.2269  144.8064  160.6236 H   0  0  0  0  0  0  0  0  0  0  0  0
  150.7799  145.6557  160.0491 H   0  0  0  0  0  0  0  0  0  0  0  0
  150.5054  143.6797  158.9433 H   0  0  0  0  0  0  0  0  0  0  0  0
  151.1116  143.6820  157.2915 H   0  0  0  0  0  0  0  0  0  0  0  0
  153.6618  143.3648  160.2975 H   0  0  0  0  0  0  0  0  0  0  0  0
  152.0441  142.8880  160.8030 H   0  0  0  0  0  0  0  0  0  0  0  0
  156.3276  139.8310  160.4912 H   0  0  0  0  0  0  0  0  0  0  0  0
  154.8509  139.0561  159.9229 H   0  0  0  0  0  0  0  0  0  0  0  0
  155.0080  139.5354  161.6214 H   0  0  0  0  0  0  0  0  0  0  0  0
  153.3518  139.8910  158.6503 H   0  0  0  0  0  0  0  0  0  0  0  0
  152.0113  139.5687  159.7442 H   0  0  0  0  0  0  0  0  0  0  0  0
  152.9403  139.1543  154.9564 H   0  0  0  0  0  0  0  0  0  0  0  0
  147.2982  142.1133  155.9005 H   0  0  0  0  0  0  0  0  0  0  0  0
  147.4967  141.4539  153.4038 H   0  0  0  0  0  0  0  0  0  0  0  0
  148.9734  140.7042  152.8600 H   0  0  0  0  0  0  0  0  0  0  0  0
  148.6340  137.8321  152.9869 H   0  0  0  0  0  0  0  0  0  0  0  0
  146.9636  139.2282  155.7126 H   0  0  0  0  0  0  0  0  0  0  0  0
  145.7936  140.0292  154.6960 H   0  0  0  0  0  0  0  0  0  0  0  0
  146.2430  137.0023  154.8191 H   0  0  0  0  0  0  0  0  0  0  0  0
  144.8579  137.8904  155.4168 H   0  0  0  0  0  0  0  0  0  0  0  0
  146.5558  136.8365  152.4131 H   0  0  0  0  0  0  0  0  0  0  0  0
  145.3879  137.6153  151.3673 H   0  0  0  0  0  0  0  0  0  0  0  0
  146.1552  139.8456  152.0049 H   0  0  0  0  0  0  0  0  0  0  0  0
  147.5252  138.9196  151.4447 H   0  0  0  0  0  0  0  0  0  0  0  0
  1  2  1  0  0  0  0
  1 30  1  0  0  0  0
  1 31  1  0  0  0  0
  1 32  1  0  0  0  0
  2  3  1  0  0  0  0
  3  4  1  0  0  0  0
  3 33  1  0  0  0  0
  3 34  1  0  0  0  0
  4 28  1  0  0  0  0
  4 10  1  0  0  0  0
  4  5  1  0  0  0  0
  5  6  1  0  0  0  0
  5 35  1  0  0  0  0
  5 36  1  0  0  0  0
  6 29  1  0  0  0  0
  6  7  1  0  0  0  0
  6  9  1  0  0  0  0
  7  8  1  0  0  0  0
  8 37  1  0  0  0  0
  8 38  1  0  0  0  0
  8 39  1  0  0  0  0
  9 10  1  0  0  0  0
  9 40  1  0  0  0  0
  9 41  1  0  0  0  0
 10 11  1  0  0  0  0
 11 16  1  0  0  0  0
 11 12  2  0  0  0  0
 12 13  1  0  0  0  0
 13 14  2  0  0  0  0
 13 42  1  0  0  0  0
 14 15  1  0  0  0  0
 15 19  1  0  0  0  0
 15 16  2  0  0  0  0
 16 17  1  0  0  0  0
 17 18  2  0  0  0  0
 18 19  1  0  0  0  0
 18 43  1  0  0  0  0
 19 20  1  0  0  0  0
 20 21  1  0  0  0  0
 20 44  1  0  0  0  0
 20 45  1  0  0  0  0
 21 27  1  0  0  0  0
 21 22  1  0  0  0  0
 21 23  1  0  0  0  0
 22 46  1  0  0  0  0
 23 24  1  0  0  0  0
 23 47  1  0  0  0  0
 23 48  1  0  0  0  0
 24 25  1  0  0  0  0
 24 49  1  0  0  0  0
 24 50  1  0  0  0  0
 25 26  1  0  0  0  0
 26 27  1  0  0  0  0
 26 51  1  0  0  0  0
 26 52  1  0  0  0  0
 27 53  1  0  0  0  0
 27 54  1  0  0  0  0
M  END
> <s_m_source_file>
AV-unprocessed.smi

> <i_m_source_file_index>
162

> <i_lp_mmshare_version>
43012

> <i_f3d_flags>
0

> <s_epik_input>
W0NIM11PW0NIMl1bQ0BASF0xW0NIMl1bQ0BASF0oT1tDSDNdKVtDSDJdTjFjKG5bY0hdbjIpYyhjMjMpbltjSF1uM1tDSDJdQzQoW09IXSlbQ0gyXVtDSDJdT1tDSDJdW0NIMl00

> <s_epik_cmdline>
J2VwaWtfcHl0aG9uJywgJy1waCcsICc3LjAnLCAnLXRuJywgJzgnLCAnLW1hJywgJzIwMCcsICctbWV0YWxfYmluZGluZycsICctaW1hZScsICc8aW5maWxlLm1hZT4nLCAnLW9tYWUnLCAnPG91dGZpbGUubWFlPic=

> <r_lp_tautomer_probability>
1

> <r_epik_Ionization_Penalty>
0.00660334

> <r_epik_Ionization_Penalty_Charging>
0

> <r_epik_Ionization_Penalty_Neutral>
0.00660334

> <r_epik_State_Penalty>
0.00469459

> <r_epik_Charging_Adjusted_Penalty>
0.00469459

> <i_epik_Tot_Q>
0

> <i_epik_Tot_abs_Q>
0

> <r_epik_Metal_State_Penalty>
-0

> <b_epik_Metal_Only>
0

> <s_lp_Force_Field>
OPLS_2005

> <r_lp_Energy>
43.1058

> <b_lp_Chiralities_Consistent>
1

> <s_lp_Variant>
AV-unprocessed.smi:162-4

> <Gold.Version>
5.8.1

> <Gold.Id.Protein>
6NUR|6NUR_protein|mol2

> <Gold.PLP.Fitness>
55.3727

> <Gold.PLP.PLP>
-49.0047

> <Gold.PLP.part.hbond>
-3.0000

> <Gold.PLP.part.metal>
0.0000

> <Gold.PLP.part.buried>
-2.5265

> <Gold.PLP.part.nonpolar>
-43.6754

> <Gold.PLP.part.repulsive>
0.6453

> <Gold.PLP.ligand.clash>
0.0000

> <Gold.PLP.ligand.torsion>
1.3249

> <Gold.PLP.Chemscore.Hbond>
2.9760

> <Gold.PLP.Chemscore.CHOScore>
0.0000

> <Gold.PLP.Chemscore.Metal>
0.0000

> <Gold.Chemscore.Hbonds>
donor molecule, donor type, donor heavy atom, donor atom, acceptor molecule, acceptor atom, score
      L1  H    22    46       P1  7948  1.00
      P1  H  7989  7998       L1    14  1.00
      P1  H  7997  8010       L1    12  0.98

> <Gold.PLP.Chemscore.Internal.Correction>
0.0898

> <Gold.Rescore>
     Score         DG    S(hbond)    S(metal)    S(lipo)     H(rot)  DE(clash)    DE(int)     intcor
     14.62     -16.09       1.81        0.00     101.84       2.86       0.15       1.32       ----

> <Gold.Chemscore.Fitness>
14.6195

> <Gold.Chemscore.DG>
-16.0914

> <Gold.Chemscore.ZeroCoef>
-5.4800

> <Gold.Chemscore.Hbond>
1.8050

> <Gold.Chemscore.Metal>
0.0000

> <Gold.Chemscore.Lipo>
101.8378

> <Gold.Chemscore.Internal_Hbond>
0.0000

> <Gold.Chemscore.DEClash>
0.1520

> <Gold.Chemscore.DEInternal>
1.3198

> <Gold.Chemscore.Rot>
2.8642

> <Gold.Chemscore.Internal.Correction>
   9.000000E+99

> <Gold.Chemscore.Hbonds>
donor molecule, donor type, donor heavy atom, donor atom, acceptor molecule, acceptor atom, score
      L1  H    22    46       P1  7948  0.97
      P1  H  7989  7998       L1    14  0.14
      P1  H  7997  8010       L1    12  0.23

> <Gold.Chemscore.Hbond.Weighted>
-6.0287

> <Gold.Chemscore.Metal.Weighted>
-0.0000

> <Gold.Chemscore.Lipo.Weighted>
-11.9150

> <Gold.Chemscore.Internal_Hbond.Weighted>
0.0000

> <Gold.Chemscore.DEClash.Weighted>
0.1520

> <Gold.Chemscore.DEInternal.Weighted>
1.3198

> <Gold.Chemscore.Rot.Weighted>
7.3324

> <Gold.Chemscore.Internal.Correction.Weighted>
   9.000000E+99

> <Gold.Protein.RotatedTorsions>
[ 6907 6896 6895 6894 ] final -132.66 input  -60.11 | X-H torsion
[ 7974 7965 7964 7962 ] final -142.15 input  175.53 | X-H torsion
[ 8008 7997 7996 7995 ] final   57.26 input   59.86 | X-H torsion
[ 10167 10162 10161 10158 ] final   66.23 input  -65.29 | X-H torsion
[ 10718 10713 10712 10709 ] final  128.12 input   66.30 | X-H torsion
[ 10763 10752 10751 10750 ] final -116.53 input  -60.55 | X-H torsion
[ 11005 11000 10999 10996 ] final  127.78 input  -57.11 | X-H torsion

> <Gold.Protein.ActiveResidues>
 VAL166  LYS551  ARG553  GLY616  TRP617  ASP618  TYR619  PRO620  LYS621  CYS622 
 ASP623  PHE694  ASN695  SER759  ASP760  ASP761  ALA762  ILE779  LEU786  VAL792 
 PHE793  MET794  SER795  GLU796  ALA797  LYS798  CYS799  TRP800  GLU811  SER814 

> <Gold.Protein.RotatedAtoms>
  150.9649  133.6405  159.2747 H   0  0  0  0  0  0  0  0  0  0  0  0  # atno 6907 bound_to 6896
  151.3714  135.0922  159.9476 H   0  0  0  0  0  0  0  0  0  0  0  0  # atno 6908 bound_to 6896
  152.5162  133.9203  159.7585 H   0  0  0  0  0  0  0  0  0  0  0  0  # atno 6909 bound_to 6896
  144.8465  140.5993  143.5418 H   0  0  0  0  0  0  0  0  0  0  0  0  # atno 7974 bound_to 7965
  155.5308  140.3482  155.4426 H   0  0  0  0  0  0  0  0  0  0  0  0  # atno 8008 bound_to 7997
  156.0719  140.1365  156.9844 H   0  0  0  0  0  0  0  0  0  0  0  0  # atno 8009 bound_to 7997
  154.4533  140.0964  156.6657 H   0  0  0  0  0  0  0  0  0  0  0  0  # atno 8010 bound_to 7997
  140.1027  144.4890  150.7027 H   0  0  0  0  0  0  0  0  0  0  0  0  # atno 10167 bound_to 10162
  157.5273  131.1098  150.9063 H   0  0  0  0  0  0  0  0  0  0  0  0  # atno 10718 bound_to 10713
  154.8523  135.4342  154.1836 H   0  0  0  0  0  0  0  0  0  0  0  0  # atno 10763 bound_to 10752
  153.2921  135.6962  153.7289 H   0  0  0  0  0  0  0  0  0  0  0  0  # atno 10764 bound_to 10752
  153.6452  135.3461  155.3058 H   0  0  0  0  0  0  0  0  0  0  0  0  # atno 10765 bound_to 10752
  139.9525  134.9619  156.8905 H   0  0  0  0  0  0  0  0  0  0  0  0  # atno 11005 bound_to 11000
  145.4587  139.1515  143.3878 LP  0  0  0  0  0  0  0  0  0  0  0  0  # atno 17320 bound_to 7965
  146.2748  140.4716  142.8800 LP  0  0  0  0  0  0  0  0  0  0  0  0  # atno 17321 bound_to 7965
  140.6969  143.2409  151.4975 LP  0  0  0  0  0  0  0  0  0  0  0  0  # atno 17342 bound_to 10162
  139.5662  144.2036  152.1769 LP  0  0  0  0  0  0  0  0  0  0  0  0  # atno 17343 bound_to 10162
  156.9655  130.5471  149.5288 LP  0  0  0  0  0  0  0  0  0  0  0  0  # atno 17370 bound_to 10713
  156.0396  130.5480  150.8739 LP  0  0  0  0  0  0  0  0  0  0  0  0  # atno 17371 bound_to 10713
  140.5685  134.0466  155.7422 LP  0  0  0  0  0  0  0  0  0  0  0  0  # atno 17394 bound_to 11000
  141.1191  133.9491  157.2764 LP  0  0  0  0  0  0  0  0  0  0  0  0  # atno 17395 bound_to 11000

$$$$
