AV-unprocessed.smi:108|AV-procd|sdf|1029|dock5
  -GOLD-   2262018 33D 1   1.00000     0.00000
 Structure written by MMmdl.
 59 62  0  0  0  0  0  0  0  0  1 V2000
  150.3013  136.0294  155.9364 O   0  0  0  0  0  0  0  0  0  0  0  0
  149.3599  136.1663  156.7209 C   0  0  0  0  0  0  0  0  0  0  0  0
  148.0218  135.4554  156.4222 C   0  0  0  0  0  0  0  0  0  0  0  0
  148.0937  134.5194  155.2785 N   0  0  0  0  0  0  0  0  0  0  0  0
  148.9826  133.4196  155.3583 C   0  0  0  0  0  0  0  0  0  0  0  0
  149.6631  133.2183  156.3654 O   0  0  0  0  0  0  0  0  0  0  0  0
  149.0437  132.5759  154.1713 C   0  0  0  0  0  0  0  0  0  0  0  0
  149.8938  131.5354  154.1377 F   0  0  0  0  0  0  0  0  0  0  0  0
  148.2733  132.8337  153.0947 C   0  0  0  0  0  0  0  0  0  0  0  0
  147.3704  133.8818  153.0461 N   0  0  0  0  0  0  0  0  0  0  0  0
  146.5959  134.2135  151.7862 C   0  0  2  0  0  0  0  0  0  0  0  0
  145.0668  134.1788  151.9556 C   0  0  0  0  0  0  0  0  0  0  0  0
  144.6978  132.8652  151.2945 C   0  0  0  0  0  0  0  0  0  0  0  0
  145.7616  132.7608  150.2087 C   0  0  0  0  0  0  0  0  0  0  0  0
  146.9421  133.2654  150.8204 O   0  0  0  0  0  0  0  0  0  0  0  0
  147.3084  134.7864  154.1307 C   0  0  0  0  0  0  0  0  0  0  0  0
  146.5907  135.7882  154.0783 O   0  0  0  0  0  0  0  0  0  0  0  0
  149.4634  136.9309  157.8368 N   0  0  0  0  0  0  0  0  0  0  0  0
  148.3386  137.0464  158.7807 C   0  0  0  0  0  0  0  0  0  0  0  0
  148.5839  136.2912  160.1052 C   0  0  0  0  0  0  0  0  0  0  0  0
  147.3192  136.0549  160.9137 C   0  0  0  0  0  0  0  0  0  0  0  0
  147.3311  135.1574  162.0032 C   0  0  0  0  0  0  0  0  0  0  0  0
  146.1654  134.9564  162.7671 C   0  0  0  0  0  0  0  0  0  0  0  0
  144.9831  135.6493  162.4429 C   0  0  0  0  0  0  0  0  0  0  0  0
  144.9669  136.5431  161.3545 C   0  0  0  0  0  0  0  0  0  0  0  0
  146.1329  136.7459  160.5909 C   0  0  0  0  0  0  0  0  0  0  0  0
  150.6732  137.6904  158.1984 C   0  0  0  0  0  0  0  0  0  0  0  0
  150.7691  139.0853  157.5900 C   0  0  0  0  0  0  0  0  0  0  0  0
  150.8571  140.2455  158.3940 C   0  0  0  0  0  0  0  0  0  0  0  0
  150.9405  141.5186  157.7979 C   0  0  0  0  0  0  0  0  0  0  0  0
  150.9442  141.6424  156.3957 C   0  0  0  0  0  0  0  0  0  0  0  0
  150.8676  140.4909  155.5894 C   0  0  0  0  0  0  0  0  0  0  0  0
  150.7820  139.2178  156.1853 C   0  0  0  0  0  0  0  0  0  0  0  0
  147.6847  134.9350  157.3191 H   0  0  0  0  0  0  0  0  0  0  0  0
  147.2524  136.2066  156.2405 H   0  0  0  0  0  0  0  0  0  0  0  0
  148.3899  132.1842  152.2423 H   0  0  0  0  0  0  0  0  0  0  0  0
  146.9197  135.2121  151.4884 H   0  0  0  0  0  0  0  0  0  0  0  0
  144.7403  134.2865  152.9898 H   0  0  0  0  0  0  0  0  0  0  0  0
  144.6453  135.0072  151.3847 H   0  0  0  0  0  0  0  0  0  0  0  0
  144.7952  132.0359  151.9950 H   0  0  0  0  0  0  0  0  0  0  0  0
  143.6824  132.8571  150.8973 H   0  0  0  0  0  0  0  0  0  0  0  0
  145.9002  131.7410  149.8489 H   0  0  0  0  0  0  0  0  0  0  0  0
  145.5032  133.3923  149.3574 H   0  0  0  0  0  0  0  0  0  0  0  0
  148.1442  138.0964  159.0025 H   0  0  0  0  0  0  0  0  0  0  0  0
  147.4194  136.6868  158.3147 H   0  0  0  0  0  0  0  0  0  0  0  0
  149.0563  135.3309  159.8960 H   0  0  0  0  0  0  0  0  0  0  0  0
  149.2959  136.8428  160.7203 H   0  0  0  0  0  0  0  0  0  0  0  0
  148.2369  134.6283  162.2630 H   0  0  0  0  0  0  0  0  0  0  0  0
  146.1798  134.2723  163.6028 H   0  0  0  0  0  0  0  0  0  0  0  0
  144.0892  135.4959  163.0293 H   0  0  0  0  0  0  0  0  0  0  0  0
  144.0604  137.0752  161.1067 H   0  0  0  0  0  0  0  0  0  0  0  0
  146.1168  137.4374  159.7611 H   0  0  0  0  0  0  0  0  0  0  0  0
  150.7426  137.8036  159.2808 H   0  0  0  0  0  0  0  0  0  0  0  0
  151.5633  137.1179  157.9369 H   0  0  0  0  0  0  0  0  0  0  0  0
  150.8595  140.1731  159.4714 H   0  0  0  0  0  0  0  0  0  0  0  0
  151.0018  142.4010  158.4177 H   0  0  0  0  0  0  0  0  0  0  0  0
  151.0078  142.6193  155.9393 H   0  0  0  0  0  0  0  0  0  0  0  0
  150.8739  140.5839  154.5135 H   0  0  0  0  0  0  0  0  0  0  0  0
  150.7231  138.3399  155.5586 H   0  0  0  0  0  0  0  0  0  0  0  0
  1  2  2  0  0  0  0
  2  3  1  0  0  0  0
  2 18  1  0  0  0  0
  3  4  1  0  0  0  0
  3 34  1  0  0  0  0
  3 35  1  0  0  0  0
  4 16  1  0  0  0  0
  4  5  1  0  0  0  0
  5  6  2  0  0  0  0
  5  7  1  0  0  0  0
  7  8  1  0  0  0  0
  7  9  2  0  0  0  0
  9 10  1  0  0  0  0
  9 36  1  0  0  0  0
 10 11  1  0  0  0  0
 10 16  1  0  0  0  0
 11 15  1  0  0  0  0
 11 12  1  0  0  0  0
 11 37  1  0  0  0  0
 12 13  1  0  0  0  0
 12 38  1  0  0  0  0
 12 39  1  0  0  0  0
 13 14  1  0  0  0  0
 13 40  1  0  0  0  0
 13 41  1  0  0  0  0
 14 15  1  0  0  0  0
 14 42  1  0  0  0  0
 14 43  1  0  0  0  0
 16 17  2  0  0  0  0
 18 19  1  0  0  0  0
 18 27  1  0  0  0  0
 19 20  1  0  0  0  0
 19 44  1  0  0  0  0
 19 45  1  0  0  0  0
 20 21  1  0  0  0  0
 20 46  1  0  0  0  0
 20 47  1  0  0  0  0
 21 26  1  0  0  0  0
 21 22  2  0  0  0  0
 22 23  1  0  0  0  0
 22 48  1  0  0  0  0
 23 24  2  0  0  0  0
 23 49  1  0  0  0  0
 24 25  1  0  0  0  0
 24 50  1  0  0  0  0
 25 26  2  0  0  0  0
 25 51  1  0  0  0  0
 26 52  1  0  0  0  0
 27 28  1  0  0  0  0
 27 53  1  0  0  0  0
 27 54  1  0  0  0  0
 28 33  1  0  0  0  0
 28 29  2  0  0  0  0
 29 30  1  0  0  0  0
 29 55  1  0  0  0  0
 30 31  2  0  0  0  0
 30 56  1  0  0  0  0
 31 32  1  0  0  0  0
 31 57  1  0  0  0  0
 32 33  2  0  0  0  0
 32 58  1  0  0  0  0
 33 59  1  0  0  0  0
M  END
> <s_m_source_file>
AV-unprocessed.smi

> <i_m_source_file_index>
108

> <i_lp_mmshare_version>
43012

> <i_f3d_flags>
0

> <s_epik_input>
W2NIXTFbY0hdW2NIXVtjSF1bY0hdYzFbQ0gyXVtDSDJdTihbQ0gyXWMyW2NIXVtjSF1bY0hdW2NIXVtjSF0yKUMoPU8pW0NIMl1uM2MoPU8pYyhGKVtjSF1uKGMzPU8pW0NAQEhdNFtDSDJdW0NIMl1bQ0gyXU80

> <s_epik_cmdline>
J2VwaWtfcHl0aG9uJywgJy1waCcsICc3LjAnLCAnLXRuJywgJzgnLCAnLW1hJywgJzIwMCcsICctbWV0YWxfYmluZGluZycsICctaW1hZScsICc8aW5maWxlLm1hZT4nLCAnLW9tYWUnLCAnPG91dGZpbGUubWFlPic=

> <r_lp_tautomer_probability>
1

> <r_epik_Ionization_Penalty>
5.46209e-09

> <r_epik_Ionization_Penalty_Charging>
4.22697e-09

> <r_epik_Ionization_Penalty_Neutral>
1.23512e-09

> <r_epik_State_Penalty>
-0

> <r_epik_Charging_Adjusted_Penalty>
4.22697e-09

> <i_epik_Tot_Q>
0

> <i_epik_Tot_abs_Q>
0

> <r_epik_Metal_State_Penalty>
-0

> <b_epik_Metal_Only>
0

> <s_epik_Chemistry_Notes>
This compound contains an acetal/aminal-like group ( X-CH(R)-Y where X, Y are N, S, or O) that may be acid/base labile, releasing an aldehyde.

> <s_lp_Force_Field>
OPLS_2005

> <r_lp_Energy>
39.1501

> <b_lp_Chiralities_Consistent>
1

> <s_lp_Variant>
AV-unprocessed.smi:108-1

> <Gold.Version>
5.8.1

> <Gold.Id.Protein>
6NUR|6NUR_protein|mol2

> <Gold.PLP.Fitness>
50.2740

> <Gold.PLP.PLP>
-48.7111

> <Gold.PLP.part.hbond>
0.0000

> <Gold.PLP.part.metal>
0.0000

> <Gold.PLP.part.buried>
-7.0952

> <Gold.PLP.part.nonpolar>
-41.5417

> <Gold.PLP.part.repulsive>
0.4774

> <Gold.PLP.ligand.clash>
0.0000

> <Gold.PLP.ligand.torsion>
0.8329

> <Gold.PLP.Chemscore.Hbond>
0.0000

> <Gold.PLP.Chemscore.CHOScore>
1.0000

> <Gold.PLP.Chemscore.Metal>
0.0000

> <Gold.Chemscore.Hbonds>
donor molecule, donor type, donor heavy atom, donor atom, acceptor molecule, acceptor atom, score
      L1  C     9    36       P1 10747  1.00

> <Gold.PLP.Chemscore.Internal.Correction>
0.2288

> <Gold.Rescore>
     Score         DG    S(hbond)    S(metal)    S(lipo)     H(rot)  DE(clash)    DE(int)     intcor
     11.65     -13.53       0.00        0.00     118.61       2.28       0.08       1.81       ----

> <Gold.Chemscore.Fitness>
11.6471

> <Gold.Chemscore.DG>
-13.5316

> <Gold.Chemscore.ZeroCoef>
-5.4800

> <Gold.Chemscore.Hbond>
0.0000

> <Gold.Chemscore.Metal>
0.0000

> <Gold.Chemscore.Lipo>
118.6077

> <Gold.Chemscore.Internal_Hbond>
0.0000

> <Gold.Chemscore.DEClash>
0.0750

> <Gold.Chemscore.DEInternal>
1.8095

> <Gold.Chemscore.Rot>
2.2756

> <Gold.Chemscore.Internal.Correction>
   9.000000E+99

> <Gold.Chemscore.Hbond.Weighted>
-0.0000

> <Gold.Chemscore.Metal.Weighted>
-0.0000

> <Gold.Chemscore.Lipo.Weighted>
-13.8771

> <Gold.Chemscore.Internal_Hbond.Weighted>
0.0000

> <Gold.Chemscore.DEClash.Weighted>
0.0750

> <Gold.Chemscore.DEInternal.Weighted>
1.8095

> <Gold.Chemscore.Rot.Weighted>
5.8255

> <Gold.Chemscore.Internal.Correction.Weighted>
   9.000000E+99

> <Gold.Protein.RotatedTorsions>
[ 6907 6896 6895 6894 ] final  177.69 input  -60.11 | X-H torsion
[ 7974 7965 7964 7962 ] final -153.63 input  175.53 | X-H torsion
[ 8008 7997 7996 7995 ] final   41.75 input   59.86 | X-H torsion
[ 10167 10162 10161 10158 ] final -153.88 input  -65.29 | X-H torsion
[ 10718 10713 10712 10709 ] final  101.83 input   66.30 | X-H torsion
[ 10763 10752 10751 10750 ] final  -89.63 input  -60.55 | X-H torsion
[ 11005 11000 10999 10996 ] final -144.43 input  -57.11 | X-H torsion

> <Gold.Protein.ActiveResidues>
 VAL166  LYS551  ARG553  GLY616  TRP617  ASP618  TYR619  PRO620  LYS621  CYS622 
 ASP623  PHE694  ASN695  SER759  ASP760  ASP761  ALA762  ILE779  LEU786  VAL792 
 PHE793  MET794  SER795  GLU796  ALA797  LYS798  CYS799  TRP800  GLU811  SER814 

> <Gold.Protein.RotatedAtoms>
  151.6999  133.3311  159.3263 H   0  0  0  0  0  0  0  0  0  0  0  0  # atno 6907 bound_to 6896
  150.7740  134.6624  159.6356 H   0  0  0  0  0  0  0  0  0  0  0  0  # atno 6908 bound_to 6896
  152.3776  134.6643  160.0206 H   0  0  0  0  0  0  0  0  0  0  0  0  # atno 6909 bound_to 6896
  144.7731  140.4499  143.5893 H   0  0  0  0  0  0  0  0  0  0  0  0  # atno 7974 bound_to 7965
  155.2748  140.3368  155.4262 H   0  0  0  0  0  0  0  0  0  0  0  0  # atno 8008 bound_to 7997
  156.2117  140.1772  156.7722 H   0  0  0  0  0  0  0  0  0  0  0  0  # atno 8009 bound_to 7997
  154.5695  140.0672  156.8927 H   0  0  0  0  0  0  0  0  0  0  0  0  # atno 8010 bound_to 7997
  139.7059  143.9187  152.2448 H   0  0  0  0  0  0  0  0  0  0  0  0  # atno 10167 bound_to 10162
  157.6819  131.0737  150.5312 H   0  0  0  0  0  0  0  0  0  0  0  0  # atno 10718 bound_to 10713
  154.6573  135.5333  153.7975 H   0  0  0  0  0  0  0  0  0  0  0  0  # atno 10763 bound_to 10752
  153.0421  135.6497  154.0925 H   0  0  0  0  0  0  0  0  0  0  0  0  # atno 10764 bound_to 10752
  154.0837  135.2945  155.3265 H   0  0  0  0  0  0  0  0  0  0  0  0  # atno 10765 bound_to 10752
  140.8025  134.2840  157.4973 H   0  0  0  0  0  0  0  0  0  0  0  0  # atno 11005 bound_to 11000
  145.6266  139.1531  143.2992 LP  0  0  0  0  0  0  0  0  0  0  0  0  # atno 17320 bound_to 7965
  146.1891  140.6372  142.9154 LP  0  0  0  0  0  0  0  0  0  0  0  0  # atno 17321 bound_to 7965
  139.9042  144.6894  150.8632 LP  0  0  0  0  0  0  0  0  0  0  0  0  # atno 17342 bound_to 10162
  140.7721  143.3491  151.2051 LP  0  0  0  0  0  0  0  0  0  0  0  0  # atno 17343 bound_to 10162
  156.5622  130.4258  149.6058 LP  0  0  0  0  0  0  0  0  0  0  0  0  # atno 17370 bound_to 10713
  156.2812  130.7072  151.1896 LP  0  0  0  0  0  0  0  0  0  0  0  0  # atno 17371 bound_to 10713
  139.8720  134.9438  156.3862 LP  0  0  0  0  0  0  0  0  0  0  0  0  # atno 17394 bound_to 11000
  140.9280  133.7599  155.9989 LP  0  0  0  0  0  0  0  0  0  0  0  0  # atno 17395 bound_to 11000

$$$$
