AV-unprocessed.smi:701|AV-procd|sdf|3414|dock3
  -GOLD-   22720 0393D 1   1.00000     0.00000
 Structure written by MMmdl.
 48 50  0  0  0  0  0  0  0  0  2 V2000
  147.7712  141.6083  154.0652 C   0  0  0  0  0  0  0  0  0  0  0  0
  148.2669  140.1807  153.8253 C   0  0  0  0  0  0  0  0  0  0  0  0
  148.8532  139.6992  155.0221 O   0  0  0  0  0  0  0  0  0  0  0  0
  150.1802  140.1666  155.2288 C   0  0  2  0  0  0  0  0  0  0  0  0
  151.2242  139.0951  154.8909 C   0  0  0  0  0  0  0  0  0  0  0  0
  151.2000  138.6792  156.3655 C   0  0  2  0  0  0  0  0  0  0  0  0
  150.2711  137.5699  156.5791 N   0  0  0  0  0  0  0  0  0  0  0  0
  150.4747  136.3118  156.1640 C   0  0  0  0  0  0  0  0  0  0  0  0
  151.4631  135.9664  155.5154 O   0  0  0  0  0  0  0  0  0  0  0  0
  149.3846  135.2954  156.5237 C   0  0  0  0  0  0  0  0  0  0  0  0
  149.6537  133.9649  155.9567 N   0  0  0  0  0  0  0  0  0  0  0  0
  149.4266  133.7802  154.5816 C   0  0  0  0  0  0  0  0  0  0  0  0
  149.6521  132.5982  153.9771 C   0  0  0  0  0  0  0  0  0  0  0  0
  150.1447  131.4911  154.7876 C   0  0  0  0  0  0  0  0  0  0  0  0
  150.3503  130.4029  154.2536 O   0  0  0  0  0  0  0  0  0  0  0  0
  150.3550  131.7220  156.1166 N   0  5  0  0  0  0  0  0  0  0  0  0
  150.1241  132.9306  156.7173 C   0  0  0  0  0  0  0  0  0  0  0  0
  150.3232  133.1181  157.9182 O   0  0  0  0  0  0  0  0  0  0  0  0
  150.6154  140.0782  156.7157 C   0  0  0  0  0  0  0  0  0  0  0  0
  151.6872  141.1056  157.1372 C   0  0  0  0  0  0  0  0  0  0  0  0
  151.1413  142.5382  157.2728 C   0  0  0  0  0  0  0  0  0  0  0  0
  149.9728  142.5985  158.2635 C   0  0  0  0  0  0  0  0  0  0  0  0
  148.8945  141.5688  157.9073 C   0  0  0  0  0  0  0  0  0  0  0  0
  149.4946  140.1596  157.7772 C   0  0  0  0  0  0  0  0  0  0  0  0
  147.3218  142.0227  153.1628 H   0  0  0  0  0  0  0  0  0  0  0  0
  148.5915  142.2625  154.3620 H   0  0  0  0  0  0  0  0  0  0  0  0
  147.0205  141.6335  154.8556 H   0  0  0  0  0  0  0  0  0  0  0  0
  147.4347  139.5449  153.5209 H   0  0  0  0  0  0  0  0  0  0  0  0
  149.0023  140.1706  153.0196 H   0  0  0  0  0  0  0  0  0  0  0  0
  150.3692  141.1384  154.7711 H   0  0  0  0  0  0  0  0  0  0  0  0
  150.8982  138.3284  154.1871 H   0  0  0  0  0  0  0  0  0  0  0  0
  152.1815  139.5235  154.5913 H   0  0  0  0  0  0  0  0  0  0  0  0
  152.1986  138.5040  156.7695 H   0  0  0  0  0  0  0  0  0  0  0  0
  149.4383  137.7653  157.1157 H   0  0  0  0  0  0  0  0  0  0  0  0
  149.2734  135.2279  157.6079 H   0  0  0  0  0  0  0  0  0  0  0  0
  148.4298  135.6791  156.1620 H   0  0  0  0  0  0  0  0  0  0  0  0
  149.0691  134.6519  154.0535 H   0  0  0  0  0  0  0  0  0  0  0  0
  149.4766  132.4739  152.9188 H   0  0  0  0  0  0  0  0  0  0  0  0
  152.1312  140.8048  158.0874 H   0  0  0  0  0  0  0  0  0  0  0  0
  152.5117  141.1148  156.4238 H   0  0  0  0  0  0  0  0  0  0  0  0
  151.9366  143.2094  157.5983 H   0  0  0  0  0  0  0  0  0  0  0  0
  150.8129  142.9026  156.2992 H   0  0  0  0  0  0  0  0  0  0  0  0
  150.3414  142.4017  159.2710 H   0  0  0  0  0  0  0  0  0  0  0  0
  149.5451  143.6012  158.2800 H   0  0  0  0  0  0  0  0  0  0  0  0
  148.1136  141.5709  158.6683 H   0  0  0  0  0  0  0  0  0  0  0  0
  148.4133  141.8489  156.9694 H   0  0  0  0  0  0  0  0  0  0  0  0
  148.6834  139.4687  157.5483 H   0  0  0  0  0  0  0  0  0  0  0  0
  149.8779  139.8423  158.7480 H   0  0  0  0  0  0  0  0  0  0  0  0
  1  2  1  0  0  0  0
  1 25  1  0  0  0  0
  1 26  1  0  0  0  0
  1 27  1  0  0  0  0
  2  3  1  0  0  0  0
  2 28  1  0  0  0  0
  2 29  1  0  0  0  0
  3  4  1  0  0  0  0
  4 19  1  0  0  0  0
  4  5  1  0  0  0  0
  4 30  1  0  0  0  0
  5  6  1  0  0  0  0
  5 31  1  0  0  0  0
  5 32  1  0  0  0  0
  6  7  1  0  0  0  0
  6 19  1  0  0  0  0
  6 33  1  0  0  0  0
  7  8  1  0  0  0  0
  7 34  1  0  0  0  0
  8  9  2  0  0  0  0
  8 10  1  0  0  0  0
 10 11  1  0  0  0  0
 10 35  1  0  0  0  0
 10 36  1  0  0  0  0
 11 17  1  0  0  0  0
 11 12  1  0  0  0  0
 12 13  2  0  0  0  0
 12 37  1  0  0  0  0
 13 14  1  0  0  0  0
 13 38  1  0  0  0  0
 14 15  2  0  0  0  0
 14 16  1  0  0  0  0
 16 17  1  0  0  0  0
 17 18  2  0  0  0  0
 19 24  1  0  0  0  0
 19 20  1  0  0  0  0
 20 21  1  0  0  0  0
 20 39  1  0  0  0  0
 20 40  1  0  0  0  0
 21 22  1  0  0  0  0
 21 41  1  0  0  0  0
 21 42  1  0  0  0  0
 22 23  1  0  0  0  0
 22 43  1  0  0  0  0
 22 44  1  0  0  0  0
 23 24  1  0  0  0  0
 23 45  1  0  0  0  0
 23 46  1  0  0  0  0
 24 47  1  0  0  0  0
 24 48  1  0  0  0  0
M  CHG  1  16  -1
M  END
> <s_m_source_file>
AV-unprocessed.smi

> <i_m_source_file_index>
701

> <i_lp_mmshare_version>
43012

> <i_f3d_flags>
0

> <s_epik_input>
W0NIMl0xW0NIMl1bQ0gyXVtDSDJdW0NIMl1DMTJbQ0BIXShPW0NIMl1bQ0gzXSlbQ0gyXVtDQEhdMltOSF1DKD1PKVtDSDJdbjNbY0hdW2NIXWMoPU8pW25IXWMzPU8=

> <s_epik_cmdline>
J2VwaWtfcHl0aG9uJywgJy1waCcsICc3LjAnLCAnLXRuJywgJzgnLCAnLW1hJywgJzIwMCcsICctbWV0YWxfYmluZGluZycsICctaW1hZScsICc8aW5maWxlLm1hZT4nLCAnLW9tYWUnLCAnPG91dGZpbGUubWFlPic=

> <r_lp_tautomer_probability>
0.999537

> <r_epik_Ionization_Penalty>
3.12423

> <r_epik_Ionization_Penalty_Charging>
2.92877e-08

> <r_epik_Ionization_Penalty_Neutral>
3.12423

> <r_epik_State_Penalty>
3.12332

> <r_epik_Charging_Adjusted_Penalty>
3.12332

> <i_epik_Tot_Q>
-1

> <i_epik_Tot_abs_Q>
1

> <r_epik_Metal_State_Penalty>
0.463873

> <b_epik_Metal_Only>
1

> <s_lp_Force_Field>
OPLS_2005

> <r_lp_Energy>
38.2445

> <b_lp_Chiralities_Consistent>
1

> <s_lp_Variant>
AV-unprocessed.smi:701-7

> <Gold.Version>
5.8.1

> <Gold.Id.Protein>
6NUR|6NUR_protein|mol2

> <Gold.PLP.Fitness>
41.8452

> <Gold.PLP.PLP>
-34.1362

> <Gold.PLP.part.hbond>
-2.0000

> <Gold.PLP.part.metal>
0.0000

> <Gold.PLP.part.buried>
-1.8428

> <Gold.PLP.part.nonpolar>
-27.9610

> <Gold.PLP.part.repulsive>
0.2393

> <Gold.PLP.ligand.clash>
0.0000

> <Gold.PLP.ligand.torsion>
0.8191

> <Gold.PLP.Chemscore.Hbond>
2.0000

> <Gold.PLP.Chemscore.CHOScore>
1.0000

> <Gold.PLP.Chemscore.Metal>
0.0000

> <Gold.Chemscore.Hbonds>
donor molecule, donor type, donor heavy atom, donor atom, acceptor molecule, acceptor atom, score
      P1  H  6896  6909       L1    18  0.99
      P1  H 10752 10763       L1     9  1.00
      L1  C    12    37       P1  7948  0.66

> <Gold.PLP.Chemscore.Internal.Correction>
0.3472

> <Gold.Rescore>
     Score         DG    S(hbond)    S(metal)    S(lipo)     H(rot)  DE(clash)    DE(int)     intcor
     14.32     -16.44       2.00        0.00      81.25       2.04       1.30       0.82       ----

> <Gold.Chemscore.Fitness>
14.3230

> <Gold.Chemscore.DG>
-16.4396

> <Gold.Chemscore.ZeroCoef>
-5.4800

> <Gold.Chemscore.Hbond>
1.9986

> <Gold.Chemscore.Metal>
0.0000

> <Gold.Chemscore.Lipo>
81.2520

> <Gold.Chemscore.Internal_Hbond>
0.0000

> <Gold.Chemscore.DEClash>
1.2958

> <Gold.Chemscore.DEInternal>
0.8208

> <Gold.Chemscore.Rot>
2.0399

> <Gold.Chemscore.Internal.Correction>
   9.000000E+99

> <Gold.Chemscore.Hbonds>
donor molecule, donor type, donor heavy atom, donor atom, acceptor molecule, acceptor atom, score
      P1  H  6896  6909       L1    18  0.92
      P1  H 10752 10763       L1     9  1.00

> <Gold.Chemscore.Hbond.Weighted>
-6.6753

> <Gold.Chemscore.Metal.Weighted>
-0.0000

> <Gold.Chemscore.Lipo.Weighted>
-9.5065

> <Gold.Chemscore.Internal_Hbond.Weighted>
0.0000

> <Gold.Chemscore.DEClash.Weighted>
1.2958

> <Gold.Chemscore.DEInternal.Weighted>
0.8208

> <Gold.Chemscore.Rot.Weighted>
5.2222

> <Gold.Chemscore.Internal.Correction.Weighted>
   9.000000E+99

> <Gold.Protein.RotatedTorsions>
[ 6907 6896 6895 6894 ] final  -20.93 input  -60.11 | X-H torsion
[ 7974 7965 7964 7962 ] final -162.00 input  175.53 | X-H torsion
[ 8008 7997 7996 7995 ] final  -67.30 input   59.86 | X-H torsion
[ 10167 10162 10161 10158 ] final   75.03 input  -65.29 | X-H torsion
[ 10718 10713 10712 10709 ] final  -83.12 input   66.30 | X-H torsion
[ 10763 10752 10751 10750 ] final   63.97 input  -60.55 | X-H torsion
[ 11005 11000 10999 10996 ] final   77.01 input  -57.11 | X-H torsion

> <Gold.Protein.ActiveResidues>
 VAL166  LYS551  ARG553  GLY616  TRP617  ASP618  TYR619  PRO620  LYS621  CYS622 
 ASP623  PHE694  ASN695  SER759  ASP760  ASP761  ALA762  ILE779  LEU786  VAL792 
 PHE793  MET794  SER795  GLU796  ALA797  LYS798  CYS799  TRP800  GLU811  SER814 

> <Gold.Protein.RotatedAtoms>
  151.2408  135.0588  159.9023 H   0  0  0  0  0  0  0  0  0  0  0  0  # atno 6907 bound_to 6896
  152.5393  134.0436  159.8089 H   0  0  0  0  0  0  0  0  0  0  0  0  # atno 6908 bound_to 6896
  151.0630  133.5480  159.2664 H   0  0  0  0  0  0  0  0  0  0  0  0  # atno 6909 bound_to 6896
  144.7372  140.3316  143.6152 H   0  0  0  0  0  0  0  0  0  0  0  0  # atno 7974 bound_to 7965
  154.4791  140.0895  156.7333 H   0  0  0  0  0  0  0  0  0  0  0  0  # atno 8008 bound_to 7997
  155.4518  140.3457  155.4283 H   0  0  0  0  0  0  0  0  0  0  0  0  # atno 8009 bound_to 7997
  156.1163  140.1461  156.9256 H   0  0  0  0  0  0  0  0  0  0  0  0  # atno 8010 bound_to 7997
  140.0073  144.5640  150.7687 H   0  0  0  0  0  0  0  0  0  0  0  0  # atno 10167 bound_to 10162
  156.0023  130.4655  150.4208 H   0  0  0  0  0  0  0  0  0  0  0  0  # atno 10718 bound_to 10713
  153.0038  135.5410  154.6437 H   0  0  0  0  0  0  0  0  0  0  0  0  # atno 10763 bound_to 10752
  154.5686  135.2839  155.0852 H   0  0  0  0  0  0  0  0  0  0  0  0  # atno 10764 bound_to 10752
  154.2027  135.6481  153.5144 H   0  0  0  0  0  0  0  0  0  0  0  0  # atno 10765 bound_to 10752
  139.9273  134.7648  156.1468 H   0  0  0  0  0  0  0  0  0  0  0  0  # atno 11005 bound_to 11000
  145.7466  139.1780  143.2346 LP  0  0  0  0  0  0  0  0  0  0  0  0  # atno 17320 bound_to 7965
  146.1093  140.7448  142.9511 LP  0  0  0  0  0  0  0  0  0  0  0  0  # atno 17321 bound_to 7965
  140.7395  143.2792  151.3649 LP  0  0  0  0  0  0  0  0  0  0  0  0  # atno 17342 bound_to 10162
  139.6229  144.0871  152.2408 LP  0  0  0  0  0  0  0  0  0  0  0  0  # atno 17343 bound_to 10162
  157.2264  131.0494  151.2517 LP  0  0  0  0  0  0  0  0  0  0  0  0  # atno 17370 bound_to 10713
  157.3752  130.7202  149.6592 LP  0  0  0  0  0  0  0  0  0  0  0  0  # atno 17371 bound_to 10713
  141.0839  133.6742  156.2394 LP  0  0  0  0  0  0  0  0  0  0  0  0  # atno 17394 bound_to 11000
  140.6300  134.5273  157.5558 LP  0  0  0  0  0  0  0  0  0  0  0  0  # atno 17395 bound_to 11000

$$$$
