AV-unprocessed.smi:2073|AV-procd|sdf|8451|dock6
  -GOLD-   2272011143D 1   1.00000     0.00000
 Structure written by MMmdl.
 27 27  0  0  0  0  0  0  0  0  2 V2000
  152.5897  143.4090  158.9336 C   0  0  0  0  0  0  0  0  0  0  0  0
  152.4767  141.9895  159.5130 C   0  0  0  0  0  0  0  0  0  0  0  0
  153.7904  141.5488  160.1828 C   0  0  0  0  0  0  0  0  0  0  0  0
  152.0413  140.9960  158.4208 C   0  0  0  0  0  0  0  0  0  0  0  0
  152.7815  140.0555  158.1254 O   0  0  0  0  0  0  0  0  0  0  0  0
  150.8341  141.3168  157.8953 N   0  5  0  0  0  0  0  0  0  0  0  0
  150.5112  140.8862  156.6660 C   0  0  0  0  0  0  0  0  0  0  0  0
  149.3269  141.1322  156.0957 N   0  0  0  0  0  0  0  0  0  0  0  0
  149.2004  140.5946  154.8114 C   0  0  0  0  0  0  0  0  0  0  0  0
  147.9317  140.8007  154.0346 C   0  0  0  0  0  0  0  0  0  0  0  0
  147.3695  139.4624  153.5482 C   0  0  0  0  0  0  0  0  0  0  0  0
  148.0591  138.8135  152.6053 N   0  0  0  0  0  0  0  0  0  0  0  0
  146.3170  139.0251  154.0089 O   0  0  0  0  0  0  0  0  0  0  0  0
  150.3145  139.9049  154.4071 C   0  0  0  0  0  0  0  0  0  0  0  0
  151.5595  139.9232  155.6230 S   0  0  0  0  0  0  0  0  0  0  0  0
  151.6511  143.7269  158.4779 H   0  0  0  0  0  0  0  0  0  0  0  0
  153.3676  143.4685  158.1712 H   0  0  0  0  0  0  0  0  0  0  0  0
  152.8345  144.1299  159.7137 H   0  0  0  0  0  0  0  0  0  0  0  0
  151.7162  142.0123  160.2966 H   0  0  0  0  0  0  0  0  0  0  0  0
  153.7162  140.5315  160.5691 H   0  0  0  0  0  0  0  0  0  0  0  0
  154.0348  142.1998  161.0222 H   0  0  0  0  0  0  0  0  0  0  0  0
  154.6291  141.5816  159.4863 H   0  0  0  0  0  0  0  0  0  0  0  0
  147.1860  141.3029  154.6522 H   0  0  0  0  0  0  0  0  0  0  0  0
  148.1017  141.4472  153.1725 H   0  0  0  0  0  0  0  0  0  0  0  0
  147.7103  137.9372  152.2429 H   0  0  0  0  0  0  0  0  0  0  0  0
  148.9140  139.2102  152.2437 H   0  0  0  0  0  0  0  0  0  0  0  0
  150.4797  139.3938  153.4705 H   0  0  0  0  0  0  0  0  0  0  0  0
  1  2  1  0  0  0  0
  1 16  1  0  0  0  0
  1 17  1  0  0  0  0
  1 18  1  0  0  0  0
  2  3  1  0  0  0  0
  2  4  1  0  0  0  0
  2 19  1  0  0  0  0
  3 20  1  0  0  0  0
  3 21  1  0  0  0  0
  3 22  1  0  0  0  0
  4  5  2  0  0  0  0
  4  6  1  0  0  0  0
  6  7  1  0  0  0  0
  7 15  1  0  0  0  0
  7  8  2  0  0  0  0
  8  9  1  0  0  0  0
  9 10  1  0  0  0  0
  9 14  2  0  0  0  0
 10 11  1  0  0  0  0
 10 23  1  0  0  0  0
 10 24  1  0  0  0  0
 11 12  1  0  0  0  0
 11 13  2  0  0  0  0
 12 25  1  0  0  0  0
 12 26  1  0  0  0  0
 14 15  1  0  0  0  0
 14 27  1  0  0  0  0
M  CHG  1   6  -1
M  END
> <s_m_source_file>
AV-unprocessed.smi

> <i_m_source_file_index>
2073

> <i_lp_mmshare_version>
43012

> <i_f3d_flags>
0

> <s_epik_input>
W0NIM11bQ0hdKFtDSDNdKUMoPU8pW05IXWMxbmMoW2NIXXMxKVtDSDJdQyg9TylbTkgyXQ==

> <s_epik_cmdline>
J2VwaWtfcHl0aG9uJywgJy1waCcsICc3LjAnLCAnLXRuJywgJzgnLCAnLW1hJywgJzIwMCcsICctbWV0YWxfYmluZGluZycsICctaW1hZScsICc8aW5maWxlLm1hZT4nLCAnLW9tYWUnLCAnPG91dGZpbGUubWFlPic=

> <r_lp_tautomer_probability>
1

> <r_epik_Ionization_Penalty>
5.4698

> <r_epik_Ionization_Penalty_Charging>
4.98646

> <r_epik_Ionization_Penalty_Neutral>
0.483343

> <r_epik_State_Penalty>
4.98633

> <r_epik_Charging_Adjusted_Penalty>
9.97279

> <i_epik_Tot_Q>
-1

> <i_epik_Tot_abs_Q>
1

> <r_epik_Metal_State_Penalty>
1.11062

> <b_epik_Metal_Only>
1

> <s_lp_Force_Field>
OPLS_2005

> <r_lp_Energy>
-0.551018

> <b_lp_Chiralities_Consistent>
1

> <s_lp_Variant>
AV-unprocessed.smi:2073-2

> <Gold.Version>
5.8.1

> <Gold.Id.Protein>
6NUR|6NUR_protein|mol2

> <Gold.PLP.Fitness>
39.0227

> <Gold.PLP.PLP>
-29.0738

> <Gold.PLP.part.hbond>
-2.7362

> <Gold.PLP.part.metal>
0.0000

> <Gold.PLP.part.buried>
-0.4258

> <Gold.PLP.part.nonpolar>
-26.1695

> <Gold.PLP.part.repulsive>
0.3102

> <Gold.PLP.ligand.clash>
0.0000

> <Gold.PLP.ligand.torsion>
0.2562

> <Gold.PLP.Chemscore.Hbond>
2.4880

> <Gold.PLP.Chemscore.CHOScore>
0.9757

> <Gold.PLP.Chemscore.Metal>
0.0000

> <Gold.Chemscore.Hbonds>
donor molecule, donor type, donor heavy atom, donor atom, acceptor molecule, acceptor atom, score
      L1  H    12    25       P1  7948  0.35
      L1  H    12    26       P1  7957  0.92
      P1  H  7997  8008       L1     5  0.83
      L1  C    14    27       P1  7957  0.95

> <Gold.PLP.Chemscore.Internal.Correction>
0.0702

> <Gold.Rescore>
     Score         DG    S(hbond)    S(metal)    S(lipo)     H(rot)  DE(clash)    DE(int)     intcor
     13.48     -15.49       2.37        0.00      59.43       1.90       0.24       1.77       ----

> <Gold.Chemscore.Fitness>
13.4805

> <Gold.Chemscore.DG>
-15.4935

> <Gold.Chemscore.ZeroCoef>
-5.4800

> <Gold.Chemscore.Hbond>
2.3736

> <Gold.Chemscore.Metal>
0.0000

> <Gold.Chemscore.Lipo>
59.4252

> <Gold.Chemscore.Internal_Hbond>
0.0000

> <Gold.Chemscore.DEClash>
0.2386

> <Gold.Chemscore.DEInternal>
1.7744

> <Gold.Chemscore.Rot>
1.9012

> <Gold.Chemscore.Internal.Correction>
   9.000000E+99

> <Gold.Chemscore.Hbonds>
donor molecule, donor type, donor heavy atom, donor atom, acceptor molecule, acceptor atom, score
      L1  H    12    25       P1  7948  0.35
      L1  H    12    26       P1  7957  0.84
      P1  H  7997  8008       L1     5  0.78

> <Gold.Chemscore.Hbond.Weighted>
-7.9279

> <Gold.Chemscore.Metal.Weighted>
-0.0000

> <Gold.Chemscore.Lipo.Weighted>
-6.9527

> <Gold.Chemscore.Internal_Hbond.Weighted>
0.0000

> <Gold.Chemscore.DEClash.Weighted>
0.2386

> <Gold.Chemscore.DEInternal.Weighted>
1.7744

> <Gold.Chemscore.Rot.Weighted>
4.8671

> <Gold.Chemscore.Internal.Correction.Weighted>
   9.000000E+99

> <Gold.Protein.RotatedTorsions>
[ 6907 6896 6895 6894 ] final  156.19 input  -60.11 | X-H torsion
[ 7974 7965 7964 7962 ] final  100.12 input  175.53 | X-H torsion
[ 8008 7997 7996 7995 ] final  -79.72 input   59.86 | X-H torsion
[ 10167 10162 10161 10158 ] final   79.51 input  -65.29 | X-H torsion
[ 10718 10713 10712 10709 ] final  149.40 input   66.30 | X-H torsion
[ 10763 10752 10751 10750 ] final  -65.99 input  -60.55 | X-H torsion
[ 11005 11000 10999 10996 ] final  167.09 input  -57.11 | X-H torsion

> <Gold.Protein.ActiveResidues>
 VAL166  LYS551  ARG553  GLY616  TRP617  ASP618  TYR619  PRO620  LYS621  CYS622 
 ASP623  PHE694  ASN695  SER759  ASP760  ASP761  ALA762  ILE779  LEU786  VAL792 
 PHE793  MET794  SER795  GLU796  ALA797  LYS798  CYS799  TRP800  GLU811  SER814 

> <Gold.Protein.RotatedAtoms>
  152.0333  133.3946  159.4306 H   0  0  0  0  0  0  0  0  0  0  0  0  # atno 6907 bound_to 6896
  150.6880  134.3496  159.4912 H   0  0  0  0  0  0  0  0  0  0  0  0  # atno 6908 bound_to 6896
  152.1285  134.9152  160.0610 H   0  0  0  0  0  0  0  0  0  0  0  0  # atno 6909 bound_to 6896
  145.3898  139.2365  143.3358 H   0  0  0  0  0  0  0  0  0  0  0  0  # atno 7974 bound_to 7965
  154.5813  140.0674  156.9108 H   0  0  0  0  0  0  0  0  0  0  0  0  # atno 8008 bound_to 7997
  155.2458  140.3348  155.4269 H   0  0  0  0  0  0  0  0  0  0  0  0  # atno 8009 bound_to 7997
  156.2191  140.1791  156.7504 H   0  0  0  0  0  0  0  0  0  0  0  0  # atno 8010 bound_to 7997
  139.9595  144.5970  150.8085 H   0  0  0  0  0  0  0  0  0  0  0  0  # atno 10167 bound_to 10162
  157.2965  131.0863  151.1422 H   0  0  0  0  0  0  0  0  0  0  0  0  # atno 10718 bound_to 10713
  154.3532  135.6132  153.5653 H   0  0  0  0  0  0  0  0  0  0  0  0  # atno 10763 bound_to 10752
  152.9797  135.5797  154.4719 H   0  0  0  0  0  0  0  0  0  0  0  0  # atno 10764 bound_to 10752
  154.4443  135.2851  155.1803 H   0  0  0  0  0  0  0  0  0  0  0  0  # atno 10765 bound_to 10752
  140.2732  134.7810  157.3694 H   0  0  0  0  0  0  0  0  0  0  0  0  # atno 11005 bound_to 11000
  146.2803  140.4579  142.8779 LP  0  0  0  0  0  0  0  0  0  0  0  0  # atno 17320 bound_to 7965
  144.8448  140.6912  143.6206 LP  0  0  0  0  0  0  0  0  0  0  0  0  # atno 17321 bound_to 7965
  140.7557  143.3052  151.2979 LP  0  0  0  0  0  0  0  0  0  0  0  0  # atno 17342 bound_to 10162
  139.6565  144.0267  152.2663 LP  0  0  0  0  0  0  0  0  0  0  0  0  # atno 17343 bound_to 10162
  157.2798  130.6744  149.6060 LP  0  0  0  0  0  0  0  0  0  0  0  0  # atno 17370 bound_to 10713
  155.9669  130.4453  150.5497 LP  0  0  0  0  0  0  0  0  0  0  0  0  # atno 17371 bound_to 10713
  140.1353  134.5042  155.8073 LP  0  0  0  0  0  0  0  0  0  0  0  0  # atno 17394 bound_to 11000
  141.2174  133.6805  156.7113 LP  0  0  0  0  0  0  0  0  0  0  0  0  # atno 17395 bound_to 11000

$$$$
