AV-unprocessed.smi:869|AV-procd|sdf|4005|dock5
  -GOLD-   22720 1493D 1   1.00000     0.00000
 Structure written by MMmdl.
 47 49  0  0  0  0  0  0  0  0  2 V2000
  147.7935  141.3491  153.8469 C   0  0  0  0  0  0  0  0  0  0  0  0
  149.1585  141.6091  154.1239 O   0  0  0  0  0  0  0  0  0  0  0  0
  149.7361  140.6305  154.9725 C   0  0  0  0  0  0  0  0  0  0  0  0
  150.4523  141.2475  156.1286 C   0  0  0  0  0  0  0  0  0  0  0  0
  150.5428  142.5802  156.4004 N   0  3  0  0  0  0  0  0  0  0  0  0
  151.2901  142.7765  157.5618 C   0  0  0  0  0  0  0  0  0  0  0  0
  151.6478  143.9448  158.2278 C   0  0  0  0  0  0  0  0  0  0  0  0
  152.4197  143.7948  159.3985 C   0  0  0  0  0  0  0  0  0  0  0  0
  152.8051  142.5214  159.8654 C   0  0  0  0  0  0  0  0  0  0  0  0
  152.4373  141.3443  159.1808 C   0  0  0  0  0  0  0  0  0  0  0  0
  151.6754  141.5008  158.0229 C   0  0  0  0  0  0  0  0  0  0  0  0
  151.1369  140.5887  157.1067 N   0  0  0  0  0  0  0  0  0  0  0  0
  151.3559  139.1457  157.2967 C   0  0  0  0  0  0  0  0  0  0  0  0
  150.7256  138.6098  158.5982 C   0  0  2  0  0  0  0  0  0  0  0  0
  151.3217  137.3794  158.9582 O   0  0  0  0  0  0  0  0  0  0  0  0
  149.2109  138.3944  158.4695 C   0  0  0  0  0  0  0  0  0  0  0  0
  148.9586  137.0168  158.2273 O   0  0  0  0  0  0  0  0  0  0  0  0
  148.4742  136.2499  159.2652 C   0  0  0  0  0  0  0  0  0  0  0  0
  148.2333  134.8869  158.9957 C   0  0  0  0  0  0  0  0  0  0  0  0
  147.7361  134.0300  159.9963 C   0  0  0  0  0  0  0  0  0  0  0  0
  147.4703  134.5293  161.2862 C   0  0  0  0  0  0  0  0  0  0  0  0
  146.9367  133.6088  162.3643 C   0  0  0  0  0  0  0  0  0  0  0  0
  147.7090  135.8889  161.5680 C   0  0  0  0  0  0  0  0  0  0  0  0
  148.2070  136.7453  160.5666 C   0  0  0  0  0  0  0  0  0  0  0  0
  147.4003  142.1209  153.1852 H   0  0  0  0  0  0  0  0  0  0  0  0
  147.1983  141.3543  154.7610 H   0  0  0  0  0  0  0  0  0  0  0  0
  147.6673  140.3853  153.3520 H   0  0  0  0  0  0  0  0  0  0  0  0
  148.9606  139.9651  155.3548 H   0  0  0  0  0  0  0  0  0  0  0  0
  150.4442  140.0213  154.4091 H   0  0  0  0  0  0  0  0  0  0  0  0
  151.3516  144.9209  157.8728 H   0  0  0  0  0  0  0  0  0  0  0  0
  152.7203  144.6734  159.9506 H   0  0  0  0  0  0  0  0  0  0  0  0
  153.3932  142.4451  160.7683 H   0  0  0  0  0  0  0  0  0  0  0  0
  152.7326  140.3742  159.5522 H   0  0  0  0  0  0  0  0  0  0  0  0
  150.9185  138.6388  156.4359 H   0  0  0  0  0  0  0  0  0  0  0  0
  152.4244  138.9343  157.2574 H   0  0  0  0  0  0  0  0  0  0  0  0
  150.9159  139.3120  159.4106 H   0  0  0  0  0  0  0  0  0  0  0  0
  151.7412  137.0152  158.1934 H   0  0  0  0  0  0  0  0  0  0  0  0
  148.7068  138.7259  159.3791 H   0  0  0  0  0  0  0  0  0  0  0  0
  148.8268  138.9839  157.6350 H   0  0  0  0  0  0  0  0  0  0  0  0
  148.4325  134.4929  158.0101 H   0  0  0  0  0  0  0  0  0  0  0  0
  147.5588  132.9888  159.7694 H   0  0  0  0  0  0  0  0  0  0  0  0
  146.3454  134.1637  163.0933 H   0  0  0  0  0  0  0  0  0  0  0  0
  147.7618  133.1247  162.8870 H   0  0  0  0  0  0  0  0  0  0  0  0
  146.3006  132.8351  161.9332 H   0  0  0  0  0  0  0  0  0  0  0  0
  147.5105  136.2811  162.5547 H   0  0  0  0  0  0  0  0  0  0  0  0
  148.3739  137.7801  160.8235 H   0  0  0  0  0  0  0  0  0  0  0  0
  150.1191  143.2994  155.8283 H   0  0  0  0  0  0  0  0  0  0  0  0
  1  2  1  0  0  0  0
  1 25  1  0  0  0  0
  1 26  1  0  0  0  0
  1 27  1  0  0  0  0
  2  3  1  0  0  0  0
  3  4  1  0  0  0  0
  3 28  1  0  0  0  0
  3 29  1  0  0  0  0
  4 12  1  0  0  0  0
  4  5  2  0  0  0  0
  5  6  1  0  0  0  0
  5 47  1  0  0  0  0
  6 11  2  0  0  0  0
  6  7  1  0  0  0  0
  7  8  2  0  0  0  0
  7 30  1  0  0  0  0
  8  9  1  0  0  0  0
  8 31  1  0  0  0  0
  9 10  2  0  0  0  0
  9 32  1  0  0  0  0
 10 11  1  0  0  0  0
 10 33  1  0  0  0  0
 11 12  1  0  0  0  0
 12 13  1  0  0  0  0
 13 14  1  0  0  0  0
 13 34  1  0  0  0  0
 13 35  1  0  0  0  0
 14 15  1  0  0  0  0
 14 16  1  0  0  0  0
 14 36  1  0  0  0  0
 15 37  1  0  0  0  0
 16 17  1  0  0  0  0
 16 38  1  0  0  0  0
 16 39  1  0  0  0  0
 17 18  1  0  0  0  0
 18 24  1  0  0  0  0
 18 19  2  0  0  0  0
 19 20  1  0  0  0  0
 19 40  1  0  0  0  0
 20 21  2  0  0  0  0
 20 41  1  0  0  0  0
 21 22  1  0  0  0  0
 21 23  1  0  0  0  0
 22 42  1  0  0  0  0
 22 43  1  0  0  0  0
 22 44  1  0  0  0  0
 23 24  2  0  0  0  0
 23 45  1  0  0  0  0
 24 46  1  0  0  0  0
M  CHG  1   5   1
M  END
> <s_m_source_file>
AV-unprocessed.smi

> <i_m_source_file_index>
869

> <i_lp_mmshare_version>
43012

> <i_f3d_flags>
0

> <s_epik_input>
W2NIXTFbY0hdW2NIXVtjSF1jKGMxMiluKGMobjIpW0NIMl1PW0NIM10pW0NIMl1bQ0BIXShbT0hdKVtDSDJdT2MzW2NIXVtjSF1jKFtDSDNdKVtjSF1bY0hdMw==

> <s_epik_cmdline>
J2VwaWtfcHl0aG9uJywgJy1waCcsICc3LjAnLCAnLXRuJywgJzgnLCAnLW1hJywgJzIwMCcsICctbWV0YWxfYmluZGluZycsICctaW1hZScsICc8aW5maWxlLm1hZT4nLCAnLW9tYWUnLCAnPG91dGZpbGUubWFlPic=

> <r_lp_tautomer_probability>
1

> <r_epik_Ionization_Penalty>
1.5538

> <r_epik_Ionization_Penalty_Charging>
1.5538

> <r_epik_Ionization_Penalty_Neutral>
2.3993e-06

> <r_epik_State_Penalty>
1.64824

> <r_epik_Charging_Adjusted_Penalty>
3.20204

> <i_epik_Tot_Q>
1

> <i_epik_Tot_abs_Q>
1

> <r_epik_Metal_State_Penalty>
5.70315

> <b_epik_Metal_Only>
0

> <s_lp_Force_Field>
OPLS_2005

> <r_lp_Energy>
18.5065

> <b_lp_Chiralities_Consistent>
1

> <s_lp_Variant>
AV-unprocessed.smi:869-3

> <Gold.Version>
5.8.1

> <Gold.Id.Protein>
6NUR|6NUR_protein|mol2

> <Gold.PLP.Fitness>
54.9006

> <Gold.PLP.PLP>
-49.7853

> <Gold.PLP.part.hbond>
-2.8649

> <Gold.PLP.part.metal>
0.0000

> <Gold.PLP.part.buried>
-5.1434

> <Gold.PLP.part.nonpolar>
-42.3182

> <Gold.PLP.part.repulsive>
0.2821

> <Gold.PLP.ligand.clash>
0.0020

> <Gold.PLP.ligand.torsion>
1.3839

> <Gold.PLP.Chemscore.Hbond>
2.5760

> <Gold.PLP.Chemscore.CHOScore>
0.0000

> <Gold.PLP.Chemscore.Metal>
0.0000

> <Gold.Chemscore.Hbonds>
donor molecule, donor type, donor heavy atom, donor atom, acceptor molecule, acceptor atom, score
      L1  H     5    47       P1  8028  1.98
      P1  H  8011  8017       L1     2  0.56

> <Gold.PLP.Chemscore.Internal.Correction>
0.1570

> <Gold.Rescore>
     Score         DG    S(hbond)    S(metal)    S(lipo)     H(rot)  DE(clash)    DE(int)     intcor
     17.17     -18.73       1.37        0.00     127.68       2.45       0.03       1.52       ----

> <Gold.Chemscore.Fitness>
17.1743

> <Gold.Chemscore.DG>
-18.7256

> <Gold.Chemscore.ZeroCoef>
-5.4800

> <Gold.Chemscore.Hbond>
1.3704

> <Gold.Chemscore.Metal>
0.0000

> <Gold.Chemscore.Lipo>
127.6837

> <Gold.Chemscore.Internal_Hbond>
0.0000

> <Gold.Chemscore.DEClash>
0.0336

> <Gold.Chemscore.DEInternal>
1.5177

> <Gold.Chemscore.Rot>
2.4494

> <Gold.Chemscore.Internal.Correction>
   9.000000E+99

> <Gold.Chemscore.Hbonds>
donor molecule, donor type, donor heavy atom, donor atom, acceptor molecule, acceptor atom, score
      L1  H     5    47       P1  8028  0.94
      P1  H  8011  8017       L1     2  0.18

> <Gold.Chemscore.Hbond.Weighted>
-4.5771

> <Gold.Chemscore.Metal.Weighted>
-0.0000

> <Gold.Chemscore.Lipo.Weighted>
-14.9390

> <Gold.Chemscore.Internal_Hbond.Weighted>
0.0000

> <Gold.Chemscore.DEClash.Weighted>
0.0336

> <Gold.Chemscore.DEInternal.Weighted>
1.5177

> <Gold.Chemscore.Rot.Weighted>
6.2704

> <Gold.Chemscore.Internal.Correction.Weighted>
   9.000000E+99

> <Gold.Protein.RotatedTorsions>
[ 6907 6896 6895 6894 ] final  -57.51 input  -60.11 | X-H torsion
[ 7974 7965 7964 7962 ] final   -7.06 input  175.53 | X-H torsion
[ 8008 7997 7996 7995 ] final   32.60 input   59.86 | X-H torsion
[ 10167 10162 10161 10158 ] final   43.19 input  -65.29 | X-H torsion
[ 10718 10713 10712 10709 ] final -169.00 input   66.30 | X-H torsion
[ 10763 10752 10751 10750 ] final   99.36 input  -60.55 | X-H torsion
[ 11005 11000 10999 10996 ] final  -38.65 input  -57.11 | X-H torsion

> <Gold.Protein.ActiveResidues>
 VAL166  LYS551  ARG553  GLY616  TRP617  ASP618  TYR619  PRO620  LYS621  CYS622 
 ASP623  PHE694  ASN695  SER759  ASP760  ASP761  ALA762  ILE779  LEU786  VAL792 
 PHE793  MET794  SER795  GLU796  ALA797  LYS798  CYS799  TRP800  GLU811  SER814 

> <Gold.Protein.RotatedAtoms>
  150.8080  134.7218  159.6661 H   0  0  0  0  0  0  0  0  0  0  0  0  # atno 6907 bound_to 6896
  152.4200  134.5969  159.9999 H   0  0  0  0  0  0  0  0  0  0  0  0  # atno 6908 bound_to 6896
  151.6187  133.3304  159.3119 H   0  0  0  0  0  0  0  0  0  0  0  0  # atno 6909 bound_to 6896
  146.2316  140.2263  142.8339 H   0  0  0  0  0  0  0  0  0  0  0  0  # atno 7974 bound_to 7965
  155.1250  140.3252  155.4488 H   0  0  0  0  0  0  0  0  0  0  0  0  # atno 8008 bound_to 7997
  156.2651  140.2020  156.6320 H   0  0  0  0  0  0  0  0  0  0  0  0  # atno 8009 bound_to 7997
  154.6655  140.0542  157.0096 H   0  0  0  0  0  0  0  0  0  0  0  0  # atno 8010 bound_to 7997
  140.3469  144.2400  150.6149 H   0  0  0  0  0  0  0  0  0  0  0  0  # atno 10167 bound_to 10162
  156.7051  130.9212  151.3084 H   0  0  0  0  0  0  0  0  0  0  0  0  # atno 10718 bound_to 10713
  153.3005  135.4116  155.1248 H   0  0  0  0  0  0  0  0  0  0  0  0  # atno 10763 bound_to 10752
  154.8548  135.3540  154.5858 H   0  0  0  0  0  0  0  0  0  0  0  0  # atno 10764 bound_to 10752
  153.6283  135.7062  153.5343 H   0  0  0  0  0  0  0  0  0  0  0  0  # atno 10765 bound_to 10752
  141.0044  133.6939  156.2082 H   0  0  0  0  0  0  0  0  0  0  0  0  # atno 11005 bound_to 11000
  144.9593  140.8258  143.5523 LP  0  0  0  0  0  0  0  0  0  0  0  0  # atno 17320 bound_to 7965
  145.2232  139.2149  143.5082 LP  0  0  0  0  0  0  0  0  0  0  0  0  # atno 17321 bound_to 7965
  140.5256  143.2255  151.8320 LP  0  0  0  0  0  0  0  0  0  0  0  0  # atno 17342 bound_to 10162
  139.4832  144.4783  151.9338 LP  0  0  0  0  0  0  0  0  0  0  0  0  # atno 17343 bound_to 10162
  157.6958  130.9280  150.0640 LP  0  0  0  0  0  0  0  0  0  0  0  0  # atno 17370 bound_to 10713
  156.1700  130.3646  149.9178 LP  0  0  0  0  0  0  0  0  0  0  0  0  # atno 17371 bound_to 10713
  140.6837  134.4740  157.5589 LP  0  0  0  0  0  0  0  0  0  0  0  0  # atno 17394 bound_to 11000
  139.9055  134.8458  156.1722 LP  0  0  0  0  0  0  0  0  0  0  0  0  # atno 17395 bound_to 11000

$$$$
