AV-unprocessed.smi:21|AV-procd|sdf|163|dock8
  -GOLD-   2262015403D 1   1.00000     0.00000
 Structure written by MMmdl.
 61 64  0  0  0  0  0  0  0  0  1 V2000
  151.8899  144.4345  157.9139 C   0  0  0  0  0  0  0  0  0  0  0  0
  151.9799  143.5342  159.0067 O   0  0  0  0  0  0  0  0  0  0  0  0
  151.2206  142.3470  158.8259 C   0  0  1  0  0  0  0  0  0  0  0  0
  149.8035  142.6863  158.3370 C   0  0  0  0  0  0  0  0  0  0  0  0
  149.7018  142.0288  156.9512 C   0  0  2  0  0  0  0  0  0  0  0  0
  148.2618  141.6355  156.5567 C   0  0  0  0  0  0  0  0  0  0  0  0
  148.1998  140.9742  155.2499 N   0  0  0  0  0  0  0  0  0  0  0  0
  148.3529  141.8075  154.0636 C   0  0  0  0  0  0  0  0  0  0  0  0
  147.7645  139.6851  155.1328 C   0  0  0  0  0  0  0  0  0  0  0  0
  147.8596  138.8712  156.2187 N   0  0  0  0  0  0  0  0  0  0  0  0
  147.4515  137.6014  156.1686 C   0  0  0  0  0  0  0  0  0  0  0  0
  146.9226  136.9379  155.1418 N   0  0  0  0  0  0  0  0  0  0  0  0
  146.8222  137.7358  154.0419 C   0  0  0  0  0  0  0  0  0  0  0  0
  147.2129  139.1049  153.9466 C   0  0  0  0  0  0  0  0  0  0  0  0
  146.9411  139.5672  152.6613 N   0  0  0  0  0  0  0  0  0  0  0  0
  146.4292  138.5409  152.0407 C   0  0  0  0  0  0  0  0  0  0  0  0
  146.3167  137.3999  152.7981 N   0  0  0  0  0  0  0  0  0  0  0  0
  145.7864  136.1196  152.3609 C   0  0  0  0  0  0  0  0  0  0  0  0
  144.3505  136.2110  151.7852 C   0  0  2  0  0  0  0  0  0  0  0  0
  143.3517  136.7327  152.8505 C   0  0  0  0  0  0  0  0  0  0  0  0
  143.7865  137.9464  153.4269 O   0  0  0  0  0  0  0  0  0  0  0  0
  143.9222  134.8382  151.1960 C   0  0  1  0  0  0  0  0  0  0  0  0
  144.6298  134.4150  149.9196 C   0  0  0  0  0  0  0  0  0  0  0  0
  144.3568  132.9166  149.8761 C   0  0  0  0  0  0  0  0  0  0  0  0
  144.3264  132.4975  151.2344 O   0  0  0  0  0  0  0  0  0  0  0  0
  144.2359  133.6319  152.0907 C   0  0  0  0  0  0  0  0  0  0  0  0
  150.6403  140.9192  157.0045 N   0  0  0  0  0  0  0  0  0  0  0  0
  150.9985  140.3862  155.6966 C   0  0  0  0  0  0  0  0  0  0  0  0
  151.7862  141.4690  157.7013 C   0  0  0  0  0  0  0  0  0  0  0  0
  151.1509  141.7858  159.7597 H   0  0  0  0  0  0  0  0  0  0  0  0
  150.0740  142.7501  156.2210 H   0  0  0  0  0  0  0  0  0  0  0  0
  152.5030  145.3130  158.1145 H   0  0  0  0  0  0  0  0  0  0  0  0
  150.8655  144.7726  157.7547 H   0  0  0  0  0  0  0  0  0  0  0  0
  152.2538  143.9756  156.9938 H   0  0  0  0  0  0  0  0  0  0  0  0
  149.0744  142.2563  159.0244 H   0  0  0  0  0  0  0  0  0  0  0  0
  149.6172  143.7600  158.2889 H   0  0  0  0  0  0  0  0  0  0  0  0
  147.8637  140.9306  157.2860 H   0  0  0  0  0  0  0  0  0  0  0  0
  147.6037  142.5017  156.6205 H   0  0  0  0  0  0  0  0  0  0  0  0
  148.9890  141.3190  153.3250 H   0  0  0  0  0  0  0  0  0  0  0  0
  148.8162  142.7619  154.3149 H   0  0  0  0  0  0  0  0  0  0  0  0
  147.3824  142.0192  153.6140 H   0  0  0  0  0  0  0  0  0  0  0  0
  147.5655  137.0377  157.0826 H   0  0  0  0  0  0  0  0  0  0  0  0
  146.1141  138.5888  151.0084 H   0  0  0  0  0  0  0  0  0  0  0  0
  146.4790  135.7273  151.6163 H   0  0  0  0  0  0  0  0  0  0  0  0
  145.8118  135.4228  153.1993 H   0  0  0  0  0  0  0  0  0  0  0  0
  144.3787  136.9367  150.9708 H   0  0  0  0  0  0  0  0  0  0  0  0
  142.3588  136.8652  152.4195 H   0  0  0  0  0  0  0  0  0  0  0  0
  143.2420  136.0324  153.6771 H   0  0  0  0  0  0  0  0  0  0  0  0
  143.5642  138.6543  152.8413 H   0  0  0  0  0  0  0  0  0  0  0  0
  142.8483  134.8509  151.0017 H   0  0  0  0  0  0  0  0  0  0  0  0
  144.2590  134.9246  149.0303 H   0  0  0  0  0  0  0  0  0  0  0  0
  145.7024  134.5973  149.9987 H   0  0  0  0  0  0  0  0  0  0  0  0
  143.3813  132.7207  149.4295 H   0  0  0  0  0  0  0  0  0  0  0  0
  145.1078  132.3706  149.3048 H   0  0  0  0  0  0  0  0  0  0  0  0
  145.1986  133.7588  152.5879 H   0  0  0  0  0  0  0  0  0  0  0  0
  143.4783  133.4750  152.8588 H   0  0  0  0  0  0  0  0  0  0  0  0
  151.7496  139.6019  155.7956 H   0  0  0  0  0  0  0  0  0  0  0  0
  151.4050  141.1641  155.0489 H   0  0  0  0  0  0  0  0  0  0  0  0
  150.1323  139.9487  155.2008 H   0  0  0  0  0  0  0  0  0  0  0  0
  152.3694  142.0890  157.0179 H   0  0  0  0  0  0  0  0  0  0  0  0
  152.4432  140.6837  158.0771 H   0  0  0  0  0  0  0  0  0  0  0  0
  1  2  1  0  0  0  0
  1 32  1  0  0  0  0
  1 33  1  0  0  0  0
  1 34  1  0  0  0  0
  2  3  1  0  0  0  0
  3 30  1  0  0  0  0
  3 29  1  0  0  0  0
  3  4  1  0  0  0  0
  4  5  1  0  0  0  0
  4 35  1  0  0  0  0
  4 36  1  0  0  0  0
  5 31  1  0  0  0  0
  5  6  1  0  0  0  0
  5 27  1  0  0  0  0
  6  7  1  0  0  0  0
  6 37  1  0  0  0  0
  6 38  1  0  0  0  0
  7  8  1  0  0  0  0
  7  9  1  0  0  0  0
  8 39  1  0  0  0  0
  8 40  1  0  0  0  0
  8 41  1  0  0  0  0
  9 14  1  0  0  0  0
  9 10  2  0  0  0  0
 10 11  1  0  0  0  0
 11 12  2  0  0  0  0
 11 42  1  0  0  0  0
 12 13  1  0  0  0  0
 13 17  1  0  0  0  0
 13 14  2  0  0  0  0
 14 15  1  0  0  0  0
 15 16  2  0  0  0  0
 16 17  1  0  0  0  0
 16 43  1  0  0  0  0
 17 18  1  0  0  0  0
 18 19  1  0  0  0  0
 18 44  1  0  0  0  0
 18 45  1  0  0  0  0
 19 20  1  0  0  0  0
 19 22  1  0  0  0  0
 19 46  1  0  0  0  0
 20 21  1  0  0  0  0
 20 47  1  0  0  0  0
 20 48  1  0  0  0  0
 21 49  1  0  0  0  0
 22 26  1  0  0  0  0
 22 23  1  0  0  0  0
 22 50  1  0  0  0  0
 23 24  1  0  0  0  0
 23 51  1  0  0  0  0
 23 52  1  0  0  0  0
 24 25  1  0  0  0  0
 24 53  1  0  0  0  0
 24 54  1  0  0  0  0
 25 26  1  0  0  0  0
 26 55  1  0  0  0  0
 26 56  1  0  0  0  0
 27 28  1  0  0  0  0
 27 29  1  0  0  0  0
 28 57  1  0  0  0  0
 28 58  1  0  0  0  0
 28 59  1  0  0  0  0
 29 60  1  0  0  0  0
 29 61  1  0  0  0  0
M  END
> <s_m_source_file>
AV-unprocessed.smi

> <i_m_source_file_index>
21

> <i_lp_mmshare_version>
43012

> <i_f3d_flags>
0

> <s_epik_input>
W0NIM11PW0NASF0xW0NIMl1bQ0BIXShOKFtDSDNdKVtDSDJdMSlbQ0gyXU4oW0NIM10pYyhuW2NIXW4yKWMoYzIzKW5bY0hdbjNbQ0gyXVtDQEhdKFtDSDJdW09IXSlbQ0BASF00W0NIMl1bQ0gyXU9bQ0gyXTQ=

> <s_epik_cmdline>
J2VwaWtfcHl0aG9uJywgJy1waCcsICc3LjAnLCAnLXRuJywgJzgnLCAnLW1hJywgJzIwMCcsICctbWV0YWxfYmluZGluZycsICctaW1hZScsICc8aW5maWxlLm1hZT4nLCAnLW9tYWUnLCAnPG91dGZpbGUubWFlPic=

> <r_lp_tautomer_probability>
1

> <r_epik_Ionization_Penalty>
2.17574

> <r_epik_Ionization_Penalty_Charging>
0

> <r_epik_Ionization_Penalty_Neutral>
2.17574

> <r_epik_State_Penalty>
2.31336

> <r_epik_Charging_Adjusted_Penalty>
2.31336

> <i_epik_Tot_Q>
0

> <i_epik_Tot_abs_Q>
0

> <r_epik_Metal_State_Penalty>
2.31025

> <b_epik_Metal_Only>
0

> <s_lp_Force_Field>
OPLS_2005

> <r_lp_Energy>
69.6605

> <b_lp_Chiralities_Consistent>
1

> <s_lp_Variant>
AV-unprocessed.smi:21-43

> <Gold.Version>
5.8.1

> <Gold.Id.Protein>
6NUR|6NUR_protein|mol2

> <Gold.PLP.Fitness>
45.6207

> <Gold.PLP.PLP>
-40.0851

> <Gold.PLP.part.hbond>
-1.0000

> <Gold.PLP.part.metal>
0.0000

> <Gold.PLP.part.buried>
-4.4849

> <Gold.PLP.part.nonpolar>
-35.8514

> <Gold.PLP.part.repulsive>
0.5306

> <Gold.PLP.ligand.clash>
0.0000

> <Gold.PLP.ligand.torsion>
0.5640

> <Gold.PLP.Chemscore.Hbond>
1.0000

> <Gold.PLP.Chemscore.CHOScore>
1.0000

> <Gold.PLP.Chemscore.Metal>
0.0000

> <Gold.Chemscore.Hbonds>
donor molecule, donor type, donor heavy atom, donor atom, acceptor molecule, acceptor atom, score
      L1  H    21    49       P1 10175  0.98
      L1  C    16    43       P1 10171  1.00

> <Gold.PLP.Chemscore.Internal.Correction>
0.6636

> <Gold.Rescore>
     Score         DG    S(hbond)    S(metal)    S(lipo)     H(rot)  DE(clash)    DE(int)     intcor
      7.77     -13.11       0.99        0.00     102.63       3.00       0.98       4.36       ----

> <Gold.Chemscore.Fitness>
7.7725

> <Gold.Chemscore.DG>
-13.1075

> <Gold.Chemscore.ZeroCoef>
-5.4800

> <Gold.Chemscore.Hbond>
0.9903

> <Gold.Chemscore.Metal>
0.0000

> <Gold.Chemscore.Lipo>
102.6303

> <Gold.Chemscore.Internal_Hbond>
0.0000

> <Gold.Chemscore.DEClash>
0.9777

> <Gold.Chemscore.DEInternal>
4.3572

> <Gold.Chemscore.Rot>
3.0031

> <Gold.Chemscore.Internal.Correction>
   9.000000E+99

> <Gold.Chemscore.Hbonds>
donor molecule, donor type, donor heavy atom, donor atom, acceptor molecule, acceptor atom, score
      L1  H    21    49       P1 10175  0.93

> <Gold.Chemscore.Hbond.Weighted>
-3.3077

> <Gold.Chemscore.Metal.Weighted>
-0.0000

> <Gold.Chemscore.Lipo.Weighted>
-12.0077

> <Gold.Chemscore.Internal_Hbond.Weighted>
0.0000

> <Gold.Chemscore.DEClash.Weighted>
0.9777

> <Gold.Chemscore.DEInternal.Weighted>
4.3572

> <Gold.Chemscore.Rot.Weighted>
7.6880

> <Gold.Chemscore.Internal.Correction.Weighted>
   9.000000E+99

> <Gold.Protein.RotatedTorsions>
[ 6907 6896 6895 6894 ] final  174.81 input  -60.11 | X-H torsion
[ 7974 7965 7964 7962 ] final  172.09 input  175.53 | X-H torsion
[ 8008 7997 7996 7995 ] final   20.80 input   59.86 | X-H torsion
[ 10167 10162 10161 10158 ] final   93.03 input  -65.29 | X-H torsion
[ 10718 10713 10712 10709 ] final -122.77 input   66.30 | X-H torsion
[ 10763 10752 10751 10750 ] final -177.12 input  -60.55 | X-H torsion
[ 11005 11000 10999 10996 ] final   92.75 input  -57.11 | X-H torsion

> <Gold.Protein.ActiveResidues>
 VAL166  LYS551  ARG553  GLY616  TRP617  ASP618  TYR619  PRO620  LYS621  CYS622 
 ASP623  PHE694  ASN695  SER759  ASP760  ASP761  ALA762  ILE779  LEU786  VAL792 
 PHE793  MET794  SER795  GLU796  ALA797  LYS798  CYS799  TRP800  GLU811  SER814 

> <Gold.Protein.RotatedAtoms>
  151.7463  133.3325  159.3379 H   0  0  0  0  0  0  0  0  0  0  0  0  # atno 6907 bound_to 6896
  150.7553  134.6232  159.6156 H   0  0  0  0  0  0  0  0  0  0  0  0  # atno 6908 bound_to 6896
  152.3497  134.7024  160.0291 H   0  0  0  0  0  0  0  0  0  0  0  0  # atno 6909 bound_to 6896
  144.7277  139.9447  143.6430 H   0  0  0  0  0  0  0  0  0  0  0  0  # atno 7974 bound_to 7965
  154.9410  140.3053  155.5121 H   0  0  0  0  0  0  0  0  0  0  0  0  # atno 8008 bound_to 7997
  156.2996  140.2336  156.4416 H   0  0  0  0  0  0  0  0  0  0  0  0  # atno 8009 bound_to 7997
  154.8145  140.0426  157.1355 H   0  0  0  0  0  0  0  0  0  0  0  0  # atno 8010 bound_to 7997
  139.8219  144.6727  150.9508 H   0  0  0  0  0  0  0  0  0  0  0  0  # atno 10167 bound_to 10162
  156.1446  130.6491  150.9823 H   0  0  0  0  0  0  0  0  0  0  0  0  # atno 10718 bound_to 10713
  154.5640  135.2822  155.0891 H   0  0  0  0  0  0  0  0  0  0  0  0  # atno 10763 bound_to 10752
  154.2289  135.6377  153.5172 H   0  0  0  0  0  0  0  0  0  0  0  0  # atno 10764 bound_to 10752
  153.0037  135.5532  154.6243 H   0  0  0  0  0  0  0  0  0  0  0  0  # atno 10765 bound_to 10752
  139.8819  134.8751  156.3617 H   0  0  0  0  0  0  0  0  0  0  0  0  # atno 11005 bound_to 11000
  146.0758  139.3746  143.0495 LP  0  0  0  0  0  0  0  0  0  0  0  0  # atno 17320 bound_to 7965
  145.7907  140.9815  143.1050 LP  0  0  0  0  0  0  0  0  0  0  0  0  # atno 17321 bound_to 7965
  140.7813  143.4084  151.1034 LP  0  0  0  0  0  0  0  0  0  0  0  0  # atno 17342 bound_to 10162
  139.7743  143.8447  152.3126 LP  0  0  0  0  0  0  0  0  0  0  0  0  # atno 17343 bound_to 10162
  157.6605  131.0881  150.7848 LP  0  0  0  0  0  0  0  0  0  0  0  0  # atno 17370 bound_to 10713
  156.7921  130.4893  149.5383 LP  0  0  0  0  0  0  0  0  0  0  0  0  # atno 17371 bound_to 10713
  140.9524  133.7442  156.0290 LP  0  0  0  0  0  0  0  0  0  0  0  0  # atno 17394 bound_to 11000
  140.8089  134.3422  157.5418 LP  0  0  0  0  0  0  0  0  0  0  0  0  # atno 17395 bound_to 11000

$$$$
