AV-unprocessed.smi:72|AV-procd|sdf|718|dock7
  -GOLD-   2262017 43D 1   1.00000     0.00000
 Structure written by MMmdl.
 28 29  0  0  0  0  0  0  0  0  2 V2000
  154.2623  137.9506  154.5846 N   0  0  0  0  0  0  0  0  0  0  0  0
  153.0411  138.2617  154.6170 C   0  0  0  0  0  0  0  0  0  0  0  0
  152.0639  137.4418  153.9339 N   0  0  0  0  0  0  0  0  0  0  0  0
  150.8214  137.8125  153.9855 C   0  0  0  0  0  0  0  0  0  0  0  0
  150.4093  139.0183  154.6915 N   0  0  0  0  0  0  0  0  0  0  0  0
  148.9540  139.4376  154.7510 C   0  0  1  0  0  0  0  0  0  0  0  0
  148.4065  139.3858  153.4716 O   0  0  0  0  0  0  0  0  0  0  0  0
  147.0102  139.1684  153.5952 C   0  0  1  0  0  0  0  0  0  0  0  0
  146.4390  138.6473  152.2674 C   0  0  0  0  0  0  0  0  0  0  0  0
  147.4864  138.3637  151.3645 O   0  0  0  0  0  0  0  0  0  0  0  0
  146.9296  138.1488  154.7381 C   0  0  2  0  0  0  0  0  0  0  0  0
  145.6911  138.2683  155.4099 O   0  0  0  0  0  0  0  0  0  0  0  0
  148.0848  138.5383  155.6591 C   0  0  1  0  0  0  0  0  0  0  0  0
  148.7454  137.3817  156.1414 O   0  0  0  0  0  0  0  0  0  0  0  0
  151.3850  139.7878  155.3777 C   0  0  0  0  0  0  0  0  0  0  0  0
  151.0075  140.7761  156.0074 O   0  0  0  0  0  0  0  0  0  0  0  0
  152.6875  139.3922  155.3205 N   0  5  0  0  0  0  0  0  0  0  0  0
  148.9449  140.4836  155.0623 H   0  0  0  0  0  0  0  0  0  0  0  0
  146.5303  140.1034  153.8939 H   0  0  0  0  0  0  0  0  0  0  0  0
  147.0608  137.1366  154.3512 H   0  0  0  0  0  0  0  0  0  0  0  0
  147.7526  139.1430  156.5044 H   0  0  0  0  0  0  0  0  0  0  0  0
  154.4306  137.1114  154.0488 H   0  0  0  0  0  0  0  0  0  0  0  0
  150.0151  137.2486  153.5150 H   0  0  0  0  0  0  0  0  0  0  0  0
  145.8182  137.7642  152.4225 H   0  0  0  0  0  0  0  0  0  0  0  0
  145.8094  139.4086  151.8060 H   0  0  0  0  0  0  0  0  0  0  0  0
  147.9833  137.6335  151.7005 H   0  0  0  0  0  0  0  0  0  0  0  0
  145.1424  137.5421  155.1558 H   0  0  0  0  0  0  0  0  0  0  0  0
  148.3360  136.6221  155.7545 H   0  0  0  0  0  0  0  0  0  0  0  0
  1  2  2  0  0  0  0
  1 22  1  0  0  0  0
  2 17  1  0  0  0  0
  2  3  1  0  0  0  0
  3  4  2  0  0  0  0
  4  5  1  0  0  0  0
  4 23  1  0  0  0  0
  5  6  1  0  0  0  0
  5 15  1  0  0  0  0
  6 18  1  0  0  0  0
  6 13  1  0  0  0  0
  6  7  1  0  0  0  0
  7  8  1  0  0  0  0
  8 19  1  0  0  0  0
  8  9  1  0  0  0  0
  8 11  1  0  0  0  0
  9 10  1  0  0  0  0
  9 24  1  0  0  0  0
  9 25  1  0  0  0  0
 10 26  1  0  0  0  0
 11 20  1  0  0  0  0
 11 12  1  0  0  0  0
 11 13  1  0  0  0  0
 12 27  1  0  0  0  0
 13 21  1  0  0  0  0
 13 14  1  0  0  0  0
 14 28  1  0  0  0  0
 15 16  2  0  0  0  0
 15 17  1  0  0  0  0
M  CHG  1  17  -1
M  END
> <s_m_source_file>
AV-unprocessed.smi

> <i_m_source_file_index>
72

> <i_lp_mmshare_version>
43012

> <i_f3d_flags>
0

> <s_epik_input>
W05IMl1jMW5bY0hdbihjKD1PKW4xKVtDQEBIXTJPW0NASF0oW0NIMl1bT0hdKVtDQEBIXShbT0hdKVtDQEhdMltPSF0=

> <s_epik_cmdline>
J2VwaWtfcHl0aG9uJywgJy1waCcsICc3LjAnLCAnLXRuJywgJzgnLCAnLW1hJywgJzIwMCcsICctbWV0YWxfYmluZGluZycsICctaW1hZScsICc8aW5maWxlLm1hZT4nLCAnLW9tYWUnLCAnPG91dGZpbGUubWFlPic=

> <r_lp_tautomer_probability>
7.17554e-07

> <r_epik_Ionization_Penalty>
12.8705

> <r_epik_Ionization_Penalty_Charging>
5.64144

> <r_epik_Ionization_Penalty_Neutral>
7.22905

> <r_epik_State_Penalty>
3.30104

> <r_epik_Charging_Adjusted_Penalty>
8.94249

> <i_epik_Tot_Q>
-1

> <i_epik_Tot_abs_Q>
1

> <r_epik_Metal_State_Penalty>
0.529074

> <b_epik_Metal_Only>
1

> <s_epik_Chemistry_Notes>
This compound contains an acetal/aminal-like group ( X-CH(R)-Y where X, Y are N, S, or O) that may be acid/base labile, releasing an aldehyde.

> <s_lp_Force_Field>
OPLS_2005

> <r_lp_Energy>
37.5202

> <b_lp_Chiralities_Consistent>
1

> <s_lp_Variant>
AV-unprocessed.smi:72-56

> <Gold.Version>
5.8.1

> <Gold.Id.Protein>
6NUR|6NUR_protein|mol2

> <Gold.PLP.Fitness>
39.9662

> <Gold.PLP.PLP>
-24.8285

> <Gold.PLP.part.hbond>
-7.0362

> <Gold.PLP.part.metal>
0.0000

> <Gold.PLP.part.buried>
-4.8921

> <Gold.PLP.part.nonpolar>
-17.9807

> <Gold.PLP.part.repulsive>
3.1014

> <Gold.PLP.ligand.clash>
0.0000

> <Gold.PLP.ligand.torsion>
0.9853

> <Gold.PLP.Chemscore.Hbond>
4.6580

> <Gold.PLP.Chemscore.CHOScore>
1.0007

> <Gold.PLP.Chemscore.Metal>
0.0000

> <Gold.Chemscore.Hbonds>
donor molecule, donor type, donor heavy atom, donor atom, acceptor molecule, acceptor atom, score
      L1  H    10    26       P1  7948  1.00
      P1  H  7954  7966       L1    10  0.15
      P1  H  7997  8010       L1    17  2.00
      P1  H 10752 10765       L1     3  0.80
      L1  C     4    23       P1  7948  1.00

> <Gold.PLP.Chemscore.Internal.Correction>
0.1322

> <Gold.Rescore>
     Score         DG    S(hbond)    S(metal)    S(lipo)     H(rot)  DE(clash)    DE(int)     intcor
      1.73      -4.27       2.21        0.00      14.82       4.04       1.29       1.25       ----

> <Gold.Chemscore.Fitness>
1.7257

> <Gold.Chemscore.DG>
-4.2670

> <Gold.Chemscore.ZeroCoef>
-5.4800

> <Gold.Chemscore.Hbond>
2.2144

> <Gold.Chemscore.Metal>
0.0000

> <Gold.Chemscore.Lipo>
14.8201

> <Gold.Chemscore.Internal_Hbond>
0.0000

> <Gold.Chemscore.DEClash>
1.2900

> <Gold.Chemscore.DEInternal>
1.2513

> <Gold.Chemscore.Rot>
4.0403

> <Gold.Chemscore.Internal.Correction>
   9.000000E+99

> <Gold.Chemscore.Hbonds>
donor molecule, donor type, donor heavy atom, donor atom, acceptor molecule, acceptor atom, score
      L1  H    10    26       P1  7948  1.00
      P1  H  7997  8010       L1    17  0.62
      P1  H 10752 10765       L1     3  0.13

> <Gold.Chemscore.Hbond.Weighted>
-7.3962

> <Gold.Chemscore.Metal.Weighted>
-0.0000

> <Gold.Chemscore.Lipo.Weighted>
-1.7339

> <Gold.Chemscore.Internal_Hbond.Weighted>
0.0000

> <Gold.Chemscore.DEClash.Weighted>
1.2900

> <Gold.Chemscore.DEInternal.Weighted>
1.2513

> <Gold.Chemscore.Rot.Weighted>
10.3431

> <Gold.Chemscore.Internal.Correction.Weighted>
   9.000000E+99

> <Gold.Protein.RotatedTorsions>
[ 6907 6896 6895 6894 ] final    7.39 input  -60.11 | X-H torsion
[ 7974 7965 7964 7962 ] final  -59.80 input  175.53 | X-H torsion
[ 8008 7997 7996 7995 ] final   86.33 input   59.86 | X-H torsion
[ 10167 10162 10161 10158 ] final  -71.49 input  -65.29 | X-H torsion
[ 10718 10713 10712 10709 ] final  -45.94 input   66.30 | X-H torsion
[ 10763 10752 10751 10750 ] final  153.14 input  -60.55 | X-H torsion
[ 11005 11000 10999 10996 ] final  -19.07 input  -57.11 | X-H torsion

> <Gold.Protein.ActiveResidues>
 VAL166  LYS551  ARG553  GLY616  TRP617  ASP618  TYR619  PRO620  LYS621  CYS622 
 ASP623  PHE694  ASN695  SER759  ASP760  ASP761  ALA762  ILE779  LEU786  VAL792 
 PHE793  MET794  SER795  GLU796  ALA797  LYS798  CYS799  TRP800  GLU811  SER814 

> <Gold.Protein.RotatedAtoms>
  151.6891  135.0949  160.0230 H   0  0  0  0  0  0  0  0  0  0  0  0  # atno 6907 bound_to 6896
  152.3789  133.6515  159.6154 H   0  0  0  0  0  0  0  0  0  0  0  0  # atno 6908 bound_to 6896
  150.7731  133.9063  159.3397 H   0  0  0  0  0  0  0  0  0  0  0  0  # atno 6909 bound_to 6896
  145.8231  140.8528  143.0122 H   0  0  0  0  0  0  0  0  0  0  0  0  # atno 7974 bound_to 7965
  155.9614  140.3393  155.6494 H   0  0  0  0  0  0  0  0  0  0  0  0  # atno 8008 bound_to 7997
  155.6793  140.0736  157.2509 H   0  0  0  0  0  0  0  0  0  0  0  0  # atno 8009 bound_to 7997
  154.4144  140.1677  156.1952 H   0  0  0  0  0  0  0  0  0  0  0  0  # atno 8010 bound_to 7997
  140.5269  143.2325  151.7331 H   0  0  0  0  0  0  0  0  0  0  0  0  # atno 10167 bound_to 10162
  156.2232  130.4167  149.8966 H   0  0  0  0  0  0  0  0  0  0  0  0  # atno 10718 bound_to 10713
  154.1314  135.2826  155.3184 H   0  0  0  0  0  0  0  0  0  0  0  0  # atno 10763 bound_to 10752
  154.6353  135.5421  153.7730 H   0  0  0  0  0  0  0  0  0  0  0  0  # atno 10764 bound_to 10752
  153.0280  135.6473  154.1464 H   0  0  0  0  0  0  0  0  0  0  0  0  # atno 10765 bound_to 10752
  140.8330  133.7982  155.9779 H   0  0  0  0  0  0  0  0  0  0  0  0  # atno 11005 bound_to 11000
  144.6746  140.0562  143.7477 LP  0  0  0  0  0  0  0  0  0  0  0  0  # atno 17320 bound_to 7965
  145.9653  139.2830  143.1131 LP  0  0  0  0  0  0  0  0  0  0  0  0  # atno 17321 bound_to 7965
  139.4941  144.4172  152.0017 LP  0  0  0  0  0  0  0  0  0  0  0  0  # atno 17342 bound_to 10162
  140.3272  144.3359  150.5995 LP  0  0  0  0  0  0  0  0  0  0  0  0  # atno 17343 bound_to 10162
  156.6605  130.8780  151.3546 LP  0  0  0  0  0  0  0  0  0  0  0  0  # atno 17370 bound_to 10713
  157.7098  130.9427  150.1050 LP  0  0  0  0  0  0  0  0  0  0  0  0  # atno 17371 bound_to 10713
  140.8977  134.2417  157.5059 LP  0  0  0  0  0  0  0  0  0  0  0  0  # atno 17394 bound_to 11000
  139.8704  134.9692  156.4657 LP  0  0  0  0  0  0  0  0  0  0  0  0  # atno 17395 bound_to 11000

$$$$
