AV-unprocessed.smi:1700|AV-procd|sdf|6819|dock4
  -GOLD-   22720 7593D 1   1.00000     0.00000
 Structure written by MMmdl.
 34 35  0  0  0  0  0  0  0  0  1 V2000
  151.8621  144.7298  157.5476 C   0  0  0  0  0  0  0  0  0  0  0  0
  152.0495  143.3888  158.2387 C   0  0  0  0  0  0  0  0  0  0  0  0
  153.0104  143.2696  159.2651 C   0  0  0  0  0  0  0  0  0  0  0  0
  153.1831  142.0292  159.9026 C   0  0  0  0  0  0  0  0  0  0  0  0
  152.3819  140.9533  159.4840 C   0  0  0  0  0  0  0  0  0  0  0  0
  151.4614  141.0582  158.5041 N   0  0  0  0  0  0  0  0  0  0  0  0
  151.2820  142.2486  157.8780 C   0  0  0  0  0  0  0  0  0  0  0  0
  150.3327  142.4312  156.8326 N   0  0  0  0  0  0  0  0  0  0  0  0
  149.8245  141.5113  155.9933 C   0  0  0  0  0  0  0  0  0  0  0  0
  150.0843  140.3077  156.0104 O   0  0  0  0  0  0  0  0  0  0  0  0
  148.9795  142.0705  155.1154 N   0  0  0  0  0  0  0  0  0  0  0  0
  148.2590  141.3478  154.0733 C   0  0  0  0  0  0  0  0  0  0  0  0
  146.7662  141.7149  154.0590 C   0  0  2  0  0  0  0  0  0  0  0  0
  146.5015  143.1978  153.8080 C   0  0  0  0  0  0  0  0  0  0  0  0
  145.1339  143.3699  154.4279 C   0  0  0  0  0  0  0  0  0  0  0  0
  145.2344  142.4734  155.6589 C   0  0  0  0  0  0  0  0  0  0  0  0
  146.1707  141.4503  155.3275 O   0  0  0  0  0  0  0  0  0  0  0  0
  152.5408  145.4823  157.9502 H   0  0  0  0  0  0  0  0  0  0  0  0
  150.8423  145.0907  157.6847 H   0  0  0  0  0  0  0  0  0  0  0  0
  152.0581  144.6397  156.4788 H   0  0  0  0  0  0  0  0  0  0  0  0
  153.6104  144.1172  159.5628 H   0  0  0  0  0  0  0  0  0  0  0  0
  153.9105  141.9055  160.6913 H   0  0  0  0  0  0  0  0  0  0  0  0
  152.4826  139.9827  159.9469 H   0  0  0  0  0  0  0  0  0  0  0  0
  150.0131  143.3791  156.7014 H   0  0  0  0  0  0  0  0  0  0  0  0
  148.8155  143.0649  155.1748 H   0  0  0  0  0  0  0  0  0  0  0  0
  148.7132  141.5855  153.1112 H   0  0  0  0  0  0  0  0  0  0  0  0
  148.3823  140.2728  154.2156 H   0  0  0  0  0  0  0  0  0  0  0  0
  146.2330  141.1304  153.3072 H   0  0  0  0  0  0  0  0  0  0  0  0
  147.2305  143.8158  154.3344 H   0  0  0  0  0  0  0  0  0  0  0  0
  146.5288  143.4610  152.7501 H   0  0  0  0  0  0  0  0  0  0  0  0
  144.8984  144.4063  154.6715 H   0  0  0  0  0  0  0  0  0  0  0  0
  144.3666  142.9939  153.7499 H   0  0  0  0  0  0  0  0  0  0  0  0
  145.6238  143.0353  156.5087 H   0  0  0  0  0  0  0  0  0  0  0  0
  144.2699  142.0531  155.9447 H   0  0  0  0  0  0  0  0  0  0  0  0
  1  2  1  0  0  0  0
  1 18  1  0  0  0  0
  1 19  1  0  0  0  0
  1 20  1  0  0  0  0
  2  7  1  0  0  0  0
  2  3  2  0  0  0  0
  3  4  1  0  0  0  0
  3 21  1  0  0  0  0
  4  5  2  0  0  0  0
  4 22  1  0  0  0  0
  5  6  1  0  0  0  0
  5 23  1  0  0  0  0
  6  7  2  0  0  0  0
  7  8  1  0  0  0  0
  8  9  1  0  0  0  0
  8 24  1  0  0  0  0
  9 10  2  0  0  0  0
  9 11  1  0  0  0  0
 11 12  1  0  0  0  0
 11 25  1  0  0  0  0
 12 13  1  0  0  0  0
 12 26  1  0  0  0  0
 12 27  1  0  0  0  0
 13 17  1  0  0  0  0
 13 14  1  0  0  0  0
 13 28  1  0  0  0  0
 14 15  1  0  0  0  0
 14 29  1  0  0  0  0
 14 30  1  0  0  0  0
 15 16  1  0  0  0  0
 15 31  1  0  0  0  0
 15 32  1  0  0  0  0
 16 17  1  0  0  0  0
 16 33  1  0  0  0  0
 16 34  1  0  0  0  0
M  END
> <s_m_source_file>
AV-unprocessed.smi

> <i_m_source_file_index>
1700

> <i_lp_mmshare_version>
43012

> <i_f3d_flags>
0

> <s_epik_input>
W0NIM11jMVtjSF1bY0hdW2NIXW5jMVtOSF1DKD1PKVtOSF1bQ0gyXVtDQEBIXTJbQ0gyXVtDSDJdW0NIMl1PMg==

> <s_epik_cmdline>
J2VwaWtfcHl0aG9uJywgJy1waCcsICc3LjAnLCAnLXRuJywgJzgnLCAnLW1hJywgJzIwMCcsICctbWV0YWxfYmluZGluZycsICctaW1hZScsICc8aW5maWxlLm1hZT4nLCAnLW9tYWUnLCAnPG91dGZpbGUubWFlPic=

> <r_lp_tautomer_probability>
1

> <r_epik_Ionization_Penalty>
5.57253e-05

> <r_epik_Ionization_Penalty_Charging>
0

> <r_epik_Ionization_Penalty_Neutral>
5.57253e-05

> <r_epik_State_Penalty>
-0

> <r_epik_Charging_Adjusted_Penalty>
0

> <i_epik_Tot_Q>
0

> <i_epik_Tot_abs_Q>
0

> <r_epik_Metal_State_Penalty>
-0

> <b_epik_Metal_Only>
0

> <s_lp_Force_Field>
OPLS_2005

> <r_lp_Energy>
19.3296

> <b_lp_Chiralities_Consistent>
1

> <s_lp_Variant>
AV-unprocessed.smi:1700-1

> <Gold.Version>
5.8.1

> <Gold.Id.Protein>
6NUR|6NUR_protein|mol2

> <Gold.PLP.Fitness>
43.3391

> <Gold.PLP.PLP>
-37.7299

> <Gold.PLP.part.hbond>
-2.0000

> <Gold.PLP.part.metal>
0.0000

> <Gold.PLP.part.buried>
-5.7136

> <Gold.PLP.part.nonpolar>
-30.5631

> <Gold.PLP.part.repulsive>
0.3493

> <Gold.PLP.ligand.clash>
0.0000

> <Gold.PLP.ligand.torsion>
0.1962

> <Gold.PLP.Chemscore.Hbond>
2.0000

> <Gold.PLP.Chemscore.CHOScore>
0.0000

> <Gold.PLP.Chemscore.Metal>
0.0000

> <Gold.Chemscore.Hbonds>
donor molecule, donor type, donor heavy atom, donor atom, acceptor molecule, acceptor atom, score
      L1  H     8    24       P1  8028  0.99
      L1  H    11    25       P1  8028  1.00

> <Gold.PLP.Chemscore.Internal.Correction>
0.0016

> <Gold.Rescore>
     Score         DG    S(hbond)    S(metal)    S(lipo)     H(rot)  DE(clash)    DE(int)     intcor
     16.58     -19.28       1.97        0.00      88.75       1.23       1.31       1.39       ----

> <Gold.Chemscore.Fitness>
16.5785

> <Gold.Chemscore.DG>
-19.2797

> <Gold.Chemscore.ZeroCoef>
-5.4800

> <Gold.Chemscore.Hbond>
1.9682

> <Gold.Chemscore.Metal>
0.0000

> <Gold.Chemscore.Lipo>
88.7530

> <Gold.Chemscore.Internal_Hbond>
0.0000

> <Gold.Chemscore.DEClash>
1.3088

> <Gold.Chemscore.DEInternal>
1.3924

> <Gold.Chemscore.Rot>
1.2337

> <Gold.Chemscore.Internal.Correction>
   9.000000E+99

> <Gold.Chemscore.Hbonds>
donor molecule, donor type, donor heavy atom, donor atom, acceptor molecule, acceptor atom, score
      L1  H     8    24       P1  8028  0.87
      L1  H    11    25       P1  8028  1.00

> <Gold.Chemscore.Hbond.Weighted>
-6.5738

> <Gold.Chemscore.Metal.Weighted>
-0.0000

> <Gold.Chemscore.Lipo.Weighted>
-10.3841

> <Gold.Chemscore.Internal_Hbond.Weighted>
0.0000

> <Gold.Chemscore.DEClash.Weighted>
1.3088

> <Gold.Chemscore.DEInternal.Weighted>
1.3924

> <Gold.Chemscore.Rot.Weighted>
3.1582

> <Gold.Chemscore.Internal.Correction.Weighted>
   9.000000E+99

> <Gold.Protein.RotatedTorsions>
[ 6907 6896 6895 6894 ] final   21.29 input  -60.11 | X-H torsion
[ 7974 7965 7964 7962 ] final  -67.41 input  175.53 | X-H torsion
[ 8008 7997 7996 7995 ] final  -37.84 input   59.86 | X-H torsion
[ 10167 10162 10161 10158 ] final  -96.99 input  -65.29 | X-H torsion
[ 10718 10713 10712 10709 ] final -112.04 input   66.30 | X-H torsion
[ 10763 10752 10751 10750 ] final  -31.22 input  -60.55 | X-H torsion
[ 11005 11000 10999 10996 ] final -147.11 input  -57.11 | X-H torsion

> <Gold.Protein.ActiveResidues>
 VAL166  LYS551  ARG553  GLY616  TRP617  ASP618  TYR619  PRO620  LYS621  CYS622 
 ASP623  PHE694  ASN695  SER759  ASP760  ASP761  ALA762  ILE779  LEU786  VAL792 
 PHE793  MET794  SER795  GLU796  ALA797  LYS798  CYS799  TRP800  GLU811  SER814 

> <Gold.Protein.RotatedAtoms>
  151.9096  135.0344  160.0513 H   0  0  0  0  0  0  0  0  0  0  0  0  # atno 6907 bound_to 6896
  152.2291  133.5039  159.5214 H   0  0  0  0  0  0  0  0  0  0  0  0  # atno 6908 bound_to 6896
  150.7020  134.1157  159.4059 H   0  0  0  0  0  0  0  0  0  0  0  0  # atno 6909 bound_to 6896
  145.7296  140.9003  143.0587 H   0  0  0  0  0  0  0  0  0  0  0  0  # atno 7974 bound_to 7965
  154.4046  140.1593  156.2603 H   0  0  0  0  0  0  0  0  0  0  0  0  # atno 8008 bound_to 7997
  155.9042  140.3431  155.6027 H   0  0  0  0  0  0  0  0  0  0  0  0  # atno 8009 bound_to 7997
  155.7412  140.0793  157.2235 H   0  0  0  0  0  0  0  0  0  0  0  0  # atno 8010 bound_to 7997
  140.2880  143.3239  152.0374 H   0  0  0  0  0  0  0  0  0  0  0  0  # atno 10167 bound_to 10162
  156.0682  130.5899  150.8454 H   0  0  0  0  0  0  0  0  0  0  0  0  # atno 10718 bound_to 10713
  153.7938  135.6895  153.4867 H   0  0  0  0  0  0  0  0  0  0  0  0  # atno 10763 bound_to 10752
  153.1732  135.4534  154.9929 H   0  0  0  0  0  0  0  0  0  0  0  0  # atno 10764 bound_to 10752
  154.8034  135.3347  154.7432 H   0  0  0  0  0  0  0  0  0  0  0  0  # atno 10765 bound_to 10752
  140.7750  134.3145  157.5063 H   0  0  0  0  0  0  0  0  0  0  0  0  # atno 11005 bound_to 11000
  144.6896  139.9312  143.7472 LP  0  0  0  0  0  0  0  0  0  0  0  0  # atno 17320 bound_to 7965
  146.0550  139.3548  143.0616 LP  0  0  0  0  0  0  0  0  0  0  0  0  # atno 17321 bound_to 7965
  139.4945  144.6545  151.6603 LP  0  0  0  0  0  0  0  0  0  0  0  0  # atno 17342 bound_to 10162
  140.5756  144.0034  150.6240 LP  0  0  0  0  0  0  0  0  0  0  0  0  # atno 17343 bound_to 10162
  157.5737  131.0946  150.9379 LP  0  0  0  0  0  0  0  0  0  0  0  0  # atno 17370 bound_to 10713
  156.9590  130.5448  149.5285 LP  0  0  0  0  0  0  0  0  0  0  0  0  # atno 17371 bound_to 10713
  139.8750  134.9284  156.3450 LP  0  0  0  0  0  0  0  0  0  0  0  0  # atno 17394 bound_to 11000
  140.9537  133.7434  156.0307 LP  0  0  0  0  0  0  0  0  0  0  0  0  # atno 17395 bound_to 11000

$$$$
