AV-unprocessed.smi:26|AV-procd|sdf|186|dock4
  -GOLD-   2262015453D 1   1.00000     0.00000
 Structure written by MMmdl.
 58 61  0  0  0  0  0  0  0  0  1 V2000
  149.6550  133.2578  154.6838 C   0  0  0  0  0  0  0  0  0  0  0  0
  149.1952  134.6674  154.8834 C   0  0  0  0  0  0  0  0  0  0  0  0
  149.9476  135.7946  155.0239 C   0  0  0  0  0  0  0  0  0  0  0  0
  149.0764  136.9026  155.2008 C   0  0  0  0  0  0  0  0  0  0  0  0
  149.4344  138.3283  155.4194 C   0  0  0  0  0  0  0  0  0  0  0  0
  148.5984  139.2132  155.6093 O   0  0  0  0  0  0  0  0  0  0  0  0
  150.9403  138.6528  155.4008 C   0  0  0  0  0  0  0  0  0  0  0  0
  151.3836  139.3765  156.5866 N   0  0  0  0  0  0  0  0  0  0  0  0
  152.1950  138.6824  157.5193 C   0  0  0  0  0  0  0  0  0  0  0  0
  152.5271  137.5076  157.3514 O   0  0  0  0  0  0  0  0  0  0  0  0
  152.5837  139.4665  158.6864 C   0  0  0  0  0  0  0  0  0  0  0  0
  153.3512  138.9071  159.6372 F   0  0  0  0  0  0  0  0  0  0  0  0
  152.1814  140.7472  158.8317 C   0  0  0  0  0  0  0  0  0  0  0  0
  151.3870  141.4002  157.9044 N   0  0  0  0  0  0  0  0  0  0  0  0
  150.9433  142.8291  158.1230 C   0  0  1  0  0  0  0  0  0  0  0  0
  151.3531  143.3032  159.5221 C   0  0  0  0  0  0  0  0  0  0  0  0
  152.6529  144.0263  159.2419 C   0  0  0  0  0  0  0  0  0  0  0  0
  152.3821  144.6210  157.8651 C   0  0  0  0  0  0  0  0  0  0  0  0
  151.5846  143.6519  157.1908 O   0  0  0  0  0  0  0  0  0  0  0  0
  150.9487  140.7141  156.7505 C   0  0  0  0  0  0  0  0  0  0  0  0
  150.2049  141.2611  155.9329 O   0  0  0  0  0  0  0  0  0  0  0  0
  147.7867  136.4247  155.1449 C   0  0  0  0  0  0  0  0  0  0  0  0
  146.4887  137.1763  155.2603 C   0  0  0  0  0  0  0  0  0  0  0  0
  147.8528  135.0356  154.9611 N   0  0  0  0  0  0  0  0  0  0  0  0
  146.7259  134.0933  154.8676 C   0  0  1  0  0  0  0  0  0  0  0  0
  145.6993  134.3325  155.9937 C   0  0  0  0  0  0  0  0  0  0  0  0
  146.1639  133.9997  153.4453 C   0  0  0  0  0  0  0  0  0  0  0  0
  147.0027  133.5418  152.4040 C   0  0  0  0  0  0  0  0  0  0  0  0
  146.5182  133.4317  151.0865 C   0  0  0  0  0  0  0  0  0  0  0  0
  145.1847  133.7739  150.7961 C   0  0  0  0  0  0  0  0  0  0  0  0
  144.3372  134.2232  151.8256 C   0  0  0  0  0  0  0  0  0  0  0  0
  144.8216  134.3327  153.1436 C   0  0  0  0  0  0  0  0  0  0  0  0
  150.7437  133.2042  154.6618 H   0  0  0  0  0  0  0  0  0  0  0  0
  149.2858  132.8556  153.7402 H   0  0  0  0  0  0  0  0  0  0  0  0
  149.3092  132.6150  155.4938 H   0  0  0  0  0  0  0  0  0  0  0  0
  151.0275  135.8151  155.0096 H   0  0  0  0  0  0  0  0  0  0  0  0
  151.5376  137.7433  155.3208 H   0  0  0  0  0  0  0  0  0  0  0  0
  151.1997  139.2466  154.5230 H   0  0  0  0  0  0  0  0  0  0  0  0
  152.4958  141.2732  159.7206 H   0  0  0  0  0  0  0  0  0  0  0  0
  149.8668  142.8499  157.9468 H   0  0  0  0  0  0  0  0  0  0  0  0
  150.5988  144.0014  159.8873 H   0  0  0  0  0  0  0  0  0  0  0  0
  151.4451  142.4794  160.2310 H   0  0  0  0  0  0  0  0  0  0  0  0
  152.8942  144.7799  159.9916 H   0  0  0  0  0  0  0  0  0  0  0  0
  153.4786  143.3154  159.1926 H   0  0  0  0  0  0  0  0  0  0  0  0
  151.8097  145.5450  157.9571 H   0  0  0  0  0  0  0  0  0  0  0  0
  153.2966  144.8408  157.3140 H   0  0  0  0  0  0  0  0  0  0  0  0
  146.4719  138.0201  154.5707 H   0  0  0  0  0  0  0  0  0  0  0  0
  146.3622  137.5664  156.2701 H   0  0  0  0  0  0  0  0  0  0  0  0
  145.6134  136.5775  155.0314 H   0  0  0  0  0  0  0  0  0  0  0  0
  147.1058  133.0902  155.0497 H   0  0  0  0  0  0  0  0  0  0  0  0
  144.9537  133.5377  156.0212 H   0  0  0  0  0  0  0  0  0  0  0  0
  145.1712  135.2793  155.8915 H   0  0  0  0  0  0  0  0  0  0  0  0
  146.1928  134.3406  156.9660 H   0  0  0  0  0  0  0  0  0  0  0  0
  148.0278  133.2728  152.6131 H   0  0  0  0  0  0  0  0  0  0  0  0
  147.1701  133.0839  150.2989 H   0  0  0  0  0  0  0  0  0  0  0  0
  144.8121  133.6897  149.7860 H   0  0  0  0  0  0  0  0  0  0  0  0
  143.3126  134.4840  151.6048 H   0  0  0  0  0  0  0  0  0  0  0  0
  144.1461  134.6800  153.9102 H   0  0  0  0  0  0  0  0  0  0  0  0
  1  2  1  0  0  0  0
  1 33  1  0  0  0  0
  1 34  1  0  0  0  0
  1 35  1  0  0  0  0
  2 24  1  0  0  0  0
  2  3  2  0  0  0  0
  3  4  1  0  0  0  0
  3 36  1  0  0  0  0
  4  5  1  0  0  0  0
  4 22  2  0  0  0  0
  5  6  2  0  0  0  0
  5  7  1  0  0  0  0
  7  8  1  0  0  0  0
  7 37  1  0  0  0  0
  7 38  1  0  0  0  0
  8 20  1  0  0  0  0
  8  9  1  0  0  0  0
  9 10  2  0  0  0  0
  9 11  1  0  0  0  0
 11 12  1  0  0  0  0
 11 13  2  0  0  0  0
 13 14  1  0  0  0  0
 13 39  1  0  0  0  0
 14 15  1  0  0  0  0
 14 20  1  0  0  0  0
 15 19  1  0  0  0  0
 15 16  1  0  0  0  0
 15 40  1  0  0  0  0
 16 17  1  0  0  0  0
 16 41  1  0  0  0  0
 16 42  1  0  0  0  0
 17 18  1  0  0  0  0
 17 43  1  0  0  0  0
 17 44  1  0  0  0  0
 18 19  1  0  0  0  0
 18 45  1  0  0  0  0
 18 46  1  0  0  0  0
 20 21  2  0  0  0  0
 22 23  1  0  0  0  0
 22 24  1  0  0  0  0
 23 47  1  0  0  0  0
 23 48  1  0  0  0  0
 23 49  1  0  0  0  0
 24 25  1  0  0  0  0
 25 26  1  0  0  0  0
 25 27  1  0  0  0  0
 25 50  1  0  0  0  0
 26 51  1  0  0  0  0
 26 52  1  0  0  0  0
 26 53  1  0  0  0  0
 27 32  1  0  0  0  0
 27 28  2  0  0  0  0
 28 29  1  0  0  0  0
 28 54  1  0  0  0  0
 29 30  2  0  0  0  0
 29 55  1  0  0  0  0
 30 31  1  0  0  0  0
 30 56  1  0  0  0  0
 31 32  2  0  0  0  0
 31 57  1  0  0  0  0
 32 58  1  0  0  0  0
M  END
> <s_m_source_file>
AV-unprocessed.smi

> <i_m_source_file_index>
26

> <i_lp_mmshare_version>
43012

> <i_f3d_flags>
0

> <s_epik_input>
W2NIXTFbY0hdW2NIXVtjSF1bY0hdYzFbQ0BASF0oW0NIM10pbjJjKFtDSDNdKWMoW2NIXWMyW0NIM10pQyg9TylbQ0gyXW4zYyg9TyljKEYpW2NIXW4oYzM9TylbQ0BASF00W0NIMl1bQ0gyXVtDSDJdTzQ=

> <s_epik_cmdline>
J2VwaWtfcHl0aG9uJywgJy1waCcsICc3LjAnLCAnLXRuJywgJzgnLCAnLW1hJywgJzIwMCcsICctbWV0YWxfYmluZGluZycsICctaW1hZScsICc8aW5maWxlLm1hZT4nLCAnLW9tYWUnLCAnPG91dGZpbGUubWFlPic=

> <r_lp_tautomer_probability>
1

> <r_epik_Ionization_Penalty>
5.02402e-09

> <r_epik_Ionization_Penalty_Charging>
5.01743e-09

> <r_epik_Ionization_Penalty_Neutral>
6.58831e-12

> <r_epik_State_Penalty>
-0

> <r_epik_Charging_Adjusted_Penalty>
5.01743e-09

> <i_epik_Tot_Q>
0

> <i_epik_Tot_abs_Q>
0

> <r_epik_Metal_State_Penalty>
-0

> <b_epik_Metal_Only>
0

> <s_epik_Chemistry_Notes>
This compound contains an acetal/aminal-like group ( X-CH(R)-Y where X, Y are N, S, or O) that may be acid/base labile, releasing an aldehyde.

> <s_lp_Force_Field>
OPLS_2005

> <r_lp_Energy>
50.594

> <b_lp_Chiralities_Consistent>
1

> <s_lp_Variant>
AV-unprocessed.smi:26-4

> <Gold.Version>
5.8.1

> <Gold.Id.Protein>
6NUR|6NUR_protein|mol2

> <Gold.PLP.Fitness>
43.8992

> <Gold.PLP.PLP>
-45.3384

> <Gold.PLP.part.hbond>
0.0000

> <Gold.PLP.part.metal>
0.0000

> <Gold.PLP.part.buried>
-7.0825

> <Gold.PLP.part.nonpolar>
-39.4468

> <Gold.PLP.part.repulsive>
0.2256

> <Gold.PLP.ligand.clash>
0.0000

> <Gold.PLP.ligand.torsion>
0.8918

> <Gold.PLP.Chemscore.Hbond>
0.0000

> <Gold.PLP.Chemscore.CHOScore>
0.0000

> <Gold.PLP.Chemscore.Metal>
0.0000

> <Gold.PLP.Chemscore.Internal.Correction>
0.3444

> <Gold.Rescore>
     Score         DG    S(hbond)    S(metal)    S(lipo)     H(rot)  DE(clash)    DE(int)     intcor
      8.49     -13.74       0.00        0.00     110.75       1.84       0.16       5.08       ----

> <Gold.Chemscore.Fitness>
8.4927

> <Gold.Chemscore.DG>
-13.7382

> <Gold.Chemscore.ZeroCoef>
-5.4800

> <Gold.Chemscore.Hbond>
0.0000

> <Gold.Chemscore.Metal>
0.0000

> <Gold.Chemscore.Lipo>
110.7542

> <Gold.Chemscore.Internal_Hbond>
0.0000

> <Gold.Chemscore.DEClash>
0.1620

> <Gold.Chemscore.DEInternal>
5.0835

> <Gold.Chemscore.Rot>
1.8359

> <Gold.Chemscore.Internal.Correction>
   9.000000E+99

> <Gold.Chemscore.Hbond.Weighted>
-0.0000

> <Gold.Chemscore.Metal.Weighted>
-0.0000

> <Gold.Chemscore.Lipo.Weighted>
-12.9582

> <Gold.Chemscore.Internal_Hbond.Weighted>
0.0000

> <Gold.Chemscore.DEClash.Weighted>
0.1620

> <Gold.Chemscore.DEInternal.Weighted>
5.0835

> <Gold.Chemscore.Rot.Weighted>
4.7000

> <Gold.Chemscore.Internal.Correction.Weighted>
   9.000000E+99

> <Gold.Protein.RotatedTorsions>
[ 6907 6896 6895 6894 ] final  -24.02 input  -60.11 | X-H torsion
[ 7974 7965 7964 7962 ] final -115.26 input  175.53 | X-H torsion
[ 8008 7997 7996 7995 ] final -137.61 input   59.86 | X-H torsion
[ 10167 10162 10161 10158 ] final  116.46 input  -65.29 | X-H torsion
[ 10718 10713 10712 10709 ] final  -55.60 input   66.30 | X-H torsion
[ 10763 10752 10751 10750 ] final -115.06 input  -60.55 | X-H torsion
[ 11005 11000 10999 10996 ] final  -26.38 input  -57.11 | X-H torsion

> <Gold.Protein.ActiveResidues>
 VAL166  LYS551  ARG553  GLY616  TRP617  ASP618  TYR619  PRO620  LYS621  CYS622 
 ASP623  PHE694  ASN695  SER759  ASP760  ASP761  ALA762  ILE779  LEU786  VAL792 
 PHE793  MET794  SER795  GLU796  ALA797  LYS798  CYS799  TRP800  GLU811  SER814 

> <Gold.Protein.RotatedAtoms>
  151.1956  135.0421  159.8850 H   0  0  0  0  0  0  0  0  0  0  0  0  # atno 6907 bound_to 6896
  152.5436  134.0907  159.8286 H   0  0  0  0  0  0  0  0  0  0  0  0  # atno 6908 bound_to 6896
  151.1041  133.5174  159.2640 H   0  0  0  0  0  0  0  0  0  0  0  0  # atno 6909 bound_to 6896
  145.1105  140.8608  143.3873 H   0  0  0  0  0  0  0  0  0  0  0  0  # atno 7974 bound_to 7965
  155.4146  140.0514  157.3029 H   0  0  0  0  0  0  0  0  0  0  0  0  # atno 8008 bound_to 7997
  154.4930  140.2127  155.9466 H   0  0  0  0  0  0  0  0  0  0  0  0  # atno 8009 bound_to 7997
  156.1368  140.3161  155.8439 H   0  0  0  0  0  0  0  0  0  0  0  0  # atno 8010 bound_to 7997
  139.6246  144.7106  151.2561 H   0  0  0  0  0  0  0  0  0  0  0  0  # atno 10167 bound_to 10162
  156.1356  130.4157  150.0192 H   0  0  0  0  0  0  0  0  0  0  0  0  # atno 10718 bound_to 10713
  154.8466  135.4395  154.1604 H   0  0  0  0  0  0  0  0  0  0  0  0  # atno 10763 bound_to 10752
  153.2742  135.6948  153.7456 H   0  0  0  0  0  0  0  0  0  0  0  0  # atno 10764 bound_to 10752
  153.6685  135.3423  155.3122 H   0  0  0  0  0  0  0  0  0  0  0  0  # atno 10765 bound_to 10752
  140.9024  133.7515  156.0561 H   0  0  0  0  0  0  0  0  0  0  0  0  # atno 11005 bound_to 11000
  145.0852  139.2930  143.5763 LP  0  0  0  0  0  0  0  0  0  0  0  0  # atno 17320 bound_to 7965
  146.3526  140.0372  142.8646 LP  0  0  0  0  0  0  0  0  0  0  0  0  # atno 17321 bound_to 7965
  140.7403  143.6592  150.8179 LP  0  0  0  0  0  0  0  0  0  0  0  0  # atno 17342 bound_to 10162
  140.0208  143.5544  152.2801 LP  0  0  0  0  0  0  0  0  0  0  0  0  # atno 17343 bound_to 10162
  156.8092  130.9318  151.3644 LP  0  0  0  0  0  0  0  0  0  0  0  0  # atno 17370 bound_to 10713
  157.6529  130.8899  149.9669 LP  0  0  0  0  0  0  0  0  0  0  0  0  # atno 17371 bound_to 10713
  140.8213  134.3286  157.5380 LP  0  0  0  0  0  0  0  0  0  0  0  0  # atno 17394 bound_to 11000
  139.8744  134.9311  156.3519 LP  0  0  0  0  0  0  0  0  0  0  0  0  # atno 17395 bound_to 11000

$$$$
