AV-unprocessed.smi:1007|AV-procd|sdf|4404|dock3
  -GOLD-   22720 2343D 1   1.00000     0.00000
 Structure written by MMmdl.
 57 59  0  0  0  0  0  0  0  0  3 V2000
  146.4413  137.1439  162.4058 C   0  0  0  0  0  0  0  0  0  0  0  0
  147.4824  137.2866  161.4552 O   0  0  0  0  0  0  0  0  0  0  0  0
  148.3254  136.1479  161.3970 C   0  0  0  0  0  0  0  0  0  0  0  0
  148.2667  135.5580  159.9798 C   0  0  0  0  0  0  0  0  0  0  0  0
  148.2227  136.6056  158.9288 N   0  3  0  0  0  0  0  0  0  0  0  0
  148.0253  136.0676  157.5561 C   0  0  0  0  0  0  0  0  0  0  0  0
  147.9392  137.2218  156.5371 C   0  0  0  0  0  0  0  0  0  0  0  0
  149.1097  138.1034  156.5557 N   0  0  0  0  0  0  0  0  0  0  0  0
  150.3381  137.5071  156.0174 C   0  0  0  0  0  0  0  0  0  0  0  0
  151.3638  138.5069  155.4489 C   0  0  2  0  0  0  0  0  0  0  0  0
  152.3872  137.7680  154.8128 O   0  0  0  0  0  0  0  0  0  0  0  0
  151.9936  139.3969  156.5395 C   0  0  0  0  0  0  0  0  0  0  0  0
  151.4008  140.7392  156.5830 N   0  0  0  0  0  0  0  0  0  0  0  0
  150.5198  141.3362  155.7354 C   0  0  0  0  0  0  0  0  0  0  0  0
  150.2676  142.5842  156.2193 N   0  3  0  0  0  0  0  0  0  0  0  0
  150.9985  142.7859  157.3924 C   0  0  0  0  0  0  0  0  0  0  0  0
  151.0731  143.8819  158.2438 C   0  0  0  0  0  0  0  0  0  0  0  0
  151.9184  143.7670  159.3708 C   0  0  0  0  0  0  0  0  0  0  0  0
  152.0190  144.9452  160.3246 C   0  0  0  0  0  0  0  0  0  0  0  0
  152.6577  142.5796  159.6116 C   0  0  0  0  0  0  0  0  0  0  0  0
  153.5648  142.4677  160.8252 C   0  0  0  0  0  0  0  0  0  0  0  0
  152.5687  141.4761  158.7332 C   0  0  0  0  0  0  0  0  0  0  0  0
  151.7293  141.6059  157.6299 C   0  0  0  0  0  0  0  0  0  0  0  0
  149.2801  138.6165  157.9148 C   0  0  0  0  0  0  0  0  0  0  0  0
  149.4054  137.5033  158.9754 C   0  0  0  0  0  0  0  0  0  0  0  0
  145.8235  138.0418  162.4102 H   0  0  0  0  0  0  0  0  0  0  0  0
  146.8409  137.0059  163.4113 H   0  0  0  0  0  0  0  0  0  0  0  0
  145.7999  136.2953  162.1640 H   0  0  0  0  0  0  0  0  0  0  0  0
  149.3512  136.4450  161.6207 H   0  0  0  0  0  0  0  0  0  0  0  0
  148.0363  135.4137  162.1491 H   0  0  0  0  0  0  0  0  0  0  0  0
  149.1491  134.9326  159.8366 H   0  0  0  0  0  0  0  0  0  0  0  0
  147.4035  134.8990  159.8765 H   0  0  0  0  0  0  0  0  0  0  0  0
  148.8349  135.3826  157.3015 H   0  0  0  0  0  0  0  0  0  0  0  0
  147.1031  135.4901  157.5088 H   0  0  0  0  0  0  0  0  0  0  0  0
  147.7716  136.8249  155.5371 H   0  0  0  0  0  0  0  0  0  0  0  0
  147.0514  137.8151  156.7608 H   0  0  0  0  0  0  0  0  0  0  0  0
  150.8299  136.9407  156.8098 H   0  0  0  0  0  0  0  0  0  0  0  0
  150.0915  136.7762  155.2476 H   0  0  0  0  0  0  0  0  0  0  0  0
  150.9026  139.1271  154.6811 H   0  0  0  0  0  0  0  0  0  0  0  0
  153.2238  138.1269  155.0674 H   0  0  0  0  0  0  0  0  0  0  0  0
  151.8911  138.9457  157.5270 H   0  0  0  0  0  0  0  0  0  0  0  0
  153.0641  139.5141  156.3643 H   0  0  0  0  0  0  0  0  0  0  0  0
  150.0932  140.8966  154.8453 H   0  0  0  0  0  0  0  0  0  0  0  0
  150.5080  144.7827  158.0540 H   0  0  0  0  0  0  0  0  0  0  0  0
  153.0443  145.3125  160.3729 H   0  0  0  0  0  0  0  0  0  0  0  0
  151.7073  144.6535  161.3278 H   0  0  0  0  0  0  0  0  0  0  0  0
  151.3835  145.7722  160.0063 H   0  0  0  0  0  0  0  0  0  0  0  0
  154.0710  141.5023  160.8575 H   0  0  0  0  0  0  0  0  0  0  0  0
  152.9889  142.5729  161.7448 H   0  0  0  0  0  0  0  0  0  0  0  0
  154.3305  143.2435  160.8046 H   0  0  0  0  0  0  0  0  0  0  0  0
  153.1303  140.5718  158.9146 H   0  0  0  0  0  0  0  0  0  0  0  0
  150.1527  139.2695  157.9584 H   0  0  0  0  0  0  0  0  0  0  0  0
  148.4261  139.2475  158.1656 H   0  0  0  0  0  0  0  0  0  0  0  0
  149.4770  137.9585  159.9638 H   0  0  0  0  0  0  0  0  0  0  0  0
  150.3186  136.9252  158.8293 H   0  0  0  0  0  0  0  0  0  0  0  0
  147.4230  137.1873  159.1361 H   0  0  0  0  0  0  0  0  0  0  0  0
  149.6396  143.2454  155.7808 H   0  0  0  0  0  0  0  0  0  0  0  0
  1  2  1  0  0  0  0
  1 26  1  0  0  0  0
  1 27  1  0  0  0  0
  1 28  1  0  0  0  0
  2  3  1  0  0  0  0
  3  4  1  0  0  0  0
  3 29  1  0  0  0  0
  3 30  1  0  0  0  0
  4  5  1  0  0  0  0
  4 31  1  0  0  0  0
  4 32  1  0  0  0  0
  5 25  1  0  0  0  0
  5  6  1  0  0  0  0
  5 56  1  0  0  0  0
  6  7  1  0  0  0  0
  6 33  1  0  0  0  0
  6 34  1  0  0  0  0
  7  8  1  0  0  0  0
  7 35  1  0  0  0  0
  7 36  1  0  0  0  0
  8  9  1  0  0  0  0
  8 24  1  0  0  0  0
  9 10  1  0  0  0  0
  9 37  1  0  0  0  0
  9 38  1  0  0  0  0
 10 11  1  0  0  0  0
 10 12  1  0  0  0  0
 10 39  1  0  0  0  0
 11 40  1  0  0  0  0
 12 13  1  0  0  0  0
 12 41  1  0  0  0  0
 12 42  1  0  0  0  0
 13 23  1  0  0  0  0
 13 14  1  0  0  0  0
 14 15  2  0  0  0  0
 14 43  1  0  0  0  0
 15 16  1  0  0  0  0
 15 57  1  0  0  0  0
 16 23  2  0  0  0  0
 16 17  1  0  0  0  0
 17 18  2  0  0  0  0
 17 44  1  0  0  0  0
 18 19  1  0  0  0  0
 18 20  1  0  0  0  0
 19 45  1  0  0  0  0
 19 46  1  0  0  0  0
 19 47  1  0  0  0  0
 20 21  1  0  0  0  0
 20 22  2  0  0  0  0
 21 48  1  0  0  0  0
 21 49  1  0  0  0  0
 21 50  1  0  0  0  0
 22 23  1  0  0  0  0
 22 51  1  0  0  0  0
 24 25  1  0  0  0  0
 24 52  1  0  0  0  0
 24 53  1  0  0  0  0
 25 54  1  0  0  0  0
 25 55  1  0  0  0  0
M  CHG  1   5   1
M  CHG  1  15   1
M  END
> <s_m_source_file>
AV-unprocessed.smi

> <i_m_source_file_index>
1007

> <i_lp_mmshare_version>
43012

> <i_f3d_flags>
0

> <s_epik_input>
W0NIM11PW0NIMl1bQ0gyXU4xW0NIMl1bQ0gyXU4oW0NIMl1bQ0gyXTEpW0NIMl1bQ0BIXShbT0hdKVtDSDJdbihbY0hdbjIpYyhjMjMpW2NIXWMoW0NIM10pYyhbY0hdMylbQ0gzXQ==

> <s_epik_cmdline>
J2VwaWtfcHl0aG9uJywgJy1waCcsICc3LjAnLCAnLXRuJywgJzgnLCAnLW1hJywgJzIwMCcsICctbWV0YWxfYmluZGluZycsICctaW1hZScsICc8aW5maWxlLm1hZT4nLCAnLW9tYWUnLCAnPG91dGZpbGUubWFlPic=

> <r_epik_Ionization_Penalty>
1.34507

> <r_epik_Ionization_Penalty_Charging>
1.29906

> <r_epik_Ionization_Penalty_Neutral>
0.0460038

> <r_epik_State_Penalty>
2.55679

> <r_epik_Charging_Adjusted_Penalty>
3.85586

> <i_epik_Tot_Q>
2

> <i_epik_Tot_abs_Q>
2

> <r_epik_Metal_State_Penalty>
6.56928

> <b_epik_Metal_Only>
0

> <s_lp_Force_Field>
OPLS_2005

> <r_lp_Energy>
40.0573

> <b_lp_Chiralities_Consistent>
1

> <s_lp_Variant>
AV-unprocessed.smi:1007-7

> <Gold.Version>
5.8.1

> <Gold.Id.Protein>
6NUR|6NUR_protein|mol2

> <Gold.PLP.Fitness>
55.3170

> <Gold.PLP.PLP>
-47.2802

> <Gold.PLP.part.hbond>
-4.0000

> <Gold.PLP.part.metal>
0.0000

> <Gold.PLP.part.buried>
-7.3618

> <Gold.PLP.part.nonpolar>
-36.5035

> <Gold.PLP.part.repulsive>
0.2229

> <Gold.PLP.ligand.clash>
0.0000

> <Gold.PLP.ligand.torsion>
1.4200

> <Gold.PLP.Chemscore.Hbond>
3.5755

> <Gold.PLP.Chemscore.CHOScore>
0.0000

> <Gold.PLP.Chemscore.Metal>
0.0000

> <Gold.Chemscore.Hbonds>
donor molecule, donor type, donor heavy atom, donor atom, acceptor molecule, acceptor atom, score
      L1  H    15    57       P1  8028  2.00
      P1  H  6931  6943       L1     2  0.31
      P1  H  6934  6947       L1     2  0.82
      P1  H 10752 10765       L1    11  0.32

> <Gold.PLP.Chemscore.Internal.Correction>
0.1503

> <Gold.Rescore>
     Score         DG    S(hbond)    S(metal)    S(lipo)     H(rot)  DE(clash)    DE(int)     intcor
     19.20     -20.53       2.22        0.00     123.05       2.64       0.01       1.32       ----

> <Gold.Chemscore.Fitness>
19.2000

> <Gold.Chemscore.DG>
-20.5288

> <Gold.Chemscore.ZeroCoef>
-5.4800

> <Gold.Chemscore.Hbond>
2.2212

> <Gold.Chemscore.Metal>
0.0000

> <Gold.Chemscore.Lipo>
123.0463

> <Gold.Chemscore.Internal_Hbond>
0.0000

> <Gold.Chemscore.DEClash>
0.0067

> <Gold.Chemscore.DEInternal>
1.3220

> <Gold.Chemscore.Rot>
2.6432

> <Gold.Chemscore.Internal.Correction>
   9.000000E+99

> <Gold.Chemscore.Hbonds>
donor molecule, donor type, donor heavy atom, donor atom, acceptor molecule, acceptor atom, score
      L1  H    15    57       P1  8028  0.97
      P1  H  6931  6943       L1     2  0.01
      P1  H  6934  6947       L1     2  0.18
      P1  H 10752 10765       L1    11  0.10

> <Gold.Chemscore.Hbond.Weighted>
-7.4189

> <Gold.Chemscore.Metal.Weighted>
-0.0000

> <Gold.Chemscore.Lipo.Weighted>
-14.3964

> <Gold.Chemscore.Internal_Hbond.Weighted>
0.0000

> <Gold.Chemscore.DEClash.Weighted>
0.0067

> <Gold.Chemscore.DEInternal.Weighted>
1.3220

> <Gold.Chemscore.Rot.Weighted>
6.7665

> <Gold.Chemscore.Internal.Correction.Weighted>
   9.000000E+99

> <Gold.Protein.RotatedTorsions>
[ 6907 6896 6895 6894 ] final -127.46 input  -60.11 | X-H torsion
[ 7974 7965 7964 7962 ] final  136.94 input  175.53 | X-H torsion
[ 8008 7997 7996 7995 ] final   -3.28 input   59.86 | X-H torsion
[ 10167 10162 10161 10158 ] final   58.24 input  -65.29 | X-H torsion
[ 10718 10713 10712 10709 ] final   -8.31 input   66.30 | X-H torsion
[ 10763 10752 10751 10750 ] final  162.96 input  -60.55 | X-H torsion
[ 11005 11000 10999 10996 ] final  -11.20 input  -57.11 | X-H torsion

> <Gold.Protein.ActiveResidues>
 VAL166  LYS551  ARG553  GLY616  TRP617  ASP618  TYR619  PRO620  LYS621  CYS622 
 ASP623  PHE694  ASN695  SER759  ASP760  ASP761  ALA762  ILE779  LEU786  VAL792 
 PHE793  MET794  SER795  GLU796  ALA797  LYS798  CYS799  TRP800  GLU811  SER814 

> <Gold.Protein.RotatedAtoms>
  150.9076  133.7039  159.2862 H   0  0  0  0  0  0  0  0  0  0  0  0  # atno 6907 bound_to 6896
  151.4536  135.1031  159.9714 H   0  0  0  0  0  0  0  0  0  0  0  0  # atno 6908 bound_to 6896
  152.4912  133.8455  159.7230 H   0  0  0  0  0  0  0  0  0  0  0  0  # atno 6909 bound_to 6896
  144.9516  139.4812  143.5523 H   0  0  0  0  0  0  0  0  0  0  0  0  # atno 7974 bound_to 7965
  154.6266  140.2513  155.7484 H   0  0  0  0  0  0  0  0  0  0  0  0  # atno 8008 bound_to 7997
  156.2456  140.2915  156.0518 H   0  0  0  0  0  0  0  0  0  0  0  0  # atno 8009 bound_to 7997
  155.1811  140.0389  157.2872 H   0  0  0  0  0  0  0  0  0  0  0  0  # atno 8010 bound_to 7997
  140.1894  144.4101  150.6578 H   0  0  0  0  0  0  0  0  0  0  0  0  # atno 10167 bound_to 10162
  156.7045  130.5103  149.5908 H   0  0  0  0  0  0  0  0  0  0  0  0  # atno 10718 bound_to 10713
  154.2864  135.2762  155.2674 H   0  0  0  0  0  0  0  0  0  0  0  0  # atno 10763 bound_to 10752
  154.5173  135.5766  153.6656 H   0  0  0  0  0  0  0  0  0  0  0  0  # atno 10764 bound_to 10752
  152.9921  135.6195  154.3026 H   0  0  0  0  0  0  0  0  0  0  0  0  # atno 10765 bound_to 10752
  140.7527  133.8579  155.9058 H   0  0  0  0  0  0  0  0  0  0  0  0  # atno 11005 bound_to 11000
  146.3323  139.8605  142.8857 LP  0  0  0  0  0  0  0  0  0  0  0  0  # atno 17320 bound_to 7965
  145.2835  141.0146  143.3704 LP  0  0  0  0  0  0  0  0  0  0  0  0  # atno 17321 bound_to 7965
  140.6466  143.2215  151.6172 LP  0  0  0  0  0  0  0  0  0  0  0  0  # atno 17342 bound_to 10162
  139.5262  144.3052  152.1040 LP  0  0  0  0  0  0  0  0  0  0  0  0  # atno 17343 bound_to 10162
  156.1705  130.6434  151.0831 LP  0  0  0  0  0  0  0  0  0  0  0  0  # atno 17370 bound_to 10713
  157.6960  131.0793  150.6967 LP  0  0  0  0  0  0  0  0  0  0  0  0  # atno 17371 bound_to 10713
  140.9736  134.1499  157.4556 LP  0  0  0  0  0  0  0  0  0  0  0  0  # atno 17394 bound_to 11000
  139.8784  134.9987  156.5913 LP  0  0  0  0  0  0  0  0  0  0  0  0  # atno 17395 bound_to 11000

$$$$
