AV-unprocessed.smi:3239|AV-procd|sdf|12379|dock10
  -GOLD-   2272018243D 1   1.00000     0.00000
 Structure written by MMmdl.
 35 35  0  0  0  0  0  0  0  0  1 V2000
  152.9003  143.1107  160.4678 C   0  0  0  0  0  0  0  0  0  0  0  0
  152.8695  141.9131  160.2314 C   0  0  0  0  0  0  0  0  0  0  0  0
  152.8528  140.4686  159.9427 C   0  0  0  0  0  0  0  0  0  0  0  0
  152.1086  140.1436  158.7311 N   0  0  0  0  0  0  0  0  0  0  0  0
  152.5666  139.3876  157.7187 C   0  0  0  0  0  0  0  0  0  0  0  0
  153.6789  138.8599  157.7130 O   0  0  0  0  0  0  0  0  0  0  0  0
  151.6005  139.1543  156.5936 C   0  0  0  0  0  0  0  0  0  0  0  0
  152.0371  138.7765  155.3039 C   0  0  0  0  0  0  0  0  0  0  0  0
  151.0792  138.5463  154.2973 C   0  0  0  0  0  0  0  0  0  0  0  0
  149.7120  138.6934  154.6104 C   0  0  0  0  0  0  0  0  0  0  0  0
  148.7656  138.4665  153.5997 N   0  0  0  0  0  0  0  0  0  0  0  0
  147.4971  139.1869  153.5460 C   0  0  2  0  0  0  0  0  0  0  0  0
  146.8091  138.9890  152.1836 C   0  0  0  0  0  0  0  0  0  0  0  0
  147.7287  140.6759  153.8464 C   0  0  0  0  0  0  0  0  0  0  0  0
  146.4905  141.2940  154.1566 O   0  0  0  0  0  0  0  0  0  0  0  0
  146.6347  142.6621  154.4953 C   0  0  0  0  0  0  0  0  0  0  0  0
  149.2876  139.0476  155.8459 N   0  0  0  0  0  0  0  0  0  0  0  0
  150.2093  139.2638  156.8084 C   0  0  0  0  0  0  0  0  0  0  0  0
  152.9326  144.1572  160.6731 H   0  0  0  0  0  0  0  0  0  0  0  0
  153.8845  140.1379  159.8228 H   0  0  0  0  0  0  0  0  0  0  0  0
  152.4460  139.9436  160.8084 H   0  0  0  0  0  0  0  0  0  0  0  0
  151.1718  140.5135  158.6606 H   0  0  0  0  0  0  0  0  0  0  0  0
  153.0872  138.6575  155.0794 H   0  0  0  0  0  0  0  0  0  0  0  0
  151.3929  138.2589  153.3043 H   0  0  0  0  0  0  0  0  0  0  0  0
  148.9280  137.7318  152.9263 H   0  0  0  0  0  0  0  0  0  0  0  0
  146.8469  138.7962  154.3295 H   0  0  0  0  0  0  0  0  0  0  0  0
  145.8506  139.5071  152.1475 H   0  0  0  0  0  0  0  0  0  0  0  0
  146.6134  137.9356  151.9825 H   0  0  0  0  0  0  0  0  0  0  0  0
  147.4247  139.3724  151.3693 H   0  0  0  0  0  0  0  0  0  0  0  0
  148.4034  140.7823  154.6976 H   0  0  0  0  0  0  0  0  0  0  0  0
  148.1985  141.1697  152.9938 H   0  0  0  0  0  0  0  0  0  0  0  0
  145.6575  143.0866  154.7258 H   0  0  0  0  0  0  0  0  0  0  0  0
  147.0618  143.2306  153.6681 H   0  0  0  0  0  0  0  0  0  0  0  0
  147.2712  142.7871  155.3723 H   0  0  0  0  0  0  0  0  0  0  0  0
  149.8167  139.5377  157.7770 H   0  0  0  0  0  0  0  0  0  0  0  0
  1  2  3  0  0  0  0
  1 19  1  0  0  0  0
  2  3  1  0  0  0  0
  3  4  1  0  0  0  0
  3 20  1  0  0  0  0
  3 21  1  0  0  0  0
  4  5  1  0  0  0  0
  4 22  1  0  0  0  0
  5  6  2  0  0  0  0
  5  7  1  0  0  0  0
  7 18  1  0  0  0  0
  7  8  2  0  0  0  0
  8  9  1  0  0  0  0
  8 23  1  0  0  0  0
  9 10  2  0  0  0  0
  9 24  1  0  0  0  0
 10 11  1  0  0  0  0
 10 17  1  0  0  0  0
 11 12  1  0  0  0  0
 11 25  1  0  0  0  0
 12 13  1  0  0  0  0
 12 14  1  0  0  0  0
 12 26  1  0  0  0  0
 13 27  1  0  0  0  0
 13 28  1  0  0  0  0
 13 29  1  0  0  0  0
 14 15  1  0  0  0  0
 14 30  1  0  0  0  0
 14 31  1  0  0  0  0
 15 16  1  0  0  0  0
 16 32  1  0  0  0  0
 16 33  1  0  0  0  0
 16 34  1  0  0  0  0
 17 18  2  0  0  0  0
 18 35  1  0  0  0  0
M  END
> <s_m_source_file>
AV-unprocessed.smi

> <i_m_source_file_index>
3239

> <i_lp_mmshare_version>
43012

> <i_f3d_flags>
0

> <s_epik_input>
W0NIXSNDW0NIMl1bTkhdQyg9TyljMVtjSF1bY0hdYyhuW2NIXTEpW05IXVtDQEhdKFtDSDNdKVtDSDJdT1tDSDNd

> <s_epik_cmdline>
J2VwaWtfcHl0aG9uJywgJy1waCcsICc3LjAnLCAnLXRuJywgJzgnLCAnLW1hJywgJzIwMCcsICctbWV0YWxfYmluZGluZycsICctaW1hZScsICc8aW5maWxlLm1hZT4nLCAnLW9tYWUnLCAnPG91dGZpbGUubWFlPic=

> <r_lp_tautomer_probability>
1

> <r_epik_Ionization_Penalty>
0.00321854

> <r_epik_Ionization_Penalty_Charging>
0

> <r_epik_Ionization_Penalty_Neutral>
0.00321854

> <r_epik_State_Penalty>
0.00226446

> <r_epik_Charging_Adjusted_Penalty>
0.00226446

> <i_epik_Tot_Q>
0

> <i_epik_Tot_abs_Q>
0

> <r_epik_Metal_State_Penalty>
-0

> <b_epik_Metal_Only>
0

> <s_lp_Force_Field>
OPLS_2005

> <r_lp_Energy>
6.08626

> <b_lp_Chiralities_Consistent>
1

> <s_lp_Variant>
AV-unprocessed.smi:3239-1

> <Gold.Version>
5.8.1

> <Gold.Id.Protein>
6NUR|6NUR_protein|mol2

> <Gold.PLP.Fitness>
41.0412

> <Gold.PLP.PLP>
-36.5378

> <Gold.PLP.part.hbond>
-2.9308

> <Gold.PLP.part.metal>
0.0000

> <Gold.PLP.part.buried>
-0.9020

> <Gold.PLP.part.nonpolar>
-31.8438

> <Gold.PLP.part.repulsive>
0.3935

> <Gold.PLP.ligand.clash>
0.0000

> <Gold.PLP.ligand.torsion>
0.7759

> <Gold.PLP.Chemscore.Hbond>
2.0000

> <Gold.PLP.Chemscore.CHOScore>
0.0000

> <Gold.PLP.Chemscore.Metal>
0.0000

> <Gold.Chemscore.Hbonds>
donor molecule, donor type, donor heavy atom, donor atom, acceptor molecule, acceptor atom, score
      L1  H    11    25       P1  7948  1.00
      P1  H  7997  8008       L1     6  0.85

> <Gold.PLP.Chemscore.Internal.Correction>
0.0553

> <Gold.Rescore>
     Score         DG    S(hbond)    S(metal)    S(lipo)     H(rot)  DE(clash)    DE(int)     intcor
     17.20     -17.58       1.96        0.00      83.01       1.62       0.02       0.36       ----

> <Gold.Chemscore.Fitness>
17.2040

> <Gold.Chemscore.DG>
-17.5786

> <Gold.Chemscore.ZeroCoef>
-5.4800

> <Gold.Chemscore.Hbond>
1.9555

> <Gold.Chemscore.Metal>
0.0000

> <Gold.Chemscore.Lipo>
83.0085

> <Gold.Chemscore.Internal_Hbond>
0.0000

> <Gold.Chemscore.DEClash>
0.0186

> <Gold.Chemscore.DEInternal>
0.3561

> <Gold.Chemscore.Rot>
1.6190

> <Gold.Chemscore.Internal.Correction>
   9.000000E+99

> <Gold.Chemscore.Hbonds>
donor molecule, donor type, donor heavy atom, donor atom, acceptor molecule, acceptor atom, score
      L1  H    11    25       P1  7948  1.00
      P1  H  7997  8008       L1     6  0.14

> <Gold.Chemscore.Hbond.Weighted>
-6.5313

> <Gold.Chemscore.Metal.Weighted>
-0.0000

> <Gold.Chemscore.Lipo.Weighted>
-9.7120

> <Gold.Chemscore.Internal_Hbond.Weighted>
0.0000

> <Gold.Chemscore.DEClash.Weighted>
0.0186

> <Gold.Chemscore.DEInternal.Weighted>
0.3561

> <Gold.Chemscore.Rot.Weighted>
4.1447

> <Gold.Chemscore.Internal.Correction.Weighted>
   9.000000E+99

> <Gold.Protein.RotatedTorsions>
[ 6907 6896 6895 6894 ] final -116.54 input  -60.11 | X-H torsion
[ 7974 7965 7964 7962 ] final  -74.71 input  175.53 | X-H torsion
[ 8008 7997 7996 7995 ] final  -69.52 input   59.86 | X-H torsion
[ 10167 10162 10161 10158 ] final  -93.36 input  -65.29 | X-H torsion
[ 10718 10713 10712 10709 ] final   67.35 input   66.30 | X-H torsion
[ 10763 10752 10751 10750 ] final  109.04 input  -60.55 | X-H torsion
[ 11005 11000 10999 10996 ] final  -15.79 input  -57.11 | X-H torsion

> <Gold.Protein.ActiveResidues>
 VAL166  LYS551  ARG553  GLY616  TRP617  ASP618  TYR619  PRO620  LYS621  CYS622 
 ASP623  PHE694  ASN695  SER759  ASP760  ASP761  ALA762  ILE779  LEU786  VAL792 
 PHE793  MET794  SER795  GLU796  ALA797  LYS798  CYS799  TRP800  GLU811  SER814 

> <Gold.Protein.RotatedAtoms>
  150.8064  133.8503  159.3203 H   0  0  0  0  0  0  0  0  0  0  0  0  # atno 6907 bound_to 6896
  151.6301  135.1022  160.0129 H   0  0  0  0  0  0  0  0  0  0  0  0  # atno 6908 bound_to 6896
  152.4154  133.6990  159.6470 H   0  0  0  0  0  0  0  0  0  0  0  0  # atno 6909 bound_to 6896
  145.6355  140.9326  143.1064 H   0  0  0  0  0  0  0  0  0  0  0  0  # atno 7974 bound_to 7965
  154.4945  140.0852  156.7666 H   0  0  0  0  0  0  0  0  0  0  0  0  # atno 8008 bound_to 7997
  155.4151  140.3443  155.4248 H   0  0  0  0  0  0  0  0  0  0  0  0  # atno 8009 bound_to 7997
  156.1374  140.1519  156.8960 H   0  0  0  0  0  0  0  0  0  0  0  0  # atno 8010 bound_to 7997
  140.3255  143.3025  152.0000 H   0  0  0  0  0  0  0  0  0  0  0  0  # atno 10167 bound_to 10162
  157.6225  130.9316  150.0230 H   0  0  0  0  0  0  0  0  0  0  0  0  # atno 10718 bound_to 10713
  153.4291  135.3793  155.2159 H   0  0  0  0  0  0  0  0  0  0  0  0  # atno 10763 bound_to 10752
  154.8749  135.3835  154.4290 H   0  0  0  0  0  0  0  0  0  0  0  0  # atno 10764 bound_to 10752
  153.4820  135.7088  153.5995 H   0  0  0  0  0  0  0  0  0  0  0  0  # atno 10765 bound_to 10752
  140.8003  133.8219  155.9463 H   0  0  0  0  0  0  0  0  0  0  0  0  # atno 11005 bound_to 11000
  144.7177  139.8138  143.7393 LP  0  0  0  0  0  0  0  0  0  0  0  0  # atno 17320 bound_to 7965
  146.1323  139.4361  143.0161 LP  0  0  0  0  0  0  0  0  0  0  0  0  # atno 17321 bound_to 7965
  139.4866  144.6277  151.7131 LP  0  0  0  0  0  0  0  0  0  0  0  0  # atno 17342 bound_to 10162
  140.5445  144.0525  150.6101 LP  0  0  0  0  0  0  0  0  0  0  0  0  # atno 17343 bound_to 10162
  156.1378  130.3642  149.9630 LP  0  0  0  0  0  0  0  0  0  0  0  0  # atno 17370 bound_to 10713
  156.7677  130.9175  151.3643 LP  0  0  0  0  0  0  0  0  0  0  0  0  # atno 17371 bound_to 10713
  140.9302  134.2032  157.4869 LP  0  0  0  0  0  0  0  0  0  0  0  0  # atno 17394 bound_to 11000
  139.8722  134.9829  156.5177 LP  0  0  0  0  0  0  0  0  0  0  0  0  # atno 17395 bound_to 11000

$$$$
