AV-unprocessed.smi:763|AV-procd|sdf|3637|dock1
  -GOLD-   22720 1 33D 1   1.00000     0.00000
 Structure written by MMmdl.
 44 45  0  0  0  0  0  0  0  0  1 V2000
  145.2949  137.5286  160.7159 C   0  0  0  0  0  0  0  0  0  0  0  0
  146.6675  137.5897  160.3617 O   0  0  0  0  0  0  0  0  0  0  0  0
  147.4309  136.4780  160.8094 C   0  0  0  0  0  0  0  0  0  0  0  0
  148.8864  136.5459  160.3246 C   0  0  0  0  0  0  0  0  0  0  0  0
  148.9491  137.4169  159.1997 O   0  0  0  0  0  0  0  0  0  0  0  0
  149.6909  137.0287  158.1005 C   0  0  0  0  0  0  0  0  0  0  0  0
  149.9691  135.7107  157.9370 N   0  0  0  0  0  0  0  0  0  0  0  0
  150.6875  135.3355  156.8581 C   0  0  0  0  0  0  0  0  0  0  0  0
  151.1621  136.2438  155.8931 C   0  0  0  0  0  0  0  0  0  0  0  0
  150.8753  137.6109  156.0632 C   0  0  0  0  0  0  0  0  0  0  0  0
  150.1265  138.0171  157.1891 C   0  0  0  0  0  0  0  0  0  0  0  0
  149.8099  139.3594  157.4168 N   0  0  0  0  0  0  0  0  0  0  0  0
  150.2221  140.7445  156.4593 S   0  0  0  0  0  0  0  0  0  0  0  0
  150.7269  140.2126  155.1842 O   0  0  0  0  0  0  0  0  0  0  0  0
  149.0384  141.6170  156.5016 O   0  0  0  0  0  0  0  0  0  0  0  0
  151.6046  141.5176  157.4294 C   0  0  1  0  0  0  0  0  0  0  0  0
  151.1041  142.8091  158.1095 C   0  0  0  0  0  0  0  0  0  0  0  0
  152.2002  143.4733  158.9560 C   0  0  0  0  0  0  0  0  0  0  0  0
  152.7677  142.4928  159.9919 C   0  0  0  0  0  0  0  0  0  0  0  0
  153.3090  141.2290  159.3091 C   0  0  0  0  0  0  0  0  0  0  0  0
  152.2277  140.5393  158.4565 C   0  0  2  0  0  0  0  0  0  0  0  0
  152.8331  139.4399  157.8078 O   0  0  0  0  0  0  0  0  0  0  0  0
  144.7716  138.3827  160.2863 H   0  0  0  0  0  0  0  0  0  0  0  0
  145.1532  137.5649  161.7960 H   0  0  0  0  0  0  0  0  0  0  0  0
  144.8267  136.6221  160.3304 H   0  0  0  0  0  0  0  0  0  0  0  0
  147.3807  136.3777  161.8947 H   0  0  0  0  0  0  0  0  0  0  0  0
  146.9632  135.5843  160.3950 H   0  0  0  0  0  0  0  0  0  0  0  0
  149.5206  136.9310  161.1247 H   0  0  0  0  0  0  0  0  0  0  0  0
  149.2431  135.5506  160.0558 H   0  0  0  0  0  0  0  0  0  0  0  0
  150.8895  134.2791  156.7605 H   0  0  0  0  0  0  0  0  0  0  0  0
  151.7329  135.9001  155.0431 H   0  0  0  0  0  0  0  0  0  0  0  0
  151.2294  138.3261  155.3359 H   0  0  0  0  0  0  0  0  0  0  0  0
  149.2546  139.5347  158.2415 H   0  0  0  0  0  0  0  0  0  0  0  0
  152.3685  141.7964  156.7025 H   0  0  0  0  0  0  0  0  0  0  0  0
  150.7479  143.5145  157.3584 H   0  0  0  0  0  0  0  0  0  0  0  0
  150.2492  142.5834  158.7480 H   0  0  0  0  0  0  0  0  0  0  0  0
  153.0019  143.8264  158.3061 H   0  0  0  0  0  0  0  0  0  0  0  0
  151.7985  144.3534  159.4586 H   0  0  0  0  0  0  0  0  0  0  0  0
  153.5608  142.9741  160.5647 H   0  0  0  0  0  0  0  0  0  0  0  0
  151.9900  142.2200  160.7066 H   0  0  0  0  0  0  0  0  0  0  0  0
  154.1598  141.4983  158.6811 H   0  0  0  0  0  0  0  0  0  0  0  0
  153.6887  140.5381  160.0628 H   0  0  0  0  0  0  0  0  0  0  0  0
  151.4505  140.1551  159.1178 H   0  0  0  0  0  0  0  0  0  0  0  0
  152.1613  138.8170  157.5760 H   0  0  0  0  0  0  0  0  0  0  0  0
  1  2  1  0  0  0  0
  1 23  1  0  0  0  0
  1 24  1  0  0  0  0
  1 25  1  0  0  0  0
  2  3  1  0  0  0  0
  3  4  1  0  0  0  0
  3 26  1  0  0  0  0
  3 27  1  0  0  0  0
  4  5  1  0  0  0  0
  4 28  1  0  0  0  0
  4 29  1  0  0  0  0
  5  6  1  0  0  0  0
  6 11  1  0  0  0  0
  6  7  2  0  0  0  0
  7  8  1  0  0  0  0
  8  9  2  0  0  0  0
  8 30  1  0  0  0  0
  9 10  1  0  0  0  0
  9 31  1  0  0  0  0
 10 11  2  0  0  0  0
 10 32  1  0  0  0  0
 11 12  1  0  0  0  0
 12 13  1  0  0  0  0
 12 33  1  0  0  0  0
 13 14  2  0  0  0  0
 13 15  2  0  0  0  0
 13 16  1  0  0  0  0
 16 21  1  0  0  0  0
 16 17  1  0  0  0  0
 16 34  1  0  0  0  0
 17 18  1  0  0  0  0
 17 35  1  0  0  0  0
 17 36  1  0  0  0  0
 18 19  1  0  0  0  0
 18 37  1  0  0  0  0
 18 38  1  0  0  0  0
 19 20  1  0  0  0  0
 19 39  1  0  0  0  0
 19 40  1  0  0  0  0
 20 21  1  0  0  0  0
 20 41  1  0  0  0  0
 20 42  1  0  0  0  0
 21 22  1  0  0  0  0
 21 43  1  0  0  0  0
 22 44  1  0  0  0  0
M  END
> <s_m_source_file>
AV-unprocessed.smi

> <i_m_source_file_index>
763

> <i_lp_mmshare_version>
43012

> <i_f3d_flags>
0

> <s_epik_input>
W0NIM11PW0NIMl1bQ0gyXU9jMW5bY0hdW2NIXVtjSF1jMVtOSF1TKD1PKSg9TylbQ0BASF0yW0NIMl1bQ0gyXVtDSDJdW0NIMl1bQ0BIXTJbT0hd

> <s_epik_cmdline>
J2VwaWtfcHl0aG9uJywgJy1waCcsICc3LjAnLCAnLXRuJywgJzgnLCAnLW1hJywgJzIwMCcsICctbWV0YWxfYmluZGluZycsICctaW1hZScsICc8aW5maWxlLm1hZT4nLCAnLW9tYWUnLCAnPG91dGZpbGUubWFlPic=

> <r_epik_Ionization_Penalty>
0.124685

> <r_epik_Ionization_Penalty_Charging>
0

> <r_epik_Ionization_Penalty_Neutral>
0.124685

> <r_epik_State_Penalty>
0.114154

> <r_epik_Charging_Adjusted_Penalty>
0.114154

> <i_epik_Tot_Q>
0

> <i_epik_Tot_abs_Q>
0

> <r_epik_Metal_State_Penalty>
0.443785

> <b_epik_Metal_Only>
0

> <s_lp_Force_Field>
OPLS_2005

> <r_lp_Energy>
9.80168

> <b_lp_Chiralities_Consistent>
1

> <s_lp_Variant>
AV-unprocessed.smi:763-4

> <Gold.Version>
5.8.1

> <Gold.Id.Protein>
6NUR|6NUR_protein|mol2

> <Gold.PLP.Fitness>
39.3642

> <Gold.PLP.PLP>
-30.5230

> <Gold.PLP.part.hbond>
-4.0000

> <Gold.PLP.part.metal>
0.0000

> <Gold.PLP.part.buried>
-4.4937

> <Gold.PLP.part.nonpolar>
-22.7173

> <Gold.PLP.part.repulsive>
0.2210

> <Gold.PLP.ligand.clash>
0.0000

> <Gold.PLP.ligand.torsion>
1.9591

> <Gold.PLP.Chemscore.Hbond>
3.7717

> <Gold.PLP.Chemscore.CHOScore>
0.0000

> <Gold.PLP.Chemscore.Metal>
0.0000

> <Gold.Chemscore.Hbonds>
donor molecule, donor type, donor heavy atom, donor atom, acceptor molecule, acceptor atom, score
      P1  H  6896  6908       L1     7  0.79
      P1  H  6934  6947       L1     2  1.00
      P1  H  7989  7998       L1    14  1.00
      P1  H  7997  8008       L1    22  1.00

> <Gold.PLP.Chemscore.Internal.Correction>
1.4443

> <Gold.Rescore>
     Score         DG    S(hbond)    S(metal)    S(lipo)     H(rot)  DE(clash)    DE(int)     intcor
     16.50     -20.25       3.38        0.00      82.40       2.41       0.04       3.72       ----

> <Gold.Chemscore.Fitness>
16.4978

> <Gold.Chemscore.DG>
-20.2488

> <Gold.Chemscore.ZeroCoef>
-5.4800

> <Gold.Chemscore.Hbond>
3.3789

> <Gold.Chemscore.Metal>
0.0000

> <Gold.Chemscore.Lipo>
82.3989

> <Gold.Chemscore.Internal_Hbond>
0.0000

> <Gold.Chemscore.DEClash>
0.0351

> <Gold.Chemscore.DEInternal>
3.7159

> <Gold.Chemscore.Rot>
2.4052

> <Gold.Chemscore.Internal.Correction>
   9.000000E+99

> <Gold.Chemscore.Hbonds>
donor molecule, donor type, donor heavy atom, donor atom, acceptor molecule, acceptor atom, score
      P1  H  6896  6908       L1     7  0.36
      P1  H  6934  6947       L1     2  0.40
      P1  H  7989  7998       L1    14  0.94
      P1  H  7997  8008       L1    22  0.68

> <Gold.Chemscore.Hbond.Weighted>
-11.2856

> <Gold.Chemscore.Metal.Weighted>
-0.0000

> <Gold.Chemscore.Lipo.Weighted>
-9.6407

> <Gold.Chemscore.Internal_Hbond.Weighted>
0.0000

> <Gold.Chemscore.DEClash.Weighted>
0.0351

> <Gold.Chemscore.DEInternal.Weighted>
3.7159

> <Gold.Chemscore.Rot.Weighted>
6.1574

> <Gold.Chemscore.Internal.Correction.Weighted>
   9.000000E+99

> <Gold.Protein.RotatedTorsions>
[ 6907 6896 6895 6894 ] final  167.46 input  -60.11 | X-H torsion
[ 7974 7965 7964 7962 ] final -122.65 input  175.53 | X-H torsion
[ 8008 7997 7996 7995 ] final  -69.73 input   59.86 | X-H torsion
[ 10167 10162 10161 10158 ] final   10.70 input  -65.29 | X-H torsion
[ 10718 10713 10712 10709 ] final  142.62 input   66.30 | X-H torsion
[ 10763 10752 10751 10750 ] final -123.40 input  -60.55 | X-H torsion
[ 11005 11000 10999 10996 ] final -125.91 input  -57.11 | X-H torsion

> <Gold.Protein.ActiveResidues>
 VAL166  LYS551  ARG553  GLY616  TRP617  ASP618  TYR619  PRO620  LYS621  CYS622 
 ASP623  PHE694  ASN695  SER759  ASP760  ASP761  ALA762  ILE779  LEU786  VAL792 
 PHE793  MET794  SER795  GLU796  ALA797  LYS798  CYS799  TRP800  GLU811  SER814 

> <Gold.Protein.RotatedAtoms>
  151.8630  133.3461  159.3709 H   0  0  0  0  0  0  0  0  0  0  0  0  # atno 6907 bound_to 6896
  150.7174  134.5187  159.5652 H   0  0  0  0  0  0  0  0  0  0  0  0  # atno 6908 bound_to 6896
  152.2704  134.7939  160.0466 H   0  0  0  0  0  0  0  0  0  0  0  0  # atno 6909 bound_to 6896
  145.0272  140.8038  143.4345 H   0  0  0  0  0  0  0  0  0  0  0  0  # atno 7974 bound_to 7965
  154.4960  140.0848  156.7697 H   0  0  0  0  0  0  0  0  0  0  0  0  # atno 8008 bound_to 7997
  155.4115  140.3441  155.4246 H   0  0  0  0  0  0  0  0  0  0  0  0  # atno 8009 bound_to 7997
  156.1394  140.1525  156.8931 H   0  0  0  0  0  0  0  0  0  0  0  0  # atno 8010 bound_to 7997
  140.6178  143.8271  150.7139 H   0  0  0  0  0  0  0  0  0  0  0  0  # atno 10167 bound_to 10162
  157.3784  131.0989  151.0762 H   0  0  0  0  0  0  0  0  0  0  0  0  # atno 10718 bound_to 10713
  154.8707  135.4099  154.2938 H   0  0  0  0  0  0  0  0  0  0  0  0  # atno 10763 bound_to 10752
  153.3809  135.7011  153.6571 H   0  0  0  0  0  0  0  0  0  0  0  0  # atno 10764 bound_to 10752
  153.5394  135.3651  155.2683 H   0  0  0  0  0  0  0  0  0  0  0  0  # atno 10765 bound_to 10752
  140.9724  134.0787  157.3855 H   0  0  0  0  0  0  0  0  0  0  0  0  # atno 11005 bound_to 11000
  145.1818  139.2348  143.5288 LP  0  0  0  0  0  0  0  0  0  0  0  0  # atno 17320 bound_to 7965
  146.3494  140.1593  142.8591 LP  0  0  0  0  0  0  0  0  0  0  0  0  # atno 17321 bound_to 7965
  140.1854  143.4080  152.1902 LP  0  0  0  0  0  0  0  0  0  0  0  0  # atno 17342 bound_to 10162
  139.5413  144.7259  151.4725 LP  0  0  0  0  0  0  0  0  0  0  0  0  # atno 17343 bound_to 10162
  157.1840  130.6322  149.5681 LP  0  0  0  0  0  0  0  0  0  0  0  0  # atno 17370 bound_to 10713
  155.9770  130.4744  150.6567 LP  0  0  0  0  0  0  0  0  0  0  0  0  # atno 17371 bound_to 10713
  139.8917  135.0120  156.6807 LP  0  0  0  0  0  0  0  0  0  0  0  0  # atno 17394 bound_to 11000
  140.7309  133.9059  155.8211 LP  0  0  0  0  0  0  0  0  0  0  0  0  # atno 17395 bound_to 11000

$$$$
