AV-unprocessed.smi:148|AV-procd|sdf|1215|dock10
  -GOLD-   2262018393D 1   1.00000     0.00000
 Structure written by MMmdl.
 63 67  0  0  0  0  0  0  0  0  1 V2000
  148.0805  134.4263  153.4841 O   0  0  0  0  0  0  0  0  0  0  0  0
  148.7303  134.7926  154.6836 C   0  0  0  0  0  0  0  0  0  0  0  0
  150.0503  134.0041  154.8516 C   0  0  1  0  0  0  0  0  0  0  0  0
  150.7241  134.3631  156.1998 C   0  0  0  0  0  0  0  0  0  0  0  0
  150.6340  135.7738  156.5332 N   0  0  0  0  0  0  0  0  0  0  0  0
  150.1786  136.3166  157.7133 C   0  0  0  0  0  0  0  0  0  0  0  0
  150.2043  137.6201  157.7710 N   0  0  0  0  0  0  0  0  0  0  0  0
  150.7033  138.0057  156.5324 C   0  0  0  0  0  0  0  0  0  0  0  0
  150.9914  139.2582  155.9182 C   0  0  0  0  0  0  0  0  0  0  0  0
  150.8201  140.4676  156.5004 N   0  0  0  0  0  0  0  0  0  0  0  0
  151.8628  140.6704  157.5074 C   0  0  0  0  0  0  0  0  0  0  0  0
  151.8639  142.1084  158.0413 C   0  0  0  0  0  0  0  0  0  0  0  0
  150.4767  142.4792  158.5745 C   0  0  0  0  0  0  0  0  0  0  0  0
  149.4282  142.2765  157.4737 C   0  0  0  0  0  0  0  0  0  0  0  0
  149.4523  140.8251  156.9208 C   0  0  1  0  0  0  0  0  0  0  0  0
  148.3748  140.5730  155.8178 C   0  0  1  0  0  0  0  0  0  0  0  0
  147.0012  141.1976  156.1448 C   0  0  0  0  0  0  0  0  0  0  0  0
  146.7491  142.2599  155.0741 C   0  0  0  0  0  0  0  0  0  0  0  0
  147.4552  141.7083  153.8404 C   0  0  0  0  0  0  0  0  0  0  0  0
  148.7358  141.0829  154.3994 C   0  0  2  0  0  0  0  0  0  0  0  0
  149.1886  140.0455  153.5544 O   0  0  0  0  0  0  0  0  0  0  0  0
  151.5099  139.2466  154.6653 N   0  0  0  0  0  0  0  0  0  0  0  0
  151.7125  138.0853  154.0356 C   0  0  0  0  0  0  0  0  0  0  0  0
  151.4809  136.8461  154.4741 N   0  0  0  0  0  0  0  0  0  0  0  0
  150.9770  136.8548  155.7413 C   0  0  0  0  0  0  0  0  0  0  0  0
  149.8848  132.4708  154.6558 C   0  0  2  0  0  0  0  0  0  0  0  0
  148.6437  131.8498  155.2989 C   0  0  0  0  0  0  0  0  0  0  0  0
  149.1764  130.6141  156.0262 C   0  0  0  0  0  0  0  0  0  0  0  0
  150.4204  130.3460  155.3986 O   0  0  0  0  0  0  0  0  0  0  0  0
  151.0376  131.6015  155.1722 C   0  0  0  0  0  0  0  0  0  0  0  0
  148.1646  135.1367  152.8665 H   0  0  0  0  0  0  0  0  0  0  0  0
  148.9128  135.8673  154.6691 H   0  0  0  0  0  0  0  0  0  0  0  0
  148.0383  134.6006  155.5023 H   0  0  0  0  0  0  0  0  0  0  0  0
  150.7222  134.3335  154.0572 H   0  0  0  0  0  0  0  0  0  0  0  0
  150.2696  133.8013  157.0165 H   0  0  0  0  0  0  0  0  0  0  0  0
  151.7774  134.0802  156.1806 H   0  0  0  0  0  0  0  0  0  0  0  0
  149.8337  135.7117  158.5394 H   0  0  0  0  0  0  0  0  0  0  0  0
  151.7066  139.9730  158.3322 H   0  0  0  0  0  0  0  0  0  0  0  0
  152.8425  140.4437  157.0834 H   0  0  0  0  0  0  0  0  0  0  0  0
  152.6102  142.2138  158.8290 H   0  0  0  0  0  0  0  0  0  0  0  0
  152.1504  142.7963  157.2446 H   0  0  0  0  0  0  0  0  0  0  0  0
  150.2324  141.8599  159.4385 H   0  0  0  0  0  0  0  0  0  0  0  0
  150.4689  143.5143  158.9170 H   0  0  0  0  0  0  0  0  0  0  0  0
  148.4468  142.5250  157.8755 H   0  0  0  0  0  0  0  0  0  0  0  0
  149.6228  142.9981  156.6817 H   0  0  0  0  0  0  0  0  0  0  0  0
  149.2032  140.1771  157.7612 H   0  0  0  0  0  0  0  0  0  0  0  0
  148.1861  139.5004  155.7581 H   0  0  0  0  0  0  0  0  0  0  0  0
  146.2313  140.4286  156.0667 H   0  0  0  0  0  0  0  0  0  0  0  0
  146.9300  141.6013  157.1548 H   0  0  0  0  0  0  0  0  0  0  0  0
  145.6873  142.4420  154.9050 H   0  0  0  0  0  0  0  0  0  0  0  0
  147.2081  143.2037  155.3716 H   0  0  0  0  0  0  0  0  0  0  0  0
  146.8265  140.9445  153.3793 H   0  0  0  0  0  0  0  0  0  0  0  0
  147.6544  142.4735  153.0898 H   0  0  0  0  0  0  0  0  0  0  0  0
  149.5110  141.8456  154.4373 H   0  0  0  0  0  0  0  0  0  0  0  0
  149.1070  140.3327  152.6570 H   0  0  0  0  0  0  0  0  0  0  0  0
  152.1208  138.1594  153.0384 H   0  0  0  0  0  0  0  0  0  0  0  0
  149.7861  132.2628  153.5901 H   0  0  0  0  0  0  0  0  0  0  0  0
  148.1158  132.5161  155.9806 H   0  0  0  0  0  0  0  0  0  0  0  0
  147.9330  131.5581  154.5243 H   0  0  0  0  0  0  0  0  0  0  0  0
  149.3463  130.8328  157.0817 H   0  0  0  0  0  0  0  0  0  0  0  0
  148.5005  129.7614  155.9585 H   0  0  0  0  0  0  0  0  0  0  0  0
  151.8558  131.5213  154.4562 H   0  0  0  0  0  0  0  0  0  0  0  0
  151.4447  131.9665  156.1153 H   0  0  0  0  0  0  0  0  0  0  0  0
  1  2  1  0  0  0  0
  1 31  1  0  0  0  0
  2  3  1  0  0  0  0
  2 32  1  0  0  0  0
  2 33  1  0  0  0  0
  3  4  1  0  0  0  0
  3 26  1  0  0  0  0
  3 34  1  0  0  0  0
  4  5  1  0  0  0  0
  4 35  1  0  0  0  0
  4 36  1  0  0  0  0
  5 25  1  0  0  0  0
  5  6  1  0  0  0  0
  6  7  2  0  0  0  0
  6 37  1  0  0  0  0
  7  8  1  0  0  0  0
  8 25  2  0  0  0  0
  8  9  1  0  0  0  0
  9 10  1  0  0  0  0
  9 22  2  0  0  0  0
 10 15  1  0  0  0  0
 10 11  1  0  0  0  0
 11 12  1  0  0  0  0
 11 38  1  0  0  0  0
 11 39  1  0  0  0  0
 12 13  1  0  0  0  0
 12 40  1  0  0  0  0
 12 41  1  0  0  0  0
 13 14  1  0  0  0  0
 13 42  1  0  0  0  0
 13 43  1  0  0  0  0
 14 15  1  0  0  0  0
 14 44  1  0  0  0  0
 14 45  1  0  0  0  0
 15 16  1  0  0  0  0
 15 46  1  0  0  0  0
 16 20  1  0  0  0  0
 16 17  1  0  0  0  0
 16 47  1  0  0  0  0
 17 18  1  0  0  0  0
 17 48  1  0  0  0  0
 17 49  1  0  0  0  0
 18 19  1  0  0  0  0
 18 50  1  0  0  0  0
 18 51  1  0  0  0  0
 19 20  1  0  0  0  0
 19 52  1  0  0  0  0
 19 53  1  0  0  0  0
 20 21  1  0  0  0  0
 20 54  1  0  0  0  0
 21 55  1  0  0  0  0
 22 23  1  0  0  0  0
 23 24  2  0  0  0  0
 23 56  1  0  0  0  0
 24 25  1  0  0  0  0
 26 30  1  0  0  0  0
 26 27  1  0  0  0  0
 26 57  1  0  0  0  0
 27 28  1  0  0  0  0
 27 58  1  0  0  0  0
 27 59  1  0  0  0  0
 28 29  1  0  0  0  0
 28 60  1  0  0  0  0
 28 61  1  0  0  0  0
 29 30  1  0  0  0  0
 30 62  1  0  0  0  0
 30 63  1  0  0  0  0
M  END
> <s_m_source_file>
AV-unprocessed.smi

> <i_m_source_file_index>
148

> <i_lp_mmshare_version>
43012

> <i_f3d_flags>
0

> <s_epik_input>
W0NIMl0xT1tDSDJdW0NIMl1bQ0BIXTFbQ0BIXShbQ0gyXVtPSF0pW0NIMl1uKFtjSF1uMiljKGMyMyluW2NIXW5jM040W0NIMl1bQ0gyXVtDSDJdW0NIMl1bQ0BIXTRbQ0BASF01W0NIMl1bQ0gyXVtDSDJdW0NASF01W09IXQ==

> <s_epik_cmdline>
J2VwaWtfcHl0aG9uJywgJy1waCcsICc3LjAnLCAnLXRuJywgJzgnLCAnLW1hJywgJzIwMCcsICctbWV0YWxfYmluZGluZycsICctaW1hZScsICc8aW5maWxlLm1hZT4nLCAnLW9tYWUnLCAnPG91dGZpbGUubWFlPic=

> <r_lp_tautomer_probability>
1

> <r_epik_Ionization_Penalty>
0.00556303

> <r_epik_Ionization_Penalty_Charging>
0

> <r_epik_Ionization_Penalty_Neutral>
0.00556303

> <r_epik_State_Penalty>
0.00401767

> <r_epik_Charging_Adjusted_Penalty>
0.00401767

> <i_epik_Tot_Q>
0

> <i_epik_Tot_abs_Q>
0

> <r_epik_Metal_State_Penalty>
-0

> <b_epik_Metal_Only>
0

> <s_lp_Force_Field>
OPLS_2005

> <r_lp_Energy>
68.8828

> <b_lp_Chiralities_Consistent>
1

> <s_lp_Variant>
AV-unprocessed.smi:148-14

> <Gold.Version>
5.8.1

> <Gold.Id.Protein>
6NUR|6NUR_protein|mol2

> <Gold.PLP.Fitness>
49.9228

> <Gold.PLP.PLP>
-39.2911

> <Gold.PLP.part.hbond>
-3.8649

> <Gold.PLP.part.metal>
0.0000

> <Gold.PLP.part.buried>
-6.5312

> <Gold.PLP.part.nonpolar>
-27.7559

> <Gold.PLP.part.repulsive>
0.2579

> <Gold.PLP.ligand.clash>
0.0000

> <Gold.PLP.ligand.torsion>
1.0262

> <Gold.PLP.Chemscore.Hbond>
3.9028

> <Gold.PLP.Chemscore.CHOScore>
0.2092

> <Gold.PLP.Chemscore.Metal>
0.0000

> <Gold.Chemscore.Hbonds>
donor molecule, donor type, donor heavy atom, donor atom, acceptor molecule, acceptor atom, score
      L1  H     1    31       P1  7948  1.00
      L1  H    21    55       P1  7957  0.88
      P1  H  7989  7998       L1    22  1.00
      P1  H 10752 10764       L1    24  1.00
      L1  C    23    56       P1  7949  0.16

> <Gold.PLP.Chemscore.Internal.Correction>
0.3483

> <Gold.Rescore>
     Score         DG    S(hbond)    S(metal)    S(lipo)     H(rot)  DE(clash)    DE(int)     intcor
     15.88     -18.34       3.21        0.00      90.81       3.32       0.16       2.29       ----

> <Gold.Chemscore.Fitness>
15.8832

> <Gold.Chemscore.DG>
-18.3389

> <Gold.Chemscore.ZeroCoef>
-5.4800

> <Gold.Chemscore.Hbond>
3.2138

> <Gold.Chemscore.Metal>
0.0000

> <Gold.Chemscore.Lipo>
90.8103

> <Gold.Chemscore.Internal_Hbond>
0.0000

> <Gold.Chemscore.DEClash>
0.1624

> <Gold.Chemscore.DEInternal>
2.2933

> <Gold.Chemscore.Rot>
3.3203

> <Gold.Chemscore.Internal.Correction>
   9.000000E+99

> <Gold.Chemscore.Hbonds>
donor molecule, donor type, donor heavy atom, donor atom, acceptor molecule, acceptor atom, score
      L1  H     1    31       P1  7948  0.94
      L1  H    21    55       P1  7957  0.85
      P1  H  7989  7998       L1    22  0.85
      P1  H 10752 10764       L1    24  0.74

> <Gold.Chemscore.Hbond.Weighted>
-10.7341

> <Gold.Chemscore.Metal.Weighted>
-0.0000

> <Gold.Chemscore.Lipo.Weighted>
-10.6248

> <Gold.Chemscore.Internal_Hbond.Weighted>
0.0000

> <Gold.Chemscore.DEClash.Weighted>
0.1624

> <Gold.Chemscore.DEInternal.Weighted>
2.2933

> <Gold.Chemscore.Rot.Weighted>
8.5000

> <Gold.Chemscore.Internal.Correction.Weighted>
   9.000000E+99

> <Gold.Protein.RotatedTorsions>
[ 6907 6896 6895 6894 ] final   84.23 input  -60.11 | X-H torsion
[ 7974 7965 7964 7962 ] final  -18.86 input  175.53 | X-H torsion
[ 8008 7997 7996 7995 ] final  -73.72 input   59.86 | X-H torsion
[ 10167 10162 10161 10158 ] final  166.26 input  -65.29 | X-H torsion
[ 10718 10713 10712 10709 ] final  -86.36 input   66.30 | X-H torsion
[ 10763 10752 10751 10750 ] final  -75.89 input  -60.55 | X-H torsion
[ 11005 11000 10999 10996 ] final -132.47 input  -57.11 | X-H torsion

> <Gold.Protein.ActiveResidues>
 VAL166  LYS551  ARG553  GLY616  TRP617  ASP618  TYR619  PRO620  LYS621  CYS622 
 ASP623  PHE694  ASN695  SER759  ASP760  ASP761  ALA762  ILE779  LEU786  VAL792 
 PHE793  MET794  SER795  GLU796  ALA797  LYS798  CYS799  TRP800  GLU811  SER814 

> <Gold.Protein.RotatedAtoms>
  152.5347  134.2773  159.8993 H   0  0  0  0  0  0  0  0  0  0  0  0  # atno 6907 bound_to 6896
  151.2728  133.4240  159.2630 H   0  0  0  0  0  0  0  0  0  0  0  0  # atno 6908 bound_to 6896
  151.0352  134.9583  159.8189 H   0  0  0  0  0  0  0  0  0  0  0  0  # atno 6909 bound_to 6896
  146.1871  140.3981  142.8472 H   0  0  0  0  0  0  0  0  0  0  0  0  # atno 7974 bound_to 7965
  154.5271  140.0774  156.8277 H   0  0  0  0  0  0  0  0  0  0  0  0  # atno 8008 bound_to 7997
  155.3454  140.3409  155.4221 H   0  0  0  0  0  0  0  0  0  0  0  0  # atno 8009 bound_to 7997
  156.1742  140.1630  156.8379 H   0  0  0  0  0  0  0  0  0  0  0  0  # atno 8010 bound_to 7997
  139.4921  144.4046  151.9370 H   0  0  0  0  0  0  0  0  0  0  0  0  # atno 10167 bound_to 10162
  155.9990  130.4762  150.4703 H   0  0  0  0  0  0  0  0  0  0  0  0  # atno 10718 bound_to 10713
  154.4926  135.5816  153.6471 H   0  0  0  0  0  0  0  0  0  0  0  0  # atno 10763 bound_to 10752
  152.9865  135.6116  154.3105 H   0  0  0  0  0  0  0  0  0  0  0  0  # atno 10764 bound_to 10752
  154.3006  135.2847  155.2592 H   0  0  0  0  0  0  0  0  0  0  0  0  # atno 10765 bound_to 10752
  140.9167  134.1497  157.4346 H   0  0  0  0  0  0  0  0  0  0  0  0  # atno 11005 bound_to 11000
  144.8417  140.6867  143.6225 LP  0  0  0  0  0  0  0  0  0  0  0  0  # atno 17320 bound_to 7965
  145.3906  139.1617  143.4231 LP  0  0  0  0  0  0  0  0  0  0  0  0  # atno 17321 bound_to 7965
  140.3485  144.3117  150.5953 LP  0  0  0  0  0  0  0  0  0  0  0  0  # atno 17342 bound_to 10162
  140.5505  143.2207  151.7935 LP  0  0  0  0  0  0  0  0  0  0  0  0  # atno 17343 bound_to 10162
  157.2718  131.0589  151.2254 LP  0  0  0  0  0  0  0  0  0  0  0  0  # atno 17370 bound_to 10713
  157.3332  130.6995  149.6337 LP  0  0  0  0  0  0  0  0  0  0  0  0  # atno 17371 bound_to 10713
  139.8767  134.9956  156.5753 LP  0  0  0  0  0  0  0  0  0  0  0  0  # atno 17394 bound_to 11000
  140.8040  133.8482  155.8751 LP  0  0  0  0  0  0  0  0  0  0  0  0  # atno 17395 bound_to 11000

$$$$
