AV-unprocessed.smi:1659|AV-procd|sdf|6651|dock3
  -GOLD-   22720 7353D 1   1.00000     0.00000
 Structure written by MMmdl.
 42 43  0  0  0  0  0  0  0  0  2 V2000
  141.9955  144.0289  155.4247 C   0  0  0  0  0  0  0  0  0  0  0  0
  143.3524  143.4757  155.1534 C   0  0  0  0  0  0  0  0  0  0  0  0
  144.3285  143.8098  154.2581 C   0  0  0  0  0  0  0  0  0  0  0  0
  145.3669  142.8828  154.5484 C   0  0  0  0  0  0  0  0  0  0  0  0
  146.5491  142.7989  153.9190 N   0  5  0  0  0  0  0  0  0  0  0  0
  147.3855  141.7662  154.1740 C   0  0  0  0  0  0  0  0  0  0  0  0
  147.1821  140.5783  153.9117 O   0  0  0  0  0  0  0  0  0  0  0  0
  148.5289  142.1301  154.7702 N   0  0  0  0  0  0  0  0  0  0  0  0
  149.6037  141.2211  155.1508 C   0  0  0  0  0  0  0  0  0  0  0  0
  150.6732  141.9350  155.9915 C   0  0  0  0  0  0  0  0  0  0  0  0
  150.3213  142.0179  157.4891 C   0  0  0  0  0  0  0  0  0  0  0  0
  151.3980  142.6489  158.2621 N   0  0  0  0  0  0  0  0  0  0  0  0
  151.6113  144.0838  158.0163 C   0  0  0  0  0  0  0  0  0  0  0  0
  151.1771  144.9875  159.1932 C   0  0  0  0  0  0  0  0  0  0  0  0
  151.3061  144.3769  160.6029 C   0  0  0  0  0  0  0  0  0  0  0  0
  152.6865  143.7690  160.9292 C   0  0  0  0  0  0  0  0  0  0  0  0
  153.2255  142.7032  159.9443 C   0  0  0  0  0  0  0  0  0  0  0  0
  152.1384  141.9514  159.1582 C   0  0  0  0  0  0  0  0  0  0  0  0
  151.9806  140.7487  159.3690 O   0  0  0  0  0  0  0  0  0  0  0  0
  145.0417  142.0480  155.5214 N   0  0  0  0  0  0  0  0  0  0  0  0
  143.7540  142.4262  155.9197 O   0  0  0  0  0  0  0  0  0  0  0  0
  141.4497  144.1855  154.4944 H   0  0  0  0  0  0  0  0  0  0  0  0
  142.0670  144.9862  155.9407 H   0  0  0  0  0  0  0  0  0  0  0  0
  141.4117  143.3511  156.0478 H   0  0  0  0  0  0  0  0  0  0  0  0
  144.3079  144.5950  153.5172 H   0  0  0  0  0  0  0  0  0  0  0  0
  148.6614  143.1107  154.9708 H   0  0  0  0  0  0  0  0  0  0  0  0
  149.1801  140.3932  155.7209 H   0  0  0  0  0  0  0  0  0  0  0  0
  150.0591  140.7931  154.2563 H   0  0  0  0  0  0  0  0  0  0  0  0
  151.6311  141.4303  155.8600 H   0  0  0  0  0  0  0  0  0  0  0  0
  150.8065  142.9443  155.6005 H   0  0  0  0  0  0  0  0  0  0  0  0
  149.3902  142.5709  157.6197 H   0  0  0  0  0  0  0  0  0  0  0  0
  150.1173  141.0219  157.8865 H   0  0  0  0  0  0  0  0  0  0  0  0
  152.6637  144.2550  157.7902 H   0  0  0  0  0  0  0  0  0  0  0  0
  151.0955  144.4037  157.1099 H   0  0  0  0  0  0  0  0  0  0  0  0
  151.7390  145.9209  159.1456 H   0  0  0  0  0  0  0  0  0  0  0  0
  150.1327  145.2664  159.0480 H   0  0  0  0  0  0  0  0  0  0  0  0
  151.0775  145.1469  161.3405 H   0  0  0  0  0  0  0  0  0  0  0  0
  150.5340  143.6184  160.7402 H   0  0  0  0  0  0  0  0  0  0  0  0
  153.4184  144.5740  161.0028 H   0  0  0  0  0  0  0  0  0  0  0  0
  152.6365  143.3296  161.9261 H   0  0  0  0  0  0  0  0  0  0  0  0
  153.9169  143.1621  159.2376 H   0  0  0  0  0  0  0  0  0  0  0  0
  153.8306  141.9818  160.4950 H   0  0  0  0  0  0  0  0  0  0  0  0
  1  2  1  0  0  0  0
  1 22  1  0  0  0  0
  1 23  1  0  0  0  0
  1 24  1  0  0  0  0
  2 21  1  0  0  0  0
  2  3  2  0  0  0  0
  3  4  1  0  0  0  0
  3 25  1  0  0  0  0
  4  5  1  0  0  0  0
  4 20  2  0  0  0  0
  5  6  1  0  0  0  0
  6  7  2  0  0  0  0
  6  8  1  0  0  0  0
  8  9  1  0  0  0  0
  8 26  1  0  0  0  0
  9 10  1  0  0  0  0
  9 27  1  0  0  0  0
  9 28  1  0  0  0  0
 10 11  1  0  0  0  0
 10 29  1  0  0  0  0
 10 30  1  0  0  0  0
 11 12  1  0  0  0  0
 11 31  1  0  0  0  0
 11 32  1  0  0  0  0
 12 18  1  0  0  0  0
 12 13  1  0  0  0  0
 13 14  1  0  0  0  0
 13 33  1  0  0  0  0
 13 34  1  0  0  0  0
 14 15  1  0  0  0  0
 14 35  1  0  0  0  0
 14 36  1  0  0  0  0
 15 16  1  0  0  0  0
 15 37  1  0  0  0  0
 15 38  1  0  0  0  0
 16 17  1  0  0  0  0
 16 39  1  0  0  0  0
 16 40  1  0  0  0  0
 17 18  1  0  0  0  0
 17 41  1  0  0  0  0
 17 42  1  0  0  0  0
 18 19  2  0  0  0  0
 20 21  1  0  0  0  0
M  CHG  1   5  -1
M  END
> <s_m_source_file>
AV-unprocessed.smi

> <i_m_source_file_index>
1659

> <i_lp_mmshare_version>
43012

> <i_f3d_flags>
0

> <s_epik_input>
W0NIM11jMVtjSF1jKG5vMSlbTkhdQyg9TylbTkhdW0NIMl1bQ0gyXVtDSDJdTjJbQ0gyXVtDSDJdW0NIMl1bQ0gyXVtDSDJdQzI9Tw==

> <s_epik_cmdline>
J2VwaWtfcHl0aG9uJywgJy1waCcsICc3LjAnLCAnLXRuJywgJzgnLCAnLW1hJywgJzIwMCcsICctbWV0YWxfYmluZGluZycsICctaW1hZScsICc8aW5maWxlLm1hZT4nLCAnLW9tYWUnLCAnPG91dGZpbGUubWFlPic=

> <r_lp_tautomer_probability>
1

> <r_epik_Ionization_Penalty>
6.59786

> <r_epik_Ionization_Penalty_Charging>
6.59773

> <r_epik_Ionization_Penalty_Neutral>
0.00012688

> <r_epik_State_Penalty>
6.59772

> <r_epik_Charging_Adjusted_Penalty>
13.1954

> <i_epik_Tot_Q>
-1

> <i_epik_Tot_abs_Q>
1

> <r_epik_Metal_State_Penalty>
2.522

> <b_epik_Metal_Only>
1

> <s_lp_Force_Field>
OPLS_2005

> <r_lp_Energy>
19.1909

> <b_lp_Chiralities_Consistent>
1

> <s_lp_Variant>
AV-unprocessed.smi:1659-2

> <Gold.Version>
5.8.1

> <Gold.Id.Protein>
6NUR|6NUR_protein|mol2

> <Gold.PLP.Fitness>
45.6685

> <Gold.PLP.PLP>
-44.0774

> <Gold.PLP.part.hbond>
-2.0000

> <Gold.PLP.part.metal>
0.0000

> <Gold.PLP.part.buried>
-7.6706

> <Gold.PLP.part.nonpolar>
-35.2547

> <Gold.PLP.part.repulsive>
0.9682

> <Gold.PLP.ligand.clash>
0.0000

> <Gold.PLP.ligand.torsion>
0.8674

> <Gold.PLP.Chemscore.Hbond>
1.0572

> <Gold.PLP.Chemscore.CHOScore>
0.0000

> <Gold.PLP.Chemscore.Metal>
0.0000

> <Gold.Chemscore.Hbonds>
donor molecule, donor type, donor heavy atom, donor atom, acceptor molecule, acceptor atom, score
      L1  H     8    26       P1  8028  1.00

> <Gold.PLP.Chemscore.Internal.Correction>
0.1543

> <Gold.Rescore>
     Score         DG    S(hbond)    S(metal)    S(lipo)     H(rot)  DE(clash)    DE(int)     intcor
     14.20     -15.14       1.00        0.00      94.24       1.84       0.04       0.90       ----

> <Gold.Chemscore.Fitness>
14.1986

> <Gold.Chemscore.DG>
-15.1376

> <Gold.Chemscore.ZeroCoef>
-5.4800

> <Gold.Chemscore.Hbond>
1.0000

> <Gold.Chemscore.Metal>
0.0000

> <Gold.Chemscore.Lipo>
94.2385

> <Gold.Chemscore.Internal_Hbond>
0.0000

> <Gold.Chemscore.DEClash>
0.0376

> <Gold.Chemscore.DEInternal>
0.9014

> <Gold.Chemscore.Rot>
1.8391

> <Gold.Chemscore.Internal.Correction>
   9.000000E+99

> <Gold.Chemscore.Hbonds>
donor molecule, donor type, donor heavy atom, donor atom, acceptor molecule, acceptor atom, score
      L1  H     8    26       P1  8028  1.00

> <Gold.Chemscore.Hbond.Weighted>
-3.3399

> <Gold.Chemscore.Metal.Weighted>
-0.0000

> <Gold.Chemscore.Lipo.Weighted>
-11.0259

> <Gold.Chemscore.Internal_Hbond.Weighted>
0.0000

> <Gold.Chemscore.DEClash.Weighted>
0.0376

> <Gold.Chemscore.DEInternal.Weighted>
0.9014

> <Gold.Chemscore.Rot.Weighted>
4.7082

> <Gold.Chemscore.Internal.Correction.Weighted>
   9.000000E+99

> <Gold.Protein.RotatedTorsions>
[ 6907 6896 6895 6894 ] final  162.46 input  -60.11 | X-H torsion
[ 7974 7965 7964 7962 ] final   79.02 input  175.53 | X-H torsion
[ 8008 7997 7996 7995 ] final -126.53 input   59.86 | X-H torsion
[ 10167 10162 10161 10158 ] final  156.59 input  -65.29 | X-H torsion
[ 10718 10713 10712 10709 ] final  -61.69 input   66.30 | X-H torsion
[ 10763 10752 10751 10750 ] final -143.82 input  -60.55 | X-H torsion
[ 11005 11000 10999 10996 ] final -122.35 input  -57.11 | X-H torsion

> <Gold.Protein.ActiveResidues>
 VAL166  LYS551  ARG553  GLY616  TRP617  ASP618  TYR619  PRO620  LYS621  CYS622 
 ASP623  PHE694  ASN695  SER759  ASP760  ASP761  ALA762  ILE779  LEU786  VAL792 
 PHE793  MET794  SER795  GLU796  ALA797  LYS798  CYS799  TRP800  GLU811  SER814 

> <Gold.Protein.RotatedAtoms>
  151.9400  133.3635  159.3961 H   0  0  0  0  0  0  0  0  0  0  0  0  # atno 6907 bound_to 6896
  150.7000  134.4449  159.5318 H   0  0  0  0  0  0  0  0  0  0  0  0  # atno 6908 bound_to 6896
  152.2104  134.8507  160.0549 H   0  0  0  0  0  0  0  0  0  0  0  0  # atno 6909 bound_to 6896
  145.6696  139.2493  143.1876 H   0  0  0  0  0  0  0  0  0  0  0  0  # atno 7974 bound_to 7965
  155.2312  140.0425  157.2962 H   0  0  0  0  0  0  0  0  0  0  0  0  # atno 8008 bound_to 7997
  154.5887  140.2421  155.7921 H   0  0  0  0  0  0  0  0  0  0  0  0  # atno 8009 bound_to 7997
  156.2244  140.2959  156.0039 H   0  0  0  0  0  0  0  0  0  0  0  0  # atno 8010 bound_to 7997
  139.4821  144.4995  151.8189 H   0  0  0  0  0  0  0  0  0  0  0  0  # atno 10167 bound_to 10162
  156.0905  130.4201  150.1029 H   0  0  0  0  0  0  0  0  0  0  0  0  # atno 10718 bound_to 10713
  154.8454  135.3457  154.6248 H   0  0  0  0  0  0  0  0  0  0  0  0  # atno 10763 bound_to 10752
  153.6857  135.6977  153.5109 H   0  0  0  0  0  0  0  0  0  0  0  0  # atno 10764 bound_to 10752
  153.2634  135.4316  155.0872 H   0  0  0  0  0  0  0  0  0  0  0  0  # atno 10765 bound_to 10752
  141.0002  134.0414  157.3547 H   0  0  0  0  0  0  0  0  0  0  0  0  # atno 11005 bound_to 11000
  146.1057  140.7490  142.9528 LP  0  0  0  0  0  0  0  0  0  0  0  0  # atno 17320 bound_to 7965
  144.7061  140.3858  143.7117 LP  0  0  0  0  0  0  0  0  0  0  0  0  # atno 17321 bound_to 7965
  140.4487  144.1886  150.5896 LP  0  0  0  0  0  0  0  0  0  0  0  0  # atno 17342 bound_to 10162
  140.4608  143.2450  151.9223 LP  0  0  0  0  0  0  0  0  0  0  0  0  # atno 17343 bound_to 10162
  156.9040  130.9630  151.3572 LP  0  0  0  0  0  0  0  0  0  0  0  0  # atno 17370 bound_to 10713
  157.6053  130.8542  149.8865 LP  0  0  0  0  0  0  0  0  0  0  0  0  # atno 17371 bound_to 10713
  139.9035  135.0172  156.7378 LP  0  0  0  0  0  0  0  0  0  0  0  0  # atno 17394 bound_to 11000
  140.6902  133.9397  155.7961 LP  0  0  0  0  0  0  0  0  0  0  0  0  # atno 17395 bound_to 11000

$$$$
