AV-unprocessed.smi:1218|AV-procd|sdf|5107|dock5
  -GOLD-   22720 4163D 1   1.00000     0.00000
 Structure written by MMmdl.
 45 46  0  0  0  0  0  0  0  0  2 V2000
  144.2441  132.6874  149.5223 C   0  0  0  0  0  0  0  0  0  0  0  0
  144.9095  132.7690  150.9044 C   0  0  0  0  0  0  0  0  0  0  0  0
  145.3959  131.3791  151.3481 C   0  0  0  0  0  0  0  0  0  0  0  0
  143.9449  133.3982  151.9333 C   0  0  0  0  0  0  0  0  0  0  0  0
  143.3819  134.7031  151.4901 N   0  3  2  0  0  0  0  0  0  0  0  0
  144.3712  135.5718  150.8077 C   0  0  0  0  0  0  0  0  0  0  0  0
  145.3012  136.2566  151.8246 C   0  0  0  0  0  0  0  0  0  0  0  0
  144.5176  136.9952  152.7528 O   0  0  0  0  0  0  0  0  0  0  0  0
  143.6390  136.1704  153.5124 C   0  0  1  0  0  0  0  0  0  0  0  0
  142.8895  137.0483  154.5309 C   0  0  0  0  0  0  0  0  0  0  0  0
  141.6770  137.6287  153.9631 N   0  0  0  0  0  0  0  0  0  0  0  0
  140.4637  137.0557  153.9742 C   0  0  0  0  0  0  0  0  0  0  0  0
  140.2448  135.9500  154.4703 O   0  0  0  0  0  0  0  0  0  0  0  0
  139.3324  137.8556  153.3194 C   0  0  0  0  0  0  0  0  0  0  0  0
  138.0242  137.2919  153.6097 N   0  0  0  0  0  0  0  0  0  0  0  0
  137.5396  136.0390  153.2940 C   0  0  0  0  0  0  0  0  0  0  0  0
  136.2650  135.9618  153.7775 C   0  0  0  0  0  0  0  0  0  0  0  0
  136.0566  137.2316  154.3848 C   0  0  0  0  0  0  0  0  0  0  0  0
  137.1117  138.0242  154.2856 N   0  0  0  0  0  0  0  0  0  0  0  0
  142.6627  135.4678  152.5421 C   0  0  0  0  0  0  0  0  0  0  0  0
  143.3563  132.0545  149.5447 H   0  0  0  0  0  0  0  0  0  0  0  0
  144.9280  132.2741  148.7803 H   0  0  0  0  0  0  0  0  0  0  0  0
  143.9398  133.6744  149.1722 H   0  0  0  0  0  0  0  0  0  0  0  0
  145.7838  133.4088  150.7907 H   0  0  0  0  0  0  0  0  0  0  0  0
  144.5616  130.6889  151.4776 H   0  0  0  0  0  0  0  0  0  0  0  0
  145.9388  131.4273  152.2924 H   0  0  0  0  0  0  0  0  0  0  0  0
  146.0711  130.9470  150.6088 H   0  0  0  0  0  0  0  0  0  0  0  0
  143.1380  132.7046  152.1693 H   0  0  0  0  0  0  0  0  0  0  0  0
  144.4943  133.5425  152.8648 H   0  0  0  0  0  0  0  0  0  0  0  0
  144.9449  135.0046  150.0740 H   0  0  0  0  0  0  0  0  0  0  0  0
  143.8293  136.3345  150.2470 H   0  0  0  0  0  0  0  0  0  0  0  0
  145.9249  135.5304  152.3479 H   0  0  0  0  0  0  0  0  0  0  0  0
  145.9757  136.9424  151.3117 H   0  0  0  0  0  0  0  0  0  0  0  0
  144.2213  135.4274  154.0594 H   0  0  0  0  0  0  0  0  0  0  0  0
  142.6638  136.4844  155.4377 H   0  0  0  0  0  0  0  0  0  0  0  0
  143.5281  137.8774  154.8369 H   0  0  0  0  0  0  0  0  0  0  0  0
  141.7653  138.5384  153.5336 H   0  0  0  0  0  0  0  0  0  0  0  0
  139.3439  138.8887  153.6696 H   0  0  0  0  0  0  0  0  0  0  0  0
  139.4895  137.8801  152.2399 H   0  0  0  0  0  0  0  0  0  0  0  0
  138.1351  135.3164  152.7555 H   0  0  0  0  0  0  0  0  0  0  0  0
  135.5850  135.1258  153.7085 H   0  0  0  0  0  0  0  0  0  0  0  0
  135.1767  137.5978  154.8929 H   0  0  0  0  0  0  0  0  0  0  0  0
  142.0475  136.2199  152.0460 H   0  0  0  0  0  0  0  0  0  0  0  0
  141.9705  134.8288  153.0886 H   0  0  0  0  0  0  0  0  0  0  0  0
  142.6963  134.4648  150.7875 H   0  0  0  0  0  0  0  0  0  0  0  0
  1  2  1  0  0  0  0
  1 21  1  0  0  0  0
  1 22  1  0  0  0  0
  1 23  1  0  0  0  0
  2  3  1  0  0  0  0
  2  4  1  0  0  0  0
  2 24  1  0  0  0  0
  3 25  1  0  0  0  0
  3 26  1  0  0  0  0
  3 27  1  0  0  0  0
  4  5  1  0  0  0  0
  4 28  1  0  0  0  0
  4 29  1  0  0  0  0
  5 20  1  0  0  0  0
  5  6  1  0  0  0  0
  5 45  1  0  0  0  0
  6  7  1  0  0  0  0
  6 30  1  0  0  0  0
  6 31  1  0  0  0  0
  7  8  1  0  0  0  0
  7 32  1  0  0  0  0
  7 33  1  0  0  0  0
  8  9  1  0  0  0  0
  9 10  1  0  0  0  0
  9 20  1  0  0  0  0
  9 34  1  0  0  0  0
 10 11  1  0  0  0  0
 10 35  1  0  0  0  0
 10 36  1  0  0  0  0
 11 12  1  0  0  0  0
 11 37  1  0  0  0  0
 12 13  2  0  0  0  0
 12 14  1  0  0  0  0
 14 15  1  0  0  0  0
 14 38  1  0  0  0  0
 14 39  1  0  0  0  0
 15 19  1  0  0  0  0
 15 16  1  0  0  0  0
 16 17  2  0  0  0  0
 16 40  1  0  0  0  0
 17 18  1  0  0  0  0
 17 41  1  0  0  0  0
 18 19  2  0  0  0  0
 18 42  1  0  0  0  0
 20 43  1  0  0  0  0
 20 44  1  0  0  0  0
M  CHG  1   5   1
M  END
> <s_m_source_file>
AV-unprocessed.smi

> <i_m_source_file_index>
1218

> <i_lp_mmshare_version>
43012

> <i_f3d_flags>
0

> <s_epik_input>
W0NIM11bQ0hdKFtDSDNdKVtDSDJdTjFbQ0gyXVtDSDJdT1tDQEhdKFtDSDJdMSlbQ0gyXVtOSF1DKD1PKVtDSDJdbjJbY0hdW2NIXVtjSF1uMg==

> <s_epik_cmdline>
J2VwaWtfcHl0aG9uJywgJy1waCcsICc3LjAnLCAnLXRuJywgJzgnLCAnLW1hJywgJzIwMCcsICctbWV0YWxfYmluZGluZycsICctaW1hZScsICc8aW5maWxlLm1hZT4nLCAnLW9tYWUnLCAnPG91dGZpbGUubWFlPic=

> <r_lp_tautomer_probability>
1

> <r_epik_Ionization_Penalty>
0.0995066

> <r_epik_Ionization_Penalty_Charging>
0.0994921

> <r_epik_Ionization_Penalty_Neutral>
1.44634e-05

> <r_epik_State_Penalty>
0.0895432

> <r_epik_Charging_Adjusted_Penalty>
0.189035

> <i_epik_Tot_Q>
1

> <i_epik_Tot_abs_Q>
1

> <r_epik_Metal_State_Penalty>
0.0895432

> <b_epik_Metal_Only>
0

> <s_lp_Force_Field>
OPLS_2005

> <r_lp_Energy>
22.0385

> <b_lp_Chiralities_Consistent>
1

> <s_lp_Variant>
AV-unprocessed.smi:1218-2

> <Gold.Version>
5.8.1

> <Gold.Id.Protein>
6NUR|6NUR_protein|mol2

> <Gold.PLP.Fitness>
46.3486

> <Gold.PLP.PLP>
-35.7387

> <Gold.PLP.part.hbond>
-2.0000

> <Gold.PLP.part.metal>
0.0000

> <Gold.PLP.part.buried>
-5.6749

> <Gold.PLP.part.nonpolar>
-29.4143

> <Gold.PLP.part.repulsive>
0.2827

> <Gold.PLP.ligand.clash>
0.0000

> <Gold.PLP.ligand.torsion>
0.7687

> <Gold.PLP.Chemscore.Hbond>
3.0000

> <Gold.PLP.Chemscore.CHOScore>
0.9996

> <Gold.PLP.Chemscore.Metal>
0.0000

> <Gold.Chemscore.Hbonds>
donor molecule, donor type, donor heavy atom, donor atom, acceptor molecule, acceptor atom, score
      L1  H     5    45       P1 10186  1.76
      P1  H 11000 11005       L1    13  0.91
      L1  C    16    40       P1 10187  1.00

> <Gold.PLP.Chemscore.Internal.Correction>
0.1485

> <Gold.Rescore>
     Score         DG    S(hbond)    S(metal)    S(lipo)     H(rot)  DE(clash)    DE(int)     intcor
     12.96     -15.44       1.32        0.00      90.50       1.96       0.53       1.94       ----

> <Gold.Chemscore.Fitness>
12.9610

> <Gold.Chemscore.DG>
-15.4379

> <Gold.Chemscore.ZeroCoef>
-5.4800

> <Gold.Chemscore.Hbond>
1.3154

> <Gold.Chemscore.Metal>
0.0000

> <Gold.Chemscore.Lipo>
90.4981

> <Gold.Chemscore.Internal_Hbond>
0.0000

> <Gold.Chemscore.DEClash>
0.5339

> <Gold.Chemscore.DEInternal>
1.9430

> <Gold.Chemscore.Rot>
1.9624

> <Gold.Chemscore.Internal.Correction>
   9.000000E+99

> <Gold.Chemscore.Hbonds>
donor molecule, donor type, donor heavy atom, donor atom, acceptor molecule, acceptor atom, score
      L1  H     5    45       P1 10186  0.22
      P1  H 11000 11005       L1    13  0.86

> <Gold.Chemscore.Hbond.Weighted>
-4.3933

> <Gold.Chemscore.Metal.Weighted>
-0.0000

> <Gold.Chemscore.Lipo.Weighted>
-10.5883

> <Gold.Chemscore.Internal_Hbond.Weighted>
0.0000

> <Gold.Chemscore.DEClash.Weighted>
0.5339

> <Gold.Chemscore.DEInternal.Weighted>
1.9430

> <Gold.Chemscore.Rot.Weighted>
5.0237

> <Gold.Chemscore.Internal.Correction.Weighted>
   9.000000E+99

> <Gold.Protein.RotatedTorsions>
[ 6907 6896 6895 6894 ] final -174.85 input  -60.11 | X-H torsion
[ 7974 7965 7964 7962 ] final -113.70 input  175.53 | X-H torsion
[ 8008 7997 7996 7995 ] final  -80.91 input   59.86 | X-H torsion
[ 10167 10162 10161 10158 ] final  148.35 input  -65.29 | X-H torsion
[ 10718 10713 10712 10709 ] final -155.37 input   66.30 | X-H torsion
[ 10763 10752 10751 10750 ] final  -85.82 input  -60.55 | X-H torsion
[ 11005 11000 10999 10996 ] final   38.11 input  -57.11 | X-H torsion

> <Gold.Protein.ActiveResidues>
 VAL166  LYS551  ARG553  GLY616  TRP617  ASP618  TYR619  PRO620  LYS621  CYS622 
 ASP623  PHE694  ASN695  SER759  ASP760  ASP761  ALA762  ILE779  LEU786  VAL792 
 PHE793  MET794  SER795  GLU796  ALA797  LYS798  CYS799  TRP800  GLU811  SER814 

> <Gold.Protein.RotatedAtoms>
  151.5790  133.3380  159.3004 H   0  0  0  0  0  0  0  0  0  0  0  0  # atno 6907 bound_to 6896
  150.8324  134.7586  159.6876 H   0  0  0  0  0  0  0  0  0  0  0  0  # atno 6908 bound_to 6896
  152.4405  134.5606  159.9944 H   0  0  0  0  0  0  0  0  0  0  0  0  # atno 6909 bound_to 6896
  145.1290  140.8713  143.3769 H   0  0  0  0  0  0  0  0  0  0  0  0  # atno 7974 bound_to 7965
  154.5930  140.0656  156.9265 H   0  0  0  0  0  0  0  0  0  0  0  0  # atno 8008 bound_to 7997
  155.2262  140.3334  155.4291 H   0  0  0  0  0  0  0  0  0  0  0  0  # atno 8009 bound_to 7997
  156.2269  140.1823  156.7326 H   0  0  0  0  0  0  0  0  0  0  0  0  # atno 8010 bound_to 7997
  139.4876  144.5686  151.7098 H   0  0  0  0  0  0  0  0  0  0  0  0  # atno 10167 bound_to 10162
  156.5120  130.8439  151.2650 H   0  0  0  0  0  0  0  0  0  0  0  0  # atno 10718 bound_to 10713
  154.6155  135.5471  153.7519 H   0  0  0  0  0  0  0  0  0  0  0  0  # atno 10763 bound_to 10752
  153.0214  135.6400  154.1516 H   0  0  0  0  0  0  0  0  0  0  0  0  # atno 10764 bound_to 10752
  154.1453  135.2906  155.3130 H   0  0  0  0  0  0  0  0  0  0  0  0  # atno 10765 bound_to 10752
  140.2159  134.3699  155.8027 H   0  0  0  0  0  0  0  0  0  0  0  0  # atno 11005 bound_to 11000
  145.0657  139.3071  143.5858 LP  0  0  0  0  0  0  0  0  0  0  0  0  # atno 17320 bound_to 7965
  146.3515  140.0114  142.8667 LP  0  0  0  0  0  0  0  0  0  0  0  0  # atno 17321 bound_to 7965
  140.5269  144.0792  150.6040 LP  0  0  0  0  0  0  0  0  0  0  0  0  # atno 17342 bound_to 10162
  140.3769  143.2824  152.0215 LP  0  0  0  0  0  0  0  0  0  0  0  0  # atno 17343 bound_to 10162
  157.7449  130.9946  150.2715 LP  0  0  0  0  0  0  0  0  0  0  0  0  # atno 17370 bound_to 10713
  156.3231  130.3789  149.7557 LP  0  0  0  0  0  0  0  0  0  0  0  0  # atno 17371 bound_to 10713
  141.2225  133.7167  156.8495 LP  0  0  0  0  0  0  0  0  0  0  0  0  # atno 17394 bound_to 11000
  140.1901  134.8971  157.3051 LP  0  0  0  0  0  0  0  0  0  0  0  0  # atno 17395 bound_to 11000

$$$$
