AV-unprocessed.smi:2438|AV-procd|sdf|9595|dock3
  -GOLD-   2272013223D 1   1.00000     0.00000
 Structure written by MMmdl.
 43 44  0  0  0  0  0  0  0  0  1 V2000
  153.5207  143.6250  158.9615 C   0  0  0  0  0  0  0  0  0  0  0  0
  152.8906  143.1419  160.1826 N   0  0  0  0  0  0  0  0  0  0  0  0
  152.3628  144.1621  161.0799 C   0  0  0  0  0  0  0  0  0  0  0  0
  153.5931  142.0804  160.7879 C   0  0  0  0  0  0  0  0  0  0  0  0
  154.0848  142.2740  162.0360 N   0  0  0  0  0  0  0  0  0  0  0  0
  154.7648  141.2717  162.5947 C   0  0  0  0  0  0  0  0  0  0  0  0
  155.0127  140.0789  162.0544 N   0  0  0  0  0  0  0  0  0  0  0  0
  154.5311  139.8626  160.8127 C   0  0  0  0  0  0  0  0  0  0  0  0
  153.8027  140.8522  160.1068 C   0  0  0  0  0  0  0  0  0  0  0  0
  153.2389  140.6404  158.8176 N   0  0  0  0  0  0  0  0  0  0  0  0
  152.7643  139.4967  158.2983 C   0  0  0  0  0  0  0  0  0  0  0  0
  152.7194  138.4151  158.8838 O   0  0  0  0  0  0  0  0  0  0  0  0
  152.3595  139.6735  157.0330 N   0  0  0  0  0  0  0  0  0  0  0  0
  151.8194  138.6319  156.1602 C   0  0  2  0  0  0  0  0  0  0  0  0
  151.4449  139.1950  154.7730 C   0  0  0  0  0  0  0  0  0  0  0  0
  150.2169  140.1173  154.8372 C   0  0  0  0  0  0  0  0  0  0  0  0
  149.0190  139.4054  155.4850 C   0  0  0  0  0  0  0  0  0  0  0  0
  149.3638  138.8729  156.8919 C   0  0  1  0  0  0  0  0  0  0  0  0
  148.1607  138.1705  157.5549 C   0  0  0  0  0  0  0  0  0  0  0  0
  147.7789  137.1089  156.8442 F   0  0  0  0  0  0  0  0  0  0  0  0
  148.4871  137.7718  158.7844 F   0  0  0  0  0  0  0  0  0  0  0  0
  147.1349  139.0163  157.6514 F   0  0  0  0  0  0  0  0  0  0  0  0
  150.6051  137.9530  156.8253 C   0  0  0  0  0  0  0  0  0  0  0  0
  153.6238  142.8326  158.2203 H   0  0  0  0  0  0  0  0  0  0  0  0
  154.5131  144.0232  159.1762 H   0  0  0  0  0  0  0  0  0  0  0  0
  152.9251  144.4218  158.5147 H   0  0  0  0  0  0  0  0  0  0  0  0
  151.8847  143.7081  161.9487 H   0  0  0  0  0  0  0  0  0  0  0  0
  151.6156  144.7665  160.5651 H   0  0  0  0  0  0  0  0  0  0  0  0
  153.1570  144.8245  161.4263 H   0  0  0  0  0  0  0  0  0  0  0  0
  155.1507  141.4431  163.5884 H   0  0  0  0  0  0  0  0  0  0  0  0
  154.7142  138.8790  160.4089 H   0  0  0  0  0  0  0  0  0  0  0  0
  153.2907  141.4293  158.1896 H   0  0  0  0  0  0  0  0  0  0  0  0
  152.4391  140.5986  156.6369 H   0  0  0  0  0  0  0  0  0  0  0  0
  152.5919  137.8721  156.0279 H   0  0  0  0  0  0  0  0  0  0  0  0
  152.2891  139.7265  154.3324 H   0  0  0  0  0  0  0  0  0  0  0  0
  151.2293  138.3648  154.0993 H   0  0  0  0  0  0  0  0  0  0  0  0
  150.4594  141.0176  155.4031 H   0  0  0  0  0  0  0  0  0  0  0  0
  149.9516  140.4488  153.8329 H   0  0  0  0  0  0  0  0  0  0  0  0
  148.1770  140.0957  155.5406 H   0  0  0  0  0  0  0  0  0  0  0  0
  148.6990  138.5814  154.8460 H   0  0  0  0  0  0  0  0  0  0  0  0
  149.6163  139.7316  157.5158 H   0  0  0  0  0  0  0  0  0  0  0  0
  150.3536  137.0536  156.2617 H   0  0  0  0  0  0  0  0  0  0  0  0
  150.8774  137.6130  157.8253 H   0  0  0  0  0  0  0  0  0  0  0  0
  1  2  1  0  0  0  0
  1 24  1  0  0  0  0
  1 25  1  0  0  0  0
  1 26  1  0  0  0  0
  2  3  1  0  0  0  0
  2  4  1  0  0  0  0
  3 27  1  0  0  0  0
  3 28  1  0  0  0  0
  3 29  1  0  0  0  0
  4  9  1  0  0  0  0
  4  5  2  0  0  0  0
  5  6  1  0  0  0  0
  6  7  2  0  0  0  0
  6 30  1  0  0  0  0
  7  8  1  0  0  0  0
  8  9  2  0  0  0  0
  8 31  1  0  0  0  0
  9 10  1  0  0  0  0
 10 11  1  0  0  0  0
 10 32  1  0  0  0  0
 11 12  2  0  0  0  0
 11 13  1  0  0  0  0
 13 14  1  0  0  0  0
 13 33  1  0  0  0  0
 14 23  1  0  0  0  0
 14 15  1  0  0  0  0
 14 34  1  0  0  0  0
 15 16  1  0  0  0  0
 15 35  1  0  0  0  0
 15 36  1  0  0  0  0
 16 17  1  0  0  0  0
 16 37  1  0  0  0  0
 16 38  1  0  0  0  0
 17 18  1  0  0  0  0
 17 39  1  0  0  0  0
 17 40  1  0  0  0  0
 18 19  1  0  0  0  0
 18 23  1  0  0  0  0
 18 41  1  0  0  0  0
 19 20  1  0  0  0  0
 19 21  1  0  0  0  0
 19 22  1  0  0  0  0
 23 42  1  0  0  0  0
 23 43  1  0  0  0  0
M  END
> <s_m_source_file>
AV-unprocessed.smi

> <i_m_source_file_index>
2438

> <i_lp_mmshare_version>
43012

> <i_f3d_flags>
0

> <s_epik_input>
W0NIM11OKFtDSDNdKWMxbltjSF1uW2NIXWMxW05IXUMoPU8pW05IXVtDQEBIXTJbQ0gyXVtDSDJdW0NIMl1bQ0BASF0oQyhGKShGKUYpW0NIMl0y

> <s_epik_cmdline>
J2VwaWtfcHl0aG9uJywgJy1waCcsICc3LjAnLCAnLXRuJywgJzgnLCAnLW1hJywgJzIwMCcsICctbWV0YWxfYmluZGluZycsICctaW1hZScsICc8aW5maWxlLm1hZT4nLCAnLW9tYWUnLCAnPG91dGZpbGUubWFlPic=

> <r_lp_tautomer_probability>
1

> <r_epik_Ionization_Penalty>
0.01759

> <r_epik_Ionization_Penalty_Charging>
0

> <r_epik_Ionization_Penalty_Neutral>
0.01759

> <r_epik_State_Penalty>
0.0133536

> <r_epik_Charging_Adjusted_Penalty>
0.0133536

> <i_epik_Tot_Q>
0

> <i_epik_Tot_abs_Q>
0

> <r_epik_Metal_State_Penalty>
0.0129828

> <b_epik_Metal_Only>
0

> <s_lp_Force_Field>
OPLS_2005

> <r_lp_Energy>
11.7103

> <b_lp_Chiralities_Consistent>
1

> <s_lp_Variant>
AV-unprocessed.smi:2438-1

> <Gold.Version>
5.8.1

> <Gold.Id.Protein>
6NUR|6NUR_protein|mol2

> <Gold.PLP.Fitness>
31.0418

> <Gold.PLP.PLP>
-31.7206

> <Gold.PLP.part.hbond>
-1.0000

> <Gold.PLP.part.metal>
0.0000

> <Gold.PLP.part.buried>
-2.2768

> <Gold.PLP.part.nonpolar>
-28.2251

> <Gold.PLP.part.repulsive>
0.2329

> <Gold.PLP.ligand.clash>
0.0000

> <Gold.PLP.ligand.torsion>
0.5169

> <Gold.PLP.Chemscore.Hbond>
0.0000

> <Gold.PLP.Chemscore.CHOScore>
0.0000

> <Gold.PLP.Chemscore.Metal>
0.0000

> <Gold.PLP.Chemscore.Internal.Correction>
0.3550

> <Gold.Rescore>
     Score         DG    S(hbond)    S(metal)    S(lipo)     H(rot)  DE(clash)    DE(int)     intcor
      8.45     -10.05       0.00        0.00      67.48       1.30       0.01       1.59       ----

> <Gold.Chemscore.Fitness>
8.4517

> <Gold.Chemscore.DG>
-10.0510

> <Gold.Chemscore.ZeroCoef>
-5.4800

> <Gold.Chemscore.Hbond>
0.0000

> <Gold.Chemscore.Metal>
0.0000

> <Gold.Chemscore.Lipo>
67.4838

> <Gold.Chemscore.Internal_Hbond>
0.0000

> <Gold.Chemscore.DEClash>
0.0093

> <Gold.Chemscore.DEInternal>
1.5901

> <Gold.Chemscore.Rot>
1.2987

> <Gold.Chemscore.Internal.Correction>
   9.000000E+99

> <Gold.Chemscore.Hbond.Weighted>
-0.0000

> <Gold.Chemscore.Metal.Weighted>
-0.0000

> <Gold.Chemscore.Lipo.Weighted>
-7.8956

> <Gold.Chemscore.Internal_Hbond.Weighted>
0.0000

> <Gold.Chemscore.DEClash.Weighted>
0.0093

> <Gold.Chemscore.DEInternal.Weighted>
1.5901

> <Gold.Chemscore.Rot.Weighted>
3.3246

> <Gold.Chemscore.Internal.Correction.Weighted>
   9.000000E+99

> <Gold.Protein.RotatedTorsions>
[ 6907 6896 6895 6894 ] final   62.36 input  -60.11 | X-H torsion
[ 7974 7965 7964 7962 ] final -170.34 input  175.53 | X-H torsion
[ 8008 7997 7996 7995 ] final -173.98 input   59.86 | X-H torsion
[ 10167 10162 10161 10158 ] final  179.94 input  -65.29 | X-H torsion
[ 10718 10713 10712 10709 ] final -168.60 input   66.30 | X-H torsion
[ 10763 10752 10751 10750 ] final   52.51 input  -60.55 | X-H torsion
[ 11005 11000 10999 10996 ] final  128.96 input  -57.11 | X-H torsion

> <Gold.Protein.ActiveResidues>
 VAL166  LYS551  ARG553  GLY616  TRP617  ASP618  TYR619  PRO620  LYS621  CYS622 
 ASP623  PHE694  ASN695  SER759  ASP760  ASP761  ALA762  ILE779  LEU786  VAL792 
 PHE793  MET794  SER795  GLU796  ALA797  LYS798  CYS799  TRP800  GLU811  SER814 

> <Gold.Protein.RotatedAtoms>
  152.4166  134.6031  160.0005 H   0  0  0  0  0  0  0  0  0  0  0  0  # atno 6907 bound_to 6896
  151.6192  133.3335  159.3092 H   0  0  0  0  0  0  0  0  0  0  0  0  # atno 6908 bound_to 6896
  150.8054  134.7215  159.6706 H   0  0  0  0  0  0  0  0  0  0  0  0  # atno 6909 bound_to 6896
  144.7171  140.2087  143.6330 H   0  0  0  0  0  0  0  0  0  0  0  0  # atno 7974 bound_to 7965
  155.9643  140.1150  157.0868 H   0  0  0  0  0  0  0  0  0  0  0  0  # atno 8008 bound_to 7997
  154.4140  140.1176  156.5287 H   0  0  0  0  0  0  0  0  0  0  0  0  # atno 8009 bound_to 7997
  155.6680  140.3473  155.4810 H   0  0  0  0  0  0  0  0  0  0  0  0  # atno 8010 bound_to 7997
  139.5358  144.2501  152.0792 H   0  0  0  0  0  0  0  0  0  0  0  0  # atno 10167 bound_to 10162
  156.6993  130.9190  151.3078 H   0  0  0  0  0  0  0  0  0  0  0  0  # atno 10718 bound_to 10713
  152.9789  135.5810  154.4590 H   0  0  0  0  0  0  0  0  0  0  0  0  # atno 10763 bound_to 10752
  154.4169  135.2771  155.2003 H   0  0  0  0  0  0  0  0  0  0  0  0  # atno 10764 bound_to 10752
  154.3768  135.6155  153.5823 H   0  0  0  0  0  0  0  0  0  0  0  0  # atno 10765 bound_to 10752
  139.9589  134.9607  156.9078 H   0  0  0  0  0  0  0  0  0  0  0  0  # atno 11005 bound_to 11000
  145.8611  139.2223  143.1716 LP  0  0  0  0  0  0  0  0  0  0  0  0  # atno 17320 bound_to 7965
  146.0172  140.8381  142.9941 LP  0  0  0  0  0  0  0  0  0  0  0  0  # atno 17321 bound_to 7965
  140.1971  144.4695  150.6450 LP  0  0  0  0  0  0  0  0  0  0  0  0  # atno 17342 bound_to 10162
  140.6564  143.2239  151.5959 LP  0  0  0  0  0  0  0  0  0  0  0  0  # atno 17343 bound_to 10162
  157.6979  130.9301  150.0699 LP  0  0  0  0  0  0  0  0  0  0  0  0  # atno 17370 bound_to 10713
  156.1740  130.3647  149.9125 LP  0  0  0  0  0  0  0  0  0  0  0  0  # atno 17371 bound_to 10713
  140.5546  134.0594  155.7379 LP  0  0  0  0  0  0  0  0  0  0  0  0  # atno 17394 bound_to 11000
  141.1264  133.9376  157.2627 LP  0  0  0  0  0  0  0  0  0  0  0  0  # atno 17395 bound_to 11000

$$$$
