AV-unprocessed.smi:1489|AV-procd|sdf|6025|dock2
  -GOLD-   22720 6123D 1   1.00000     0.00000
 Structure written by MMmdl.
 46 48  0  0  0  0  0  0  0  0  1 V2000
  146.1352  138.4336  154.5562 O   0  0  0  0  0  0  0  0  0  0  0  0
  146.9974  138.0245  153.7789 C   0  0  0  0  0  0  0  0  0  0  0  0
  148.3040  138.3339  153.8375 N   0  0  0  0  0  0  0  0  0  0  0  0
  148.9736  139.1503  154.7880 C   0  0  0  0  0  0  0  0  0  0  0  0
  148.4778  139.4369  156.0809 C   0  0  0  0  0  0  0  0  0  0  0  0
  149.2306  140.2698  156.9308 C   0  0  0  0  0  0  0  0  0  0  0  0
  150.4554  140.8043  156.4654 C   0  0  0  0  0  0  0  0  0  0  0  0
  151.2469  141.6273  157.2903 N   0  0  0  0  0  0  0  0  0  0  0  0
  151.2777  143.0731  157.1375 C   0  0  0  0  0  0  0  0  0  0  0  0
  152.1781  143.5590  158.2723 C   0  0  0  0  0  0  0  0  0  0  0  0
  151.9123  142.5444  159.3850 C   0  0  0  0  0  0  0  0  0  0  0  0
  151.6258  141.2348  158.6403 C   0  0  0  0  0  0  0  0  0  0  0  0
  150.9211  140.5392  155.2217 N   0  0  0  0  0  0  0  0  0  0  0  0
  150.1949  139.7425  154.4104 C   0  0  0  0  0  0  0  0  0  0  0  0
  146.7478  137.1835  152.7647 N   0  0  0  0  0  0  0  0  0  0  0  0
  145.4485  136.6064  152.4287 C   0  0  2  0  0  0  0  0  0  0  0  0
  144.9343  135.7648  153.6124 C   0  0  0  0  0  0  0  0  0  0  0  0
  143.6082  135.0655  153.2724 C   0  0  0  0  0  0  0  0  0  0  0  0
  143.7447  134.2063  152.0038 C   0  0  1  0  0  0  0  0  0  0  0  0
  142.4931  133.6359  151.6851 O   0  0  0  0  0  0  0  0  0  0  0  0
  144.2433  135.0497  150.8175 C   0  0  0  0  0  0  0  0  0  0  0  0
  145.5705  135.7496  151.1538 C   0  0  0  0  0  0  0  0  0  0  0  0
  148.9023  137.8610  153.1759 H   0  0  0  0  0  0  0  0  0  0  0  0
  147.5361  139.0452  156.4332 H   0  0  0  0  0  0  0  0  0  0  0  0
  148.8623  140.4805  157.9236 H   0  0  0  0  0  0  0  0  0  0  0  0
  151.6633  143.3694  156.1614 H   0  0  0  0  0  0  0  0  0  0  0  0
  150.2681  143.4713  157.2477 H   0  0  0  0  0  0  0  0  0  0  0  0
  153.2232  143.5025  157.9647 H   0  0  0  0  0  0  0  0  0  0  0  0
  151.9687  144.5866  158.5703 H   0  0  0  0  0  0  0  0  0  0  0  0
  152.7405  142.4579  160.0886 H   0  0  0  0  0  0  0  0  0  0  0  0
  151.0266  142.8458  159.9461 H   0  0  0  0  0  0  0  0  0  0  0  0
  150.8398  140.6665  159.1389 H   0  0  0  0  0  0  0  0  0  0  0  0
  152.5209  140.6138  158.5897 H   0  0  0  0  0  0  0  0  0  0  0  0
  150.6099  139.5656  153.4288 H   0  0  0  0  0  0  0  0  0  0  0  0
  147.5250  136.9055  152.1835 H   0  0  0  0  0  0  0  0  0  0  0  0
  144.7202  137.3964  152.2364 H   0  0  0  0  0  0  0  0  0  0  0  0
  145.6777  135.0138  153.8840 H   0  0  0  0  0  0  0  0  0  0  0  0
  144.7999  136.3981  154.4904 H   0  0  0  0  0  0  0  0  0  0  0  0
  143.2915  134.4468  154.1129 H   0  0  0  0  0  0  0  0  0  0  0  0
  142.8300  135.8168  153.1301 H   0  0  0  0  0  0  0  0  0  0  0  0
  144.4469  133.3929  152.1912 H   0  0  0  0  0  0  0  0  0  0  0  0
  142.2059  133.9849  150.8552 H   0  0  0  0  0  0  0  0  0  0  0  0
  144.3715  134.4203  149.9360 H   0  0  0  0  0  0  0  0  0  0  0  0
  143.4956  135.8005  150.5568 H   0  0  0  0  0  0  0  0  0  0  0  0
  145.8799  136.3724  150.3135 H   0  0  0  0  0  0  0  0  0  0  0  0
  146.3505  134.9982  151.2851 H   0  0  0  0  0  0  0  0  0  0  0  0
  1  2  2  0  0  0  0
  2  3  1  0  0  0  0
  2 15  1  0  0  0  0
  3  4  1  0  0  0  0
  3 23  1  0  0  0  0
  4 14  1  0  0  0  0
  4  5  2  0  0  0  0
  5  6  1  0  0  0  0
  5 24  1  0  0  0  0
  6  7  2  0  0  0  0
  6 25  1  0  0  0  0
  7  8  1  0  0  0  0
  7 13  1  0  0  0  0
  8 12  1  0  0  0  0
  8  9  1  0  0  0  0
  9 10  1  0  0  0  0
  9 26  1  0  0  0  0
  9 27  1  0  0  0  0
 10 11  1  0  0  0  0
 10 28  1  0  0  0  0
 10 29  1  0  0  0  0
 11 12  1  0  0  0  0
 11 30  1  0  0  0  0
 11 31  1  0  0  0  0
 12 32  1  0  0  0  0
 12 33  1  0  0  0  0
 13 14  2  0  0  0  0
 14 34  1  0  0  0  0
 15 16  1  0  0  0  0
 15 35  1  0  0  0  0
 16 22  1  0  0  0  0
 16 17  1  0  0  0  0
 16 36  1  0  0  0  0
 17 18  1  0  0  0  0
 17 37  1  0  0  0  0
 17 38  1  0  0  0  0
 18 19  1  0  0  0  0
 18 39  1  0  0  0  0
 18 40  1  0  0  0  0
 19 20  1  0  0  0  0
 19 21  1  0  0  0  0
 19 41  1  0  0  0  0
 20 42  1  0  0  0  0
 21 22  1  0  0  0  0
 21 43  1  0  0  0  0
 21 44  1  0  0  0  0
 22 45  1  0  0  0  0
 22 46  1  0  0  0  0
M  END
> <s_m_source_file>
AV-unprocessed.smi

> <i_m_source_file_index>
1489

> <i_lp_mmshare_version>
43012

> <i_f3d_flags>
0

> <s_epik_input>
W0NIMl0xW0NIMl1bQ0BIXShbT0hdKVtDSDJdW0NIMl1bQ0BIXTFbTkhdQyg9TylbTkhdYzJbY0hdW2NIXWMobltjSF0yKU4zW0NIMl1bQ0gyXVtDSDJdW0NIMl0z

> <s_epik_cmdline>
J2VwaWtfcHl0aG9uJywgJy1waCcsICc3LjAnLCAnLXRuJywgJzgnLCAnLW1hJywgJzIwMCcsICctbWV0YWxfYmluZGluZycsICctaW1hZScsICc8aW5maWxlLm1hZT4nLCAnLW9tYWUnLCAnPG91dGZpbGUubWFlPic=

> <r_lp_tautomer_probability>
1

> <r_epik_Ionization_Penalty>
0.104121

> <r_epik_Ionization_Penalty_Charging>
0

> <r_epik_Ionization_Penalty_Neutral>
0.104121

> <r_epik_State_Penalty>
0.0934704

> <r_epik_Charging_Adjusted_Penalty>
0.0934704

> <i_epik_Tot_Q>
0

> <i_epik_Tot_abs_Q>
0

> <r_epik_Metal_State_Penalty>
0.0794432

> <b_epik_Metal_Only>
0

> <s_lp_Force_Field>
OPLS_2005

> <r_lp_Energy>
34.4224

> <b_lp_Chiralities_Consistent>
1

> <s_lp_Variant>
AV-unprocessed.smi:1489-1

> <Gold.Version>
5.8.1

> <Gold.Id.Protein>
6NUR|6NUR_protein|mol2

> <Gold.PLP.Fitness>
44.0043

> <Gold.PLP.PLP>
-35.0325

> <Gold.PLP.part.hbond>
-4.0000

> <Gold.PLP.part.metal>
0.0000

> <Gold.PLP.part.buried>
-3.5262

> <Gold.PLP.part.nonpolar>
-27.0401

> <Gold.PLP.part.repulsive>
0.1854

> <Gold.PLP.ligand.clash>
0.0000

> <Gold.PLP.ligand.torsion>
1.2893

> <Gold.PLP.Chemscore.Hbond>
2.8151

> <Gold.PLP.Chemscore.CHOScore>
0.9802

> <Gold.PLP.Chemscore.Metal>
0.0000

> <Gold.Chemscore.Hbonds>
donor molecule, donor type, donor heavy atom, donor atom, acceptor molecule, acceptor atom, score
      L1  H     3    23       P1  7948  0.77
      L1  H    15    35       P1  7948  1.00
      L1  H    20    42       P1 10186  1.00
      L1  C    14    34       P1  7957  1.00

> <Gold.PLP.Chemscore.Internal.Correction>
0.1645

> <Gold.Rescore>
     Score         DG    S(hbond)    S(metal)    S(lipo)     H(rot)  DE(clash)    DE(int)     intcor
     17.48     -20.25       2.68        0.00      80.50       1.41       0.25       2.52       ----

> <Gold.Chemscore.Fitness>
17.4775

> <Gold.Chemscore.DG>
-20.2509

> <Gold.Chemscore.ZeroCoef>
-5.4800

> <Gold.Chemscore.Hbond>
2.6827

> <Gold.Chemscore.Metal>
0.0000

> <Gold.Chemscore.Lipo>
80.4986

> <Gold.Chemscore.Internal_Hbond>
0.0000

> <Gold.Chemscore.DEClash>
0.2518

> <Gold.Chemscore.DEInternal>
2.5215

> <Gold.Chemscore.Rot>
1.4093

> <Gold.Chemscore.Internal.Correction>
   9.000000E+99

> <Gold.Chemscore.Hbonds>
donor molecule, donor type, donor heavy atom, donor atom, acceptor molecule, acceptor atom, score
      L1  H     3    23       P1  7948  0.75
      L1  H    15    35       P1  7948  0.97
      L1  H    20    42       P1 10186  0.39

> <Gold.Chemscore.Hbond.Weighted>
-8.9603

> <Gold.Chemscore.Metal.Weighted>
-0.0000

> <Gold.Chemscore.Lipo.Weighted>
-9.4183

> <Gold.Chemscore.Internal_Hbond.Weighted>
0.0000

> <Gold.Chemscore.DEClash.Weighted>
0.2518

> <Gold.Chemscore.DEInternal.Weighted>
2.5215

> <Gold.Chemscore.Rot.Weighted>
3.6077

> <Gold.Chemscore.Internal.Correction.Weighted>
   9.000000E+99

> <Gold.Protein.RotatedTorsions>
[ 6907 6896 6895 6894 ] final  141.08 input  -60.11 | X-H torsion
[ 7974 7965 7964 7962 ] final  117.03 input  175.53 | X-H torsion
[ 8008 7997 7996 7995 ] final  -77.48 input   59.86 | X-H torsion
[ 10167 10162 10161 10158 ] final  111.72 input  -65.29 | X-H torsion
[ 10718 10713 10712 10709 ] final  -94.41 input   66.30 | X-H torsion
[ 10763 10752 10751 10750 ] final   41.91 input  -60.55 | X-H torsion
[ 11005 11000 10999 10996 ] final  157.22 input  -57.11 | X-H torsion

> <Gold.Protein.ActiveResidues>
 VAL166  LYS551  ARG553  GLY616  TRP617  ASP618  TYR619  PRO620  LYS621  CYS622 
 ASP623  PHE694  ASN695  SER759  ASP760  ASP761  ALA762  ILE779  LEU786  VAL792 
 PHE793  MET794  SER795  GLU796  ALA797  LYS798  CYS799  TRP800  GLU811  SER814 

> <Gold.Protein.RotatedAtoms>
  152.2353  133.5091  159.5238 H   0  0  0  0  0  0  0  0  0  0  0  0  # atno 6907 bound_to 6896
  150.7049  134.1161  159.4027 H   0  0  0  0  0  0  0  0  0  0  0  0  # atno 6908 bound_to 6896
  151.9082  135.0350  160.0563 H   0  0  0  0  0  0  0  0  0  0  0  0  # atno 6909 bound_to 6896
  145.1724  139.3094  143.4461 H   0  0  0  0  0  0  0  0  0  0  0  0  # atno 7974 bound_to 7965
  154.5600  140.0710  156.8803 H   0  0  0  0  0  0  0  0  0  0  0  0  # atno 8008 bound_to 7997
  155.2830  140.3373  155.4239 H   0  0  0  0  0  0  0  0  0  0  0  0  # atno 8009 bound_to 7997
  156.2034  140.1730  156.7837 H   0  0  0  0  0  0  0  0  0  0  0  0  # atno 8010 bound_to 7997
  139.6589  144.7129  151.1902 H   0  0  0  0  0  0  0  0  0  0  0  0  # atno 10167 bound_to 10162
  156.0027  130.5066  150.5922 H   0  0  0  0  0  0  0  0  0  0  0  0  # atno 10718 bound_to 10713
  152.9896  135.6148  154.2863 H   0  0  0  0  0  0  0  0  0  0  0  0  # atno 10763 bound_to 10752
  154.2591  135.2783  155.2787 H   0  0  0  0  0  0  0  0  0  0  0  0  # atno 10764 bound_to 10752
  154.5222  135.5811  153.6747 H   0  0  0  0  0  0  0  0  0  0  0  0  # atno 10765 bound_to 10752
  140.1749  134.8517  157.2735 H   0  0  0  0  0  0  0  0  0  0  0  0  # atno 11005 bound_to 11000
  146.3466  140.1874  142.8589 LP  0  0  0  0  0  0  0  0  0  0  0  0  # atno 17320 bound_to 7965
  145.0219  140.8801  143.5161 LP  0  0  0  0  0  0  0  0  0  0  0  0  # atno 17321 bound_to 7965
  140.7571  143.6026  150.8685 LP  0  0  0  0  0  0  0  0  0  0  0  0  # atno 17342 bound_to 10162
  139.9681  143.6087  152.2982 LP  0  0  0  0  0  0  0  0  0  0  0  0  # atno 17343 bound_to 10162
  157.3785  131.0777  151.1497 LP  0  0  0  0  0  0  0  0  0  0  0  0  # atno 17370 bound_to 10713
  157.2228  130.6489  149.5818 LP  0  0  0  0  0  0  0  0  0  0  0  0  # atno 17371 bound_to 10713
  140.2334  134.3882  155.7512 LP  0  0  0  0  0  0  0  0  0  0  0  0  # atno 17394 bound_to 11000
  141.2220  133.7227  156.8676 LP  0  0  0  0  0  0  0  0  0  0  0  0  # atno 17395 bound_to 11000

$$$$
