AV-unprocessed.smi:3274|AV-procd|sdf|12527|dock9
  -GOLD-   2272018443D 1   1.00000     0.00000
 Structure written by MMmdl.
 43 44  0  0  0  0  0  0  0  0  2 V2000
  151.5032  144.9349  158.4583 C   0  0  0  0  0  0  0  0  0  0  0  0
  151.7929  143.5664  159.0520 C   0  0  0  0  0  0  0  0  0  0  0  0
  152.4402  143.4700  160.2292 C   0  0  0  0  0  0  0  0  0  0  0  0
  152.8414  142.1644  160.8767 C   0  0  0  0  0  0  0  0  0  0  0  0
  152.8867  141.0313  159.8485 C   0  0  0  0  0  0  0  0  0  0  0  0
  151.6020  140.9865  159.0053 C   0  0  2  0  0  0  0  0  0  0  0  0
  151.6556  139.7760  158.0520 C   0  0  0  0  0  0  0  0  0  0  0  0
  151.3405  142.3278  158.2524 C   0  0  1  0  0  0  0  0  0  0  0  0
  149.8558  142.4097  157.8117 C   0  0  0  0  0  0  0  0  0  0  0  0
  149.6803  142.2464  156.3511 N   0  3  0  0  0  0  0  0  0  0  0  0
  148.6480  141.2682  155.9349 C   0  0  1  0  0  0  0  0  0  0  0  0
  147.2713  141.9441  155.9880 C   0  0  0  0  0  0  0  0  0  0  0  0
  148.9213  140.7151  154.5176 C   0  0  0  0  0  0  0  0  0  0  0  0
  149.9540  139.6959  154.4799 N   0  0  0  0  0  0  0  0  0  0  0  0
  149.8980  138.4175  154.1023 C   0  0  0  0  0  0  0  0  0  0  0  0
  151.0552  137.7793  154.2028 N   0  0  0  0  0  0  0  0  0  0  0  0
  151.8313  138.7883  154.6992 C   0  0  0  0  0  0  0  0  0  0  0  0
  151.2184  139.9571  154.8875 N   0  0  0  0  0  0  0  0  0  0  0  0
  151.8489  144.9844  157.4257 H   0  0  0  0  0  0  0  0  0  0  0  0
  152.0108  145.7240  159.0145 H   0  0  0  0  0  0  0  0  0  0  0  0
  150.4360  145.1536  158.4869 H   0  0  0  0  0  0  0  0  0  0  0  0
  152.7181  144.3650  160.7670 H   0  0  0  0  0  0  0  0  0  0  0  0
  153.8213  142.2807  161.3404 H   0  0  0  0  0  0  0  0  0  0  0  0
  152.1336  141.9372  161.6743 H   0  0  0  0  0  0  0  0  0  0  0  0
  153.7487  141.1686  159.1937 H   0  0  0  0  0  0  0  0  0  0  0  0
  153.0395  140.0824  160.3642 H   0  0  0  0  0  0  0  0  0  0  0  0
  150.7763  140.8230  159.7000 H   0  0  0  0  0  0  0  0  0  0  0  0
  152.4508  139.8886  157.3143 H   0  0  0  0  0  0  0  0  0  0  0  0
  150.7223  139.6275  157.5112 H   0  0  0  0  0  0  0  0  0  0  0  0
  151.8493  138.8552  158.6031 H   0  0  0  0  0  0  0  0  0  0  0  0
  151.9628  142.3187  157.3560 H   0  0  0  0  0  0  0  0  0  0  0  0
  149.2690  141.6419  158.3069 H   0  0  0  0  0  0  0  0  0  0  0  0
  149.4312  143.3634  158.1279 H   0  0  0  0  0  0  0  0  0  0  0  0
  149.4023  143.1486  155.9917 H   0  0  0  0  0  0  0  0  0  0  0  0
  148.6255  140.4450  156.6508 H   0  0  0  0  0  0  0  0  0  0  0  0
  146.4784  141.2428  155.7256 H   0  0  0  0  0  0  0  0  0  0  0  0
  147.2131  142.7853  155.2960 H   0  0  0  0  0  0  0  0  0  0  0  0
  147.0561  142.3201  156.9888 H   0  0  0  0  0  0  0  0  0  0  0  0
  148.0115  140.2741  154.1078 H   0  0  0  0  0  0  0  0  0  0  0  0
  149.2038  141.5231  153.8412 H   0  0  0  0  0  0  0  0  0  0  0  0
  148.9969  137.9459  153.7385 H   0  0  0  0  0  0  0  0  0  0  0  0
  152.8790  138.6578  154.9272 H   0  0  0  0  0  0  0  0  0  0  0  0
  150.5629  141.9958  155.9288 H   0  0  0  0  0  0  0  0  0  0  0  0
  1  2  1  0  0  0  0
  1 19  1  0  0  0  0
  1 20  1  0  0  0  0
  1 21  1  0  0  0  0
  2  8  1  0  0  0  0
  2  3  2  0  0  0  0
  3  4  1  0  0  0  0
  3 22  1  0  0  0  0
  4  5  1  0  0  0  0
  4 23  1  0  0  0  0
  4 24  1  0  0  0  0
  5  6  1  0  0  0  0
  5 25  1  0  0  0  0
  5 26  1  0  0  0  0
  6  7  1  0  0  0  0
  6  8  1  0  0  0  0
  6 27  1  0  0  0  0
  7 28  1  0  0  0  0
  7 29  1  0  0  0  0
  7 30  1  0  0  0  0
  8  9  1  0  0  0  0
  8 31  1  0  0  0  0
  9 10  1  0  0  0  0
  9 32  1  0  0  0  0
  9 33  1  0  0  0  0
 10 11  1  0  0  0  0
 10 34  1  0  0  0  0
 10 43  1  0  0  0  0
 11 12  1  0  0  0  0
 11 13  1  0  0  0  0
 11 35  1  0  0  0  0
 12 36  1  0  0  0  0
 12 37  1  0  0  0  0
 12 38  1  0  0  0  0
 13 14  1  0  0  0  0
 13 39  1  0  0  0  0
 13 40  1  0  0  0  0
 14 18  1  0  0  0  0
 14 15  1  0  0  0  0
 15 16  2  0  0  0  0
 15 41  1  0  0  0  0
 16 17  1  0  0  0  0
 17 18  2  0  0  0  0
 17 42  1  0  0  0  0
M  CHG  1  10   1
M  END
> <s_m_source_file>
AV-unprocessed.smi

> <i_m_source_file_index>
3274

> <i_lp_mmshare_version>
43012

> <i_f3d_flags>
0

> <s_epik_input>
W0NIM11DMT1bQ0hdW0NIMl1bQ0gyXVtDQEBIXShbQ0gzXSlbQ0BIXTFbQ0gyXVtOSF1bQ0BIXShbQ0gzXSlbQ0gyXW4yW2NIXW5bY0hdbjI=

> <s_epik_cmdline>
J2VwaWtfcHl0aG9uJywgJy1waCcsICc3LjAnLCAnLXRuJywgJzgnLCAnLW1hJywgJzIwMCcsICctbWV0YWxfYmluZGluZycsICctaW1hZScsICc8aW5maWxlLm1hZT4nLCAnLW9tYWUnLCAnPG91dGZpbGUubWFlPic=

> <r_lp_tautomer_probability>
1

> <r_epik_Ionization_Penalty>
0.0017527

> <r_epik_Ionization_Penalty_Charging>
0.00175191

> <r_epik_Ionization_Penalty_Neutral>
7.94565e-07

> <r_epik_State_Penalty>
0.00118605

> <r_epik_Charging_Adjusted_Penalty>
0.00293796

> <i_epik_Tot_Q>
1

> <i_epik_Tot_abs_Q>
1

> <r_epik_Metal_State_Penalty>
-0

> <b_epik_Metal_Only>
0

> <s_lp_Force_Field>
OPLS_2005

> <r_lp_Energy>
18.4066

> <b_lp_Chiralities_Consistent>
1

> <s_lp_Variant>
AV-unprocessed.smi:3274-6

> <Gold.Version>
5.8.1

> <Gold.Id.Protein>
6NUR|6NUR_protein|mol2

> <Gold.PLP.Fitness>
49.9215

> <Gold.PLP.PLP>
-41.7002

> <Gold.PLP.part.hbond>
-2.0000

> <Gold.PLP.part.metal>
0.0000

> <Gold.PLP.part.buried>
-5.9150

> <Gold.PLP.part.nonpolar>
-34.6897

> <Gold.PLP.part.repulsive>
0.3224

> <Gold.PLP.ligand.clash>
0.0000

> <Gold.PLP.ligand.torsion>
1.4669

> <Gold.PLP.Chemscore.Hbond>
2.7000

> <Gold.PLP.Chemscore.CHOScore>
1.0000

> <Gold.PLP.Chemscore.Metal>
0.0000

> <Gold.Chemscore.Hbonds>
donor molecule, donor type, donor heavy atom, donor atom, acceptor molecule, acceptor atom, score
      L1  H    10    34       P1  8028  2.00
      P1  H  7989  7998       L1    18  0.75
      L1  C    15    41       P1  7948  0.86

> <Gold.PLP.Chemscore.Internal.Correction>
0.0550

> <Gold.Rescore>
     Score         DG    S(hbond)    S(metal)    S(lipo)     H(rot)  DE(clash)    DE(int)     intcor
     15.18     -16.57       1.72        0.00      97.31       2.36       0.01       1.37       ----

> <Gold.Chemscore.Fitness>
15.1849

> <Gold.Chemscore.DG>
-16.5684

> <Gold.Chemscore.ZeroCoef>
-5.4800

> <Gold.Chemscore.Hbond>
1.7210

> <Gold.Chemscore.Metal>
0.0000

> <Gold.Chemscore.Lipo>
97.3123

> <Gold.Chemscore.Internal_Hbond>
0.0000

> <Gold.Chemscore.DEClash>
0.0143

> <Gold.Chemscore.DEInternal>
1.3691

> <Gold.Chemscore.Rot>
2.3615

> <Gold.Chemscore.Internal.Correction>
   9.000000E+99

> <Gold.Chemscore.Hbonds>
donor molecule, donor type, donor heavy atom, donor atom, acceptor molecule, acceptor atom, score
      L1  H    10    34       P1  8028  1.00
      P1  H  7989  7998       L1    18  0.04

> <Gold.Chemscore.Hbond.Weighted>
-5.7483

> <Gold.Chemscore.Metal.Weighted>
-0.0000

> <Gold.Chemscore.Lipo.Weighted>
-11.3855

> <Gold.Chemscore.Internal_Hbond.Weighted>
0.0000

> <Gold.Chemscore.DEClash.Weighted>
0.0143

> <Gold.Chemscore.DEInternal.Weighted>
1.3691

> <Gold.Chemscore.Rot.Weighted>
6.0454

> <Gold.Chemscore.Internal.Correction.Weighted>
   9.000000E+99

> <Gold.Protein.RotatedTorsions>
[ 6907 6896 6895 6894 ] final -140.93 input  -60.11 | X-H torsion
[ 7974 7965 7964 7962 ] final   98.47 input  175.53 | X-H torsion
[ 8008 7997 7996 7995 ] final  -76.31 input   59.86 | X-H torsion
[ 10167 10162 10161 10158 ] final   21.22 input  -65.29 | X-H torsion
[ 10718 10713 10712 10709 ] final   47.13 input   66.30 | X-H torsion
[ 10763 10752 10751 10750 ] final -101.34 input  -60.55 | X-H torsion
[ 11005 11000 10999 10996 ] final -167.77 input  -57.11 | X-H torsion

> <Gold.Protein.ActiveResidues>
 VAL166  LYS551  ARG553  GLY616  TRP617  ASP618  TYR619  PRO620  LYS621  CYS622 
 ASP623  PHE694  ASN695  SER759  ASP760  ASP761  ALA762  ILE779  LEU786  VAL792 
 PHE793  MET794  SER795  GLU796  ALA797  LYS798  CYS799  TRP800  GLU811  SER814 

> <Gold.Protein.RotatedAtoms>
  151.0671  133.5496  159.2629 H   0  0  0  0  0  0  0  0  0  0  0  0  # atno 6907 bound_to 6896
  151.2450  135.0601  159.9049 H   0  0  0  0  0  0  0  0  0  0  0  0  # atno 6908 bound_to 6896
  152.5406  134.0440  159.8134 H   0  0  0  0  0  0  0  0  0  0  0  0  # atno 6909 bound_to 6896
  145.4118  139.2333  143.3244 H   0  0  0  0  0  0  0  0  0  0  0  0  # atno 7974 bound_to 7965
  154.5493  140.0729  156.8642 H   0  0  0  0  0  0  0  0  0  0  0  0  # atno 8008 bound_to 7997
  155.3024  140.3385  155.4229 H   0  0  0  0  0  0  0  0  0  0  0  0  # atno 8009 bound_to 7997
  156.1947  140.1699  156.8008 H   0  0  0  0  0  0  0  0  0  0  0  0  # atno 8010 bound_to 7997
  140.5444  143.9621  150.6538 H   0  0  0  0  0  0  0  0  0  0  0  0  # atno 10167 bound_to 10162
  157.4553  130.8163  149.7830 H   0  0  0  0  0  0  0  0  0  0  0  0  # atno 10718 bound_to 10713
  154.7650  135.4901  153.9537 H   0  0  0  0  0  0  0  0  0  0  0  0  # atno 10763 bound_to 10752
  153.1297  135.6750  153.9206 H   0  0  0  0  0  0  0  0  0  0  0  0  # atno 10764 bound_to 10752
  153.8913  135.3120  155.3426 H   0  0  0  0  0  0  0  0  0  0  0  0  # atno 10765 bound_to 10752
  140.5495  134.5442  157.5119 H   0  0  0  0  0  0  0  0  0  0  0  0  # atno 11005 bound_to 11000
  146.2701  140.4830  142.8818 LP  0  0  0  0  0  0  0  0  0  0  0  0  # atno 17320 bound_to 7965
  144.8304  140.6697  143.6295 LP  0  0  0  0  0  0  0  0  0  0  0  0  # atno 17321 bound_to 7965
  140.3030  143.3248  152.0953 LP  0  0  0  0  0  0  0  0  0  0  0  0  # atno 17342 bound_to 10162
  139.5001  144.6685  151.6300 LP  0  0  0  0  0  0  0  0  0  0  0  0  # atno 17343 bound_to 10162
  156.0004  130.3883  150.2627 LP  0  0  0  0  0  0  0  0  0  0  0  0  # atno 17370 bound_to 10713
  157.0801  131.0141  151.3159 LP  0  0  0  0  0  0  0  0  0  0  0  0  # atno 17371 bound_to 10713
  139.9462  134.7697  156.0556 LP  0  0  0  0  0  0  0  0  0  0  0  0  # atno 17394 bound_to 11000
  141.1180  133.6622  156.3142 LP  0  0  0  0  0  0  0  0  0  0  0  0  # atno 17395 bound_to 11000

$$$$
