AV-unprocessed.smi:3117|AV-procd|sdf|11882|dock1
  -GOLD-   2272017273D 1   1.00000     0.00000
 Structure written by MMmdl.
 36 36  0  0  0  0  0  0  0  0  1 V2000
  148.9826  141.7168  158.2729 C   0  0  0  0  0  0  0  0  0  0  0  0
  149.9681  142.3227  157.2581 C   0  0  2  0  0  0  0  0  0  0  0  0
  149.3339  142.2636  155.9350 N   0  0  0  0  0  0  0  0  0  0  0  0
  148.7170  140.9816  155.5812 C   0  0  0  0  0  0  0  0  0  0  0  0
  148.1505  140.9792  154.1455 C   0  0  0  0  0  0  0  0  0  0  0  0
  147.6059  139.5824  153.8040 C   0  0  0  0  0  0  0  0  0  0  0  0
  147.0529  142.0404  153.9376 C   0  0  0  0  0  0  0  0  0  0  0  0
  149.2111  141.2283  153.2431 O   0  0  0  0  0  0  0  0  0  0  0  0
  151.3472  141.5937  157.2746 C   0  0  2  0  0  0  0  0  0  0  0  0
  151.2417  140.0742  157.0326 C   0  0  0  0  0  0  0  0  0  0  0  0
  152.0979  141.8377  158.5000 N   0  0  0  0  0  0  0  0  0  0  0  0
  152.4928  143.0499  159.0285 C   0  0  0  0  0  0  0  0  0  0  0  0
  153.1577  142.7919  160.1929 C   0  0  0  0  0  0  0  0  0  0  0  0
  153.1194  141.3735  160.2964 C   0  0  0  0  0  0  0  0  0  0  0  0
  152.4841  140.8051  159.2847 N   0  0  0  0  0  0  0  0  0  0  0  0
  149.3174  141.8637  159.2994 H   0  0  0  0  0  0  0  0  0  0  0  0
  148.8491  140.6467  158.1107 H   0  0  0  0  0  0  0  0  0  0  0  0
  148.0024  142.1885  158.1947 H   0  0  0  0  0  0  0  0  0  0  0  0
  150.1123  143.3659  157.5433 H   0  0  0  0  0  0  0  0  0  0  0  0
  150.0171  142.5008  155.2222 H   0  0  0  0  0  0  0  0  0  0  0  0
  149.4489  140.1799  155.6883 H   0  0  0  0  0  0  0  0  0  0  0  0
  147.9082  140.7418  156.2663 H   0  0  0  0  0  0  0  0  0  0  0  0
  146.7789  139.3119  154.4616 H   0  0  0  0  0  0  0  0  0  0  0  0
  148.3755  138.8168  153.9127 H   0  0  0  0  0  0  0  0  0  0  0  0
  147.2379  139.5359  152.7783 H   0  0  0  0  0  0  0  0  0  0  0  0
  146.2291  141.8927  154.6369 H   0  0  0  0  0  0  0  0  0  0  0  0
  146.6414  141.9926  152.9289 H   0  0  0  0  0  0  0  0  0  0  0  0
  147.4313  143.0526  154.0837 H   0  0  0  0  0  0  0  0  0  0  0  0
  149.2637  140.5066  152.6353 H   0  0  0  0  0  0  0  0  0  0  0  0
  151.9455  141.9998  156.4572 H   0  0  0  0  0  0  0  0  0  0  0  0
  150.8930  139.8486  156.0251 H   0  0  0  0  0  0  0  0  0  0  0  0
  150.5566  139.6027  157.7380 H   0  0  0  0  0  0  0  0  0  0  0  0
  152.2144  139.5933  157.1425 H   0  0  0  0  0  0  0  0  0  0  0  0
  152.2655  143.9857  158.5393 H   0  0  0  0  0  0  0  0  0  0  0  0
  153.6020  143.5076  160.8682 H   0  0  0  0  0  0  0  0  0  0  0  0
  153.5297  140.7446  161.0726 H   0  0  0  0  0  0  0  0  0  0  0  0
  1  2  1  0  0  0  0
  1 16  1  0  0  0  0
  1 17  1  0  0  0  0
  1 18  1  0  0  0  0
  2  3  1  0  0  0  0
  2  9  1  0  0  0  0
  2 19  1  0  0  0  0
  3  4  1  0  0  0  0
  3 20  1  0  0  0  0
  4  5  1  0  0  0  0
  4 21  1  0  0  0  0
  4 22  1  0  0  0  0
  5  6  1  0  0  0  0
  5  7  1  0  0  0  0
  5  8  1  0  0  0  0
  6 23  1  0  0  0  0
  6 24  1  0  0  0  0
  6 25  1  0  0  0  0
  7 26  1  0  0  0  0
  7 27  1  0  0  0  0
  7 28  1  0  0  0  0
  8 29  1  0  0  0  0
  9 10  1  0  0  0  0
  9 11  1  0  0  0  0
  9 30  1  0  0  0  0
 10 31  1  0  0  0  0
 10 32  1  0  0  0  0
 10 33  1  0  0  0  0
 11 15  1  0  0  0  0
 11 12  1  0  0  0  0
 12 13  2  0  0  0  0
 12 34  1  0  0  0  0
 13 14  1  0  0  0  0
 13 35  1  0  0  0  0
 14 15  2  0  0  0  0
 14 36  1  0  0  0  0
M  END
> <s_m_source_file>
AV-unprocessed.smi

> <i_m_source_file_index>
3117

> <i_lp_mmshare_version>
43012

> <i_f3d_flags>
0

> <s_epik_input>
W0NIM11DKFtDSDNdKShbT0hdKVtDSDJdW05IXVtDQEBIXShbQ0gzXSlbQ0BIXShbQ0gzXSluMVtjSF1bY0hdW2NIXW4x

> <s_epik_cmdline>
J2VwaWtfcHl0aG9uJywgJy1waCcsICc3LjAnLCAnLXRuJywgJzgnLCAnLW1hJywgJzIwMCcsICctbWV0YWxfYmluZGluZycsICctaW1hZScsICc8aW5maWxlLm1hZT4nLCAnLW9tYWUnLCAnPG91dGZpbGUubWFlPic=

> <r_lp_tautomer_probability>
1

> <r_epik_Ionization_Penalty>
2.13419

> <r_epik_Ionization_Penalty_Charging>
0

> <r_epik_Ionization_Penalty_Neutral>
2.13419

> <r_epik_State_Penalty>
2.27148

> <r_epik_Charging_Adjusted_Penalty>
2.27148

> <i_epik_Tot_Q>
0

> <i_epik_Tot_abs_Q>
0

> <r_epik_Metal_State_Penalty>
2.27029

> <b_epik_Metal_Only>
0

> <s_lp_Force_Field>
OPLS_2005

> <r_lp_Energy>
19.9089

> <b_lp_Chiralities_Consistent>
1

> <s_lp_Variant>
AV-unprocessed.smi:3117-5

> <Gold.Version>
5.8.1

> <Gold.Id.Protein>
6NUR|6NUR_protein|mol2

> <Gold.PLP.Fitness>
37.9438

> <Gold.PLP.PLP>
-32.3271

> <Gold.PLP.part.hbond>
-3.5312

> <Gold.PLP.part.metal>
0.0000

> <Gold.PLP.part.buried>
-3.7017

> <Gold.PLP.part.nonpolar>
-25.2818

> <Gold.PLP.part.repulsive>
0.0000

> <Gold.PLP.ligand.clash>
0.0000

> <Gold.PLP.ligand.torsion>
0.2036

> <Gold.PLP.Chemscore.Hbond>
1.9619

> <Gold.PLP.Chemscore.CHOScore>
0.0000

> <Gold.PLP.Chemscore.Metal>
0.0000

> <Gold.Chemscore.Hbonds>
donor molecule, donor type, donor heavy atom, donor atom, acceptor molecule, acceptor atom, score
      L1  H     8    29       P1  7957  0.91
      P1  H  8011  8017       L1     8  1.00

> <Gold.PLP.Chemscore.Internal.Correction>
0.1383

> <Gold.Rescore>
     Score         DG    S(hbond)    S(metal)    S(lipo)     H(rot)  DE(clash)    DE(int)     intcor
     13.59     -13.91       1.38        0.00      80.57       2.19       0.04       0.28       ----

> <Gold.Chemscore.Fitness>
13.5913

> <Gold.Chemscore.DG>
-13.9131

> <Gold.Chemscore.ZeroCoef>
-5.4800

> <Gold.Chemscore.Hbond>
1.3796

> <Gold.Chemscore.Metal>
0.0000

> <Gold.Chemscore.Lipo>
80.5714

> <Gold.Chemscore.Internal_Hbond>
0.0000

> <Gold.Chemscore.DEClash>
0.0442

> <Gold.Chemscore.DEInternal>
0.2775

> <Gold.Chemscore.Rot>
2.1882

> <Gold.Chemscore.Internal.Correction>
   9.000000E+99

> <Gold.Chemscore.Hbonds>
donor molecule, donor type, donor heavy atom, donor atom, acceptor molecule, acceptor atom, score
      L1  H     8    29       P1  7957  0.88
      P1  H  8011  8017       L1     8  0.25

> <Gold.Chemscore.Hbond.Weighted>
-4.6080

> <Gold.Chemscore.Metal.Weighted>
-0.0000

> <Gold.Chemscore.Lipo.Weighted>
-9.4268

> <Gold.Chemscore.Internal_Hbond.Weighted>
0.0000

> <Gold.Chemscore.DEClash.Weighted>
0.0442

> <Gold.Chemscore.DEInternal.Weighted>
0.2775

> <Gold.Chemscore.Rot.Weighted>
5.6018

> <Gold.Chemscore.Internal.Correction.Weighted>
   9.000000E+99

> <Gold.Protein.RotatedTorsions>
[ 6907 6896 6895 6894 ] final   68.77 input  -60.11 | X-H torsion
[ 7974 7965 7964 7962 ] final  178.55 input  175.53 | X-H torsion
[ 8008 7997 7996 7995 ] final  116.49 input   59.86 | X-H torsion
[ 10167 10162 10161 10158 ] final   58.66 input  -65.29 | X-H torsion
[ 10718 10713 10712 10709 ] final   56.88 input   66.30 | X-H torsion
[ 10763 10752 10751 10750 ] final  105.77 input  -60.55 | X-H torsion
[ 11005 11000 10999 10996 ] final  -95.23 input  -57.11 | X-H torsion

> <Gold.Protein.ActiveResidues>
 VAL166  LYS551  ARG553  GLY616  TRP617  ASP618  TYR619  PRO620  LYS621  CYS622 
 ASP623  PHE694  ASN695  SER759  ASP760  ASP761  ALA762  ILE779  LEU786  VAL792 
 PHE793  MET794  SER795  GLU796  ALA797  LYS798  CYS799  TRP800  GLU811  SER814 

> <Gold.Protein.RotatedAtoms>
  152.4642  134.5113  159.9754 H   0  0  0  0  0  0  0  0  0  0  0  0  # atno 6907 bound_to 6896
  151.5155  133.3470  159.2900 H   0  0  0  0  0  0  0  0  0  0  0  0  # atno 6908 bound_to 6896
  150.8619  134.8002  159.7151 H   0  0  0  0  0  0  0  0  0  0  0  0  # atno 6909 bound_to 6896
  144.7155  140.0414  143.6437 H   0  0  0  0  0  0  0  0  0  0  0  0  # atno 7974 bound_to 7965
  156.2442  140.2916  156.0531 H   0  0  0  0  0  0  0  0  0  0  0  0  # atno 8008 bound_to 7997
  155.1859  140.0405  157.2908 H   0  0  0  0  0  0  0  0  0  0  0  0  # atno 8009 bound_to 7997
  154.6227  140.2480  155.7536 H   0  0  0  0  0  0  0  0  0  0  0  0  # atno 8010 bound_to 7997
  140.1848  144.4145  150.6598 H   0  0  0  0  0  0  0  0  0  0  0  0  # atno 10167 bound_to 10162
  157.5468  130.8736  149.8903 H   0  0  0  0  0  0  0  0  0  0  0  0  # atno 10718 bound_to 10713
  153.3839  135.3899  155.1876 H   0  0  0  0  0  0  0  0  0  0  0  0  # atno 10763 bound_to 10752
  154.8711  135.3732  154.4822 H   0  0  0  0  0  0  0  0  0  0  0  0  # atno 10764 bound_to 10752
  153.5302  135.7086  153.5748 H   0  0  0  0  0  0  0  0  0  0  0  0  # atno 10765 bound_to 10752
  141.1448  133.8011  157.0407 H   0  0  0  0  0  0  0  0  0  0  0  0  # atno 11005 bound_to 11000
  146.0020  139.3099  143.0922 LP  0  0  0  0  0  0  0  0  0  0  0  0  # atno 17320 bound_to 7965
  145.8782  140.9379  143.0615 LP  0  0  0  0  0  0  0  0  0  0  0  0  # atno 17321 bound_to 7965
  140.6495  143.2221  151.6109 LP  0  0  0  0  0  0  0  0  0  0  0  0  # atno 17342 bound_to 10162
  139.5281  144.2999  152.1082 LP  0  0  0  0  0  0  0  0  0  0  0  0  # atno 17343 bound_to 10162
  156.0542  130.3711  150.1130 LP  0  0  0  0  0  0  0  0  0  0  0  0  # atno 17370 bound_to 10713
  156.9305  130.9712  151.3533 LP  0  0  0  0  0  0  0  0  0  0  0  0  # atno 17371 bound_to 10713
  140.0695  134.9710  157.1442 LP  0  0  0  0  0  0  0  0  0  0  0  0  # atno 17394 bound_to 11000
  140.3732  134.2368  155.7176 LP  0  0  0  0  0  0  0  0  0  0  0  0  # atno 17395 bound_to 11000

$$$$
