AV-unprocessed.smi:1978|AV-procd|sdf|8005|dock7
  -GOLD-   2272010193D 1   1.00000     0.00000
 Structure written by MMmdl.
 44 45  0  0  0  0  0  0  0  0  3 V2000
  149.2324  133.8507  154.5128 C   0  0  0  0  0  0  0  0  0  0  0  0
  149.7758  134.6448  155.6512 C   0  0  0  0  0  0  0  0  0  0  0  0
  149.6209  134.5505  157.0052 C   0  0  0  0  0  0  0  0  0  0  0  0
  150.4114  135.6246  157.4979 C   0  0  0  0  0  0  0  0  0  0  0  0
  150.5920  135.9447  158.7884 N   0  5  0  0  0  0  0  0  0  0  0  0
  150.3691  137.2089  159.2142 C   0  0  0  0  0  0  0  0  0  0  0  0
  149.5871  137.5587  160.1011 O   0  0  0  0  0  0  0  0  0  0  0  0
  151.1003  138.1278  158.5715 N   0  0  0  0  0  0  0  0  0  0  0  0
  151.0584  139.5618  158.8254 C   0  0  0  0  0  0  0  0  0  0  0  0
  151.9086  140.3394  157.7946 C   0  0  1  0  0  0  0  0  0  0  0  0
  151.3253  140.2654  156.3680 C   0  0  0  0  0  0  0  0  0  0  0  0
  152.1771  141.7553  158.2068 N   0  3  1  0  0  0  0  0  0  0  0  0
  150.9968  142.6588  158.0684 C   0  0  0  0  0  0  0  0  0  0  0  0
  151.3964  144.1324  158.2336 C   0  0  0  0  0  0  0  0  0  0  0  0
  152.0710  144.3592  159.5882 C   0  0  0  0  0  0  0  0  0  0  0  0
  153.2618  143.4066  159.7355 C   0  0  0  0  0  0  0  0  0  0  0  0
  152.8463  141.9320  159.5393 C   0  0  2  0  0  0  0  0  0  0  0  0
  154.0826  141.0315  159.7376 C   0  0  0  0  0  0  0  0  0  0  0  0
  151.0079  136.2994  156.5295 N   0  0  0  0  0  0  0  0  0  0  0  0
  150.6000  135.6816  155.3413 O   0  0  0  0  0  0  0  0  0  0  0  0
  149.6477  132.8431  154.5138 H   0  0  0  0  0  0  0  0  0  0  0  0
  149.4753  134.3155  153.5569 H   0  0  0  0  0  0  0  0  0  0  0  0
  148.1475  133.7703  154.5824 H   0  0  0  0  0  0  0  0  0  0  0  0
  149.0336  133.8313  157.5559 H   0  0  0  0  0  0  0  0  0  0  0  0
  151.7280  137.8025  157.8506 H   0  0  0  0  0  0  0  0  0  0  0  0
  150.0182  139.8878  158.7920 H   0  0  0  0  0  0  0  0  0  0  0  0
  151.4199  139.7400  159.8385 H   0  0  0  0  0  0  0  0  0  0  0  0
  152.8676  139.8325  157.7073 H   0  0  0  0  0  0  0  0  0  0  0  0
  151.3727  139.2487  155.9768 H   0  0  0  0  0  0  0  0  0  0  0  0
  151.8855  140.8982  155.6791 H   0  0  0  0  0  0  0  0  0  0  0  0
  150.2791  140.5680  156.3325 H   0  0  0  0  0  0  0  0  0  0  0  0
  150.5287  142.5465  157.0922 H   0  0  0  0  0  0  0  0  0  0  0  0
  150.2412  142.4011  158.8115 H   0  0  0  0  0  0  0  0  0  0  0  0
  152.0733  144.4240  157.4293 H   0  0  0  0  0  0  0  0  0  0  0  0
  150.5162  144.7701  158.1452 H   0  0  0  0  0  0  0  0  0  0  0  0
  152.4010  145.3947  159.6782 H   0  0  0  0  0  0  0  0  0  0  0  0
  151.3555  144.1863  160.3932 H   0  0  0  0  0  0  0  0  0  0  0  0
  154.0310  143.6721  159.0088 H   0  0  0  0  0  0  0  0  0  0  0  0
  153.7100  143.5430  160.7204 H   0  0  0  0  0  0  0  0  0  0  0  0
  152.1254  141.6840  160.3196 H   0  0  0  0  0  0  0  0  0  0  0  0
  154.6101  141.2922  160.6555 H   0  0  0  0  0  0  0  0  0  0  0  0
  154.7886  141.1351  158.9129 H   0  0  0  0  0  0  0  0  0  0  0  0
  153.8144  139.9794  159.8319 H   0  0  0  0  0  0  0  0  0  0  0  0
  152.8503  142.0893  157.5324 H   0  0  0  0  0  0  0  0  0  0  0  0
  1  2  1  0  0  0  0
  1 21  1  0  0  0  0
  1 22  1  0  0  0  0
  1 23  1  0  0  0  0
  2 20  1  0  0  0  0
  2  3  2  0  0  0  0
  3  4  1  0  0  0  0
  3 24  1  0  0  0  0
  4  5  1  0  0  0  0
  4 19  2  0  0  0  0
  5  6  1  0  0  0  0
  6  7  2  0  0  0  0
  6  8  1  0  0  0  0
  8  9  1  0  0  0  0
  8 25  1  0  0  0  0
  9 10  1  0  0  0  0
  9 26  1  0  0  0  0
  9 27  1  0  0  0  0
 10 11  1  0  0  0  0
 10 12  1  0  0  0  0
 10 28  1  0  0  0  0
 11 29  1  0  0  0  0
 11 30  1  0  0  0  0
 11 31  1  0  0  0  0
 12 17  1  0  0  0  0
 12 13  1  0  0  0  0
 12 44  1  0  0  0  0
 13 14  1  0  0  0  0
 13 32  1  0  0  0  0
 13 33  1  0  0  0  0
 14 15  1  0  0  0  0
 14 34  1  0  0  0  0
 14 35  1  0  0  0  0
 15 16  1  0  0  0  0
 15 36  1  0  0  0  0
 15 37  1  0  0  0  0
 16 17  1  0  0  0  0
 16 38  1  0  0  0  0
 16 39  1  0  0  0  0
 17 18  1  0  0  0  0
 17 40  1  0  0  0  0
 18 41  1  0  0  0  0
 18 42  1  0  0  0  0
 18 43  1  0  0  0  0
 19 20  1  0  0  0  0
M  CHG  1   5  -1
M  CHG  1  12   1
M  END
> <s_m_source_file>
AV-unprocessed.smi

> <i_m_source_file_index>
1978

> <i_lp_mmshare_version>
43012

> <i_f3d_flags>
0

> <s_epik_input>
W0NIM11jMVtjSF1jKG5vMSlbTkhdQyg9TylbTkhdW0NIMl1bQ0BIXShbQ0gzXSlOMltDSDJdW0NIMl1bQ0gyXVtDSDJdW0NASF0yW0NIM10=

> <s_epik_cmdline>
J2VwaWtfcHl0aG9uJywgJy1waCcsICc3LjAnLCAnLXRuJywgJzgnLCAnLW1hJywgJzIwMCcsICctbWV0YWxfYmluZGluZycsICctaW1hZScsICc8aW5maWxlLm1hZT4nLCAnLW9tYWUnLCAnPG91dGZpbGUubWFlPic=

> <r_epik_Ionization_Penalty>
6.22372

> <r_epik_Ionization_Penalty_Charging>
6.22362

> <r_epik_Ionization_Penalty_Neutral>
9.65074e-05

> <r_epik_State_Penalty>
6.22363

> <r_epik_Charging_Adjusted_Penalty>
12.4472

> <i_epik_Tot_Q>
0

> <i_epik_Tot_abs_Q>
2

> <r_epik_Metal_State_Penalty>
2.16675

> <b_epik_Metal_Only>
1

> <s_lp_Force_Field>
OPLS_2005

> <r_lp_Energy>
11.9993

> <b_lp_Chiralities_Consistent>
1

> <s_lp_Variant>
AV-unprocessed.smi:1978-14

> <Gold.Version>
5.8.1

> <Gold.Id.Protein>
6NUR|6NUR_protein|mol2

> <Gold.PLP.Fitness>
44.2051

> <Gold.PLP.PLP>
-37.4040

> <Gold.PLP.part.hbond>
-4.0000

> <Gold.PLP.part.metal>
0.0000

> <Gold.PLP.part.buried>
-4.0544

> <Gold.PLP.part.nonpolar>
-30.3249

> <Gold.PLP.part.repulsive>
0.3055

> <Gold.PLP.ligand.clash>
0.0000

> <Gold.PLP.ligand.torsion>
1.1669

> <Gold.PLP.Chemscore.Hbond>
3.0000

> <Gold.PLP.Chemscore.CHOScore>
0.0000

> <Gold.PLP.Chemscore.Metal>
0.0000

> <Gold.Chemscore.Hbonds>
donor molecule, donor type, donor heavy atom, donor atom, acceptor molecule, acceptor atom, score
      P1  H  6896  6909       L1     5  1.30
      P1  H  6931  6943       L1     7  0.18

> <Gold.PLP.Chemscore.Internal.Correction>
0.1349

> <Gold.Rescore>
     Score         DG    S(hbond)    S(metal)    S(lipo)     H(rot)  DE(clash)    DE(int)     intcor
     15.38     -18.28       1.85        0.00      89.70       1.52       0.06       2.84       ----

> <Gold.Chemscore.Fitness>
15.3837

> <Gold.Chemscore.DG>
-18.2798

> <Gold.Chemscore.ZeroCoef>
-5.4800

> <Gold.Chemscore.Hbond>
1.8542

> <Gold.Chemscore.Metal>
0.0000

> <Gold.Chemscore.Lipo>
89.7049

> <Gold.Chemscore.Internal_Hbond>
0.0000

> <Gold.Chemscore.DEClash>
0.0563

> <Gold.Chemscore.DEInternal>
2.8398

> <Gold.Chemscore.Rot>
1.5190

> <Gold.Chemscore.Internal.Correction>
   9.000000E+99

> <Gold.Chemscore.Hbonds>
donor molecule, donor type, donor heavy atom, donor atom, acceptor molecule, acceptor atom, score
      P1  H  6896  6909       L1     5  0.52
      P1  H  6931  6943       L1     7  0.18

> <Gold.Chemscore.Hbond.Weighted>
-6.1930

> <Gold.Chemscore.Metal.Weighted>
-0.0000

> <Gold.Chemscore.Lipo.Weighted>
-10.4955

> <Gold.Chemscore.Internal_Hbond.Weighted>
0.0000

> <Gold.Chemscore.DEClash.Weighted>
0.0563

> <Gold.Chemscore.DEInternal.Weighted>
2.8398

> <Gold.Chemscore.Rot.Weighted>
3.8886

> <Gold.Chemscore.Internal.Correction.Weighted>
   9.000000E+99

> <Gold.Protein.RotatedTorsions>
[ 6907 6896 6895 6894 ] final   60.58 input  -60.11 | X-H torsion
[ 7974 7965 7964 7962 ] final   60.06 input  175.53 | X-H torsion
[ 8008 7997 7996 7995 ] final -155.89 input   59.86 | X-H torsion
[ 10167 10162 10161 10158 ] final -142.16 input  -65.29 | X-H torsion
[ 10718 10713 10712 10709 ] final -166.89 input   66.30 | X-H torsion
[ 10763 10752 10751 10750 ] final  -54.62 input  -60.55 | X-H torsion
[ 11005 11000 10999 10996 ] final   82.75 input  -57.11 | X-H torsion

> <Gold.Protein.ActiveResidues>
 VAL166  LYS551  ARG553  GLY616  TRP617  ASP618  TYR619  PRO620  LYS621  CYS622 
 ASP623  PHE694  ASN695  SER759  ASP760  ASP761  ALA762  ILE779  LEU786  VAL792 
 PHE793  MET794  SER795  GLU796  ALA797  LYS798  CYS799  TRP800  GLU811  SER814 

> <Gold.Protein.RotatedAtoms>
  152.4015  134.6278  160.0067 H   0  0  0  0  0  0  0  0  0  0  0  0  # atno 6907 bound_to 6896
  151.6482  133.3316  159.3154 H   0  0  0  0  0  0  0  0  0  0  0  0  # atno 6908 bound_to 6896
  150.7915  134.6984  159.6581 H   0  0  0  0  0  0  0  0  0  0  0  0  # atno 6909 bound_to 6896
  145.9002  139.3576  143.0597 H   0  0  0  0  0  0  0  0  0  0  0  0  # atno 7974 bound_to 7965
  155.7088  140.0776  157.2380 H   0  0  0  0  0  0  0  0  0  0  0  0  # atno 8008 bound_to 7997
  154.4061  140.1634  156.2327 H   0  0  0  0  0  0  0  0  0  0  0  0  # atno 8009 bound_to 7997
  155.9301  140.3392  155.6245 H   0  0  0  0  0  0  0  0  0  0  0  0  # atno 8010 bound_to 7997
  139.8115  143.7696  152.2663 H   0  0  0  0  0  0  0  0  0  0  0  0  # atno 10167 bound_to 10162
  156.6744  130.9097  151.3048 H   0  0  0  0  0  0  0  0  0  0  0  0  # atno 10718 bound_to 10713
  154.1777  135.6448  153.5026 H   0  0  0  0  0  0  0  0  0  0  0  0  # atno 10763 bound_to 10752
  153.0067  135.5398  154.6546 H   0  0  0  0  0  0  0  0  0  0  0  0  # atno 10764 bound_to 10752
  154.5902  135.2933  155.0615 H   0  0  0  0  0  0  0  0  0  0  0  0  # atno 10765 bound_to 10752
  139.9053  134.8094  156.2217 H   0  0  0  0  0  0  0  0  0  0  0  0  # atno 11005 bound_to 11000
  145.8800  140.9368  143.0606 LP  0  0  0  0  0  0  0  0  0  0  0  0  # atno 17320 bound_to 7965
  144.6735  140.0767  143.7471 LP  0  0  0  0  0  0  0  0  0  0  0  0  # atno 17321 bound_to 7965
  139.7846  144.7432  151.0039 LP  0  0  0  0  0  0  0  0  0  0  0  0  # atno 17342 bound_to 10162
  140.7817  143.4505  151.0419 LP  0  0  0  0  0  0  0  0  0  0  0  0  # atno 17343 bound_to 10162
  157.7066  130.9392  150.0950 LP  0  0  0  0  0  0  0  0  0  0  0  0  # atno 17370 bound_to 10713
  156.1914  130.3655  149.8904 LP  0  0  0  0  0  0  0  0  0  0  0  0  # atno 17371 bound_to 10713
  141.0402  133.6942  156.1583 LP  0  0  0  0  0  0  0  0  0  0  0  0  # atno 17394 bound_to 11000
  140.6967  134.4608  157.5587 LP  0  0  0  0  0  0  0  0  0  0  0  0  # atno 17395 bound_to 11000

$$$$
