AV-unprocessed.smi:48|AV-procd|sdf|459|dock9
  -GOLD-   2262016333D 1   1.00000     0.00000
 Structure written by MMmdl.
 30 32  0  0  0  0  0  0  0  0  1 V2000
  148.6026  142.3379  153.9359 O   0  0  0  0  0  0  0  0  0  0  0  0
  148.0651  141.0987  154.3447 C   0  0  0  0  0  0  0  0  0  0  0  0
  149.1995  140.1365  154.7402 C   0  0  1  0  0  0  0  0  0  0  0  0
  150.3930  140.8545  155.0519 O   0  0  0  0  0  0  0  0  0  0  0  0
  151.1348  140.1934  156.0339 C   0  0  1  0  0  0  0  0  0  0  0  0
  151.3006  141.1393  157.1835 N   0  0  0  0  0  0  0  0  0  0  0  0
  150.6855  142.3199  157.4096 C   0  0  0  0  0  0  0  0  0  0  0  0
  151.0117  142.9784  158.5214 N   0  0  0  0  0  0  0  0  0  0  0  0
  151.9542  142.1297  159.0782 C   0  0  0  0  0  0  0  0  0  0  0  0
  152.7255  142.1945  160.2638 C   0  0  0  0  0  0  0  0  0  0  0  0
  152.5834  143.5324  161.3444 Cl  0  0  0  0  0  0  0  0  0  0  0  0
  153.5799  141.1784  160.5332 N   0  0  0  0  0  0  0  0  0  0  0  0
  153.6700  140.1519  159.6780 C   0  0  0  0  0  0  0  0  0  0  0  0
  153.0128  139.9543  158.5291 N   0  0  0  0  0  0  0  0  0  0  0  0
  152.1525  140.9808  158.2616 C   0  0  0  0  0  0  0  0  0  0  0  0
  150.3443  138.9335  156.4333 C   0  0  1  0  0  0  0  0  0  0  0  0
  150.4178  138.5703  157.8011 O   0  0  0  0  0  0  0  0  0  0  0  0
  148.9304  139.2644  155.9753 C   0  0  1  0  0  0  0  0  0  0  0  0
  148.1883  139.9668  156.9587 O   0  0  0  0  0  0  0  0  0  0  0  0
  149.4257  139.4664  153.9086 H   0  0  0  0  0  0  0  0  0  0  0  0
  152.1509  139.9863  155.6957 H   0  0  0  0  0  0  0  0  0  0  0  0
  150.7274  138.1088  155.8307 H   0  0  0  0  0  0  0  0  0  0  0  0
  148.3721  138.3648  155.7145 H   0  0  0  0  0  0  0  0  0  0  0  0
  148.6382  142.9115  154.6860 H   0  0  0  0  0  0  0  0  0  0  0  0
  147.3616  141.2440  155.1650 H   0  0  0  0  0  0  0  0  0  0  0  0
  147.5047  140.6938  153.5016 H   0  0  0  0  0  0  0  0  0  0  0  0
  149.9561  142.7204  156.7210 H   0  0  0  0  0  0  0  0  0  0  0  0
  154.3686  139.3759  159.9543 H   0  0  0  0  0  0  0  0  0  0  0  0
  149.6057  138.8163  158.2171 H   0  0  0  0  0  0  0  0  0  0  0  0
  147.6634  139.3429  157.4369 H   0  0  0  0  0  0  0  0  0  0  0  0
  1  2  1  0  0  0  0
  1 24  1  0  0  0  0
  2  3  1  0  0  0  0
  2 25  1  0  0  0  0
  2 26  1  0  0  0  0
  3 20  1  0  0  0  0
  3 18  1  0  0  0  0
  3  4  1  0  0  0  0
  4  5  1  0  0  0  0
  5 21  1  0  0  0  0
  5  6  1  0  0  0  0
  5 16  1  0  0  0  0
  6 15  1  0  0  0  0
  6  7  1  0  0  0  0
  7  8  2  0  0  0  0
  7 27  1  0  0  0  0
  8  9  1  0  0  0  0
  9 15  2  0  0  0  0
  9 10  1  0  0  0  0
 10 11  1  0  0  0  0
 10 12  2  0  0  0  0
 12 13  1  0  0  0  0
 13 14  2  0  0  0  0
 13 28  1  0  0  0  0
 14 15  1  0  0  0  0
 16 22  1  0  0  0  0
 16 17  1  0  0  0  0
 16 18  1  0  0  0  0
 17 29  1  0  0  0  0
 18 23  1  0  0  0  0
 18 19  1  0  0  0  0
 19 30  1  0  0  0  0
M  END
> <s_m_source_file>
AV-unprocessed.smi

> <i_m_source_file_index>
48

> <i_lp_mmshare_version>
43012

> <i_f3d_flags>
0

> <s_epik_input>
W09IXVtDSDJdW0NASF0xT1tDQEhdKFtDQEhdKFtPSF0pW0NAQEhdMVtPSF0pbihbY0hdbjIpYyhjMjMpbltjSF1uYzNDbA==

> <s_epik_cmdline>
J2VwaWtfcHl0aG9uJywgJy1waCcsICc3LjAnLCAnLXRuJywgJzgnLCAnLW1hJywgJzIwMCcsICctbWV0YWxfYmluZGluZycsICctaW1hZScsICc8aW5maWxlLm1hZT4nLCAnLW9tYWUnLCAnPG91dGZpbGUubWFlPic=

> <r_lp_tautomer_probability>
1

> <r_epik_Ionization_Penalty>
3.45505e-06

> <r_epik_Ionization_Penalty_Charging>
0

> <r_epik_Ionization_Penalty_Neutral>
3.45505e-06

> <r_epik_State_Penalty>
-0

> <r_epik_Charging_Adjusted_Penalty>
0

> <i_epik_Tot_Q>
0

> <i_epik_Tot_abs_Q>
0

> <r_epik_Metal_State_Penalty>
-0

> <b_epik_Metal_Only>
0

> <s_epik_Chemistry_Notes>
This compound contains an acetal/aminal-like group ( X-CH(R)-Y where X, Y are N, S, or O) that may be acid/base labile, releasing an aldehyde.

> <s_lp_Force_Field>
OPLS_2005

> <r_lp_Energy>
40.6027

> <b_lp_Chiralities_Consistent>
1

> <s_lp_Variant>
AV-unprocessed.smi:48-13

> <Gold.Version>
5.8.1

> <Gold.Id.Protein>
6NUR|6NUR_protein|mol2

> <Gold.PLP.Fitness>
41.9804

> <Gold.PLP.PLP>
-31.5936

> <Gold.PLP.part.hbond>
-4.0000

> <Gold.PLP.part.metal>
0.0000

> <Gold.PLP.part.buried>
-3.8666

> <Gold.PLP.part.nonpolar>
-23.4105

> <Gold.PLP.part.repulsive>
0.1748

> <Gold.PLP.ligand.clash>
0.0000

> <Gold.PLP.ligand.torsion>
0.8400

> <Gold.PLP.Chemscore.Hbond>
2.9704

> <Gold.PLP.Chemscore.CHOScore>
1.0000

> <Gold.PLP.Chemscore.Metal>
0.0000

> <Gold.Chemscore.Hbonds>
donor molecule, donor type, donor heavy atom, donor atom, acceptor molecule, acceptor atom, score
      L1  H     1    24       P1  8028  0.96
      P1  H  7989  7998       L1     4  0.80
      P1  H  7997  8010       L1    14  0.62
      P1  H  8011  8017       L1     1  0.24
      L1  C     7    27       P1  8028  1.00

> <Gold.PLP.Chemscore.Internal.Correction>
0.1557

> <Gold.Rescore>
     Score         DG    S(hbond)    S(metal)    S(lipo)     H(rot)  DE(clash)    DE(int)     intcor
      6.76      -8.13       1.88        0.00      52.04       3.80       0.27       1.10       ----

> <Gold.Chemscore.Fitness>
6.7618

> <Gold.Chemscore.DG>
-8.1297

> <Gold.Chemscore.ZeroCoef>
-5.4800

> <Gold.Chemscore.Hbond>
1.8843

> <Gold.Chemscore.Metal>
0.0000

> <Gold.Chemscore.Lipo>
52.0388

> <Gold.Chemscore.Internal_Hbond>
0.0000

> <Gold.Chemscore.DEClash>
0.2654

> <Gold.Chemscore.DEInternal>
1.1025

> <Gold.Chemscore.Rot>
3.8017

> <Gold.Chemscore.Internal.Correction>
   9.000000E+99

> <Gold.Chemscore.Hbonds>
donor molecule, donor type, donor heavy atom, donor atom, acceptor molecule, acceptor atom, score
      L1  H     1    24       P1  8028  0.89
      P1  H  7989  7998       L1     4  0.24
      P1  H  7997  8010       L1    14  0.17
      P1  H  8011  8017       L1     1  0.23

> <Gold.Chemscore.Hbond.Weighted>
-6.2936

> <Gold.Chemscore.Metal.Weighted>
-0.0000

> <Gold.Chemscore.Lipo.Weighted>
-6.0885

> <Gold.Chemscore.Internal_Hbond.Weighted>
0.0000

> <Gold.Chemscore.DEClash.Weighted>
0.2654

> <Gold.Chemscore.DEInternal.Weighted>
1.1025

> <Gold.Chemscore.Rot.Weighted>
9.7324

> <Gold.Chemscore.Internal.Correction.Weighted>
   9.000000E+99

> <Gold.Protein.RotatedTorsions>
[ 6907 6896 6895 6894 ] final   16.32 input  -60.11 | X-H torsion
[ 7974 7965 7964 7962 ] final -102.43 input  175.53 | X-H torsion
[ 8008 7997 7996 7995 ] final   38.54 input   59.86 | X-H torsion
[ 10167 10162 10161 10158 ] final   45.61 input  -65.29 | X-H torsion
[ 10718 10713 10712 10709 ] final  152.55 input   66.30 | X-H torsion
[ 10763 10752 10751 10750 ] final  126.75 input  -60.55 | X-H torsion
[ 11005 11000 10999 10996 ] final  171.25 input  -57.11 | X-H torsion

> <Gold.Protein.ActiveResidues>
 VAL166  LYS551  ARG553  GLY616  TRP617  ASP618  TYR619  PRO620  LYS621  CYS622 
 ASP623  PHE694  ASN695  SER759  ASP760  ASP761  ALA762  ILE779  LEU786  VAL792 
 PHE793  MET794  SER795  GLU796  ALA797  LYS798  CYS799  TRP800  GLU811  SER814 

> <Gold.Protein.RotatedAtoms>
  151.8320  135.0618  160.0437 H   0  0  0  0  0  0  0  0  0  0  0  0  # atno 6907 bound_to 6896
  152.2873  133.5523  159.5544 H   0  0  0  0  0  0  0  0  0  0  0  0  # atno 6908 bound_to 6896
  150.7215  134.0394  159.3803 H   0  0  0  0  0  0  0  0  0  0  0  0  # atno 6909 bound_to 6896
  145.2688  140.9292  143.2998 H   0  0  0  0  0  0  0  0  0  0  0  0  # atno 7974 bound_to 7965
  155.2218  140.3331  155.4314 H   0  0  0  0  0  0  0  0  0  0  0  0  # atno 8008 bound_to 7997
  156.2330  140.1859  156.7241 H   0  0  0  0  0  0  0  0  0  0  0  0  # atno 8009 bound_to 7997
  154.6010  140.0623  156.9354 H   0  0  0  0  0  0  0  0  0  0  0  0  # atno 8010 bound_to 7997
  140.3224  144.2689  150.6180 H   0  0  0  0  0  0  0  0  0  0  0  0  # atno 10167 bound_to 10162
  157.2563  131.0789  151.1696 H   0  0  0  0  0  0  0  0  0  0  0  0  # atno 10718 bound_to 10713
  153.6984  135.3287  155.3219 H   0  0  0  0  0  0  0  0  0  0  0  0  # atno 10763 bound_to 10752
  154.8420  135.4448  154.1436 H   0  0  0  0  0  0  0  0  0  0  0  0  # atno 10764 bound_to 10752
  153.2497  135.6980  153.7771 H   0  0  0  0  0  0  0  0  0  0  0  0  # atno 10765 bound_to 10752
  140.3170  134.7469  157.4035 H   0  0  0  0  0  0  0  0  0  0  0  0  # atno 11005 bound_to 11000
  144.9353  139.4251  143.6475 LP  0  0  0  0  0  0  0  0  0  0  0  0  # atno 17320 bound_to 7965
  146.3253  139.8285  142.8913 LP  0  0  0  0  0  0  0  0  0  0  0  0  # atno 17321 bound_to 7965
  140.5472  143.2212  151.7988 LP  0  0  0  0  0  0  0  0  0  0  0  0  # atno 17342 bound_to 10162
  139.4872  144.4524  151.9638 LP  0  0  0  0  0  0  0  0  0  0  0  0  # atno 17343 bound_to 10162
  157.3223  130.6943  149.6276 LP  0  0  0  0  0  0  0  0  0  0  0  0  # atno 17370 bound_to 10713
  155.9665  130.4332  150.4994 LP  0  0  0  0  0  0  0  0  0  0  0  0  # atno 17371 bound_to 10713
  140.0975  134.5518  155.8385 LP  0  0  0  0  0  0  0  0  0  0  0  0  # atno 17394 bound_to 11000
  141.2095  133.6685  156.6445 LP  0  0  0  0  0  0  0  0  0  0  0  0  # atno 17395 bound_to 11000

$$$$
