AV-unprocessed.smi:1920|AV-procd|sdf|7783|dock1
  -GOLD-   22720 9523D 1   1.00000     0.00000
 Structure written by MMmdl.
 36 37  0  0  0  0  0  0  0  0  1 V2000
  144.4738  134.6995  153.2295 C   0  0  0  0  0  0  0  0  0  0  0  0
  145.2801  135.6072  152.2814 C   0  0  2  0  0  0  0  0  0  0  0  0
  145.9759  134.8298  151.1465 C   0  0  0  0  0  0  0  0  0  0  0  0
  145.3983  133.5168  150.9279 N   0  0  0  0  0  0  0  0  0  0  0  0
  144.0744  133.2259  150.6262 C   0  0  0  0  0  0  0  0  0  0  0  0
  143.9909  131.8574  150.5038 C   0  0  0  0  0  0  0  0  0  0  0  0
  145.2444  131.2899  150.7204 N   0  0  0  0  0  0  0  0  0  0  0  0
  146.0269  132.3338  150.9625 C   0  0  0  0  0  0  0  0  0  0  0  0
  146.2857  136.3546  153.0314 N   0  0  0  0  0  0  0  0  0  0  0  0
  146.0357  137.1886  154.0528 C   0  0  0  0  0  0  0  0  0  0  0  0
  144.9034  137.4218  154.4755 O   0  0  0  0  0  0  0  0  0  0  0  0
  147.2515  137.8632  154.6967 C   0  0  0  0  0  0  0  0  0  0  0  0
  147.8635  138.9867  153.8316 C   0  0  1  0  0  0  0  0  0  0  0  0
  146.9100  140.1239  153.5534 C   0  0  0  0  0  0  0  0  0  0  0  0
  147.4100  141.3093  153.8941 C   0  0  0  0  0  0  0  0  0  0  0  0
  148.7954  141.2067  154.4683 C   0  0  0  0  0  0  0  0  0  0  0  0
  149.0704  139.6867  154.5077 C   0  0  0  0  0  0  0  0  0  0  0  0
  143.6729  134.1814  152.7018 H   0  0  0  0  0  0  0  0  0  0  0  0
  144.0081  135.2765  154.0291 H   0  0  0  0  0  0  0  0  0  0  0  0
  145.1112  133.9454  153.6919 H   0  0  0  0  0  0  0  0  0  0  0  0
  144.5906  136.3190  151.8233 H   0  0  0  0  0  0  0  0  0  0  0  0
  145.9101  135.3869  150.2108 H   0  0  0  0  0  0  0  0  0  0  0  0
  147.0384  134.7095  151.3641 H   0  0  0  0  0  0  0  0  0  0  0  0
  143.3224  133.9952  150.5286 H   0  0  0  0  0  0  0  0  0  0  0  0
  143.1325  131.2425  150.2766 H   0  0  0  0  0  0  0  0  0  0  0  0
  147.0815  132.2349  151.1739 H   0  0  0  0  0  0  0  0  0  0  0  0
  147.2479  136.2254  152.7541 H   0  0  0  0  0  0  0  0  0  0  0  0
  146.9737  138.2621  155.6739 H   0  0  0  0  0  0  0  0  0  0  0  0
  148.0027  137.0946  154.8813 H   0  0  0  0  0  0  0  0  0  0  0  0
  148.1773  138.5810  152.8685 H   0  0  0  0  0  0  0  0  0  0  0  0
  145.9376  139.9677  153.1092 H   0  0  0  0  0  0  0  0  0  0  0  0
  146.9059  142.2566  153.7720 H   0  0  0  0  0  0  0  0  0  0  0  0
  149.5042  141.7281  153.8244 H   0  0  0  0  0  0  0  0  0  0  0  0
  148.8328  141.6521  155.4629 H   0  0  0  0  0  0  0  0  0  0  0  0
  149.1823  139.3609  155.5427 H   0  0  0  0  0  0  0  0  0  0  0  0
  150.0022  139.4423  153.9968 H   0  0  0  0  0  0  0  0  0  0  0  0
  1  2  1  0  0  0  0
  1 18  1  0  0  0  0
  1 19  1  0  0  0  0
  1 20  1  0  0  0  0
  2  3  1  0  0  0  0
  2  9  1  0  0  0  0
  2 21  1  0  0  0  0
  3  4  1  0  0  0  0
  3 22  1  0  0  0  0
  3 23  1  0  0  0  0
  4  8  1  0  0  0  0
  4  5  1  0  0  0  0
  5  6  2  0  0  0  0
  5 24  1  0  0  0  0
  6  7  1  0  0  0  0
  6 25  1  0  0  0  0
  7  8  2  0  0  0  0
  8 26  1  0  0  0  0
  9 10  1  0  0  0  0
  9 27  1  0  0  0  0
 10 11  2  0  0  0  0
 10 12  1  0  0  0  0
 12 13  1  0  0  0  0
 12 28  1  0  0  0  0
 12 29  1  0  0  0  0
 13 17  1  0  0  0  0
 13 14  1  0  0  0  0
 13 30  1  0  0  0  0
 14 15  2  0  0  0  0
 14 31  1  0  0  0  0
 15 16  1  0  0  0  0
 15 32  1  0  0  0  0
 16 17  1  0  0  0  0
 16 33  1  0  0  0  0
 16 34  1  0  0  0  0
 17 35  1  0  0  0  0
 17 36  1  0  0  0  0
M  END
> <s_m_source_file>
AV-unprocessed.smi

> <i_m_source_file_index>
1920

> <i_lp_mmshare_version>
43012

> <i_f3d_flags>
0

> <s_epik_input>
W2NIXTFuW2NIXVtjSF1uMVtDSDJdW0NAQEhdKFtDSDNdKVtOSF1DKD1PKVtDSDJdW0NAQEhdMltDSF09W0NIXVtDSDJdW0NIMl0y

> <s_epik_cmdline>
J2VwaWtfcHl0aG9uJywgJy1waCcsICc3LjAnLCAnLXRuJywgJzgnLCAnLW1hJywgJzIwMCcsICctbWV0YWxfYmluZGluZycsICctaW1hZScsICc8aW5maWxlLm1hZT4nLCAnLW9tYWUnLCAnPG91dGZpbGUubWFlPic=

> <r_lp_tautomer_probability>
1

> <r_epik_Ionization_Penalty>
0.635367

> <r_epik_Ionization_Penalty_Charging>
0.635367

> <r_epik_Ionization_Penalty_Neutral>
2.1249e-08

> <r_epik_State_Penalty>
0.65258

> <r_epik_Charging_Adjusted_Penalty>
1.28795

> <i_epik_Tot_Q>
0

> <i_epik_Tot_abs_Q>
0

> <r_epik_Metal_State_Penalty>
0.310403

> <b_epik_Metal_Only>
0

> <s_lp_Force_Field>
OPLS_2005

> <r_lp_Energy>
18.7511

> <b_lp_Chiralities_Consistent>
1

> <s_lp_Variant>
AV-unprocessed.smi:1920-7

> <Gold.Version>
5.8.1

> <Gold.Id.Protein>
6NUR|6NUR_protein|mol2

> <Gold.PLP.Fitness>
40.1818

> <Gold.PLP.PLP>
-29.5206

> <Gold.PLP.part.hbond>
-1.0000

> <Gold.PLP.part.metal>
0.0000

> <Gold.PLP.part.buried>
-4.9786

> <Gold.PLP.part.nonpolar>
-25.0075

> <Gold.PLP.part.repulsive>
0.1965

> <Gold.PLP.ligand.clash>
0.0000

> <Gold.PLP.ligand.torsion>
0.7352

> <Gold.PLP.Chemscore.Hbond>
1.0000

> <Gold.PLP.Chemscore.CHOScore>
2.9993

> <Gold.PLP.Chemscore.Metal>
0.0000

> <Gold.Chemscore.Hbonds>
donor molecule, donor type, donor heavy atom, donor atom, acceptor molecule, acceptor atom, score
      L1  H     9    27       P1  7948  1.00
      L1  C     5    24       P1 10186  0.96
      L1  C     6    25       P1 10952  0.88
      L1  C     8    26       P1 10747  1.00

> <Gold.PLP.Chemscore.Internal.Correction>
0.1338

> <Gold.Rescore>
     Score         DG    S(hbond)    S(metal)    S(lipo)     H(rot)  DE(clash)    DE(int)     intcor
     11.65     -12.24       1.00        0.00      71.46       1.93       0.17       0.42       ----

> <Gold.Chemscore.Fitness>
11.6462

> <Gold.Chemscore.DG>
-12.2374

> <Gold.Chemscore.ZeroCoef>
-5.4800

> <Gold.Chemscore.Hbond>
0.9998

> <Gold.Chemscore.Metal>
0.0000

> <Gold.Chemscore.Lipo>
71.4566

> <Gold.Chemscore.Internal_Hbond>
0.0000

> <Gold.Chemscore.DEClash>
0.1666

> <Gold.Chemscore.DEInternal>
0.4246

> <Gold.Chemscore.Rot>
1.9306

> <Gold.Chemscore.Internal.Correction>
   9.000000E+99

> <Gold.Chemscore.Hbonds>
donor molecule, donor type, donor heavy atom, donor atom, acceptor molecule, acceptor atom, score
      L1  H     9    27       P1  7948  1.00

> <Gold.Chemscore.Hbond.Weighted>
-3.3394

> <Gold.Chemscore.Metal.Weighted>
-0.0000

> <Gold.Chemscore.Lipo.Weighted>
-8.3604

> <Gold.Chemscore.Internal_Hbond.Weighted>
0.0000

> <Gold.Chemscore.DEClash.Weighted>
0.1666

> <Gold.Chemscore.DEInternal.Weighted>
0.4246

> <Gold.Chemscore.Rot.Weighted>
4.9424

> <Gold.Chemscore.Internal.Correction.Weighted>
   9.000000E+99

> <Gold.Protein.RotatedTorsions>
[ 6907 6896 6895 6894 ] final   67.61 input  -60.11 | X-H torsion
[ 7974 7965 7964 7962 ] final   88.64 input  175.53 | X-H torsion
[ 8008 7997 7996 7995 ] final   -1.41 input   59.86 | X-H torsion
[ 10167 10162 10161 10158 ] final   85.80 input  -65.29 | X-H torsion
[ 10718 10713 10712 10709 ] final   14.07 input   66.30 | X-H torsion
[ 10763 10752 10751 10750 ] final -170.46 input  -60.55 | X-H torsion
[ 11005 11000 10999 10996 ] final  -49.13 input  -57.11 | X-H torsion

> <Gold.Protein.ActiveResidues>
 VAL166  LYS551  ARG553  GLY616  TRP617  ASP618  TYR619  PRO620  LYS621  CYS622 
 ASP623  PHE694  ASN695  SER759  ASP760  ASP761  ALA762  ILE779  LEU786  VAL792 
 PHE793  MET794  SER795  GLU796  ALA797  LYS798  CYS799  TRP800  GLU811  SER814 

> <Gold.Protein.RotatedAtoms>
  152.4564  134.5283  159.9802 H   0  0  0  0  0  0  0  0  0  0  0  0  # atno 6907 bound_to 6896
  151.5342  133.3438  159.2931 H   0  0  0  0  0  0  0  0  0  0  0  0  # atno 6908 bound_to 6896
  150.8509  134.7864  159.7071 H   0  0  0  0  0  0  0  0  0  0  0  0  # atno 6909 bound_to 6896
  145.5430  139.2290  143.2555 H   0  0  0  0  0  0  0  0  0  0  0  0  # atno 7974 bound_to 7965
  154.6471  140.2560  155.7255 H   0  0  0  0  0  0  0  0  0  0  0  0  # atno 8008 bound_to 7997
  156.2557  140.2875  156.0810 H   0  0  0  0  0  0  0  0  0  0  0  0  # atno 8009 bound_to 7997
  155.1507  140.0382  157.2810 H   0  0  0  0  0  0  0  0  0  0  0  0  # atno 8010 bound_to 7997
  139.8940  144.6368  150.8708 H   0  0  0  0  0  0  0  0  0  0  0  0  # atno 10167 bound_to 10162
  157.0338  130.6203  149.5739 H   0  0  0  0  0  0  0  0  0  0  0  0  # atno 10718 bound_to 10713
  154.6412  135.2899  155.0101 H   0  0  0  0  0  0  0  0  0  0  0  0  # atno 10763 bound_to 10752
  154.1226  135.6545  153.4910 H   0  0  0  0  0  0  0  0  0  0  0  0  # atno 10764 bound_to 10752
  153.0327  135.5291  154.7280 H   0  0  0  0  0  0  0  0  0  0  0  0  # atno 10765 bound_to 10752
  141.0741  133.6670  156.3541 H   0  0  0  0  0  0  0  0  0  0  0  0  # atno 11005 bound_to 11000
  146.1968  140.6251  142.9120 LP  0  0  0  0  0  0  0  0  0  0  0  0  # atno 17320 bound_to 7965
  144.7567  140.5325  143.6764 LP  0  0  0  0  0  0  0  0  0  0  0  0  # atno 17321 bound_to 7965
  140.7720  143.3488  151.2057 LP  0  0  0  0  0  0  0  0  0  0  0  0  # atno 17342 bound_to 10162
  139.7084  143.9417  152.2937 LP  0  0  0  0  0  0  0  0  0  0  0  0  # atno 17343 bound_to 10162
  156.0060  130.5147  150.7832 LP  0  0  0  0  0  0  0  0  0  0  0  0  # atno 17370 bound_to 10713
  157.5157  131.0928  151.0142 LP  0  0  0  0  0  0  0  0  0  0  0  0  # atno 17371 bound_to 10713
  140.5610  134.5934  157.5433 LP  0  0  0  0  0  0  0  0  0  0  0  0  # atno 17394 bound_to 11000
  139.9554  134.7544  156.0354 LP  0  0  0  0  0  0  0  0  0  0  0  0  # atno 17395 bound_to 11000

$$$$
