AV-unprocessed.smi:223|AV-procd|sdf|1706|dock6
  -GOLD-   2262020173D 1   1.00000     0.00000
 Structure written by MMmdl.
 47 50  0  0  0  0  0  0  0  0  1 V2000
  154.8031  139.4756  161.5129 C   0  0  0  0  0  0  0  0  0  0  0  0
  154.6030  140.2885  160.2285 C   0  0  1  0  0  0  0  0  0  0  0  0
  155.7960  140.1957  159.3708 C   0  0  0  0  0  0  0  0  0  0  0  0
  156.7335  140.1209  158.6967 N   0  0  0  0  0  0  0  0  0  0  0  0
  153.3155  139.8568  159.4961 C   0  0  0  0  0  0  0  0  0  0  0  0
  152.7107  140.9139  158.6853 N   0  0  0  0  0  0  0  0  0  0  0  0
  152.1855  140.5515  157.4827 C   0  0  0  0  0  0  0  0  0  0  0  0
  152.9075  139.7431  156.6604 N   0  0  0  0  0  0  0  0  0  0  0  0
  152.4303  139.3862  155.4653 C   0  0  0  0  0  0  0  0  0  0  0  0
  151.2686  139.7157  154.9001 N   0  0  0  0  0  0  0  0  0  0  0  0
  150.5304  140.5170  155.7194 C   0  0  0  0  0  0  0  0  0  0  0  0
  150.9099  140.9824  157.0116 C   0  0  0  0  0  0  0  0  0  0  0  0
  149.8962  141.7765  157.5362 N   0  0  0  0  0  0  0  0  0  0  0  0
  148.9793  141.7868  156.6087 C   0  0  0  0  0  0  0  0  0  0  0  0
  149.2719  141.0452  155.4870 N   0  0  0  0  0  0  0  0  0  0  0  0
  148.4335  140.8732  154.3095 C   0  0  0  0  0  0  0  0  0  0  0  0
  148.1796  139.3918  153.9362 C   0  0  2  0  0  0  0  0  0  0  0  0
  149.2975  138.8998  153.2200 O   0  0  0  0  0  0  0  0  0  0  0  0
  146.9223  139.2116  153.0821 C   0  0  0  0  0  0  0  0  0  0  0  0
  145.9376  138.5357  154.0286 C   0  0  0  0  0  0  0  0  0  0  0  0
  146.7793  137.7085  154.8112 O   0  0  0  0  0  0  0  0  0  0  0  0
  147.9199  138.4819  155.1537 C   0  0  0  0  0  0  0  0  0  0  0  0
  152.1009  142.0376  159.3929 C   0  0  0  0  0  0  0  0  0  0  0  0
  152.1200  143.4079  158.7528 C   0  0  0  0  0  0  0  0  0  0  0  0
  152.9995  143.1186  159.9461 C   0  0  0  0  0  0  0  0  0  0  0  0
  155.6936  139.8051  162.0488 H   0  0  0  0  0  0  0  0  0  0  0  0
  154.9200  138.4138  161.2937 H   0  0  0  0  0  0  0  0  0  0  0  0
  153.9522  139.5881  162.1849 H   0  0  0  0  0  0  0  0  0  0  0  0
  154.5191  141.3368  160.5152 H   0  0  0  0  0  0  0  0  0  0  0  0
  153.5455  139.0119  158.8460 H   0  0  0  0  0  0  0  0  0  0  0  0
  152.5832  139.4767  160.2063 H   0  0  0  0  0  0  0  0  0  0  0  0
  153.0717  138.7463  154.8775 H   0  0  0  0  0  0  0  0  0  0  0  0
  148.0561  142.3359  156.7224 H   0  0  0  0  0  0  0  0  0  0  0  0
  147.4851  141.3805  154.4916 H   0  0  0  0  0  0  0  0  0  0  0  0
  148.9031  141.3976  153.4760 H   0  0  0  0  0  0  0  0  0  0  0  0
  149.4986  139.5076  152.5251 H   0  0  0  0  0  0  0  0  0  0  0  0
  146.5326  140.1467  152.6780 H   0  0  0  0  0  0  0  0  0  0  0  0
  147.1137  138.5466  152.2380 H   0  0  0  0  0  0  0  0  0  0  0  0
  145.4402  139.2678  154.6668 H   0  0  0  0  0  0  0  0  0  0  0  0
  145.1763  137.9575  153.5044 H   0  0  0  0  0  0  0  0  0  0  0  0
  148.7679  137.8480  155.4161 H   0  0  0  0  0  0  0  0  0  0  0  0
  147.6616  139.0684  156.0358 H   0  0  0  0  0  0  0  0  0  0  0  0
  151.2161  141.8047  159.9817 H   0  0  0  0  0  0  0  0  0  0  0  0
  152.6060  143.5107  157.7844 H   0  0  0  0  0  0  0  0  0  0  0  0
  151.2517  144.0446  158.9088 H   0  0  0  0  0  0  0  0  0  0  0  0
  152.7192  143.5628  160.8988 H   0  0  0  0  0  0  0  0  0  0  0  0
  154.0697  143.0308  159.7692 H   0  0  0  0  0  0  0  0  0  0  0  0
  1  2  1  0  0  0  0
  1 26  1  0  0  0  0
  1 27  1  0  0  0  0
  1 28  1  0  0  0  0
  2  3  1  0  0  0  0
  2  5  1  0  0  0  0
  2 29  1  0  0  0  0
  3  4  3  0  0  0  0
  5  6  1  0  0  0  0
  5 30  1  0  0  0  0
  5 31  1  0  0  0  0
  6  7  1  0  0  0  0
  6 23  1  0  0  0  0
  7 12  1  0  0  0  0
  7  8  2  0  0  0  0
  8  9  1  0  0  0  0
  9 10  2  0  0  0  0
  9 32  1  0  0  0  0
 10 11  1  0  0  0  0
 11 15  1  0  0  0  0
 11 12  2  0  0  0  0
 12 13  1  0  0  0  0
 13 14  2  0  0  0  0
 14 15  1  0  0  0  0
 14 33  1  0  0  0  0
 15 16  1  0  0  0  0
 16 17  1  0  0  0  0
 16 34  1  0  0  0  0
 16 35  1  0  0  0  0
 17 22  1  0  0  0  0
 17 18  1  0  0  0  0
 17 19  1  0  0  0  0
 18 36  1  0  0  0  0
 19 20  1  0  0  0  0
 19 37  1  0  0  0  0
 19 38  1  0  0  0  0
 20 21  1  0  0  0  0
 20 39  1  0  0  0  0
 20 40  1  0  0  0  0
 21 22  1  0  0  0  0
 22 41  1  0  0  0  0
 22 42  1  0  0  0  0
 23 25  1  0  0  0  0
 23 24  1  0  0  0  0
 23 43  1  0  0  0  0
 24 25  1  0  0  0  0
 24 44  1  0  0  0  0
 24 45  1  0  0  0  0
 25 46  1  0  0  0  0
 25 47  1  0  0  0  0
M  END
> <s_m_source_file>
AV-unprocessed.smi

> <i_m_source_file_index>
223

> <i_lp_mmshare_version>
43012

> <i_f3d_flags>
0

> <s_epik_input>
TiNDW0NAQEhdKFtDSDNdKVtDSDJdTihbQ0hdMVtDSDJdW0NIMl0xKWMobltjSF1uMiljKGMyMyluW2NIXW4zW0NIMl1bQ0BAXTQoW09IXSlbQ0gyXVtDSDJdT1tDSDJdNA==

> <s_epik_cmdline>
J2VwaWtfcHl0aG9uJywgJy1waCcsICc3LjAnLCAnLXRuJywgJzgnLCAnLW1hJywgJzIwMCcsICctbWV0YWxfYmluZGluZycsICctaW1hZScsICc8aW5maWxlLm1hZT4nLCAnLW9tYWUnLCAnPG91dGZpbGUubWFlPic=

> <r_lp_tautomer_probability>
1

> <r_epik_Ionization_Penalty>
0.000756152

> <r_epik_Ionization_Penalty_Charging>
0

> <r_epik_Ionization_Penalty_Neutral>
0.000756152

> <r_epik_State_Penalty>
0.00038036

> <r_epik_Charging_Adjusted_Penalty>
0.00038036

> <i_epik_Tot_Q>
0

> <i_epik_Tot_abs_Q>
0

> <r_epik_Metal_State_Penalty>
-0

> <b_epik_Metal_Only>
0

> <s_lp_Force_Field>
OPLS_2005

> <r_lp_Energy>
37.1983

> <b_lp_Chiralities_Consistent>
1

> <s_lp_Variant>
AV-unprocessed.smi:223-4

> <Gold.Version>
5.8.1

> <Gold.Id.Protein>
6NUR|6NUR_protein|mol2

> <Gold.PLP.Fitness>
53.9505

> <Gold.PLP.PLP>
-42.6984

> <Gold.PLP.part.hbond>
-4.8395

> <Gold.PLP.part.metal>
0.0000

> <Gold.PLP.part.buried>
-2.4129

> <Gold.PLP.part.nonpolar>
-36.4877

> <Gold.PLP.part.repulsive>
0.2452

> <Gold.PLP.ligand.clash>
0.0000

> <Gold.PLP.ligand.torsion>
1.6390

> <Gold.PLP.Chemscore.Hbond>
3.9000

> <Gold.PLP.Chemscore.CHOScore>
0.5002

> <Gold.PLP.Chemscore.Metal>
0.0000

> <Gold.Chemscore.Hbonds>
donor molecule, donor type, donor heavy atom, donor atom, acceptor molecule, acceptor atom, score
      L1  H    18    36       P1  7957  0.83
      P1  H  7989  7998       L1    10  1.00
      P1  H  7997  8009       L1     4  0.98
      P1  H  7997  8010       L1     8  0.91
      L1  C    14    33       P1  8028  0.20

> <Gold.PLP.Chemscore.Internal.Correction>
1.3296

> <Gold.Rescore>
     Score         DG    S(hbond)    S(metal)    S(lipo)     H(rot)  DE(clash)    DE(int)     intcor
     11.44     -15.76       2.40        0.00      78.92       2.72       0.26       4.06       ----

> <Gold.Chemscore.Fitness>
11.4419

> <Gold.Chemscore.DG>
-15.7637

> <Gold.Chemscore.ZeroCoef>
-5.4800

> <Gold.Chemscore.Hbond>
2.3970

> <Gold.Chemscore.Metal>
0.0000

> <Gold.Chemscore.Lipo>
78.9185

> <Gold.Chemscore.Internal_Hbond>
0.0000

> <Gold.Chemscore.DEClash>
0.2650

> <Gold.Chemscore.DEInternal>
4.0569

> <Gold.Chemscore.Rot>
2.7171

> <Gold.Chemscore.Internal.Correction>
   9.000000E+99

> <Gold.Chemscore.Hbonds>
donor molecule, donor type, donor heavy atom, donor atom, acceptor molecule, acceptor atom, score
      L1  H    18    36       P1  7957  0.82
      P1  H  7989  7998       L1    10  0.21
      P1  H  7997  8009       L1     4  0.28
      P1  H  7997  8010       L1     8  0.59

> <Gold.Chemscore.Hbond.Weighted>
-8.0060

> <Gold.Chemscore.Metal.Weighted>
-0.0000

> <Gold.Chemscore.Lipo.Weighted>
-9.2335

> <Gold.Chemscore.Internal_Hbond.Weighted>
0.0000

> <Gold.Chemscore.DEClash.Weighted>
0.2650

> <Gold.Chemscore.DEInternal.Weighted>
4.0569

> <Gold.Chemscore.Rot.Weighted>
6.9558

> <Gold.Chemscore.Internal.Correction.Weighted>
   9.000000E+99

> <Gold.Protein.RotatedTorsions>
[ 6907 6896 6895 6894 ] final  126.52 input  -60.11 | X-H torsion
[ 7974 7965 7964 7962 ] final  -92.12 input  175.53 | X-H torsion
[ 8008 7997 7996 7995 ] final   64.66 input   59.86 | X-H torsion
[ 10167 10162 10161 10158 ] final   25.11 input  -65.29 | X-H torsion
[ 10718 10713 10712 10709 ] final  109.48 input   66.30 | X-H torsion
[ 10763 10752 10751 10750 ] final -169.94 input  -60.55 | X-H torsion
[ 11005 11000 10999 10996 ] final  -42.47 input  -57.11 | X-H torsion

> <Gold.Protein.ActiveResidues>
 VAL166  LYS551  ARG553  GLY616  TRP617  ASP618  TYR619  PRO620  LYS621  CYS622 
 ASP623  PHE694  ASN695  SER759  ASP760  ASP761  ALA762  ILE779  LEU786  VAL792 
 PHE793  MET794  SER795  GLU796  ALA797  LYS798  CYS799  TRP800  GLU811  SER814 

> <Gold.Protein.RotatedAtoms>
  152.3896  133.6659  159.6226 H   0  0  0  0  0  0  0  0  0  0  0  0  # atno 6907 bound_to 6896
  150.7807  133.8977  159.3341 H   0  0  0  0  0  0  0  0  0  0  0  0  # atno 6908 bound_to 6896
  151.6767  135.0969  160.0259 H   0  0  0  0  0  0  0  0  0  0  0  0  # atno 6909 bound_to 6896
  145.4040  140.9540  143.2271 H   0  0  0  0  0  0  0  0  0  0  0  0  # atno 7974 bound_to 7965
  155.6495  140.3497  155.4743 H   0  0  0  0  0  0  0  0  0  0  0  0  # atno 8008 bound_to 7997
  155.9860  140.1184  157.0706 H   0  0  0  0  0  0  0  0  0  0  0  0  # atno 8009 bound_to 7997
  154.4205  140.1129  156.5486 H   0  0  0  0  0  0  0  0  0  0  0  0  # atno 8010 bound_to 7997
  140.5133  144.0124  150.6382 H   0  0  0  0  0  0  0  0  0  0  0  0  # atno 10167 bound_to 10162
  157.6539  131.0914  150.6459 H   0  0  0  0  0  0  0  0  0  0  0  0  # atno 10718 bound_to 10713
  154.6468  135.2906  155.0036 H   0  0  0  0  0  0  0  0  0  0  0  0  # atno 10763 bound_to 10752
  154.1143  135.6558  153.4895 H   0  0  0  0  0  0  0  0  0  0  0  0  # atno 10764 bound_to 10752
  153.0355  135.5272  154.7359 H   0  0  0  0  0  0  0  0  0  0  0  0  # atno 10765 bound_to 10752
  141.0318  133.6817  156.2599 H   0  0  0  0  0  0  0  0  0  0  0  0  # atno 11005 bound_to 11000
  144.8354  139.5559  143.6924 LP  0  0  0  0  0  0  0  0  0  0  0  0  # atno 17320 bound_to 7965
  146.2737  139.6700  142.9278 LP  0  0  0  0  0  0  0  0  0  0  0  0  # atno 17321 bound_to 7965
  140.3453  143.2995  152.0545 LP  0  0  0  0  0  0  0  0  0  0  0  0  # atno 17342 bound_to 10162
  139.4902  144.6413  151.6870 LP  0  0  0  0  0  0  0  0  0  0  0  0  # atno 17343 bound_to 10162
  156.6768  130.4555  149.5640 LP  0  0  0  0  0  0  0  0  0  0  0  0  # atno 17370 bound_to 10713
  156.1958  130.6588  151.1112 LP  0  0  0  0  0  0  0  0  0  0  0  0  # atno 17371 bound_to 10713
  140.6394  134.5182  157.5568 LP  0  0  0  0  0  0  0  0  0  0  0  0  # atno 17394 bound_to 11000
  139.9213  134.8144  156.1204 LP  0  0  0  0  0  0  0  0  0  0  0  0  # atno 17395 bound_to 11000

$$$$
