AV-unprocessed.smi:37|AV-procd|sdf|313|dock5
  -GOLD-   2262016133D 1   1.00000     0.00000
 Structure written by MMmdl.
 44 45  0  0  0  0  0  0  0  0  1 V2000
  152.9800  144.8240  157.9772 C   0  0  0  0  0  0  0  0  0  0  0  0
  151.9684  143.7437  158.3875 C   0  0  0  0  0  0  0  0  0  0  0  0
  152.5942  142.5849  159.1662 C   0  0  0  0  0  0  0  0  0  0  0  0
  153.2452  142.7595  160.1978 O   0  0  0  0  0  0  0  0  0  0  0  0
  152.3462  141.4000  158.5855 O   0  0  0  0  0  0  0  0  0  0  0  0
  152.3099  140.2140  159.3660 C   0  0  0  0  0  0  0  0  0  0  0  0
  152.8824  139.0520  158.5403 C   0  0  2  0  0  0  0  0  0  0  0  0
  153.1532  139.4469  157.1952 O   0  0  0  0  0  0  0  0  0  0  0  0
  152.8554  138.4085  156.3044 C   0  0  2  0  0  0  0  0  0  0  0  0
  151.6865  138.8117  155.4251 N   0  0  0  0  0  0  0  0  0  0  0  0
  151.1539  140.0966  155.4300 C   0  0  0  0  0  0  0  0  0  0  0  0
  150.0926  140.4582  154.6712 C   0  0  0  0  0  0  0  0  0  0  0  0
  149.6284  141.7175  154.7372 F   0  0  0  0  0  0  0  0  0  0  0  0
  149.4469  139.4945  153.7854 C   0  0  0  0  0  0  0  0  0  0  0  0
  148.4799  139.7266  153.0631 O   0  0  0  0  0  0  0  0  0  0  0  0
  150.0199  138.2200  153.8043 N   0  0  0  0  0  0  0  0  0  0  0  0
  151.1114  137.8335  154.5836 C   0  0  0  0  0  0  0  0  0  0  0  0
  151.5308  136.6783  154.5264 O   0  0  0  0  0  0  0  0  0  0  0  0
  152.4844  137.1797  157.1486 C   0  0  1  0  0  0  0  0  0  0  0  0
  154.1227  136.1090  157.5207 Br  0  0  0  0  0  0  0  0  0  0  0  0
  151.9905  137.8090  158.4385 C   0  0  2  0  0  0  0  0  0  0  0  0
  150.6247  138.1915  158.3177 O   0  0  0  0  0  0  0  0  0  0  0  0
  149.6520  137.2680  158.2550 C   0  0  0  0  0  0  0  0  0  0  0  0
  149.7664  136.0773  158.5444 O   0  0  0  0  0  0  0  0  0  0  0  0
  148.3334  137.8424  157.7416 C   0  0  0  0  0  0  0  0  0  0  0  0
  148.4636  139.3085  157.3057 C   0  0  0  0  0  0  0  0  0  0  0  0
  149.6075  137.5195  153.2053 H   0  0  0  0  0  0  0  0  0  0  0  0
  152.4872  145.6164  157.4139 H   0  0  0  0  0  0  0  0  0  0  0  0
  153.7679  144.4121  157.3453 H   0  0  0  0  0  0  0  0  0  0  0  0
  153.4491  145.2822  158.8486 H   0  0  0  0  0  0  0  0  0  0  0  0
  151.1831  144.1883  158.9993 H   0  0  0  0  0  0  0  0  0  0  0  0
  151.4847  143.3401  157.4977 H   0  0  0  0  0  0  0  0  0  0  0  0
  152.8810  140.3274  160.2882 H   0  0  0  0  0  0  0  0  0  0  0  0
  151.2788  140.0051  159.6515 H   0  0  0  0  0  0  0  0  0  0  0  0
  153.8377  138.7516  158.9731 H   0  0  0  0  0  0  0  0  0  0  0  0
  153.6892  138.2471  155.6186 H   0  0  0  0  0  0  0  0  0  0  0  0
  151.5805  140.8580  156.0642 H   0  0  0  0  0  0  0  0  0  0  0  0
  151.7608  136.5263  156.6604 H   0  0  0  0  0  0  0  0  0  0  0  0
  152.1262  137.1536  159.3002 H   0  0  0  0  0  0  0  0  0  0  0  0
  147.9864  137.2339  156.9062 H   0  0  0  0  0  0  0  0  0  0  0  0
  147.5835  137.7572  158.5283 H   0  0  0  0  0  0  0  0  0  0  0  0
  147.4941  139.7082  157.0087 H   0  0  0  0  0  0  0  0  0  0  0  0
  149.1355  139.4137  156.4531 H   0  0  0  0  0  0  0  0  0  0  0  0
  148.8445  139.9320  158.1155 H   0  0  0  0  0  0  0  0  0  0  0  0
  1  2  1  0  0  0  0
  1 28  1  0  0  0  0
  1 29  1  0  0  0  0
  1 30  1  0  0  0  0
  2  3  1  0  0  0  0
  2 31  1  0  0  0  0
  2 32  1  0  0  0  0
  3  4  2  0  0  0  0
  3  5  1  0  0  0  0
  5  6  1  0  0  0  0
  6  7  1  0  0  0  0
  6 33  1  0  0  0  0
  6 34  1  0  0  0  0
  7 21  1  0  0  0  0
  7  8  1  0  0  0  0
  7 35  1  0  0  0  0
  8  9  1  0  0  0  0
  9 10  1  0  0  0  0
  9 19  1  0  0  0  0
  9 36  1  0  0  0  0
 10 17  1  0  0  0  0
 10 11  1  0  0  0  0
 11 12  2  0  0  0  0
 11 37  1  0  0  0  0
 12 13  1  0  0  0  0
 12 14  1  0  0  0  0
 14 15  2  0  0  0  0
 14 16  1  0  0  0  0
 16 27  1  0  0  0  0
 16 17  1  0  0  0  0
 17 18  2  0  0  0  0
 19 20  1  0  0  0  0
 19 21  1  0  0  0  0
 19 38  1  0  0  0  0
 21 22  1  0  0  0  0
 21 39  1  0  0  0  0
 22 23  1  0  0  0  0
 23 24  2  0  0  0  0
 23 25  1  0  0  0  0
 25 26  1  0  0  0  0
 25 40  1  0  0  0  0
 25 41  1  0  0  0  0
 26 42  1  0  0  0  0
 26 43  1  0  0  0  0
 26 44  1  0  0  0  0
M  END
> <s_m_source_file>
AV-unprocessed.smi

> <i_m_source_file_index>
37

> <i_lp_mmshare_version>
43012

> <i_f3d_flags>
0

> <s_epik_input>
W0NIM11bQ0gyXUMoPU8pT1tDSDJdW0NAQEhdMU9bQ0BASF0objJbY0hdYyhGKWMoPU8pW25IXWMyPU8pW0NAQEhdKEJyKVtDQEhdMU9DKD1PKVtDSDJdW0NIM10=

> <s_epik_cmdline>
J2VwaWtfcHl0aG9uJywgJy1waCcsICc3LjAnLCAnLXRuJywgJzgnLCAnLW1hJywgJzIwMCcsICctbWV0YWxfYmluZGluZycsICctaW1hZScsICc8aW5maWxlLm1hZT4nLCAnLW9tYWUnLCAnPG91dGZpbGUubWFlPic=

> <r_lp_tautomer_probability>
0.999537

> <r_epik_Ionization_Penalty>
0.104106

> <r_epik_Ionization_Penalty_Charging>
0.104106

> <r_epik_Ionization_Penalty_Neutral>
3.94675e-16

> <r_epik_State_Penalty>
0.0940182

> <r_epik_Charging_Adjusted_Penalty>
0.198124

> <i_epik_Tot_Q>
0

> <i_epik_Tot_abs_Q>
0

> <r_epik_Metal_State_Penalty>
3.05314

> <b_epik_Metal_Only>
0

> <s_epik_Chemistry_Notes>
This compound has an ester and may undergo hydrolysis at high or low pH. This compound contains an acetal/aminal-like group ( X-CH(R)-Y where X, Y are N, S, or O) that may be acid/base labile, releasing an aldehyde.

> <s_lp_Force_Field>
OPLS_2005

> <r_lp_Energy>
21.1206

> <b_lp_Chiralities_Consistent>
1

> <s_lp_Variant>
AV-unprocessed.smi:37-11

> <Gold.Version>
5.8.1

> <Gold.Id.Protein>
6NUR|6NUR_protein|mol2

> <Gold.PLP.Fitness>
49.8654

> <Gold.PLP.PLP>
-41.0790

> <Gold.PLP.part.hbond>
-4.0000

> <Gold.PLP.part.metal>
0.0000

> <Gold.PLP.part.buried>
-5.7555

> <Gold.PLP.part.nonpolar>
-33.6326

> <Gold.PLP.part.repulsive>
2.5343

> <Gold.PLP.ligand.clash>
0.0000

> <Gold.PLP.ligand.torsion>
1.7030

> <Gold.PLP.Chemscore.Hbond>
4.0000

> <Gold.PLP.Chemscore.CHOScore>
0.0000

> <Gold.PLP.Chemscore.Metal>
0.0000

> <Gold.Chemscore.Hbonds>
donor molecule, donor type, donor heavy atom, donor atom, acceptor molecule, acceptor atom, score
      L1  H    16    27       P1  7948  1.00
      P1  H  6896  6909       L1    24  1.00
      P1  H  7997  8009       L1     8  0.89
      P1  H 10752 10765       L1    18  1.00

> <Gold.PLP.Chemscore.Internal.Correction>
0.1924

> <Gold.Rescore>
     Score         DG    S(hbond)    S(metal)    S(lipo)     H(rot)  DE(clash)    DE(int)     intcor
     13.70     -17.17       3.67        0.00      68.13       3.33       0.49       2.98       ----

> <Gold.Chemscore.Fitness>
13.7003

> <Gold.Chemscore.DG>
-17.1694

> <Gold.Chemscore.ZeroCoef>
-5.4800

> <Gold.Chemscore.Hbond>
3.6658

> <Gold.Chemscore.Metal>
0.0000

> <Gold.Chemscore.Lipo>
68.1298

> <Gold.Chemscore.Internal_Hbond>
0.0000

> <Gold.Chemscore.DEClash>
0.4869

> <Gold.Chemscore.DEInternal>
2.9822

> <Gold.Chemscore.Rot>
3.3303

> <Gold.Chemscore.Internal.Correction>
   9.000000E+99

> <Gold.Chemscore.Hbonds>
donor molecule, donor type, donor heavy atom, donor atom, acceptor molecule, acceptor atom, score
      L1  H    16    27       P1  7948  0.78
      P1  H  6896  6909       L1    24  0.94
      P1  H  7997  8009       L1     8  0.39
      P1  H 10752 10765       L1    18  1.00

> <Gold.Chemscore.Hbond.Weighted>
-12.2438

> <Gold.Chemscore.Metal.Weighted>
-0.0000

> <Gold.Chemscore.Lipo.Weighted>
-7.9712

> <Gold.Chemscore.Internal_Hbond.Weighted>
0.0000

> <Gold.Chemscore.DEClash.Weighted>
0.4869

> <Gold.Chemscore.DEInternal.Weighted>
2.9822

> <Gold.Chemscore.Rot.Weighted>
8.5256

> <Gold.Chemscore.Internal.Correction.Weighted>
   9.000000E+99

> <Gold.Protein.RotatedTorsions>
[ 6907 6896 6895 6894 ] final   51.44 input  -60.11 | X-H torsion
[ 7974 7965 7964 7962 ] final -112.34 input  175.53 | X-H torsion
[ 8008 7997 7996 7995 ] final -177.67 input   59.86 | X-H torsion
[ 10167 10162 10161 10158 ] final -100.26 input  -65.29 | X-H torsion
[ 10718 10713 10712 10709 ] final    3.51 input   66.30 | X-H torsion
[ 10763 10752 10751 10750 ] final  172.91 input  -60.55 | X-H torsion
[ 11005 11000 10999 10996 ] final -107.87 input  -57.11 | X-H torsion

> <Gold.Protein.ActiveResidues>
 VAL166  LYS551  ARG553  GLY616  TRP617  ASP618  TYR619  PRO620  LYS621  CYS622 
 ASP623  PHE694  ASN695  SER759  ASP760  ASP761  ALA762  ILE779  LEU786  VAL792 
 PHE793  MET794  SER795  GLU796  ALA797  LYS798  CYS799  TRP800  GLU811  SER814 

> <Gold.Protein.RotatedAtoms>
  152.3127  134.7478  160.0332 H   0  0  0  0  0  0  0  0  0  0  0  0  # atno 6907 bound_to 6896
  151.7953  133.3358  159.3519 H   0  0  0  0  0  0  0  0  0  0  0  0  # atno 6908 bound_to 6896
  150.7328  134.5735  159.5947 H   0  0  0  0  0  0  0  0  0  0  0  0  # atno 6909 bound_to 6896
  145.1452  140.8799  143.3679 H   0  0  0  0  0  0  0  0  0  0  0  0  # atno 7974 bound_to 7965
  156.0097  140.1238  157.0465 H   0  0  0  0  0  0  0  0  0  0  0  0  # atno 8008 bound_to 7997
  154.4271  140.1090  156.5882 H   0  0  0  0  0  0  0  0  0  0  0  0  # atno 8009 bound_to 7997
  155.6096  140.3471  155.4620 H   0  0  0  0  0  0  0  0  0  0  0  0  # atno 8010 bound_to 7997
  140.2537  143.3454  152.0690 H   0  0  0  0  0  0  0  0  0  0  0  0  # atno 10167 bound_to 10162
  156.8789  130.5646  149.5654 H   0  0  0  0  0  0  0  0  0  0  0  0  # atno 10718 bound_to 10713
  154.4327  135.2760  155.1901 H   0  0  0  0  0  0  0  0  0  0  0  0  # atno 10763 bound_to 10752
  154.3800  135.6089  153.5789 H   0  0  0  0  0  0  0  0  0  0  0  0  # atno 10764 bound_to 10752
  152.9837  135.5878  154.4641 H   0  0  0  0  0  0  0  0  0  0  0  0  # atno 10765 bound_to 10752
  141.0932  133.9018  157.2027 H   0  0  0  0  0  0  0  0  0  0  0  0  # atno 11005 bound_to 11000
  145.0490  139.3197  143.5938 LP  0  0  0  0  0  0  0  0  0  0  0  0  # atno 17320 bound_to 7965
  146.3501  139.9891  142.8687 LP  0  0  0  0  0  0  0  0  0  0  0  0  # atno 17321 bound_to 7965
  139.5038  144.6763  151.6121 LP  0  0  0  0  0  0  0  0  0  0  0  0  # atno 17342 bound_to 10162
  140.6020  143.9592  150.6393 LP  0  0  0  0  0  0  0  0  0  0  0  0  # atno 17343 bound_to 10162
  156.0687  130.5725  150.9341 LP  0  0  0  0  0  0  0  0  0  0  0  0  # atno 17370 bound_to 10713
  157.6152  131.0934  150.8723 LP  0  0  0  0  0  0  0  0  0  0  0  0  # atno 17371 bound_to 10713
  139.9762  135.0113  156.9636 LP  0  0  0  0  0  0  0  0  0  0  0  0  # atno 17394 bound_to 11000
  140.5203  134.0914  155.7290 LP  0  0  0  0  0  0  0  0  0  0  0  0  # atno 17395 bound_to 11000

$$$$
