AV-unprocessed.smi:229|AV-procd|sdf|1761|dock2
  -GOLD-   2262020293D 1   1.00000     0.00000
 Structure written by MMmdl.
 58 62  0  0  0  0  0  0  0  0  1 V2000
  154.8275  132.5999  156.8402 C   0  0  0  0  0  0  0  0  0  0  0  0
  153.3260  132.2929  156.9011 C   0  0  0  0  0  0  0  0  0  0  0  0
  152.5063  133.1151  155.8955 C   0  0  2  0  0  0  0  0  0  0  0  0
  152.4996  134.6125  156.2486 C   0  0  0  0  0  0  0  0  0  0  0  0
  151.6250  135.3330  155.3305 N   0  0  0  0  0  0  0  0  0  0  0  0
  151.7063  136.6859  155.2921 C   0  0  0  0  0  0  0  0  0  0  0  0
  152.0009  137.3184  154.1247 N   0  0  0  0  0  0  0  0  0  0  0  0
  152.0917  138.6512  154.0840 C   0  0  0  0  0  0  0  0  0  0  0  0
  151.9234  139.5301  155.0740 N   0  0  0  0  0  0  0  0  0  0  0  0
  151.6179  138.9014  156.2448 C   0  0  0  0  0  0  0  0  0  0  0  0
  151.4928  137.4973  156.4417 C   0  0  0  0  0  0  0  0  0  0  0  0
  151.1637  137.2330  157.7664 N   0  0  0  0  0  0  0  0  0  0  0  0
  151.1026  138.4126  158.3217 C   0  0  0  0  0  0  0  0  0  0  0  0
  151.3553  139.4704  157.4778 N   0  0  0  0  0  0  0  0  0  0  0  0
  151.3483  140.8818  157.8220 C   0  0  0  0  0  0  0  0  0  0  0  0
  151.6450  141.1302  159.3173 C   0  0  1  0  0  0  0  0  0  0  0  0
  152.8964  140.5433  159.6215 O   0  0  0  0  0  0  0  0  0  0  0  0
  151.7250  142.6270  159.6793 C   0  0  1  0  0  0  0  0  0  0  0  0
  150.5057  143.4535  159.2679 C   0  0  0  0  0  0  0  0  0  0  0  0
  150.5598  144.6481  160.2039 C   0  0  0  0  0  0  0  0  0  0  0  0
  151.4093  144.1528  161.3769 C   0  0  0  0  0  0  0  0  0  0  0  0
  151.6916  142.7890  161.0901 O   0  0  0  0  0  0  0  0  0  0  0  0
  150.2677  134.8012  155.2993 C   0  0  0  0  0  0  0  0  0  0  0  0
  150.2775  133.2871  154.9940 C   0  0  2  0  0  0  0  0  0  0  0  0
  150.6200  132.9617  153.5358 C   0  0  0  0  0  0  0  0  0  0  0  0
  149.2707  132.6369  152.9114 C   0  0  0  0  0  0  0  0  0  0  0  0
  148.6119  131.9551  153.9619 O   0  0  0  0  0  0  0  0  0  0  0  0
  148.8713  132.6782  155.1572 C   0  0  0  0  0  0  0  0  0  0  0  0
  151.1635  132.6266  155.9031 O   0  0  0  0  0  0  0  0  0  0  0  0
  155.3734  132.0139  157.5797 H   0  0  0  0  0  0  0  0  0  0  0  0
  155.0228  133.6537  157.0403 H   0  0  0  0  0  0  0  0  0  0  0  0
  155.2405  132.3625  155.8593 H   0  0  0  0  0  0  0  0  0  0  0  0
  153.1638  131.2287  156.7260 H   0  0  0  0  0  0  0  0  0  0  0  0
  152.9677  132.4964  157.9106 H   0  0  0  0  0  0  0  0  0  0  0  0
  152.9432  132.9857  154.9043 H   0  0  0  0  0  0  0  0  0  0  0  0
  152.1514  134.7588  157.2723 H   0  0  0  0  0  0  0  0  0  0  0  0
  153.5143  135.0091  156.1882 H   0  0  0  0  0  0  0  0  0  0  0  0
  152.3337  139.0734  153.1198 H   0  0  0  0  0  0  0  0  0  0  0  0
  150.8628  138.5446  159.3672 H   0  0  0  0  0  0  0  0  0  0  0  0
  152.0810  141.3969  157.1991 H   0  0  0  0  0  0  0  0  0  0  0  0
  150.3716  141.2833  157.5505 H   0  0  0  0  0  0  0  0  0  0  0  0
  150.8759  140.6497  159.9236 H   0  0  0  0  0  0  0  0  0  0  0  0
  152.7877  139.9816  160.3734 H   0  0  0  0  0  0  0  0  0  0  0  0
  152.6311  143.0825  159.2743 H   0  0  0  0  0  0  0  0  0  0  0  0
  150.5222  143.7415  158.2164 H   0  0  0  0  0  0  0  0  0  0  0  0
  149.5906  142.8881  159.4504 H   0  0  0  0  0  0  0  0  0  0  0  0
  151.0425  145.4992  159.7220 H   0  0  0  0  0  0  0  0  0  0  0  0
  149.5619  144.9580  160.5162 H   0  0  0  0  0  0  0  0  0  0  0  0
  152.3438  144.7121  161.4383 H   0  0  0  0  0  0  0  0  0  0  0  0
  150.8937  144.2453  162.3331 H   0  0  0  0  0  0  0  0  0  0  0  0
  149.8117  134.9773  156.2747 H   0  0  0  0  0  0  0  0  0  0  0  0
  149.6491  135.3217  154.5685 H   0  0  0  0  0  0  0  0  0  0  0  0
  151.1407  133.7670  153.0164 H   0  0  0  0  0  0  0  0  0  0  0  0
  151.2498  132.0723  153.4859 H   0  0  0  0  0  0  0  0  0  0  0  0
  148.7246  133.5469  152.6565 H   0  0  0  0  0  0  0  0  0  0  0  0
  149.3556  132.0189  152.0176 H   0  0  0  0  0  0  0  0  0  0  0  0
  148.7904  132.0261  156.0275 H   0  0  0  0  0  0  0  0  0  0  0  0
  148.1129  133.4560  155.2584 H   0  0  0  0  0  0  0  0  0  0  0  0
  1  2  1  0  0  0  0
  1 30  1  0  0  0  0
  1 31  1  0  0  0  0
  1 32  1  0  0  0  0
  2  3  1  0  0  0  0
  2 33  1  0  0  0  0
  2 34  1  0  0  0  0
  3 29  1  0  0  0  0
  3  4  1  0  0  0  0
  3 35  1  0  0  0  0
  4  5  1  0  0  0  0
  4 36  1  0  0  0  0
  4 37  1  0  0  0  0
  5  6  1  0  0  0  0
  5 23  1  0  0  0  0
  6 11  1  0  0  0  0
  6  7  2  0  0  0  0
  7  8  1  0  0  0  0
  8  9  2  0  0  0  0
  8 38  1  0  0  0  0
  9 10  1  0  0  0  0
 10 14  1  0  0  0  0
 10 11  2  0  0  0  0
 11 12  1  0  0  0  0
 12 13  2  0  0  0  0
 13 14  1  0  0  0  0
 13 39  1  0  0  0  0
 14 15  1  0  0  0  0
 15 16  1  0  0  0  0
 15 40  1  0  0  0  0
 15 41  1  0  0  0  0
 16 17  1  0  0  0  0
 16 18  1  0  0  0  0
 16 42  1  0  0  0  0
 17 43  1  0  0  0  0
 18 22  1  0  0  0  0
 18 19  1  0  0  0  0
 18 44  1  0  0  0  0
 19 20  1  0  0  0  0
 19 45  1  0  0  0  0
 19 46  1  0  0  0  0
 20 21  1  0  0  0  0
 20 47  1  0  0  0  0
 20 48  1  0  0  0  0
 21 22  1  0  0  0  0
 21 49  1  0  0  0  0
 21 50  1  0  0  0  0
 23 24  1  0  0  0  0
 23 51  1  0  0  0  0
 23 52  1  0  0  0  0
 24 28  1  0  0  0  0
 24 25  1  0  0  0  0
 24 29  1  0  0  0  0
 25 26  1  0  0  0  0
 25 53  1  0  0  0  0
 25 54  1  0  0  0  0
 26 27  1  0  0  0  0
 26 55  1  0  0  0  0
 26 56  1  0  0  0  0
 27 28  1  0  0  0  0
 28 57  1  0  0  0  0
 28 58  1  0  0  0  0
M  END
> <s_m_source_file>
AV-unprocessed.smi

> <i_m_source_file_index>
229

> <i_lp_mmshare_version>
43012

> <i_f3d_flags>
0

> <s_epik_input>
W0NIMl0xT1tDSDJdW0NIMl1bQ0BdMTJbQ0gyXU4oW0NIMl1bQ0BIXShPMilbQ0gyXVtDSDNdKWMobltjSF1uMyljKGMzNCluW2NIXW40W0NIMl1bQ0BIXShbT0hdKVtDQEBIXTVbQ0gyXVtDSDJdW0NIMl1PNQ==

> <s_epik_cmdline>
J2VwaWtfcHl0aG9uJywgJy1waCcsICc3LjAnLCAnLXRuJywgJzgnLCAnLW1hJywgJzIwMCcsICctbWV0YWxfYmluZGluZycsICctaW1hZScsICc8aW5maWxlLm1hZT4nLCAnLW9tYWUnLCAnPG91dGZpbGUubWFlPic=

> <r_lp_tautomer_probability>
1

> <r_epik_Ionization_Penalty>
0.00318402

> <r_epik_Ionization_Penalty_Charging>
0

> <r_epik_Ionization_Penalty_Neutral>
0.00318402

> <r_epik_State_Penalty>
0.00215642

> <r_epik_Charging_Adjusted_Penalty>
0.00215642

> <i_epik_Tot_Q>
0

> <i_epik_Tot_abs_Q>
0

> <r_epik_Metal_State_Penalty>
-0

> <b_epik_Metal_Only>
0

> <s_lp_Force_Field>
OPLS_2005

> <r_lp_Energy>
54.7562

> <b_lp_Chiralities_Consistent>
1

> <s_lp_Variant>
AV-unprocessed.smi:229-15

> <Gold.Version>
5.8.1

> <Gold.Id.Protein>
6NUR|6NUR_protein|mol2

> <Gold.PLP.Fitness>
46.1620

> <Gold.PLP.PLP>
-44.4717

> <Gold.PLP.part.hbond>
-1.9989

> <Gold.PLP.part.metal>
0.0000

> <Gold.PLP.part.buried>
-8.2154

> <Gold.PLP.part.nonpolar>
-34.9660

> <Gold.PLP.part.repulsive>
1.2835

> <Gold.PLP.ligand.clash>
0.0000

> <Gold.PLP.ligand.torsion>
0.7792

> <Gold.PLP.Chemscore.Hbond>
0.9491

> <Gold.PLP.Chemscore.CHOScore>
0.0000

> <Gold.PLP.Chemscore.Metal>
0.0000

> <Gold.Chemscore.Hbonds>
donor molecule, donor type, donor heavy atom, donor atom, acceptor molecule, acceptor atom, score
      P1  H  6933  6945       L1    22  0.18
      P1  H  7989  7998       L1     9  0.13
      P1  H 10752 10764       L1     7  0.04

> <Gold.PLP.Chemscore.Internal.Correction>
0.4015

> <Gold.Rescore>
     Score         DG    S(hbond)    S(metal)    S(lipo)     H(rot)  DE(clash)    DE(int)     intcor
     12.39     -13.14       0.75        0.00      97.92       2.46       0.22       0.53       ----

> <Gold.Chemscore.Fitness>
12.3924

> <Gold.Chemscore.DG>
-13.1351

> <Gold.Chemscore.ZeroCoef>
-5.4800

> <Gold.Chemscore.Hbond>
0.7465

> <Gold.Chemscore.Metal>
0.0000

> <Gold.Chemscore.Lipo>
97.9226

> <Gold.Chemscore.Internal_Hbond>
0.0000

> <Gold.Chemscore.DEClash>
0.2159

> <Gold.Chemscore.DEInternal>
0.5267

> <Gold.Chemscore.Rot>
2.4591

> <Gold.Chemscore.Internal.Correction>
   9.000000E+99

> <Gold.Chemscore.Hbonds>
donor molecule, donor type, donor heavy atom, donor atom, acceptor molecule, acceptor atom, score
      P1  H  6933  6945       L1    22  0.05

> <Gold.Chemscore.Hbond.Weighted>
-2.4934

> <Gold.Chemscore.Metal.Weighted>
-0.0000

> <Gold.Chemscore.Lipo.Weighted>
-11.4569

> <Gold.Chemscore.Internal_Hbond.Weighted>
0.0000

> <Gold.Chemscore.DEClash.Weighted>
0.2159

> <Gold.Chemscore.DEInternal.Weighted>
0.5267

> <Gold.Chemscore.Rot.Weighted>
6.2953

> <Gold.Chemscore.Internal.Correction.Weighted>
   9.000000E+99

> <Gold.Protein.RotatedTorsions>
[ 6907 6896 6895 6894 ] final  -25.74 input  -60.11 | X-H torsion
[ 7974 7965 7964 7962 ] final  122.15 input  175.53 | X-H torsion
[ 8008 7997 7996 7995 ] final -169.96 input   59.86 | X-H torsion
[ 10167 10162 10161 10158 ] final   79.91 input  -65.29 | X-H torsion
[ 10718 10713 10712 10709 ] final  -15.38 input   66.30 | X-H torsion
[ 10763 10752 10751 10750 ] final -102.43 input  -60.55 | X-H torsion
[ 11005 11000 10999 10996 ] final   78.89 input  -57.11 | X-H torsion

> <Gold.Protein.ActiveResidues>
 VAL166  LYS551  ARG553  GLY616  TRP617  ASP618  TYR619  PRO620  LYS621  CYS622 
 ASP623  PHE694  ASN695  SER759  ASP760  ASP761  ALA762  ILE779  LEU786  VAL792 
 PHE793  MET794  SER795  GLU796  ALA797  LYS798  CYS799  TRP800  GLU811  SER814 

> <Gold.Protein.RotatedAtoms>
  151.1709  135.0317  159.8750 H   0  0  0  0  0  0  0  0  0  0  0  0  # atno 6907 bound_to 6896
  152.5449  134.1171  159.8393 H   0  0  0  0  0  0  0  0  0  0  0  0  # atno 6908 bound_to 6896
  151.1277  133.5012  159.2632 H   0  0  0  0  0  0  0  0  0  0  0  0  # atno 6909 bound_to 6896
  145.1109  139.3453  143.4763 H   0  0  0  0  0  0  0  0  0  0  0  0  # atno 7974 bound_to 7965
  155.9120  140.1059  157.1272 H   0  0  0  0  0  0  0  0  0  0  0  0  # atno 8008 bound_to 7997
  154.4041  140.1272  156.4634 H   0  0  0  0  0  0  0  0  0  0  0  0  # atno 8009 bound_to 7997
  155.7299  140.3468  155.5057 H   0  0  0  0  0  0  0  0  0  0  0  0  # atno 8010 bound_to 7997
  139.9554  144.5998  150.8122 H   0  0  0  0  0  0  0  0  0  0  0  0  # atno 10167 bound_to 10162
  156.6026  130.4828  149.6233 H   0  0  0  0  0  0  0  0  0  0  0  0  # atno 10718 bound_to 10713
  154.7733  135.4861  153.9693 H   0  0  0  0  0  0  0  0  0  0  0  0  # atno 10763 bound_to 10752
  153.1396  135.6770  153.9056 H   0  0  0  0  0  0  0  0  0  0  0  0  # atno 10764 bound_to 10752
  153.8734  135.3141  155.3421 H   0  0  0  0  0  0  0  0  0  0  0  0  # atno 10765 bound_to 10752
  139.9194  134.7799  156.1708 H   0  0  0  0  0  0  0  0  0  0  0  0  # atno 11005 bound_to 11000
  146.3526  140.1028  142.8607 LP  0  0  0  0  0  0  0  0  0  0  0  0  # atno 17320 bound_to 7965
  145.0848  140.9245  143.4804 LP  0  0  0  0  0  0  0  0  0  0  0  0  # atno 17321 bound_to 7965
  140.7570  143.3077  151.2921 LP  0  0  0  0  0  0  0  0  0  0  0  0  # atno 17342 bound_to 10162
  139.6596  144.0214  152.2683 LP  0  0  0  0  0  0  0  0  0  0  0  0  # atno 17343 bound_to 10162
  156.2456  130.6877  151.1597 LP  0  0  0  0  0  0  0  0  0  0  0  0  # atno 17370 bound_to 10713
  157.7275  131.0638  150.5860 LP  0  0  0  0  0  0  0  0  0  0  0  0  # atno 17371 bound_to 10713
  141.0702  133.6800  156.2124 LP  0  0  0  0  0  0  0  0  0  0  0  0  # atno 17394 bound_to 11000
  140.6520  134.5057  157.5578 LP  0  0  0  0  0  0  0  0  0  0  0  0  # atno 17395 bound_to 11000

$$$$
