AV-unprocessed.smi:657|AV-procd|sdf|3224|dock2
  -GOLD-   22720 0163D 1   1.00000     0.00000
 Structure written by MMmdl.
 46 47  0  0  0  0  0  0  0  0  1 V2000
  152.1009  139.1866  155.2721 C   0  0  0  0  0  0  0  0  0  0  0  0
  150.8879  138.8072  156.1462 C   0  0  0  0  0  0  0  0  0  0  0  0
  150.7453  137.2800  156.2872 C   0  0  0  0  0  0  0  0  0  0  0  0
  149.6211  139.4318  155.7018 N   0  0  0  0  0  0  0  0  0  0  0  0
  149.1769  138.9744  154.3732 C   0  0  0  0  0  0  0  0  0  0  0  0
  147.7317  139.4179  154.0898 C   0  0  0  0  0  0  0  0  0  0  0  0
  147.6046  140.9410  154.1531 C   0  0  0  0  0  0  0  0  0  0  0  0
  148.1238  141.4313  155.5063 C   0  0  0  0  0  0  0  0  0  0  0  0
  149.5631  140.9296  155.7693 C   0  0  1  0  0  0  0  0  0  0  0  0
  150.0798  141.5400  157.0871 C   0  0  0  0  0  0  0  0  0  0  0  0
  150.5017  140.8129  157.9871 O   0  0  0  0  0  0  0  0  0  0  0  0
  150.0642  142.8787  157.1720 N   0  0  0  0  0  0  0  0  0  0  0  0
  150.5366  143.6490  158.3144 C   0  0  0  0  0  0  0  0  0  0  0  0
  152.0678  143.5989  158.3999 C   0  0  0  0  0  0  0  0  0  0  0  0
  152.5279  143.1037  159.7424 C   0  0  0  0  0  0  0  0  0  0  0  0
  153.2471  141.9095  160.0344 C   0  0  0  0  0  0  0  0  0  0  0  0
  153.4961  141.7613  161.3256 N   0  0  0  0  0  0  0  0  0  0  0  0
  152.9464  142.8504  161.9006 N   0  0  0  0  0  0  0  0  0  0  0  0
  153.0286  143.0173  163.3357 C   0  0  0  0  0  0  0  0  0  0  0  0
  152.3567  143.6787  160.9701 C   0  0  0  0  0  0  0  0  0  0  0  0
  153.0187  138.7787  155.6960 H   0  0  0  0  0  0  0  0  0  0  0  0
  152.2341  140.2657  155.2040 H   0  0  0  0  0  0  0  0  0  0  0  0
  152.0144  138.7932  154.2594 H   0  0  0  0  0  0  0  0  0  0  0  0
  151.1035  139.1384  157.1606 H   0  0  0  0  0  0  0  0  0  0  0  0
  151.5997  136.8657  156.8230 H   0  0  0  0  0  0  0  0  0  0  0  0
  150.7031  136.7708  155.3249 H   0  0  0  0  0  0  0  0  0  0  0  0
  149.8505  137.0158  156.8515 H   0  0  0  0  0  0  0  0  0  0  0  0
  149.8361  139.3629  153.5958 H   0  0  0  0  0  0  0  0  0  0  0  0
  149.2078  137.8894  154.2959 H   0  0  0  0  0  0  0  0  0  0  0  0
  147.4208  139.0635  153.1065 H   0  0  0  0  0  0  0  0  0  0  0  0
  147.0563  138.9582  154.8128 H   0  0  0  0  0  0  0  0  0  0  0  0
  148.1807  141.3961  153.3464 H   0  0  0  0  0  0  0  0  0  0  0  0
  146.5665  141.2432  154.0116 H   0  0  0  0  0  0  0  0  0  0  0  0
  148.0885  142.5215  155.5328 H   0  0  0  0  0  0  0  0  0  0  0  0
  147.4535  141.0815  156.2934 H   0  0  0  0  0  0  0  0  0  0  0  0
  150.1924  141.3263  154.9703 H   0  0  0  0  0  0  0  0  0  0  0  0
  149.7062  143.3995  156.3846 H   0  0  0  0  0  0  0  0  0  0  0  0
  150.1957  144.6798  158.2074 H   0  0  0  0  0  0  0  0  0  0  0  0
  150.1055  143.2617  159.2392 H   0  0  0  0  0  0  0  0  0  0  0  0
  152.4506  142.9562  157.6060 H   0  0  0  0  0  0  0  0  0  0  0  0
  152.4748  144.5910  158.2002 H   0  0  0  0  0  0  0  0  0  0  0  0
  153.5913  141.1487  159.3493 H   0  0  0  0  0  0  0  0  0  0  0  0
  152.5347  143.9427  163.6333 H   0  0  0  0  0  0  0  0  0  0  0  0
  154.0738  143.0582  163.6437 H   0  0  0  0  0  0  0  0  0  0  0  0
  152.5397  142.1791  163.8331 H   0  0  0  0  0  0  0  0  0  0  0  0
  151.8664  144.5982  161.2545 H   0  0  0  0  0  0  0  0  0  0  0  0
  1  2  1  0  0  0  0
  1 21  1  0  0  0  0
  1 22  1  0  0  0  0
  1 23  1  0  0  0  0
  2  3  1  0  0  0  0
  2  4  1  0  0  0  0
  2 24  1  0  0  0  0
  3 25  1  0  0  0  0
  3 26  1  0  0  0  0
  3 27  1  0  0  0  0
  4  9  1  0  0  0  0
  4  5  1  0  0  0  0
  5  6  1  0  0  0  0
  5 28  1  0  0  0  0
  5 29  1  0  0  0  0
  6  7  1  0  0  0  0
  6 30  1  0  0  0  0
  6 31  1  0  0  0  0
  7  8  1  0  0  0  0
  7 32  1  0  0  0  0
  7 33  1  0  0  0  0
  8  9  1  0  0  0  0
  8 34  1  0  0  0  0
  8 35  1  0  0  0  0
  9 10  1  0  0  0  0
  9 36  1  0  0  0  0
 10 11  2  0  0  0  0
 10 12  1  0  0  0  0
 12 13  1  0  0  0  0
 12 37  1  0  0  0  0
 13 14  1  0  0  0  0
 13 38  1  0  0  0  0
 13 39  1  0  0  0  0
 14 15  1  0  0  0  0
 14 40  1  0  0  0  0
 14 41  1  0  0  0  0
 15 20  2  0  0  0  0
 15 16  1  0  0  0  0
 16 17  2  0  0  0  0
 16 42  1  0  0  0  0
 17 18  1  0  0  0  0
 18 19  1  0  0  0  0
 18 20  1  0  0  0  0
 19 43  1  0  0  0  0
 19 44  1  0  0  0  0
 19 45  1  0  0  0  0
 20 46  1  0  0  0  0
M  END
> <s_m_source_file>
AV-unprocessed.smi

> <i_m_source_file_index>
657

> <i_lp_mmshare_version>
43012

> <i_f3d_flags>
0

> <s_epik_input>
W0NIM11bQ0hdKFtDSDNdKU4xW0NIMl1bQ0gyXVtDSDJdW0NIMl1bQ0BIXTFDKD1PKVtOSF1bQ0gyXVtDSDJdYzJbY0hdbm4oW0NIM10pW2NIXTI=

> <s_epik_cmdline>
J2VwaWtfcHl0aG9uJywgJy1waCcsICc3LjAnLCAnLXRuJywgJzgnLCAnLW1hJywgJzIwMCcsICctbWV0YWxfYmluZGluZycsICctaW1hZScsICc8aW5maWxlLm1hZT4nLCAnLW9tYWUnLCAnPG91dGZpbGUubWFlPic=

> <r_lp_tautomer_probability>
1

> <r_epik_Ionization_Penalty>
1.91154

> <r_epik_Ionization_Penalty_Charging>
0

> <r_epik_Ionization_Penalty_Neutral>
1.91154

> <r_epik_State_Penalty>
2.0331

> <r_epik_Charging_Adjusted_Penalty>
2.0331

> <i_epik_Tot_Q>
0

> <i_epik_Tot_abs_Q>
0

> <r_epik_Metal_State_Penalty>
2.04973

> <b_epik_Metal_Only>
0

> <s_lp_Force_Field>
OPLS_2005

> <r_lp_Energy>
17.3109

> <b_lp_Chiralities_Consistent>
1

> <s_lp_Variant>
AV-unprocessed.smi:657-5

> <Gold.Version>
5.8.1

> <Gold.Id.Protein>
6NUR|6NUR_protein|mol2

> <Gold.PLP.Fitness>
47.2907

> <Gold.PLP.PLP>
-45.1784

> <Gold.PLP.part.hbond>
-1.0000

> <Gold.PLP.part.metal>
0.0000

> <Gold.PLP.part.buried>
-3.4336

> <Gold.PLP.part.nonpolar>
-41.2332

> <Gold.PLP.part.repulsive>
0.0527

> <Gold.PLP.ligand.clash>
0.0103

> <Gold.PLP.ligand.torsion>
0.5086

> <Gold.PLP.Chemscore.Hbond>
0.9920

> <Gold.PLP.Chemscore.CHOScore>
0.0000

> <Gold.PLP.Chemscore.Metal>
0.0000

> <Gold.Chemscore.Hbonds>
donor molecule, donor type, donor heavy atom, donor atom, acceptor molecule, acceptor atom, score
      L1  H    12    37       P1  8028  1.00

> <Gold.PLP.Chemscore.Internal.Correction>
0.1638

> <Gold.Rescore>
     Score         DG    S(hbond)    S(metal)    S(lipo)     H(rot)  DE(clash)    DE(int)     intcor
     16.68     -18.84       0.96        0.00     121.17       1.57       0.18       1.98       ----

> <Gold.Chemscore.Fitness>
16.6797

> <Gold.Chemscore.DG>
-18.8411

> <Gold.Chemscore.ZeroCoef>
-5.4800

> <Gold.Chemscore.Hbond>
0.9620

> <Gold.Chemscore.Metal>
0.0000

> <Gold.Chemscore.Lipo>
121.1662

> <Gold.Chemscore.Internal_Hbond>
0.0000

> <Gold.Chemscore.DEClash>
0.1791

> <Gold.Chemscore.DEInternal>
1.9822

> <Gold.Chemscore.Rot>
1.5736

> <Gold.Chemscore.Internal.Correction>
   9.000000E+99

> <Gold.Chemscore.Hbonds>
donor molecule, donor type, donor heavy atom, donor atom, acceptor molecule, acceptor atom, score
      L1  H    12    37       P1  8028  0.97

> <Gold.Chemscore.Hbond.Weighted>
-3.2131

> <Gold.Chemscore.Metal.Weighted>
-0.0000

> <Gold.Chemscore.Lipo.Weighted>
-14.1764

> <Gold.Chemscore.Internal_Hbond.Weighted>
0.0000

> <Gold.Chemscore.DEClash.Weighted>
0.1791

> <Gold.Chemscore.DEInternal.Weighted>
1.9822

> <Gold.Chemscore.Rot.Weighted>
4.0284

> <Gold.Chemscore.Internal.Correction.Weighted>
   9.000000E+99

> <Gold.Protein.RotatedTorsions>
[ 6907 6896 6895 6894 ] final   23.31 input  -60.11 | X-H torsion
[ 7974 7965 7964 7962 ] final   19.10 input  175.53 | X-H torsion
[ 8008 7997 7996 7995 ] final -103.96 input   59.86 | X-H torsion
[ 10167 10162 10161 10158 ] final -167.93 input  -65.29 | X-H torsion
[ 10718 10713 10712 10709 ] final -134.80 input   66.30 | X-H torsion
[ 10763 10752 10751 10750 ] final  166.75 input  -60.55 | X-H torsion
[ 11005 11000 10999 10996 ] final   19.96 input  -57.11 | X-H torsion

> <Gold.Protein.ActiveResidues>
 VAL166  LYS551  ARG553  GLY616  TRP617  ASP618  TYR619  PRO620  LYS621  CYS622 
 ASP623  PHE694  ASN695  SER759  ASP760  ASP761  ALA762  ILE779  LEU786  VAL792 
 PHE793  MET794  SER795  GLU796  ALA797  LYS798  CYS799  TRP800  GLU811  SER814 

> <Gold.Protein.RotatedAtoms>
  151.9405  135.0215  160.0535 H   0  0  0  0  0  0  0  0  0  0  0  0  # atno 6907 bound_to 6896
  152.2040  133.4857  159.5082 H   0  0  0  0  0  0  0  0  0  0  0  0  # atno 6908 bound_to 6896
  150.6961  134.1470  159.4169 H   0  0  0  0  0  0  0  0  0  0  0  0  # atno 6909 bound_to 6896
  146.2162  139.8362  142.8650 H   0  0  0  0  0  0  0  0  0  0  0  0  # atno 7974 bound_to 7965
  154.8784  140.0420  157.1767 H   0  0  0  0  0  0  0  0  0  0  0  0  # atno 8008 bound_to 7997
  154.8665  140.2952  155.5486 H   0  0  0  0  0  0  0  0  0  0  0  0  # atno 8009 bound_to 7997
  156.2999  140.2437  156.3647 H   0  0  0  0  0  0  0  0  0  0  0  0  # atno 8010 bound_to 7997
  139.6018  144.0996  152.1750 H   0  0  0  0  0  0  0  0  0  0  0  0  # atno 10167 bound_to 10162
  156.2593  130.7200  151.1128 H   0  0  0  0  0  0  0  0  0  0  0  0  # atno 10718 bound_to 10713
  154.3436  135.2753  155.2409 H   0  0  0  0  0  0  0  0  0  0  0  0  # atno 10763 bound_to 10752
  154.4669  135.5893  153.6298 H   0  0  0  0  0  0  0  0  0  0  0  0  # atno 10764 bound_to 10752
  152.9855  135.6078  154.3640 H   0  0  0  0  0  0  0  0  0  0  0  0  # atno 10765 bound_to 10752
  140.4079  134.1649  155.7666 H   0  0  0  0  0  0  0  0  0  0  0  0  # atno 11005 bound_to 11000
  145.2946  141.0177  143.3643 LP  0  0  0  0  0  0  0  0  0  0  0  0  # atno 17320 bound_to 7965
  144.9052  139.4599  143.6613 LP  0  0  0  0  0  0  0  0  0  0  0  0  # atno 17321 bound_to 7965
  140.0593  144.5869  150.7275 LP  0  0  0  0  0  0  0  0  0  0  0  0  # atno 17342 bound_to 10162
  140.7255  143.2632  151.4135 LP  0  0  0  0  0  0  0  0  0  0  0  0  # atno 17343 bound_to 10162
  157.7244  131.0660  150.5995 LP  0  0  0  0  0  0  0  0  0  0  0  0  # atno 17370 bound_to 10713
  156.6082  130.4372  149.5870 LP  0  0  0  0  0  0  0  0  0  0  0  0  # atno 17371 bound_to 10713
  141.1832  133.8369  157.1183 LP  0  0  0  0  0  0  0  0  0  0  0  0  # atno 17394 bound_to 11000
  140.0288  134.9911  157.0740 LP  0  0  0  0  0  0  0  0  0  0  0  0  # atno 17395 bound_to 11000

$$$$
