AV-unprocessed.smi:3048|AV-procd|sdf|11627|dock7
  -GOLD-   2272017 13D 1   1.00000     0.00000
 Structure written by MMmdl.
 37 38  0  0  0  0  0  0  0  0  1 V2000
  153.1269  143.0089  162.6769 C   0  0  0  0  0  0  0  0  0  0  0  0
  152.5782  143.4495  161.3506 C   0  0  0  0  0  0  0  0  0  0  0  0
  152.2020  144.7641  160.9536 C   0  0  0  0  0  0  0  0  0  0  0  0
  151.7548  144.8180  159.7101 N   0  0  0  0  0  0  0  0  0  0  0  0
  151.8254  143.5435  159.2707 N   0  0  0  0  0  0  0  0  0  0  0  0
  151.4087  143.2211  157.9175 C   0  0  0  0  0  0  0  0  0  0  0  0
  150.1242  142.3776  157.8850 C   0  0  0  0  0  0  0  0  0  0  0  0
  148.9274  143.2119  157.9439 N   0  0  0  0  0  0  0  0  0  0  0  0
  147.7106  142.4634  158.2391 C   0  0  0  0  0  0  0  0  0  0  0  0
  146.7819  143.2638  159.1632 C   0  0  2  0  0  0  0  0  0  0  0  0
  147.5781  144.1346  160.1546 C   0  0  0  0  0  0  0  0  0  0  0  0
  146.6325  144.8481  161.1277 C   0  0  0  0  0  0  0  0  0  0  0  0
  145.7070  143.8250  161.7946 C   0  0  0  0  0  0  0  0  0  0  0  0
  145.0126  142.9599  160.7311 C   0  0  0  0  0  0  0  0  0  0  0  0
  145.9891  142.3364  159.9028 O   0  0  0  0  0  0  0  0  0  0  0  0
  152.3214  142.6971  160.2394 C   0  0  0  0  0  0  0  0  0  0  0  0
  153.0173  143.7826  163.4371 H   0  0  0  0  0  0  0  0  0  0  0  0
  154.1885  142.7698  162.6127 H   0  0  0  0  0  0  0  0  0  0  0  0
  152.6172  142.1200  163.0490 H   0  0  0  0  0  0  0  0  0  0  0  0
  152.2424  145.6768  161.5295 H   0  0  0  0  0  0  0  0  0  0  0  0
  151.2772  144.1424  157.3472 H   0  0  0  0  0  0  0  0  0  0  0  0
  152.2207  142.6728  157.4389 H   0  0  0  0  0  0  0  0  0  0  0  0
  150.1148  141.7894  156.9668 H   0  0  0  0  0  0  0  0  0  0  0  0
  150.1276  141.6638  158.7097 H   0  0  0  0  0  0  0  0  0  0  0  0
  148.8146  143.7155  157.0694 H   0  0  0  0  0  0  0  0  0  0  0  0
  147.1848  142.2082  157.3183 H   0  0  0  0  0  0  0  0  0  0  0  0
  147.9767  141.5208  158.7191 H   0  0  0  0  0  0  0  0  0  0  0  0
  146.1352  143.9044  158.5603 H   0  0  0  0  0  0  0  0  0  0  0  0
  148.2748  143.5103  160.7155 H   0  0  0  0  0  0  0  0  0  0  0  0
  148.1794  144.8682  159.6168 H   0  0  0  0  0  0  0  0  0  0  0  0
  147.2013  145.3944  161.8805 H   0  0  0  0  0  0  0  0  0  0  0  0
  146.0368  145.5849  160.5874 H   0  0  0  0  0  0  0  0  0  0  0  0
  146.2869  143.1856  162.4612 H   0  0  0  0  0  0  0  0  0  0  0  0
  144.9660  144.3322  162.4130 H   0  0  0  0  0  0  0  0  0  0  0  0
  144.4127  142.1864  161.2105 H   0  0  0  0  0  0  0  0  0  0  0  0
  144.3330  143.5591  160.1236 H   0  0  0  0  0  0  0  0  0  0  0  0
  152.4474  141.6395  160.0598 H   0  0  0  0  0  0  0  0  0  0  0  0
  1  2  1  0  0  0  0
  1 17  1  0  0  0  0
  1 18  1  0  0  0  0
  1 19  1  0  0  0  0
  2 16  2  0  0  0  0
  2  3  1  0  0  0  0
  3  4  2  0  0  0  0
  3 20  1  0  0  0  0
  4  5  1  0  0  0  0
  5  6  1  0  0  0  0
  5 16  1  0  0  0  0
  6  7  1  0  0  0  0
  6 21  1  0  0  0  0
  6 22  1  0  0  0  0
  7  8  1  0  0  0  0
  7 23  1  0  0  0  0
  7 24  1  0  0  0  0
  8  9  1  0  0  0  0
  8 25  1  0  0  0  0
  9 10  1  0  0  0  0
  9 26  1  0  0  0  0
  9 27  1  0  0  0  0
 10 15  1  0  0  0  0
 10 11  1  0  0  0  0
 10 28  1  0  0  0  0
 11 12  1  0  0  0  0
 11 29  1  0  0  0  0
 11 30  1  0  0  0  0
 12 13  1  0  0  0  0
 12 31  1  0  0  0  0
 12 32  1  0  0  0  0
 13 14  1  0  0  0  0
 13 33  1  0  0  0  0
 13 34  1  0  0  0  0
 14 15  1  0  0  0  0
 14 35  1  0  0  0  0
 14 36  1  0  0  0  0
 16 37  1  0  0  0  0
M  END
> <s_m_source_file>
AV-unprocessed.smi

> <i_m_source_file_index>
3048

> <i_lp_mmshare_version>
43012

> <i_f3d_flags>
0

> <s_epik_input>
W0NIM11jMVtjSF1ubihbY0hdMSlbQ0gyXVtDSDJdW05IXVtDSDJdW0NAQEhdMltDSDJdW0NIMl1bQ0gyXVtDSDJdTzI=

> <s_epik_cmdline>
J2VwaWtfcHl0aG9uJywgJy1waCcsICc3LjAnLCAnLXRuJywgJzgnLCAnLW1hJywgJzIwMCcsICctbWV0YWxfYmluZGluZycsICctaW1hZScsICc8aW5maWxlLm1hZT4nLCAnLW9tYWUnLCAnPG91dGZpbGUubWFlPic=

> <r_lp_tautomer_probability>
1

> <r_epik_Ionization_Penalty>
2.52229

> <r_epik_Ionization_Penalty_Charging>
0

> <r_epik_Ionization_Penalty_Neutral>
2.52229

> <r_epik_State_Penalty>
2.68614

> <r_epik_Charging_Adjusted_Penalty>
2.68614

> <i_epik_Tot_Q>
0

> <i_epik_Tot_abs_Q>
0

> <r_epik_Metal_State_Penalty>
2.68365

> <b_epik_Metal_Only>
0

> <s_lp_Force_Field>
OPLS_2005

> <r_lp_Energy>
12.7025

> <b_lp_Chiralities_Consistent>
1

> <s_lp_Variant>
AV-unprocessed.smi:3048-3

> <Gold.Version>
5.8.1

> <Gold.Id.Protein>
6NUR|6NUR_protein|mol2

> <Gold.PLP.Fitness>
43.5597

> <Gold.PLP.PLP>
-39.3651

> <Gold.PLP.part.hbond>
-3.0000

> <Gold.PLP.part.metal>
0.0000

> <Gold.PLP.part.buried>
-6.4348

> <Gold.PLP.part.nonpolar>
-29.8091

> <Gold.PLP.part.repulsive>
0.0695

> <Gold.PLP.ligand.clash>
0.0211

> <Gold.PLP.ligand.torsion>
0.8412

> <Gold.PLP.Chemscore.Hbond>
1.9500

> <Gold.PLP.Chemscore.CHOScore>
0.0000

> <Gold.PLP.Chemscore.Metal>
0.0000

> <Gold.Chemscore.Hbonds>
donor molecule, donor type, donor heavy atom, donor atom, acceptor molecule, acceptor atom, score
      L1  H     8    25       P1  8028  0.95
      P1  H  6934  6946       L1    15  1.00

> <Gold.PLP.Chemscore.Internal.Correction>
0.0482

> <Gold.Rescore>
     Score         DG    S(hbond)    S(metal)    S(lipo)     H(rot)  DE(clash)    DE(int)     intcor
     16.13     -17.11       1.64        0.00      86.41       1.54       0.07       0.91       ----

> <Gold.Chemscore.Fitness>
16.1264

> <Gold.Chemscore.DG>
-17.1058

> <Gold.Chemscore.ZeroCoef>
-5.4800

> <Gold.Chemscore.Hbond>
1.6351

> <Gold.Chemscore.Metal>
0.0000

> <Gold.Chemscore.Lipo>
86.4085

> <Gold.Chemscore.Internal_Hbond>
0.0000

> <Gold.Chemscore.DEClash>
0.0727

> <Gold.Chemscore.DEInternal>
0.9066

> <Gold.Chemscore.Rot>
1.5411

> <Gold.Chemscore.Internal.Correction>
   9.000000E+99

> <Gold.Chemscore.Hbonds>
donor molecule, donor type, donor heavy atom, donor atom, acceptor molecule, acceptor atom, score
      L1  H     8    25       P1  8028  0.22
      P1  H  6934  6946       L1    15  0.85

> <Gold.Chemscore.Hbond.Weighted>
-5.4611

> <Gold.Chemscore.Metal.Weighted>
-0.0000

> <Gold.Chemscore.Lipo.Weighted>
-10.1098

> <Gold.Chemscore.Internal_Hbond.Weighted>
0.0000

> <Gold.Chemscore.DEClash.Weighted>
0.0727

> <Gold.Chemscore.DEInternal.Weighted>
0.9066

> <Gold.Chemscore.Rot.Weighted>
3.9452

> <Gold.Chemscore.Internal.Correction.Weighted>
   9.000000E+99

> <Gold.Protein.RotatedTorsions>
[ 6907 6896 6895 6894 ] final   -9.04 input  -60.11 | X-H torsion
[ 7974 7965 7964 7962 ] final  144.29 input  175.53 | X-H torsion
[ 8008 7997 7996 7995 ] final  172.82 input   59.86 | X-H torsion
[ 10167 10162 10161 10158 ] final -128.81 input  -65.29 | X-H torsion
[ 10718 10713 10712 10709 ] final  106.90 input   66.30 | X-H torsion
[ 10763 10752 10751 10750 ] final  156.29 input  -60.55 | X-H torsion
[ 11005 11000 10999 10996 ] final -155.38 input  -57.11 | X-H torsion

> <Gold.Protein.ActiveResidues>
 VAL166  LYS551  ARG553  GLY616  TRP617  ASP618  TYR619  PRO620  LYS621  CYS622 
 ASP623  PHE694  ASN695  SER759  ASP760  ASP761  ALA762  ILE779  LEU786  VAL792 
 PHE793  MET794  SER795  GLU796  ALA797  LYS798  CYS799  TRP800  GLU811  SER814 

> <Gold.Protein.RotatedAtoms>
  151.4240  135.1001  159.9622 H   0  0  0  0  0  0  0  0  0  0  0  0  # atno 6907 bound_to 6896
  152.4979  133.8680  159.7294 H   0  0  0  0  0  0  0  0  0  0  0  0  # atno 6908 bound_to 6896
  150.9202  133.6831  159.2861 H   0  0  0  0  0  0  0  0  0  0  0  0  # atno 6909 bound_to 6896
  144.8848  139.5645  143.5826 H   0  0  0  0  0  0  0  0  0  0  0  0  # atno 7974 bound_to 7965
  156.1137  140.1476  156.9303 H   0  0  0  0  0  0  0  0  0  0  0  0  # atno 8008 bound_to 7997
  154.4785  140.0887  156.7363 H   0  0  0  0  0  0  0  0  0  0  0  0  # atno 8009 bound_to 7997
  155.4552  140.3436  155.4308 H   0  0  0  0  0  0  0  0  0  0  0  0  # atno 8010 bound_to 7997
  139.9464  143.6105  152.2488 H   0  0  0  0  0  0  0  0  0  0  0  0  # atno 10167 bound_to 10162
  157.6650  131.0861  150.6076 H   0  0  0  0  0  0  0  0  0  0  0  0  # atno 10718 bound_to 10713
  154.1819  135.2799  155.3049 H   0  0  0  0  0  0  0  0  0  0  0  0  # atno 10763 bound_to 10752
  154.5996  135.5534  153.7364 H   0  0  0  0  0  0  0  0  0  0  0  0  # atno 10764 bound_to 10752
  153.0135  135.6388  154.1958 H   0  0  0  0  0  0  0  0  0  0  0  0  # atno 10765 bound_to 10752
  140.6871  134.4082  157.5222 H   0  0  0  0  0  0  0  0  0  0  0  0  # atno 11005 bound_to 11000
  146.3017  139.7449  142.9086 LP  0  0  0  0  0  0  0  0  0  0  0  0  # atno 17320 bound_to 7965
  145.3889  141.0369  143.3135 LP  0  0  0  0  0  0  0  0  0  0  0  0  # atno 17321 bound_to 7965
  139.6663  144.7662  151.1867 LP  0  0  0  0  0  0  0  0  0  0  0  0  # atno 17342 bound_to 10162
  140.7596  143.5933  150.8774 LP  0  0  0  0  0  0  0  0  0  0  0  0  # atno 17343 bound_to 10162
  156.6377  130.4450  149.5763 LP  0  0  0  0  0  0  0  0  0  0  0  0  # atno 17370 bound_to 10713
  156.2233  130.6750  151.1390 LP  0  0  0  0  0  0  0  0  0  0  0  0  # atno 17371 bound_to 10713
  139.8934  134.8730  156.2223 LP  0  0  0  0  0  0  0  0  0  0  0  0  # atno 17394 bound_to 11000
  141.0271  133.7009  156.1367 LP  0  0  0  0  0  0  0  0  0  0  0  0  # atno 17395 bound_to 11000

$$$$
