AV-unprocessed.smi:1341|AV-procd|sdf|5505|dock3
  -GOLD-   22720 5 83D 1   1.00000     0.00000
 Structure written by MMmdl.
 34 35  0  0  0  0  0  0  0  0  1 V2000
  154.8054  137.2084  163.5514 C   0  0  0  0  0  0  0  0  0  0  0  0
  154.3117  137.3088  162.3082 C   0  0  0  0  0  0  0  0  0  0  0  0
  154.9923  138.0457  161.1713 C   0  0  0  0  0  0  0  0  0  0  0  0
  154.1401  139.0952  160.6269 N   0  0  0  0  0  0  0  0  0  0  0  0
  154.2125  140.3980  160.9468 C   0  0  0  0  0  0  0  0  0  0  0  0
  155.0279  140.8580  161.7465 O   0  0  0  0  0  0  0  0  0  0  0  0
  153.2380  141.2833  160.2221 C   0  0  0  0  0  0  0  0  0  0  0  0
  152.8262  140.8724  158.9987 N   0  0  0  0  0  0  0  0  0  0  0  0
  151.9307  141.6173  158.3383 C   0  0  0  0  0  0  0  0  0  0  0  0
  151.5263  141.1732  157.0726 N   0  0  0  0  0  0  0  0  0  0  0  0
  150.6647  141.9803  156.2046 C   0  0  0  0  0  0  0  0  0  0  0  0
  149.7700  141.0820  155.3341 C   0  0  0  0  0  0  0  0  0  0  0  0
  150.5742  140.1664  154.6008 O   0  0  0  0  0  0  0  0  0  0  0  0
  151.3073  139.3071  155.4648 C   0  0  0  0  0  0  0  0  0  0  0  0
  152.2606  140.1379  156.3406 C   0  0  0  0  0  0  0  0  0  0  0  0
  151.3965  142.7548  158.7988 N   0  0  0  0  0  0  0  0  0  0  0  0
  151.7865  143.1841  160.0169 C   0  0  0  0  0  0  0  0  0  0  0  0
  152.7231  142.4749  160.7930 C   0  0  0  0  0  0  0  0  0  0  0  0
  153.2018  143.0872  162.3390 Cl  0  0  0  0  0  0  0  0  0  0  0  0
  155.7456  137.6665  163.8213 H   0  0  0  0  0  0  0  0  0  0  0  0
  154.2724  136.6643  164.3171 H   0  0  0  0  0  0  0  0  0  0  0  0
  153.3697  136.8327  162.0769 H   0  0  0  0  0  0  0  0  0  0  0  0
  155.9219  138.4961  161.5209 H   0  0  0  0  0  0  0  0  0  0  0  0
  155.2607  137.3324  160.3906 H   0  0  0  0  0  0  0  0  0  0  0  0
  153.4387  138.8152  159.9563 H   0  0  0  0  0  0  0  0  0  0  0  0
  150.0223  142.6535  156.7712 H   0  0  0  0  0  0  0  0  0  0  0  0
  151.2960  142.6048  155.5717 H   0  0  0  0  0  0  0  0  0  0  0  0
  149.0482  140.5407  155.9480 H   0  0  0  0  0  0  0  0  0  0  0  0
  149.1980  141.6900  154.6333 H   0  0  0  0  0  0  0  0  0  0  0  0
  150.6233  138.7215  156.0815 H   0  0  0  0  0  0  0  0  0  0  0  0
  151.8752  138.5990  154.8611 H   0  0  0  0  0  0  0  0  0  0  0  0
  153.0159  140.6195  155.7185 H   0  0  0  0  0  0  0  0  0  0  0  0
  152.7886  139.4580  157.0084 H   0  0  0  0  0  0  0  0  0  0  0  0
  151.3486  144.1048  160.3730 H   0  0  0  0  0  0  0  0  0  0  0  0
  1  2  2  0  0  0  0
  1 20  1  0  0  0  0
  1 21  1  0  0  0  0
  2  3  1  0  0  0  0
  2 22  1  0  0  0  0
  3  4  1  0  0  0  0
  3 23  1  0  0  0  0
  3 24  1  0  0  0  0
  4  5  1  0  0  0  0
  4 25  1  0  0  0  0
  5  6  2  0  0  0  0
  5  7  1  0  0  0  0
  7 18  1  0  0  0  0
  7  8  2  0  0  0  0
  8  9  1  0  0  0  0
  9 10  1  0  0  0  0
  9 16  2  0  0  0  0
 10 15  1  0  0  0  0
 10 11  1  0  0  0  0
 11 12  1  0  0  0  0
 11 26  1  0  0  0  0
 11 27  1  0  0  0  0
 12 13  1  0  0  0  0
 12 28  1  0  0  0  0
 12 29  1  0  0  0  0
 13 14  1  0  0  0  0
 14 15  1  0  0  0  0
 14 30  1  0  0  0  0
 14 31  1  0  0  0  0
 15 32  1  0  0  0  0
 15 33  1  0  0  0  0
 16 17  1  0  0  0  0
 17 18  2  0  0  0  0
 17 34  1  0  0  0  0
 18 19  1  0  0  0  0
M  END
> <s_m_source_file>
AV-unprocessed.smi

> <i_m_source_file_index>
1341

> <i_lp_mmshare_version>
43012

> <i_f3d_flags>
0

> <s_epik_input>
W0NIMl09W0NIXVtDSDJdW05IXUMoPU8pYzFuYyhuW2NIXWMxQ2wpTjJbQ0gyXVtDSDJdT1tDSDJdW0NIMl0y

> <s_epik_cmdline>
J2VwaWtfcHl0aG9uJywgJy1waCcsICc3LjAnLCAnLXRuJywgJzgnLCAnLW1hJywgJzIwMCcsICctbWV0YWxfYmluZGluZycsICctaW1hZScsICc8aW5maWxlLm1hZT4nLCAnLW9tYWUnLCAnPG91dGZpbGUubWFlPic=

> <r_lp_tautomer_probability>
1

> <r_epik_Ionization_Penalty>
2.38615e-05

> <r_epik_Ionization_Penalty_Charging>
0

> <r_epik_Ionization_Penalty_Neutral>
2.38615e-05

> <r_epik_State_Penalty>
-0

> <r_epik_Charging_Adjusted_Penalty>
0

> <i_epik_Tot_Q>
0

> <i_epik_Tot_abs_Q>
0

> <r_epik_Metal_State_Penalty>
0.0225026

> <b_epik_Metal_Only>
0

> <s_lp_Force_Field>
OPLS_2005

> <r_lp_Energy>
14.7295

> <b_lp_Chiralities_Consistent>
1

> <s_lp_Variant>
AV-unprocessed.smi:1341-1

> <Gold.Version>
5.8.1

> <Gold.Id.Protein>
6NUR|6NUR_protein|mol2

> <Gold.PLP.Fitness>
43.4757

> <Gold.PLP.PLP>
-41.5166

> <Gold.PLP.part.hbond>
-1.8491

> <Gold.PLP.part.metal>
0.0000

> <Gold.PLP.part.buried>
-5.3472

> <Gold.PLP.part.nonpolar>
-33.9548

> <Gold.PLP.part.repulsive>
0.1410

> <Gold.PLP.ligand.clash>
0.0000

> <Gold.PLP.ligand.torsion>
0.5766

> <Gold.PLP.Chemscore.Hbond>
1.0000

> <Gold.PLP.Chemscore.CHOScore>
0.0000

> <Gold.PLP.Chemscore.Metal>
0.0000

> <Gold.Chemscore.Hbonds>
donor molecule, donor type, donor heavy atom, donor atom, acceptor molecule, acceptor atom, score
      P1  H  7989  7998       L1    13  1.00

> <Gold.PLP.Chemscore.Internal.Correction>
0.1123

> <Gold.Rescore>
     Score         DG    S(hbond)    S(metal)    S(lipo)     H(rot)  DE(clash)    DE(int)     intcor
     15.00     -16.91       0.92        0.00      96.90       1.16       0.15       1.76       ----

> <Gold.Chemscore.Fitness>
15.0027

> <Gold.Chemscore.DG>
-16.9109

> <Gold.Chemscore.ZeroCoef>
-5.4800

> <Gold.Chemscore.Hbond>
0.9202

> <Gold.Chemscore.Metal>
0.0000

> <Gold.Chemscore.Lipo>
96.9023

> <Gold.Chemscore.Internal_Hbond>
0.0000

> <Gold.Chemscore.DEClash>
0.1476

> <Gold.Chemscore.DEInternal>
1.7606

> <Gold.Chemscore.Rot>
1.1641

> <Gold.Chemscore.Internal.Correction>
   9.000000E+99

> <Gold.Chemscore.Hbonds>
donor molecule, donor type, donor heavy atom, donor atom, acceptor molecule, acceptor atom, score
      P1  H  7989  7998       L1    13  0.67

> <Gold.Chemscore.Hbond.Weighted>
-3.0735

> <Gold.Chemscore.Metal.Weighted>
-0.0000

> <Gold.Chemscore.Lipo.Weighted>
-11.3376

> <Gold.Chemscore.Internal_Hbond.Weighted>
0.0000

> <Gold.Chemscore.DEClash.Weighted>
0.1476

> <Gold.Chemscore.DEInternal.Weighted>
1.7606

> <Gold.Chemscore.Rot.Weighted>
2.9802

> <Gold.Chemscore.Internal.Correction.Weighted>
   9.000000E+99

> <Gold.Protein.RotatedTorsions>
[ 6907 6896 6895 6894 ] final  -82.03 input  -60.11 | X-H torsion
[ 7974 7965 7964 7962 ] final  -21.60 input  175.53 | X-H torsion
[ 8008 7997 7996 7995 ] final  107.68 input   59.86 | X-H torsion
[ 10167 10162 10161 10158 ] final -141.54 input  -65.29 | X-H torsion
[ 10718 10713 10712 10709 ] final  -87.30 input   66.30 | X-H torsion
[ 10763 10752 10751 10750 ] final -108.57 input  -60.55 | X-H torsion
[ 11005 11000 10999 10996 ] final  -95.65 input  -57.11 | X-H torsion

> <Gold.Protein.ActiveResidues>
 VAL166  LYS551  ARG553  GLY616  TRP617  ASP618  TYR619  PRO620  LYS621  CYS622 
 ASP623  PHE694  ASN695  SER759  ASP760  ASP761  ALA762  ILE779  LEU786  VAL792 
 PHE793  MET794  SER795  GLU796  ALA797  LYS798  CYS799  TRP800  GLU811  SER814 

> <Gold.Protein.RotatedAtoms>
  150.6903  134.3726  159.4998 H   0  0  0  0  0  0  0  0  0  0  0  0  # atno 6907 bound_to 6896
  152.1540  134.8963  160.0555 H   0  0  0  0  0  0  0  0  0  0  0  0  # atno 6908 bound_to 6896
  152.0050  133.3805  159.4233 H   0  0  0  0  0  0  0  0  0  0  0  0  # atno 6909 bound_to 6896
  146.1723  140.4364  142.8527 H   0  0  0  0  0  0  0  0  0  0  0  0  # atno 7974 bound_to 7965
  156.1843  140.3090  155.9208 H   0  0  0  0  0  0  0  0  0  0  0  0  # atno 8008 bound_to 7997
  155.3315  140.0461  157.3059 H   0  0  0  0  0  0  0  0  0  0  0  0  # atno 8009 bound_to 7997
  154.5378  140.2251  155.8703 H   0  0  0  0  0  0  0  0  0  0  0  0  # atno 8010 bound_to 7997
  139.8175  143.7619  152.2665 H   0  0  0  0  0  0  0  0  0  0  0  0  # atno 10167 bound_to 10162
  155.9986  130.4795  150.4846 H   0  0  0  0  0  0  0  0  0  0  0  0  # atno 10718 bound_to 10713
  154.8143  135.4633  154.0601 H   0  0  0  0  0  0  0  0  0  0  0  0  # atno 10763 bound_to 10752
  153.2006  135.6868  153.8243 H   0  0  0  0  0  0  0  0  0  0  0  0  # atno 10764 bound_to 10752
  153.7729  135.3267  155.3331 H   0  0  0  0  0  0  0  0  0  0  0  0  # atno 10765 bound_to 10752
  141.1435  133.8041  157.0464 H   0  0  0  0  0  0  0  0  0  0  0  0  # atno 11005 bound_to 11000
  144.8182  140.6505  143.6370 LP  0  0  0  0  0  0  0  0  0  0  0  0  # atno 17320 bound_to 7965
  145.4306  139.1550  143.4024 LP  0  0  0  0  0  0  0  0  0  0  0  0  # atno 17321 bound_to 7965
  139.7787  144.7452  151.0119 LP  0  0  0  0  0  0  0  0  0  0  0  0  # atno 17342 bound_to 10162
  140.7815  143.4565  151.0338 LP  0  0  0  0  0  0  0  0  0  0  0  0  # atno 17343 bound_to 10162
  157.2847  131.0614  151.2174 LP  0  0  0  0  0  0  0  0  0  0  0  0  # atno 17370 bound_to 10713
  157.3208  130.6936  149.6268 LP  0  0  0  0  0  0  0  0  0  0  0  0  # atno 17371 bound_to 10713
  140.0660  134.9729  157.1386 LP  0  0  0  0  0  0  0  0  0  0  0  0  # atno 17394 bound_to 11000
  140.3779  134.2318  155.7173 LP  0  0  0  0  0  0  0  0  0  0  0  0  # atno 17395 bound_to 11000

$$$$
