AV-unprocessed.smi:470|AV-procd|sdf|2657|dock6
  -GOLD-   2262023 73D 1   1.00000     0.00000
 Structure written by MMmdl.
 32 33  0  0  0  0  0  0  0  0  2 V2000
  144.8828  141.2081  154.9246 N   0  0  0  0  0  0  0  0  0  0  0  0
  146.2149  141.2958  154.9853 C   0  0  0  0  0  0  0  0  0  0  0  0
  146.9032  141.5239  153.9925 O   0  0  0  0  0  0  0  0  0  0  0  0
  146.8689  141.1134  156.3574 C   0  0  0  0  0  0  0  0  0  0  0  0
  148.3640  141.0729  156.2272 C   0  0  0  0  0  0  0  0  0  0  0  0
  149.0997  140.2657  155.3986 C   0  0  0  0  0  0  0  0  0  0  0  0
  150.8078  140.5416  155.5822 S   0  0  0  0  0  0  0  0  0  0  0  0
  150.4693  141.7558  156.8171 C   0  0  0  0  0  0  0  0  0  0  0  0
  151.3995  142.4679  157.4761 N   0  5  0  0  0  0  0  0  0  0  0  0
  151.2138  143.0417  158.6993 C   0  0  0  0  0  0  0  0  0  0  0  0
  150.1567  143.0083  159.3262 O   0  0  0  0  0  0  0  0  0  0  0  0
  152.4305  143.7879  159.3255 C   0  0  1  0  0  0  0  0  0  0  0  0
  152.0474  144.5301  160.6305 C   0  0  0  0  0  0  0  0  0  0  0  0
  152.0847  143.6442  161.8631 C   0  0  0  0  0  0  0  0  0  0  0  0
  152.7311  142.4681  161.9149 C   0  0  0  0  0  0  0  0  0  0  0  0
  153.4957  141.8763  160.7458 C   0  0  0  0  0  0  0  0  0  0  0  0
  153.6534  142.8672  159.5707 C   0  0  0  0  0  0  0  0  0  0  0  0
  149.1553  141.9252  157.0024 N   0  0  0  0  0  0  0  0  0  0  0  0
  144.4119  141.3020  154.0369 H   0  0  0  0  0  0  0  0  0  0  0  0
  144.3540  141.0279  155.7663 H   0  0  0  0  0  0  0  0  0  0  0  0
  146.5657  141.9297  157.0141 H   0  0  0  0  0  0  0  0  0  0  0  0
  146.4921  140.1965  156.8125 H   0  0  0  0  0  0  0  0  0  0  0  0
  148.7425  139.5264  154.6976 H   0  0  0  0  0  0  0  0  0  0  0  0
  152.7954  144.5335  158.6209 H   0  0  0  0  0  0  0  0  0  0  0  0
  152.7237  145.3690  160.7956 H   0  0  0  0  0  0  0  0  0  0  0  0
  151.0471  144.9556  160.5528 H   0  0  0  0  0  0  0  0  0  0  0  0
  151.5740  144.0131  162.7404 H   0  0  0  0  0  0  0  0  0  0  0  0
  152.7128  141.8876  162.8253 H   0  0  0  0  0  0  0  0  0  0  0  0
  154.4791  141.5551  161.0894 H   0  0  0  0  0  0  0  0  0  0  0  0
  152.9759  140.9743  160.4235 H   0  0  0  0  0  0  0  0  0  0  0  0
  153.9074  142.3213  158.6611 H   0  0  0  0  0  0  0  0  0  0  0  0
  154.5137  143.5050  159.7771 H   0  0  0  0  0  0  0  0  0  0  0  0
  1  2  1  0  0  0  0
  1 19  1  0  0  0  0
  1 20  1  0  0  0  0
  2  3  2  0  0  0  0
  2  4  1  0  0  0  0
  4  5  1  0  0  0  0
  4 21  1  0  0  0  0
  4 22  1  0  0  0  0
  5 18  1  0  0  0  0
  5  6  2  0  0  0  0
  6  7  1  0  0  0  0
  6 23  1  0  0  0  0
  7  8  1  0  0  0  0
  8  9  1  0  0  0  0
  8 18  2  0  0  0  0
  9 10  1  0  0  0  0
 10 11  2  0  0  0  0
 10 12  1  0  0  0  0
 12 17  1  0  0  0  0
 12 13  1  0  0  0  0
 12 24  1  0  0  0  0
 13 14  1  0  0  0  0
 13 25  1  0  0  0  0
 13 26  1  0  0  0  0
 14 15  2  0  0  0  0
 14 27  1  0  0  0  0
 15 16  1  0  0  0  0
 15 28  1  0  0  0  0
 16 17  1  0  0  0  0
 16 29  1  0  0  0  0
 16 30  1  0  0  0  0
 17 31  1  0  0  0  0
 17 32  1  0  0  0  0
M  CHG  1   9  -1
M  END
> <s_m_source_file>
AV-unprocessed.smi

> <i_m_source_file_index>
470

> <i_lp_mmshare_version>
43012

> <i_f3d_flags>
0

> <s_epik_input>
W05IMl1DKD1PKVtDSDJdYzFbY0hdc2MobjEpW05IXUMoPU8pW0NAQEhdMltDSDJdW0NIXT1bQ0hdW0NIMl1bQ0gyXTI=

> <s_epik_cmdline>
J2VwaWtfcHl0aG9uJywgJy1waCcsICc3LjAnLCAnLXRuJywgJzgnLCAnLW1hJywgJzIwMCcsICctbWV0YWxfYmluZGluZycsICctaW1hZScsICc8aW5maWxlLm1hZT4nLCAnLW9tYWUnLCAnPG91dGZpbGUubWFlPic=

> <r_lp_tautomer_probability>
1

> <r_epik_Ionization_Penalty>
4.98985

> <r_epik_Ionization_Penalty_Charging>
4.63309

> <r_epik_Ionization_Penalty_Neutral>
0.356756

> <r_epik_State_Penalty>
4.63286

> <r_epik_Charging_Adjusted_Penalty>
9.26595

> <i_epik_Tot_Q>
-1

> <i_epik_Tot_abs_Q>
1

> <r_epik_Metal_State_Penalty>
0.88943

> <b_epik_Metal_Only>
1

> <s_lp_Force_Field>
OPLS_2005

> <r_lp_Energy>
8.68361

> <b_lp_Chiralities_Consistent>
1

> <s_lp_Variant>
AV-unprocessed.smi:470-4

> <Gold.Version>
5.8.1

> <Gold.Id.Protein>
6NUR|6NUR_protein|mol2

> <Gold.PLP.Fitness>
39.1429

> <Gold.PLP.PLP>
-36.6743

> <Gold.PLP.part.hbond>
-1.4973

> <Gold.PLP.part.metal>
0.0000

> <Gold.PLP.part.buried>
-4.4670

> <Gold.PLP.part.nonpolar>
-30.9440

> <Gold.PLP.part.repulsive>
1.1758

> <Gold.PLP.ligand.clash>
0.0000

> <Gold.PLP.ligand.torsion>
0.2793

> <Gold.PLP.Chemscore.Hbond>
0.9920

> <Gold.PLP.Chemscore.CHOScore>
0.0000

> <Gold.PLP.Chemscore.Metal>
0.0000

> <Gold.Chemscore.Hbonds>
donor molecule, donor type, donor heavy atom, donor atom, acceptor molecule, acceptor atom, score
      L1  H     1    19       P1 10175  1.00

> <Gold.PLP.Chemscore.Internal.Correction>
0.0512

> <Gold.Rescore>
     Score         DG    S(hbond)    S(metal)    S(lipo)     H(rot)  DE(clash)    DE(int)     intcor
     11.48     -14.77       1.00        0.00      91.84       1.87       0.09       3.20       ----

> <Gold.Chemscore.Fitness>
11.4797

> <Gold.Chemscore.DG>
-14.7716

> <Gold.Chemscore.ZeroCoef>
-5.4800

> <Gold.Chemscore.Hbond>
0.9972

> <Gold.Chemscore.Metal>
0.0000

> <Gold.Chemscore.Lipo>
91.8402

> <Gold.Chemscore.Internal_Hbond>
0.0000

> <Gold.Chemscore.DEClash>
0.0926

> <Gold.Chemscore.DEInternal>
3.1993

> <Gold.Chemscore.Rot>
1.8689

> <Gold.Chemscore.Internal.Correction>
   9.000000E+99

> <Gold.Chemscore.Hbonds>
donor molecule, donor type, donor heavy atom, donor atom, acceptor molecule, acceptor atom, score
      L1  H     1    19       P1 10175  0.47

> <Gold.Chemscore.Hbond.Weighted>
-3.3307

> <Gold.Chemscore.Metal.Weighted>
-0.0000

> <Gold.Chemscore.Lipo.Weighted>
-10.7453

> <Gold.Chemscore.Internal_Hbond.Weighted>
0.0000

> <Gold.Chemscore.DEClash.Weighted>
0.0926

> <Gold.Chemscore.DEInternal.Weighted>
3.1993

> <Gold.Chemscore.Rot.Weighted>
4.7844

> <Gold.Chemscore.Internal.Correction.Weighted>
   9.000000E+99

> <Gold.Protein.RotatedTorsions>
[ 6907 6896 6895 6894 ] final  158.83 input  -60.11 | X-H torsion
[ 7974 7965 7964 7962 ] final   95.51 input  175.53 | X-H torsion
[ 8008 7997 7996 7995 ] final   59.09 input   59.86 | X-H torsion
[ 10167 10162 10161 10158 ] final   -1.32 input  -65.29 | X-H torsion
[ 10718 10713 10712 10709 ] final -147.79 input   66.30 | X-H torsion
[ 10763 10752 10751 10750 ] final  -77.14 input  -60.55 | X-H torsion
[ 11005 11000 10999 10996 ] final -100.53 input  -57.11 | X-H torsion

> <Gold.Protein.ActiveResidues>
 VAL166  LYS551  ARG553  GLY616  TRP617  ASP618  TYR619  PRO620  LYS621  CYS622 
 ASP623  PHE694  ASN695  SER759  ASP760  ASP761  ALA762  ILE779  LEU786  VAL792 
 PHE793  MET794  SER795  GLU796  ALA797  LYS798  CYS799  TRP800  GLU811  SER814 

> <Gold.Protein.RotatedAtoms>
  151.9946  133.3803  159.4157 H   0  0  0  0  0  0  0  0  0  0  0  0  # atno 6907 bound_to 6896
  150.6917  134.3900  159.5081 H   0  0  0  0  0  0  0  0  0  0  0  0  # atno 6908 bound_to 6896
  152.1638  134.8890  160.0590 H   0  0  0  0  0  0  0  0  0  0  0  0  # atno 6909 bound_to 6896
  145.4512  139.2293  143.3039 H   0  0  0  0  0  0  0  0  0  0  0  0  # atno 7974 bound_to 7965
  155.5606  140.3488  155.4490 H   0  0  0  0  0  0  0  0  0  0  0  0  # atno 8008 bound_to 7997
  156.0517  140.1319  157.0068 H   0  0  0  0  0  0  0  0  0  0  0  0  # atno 8009 bound_to 7997
  154.4437  140.1003  156.6371 H   0  0  0  0  0  0  0  0  0  0  0  0  # atno 8010 bound_to 7997
  140.6805  143.6789  150.8122 H   0  0  0  0  0  0  0  0  0  0  0  0  # atno 10167 bound_to 10162
  156.4120  130.7986  151.2204 H   0  0  0  0  0  0  0  0  0  0  0  0  # atno 10718 bound_to 10713
  154.5091  135.5774  153.6590 H   0  0  0  0  0  0  0  0  0  0  0  0  # atno 10763 bound_to 10752
  152.9893  135.6154  154.2903 H   0  0  0  0  0  0  0  0  0  0  0  0  # atno 10764 bound_to 10752
  154.2816  135.2851  155.2674 H   0  0  0  0  0  0  0  0  0  0  0  0  # atno 10765 bound_to 10752
  141.1267  133.8406  157.1115 H   0  0  0  0  0  0  0  0  0  0  0  0  # atno 11005 bound_to 11000
  146.2503  140.5271  142.8896 LP  0  0  0  0  0  0  0  0  0  0  0  0  # atno 17320 bound_to 7965
  144.8060  140.6301  143.6446 LP  0  0  0  0  0  0  0  0  0  0  0  0  # atno 17321 bound_to 7965
  140.0489  143.5270  152.2683 LP  0  0  0  0  0  0  0  0  0  0  0  0  # atno 17342 bound_to 10162
  139.6124  144.7612  151.2921 LP  0  0  0  0  0  0  0  0  0  0  0  0  # atno 17343 bound_to 10162
  157.7507  131.0254  150.3920 LP  0  0  0  0  0  0  0  0  0  0  0  0  # atno 17370 bound_to 10713
  156.4220  130.3955  149.6819 LP  0  0  0  0  0  0  0  0  0  0  0  0  # atno 17371 bound_to 10713
  140.0272  134.9918  157.0709 LP  0  0  0  0  0  0  0  0  0  0  0  0  # atno 17394 bound_to 11000
  140.4343  134.1747  155.7170 LP  0  0  0  0  0  0  0  0  0  0  0  0  # atno 17395 bound_to 11000

$$$$
