AV-unprocessed.smi:2371|AV-procd|sdf|9436|dock3
  -GOLD-   2272013 63D 1   1.00000     0.00000
 Structure written by MMmdl.
 35 36  0  0  0  0  0  0  0  0  1 V2000
  150.6603  140.4059  155.4879 C   0  0  0  0  0  0  0  0  0  0  0  0
  149.4303  140.3506  154.6937 N   0  0  0  0  0  0  0  0  0  0  0  0
  148.7119  141.5463  154.5239 C   0  0  0  0  0  0  0  0  0  0  0  0
  147.5756  141.5892  153.8145 C   0  0  0  0  0  0  0  0  0  0  0  0
  147.0938  140.3675  153.2160 C   0  0  0  0  0  0  0  0  0  0  0  0
  147.7760  139.2035  153.3607 C   0  0  0  0  0  0  0  0  0  0  0  0
  147.3738  137.9704  152.8190 N   0  0  0  0  0  0  0  0  0  0  0  0
  146.1479  137.4165  152.7801 C   0  0  0  0  0  0  0  0  0  0  0  0
  145.1130  137.9270  153.2078 O   0  0  0  0  0  0  0  0  0  0  0  0
  146.1846  136.2188  152.1796 N   0  0  0  0  0  0  0  0  0  0  0  0
  145.0329  135.3549  151.9393 C   0  0  0  0  0  0  0  0  0  0  0  0
  145.3501  134.2513  150.9155 C   0  0  2  0  0  0  0  0  0  0  0  0
  144.1548  133.4000  150.4850 C   0  0  0  0  0  0  0  0  0  0  0  0
  144.8347  132.1266  150.0385 C   0  0  0  0  0  0  0  0  0  0  0  0
  145.9518  131.9943  151.0695 C   0  0  0  0  0  0  0  0  0  0  0  0
  146.2825  133.3236  151.4651 O   0  0  0  0  0  0  0  0  0  0  0  0
  149.0196  139.1640  154.1550 C   0  0  0  0  0  0  0  0  0  0  0  0
  149.6640  138.1269  154.3303 O   0  0  0  0  0  0  0  0  0  0  0  0
  150.9035  141.4165  155.8177 H   0  0  0  0  0  0  0  0  0  0  0  0
  151.5101  140.0427  154.9079 H   0  0  0  0  0  0  0  0  0  0  0  0
  150.5665  139.7847  156.3798 H   0  0  0  0  0  0  0  0  0  0  0  0
  149.1369  142.4165  155.0023 H   0  0  0  0  0  0  0  0  0  0  0  0
  147.0336  142.5154  153.6927 H   0  0  0  0  0  0  0  0  0  0  0  0
  146.1669  140.4200  152.6683 H   0  0  0  0  0  0  0  0  0  0  0  0
  148.1115  137.4553  152.3604 H   0  0  0  0  0  0  0  0  0  0  0  0
  147.0781  135.8799  151.8538 H   0  0  0  0  0  0  0  0  0  0  0  0
  144.7604  134.8978  152.8907 H   0  0  0  0  0  0  0  0  0  0  0  0
  144.1642  135.9341  151.6216 H   0  0  0  0  0  0  0  0  0  0  0  0
  145.8140  134.6888  150.0300 H   0  0  0  0  0  0  0  0  0  0  0  0
  143.5017  133.1937  151.3343 H   0  0  0  0  0  0  0  0  0  0  0  0
  143.5595  133.8661  149.6995 H   0  0  0  0  0  0  0  0  0  0  0  0
  144.1665  131.2652  150.0188 H   0  0  0  0  0  0  0  0  0  0  0  0
  145.2558  132.2572  149.0407 H   0  0  0  0  0  0  0  0  0  0  0  0
  145.5980  131.4518  151.9470 H   0  0  0  0  0  0  0  0  0  0  0  0
  146.8208  131.4680  150.6743 H   0  0  0  0  0  0  0  0  0  0  0  0
  1  2  1  0  0  0  0
  1 19  1  0  0  0  0
  1 20  1  0  0  0  0
  1 21  1  0  0  0  0
  2 17  1  0  0  0  0
  2  3  1  0  0  0  0
  3  4  2  0  0  0  0
  3 22  1  0  0  0  0
  4  5  1  0  0  0  0
  4 23  1  0  0  0  0
  5  6  2  0  0  0  0
  5 24  1  0  0  0  0
  6  7  1  0  0  0  0
  6 17  1  0  0  0  0
  7  8  1  0  0  0  0
  7 25  1  0  0  0  0
  8  9  2  0  0  0  0
  8 10  1  0  0  0  0
 10 11  1  0  0  0  0
 10 26  1  0  0  0  0
 11 12  1  0  0  0  0
 11 27  1  0  0  0  0
 11 28  1  0  0  0  0
 12 16  1  0  0  0  0
 12 13  1  0  0  0  0
 12 29  1  0  0  0  0
 13 14  1  0  0  0  0
 13 30  1  0  0  0  0
 13 31  1  0  0  0  0
 14 15  1  0  0  0  0
 14 32  1  0  0  0  0
 14 33  1  0  0  0  0
 15 16  1  0  0  0  0
 15 34  1  0  0  0  0
 15 35  1  0  0  0  0
 17 18  2  0  0  0  0
M  END
> <s_m_source_file>
AV-unprocessed.smi

> <i_m_source_file_index>
2371

> <i_lp_mmshare_version>
43012

> <i_f3d_flags>
0

> <s_epik_input>
W0NIM11uMVtjSF1bY0hdW2NIXWMoYzE9TylbTkhdQyg9TylbTkhdW0NIMl1bQ0BASF0yW0NIMl1bQ0gyXVtDSDJdTzI=

> <s_epik_cmdline>
J2VwaWtfcHl0aG9uJywgJy1waCcsICc3LjAnLCAnLXRuJywgJzgnLCAnLW1hJywgJzIwMCcsICctbWV0YWxfYmluZGluZycsICctaW1hZScsICc8aW5maWxlLm1hZT4nLCAnLW9tYWUnLCAnPG91dGZpbGUubWFlPic=

> <r_lp_tautomer_probability>
1

> <r_epik_Ionization_Penalty>
2.36512e-05

> <r_epik_Ionization_Penalty_Charging>
4.84074e-06

> <r_epik_Ionization_Penalty_Neutral>
1.88105e-05

> <r_epik_State_Penalty>
-0

> <r_epik_Charging_Adjusted_Penalty>
4.84074e-06

> <i_epik_Tot_Q>
0

> <i_epik_Tot_abs_Q>
0

> <r_epik_Metal_State_Penalty>
-0

> <b_epik_Metal_Only>
0

> <s_lp_Force_Field>
OPLS_2005

> <r_lp_Energy>
29.8245

> <b_lp_Chiralities_Consistent>
1

> <s_lp_Variant>
AV-unprocessed.smi:2371-1

> <Gold.Version>
5.8.1

> <Gold.Id.Protein>
6NUR|6NUR_protein|mol2

> <Gold.PLP.Fitness>
40.7800

> <Gold.PLP.PLP>
-33.0455

> <Gold.PLP.part.hbond>
-1.9847

> <Gold.PLP.part.metal>
0.0000

> <Gold.PLP.part.buried>
-3.2872

> <Gold.PLP.part.nonpolar>
-29.7808

> <Gold.PLP.part.repulsive>
1.5722

> <Gold.PLP.ligand.clash>
0.0000

> <Gold.PLP.ligand.torsion>
0.4799

> <Gold.PLP.Chemscore.Hbond>
1.8960

> <Gold.PLP.Chemscore.CHOScore>
1.0000

> <Gold.PLP.Chemscore.Metal>
0.0000

> <Gold.Chemscore.Hbonds>
donor molecule, donor type, donor heavy atom, donor atom, acceptor molecule, acceptor atom, score
      L1  H     7    25       P1  7948  1.00
      L1  H    10    26       P1  7948  0.90
      L1  C     3    22       P1  8028  1.00

> <Gold.PLP.Chemscore.Internal.Correction>
0.0063

> <Gold.Rescore>
     Score         DG    S(hbond)    S(metal)    S(lipo)     H(rot)  DE(clash)    DE(int)     intcor
     16.18     -16.66       1.94        0.00      67.52       1.25       0.01       0.47       ----

> <Gold.Chemscore.Fitness>
16.1773

> <Gold.Chemscore.DG>
-16.6598

> <Gold.Chemscore.ZeroCoef>
-5.4800

> <Gold.Chemscore.Hbond>
1.9386

> <Gold.Chemscore.Metal>
0.0000

> <Gold.Chemscore.Lipo>
67.5155

> <Gold.Chemscore.Internal_Hbond>
0.0000

> <Gold.Chemscore.DEClash>
0.0137

> <Gold.Chemscore.DEInternal>
0.4689

> <Gold.Chemscore.Rot>
1.2478

> <Gold.Chemscore.Internal.Correction>
   9.000000E+99

> <Gold.Chemscore.Hbonds>
donor molecule, donor type, donor heavy atom, donor atom, acceptor molecule, acceptor atom, score
      L1  H     7    25       P1  7948  0.95
      L1  H    10    26       P1  7948  0.88

> <Gold.Chemscore.Hbond.Weighted>
-6.4750

> <Gold.Chemscore.Metal.Weighted>
-0.0000

> <Gold.Chemscore.Lipo.Weighted>
-7.8993

> <Gold.Chemscore.Internal_Hbond.Weighted>
0.0000

> <Gold.Chemscore.DEClash.Weighted>
0.0137

> <Gold.Chemscore.DEInternal.Weighted>
0.4689

> <Gold.Chemscore.Rot.Weighted>
3.1944

> <Gold.Chemscore.Internal.Correction.Weighted>
   9.000000E+99

> <Gold.Protein.RotatedTorsions>
[ 6907 6896 6895 6894 ] final   78.22 input  -60.11 | X-H torsion
[ 7974 7965 7964 7962 ] final   51.56 input  175.53 | X-H torsion
[ 8008 7997 7996 7995 ] final -125.24 input   59.86 | X-H torsion
[ 10167 10162 10161 10158 ] final  128.27 input  -65.29 | X-H torsion
[ 10718 10713 10712 10709 ] final  158.97 input   66.30 | X-H torsion
[ 10763 10752 10751 10750 ] final -175.21 input  -60.55 | X-H torsion
[ 11005 11000 10999 10996 ] final  -98.45 input  -57.11 | X-H torsion

> <Gold.Protein.ActiveResidues>
 VAL166  LYS551  ARG553  GLY616  TRP617  ASP618  TYR619  PRO620  LYS621  CYS622 
 ASP623  PHE694  ASN695  SER759  ASP760  ASP761  ALA762  ILE779  LEU786  VAL792 
 PHE793  MET794  SER795  GLU796  ALA797  LYS798  CYS799  TRP800  GLU811  SER814 

> <Gold.Protein.RotatedAtoms>
  152.5150  134.3697  159.9313 H   0  0  0  0  0  0  0  0  0  0  0  0  # atno 6907 bound_to 6896
  151.3651  133.3869  159.2701 H   0  0  0  0  0  0  0  0  0  0  0  0  # atno 6908 bound_to 6896
  150.9621  134.9027  159.7795 H   0  0  0  0  0  0  0  0  0  0  0  0  # atno 6909 bound_to 6896
  145.9901  139.4331  143.0078 H   0  0  0  0  0  0  0  0  0  0  0  0  # atno 7974 bound_to 7965
  155.2100  140.0418  157.2932 H   0  0  0  0  0  0  0  0  0  0  0  0  # atno 8008 bound_to 7997
  154.6018  140.2454  155.7754 H   0  0  0  0  0  0  0  0  0  0  0  0  # atno 8009 bound_to 7997
  156.2325  140.2933  156.0236 H   0  0  0  0  0  0  0  0  0  0  0  0  # atno 8010 bound_to 7997
  139.5536  144.6832  151.4250 H   0  0  0  0  0  0  0  0  0  0  0  0  # atno 10167 bound_to 10162
  157.1705  131.0609  151.2185 H   0  0  0  0  0  0  0  0  0  0  0  0  # atno 10718 bound_to 10713
  154.5871  135.2841  155.0673 H   0  0  0  0  0  0  0  0  0  0  0  0  # atno 10763 bound_to 10752
  154.1987  135.6428  153.5084 H   0  0  0  0  0  0  0  0  0  0  0  0  # atno 10764 bound_to 10752
  153.0108  135.5464  154.6545 H   0  0  0  0  0  0  0  0  0  0  0  0  # atno 10765 bound_to 10752
  141.1344  133.8246  157.0841 H   0  0  0  0  0  0  0  0  0  0  0  0  # atno 11005 bound_to 11000
  145.7642  140.9923  143.1184 LP  0  0  0  0  0  0  0  0  0  0  0  0  # atno 17320 bound_to 7965
  144.6886  139.9367  143.7473 LP  0  0  0  0  0  0  0  0  0  0  0  0  # atno 17321 bound_to 7965
  140.6804  143.8095  150.7114 LP  0  0  0  0  0  0  0  0  0  0  0  0  # atno 17342 bound_to 10162
  140.1546  143.4328  152.2108 LP  0  0  0  0  0  0  0  0  0  0  0  0  # atno 17343 bound_to 10162
  157.4047  130.7352  149.6794 LP  0  0  0  0  0  0  0  0  0  0  0  0  # atno 17370 bound_to 10713
  155.9739  130.4111  150.3965 LP  0  0  0  0  0  0  0  0  0  0  0  0  # atno 17371 bound_to 10713
  140.0433  134.9843  157.1003 LP  0  0  0  0  0  0  0  0  0  0  0  0  # atno 17394 bound_to 11000
  140.4101  134.1990  155.7163 LP  0  0  0  0  0  0  0  0  0  0  0  0  # atno 17395 bound_to 11000

$$$$
