AV-unprocessed.smi:2467|AV-procd|sdf|9725|dock9
  -GOLD-   2272013363D 1   1.00000     0.00000
 Structure written by MMmdl.
 46 47  0  0  0  0  0  0  0  0  1 V2000
  151.6842  138.1975  154.7468 C   0  0  0  0  0  0  0  0  0  0  0  0
  150.9766  139.4385  155.3131 C   0  0  0  0  0  0  0  0  0  0  0  0
  149.8310  139.9942  154.4301 C   0  0  0  0  0  0  0  0  0  0  0  0
  149.4110  141.4151  154.8851 C   0  0  0  0  0  0  0  0  0  0  0  0
  149.0144  141.5187  156.3658 C   0  0  0  0  0  0  0  0  0  0  0  0
  148.6285  139.0155  154.3785 C   0  0  2  0  0  0  0  0  0  0  0  0
  147.4027  139.5428  153.5954 C   0  0  0  0  0  0  0  0  0  0  0  0
  146.2640  138.5103  153.5886 C   0  0  1  0  0  0  0  0  0  0  0  0
  146.6226  137.3782  152.7384 N   0  0  0  0  0  0  0  0  0  0  0  0
  145.7971  136.4151  152.3010 C   0  0  0  0  0  0  0  0  0  0  0  0
  144.5968  136.3954  152.5686 O   0  0  0  0  0  0  0  0  0  0  0  0
  146.3615  135.4486  151.5447 N   0  0  0  0  0  0  0  0  0  0  0  0
  145.8070  134.2914  150.9195 C   0  0  0  0  0  0  0  0  0  0  0  0
  144.4034  134.3310  150.7581 C   0  0  0  0  0  0  0  0  0  0  0  0
  143.7403  133.2462  150.1523 C   0  0  0  0  0  0  0  0  0  0  0  0
  144.4988  132.1441  149.7197 C   0  0  0  0  0  0  0  0  0  0  0  0
  145.8910  132.1806  149.9161 C   0  0  0  0  0  0  0  0  0  0  0  0
  146.5270  133.2197  150.4973 N   0  0  0  0  0  0  0  0  0  0  0  0
  145.9770  138.0635  155.0338 C   0  0  0  0  0  0  0  0  0  0  0  0
  147.2657  137.6262  155.7523 C   0  0  0  0  0  0  0  0  0  0  0  0
  148.2353  138.6683  155.7047 O   0  0  0  0  0  0  0  0  0  0  0  0
  152.5632  137.9544  155.3439 H   0  0  0  0  0  0  0  0  0  0  0  0
  152.0177  138.3646  153.7223 H   0  0  0  0  0  0  0  0  0  0  0  0
  151.0415  137.3181  154.7555 H   0  0  0  0  0  0  0  0  0  0  0  0
  150.6032  139.2200  156.3143 H   0  0  0  0  0  0  0  0  0  0  0  0
  151.7411  140.2027  155.4436 H   0  0  0  0  0  0  0  0  0  0  0  0
  150.2183  140.0788  153.4136 H   0  0  0  0  0  0  0  0  0  0  0  0
  150.2293  142.1154  154.7314 H   0  0  0  0  0  0  0  0  0  0  0  0
  148.5919  141.7778  154.2631 H   0  0  0  0  0  0  0  0  0  0  0  0
  148.8323  142.5578  156.6406 H   0  0  0  0  0  0  0  0  0  0  0  0
  149.8064  141.1415  157.0133 H   0  0  0  0  0  0  0  0  0  0  0  0
  148.1032  140.9648  156.5879 H   0  0  0  0  0  0  0  0  0  0  0  0
  148.9569  138.1078  153.8746 H   0  0  0  0  0  0  0  0  0  0  0  0
  147.0254  140.4590  154.0470 H   0  0  0  0  0  0  0  0  0  0  0  0
  147.6859  139.7989  152.5735 H   0  0  0  0  0  0  0  0  0  0  0  0
  145.3711  138.9806  153.1731 H   0  0  0  0  0  0  0  0  0  0  0  0
  147.5935  137.3108  152.4661 H   0  0  0  0  0  0  0  0  0  0  0  0
  147.3499  135.5739  151.3821 H   0  0  0  0  0  0  0  0  0  0  0  0
  143.8335  135.1851  151.0948 H   0  0  0  0  0  0  0  0  0  0  0  0
  142.6683  133.2614  150.0219 H   0  0  0  0  0  0  0  0  0  0  0  0
  144.0265  131.2940  149.2498 H   0  0  0  0  0  0  0  0  0  0  0  0
  146.5109  131.3556  149.5978 H   0  0  0  0  0  0  0  0  0  0  0  0
  145.5328  138.8951  155.5824 H   0  0  0  0  0  0  0  0  0  0  0  0
  145.2407  137.2593  155.0531 H   0  0  0  0  0  0  0  0  0  0  0  0
  147.0505  137.3960  156.7958 H   0  0  0  0  0  0  0  0  0  0  0  0
  147.6722  136.7168  155.3071 H   0  0  0  0  0  0  0  0  0  0  0  0
  1  2  1  0  0  0  0
  1 22  1  0  0  0  0
  1 23  1  0  0  0  0
  1 24  1  0  0  0  0
  2  3  1  0  0  0  0
  2 25  1  0  0  0  0
  2 26  1  0  0  0  0
  3  4  1  0  0  0  0
  3  6  1  0  0  0  0
  3 27  1  0  0  0  0
  4  5  1  0  0  0  0
  4 28  1  0  0  0  0
  4 29  1  0  0  0  0
  5 30  1  0  0  0  0
  5 31  1  0  0  0  0
  5 32  1  0  0  0  0
  6 21  1  0  0  0  0
  6  7  1  0  0  0  0
  6 33  1  0  0  0  0
  7  8  1  0  0  0  0
  7 34  1  0  0  0  0
  7 35  1  0  0  0  0
  8  9  1  0  0  0  0
  8 19  1  0  0  0  0
  8 36  1  0  0  0  0
  9 10  1  0  0  0  0
  9 37  1  0  0  0  0
 10 11  2  0  0  0  0
 10 12  1  0  0  0  0
 12 13  1  0  0  0  0
 12 38  1  0  0  0  0
 13 18  1  0  0  0  0
 13 14  2  0  0  0  0
 14 15  1  0  0  0  0
 14 39  1  0  0  0  0
 15 16  2  0  0  0  0
 15 40  1  0  0  0  0
 16 17  1  0  0  0  0
 16 41  1  0  0  0  0
 17 18  2  0  0  0  0
 17 42  1  0  0  0  0
 19 20  1  0  0  0  0
 19 43  1  0  0  0  0
 19 44  1  0  0  0  0
 20 21  1  0  0  0  0
 20 45  1  0  0  0  0
 20 46  1  0  0  0  0
M  END
> <s_m_source_file>
AV-unprocessed.smi

> <i_m_source_file_index>
2467

> <i_lp_mmshare_version>
43012

> <i_f3d_flags>
0

> <s_epik_input>
W0NIM11bQ0gyXVtDSF0oW0NIMl1bQ0gzXSlbQ0BASF0xW0NIMl1bQ0BIXShbQ0gyXVtDSDJdTzEpW05IXUMoPU8pW05IXWMyW2NIXVtjSF1bY0hdW2NIXW4y

> <s_epik_cmdline>
J2VwaWtfcHl0aG9uJywgJy1waCcsICc3LjAnLCAnLXRuJywgJzgnLCAnLW1hJywgJzIwMCcsICctbWV0YWxfYmluZGluZycsICctaW1hZScsICc8aW5maWxlLm1hZT4nLCAnLW9tYWUnLCAnPG91dGZpbGUubWFlPic=

> <r_lp_tautomer_probability>
1

> <r_epik_Ionization_Penalty>
4.80427e-05

> <r_epik_Ionization_Penalty_Charging>
0

> <r_epik_Ionization_Penalty_Neutral>
4.80427e-05

> <r_epik_State_Penalty>
-0

> <r_epik_Charging_Adjusted_Penalty>
0

> <i_epik_Tot_Q>
0

> <i_epik_Tot_abs_Q>
0

> <r_epik_Metal_State_Penalty>
-0

> <b_epik_Metal_Only>
0

> <s_lp_Force_Field>
OPLS_2005

> <r_lp_Energy>
18.1019

> <b_lp_Chiralities_Consistent>
1

> <s_lp_Variant>
AV-unprocessed.smi:2467-1

> <Gold.Version>
5.8.1

> <Gold.Id.Protein>
6NUR|6NUR_protein|mol2

> <Gold.PLP.Fitness>
41.8786

> <Gold.PLP.PLP>
-34.1293

> <Gold.PLP.part.hbond>
-2.0000

> <Gold.PLP.part.metal>
0.0000

> <Gold.PLP.part.buried>
-2.0584

> <Gold.PLP.part.nonpolar>
-29.7259

> <Gold.PLP.part.repulsive>
0.4579

> <Gold.PLP.ligand.clash>
0.0000

> <Gold.PLP.ligand.torsion>
0.3930

> <Gold.PLP.Chemscore.Hbond>
1.8960

> <Gold.PLP.Chemscore.CHOScore>
0.9212

> <Gold.PLP.Chemscore.Metal>
0.0000

> <Gold.Chemscore.Hbonds>
donor molecule, donor type, donor heavy atom, donor atom, acceptor molecule, acceptor atom, score
      L1  H     9    37       P1  7948  0.94
      L1  H    12    38       P1  7948  1.00
      L1  C    17    42       P1 10747  0.84

> <Gold.PLP.Chemscore.Internal.Correction>
0.0837

> <Gold.Rescore>
     Score         DG    S(hbond)    S(metal)    S(lipo)     H(rot)  DE(clash)    DE(int)     intcor
     15.58     -17.99       1.90        0.00      85.06       1.49       0.14       2.26       ----

> <Gold.Chemscore.Fitness>
15.5842

> <Gold.Chemscore.DG>
-17.9860

> <Gold.Chemscore.ZeroCoef>
-5.4800

> <Gold.Chemscore.Hbond>
1.9032

> <Gold.Chemscore.Metal>
0.0000

> <Gold.Chemscore.Lipo>
85.0626

> <Gold.Chemscore.Internal_Hbond>
0.0000

> <Gold.Chemscore.DEClash>
0.1390

> <Gold.Chemscore.DEInternal>
2.2629

> <Gold.Chemscore.Rot>
1.4856

> <Gold.Chemscore.Internal.Correction>
   9.000000E+99

> <Gold.Chemscore.Hbonds>
donor molecule, donor type, donor heavy atom, donor atom, acceptor molecule, acceptor atom, score
      L1  H     9    37       P1  7948  0.91
      L1  H    12    38       P1  7948  0.91

> <Gold.Chemscore.Hbond.Weighted>
-6.3568

> <Gold.Chemscore.Metal.Weighted>
-0.0000

> <Gold.Chemscore.Lipo.Weighted>
-9.9523

> <Gold.Chemscore.Internal_Hbond.Weighted>
0.0000

> <Gold.Chemscore.DEClash.Weighted>
0.1390

> <Gold.Chemscore.DEInternal.Weighted>
2.2629

> <Gold.Chemscore.Rot.Weighted>
3.8031

> <Gold.Chemscore.Internal.Correction.Weighted>
   9.000000E+99

> <Gold.Protein.RotatedTorsions>
[ 6907 6896 6895 6894 ] final -106.60 input  -60.11 | X-H torsion
[ 7974 7965 7964 7962 ] final   74.22 input  175.53 | X-H torsion
[ 8008 7997 7996 7995 ] final   46.93 input   59.86 | X-H torsion
[ 10167 10162 10161 10158 ] final  -70.02 input  -65.29 | X-H torsion
[ 10718 10713 10712 10709 ] final   25.23 input   66.30 | X-H torsion
[ 10763 10752 10751 10750 ] final  -26.89 input  -60.55 | X-H torsion
[ 11005 11000 10999 10996 ] final -127.26 input  -57.11 | X-H torsion

> <Gold.Protein.ActiveResidues>
 VAL166  LYS551  ARG553  GLY616  TRP617  ASP618  TYR619  PRO620  LYS621  CYS622 
 ASP623  PHE694  ASN695  SER759  ASP760  ASP761  ALA762  ILE779  LEU786  VAL792 
 PHE793  MET794  SER795  GLU796  ALA797  LYS798  CYS799  TRP800  GLU811  SER814 

> <Gold.Protein.RotatedAtoms>
  150.7398  133.9952  159.3619 H   0  0  0  0  0  0  0  0  0  0  0  0  # atno 6907 bound_to 6896
  151.7902  135.0736  160.0395 H   0  0  0  0  0  0  0  0  0  0  0  0  # atno 6908 bound_to 6896
  152.3213  133.5820  159.5782 H   0  0  0  0  0  0  0  0  0  0  0  0  # atno 6909 bound_to 6896
  145.7310  139.2684  143.1541 H   0  0  0  0  0  0  0  0  0  0  0  0  # atno 7974 bound_to 7965
  155.3606  140.3418  155.4240 H   0  0  0  0  0  0  0  0  0  0  0  0  # atno 8008 bound_to 7997
  156.1716  140.1633  156.8472 H   0  0  0  0  0  0  0  0  0  0  0  0  # atno 8009 bound_to 7997
  154.5239  140.0760  156.8204 H   0  0  0  0  0  0  0  0  0  0  0  0  # atno 8010 bound_to 7997
  140.5385  143.2316  151.7132 H   0  0  0  0  0  0  0  0  0  0  0  0  # atno 10167 bound_to 10162
  157.1905  130.6844  149.6148 H   0  0  0  0  0  0  0  0  0  0  0  0  # atno 10718 bound_to 10713
  153.7232  135.6943  153.5007 H   0  0  0  0  0  0  0  0  0  0  0  0  # atno 10763 bound_to 10752
  153.2188  135.4377  155.0465 H   0  0  0  0  0  0  0  0  0  0  0  0  # atno 10764 bound_to 10752
  154.8277  135.3455  154.6765 H   0  0  0  0  0  0  0  0  0  0  0  0  # atno 10765 bound_to 10752
  140.9614  134.0931  157.3964 H   0  0  0  0  0  0  0  0  0  0  0  0  # atno 11005 bound_to 11000
  146.0538  140.8042  142.9769 LP  0  0  0  0  0  0  0  0  0  0  0  0  # atno 17320 bound_to 7965
  144.6893  140.3092  143.7251 LP  0  0  0  0  0  0  0  0  0  0  0  0  # atno 17321 bound_to 7965
  139.4980  144.4005  152.0186 LP  0  0  0  0  0  0  0  0  0  0  0  0  # atno 17342 bound_to 10162
  140.3112  144.3535  150.6033 LP  0  0  0  0  0  0  0  0  0  0  0  0  # atno 17343 bound_to 10162
  155.9712  130.4616  150.6116 LP  0  0  0  0  0  0  0  0  0  0  0  0  # atno 17370 bound_to 10713
  157.3865  131.0789  151.1431 LP  0  0  0  0  0  0  0  0  0  0  0  0  # atno 17371 bound_to 10713
  139.8879  135.0094  156.6590 LP  0  0  0  0  0  0  0  0  0  0  0  0  # atno 17394 bound_to 11000
  140.7462  133.8936  155.8313 LP  0  0  0  0  0  0  0  0  0  0  0  0  # atno 17395 bound_to 11000

$$$$
