AV-unprocessed.smi:3338|AV-procd|sdf|12869|dock3
  -GOLD-   2272019263D 1   1.00000     0.00000
 Structure written by MMmdl.
 44 45  0  0  0  0  0  0  0  0  2 V2000
  144.6298  133.9432  150.2544 C   0  0  0  0  0  0  0  0  0  0  0  0
  145.3105  134.7363  151.3788 C   0  0  2  0  0  0  0  0  0  0  0  0
  144.5188  134.6395  152.6936 C   0  0  0  0  0  0  0  0  0  0  0  0
  145.2082  135.4605  153.7900 C   0  0  0  0  0  0  0  0  0  0  0  0
  145.4152  136.9152  153.3400 C   0  0  0  0  0  0  0  0  0  0  0  0
  146.1848  136.9795  152.0705 N   0  3  2  0  0  0  0  0  0  0  0  0
  146.5132  138.3753  151.6860 C   0  0  0  0  0  0  0  0  0  0  0  0
  146.7797  139.2767  152.9075 C   0  0  0  0  0  0  0  0  0  0  0  0
  148.2048  139.3593  153.2027 N   0  0  0  0  0  0  0  0  0  0  0  0
  148.7912  138.8686  154.3069 C   0  0  0  0  0  0  0  0  0  0  0  0
  148.1689  138.2565  155.1762 O   0  0  0  0  0  0  0  0  0  0  0  0
  150.3042  139.1151  154.4427 C   0  0  2  0  0  0  0  0  0  0  0  0
  151.1350  137.8169  154.3991 C   0  0  0  0  0  0  0  0  0  0  0  0
  150.5952  139.8969  155.6397 N   0  0  0  0  0  0  0  0  0  0  0  0
  151.8252  140.3248  156.0967 C   0  0  0  0  0  0  0  0  0  0  0  0
  151.6124  141.0404  157.2399 C   0  0  0  0  0  0  0  0  0  0  0  0
  150.2004  140.9988  157.4067 C   0  0  0  0  0  0  0  0  0  0  0  0
  149.5942  140.3193  156.4472 N   0  0  0  0  0  0  0  0  0  0  0  0
  145.5138  136.2136  150.9855 C   0  0  0  0  0  0  0  0  0  0  0  0
  143.6357  134.3350  150.0370 H   0  0  0  0  0  0  0  0  0  0  0  0
  144.5211  132.8926  150.5251 H   0  0  0  0  0  0  0  0  0  0  0  0
  145.2131  133.9864  149.3340 H   0  0  0  0  0  0  0  0  0  0  0  0
  146.2940  134.2932  151.5432 H   0  0  0  0  0  0  0  0  0  0  0  0
  143.5021  135.0065  152.5452 H   0  0  0  0  0  0  0  0  0  0  0  0
  144.4321  133.5990  153.0087 H   0  0  0  0  0  0  0  0  0  0  0  0
  144.6140  135.4339  154.7038 H   0  0  0  0  0  0  0  0  0  0  0  0
  146.1718  135.0111  154.0342 H   0  0  0  0  0  0  0  0  0  0  0  0
  144.4519  137.4110  153.2089 H   0  0  0  0  0  0  0  0  0  0  0  0
  145.9469  137.4566  154.1236 H   0  0  0  0  0  0  0  0  0  0  0  0
  147.3649  138.3822  151.0040 H   0  0  0  0  0  0  0  0  0  0  0  0
  145.6734  138.7939  151.1293 H   0  0  0  0  0  0  0  0  0  0  0  0
  146.3739  140.2764  152.7425 H   0  0  0  0  0  0  0  0  0  0  0  0
  146.2887  138.8846  153.7973 H   0  0  0  0  0  0  0  0  0  0  0  0
  148.7850  139.8451  152.5337 H   0  0  0  0  0  0  0  0  0  0  0  0
  150.6016  139.7183  153.5833 H   0  0  0  0  0  0  0  0  0  0  0  0
  150.9605  137.2671  153.4737 H   0  0  0  0  0  0  0  0  0  0  0  0
  150.8966  137.1519  155.2303 H   0  0  0  0  0  0  0  0  0  0  0  0
  152.2017  138.0374  154.4496 H   0  0  0  0  0  0  0  0  0  0  0  0
  152.7410  140.0873  155.5759 H   0  0  0  0  0  0  0  0  0  0  0  0
  152.3529  141.5202  157.8630 H   0  0  0  0  0  0  0  0  0  0  0  0
  149.6020  141.4410  158.1894 H   0  0  0  0  0  0  0  0  0  0  0  0
  146.1101  136.2558  150.0747 H   0  0  0  0  0  0  0  0  0  0  0  0
  144.5538  136.6782  150.7539 H   0  0  0  0  0  0  0  0  0  0  0  0
  147.0655  136.5209  152.2554 H   0  0  0  0  0  0  0  0  0  0  0  0
  1  2  1  0  0  0  0
  1 20  1  0  0  0  0
  1 21  1  0  0  0  0
  1 22  1  0  0  0  0
  2 19  1  0  0  0  0
  2  3  1  0  0  0  0
  2 23  1  0  0  0  0
  3  4  1  0  0  0  0
  3 24  1  0  0  0  0
  3 25  1  0  0  0  0
  4  5  1  0  0  0  0
  4 26  1  0  0  0  0
  4 27  1  0  0  0  0
  5  6  1  0  0  0  0
  5 28  1  0  0  0  0
  5 29  1  0  0  0  0
  6  7  1  0  0  0  0
  6 19  1  0  0  0  0
  6 44  1  0  0  0  0
  7  8  1  0  0  0  0
  7 30  1  0  0  0  0
  7 31  1  0  0  0  0
  8  9  1  0  0  0  0
  8 32  1  0  0  0  0
  8 33  1  0  0  0  0
  9 10  1  0  0  0  0
  9 34  1  0  0  0  0
 10 11  2  0  0  0  0
 10 12  1  0  0  0  0
 12 13  1  0  0  0  0
 12 14  1  0  0  0  0
 12 35  1  0  0  0  0
 13 36  1  0  0  0  0
 13 37  1  0  0  0  0
 13 38  1  0  0  0  0
 14 18  1  0  0  0  0
 14 15  1  0  0  0  0
 15 16  2  0  0  0  0
 15 39  1  0  0  0  0
 16 17  1  0  0  0  0
 16 40  1  0  0  0  0
 17 18  2  0  0  0  0
 17 41  1  0  0  0  0
 19 42  1  0  0  0  0
 19 43  1  0  0  0  0
M  CHG  1   6   1
M  END
> <s_m_source_file>
AV-unprocessed.smi

> <i_m_source_file_index>
3338

> <i_lp_mmshare_version>
43012

> <i_f3d_flags>
0

> <s_epik_input>
W0NIM11bQ0BASF0xW0NIMl1bQ0gyXVtDSDJdTihbQ0gyXTEpW0NIMl1bQ0gyXVtOSF1DKD1PKVtDQEhdKFtDSDNdKW4yW2NIXVtjSF1bY0hdbjI=

> <s_epik_cmdline>
J2VwaWtfcHl0aG9uJywgJy1waCcsICc3LjAnLCAnLXRuJywgJzgnLCAnLW1hJywgJzIwMCcsICctbWV0YWxfYmluZGluZycsICctaW1hZScsICc8aW5maWxlLm1hZT4nLCAnLW9tYWUnLCAnPG91dGZpbGUubWFlPic=

> <r_lp_tautomer_probability>
1

> <r_epik_Ionization_Penalty>
0.00225707

> <r_epik_Ionization_Penalty_Charging>
0.00223709

> <r_epik_Ionization_Penalty_Neutral>
1.99775e-05

> <r_epik_State_Penalty>
0.00153978

> <r_epik_Charging_Adjusted_Penalty>
0.00377687

> <i_epik_Tot_Q>
1

> <i_epik_Tot_abs_Q>
1

> <r_epik_Metal_State_Penalty>
-0

> <b_epik_Metal_Only>
0

> <s_lp_Force_Field>
OPLS_2005

> <r_lp_Energy>
19.7834

> <b_lp_Chiralities_Consistent>
1

> <s_lp_Variant>
AV-unprocessed.smi:3338-1

> <Gold.Version>
5.8.1

> <Gold.Id.Protein>
6NUR|6NUR_protein|mol2

> <Gold.PLP.Fitness>
41.4069

> <Gold.PLP.PLP>
-33.4249

> <Gold.PLP.part.hbond>
-1.8431

> <Gold.PLP.part.metal>
0.0000

> <Gold.PLP.part.buried>
-2.8438

> <Gold.PLP.part.nonpolar>
-29.0433

> <Gold.PLP.part.repulsive>
0.2485

> <Gold.PLP.ligand.clash>
0.0000

> <Gold.PLP.ligand.torsion>
0.5614

> <Gold.PLP.Chemscore.Hbond>
2.9913

> <Gold.PLP.Chemscore.CHOScore>
0.0000

> <Gold.PLP.Chemscore.Metal>
0.0000

> <Gold.Chemscore.Hbonds>
donor molecule, donor type, donor heavy atom, donor atom, acceptor molecule, acceptor atom, score
      L1  H     6    44       P1  7948  2.00
      L1  H     9    34       P1  7957  1.00

> <Gold.PLP.Chemscore.Internal.Correction>
0.1310

> <Gold.Rescore>
     Score         DG    S(hbond)    S(metal)    S(lipo)     H(rot)  DE(clash)    DE(int)     intcor
     14.58     -16.64       1.95        0.00      78.10       1.76       0.02       2.04       ----

> <Gold.Chemscore.Fitness>
14.5770

> <Gold.Chemscore.DG>
-16.6376

> <Gold.Chemscore.ZeroCoef>
-5.4800

> <Gold.Chemscore.Hbond>
1.9515

> <Gold.Chemscore.Metal>
0.0000

> <Gold.Chemscore.Lipo>
78.0985

> <Gold.Chemscore.Internal_Hbond>
0.0000

> <Gold.Chemscore.DEClash>
0.0187

> <Gold.Chemscore.DEInternal>
2.0419

> <Gold.Chemscore.Rot>
1.7570

> <Gold.Chemscore.Internal.Correction>
   9.000000E+99

> <Gold.Chemscore.Hbonds>
donor molecule, donor type, donor heavy atom, donor atom, acceptor molecule, acceptor atom, score
      L1  H     6    44       P1  7948  0.94
      L1  H     9    34       P1  7957  0.97

> <Gold.Chemscore.Hbond.Weighted>
-6.5179

> <Gold.Chemscore.Metal.Weighted>
-0.0000

> <Gold.Chemscore.Lipo.Weighted>
-9.1375

> <Gold.Chemscore.Internal_Hbond.Weighted>
0.0000

> <Gold.Chemscore.DEClash.Weighted>
0.0187

> <Gold.Chemscore.DEInternal.Weighted>
2.0419

> <Gold.Chemscore.Rot.Weighted>
4.4979

> <Gold.Chemscore.Internal.Correction.Weighted>
   9.000000E+99

> <Gold.Protein.RotatedTorsions>
[ 6907 6896 6895 6894 ] final  122.44 input  -60.11 | X-H torsion
[ 7974 7965 7964 7962 ] final  -77.40 input  175.53 | X-H torsion
[ 8008 7997 7996 7995 ] final  152.33 input   59.86 | X-H torsion
[ 10167 10162 10161 10158 ] final  143.18 input  -65.29 | X-H torsion
[ 10718 10713 10712 10709 ] final   96.18 input   66.30 | X-H torsion
[ 10763 10752 10751 10750 ] final  177.45 input  -60.55 | X-H torsion
[ 11005 11000 10999 10996 ] final   90.83 input  -57.11 | X-H torsion

> <Gold.Protein.ActiveResidues>
 VAL166  LYS551  ARG553  GLY616  TRP617  ASP618  TYR619  PRO620  LYS621  CYS622 
 ASP623  PHE694  ASN695  SER759  ASP760  ASP761  ALA762  ILE779  LEU786  VAL792 
 PHE793  MET794  SER795  GLU796  ALA797  LYS798  CYS799  TRP800  GLU811  SER814 

> <Gold.Protein.RotatedAtoms>
  152.4243  133.7168  159.6510 H   0  0  0  0  0  0  0  0  0  0  0  0  # atno 6907 bound_to 6896
  150.8119  133.8396  159.3184 H   0  0  0  0  0  0  0  0  0  0  0  0  # atno 6908 bound_to 6896
  151.6103  135.1043  160.0131 H   0  0  0  0  0  0  0  0  0  0  0  0  # atno 6909 bound_to 6896
  145.6002  140.9410  143.1245 H   0  0  0  0  0  0  0  0  0  0  0  0  # atno 7974 bound_to 7965
  156.2634  140.2023  156.6316 H   0  0  0  0  0  0  0  0  0  0  0  0  # atno 8008 bound_to 7997
  154.6678  140.0553  157.0157 H   0  0  0  0  0  0  0  0  0  0  0  0  # atno 8009 bound_to 7997
  155.1181  140.3222  155.4507 H   0  0  0  0  0  0  0  0  0  0  0  0  # atno 8010 bound_to 7997
  139.4976  144.6058  151.6382 H   0  0  0  0  0  0  0  0  0  0  0  0  # atno 10167 bound_to 10162
  157.6930  131.0570  150.4453 H   0  0  0  0  0  0  0  0  0  0  0  0  # atno 10718 bound_to 10713
  154.4947  135.2780  155.1469 H   0  0  0  0  0  0  0  0  0  0  0  0  # atno 10763 bound_to 10752
  154.3127  135.6226  153.5476 H   0  0  0  0  0  0  0  0  0  0  0  0  # atno 10764 bound_to 10752
  152.9893  135.5723  154.5376 H   0  0  0  0  0  0  0  0  0  0  0  0  # atno 10765 bound_to 10752
  139.8849  134.8637  156.3341 H   0  0  0  0  0  0  0  0  0  0  0  0  # atno 11005 bound_to 11000
  144.7313  139.7717  143.7346 LP  0  0  0  0  0  0  0  0  0  0  0  0  # atno 17320 bound_to 7965
  146.1582  139.4686  143.0005 LP  0  0  0  0  0  0  0  0  0  0  0  0  # atno 17321 bound_to 7965
  140.5719  144.0094  150.6221 LP  0  0  0  0  0  0  0  0  0  0  0  0  # atno 17342 bound_to 10162
  140.3214  143.3134  152.0780 LP  0  0  0  0  0  0  0  0  0  0  0  0  # atno 17343 bound_to 10162
  156.4808  130.4073  149.6463 LP  0  0  0  0  0  0  0  0  0  0  0  0  # atno 17370 bound_to 10713
  156.3509  130.7431  151.2390 LP  0  0  0  0  0  0  0  0  0  0  0  0  # atno 17371 bound_to 10713
  140.9703  133.7332  156.0525 LP  0  0  0  0  0  0  0  0  0  0  0  0  # atno 17394 bound_to 11000
  140.7879  134.3651  157.5472 LP  0  0  0  0  0  0  0  0  0  0  0  0  # atno 17395 bound_to 11000

$$$$
