AV-unprocessed.smi:1565|AV-procd|sdf|6300|dock3
  -GOLD-   22720 6503D 1   1.00000     0.00000
 Structure written by MMmdl.
 39 40  0  0  0  0  0  0  0  0  2 V2000
  149.8914  141.7519  157.1176 C   0  0  0  0  0  0  0  0  0  0  0  0
  151.0830  142.4717  157.7580 C   0  0  2  0  0  0  0  0  0  0  0  0
  151.5604  141.7624  159.0375 C   0  0  0  0  0  0  0  0  0  0  0  0
  152.6095  142.5411  159.6871 N   0  0  0  0  0  0  0  0  0  0  0  0
  153.3540  141.8574  160.6719 C   0  0  0  0  0  0  0  0  0  0  0  0
  153.4547  142.3873  161.9793 C   0  0  0  0  0  0  0  0  0  0  0  0
  154.2052  141.6921  162.9469 C   0  0  0  0  0  0  0  0  0  0  0  0
  154.8315  140.4759  162.5917 C   0  0  0  0  0  0  0  0  0  0  0  0
  155.6740  139.6947  163.5639 C   0  0  0  0  0  0  0  0  0  0  0  0
  156.0250  140.2563  164.6076 O   0  0  0  0  0  0  0  0  0  0  0  0
  155.9780  138.4479  163.1044 N   0  5  0  0  0  0  0  0  0  0  0  0
  156.0156  137.2473  163.9430 C   0  0  0  0  0  0  0  0  0  0  0  0
  154.8364  136.3059  163.6242 C   0  0  0  0  0  0  0  0  0  0  0  0
  153.6972  136.9032  163.9743 F   0  0  0  0  0  0  0  0  0  0  0  0
  154.7863  136.0371  162.3186 F   0  0  0  0  0  0  0  0  0  0  0  0
  154.9364  135.1624  164.3036 F   0  0  0  0  0  0  0  0  0  0  0  0
  154.6789  140.0321  161.2605 C   0  0  0  0  0  0  0  0  0  0  0  0
  153.9592  140.6940  160.3291 N   0  0  0  0  0  0  0  0  0  0  0  0
  152.2153  143.9214  159.9595 C   0  0  0  0  0  0  0  0  0  0  0  0
  151.6881  144.6081  158.6844 C   0  0  1  0  0  0  0  0  0  0  0  0
  152.7997  144.9998  157.6943 C   0  0  0  0  0  0  0  0  0  0  0  0
  150.6778  143.8038  158.0714 O   0  0  0  0  0  0  0  0  0  0  0  0
  150.1504  140.7279  156.8474 H   0  0  0  0  0  0  0  0  0  0  0  0
  149.5696  142.2634  156.2100 H   0  0  0  0  0  0  0  0  0  0  0  0
  149.0405  141.7143  157.7983 H   0  0  0  0  0  0  0  0  0  0  0  0
  151.8935  142.4950  157.0293 H   0  0  0  0  0  0  0  0  0  0  0  0
  150.7302  141.6469  159.7356 H   0  0  0  0  0  0  0  0  0  0  0  0
  151.9002  140.7592  158.7839 H   0  0  0  0  0  0  0  0  0  0  0  0
  152.9597  143.3069  162.2537 H   0  0  0  0  0  0  0  0  0  0  0  0
  154.2929  142.0977  163.9445 H   0  0  0  0  0  0  0  0  0  0  0  0
  156.9520  136.6974  163.8345 H   0  0  0  0  0  0  0  0  0  0  0  0
  155.9687  137.5181  164.9984 H   0  0  0  0  0  0  0  0  0  0  0  0
  155.1415  139.1149  160.9257 H   0  0  0  0  0  0  0  0  0  0  0  0
  151.4354  143.9178  160.7225 H   0  0  0  0  0  0  0  0  0  0  0  0
  153.0559  144.4888  160.3610 H   0  0  0  0  0  0  0  0  0  0  0  0
  151.1970  145.5337  158.9863 H   0  0  0  0  0  0  0  0  0  0  0  0
  153.4814  145.7205  158.1464 H   0  0  0  0  0  0  0  0  0  0  0  0
  152.3795  145.4597  156.7998 H   0  0  0  0  0  0  0  0  0  0  0  0
  153.3974  144.1436  157.3825 H   0  0  0  0  0  0  0  0  0  0  0  0
  1  2  1  0  0  0  0
  1 23  1  0  0  0  0
  1 24  1  0  0  0  0
  1 25  1  0  0  0  0
  2 22  1  0  0  0  0
  2  3  1  0  0  0  0
  2 26  1  0  0  0  0
  3  4  1  0  0  0  0
  3 27  1  0  0  0  0
  3 28  1  0  0  0  0
  4  5  1  0  0  0  0
  4 19  1  0  0  0  0
  5 18  1  0  0  0  0
  5  6  2  0  0  0  0
  6  7  1  0  0  0  0
  6 29  1  0  0  0  0
  7  8  2  0  0  0  0
  7 30  1  0  0  0  0
  8  9  1  0  0  0  0
  8 17  1  0  0  0  0
  9 10  2  0  0  0  0
  9 11  1  0  0  0  0
 11 12  1  0  0  0  0
 12 13  1  0  0  0  0
 12 31  1  0  0  0  0
 12 32  1  0  0  0  0
 13 14  1  0  0  0  0
 13 15  1  0  0  0  0
 13 16  1  0  0  0  0
 17 18  2  0  0  0  0
 17 33  1  0  0  0  0
 19 20  1  0  0  0  0
 19 34  1  0  0  0  0
 19 35  1  0  0  0  0
 20 21  1  0  0  0  0
 20 22  1  0  0  0  0
 20 36  1  0  0  0  0
 21 37  1  0  0  0  0
 21 38  1  0  0  0  0
 21 39  1  0  0  0  0
M  CHG  1  11  -1
M  END
> <s_m_source_file>
AV-unprocessed.smi

> <i_m_source_file_index>
1565

> <i_lp_mmshare_version>
43012

> <i_f3d_flags>
0

> <s_epik_input>
W0NIM11bQ0BASF0xW0NIMl1OKFtDSDJdW0NASF0oTzEpW0NIM10pYzJbY0hdW2NIXWMoW2NIXW4yKUMoPU8pW05IXVtDSDJdQyhGKShGKUY=

> <s_epik_cmdline>
J2VwaWtfcHl0aG9uJywgJy1waCcsICc3LjAnLCAnLXRuJywgJzgnLCAnLW1hJywgJzIwMCcsICctbWV0YWxfYmluZGluZycsICctaW1hZScsICc8aW5maWxlLm1hZT4nLCAnLW9tYWUnLCAnPG91dGZpbGUubWFlPic=

> <r_lp_tautomer_probability>
1

> <r_epik_Ionization_Penalty>
6.78525

> <r_epik_Ionization_Penalty_Charging>
6.78469

> <r_epik_Ionization_Penalty_Neutral>
0.000559052

> <r_epik_State_Penalty>
6.78469

> <r_epik_Charging_Adjusted_Penalty>
13.5694

> <i_epik_Tot_Q>
-1

> <i_epik_Tot_abs_Q>
1

> <r_epik_Metal_State_Penalty>
2.70441

> <b_epik_Metal_Only>
1

> <s_lp_Force_Field>
OPLS_2005

> <r_lp_Energy>
29.3636

> <b_lp_Chiralities_Consistent>
1

> <s_lp_Variant>
AV-unprocessed.smi:1565-4

> <Gold.Version>
5.8.1

> <Gold.Id.Protein>
6NUR|6NUR_protein|mol2

> <Gold.PLP.Fitness>
44.5819

> <Gold.PLP.PLP>
-45.5724

> <Gold.PLP.part.hbond>
0.0000

> <Gold.PLP.part.metal>
0.0000

> <Gold.PLP.part.buried>
-4.9801

> <Gold.PLP.part.nonpolar>
-39.8189

> <Gold.PLP.part.repulsive>
0.2610

> <Gold.PLP.ligand.clash>
0.0000

> <Gold.PLP.ligand.torsion>
0.6639

> <Gold.PLP.Chemscore.Hbond>
0.0000

> <Gold.PLP.Chemscore.CHOScore>
0.0000

> <Gold.PLP.Chemscore.Metal>
0.0000

> <Gold.PLP.Chemscore.Internal.Correction>
0.3374

> <Gold.Rescore>
     Score         DG    S(hbond)    S(metal)    S(lipo)     H(rot)  DE(clash)    DE(int)     intcor
     14.62     -15.58       0.00        0.00     114.59       1.29       0.24       0.72       ----

> <Gold.Chemscore.Fitness>
14.6195

> <Gold.Chemscore.DG>
-15.5792

> <Gold.Chemscore.ZeroCoef>
-5.4800

> <Gold.Chemscore.Hbond>
0.0000

> <Gold.Chemscore.Metal>
0.0000

> <Gold.Chemscore.Lipo>
114.5897

> <Gold.Chemscore.Internal_Hbond>
0.0000

> <Gold.Chemscore.DEClash>
0.2423

> <Gold.Chemscore.DEInternal>
0.7174

> <Gold.Chemscore.Rot>
1.2921

> <Gold.Chemscore.Internal.Correction>
   9.000000E+99

> <Gold.Chemscore.Hbond.Weighted>
-0.0000

> <Gold.Chemscore.Metal.Weighted>
-0.0000

> <Gold.Chemscore.Lipo.Weighted>
-13.4070

> <Gold.Chemscore.Internal_Hbond.Weighted>
0.0000

> <Gold.Chemscore.DEClash.Weighted>
0.2423

> <Gold.Chemscore.DEInternal.Weighted>
0.7174

> <Gold.Chemscore.Rot.Weighted>
3.3078

> <Gold.Chemscore.Internal.Correction.Weighted>
   9.000000E+99

> <Gold.Protein.RotatedTorsions>
[ 6907 6896 6895 6894 ] final   57.81 input  -60.11 | X-H torsion
[ 7974 7965 7964 7962 ] final   24.05 input  175.53 | X-H torsion
[ 8008 7997 7996 7995 ] final  -89.07 input   59.86 | X-H torsion
[ 10167 10162 10161 10158 ] final  -77.23 input  -65.29 | X-H torsion
[ 10718 10713 10712 10709 ] final  -18.88 input   66.30 | X-H torsion
[ 10763 10752 10751 10750 ] final   70.34 input  -60.55 | X-H torsion
[ 11005 11000 10999 10996 ] final -105.36 input  -57.11 | X-H torsion

> <Gold.Protein.ActiveResidues>
 VAL166  LYS551  ARG553  GLY616  TRP617  ASP618  TYR619  PRO620  LYS621  CYS622 
 ASP623  PHE694  ASN695  SER759  ASP760  ASP761  ALA762  ILE779  LEU786  VAL792 
 PHE793  MET794  SER795  GLU796  ALA797  LYS798  CYS799  TRP800  GLU811  SER814 

> <Gold.Protein.RotatedAtoms>
  152.3766  134.6654  160.0157 H   0  0  0  0  0  0  0  0  0  0  0  0  # atno 6907 bound_to 6896
  151.6931  133.3305  159.3255 H   0  0  0  0  0  0  0  0  0  0  0  0  # atno 6908 bound_to 6896
  150.7714  134.6617  159.6388 H   0  0  0  0  0  0  0  0  0  0  0  0  # atno 6909 bound_to 6896
  146.1956  139.7659  142.8800 H   0  0  0  0  0  0  0  0  0  0  0  0  # atno 7974 bound_to 7965
  154.6822  140.0546  157.0278 H   0  0  0  0  0  0  0  0  0  0  0  0  # atno 8008 bound_to 7997
  155.0935  140.3221  155.4548 H   0  0  0  0  0  0  0  0  0  0  0  0  # atno 8009 bound_to 7997
  156.2698  140.2044  156.6062 H   0  0  0  0  0  0  0  0  0  0  0  0  # atno 8010 bound_to 7997
  140.4788  143.2407  151.8090 H   0  0  0  0  0  0  0  0  0  0  0  0  # atno 10167 bound_to 10162
  156.5534  130.4707  149.6441 H   0  0  0  0  0  0  0  0  0  0  0  0  # atno 10718 bound_to 10713
  153.0336  135.5177  154.7426 H   0  0  0  0  0  0  0  0  0  0  0  0  # atno 10763 bound_to 10752
  154.6420  135.2913  155.0094 H   0  0  0  0  0  0  0  0  0  0  0  0  # atno 10764 bound_to 10752
  154.1008  135.6636  153.4920 H   0  0  0  0  0  0  0  0  0  0  0  0  # atno 10765 bound_to 10752
  141.1057  133.8801  157.1725 H   0  0  0  0  0  0  0  0  0  0  0  0  # atno 11005 bound_to 11000
  145.3654  141.0333  143.3261 LP  0  0  0  0  0  0  0  0  0  0  0  0  # atno 17320 bound_to 7965
  144.8573  139.5230  143.6828 LP  0  0  0  0  0  0  0  0  0  0  0  0  # atno 17321 bound_to 7965
  139.4830  144.4799  151.9320 LP  0  0  0  0  0  0  0  0  0  0  0  0  # atno 17342 bound_to 10162
  140.3884  144.2647  150.5902 LP  0  0  0  0  0  0  0  0  0  0  0  0  # atno 17343 bound_to 10162
  156.2864  130.7099  151.1937 LP  0  0  0  0  0  0  0  0  0  0  0  0  # atno 17370 bound_to 10713
  157.7383  131.0542  150.5303 LP  0  0  0  0  0  0  0  0  0  0  0  0  # atno 17371 bound_to 10713
  139.9926  135.0059  157.0010 LP  0  0  0  0  0  0  0  0  0  0  0  0  # atno 17394 bound_to 11000
  140.4908  134.1195  155.7232 LP  0  0  0  0  0  0  0  0  0  0  0  0  # atno 17395 bound_to 11000

$$$$
