AV-unprocessed.smi:240|AV-procd|sdf|1832|dock2
  -GOLD-   2262020433D 1   1.00000     0.00000
 Structure written by MMmdl.
 55 59  0  0  0  0  0  0  0  0  1 V2000
  143.5483  134.4523  148.1830 O   0  0  0  0  0  0  0  0  0  0  0  0
  144.5469  133.9161  149.0258 C   0  0  2  0  0  0  0  0  0  0  0  0
  144.5001  132.3884  149.0487 C   0  0  0  0  0  0  0  0  0  0  0  0
  145.2097  132.0005  150.3508 C   0  0  0  0  0  0  0  0  0  0  0  0
  145.1192  133.2250  151.2761 C   0  0  0  0  0  0  0  0  0  0  0  0
  144.3370  134.2994  150.4976 C   0  0  1  0  0  0  0  0  0  0  0  0
  144.6479  135.7804  150.8737 C   0  0  2  0  0  0  0  0  0  0  0  0
  146.1137  136.2001  150.5913 C   0  0  0  0  0  0  0  0  0  0  0  0
  146.3192  137.5618  150.9502 O   0  0  0  0  0  0  0  0  0  0  0  0
  146.0953  137.7856  152.3354 C   0  0  0  0  0  0  0  0  0  0  0  0
  144.6316  137.4619  152.6597 C   0  0  0  0  0  0  0  0  0  0  0  0
  144.3178  136.0916  152.2720 N   0  0  0  0  0  0  0  0  0  0  0  0
  143.0871  135.7440  152.7118 C   0  0  0  0  0  0  0  0  0  0  0  0
  142.8195  134.4181  152.8015 N   0  0  0  0  0  0  0  0  0  0  0  0
  141.6220  134.0054  153.2271 C   0  0  0  0  0  0  0  0  0  0  0  0
  140.5745  134.7374  153.6125 N   0  0  0  0  0  0  0  0  0  0  0  0
  140.8470  136.0721  153.5371 C   0  0  0  0  0  0  0  0  0  0  0  0
  142.0680  136.6594  153.1011 C   0  0  0  0  0  0  0  0  0  0  0  0
  141.9754  138.0444  153.1635 N   0  0  0  0  0  0  0  0  0  0  0  0
  140.7683  138.2633  153.6083 C   0  0  0  0  0  0  0  0  0  0  0  0
  140.0238  137.1346  153.8679 N   0  0  0  0  0  0  0  0  0  0  0  0
  138.6579  137.0858  154.3681 C   0  0  0  0  0  0  0  0  0  0  0  0
  138.5124  137.5063  155.8530 C   0  0  2  0  0  0  0  0  0  0  0  0
  139.5191  136.8678  156.6170 O   0  0  0  0  0  0  0  0  0  0  0  0
  137.1457  137.1921  156.4628 C   0  0  0  0  0  0  0  0  0  0  0  0
  136.3970  138.5056  156.3005 C   0  0  0  0  0  0  0  0  0  0  0  0
  137.3951  139.4616  156.6117 O   0  0  0  0  0  0  0  0  0  0  0  0
  138.6183  139.0363  156.0213 C   0  0  0  0  0  0  0  0  0  0  0  0
  142.7075  134.3293  148.5963 H   0  0  0  0  0  0  0  0  0  0  0  0
  145.5276  134.2277  148.6688 H   0  0  0  0  0  0  0  0  0  0  0  0
  143.4648  132.0463  149.0888 H   0  0  0  0  0  0  0  0  0  0  0  0
  144.9624  131.9400  148.1687 H   0  0  0  0  0  0  0  0  0  0  0  0
  144.7586  131.1159  150.8009 H   0  0  0  0  0  0  0  0  0  0  0  0
  146.2561  131.7671  150.1518 H   0  0  0  0  0  0  0  0  0  0  0  0
  144.6223  132.9809  152.2153 H   0  0  0  0  0  0  0  0  0  0  0  0
  146.1243  133.5594  151.5282 H   0  0  0  0  0  0  0  0  0  0  0  0
  143.2810  134.1124  150.6990 H   0  0  0  0  0  0  0  0  0  0  0  0
  144.0222  136.4133  150.2442 H   0  0  0  0  0  0  0  0  0  0  0  0
  146.8280  135.5758  151.1280 H   0  0  0  0  0  0  0  0  0  0  0  0
  146.3466  136.1105  149.5314 H   0  0  0  0  0  0  0  0  0  0  0  0
  146.7743  137.1762  152.9340 H   0  0  0  0  0  0  0  0  0  0  0  0
  146.3106  138.8287  152.5671 H   0  0  0  0  0  0  0  0  0  0  0  0
  144.4522  137.6009  153.7270 H   0  0  0  0  0  0  0  0  0  0  0  0
  143.9731  138.1520  152.1299 H   0  0  0  0  0  0  0  0  0  0  0  0
  141.4838  132.9349  153.2657 H   0  0  0  0  0  0  0  0  0  0  0  0
  140.3864  139.2616  153.7661 H   0  0  0  0  0  0  0  0  0  0  0  0
  138.0431  137.7269  153.7349 H   0  0  0  0  0  0  0  0  0  0  0  0
  138.2806  136.0720  154.2276 H   0  0  0  0  0  0  0  0  0  0  0  0
  139.8377  137.4807  157.2621 H   0  0  0  0  0  0  0  0  0  0  0  0
  136.6264  136.3502  156.0078 H   0  0  0  0  0  0  0  0  0  0  0  0
  137.2393  136.9759  157.5284 H   0  0  0  0  0  0  0  0  0  0  0  0
  136.0572  138.6420  155.2726 H   0  0  0  0  0  0  0  0  0  0  0  0
  135.5374  138.5879  156.9659 H   0  0  0  0  0  0  0  0  0  0  0  0
  139.4562  139.3410  156.6499 H   0  0  0  0  0  0  0  0  0  0  0  0
  138.7359  139.5363  155.0591 H   0  0  0  0  0  0  0  0  0  0  0  0
  1  2  1  0  0  0  0
  1 29  1  0  0  0  0
  2  6  1  0  0  0  0
  2  3  1  0  0  0  0
  2 30  1  0  0  0  0
  3  4  1  0  0  0  0
  3 31  1  0  0  0  0
  3 32  1  0  0  0  0
  4  5  1  0  0  0  0
  4 33  1  0  0  0  0
  4 34  1  0  0  0  0
  5  6  1  0  0  0  0
  5 35  1  0  0  0  0
  5 36  1  0  0  0  0
  6  7  1  0  0  0  0
  6 37  1  0  0  0  0
  7 12  1  0  0  0  0
  7  8  1  0  0  0  0
  7 38  1  0  0  0  0
  8  9  1  0  0  0  0
  8 39  1  0  0  0  0
  8 40  1  0  0  0  0
  9 10  1  0  0  0  0
 10 11  1  0  0  0  0
 10 41  1  0  0  0  0
 10 42  1  0  0  0  0
 11 12  1  0  0  0  0
 11 43  1  0  0  0  0
 11 44  1  0  0  0  0
 12 13  1  0  0  0  0
 13 18  1  0  0  0  0
 13 14  2  0  0  0  0
 14 15  1  0  0  0  0
 15 16  2  0  0  0  0
 15 45  1  0  0  0  0
 16 17  1  0  0  0  0
 17 21  1  0  0  0  0
 17 18  2  0  0  0  0
 18 19  1  0  0  0  0
 19 20  2  0  0  0  0
 20 21  1  0  0  0  0
 20 46  1  0  0  0  0
 21 22  1  0  0  0  0
 22 23  1  0  0  0  0
 22 47  1  0  0  0  0
 22 48  1  0  0  0  0
 23 28  1  0  0  0  0
 23 24  1  0  0  0  0
 23 25  1  0  0  0  0
 24 49  1  0  0  0  0
 25 26  1  0  0  0  0
 25 50  1  0  0  0  0
 25 51  1  0  0  0  0
 26 27  1  0  0  0  0
 26 52  1  0  0  0  0
 26 53  1  0  0  0  0
 27 28  1  0  0  0  0
 28 54  1  0  0  0  0
 28 55  1  0  0  0  0
M  END
> <s_m_source_file>
AV-unprocessed.smi

> <i_m_source_file_index>
240

> <i_lp_mmshare_version>
43012

> <i_f3d_flags>
0

> <s_epik_input>
W09IXVtDQEBIXTFbQ0gyXVtDSDJdW0NIMl1bQ0BIXTFbQ0BASF0yW0NIMl1PW0NIMl1bQ0gyXU4yYyhuW2NIXW4zKWMoYzM0KW5bY0hdbjRbQ0gyXVtDQEBdNShbT0hdKVtDSDJdW0NIMl1PW0NIMl01

> <s_epik_cmdline>
J2VwaWtfcHl0aG9uJywgJy1waCcsICc3LjAnLCAnLXRuJywgJzgnLCAnLW1hJywgJzIwMCcsICctbWV0YWxfYmluZGluZycsICctaW1hZScsICc8aW5maWxlLm1hZT4nLCAnLW9tYWUnLCAnPG91dGZpbGUubWFlPic=

> <r_lp_tautomer_probability>
1

> <r_epik_Ionization_Penalty>
0.000130618

> <r_epik_Ionization_Penalty_Charging>
0

> <r_epik_Ionization_Penalty_Neutral>
0.000130618

> <r_epik_State_Penalty>
-0

> <r_epik_Charging_Adjusted_Penalty>
0

> <i_epik_Tot_Q>
0

> <i_epik_Tot_abs_Q>
0

> <r_epik_Metal_State_Penalty>
-0

> <b_epik_Metal_Only>
0

> <s_lp_Force_Field>
OPLS_2005

> <r_lp_Energy>
62.3789

> <b_lp_Chiralities_Consistent>
1

> <s_lp_Variant>
AV-unprocessed.smi:240-9

> <Gold.Version>
5.8.1

> <Gold.Id.Protein>
6NUR|6NUR_protein|mol2

> <Gold.PLP.Fitness>
47.0049

> <Gold.PLP.PLP>
-38.3831

> <Gold.PLP.part.hbond>
-6.6190

> <Gold.PLP.part.metal>
0.0000

> <Gold.PLP.part.buried>
0.7050

> <Gold.PLP.part.nonpolar>
-36.6495

> <Gold.PLP.part.repulsive>
4.2244

> <Gold.PLP.ligand.clash>
0.9999

> <Gold.PLP.ligand.torsion>
0.5747

> <Gold.PLP.Chemscore.Hbond>
2.6505

> <Gold.PLP.Chemscore.CHOScore>
0.8724

> <Gold.PLP.Chemscore.Metal>
0.0000

> <Gold.Chemscore.Hbonds>
donor molecule, donor type, donor heavy atom, donor atom, acceptor molecule, acceptor atom, score
      L1  H     1    29       P1 10186  1.00
      P1  H  7954  7966       L1     9  0.61
      P1  H 10995 11001       L1    16  0.02
      P1  H 11000 11005       L1    16  0.68
      L1  C    15    45       P1 10957  0.79

> <Gold.PLP.Chemscore.Internal.Correction>
0.2022

> <Gold.Rescore>
     Score         DG    S(hbond)    S(metal)    S(lipo)     H(rot)  DE(clash)    DE(int)     intcor
      5.00     -13.13       1.11        0.00      99.34       3.00       4.78       3.35       ----

> <Gold.Chemscore.Fitness>
5.0010

> <Gold.Chemscore.DG>
-13.1277

> <Gold.Chemscore.ZeroCoef>
-5.4800

> <Gold.Chemscore.Hbond>
1.1124

> <Gold.Chemscore.Metal>
0.0000

> <Gold.Chemscore.Lipo>
99.3359

> <Gold.Chemscore.Internal_Hbond>
0.0000

> <Gold.Chemscore.DEClash>
4.7813

> <Gold.Chemscore.DEInternal>
3.3454

> <Gold.Chemscore.Rot>
3.0039

> <Gold.Chemscore.Internal.Correction>
   9.000000E+99

> <Gold.Chemscore.Hbonds>
donor molecule, donor type, donor heavy atom, donor atom, acceptor molecule, acceptor atom, score
      L1  H     1    29       P1 10186  0.99
      P1  H  7954  7966       L1     9  0.10
      P1  H 11000 11005       L1    16  0.19

> <Gold.Chemscore.Hbond.Weighted>
-3.7153

> <Gold.Chemscore.Metal.Weighted>
-0.0000

> <Gold.Chemscore.Lipo.Weighted>
-11.6223

> <Gold.Chemscore.Internal_Hbond.Weighted>
0.0000

> <Gold.Chemscore.DEClash.Weighted>
4.7813

> <Gold.Chemscore.DEInternal.Weighted>
3.3454

> <Gold.Chemscore.Rot.Weighted>
7.6899

> <Gold.Chemscore.Internal.Correction.Weighted>
   9.000000E+99

> <Gold.Protein.RotatedTorsions>
[ 6907 6896 6895 6894 ] final  132.14 input  -60.11 | X-H torsion
[ 7974 7965 7964 7962 ] final -125.31 input  175.53 | X-H torsion
[ 8008 7997 7996 7995 ] final   25.03 input   59.86 | X-H torsion
[ 10167 10162 10161 10158 ] final -144.86 input  -65.29 | X-H torsion
[ 10718 10713 10712 10709 ] final  159.37 input   66.30 | X-H torsion
[ 10763 10752 10751 10750 ] final   27.28 input  -60.55 | X-H torsion
[ 11005 11000 10999 10996 ] final   25.73 input  -57.11 | X-H torsion

> <Gold.Protein.ActiveResidues>
 VAL166  LYS551  ARG553  GLY616  TRP617  ASP618  TYR619  PRO620  LYS621  CYS622 
 ASP623  PHE694  ASN695  SER759  ASP760  ASP761  ALA762  ILE779  LEU786  VAL792 
 PHE793  MET794  SER795  GLU796  ALA797  LYS798  CYS799  TRP800  GLU811  SER814 

> <Gold.Protein.RotatedAtoms>
  152.3355  133.6006  159.5839 H   0  0  0  0  0  0  0  0  0  0  0  0  # atno 6907 bound_to 6896
  150.7448  133.9803  159.3583 H   0  0  0  0  0  0  0  0  0  0  0  0  # atno 6908 bound_to 6896
  151.7673  135.0796  160.0405 H   0  0  0  0  0  0  0  0  0  0  0  0  # atno 6909 bound_to 6896
  144.9989  140.7802  143.4508 H   0  0  0  0  0  0  0  0  0  0  0  0  # atno 7974 bound_to 7965
  155.0055  140.3130  155.4850 H   0  0  0  0  0  0  0  0  0  0  0  0  # atno 8008 bound_to 7997
  156.2918  140.2224  156.5108 H   0  0  0  0  0  0  0  0  0  0  0  0  # atno 8009 bound_to 7997
  154.7581  140.0461  157.0938 H   0  0  0  0  0  0  0  0  0  0  0  0  # atno 8010 bound_to 7997
  139.7860  143.8034  152.2644 H   0  0  0  0  0  0  0  0  0  0  0  0  # atno 10167 bound_to 10162
  157.1651  131.0596  151.2212 H   0  0  0  0  0  0  0  0  0  0  0  0  # atno 10718 bound_to 10713
  153.0566  135.6540  154.0563 H   0  0  0  0  0  0  0  0  0  0  0  0  # atno 10763 bound_to 10752
  154.0240  135.2917  155.3379 H   0  0  0  0  0  0  0  0  0  0  0  0  # atno 10764 bound_to 10752
  154.6884  135.5292  153.8425 H   0  0  0  0  0  0  0  0  0  0  0  0  # atno 10765 bound_to 10752
  140.3447  134.2294  155.7686 H   0  0  0  0  0  0  0  0  0  0  0  0  # atno 11005 bound_to 11000
  145.2181  139.2172  143.5107 LP  0  0  0  0  0  0  0  0  0  0  0  0  # atno 17320 bound_to 7965
  146.3448  140.2033  142.8589 LP  0  0  0  0  0  0  0  0  0  0  0  0  # atno 17321 bound_to 7965
  139.8110  144.7335  150.9697 LP  0  0  0  0  0  0  0  0  0  0  0  0  # atno 17342 bound_to 10162
  140.7819  143.4250  151.0782 LP  0  0  0  0  0  0  0  0  0  0  0  0  # atno 17343 bound_to 10162
  157.4096  130.7378  149.6829 LP  0  0  0  0  0  0  0  0  0  0  0  0  # atno 17370 bound_to 10713
  155.9747  130.4099  150.3901 LP  0  0  0  0  0  0  0  0  0  0  0  0  # atno 17371 bound_to 10713
  141.2029  133.7926  157.0368 LP  0  0  0  0  0  0  0  0  0  0  0  0  # atno 17394 bound_to 11000
  140.0752  134.9680  157.1533 LP  0  0  0  0  0  0  0  0  0  0  0  0  # atno 17395 bound_to 11000

$$$$
