AV-unprocessed.smi:1077|AV-procd|sdf|4701|dock7
  -GOLD-   22720 3223D 1   1.00000     0.00000
 Structure written by MMmdl.
 42 43  0  0  0  0  0  0  0  0  1 V2000
  153.8512  136.1124  164.2473 C   0  0  0  0  0  0  0  0  0  0  0  0
  154.8218  135.5736  163.1852 C   0  0  0  0  0  0  0  0  0  0  0  0
  154.7690  136.3090  161.9483 N   0  0  0  0  0  0  0  0  0  0  0  0
  154.6119  135.6754  160.7331 C   0  0  0  0  0  0  0  0  0  0  0  0
  154.5665  136.3475  159.5645 C   0  0  0  0  0  0  0  0  0  0  0  0
  154.3999  135.6765  158.3179 C   0  0  0  0  0  0  0  0  0  0  0  0
  154.2870  135.1226  157.3079 N   0  0  0  0  0  0  0  0  0  0  0  0
  154.6881  137.8027  159.5267 C   0  0  0  0  0  0  0  0  0  0  0  0
  154.6420  138.4615  158.4862 O   0  0  0  0  0  0  0  0  0  0  0  0
  154.8617  138.4346  160.7845 N   0  0  0  0  0  0  0  0  0  0  0  0
  154.9762  139.9091  160.8189 C   0  0  0  0  0  0  0  0  0  0  0  0
  153.7296  140.6254  160.2788 C   0  0  0  0  0  0  0  0  0  0  0  0
  152.8204  139.9932  159.7390 O   0  0  0  0  0  0  0  0  0  0  0  0
  153.7023  141.9565  160.4434 N   0  0  0  0  0  0  0  0  0  0  0  0
  152.6293  142.8423  160.0020 C   0  0  0  0  0  0  0  0  0  0  0  0
  153.1247  143.7821  158.8821 C   0  0  0  0  0  0  0  0  0  0  0  0
  152.0371  144.7845  158.4638 C   0  0  0  0  0  0  0  0  0  0  0  0
  151.5264  145.5883  159.6693 C   0  0  0  0  0  0  0  0  0  0  0  0
  151.0212  144.6557  160.7810 C   0  0  0  0  0  0  0  0  0  0  0  0
  152.1068  143.6526  161.2037 C   0  0  0  0  0  0  0  0  0  0  0  0
  154.8987  137.7164  162.0042 C   0  0  0  0  0  0  0  0  0  0  0  0
  155.0371  138.3030  163.0807 O   0  0  0  0  0  0  0  0  0  0  0  0
  153.9610  135.5636  165.1826 H   0  0  0  0  0  0  0  0  0  0  0  0
  152.8128  136.0154  163.9297 H   0  0  0  0  0  0  0  0  0  0  0  0
  154.0409  137.1654  164.4559 H   0  0  0  0  0  0  0  0  0  0  0  0
  155.8525  135.6492  163.5348 H   0  0  0  0  0  0  0  0  0  0  0  0
  154.6474  134.5219  162.9500 H   0  0  0  0  0  0  0  0  0  0  0  0
  154.5205  134.5988  160.7149 H   0  0  0  0  0  0  0  0  0  0  0  0
  155.1661  140.2739  161.8291 H   0  0  0  0  0  0  0  0  0  0  0  0
  155.8503  140.2365  160.2527 H   0  0  0  0  0  0  0  0  0  0  0  0
  154.4899  142.3915  160.9018 H   0  0  0  0  0  0  0  0  0  0  0  0
  151.8067  142.2360  159.6176 H   0  0  0  0  0  0  0  0  0  0  0  0
  154.0061  144.3280  159.2221 H   0  0  0  0  0  0  0  0  0  0  0  0
  153.4377  143.2033  158.0123 H   0  0  0  0  0  0  0  0  0  0  0  0
  152.4289  145.4619  157.7043 H   0  0  0  0  0  0  0  0  0  0  0  0
  151.2062  144.2497  158.0021 H   0  0  0  0  0  0  0  0  0  0  0  0
  152.3292  146.2176  160.0555 H   0  0  0  0  0  0  0  0  0  0  0  0
  150.7282  146.2621  159.3567 H   0  0  0  0  0  0  0  0  0  0  0  0
  150.7026  145.2432  161.6425 H   0  0  0  0  0  0  0  0  0  0  0  0
  150.1403  144.1151  160.4324 H   0  0  0  0  0  0  0  0  0  0  0  0
  151.7070  142.9792  161.9630 H   0  0  0  0  0  0  0  0  0  0  0  0
  152.9314  144.1919  161.6728 H   0  0  0  0  0  0  0  0  0  0  0  0
  1  2  1  0  0  0  0
  1 23  1  0  0  0  0
  1 24  1  0  0  0  0
  1 25  1  0  0  0  0
  2  3  1  0  0  0  0
  2 26  1  0  0  0  0
  2 27  1  0  0  0  0
  3 21  1  0  0  0  0
  3  4  1  0  0  0  0
  4  5  2  0  0  0  0
  4 28  1  0  0  0  0
  5  6  1  0  0  0  0
  5  8  1  0  0  0  0
  6  7  3  0  0  0  0
  8  9  2  0  0  0  0
  8 10  1  0  0  0  0
 10 11  1  0  0  0  0
 10 21  1  0  0  0  0
 11 12  1  0  0  0  0
 11 29  1  0  0  0  0
 11 30  1  0  0  0  0
 12 13  2  0  0  0  0
 12 14  1  0  0  0  0
 14 15  1  0  0  0  0
 14 31  1  0  0  0  0
 15 20  1  0  0  0  0
 15 16  1  0  0  0  0
 15 32  1  0  0  0  0
 16 17  1  0  0  0  0
 16 33  1  0  0  0  0
 16 34  1  0  0  0  0
 17 18  1  0  0  0  0
 17 35  1  0  0  0  0
 17 36  1  0  0  0  0
 18 19  1  0  0  0  0
 18 37  1  0  0  0  0
 18 38  1  0  0  0  0
 19 20  1  0  0  0  0
 19 39  1  0  0  0  0
 19 40  1  0  0  0  0
 20 41  1  0  0  0  0
 20 42  1  0  0  0  0
 21 22  2  0  0  0  0
M  END
> <s_m_source_file>
AV-unprocessed.smi

> <i_m_source_file_index>
1077

> <i_lp_mmshare_version>
43012

> <i_f3d_flags>
0

> <s_epik_input>
W0NIM11bQ0gyXW4xW2NIXWMoQyNOKWMoPU8pbihjMT1PKVtDSDJdQyg9TylbTkhdW0NIXTJbQ0gyXVtDSDJdW0NIMl1bQ0gyXVtDSDJdMg==

> <s_epik_cmdline>
J2VwaWtfcHl0aG9uJywgJy1waCcsICc3LjAnLCAnLXRuJywgJzgnLCAnLW1hJywgJzIwMCcsICctbWV0YWxfYmluZGluZycsICctaW1hZScsICc8aW5maWxlLm1hZT4nLCAnLW9tYWUnLCAnPG91dGZpbGUubWFlPic=

> <r_lp_tautomer_probability>
1

> <r_epik_Ionization_Penalty>
1.90876e-08

> <r_epik_Ionization_Penalty_Charging>
4.07395e-11

> <r_epik_Ionization_Penalty_Neutral>
1.90469e-08

> <r_epik_State_Penalty>
-0

> <r_epik_Charging_Adjusted_Penalty>
4.07395e-11

> <i_epik_Tot_Q>
0

> <i_epik_Tot_abs_Q>
0

> <r_epik_Metal_State_Penalty>
-0

> <b_epik_Metal_Only>
0

> <s_lp_Force_Field>
OPLS_2005

> <r_lp_Energy>
10.9803

> <b_lp_Chiralities_Consistent>
1

> <s_lp_Variant>
AV-unprocessed.smi:1077-1

> <Gold.Version>
5.8.1

> <Gold.Id.Protein>
6NUR|6NUR_protein|mol2

> <Gold.PLP.Fitness>
50.1911

> <Gold.PLP.PLP>
-44.5192

> <Gold.PLP.part.hbond>
-2.0000

> <Gold.PLP.part.metal>
0.0000

> <Gold.PLP.part.buried>
-4.1856

> <Gold.PLP.part.nonpolar>
-38.1190

> <Gold.PLP.part.repulsive>
0.0328

> <Gold.PLP.ligand.clash>
0.0000

> <Gold.PLP.ligand.torsion>
0.1681

> <Gold.PLP.Chemscore.Hbond>
2.0000

> <Gold.PLP.Chemscore.CHOScore>
0.0000

> <Gold.PLP.Chemscore.Metal>
0.0000

> <Gold.Chemscore.Hbonds>
donor molecule, donor type, donor heavy atom, donor atom, acceptor molecule, acceptor atom, score
      P1  H  7997  8010       L1     9  1.00
      P1  H 10752 10765       L1     7  1.00

> <Gold.PLP.Chemscore.Internal.Correction>
0.0080

> <Gold.Rescore>
     Score         DG    S(hbond)    S(metal)    S(lipo)     H(rot)  DE(clash)    DE(int)     intcor
     18.38     -20.18       1.93        0.00     108.84       1.75       0.12       1.68       ----

> <Gold.Chemscore.Fitness>
18.3795

> <Gold.Chemscore.DG>
-20.1800

> <Gold.Chemscore.ZeroCoef>
-5.4800

> <Gold.Chemscore.Hbond>
1.9314

> <Gold.Chemscore.Metal>
0.0000

> <Gold.Chemscore.Lipo>
108.8420

> <Gold.Chemscore.Internal_Hbond>
0.0000

> <Gold.Chemscore.DEClash>
0.1228

> <Gold.Chemscore.DEInternal>
1.6777

> <Gold.Chemscore.Rot>
1.7520

> <Gold.Chemscore.Internal.Correction>
   9.000000E+99

> <Gold.Chemscore.Hbonds>
donor molecule, donor type, donor heavy atom, donor atom, acceptor molecule, acceptor atom, score
      P1  H  7997  8010       L1     9  0.97
      P1  H 10752 10765       L1     7  0.99

> <Gold.Chemscore.Hbond.Weighted>
-6.4507

> <Gold.Chemscore.Metal.Weighted>
-0.0000

> <Gold.Chemscore.Lipo.Weighted>
-12.7345

> <Gold.Chemscore.Internal_Hbond.Weighted>
0.0000

> <Gold.Chemscore.DEClash.Weighted>
0.1228

> <Gold.Chemscore.DEInternal.Weighted>
1.6777

> <Gold.Chemscore.Rot.Weighted>
4.4852

> <Gold.Chemscore.Internal.Correction.Weighted>
   9.000000E+99

> <Gold.Protein.RotatedTorsions>
[ 6907 6896 6895 6894 ] final  154.79 input  -60.11 | X-H torsion
[ 7974 7965 7964 7962 ] final  119.58 input  175.53 | X-H torsion
[ 8008 7997 7996 7995 ] final    5.09 input   59.86 | X-H torsion
[ 10167 10162 10161 10158 ] final    9.23 input  -65.29 | X-H torsion
[ 10718 10713 10712 10709 ] final   74.78 input   66.30 | X-H torsion
[ 10763 10752 10751 10750 ] final  -97.58 input  -60.55 | X-H torsion
[ 11005 11000 10999 10996 ] final   83.28 input  -57.11 | X-H torsion

> <Gold.Protein.ActiveResidues>
 VAL166  LYS551  ARG553  GLY616  TRP617  ASP618  TYR619  PRO620  LYS621  CYS622 
 ASP623  PHE694  ASN695  SER759  ASP760  ASP761  ALA762  ILE779  LEU786  VAL792 
 PHE793  MET794  SER795  GLU796  ALA797  LYS798  CYS799  TRP800  GLU811  SER814 

> <Gold.Protein.RotatedAtoms>
  152.0535  133.4029  159.4386 H   0  0  0  0  0  0  0  0  0  0  0  0  # atno 6907 bound_to 6896
  150.6869  134.3281  159.4824 H   0  0  0  0  0  0  0  0  0  0  0  0  # atno 6908 bound_to 6896
  152.1094  134.9285  160.0618 H   0  0  0  0  0  0  0  0  0  0  0  0  # atno 6909 bound_to 6896
  145.1414  139.3265  143.4614 H   0  0  0  0  0  0  0  0  0  0  0  0  # atno 7974 bound_to 7965
  154.7240  140.2717  155.6515 H   0  0  0  0  0  0  0  0  0  0  0  0  # atno 8008 bound_to 7997
  156.2831  140.2729  156.1845 H   0  0  0  0  0  0  0  0  0  0  0  0  # atno 8009 bound_to 7997
  155.0469  140.0371  157.2520 H   0  0  0  0  0  0  0  0  0  0  0  0  # atno 8010 bound_to 7997
  140.6267  143.8084  150.7243 H   0  0  0  0  0  0  0  0  0  0  0  0  # atno 10167 bound_to 10162
  157.6607  130.9694  150.1260 H   0  0  0  0  0  0  0  0  0  0  0  0  # atno 10718 bound_to 10713
  154.7340  135.5041  153.9011 H   0  0  0  0  0  0  0  0  0  0  0  0  # atno 10763 bound_to 10752
  153.0977  135.6677  153.9740 H   0  0  0  0  0  0  0  0  0  0  0  0  # atno 10764 bound_to 10752
  153.9534  135.3055  155.3416 H   0  0  0  0  0  0  0  0  0  0  0  0  # atno 10765 bound_to 10752
  139.9036  134.8133  156.2288 H   0  0  0  0  0  0  0  0  0  0  0  0  # atno 11005 bound_to 11000
  146.3504  140.1453  142.8593 LP  0  0  0  0  0  0  0  0  0  0  0  0  # atno 17320 bound_to 7965
  145.0528  140.9030  143.4985 LP  0  0  0  0  0  0  0  0  0  0  0  0  # atno 17321 bound_to 7965
  140.1686  143.4213  152.2016 LP  0  0  0  0  0  0  0  0  0  0  0  0  # atno 17342 bound_to 10162
  139.5487  144.7320  151.4503 LP  0  0  0  0  0  0  0  0  0  0  0  0  # atno 17343 bound_to 10162
  156.2119  130.3667  149.8660 LP  0  0  0  0  0  0  0  0  0  0  0  0  # atno 17370 bound_to 10713
  156.6536  130.8754  151.3535 LP  0  0  0  0  0  0  0  0  0  0  0  0  # atno 17371 bound_to 10713
  141.0359  133.6964  156.1511 LP  0  0  0  0  0  0  0  0  0  0  0  0  # atno 17394 bound_to 11000
  140.7028  134.4545  157.5585 LP  0  0  0  0  0  0  0  0  0  0  0  0  # atno 17395 bound_to 11000

$$$$
