AV-unprocessed.smi:35|AV-procd|sdf|265|dock7
  -GOLD-   2262016 33D 1   1.00000     0.00000
 Structure written by MMmdl.
 28 29  0  0  0  0  0  0  0  0  2 V2000
  150.5026  134.3609  155.8771 O   0  0  0  0  0  0  0  0  0  0  0  0
  150.5155  135.5466  155.5513 C   0  0  0  0  0  0  0  0  0  0  0  0
  151.6687  136.2541  155.3737 N   0  5  0  0  0  0  0  0  0  0  0  0
  151.6785  137.5723  155.0154 C   0  0  0  0  0  0  0  0  0  0  0  0
  152.7148  138.2095  154.8291 O   0  0  0  0  0  0  0  0  0  0  0  0
  150.4382  138.2451  154.8379 N   0  0  0  0  0  0  0  0  0  0  0  0
  150.4290  139.7040  154.4367 C   0  0  2  0  0  0  0  0  0  0  0  0
  151.0569  140.4524  155.4388 O   0  0  0  0  0  0  0  0  0  0  0  0
  150.2026  141.4989  155.8893 C   0  0  2  0  0  0  0  0  0  0  0  0
  150.4988  141.7953  157.3680 C   0  0  0  0  0  0  0  0  0  0  0  0
  149.6707  142.8360  157.8424 O   0  0  0  0  0  0  0  0  0  0  0  0
  148.7956  140.9683  155.6067 C   0  0  1  0  0  0  0  0  0  0  0  0
  147.8190  141.9887  155.5202 O   0  0  0  0  0  0  0  0  0  0  0  0
  148.9837  140.2072  154.2999 C   0  0  1  0  0  0  0  0  0  0  0  0
  148.8443  141.0334  153.1585 O   0  0  0  0  0  0  0  0  0  0  0  0
  149.2520  137.5476  154.9922 C   0  0  0  0  0  0  0  0  0  0  0  0
  149.2506  136.2446  155.3377 C   0  0  0  0  0  0  0  0  0  0  0  0
  147.4795  135.3751  155.5204 Br  0  0  0  0  0  0  0  0  0  0  0  0
  151.0169  139.7743  153.5202 H   0  0  0  0  0  0  0  0  0  0  0  0
  150.4086  142.3755  155.2723 H   0  0  0  0  0  0  0  0  0  0  0  0
  150.3612  140.9058  157.9832 H   0  0  0  0  0  0  0  0  0  0  0  0
  151.5368  142.1081  157.4833 H   0  0  0  0  0  0  0  0  0  0  0  0
  149.5958  143.4922  157.1664 H   0  0  0  0  0  0  0  0  0  0  0  0
  148.5049  140.2653  156.3886 H   0  0  0  0  0  0  0  0  0  0  0  0
  148.2228  142.8083  155.7619 H   0  0  0  0  0  0  0  0  0  0  0  0
  148.2829  139.3763  154.2070 H   0  0  0  0  0  0  0  0  0  0  0  0
  149.0636  140.5239  152.3938 H   0  0  0  0  0  0  0  0  0  0  0  0
  148.3074  138.0439  154.8306 H   0  0  0  0  0  0  0  0  0  0  0  0
  1  2  2  0  0  0  0
  2 17  1  0  0  0  0
  2  3  1  0  0  0  0
  3  4  1  0  0  0  0
  4  5  2  0  0  0  0
  4  6  1  0  0  0  0
  6  7  1  0  0  0  0
  6 16  1  0  0  0  0
  7 14  1  0  0  0  0
  7  8  1  0  0  0  0
  7 19  1  0  0  0  0
  8  9  1  0  0  0  0
  9 10  1  0  0  0  0
  9 12  1  0  0  0  0
  9 20  1  0  0  0  0
 10 11  1  0  0  0  0
 10 21  1  0  0  0  0
 10 22  1  0  0  0  0
 11 23  1  0  0  0  0
 12 13  1  0  0  0  0
 12 14  1  0  0  0  0
 12 24  1  0  0  0  0
 13 25  1  0  0  0  0
 14 15  1  0  0  0  0
 14 26  1  0  0  0  0
 15 27  1  0  0  0  0
 16 17  2  0  0  0  0
 16 28  1  0  0  0  0
 17 18  1  0  0  0  0
M  CHG  1   3  -1
M  END
> <s_m_source_file>
AV-unprocessed.smi

> <i_m_source_file_index>
35

> <i_lp_mmshare_version>
43012

> <i_f3d_flags>
0

> <s_epik_input>
Tz1jMVtuSF1jKD1PKW4oW2NIXWMxQnIpW0NAQEhdMk9bQ0BASF0oW0NIMl1bT0hdKVtDQEBIXShbT0hdKVtDQEhdMltPSF0=

> <s_epik_cmdline>
J2VwaWtfcHl0aG9uJywgJy1waCcsICc3LjAnLCAnLXRuJywgJzgnLCAnLW1hJywgJzIwMCcsICctbWV0YWxfYmluZGluZycsICctaW1hZScsICc8aW5maWxlLm1hZT4nLCAnLW9tYWUnLCAnPG91dGZpbGUubWFlPic=

> <r_epik_Ionization_Penalty>
1.06112

> <r_epik_Ionization_Penalty_Charging>
2.1796e-09

> <r_epik_Ionization_Penalty_Neutral>
1.06112

> <r_epik_State_Penalty>
1.11484

> <r_epik_Charging_Adjusted_Penalty>
1.11484

> <i_epik_Tot_Q>
-1

> <i_epik_Tot_abs_Q>
1

> <r_epik_Metal_State_Penalty>
0.0032876

> <b_epik_Metal_Only>
0

> <s_epik_Chemistry_Notes>
This compound contains an acetal/aminal-like group ( X-CH(R)-Y where X, Y are N, S, or O) that may be acid/base labile, releasing an aldehyde.

> <s_lp_Force_Field>
OPLS_2005

> <r_lp_Energy>
41.5323

> <b_lp_Chiralities_Consistent>
1

> <s_lp_Variant>
AV-unprocessed.smi:35-19

> <Gold.Version>
5.8.1

> <Gold.Id.Protein>
6NUR|6NUR_protein|mol2

> <Gold.PLP.Fitness>
44.3108

> <Gold.PLP.PLP>
-27.6360

> <Gold.PLP.part.hbond>
-6.3454

> <Gold.PLP.part.metal>
0.0000

> <Gold.PLP.part.buried>
-4.2492

> <Gold.PLP.part.nonpolar>
-17.5294

> <Gold.PLP.part.repulsive>
0.1687

> <Gold.PLP.ligand.clash>
0.0000

> <Gold.PLP.ligand.torsion>
0.0081

> <Gold.PLP.Chemscore.Hbond>
5.5600

> <Gold.PLP.Chemscore.CHOScore>
0.0000

> <Gold.PLP.Chemscore.Metal>
0.0000

> <Gold.Chemscore.Hbonds>
donor molecule, donor type, donor heavy atom, donor atom, acceptor molecule, acceptor atom, score
      L1  H    11    23       P1  8028  0.93
      L1  H    13    25       P1  8028  1.00
      L1  H    15    27       P1  7957  0.75
      P1  H  8011  8017       L1    15  0.25
      P1  H 10752 10763       L1     3  2.00

> <Gold.PLP.Chemscore.Internal.Correction>
0.0109

> <Gold.Rescore>
     Score         DG    S(hbond)    S(metal)    S(lipo)     H(rot)  DE(clash)    DE(int)     intcor
     11.08     -12.59       3.79        0.00      32.01       3.63       0.22       1.29       ----

> <Gold.Chemscore.Fitness>
11.0786

> <Gold.Chemscore.DG>
-12.5900

> <Gold.Chemscore.ZeroCoef>
-5.4800

> <Gold.Chemscore.Hbond>
3.7868

> <Gold.Chemscore.Metal>
0.0000

> <Gold.Chemscore.Lipo>
32.0072

> <Gold.Chemscore.Internal_Hbond>
0.0000

> <Gold.Chemscore.DEClash>
0.2217

> <Gold.Chemscore.DEInternal>
1.2896

> <Gold.Chemscore.Rot>
3.6261

> <Gold.Chemscore.Internal.Correction>
   9.000000E+99

> <Gold.Chemscore.Hbonds>
donor molecule, donor type, donor heavy atom, donor atom, acceptor molecule, acceptor atom, score
      L1  H    11    23       P1  8028  0.80
      L1  H    13    25       P1  8028  0.90
      L1  H    15    27       P1  7957  0.73
      P1  H 10752 10763       L1     3  0.72

> <Gold.Chemscore.Hbond.Weighted>
-12.6479

> <Gold.Chemscore.Metal.Weighted>
-0.0000

> <Gold.Chemscore.Lipo.Weighted>
-3.7448

> <Gold.Chemscore.Internal_Hbond.Weighted>
0.0000

> <Gold.Chemscore.DEClash.Weighted>
0.2217

> <Gold.Chemscore.DEInternal.Weighted>
1.2896

> <Gold.Chemscore.Rot.Weighted>
9.2828

> <Gold.Chemscore.Internal.Correction.Weighted>
   9.000000E+99

> <Gold.Protein.RotatedTorsions>
[ 6907 6896 6895 6894 ] final   86.26 input  -60.11 | X-H torsion
[ 7974 7965 7964 7962 ] final  -20.70 input  175.53 | X-H torsion
[ 8008 7997 7996 7995 ] final -172.72 input   59.86 | X-H torsion
[ 10167 10162 10161 10158 ] final -171.88 input  -65.29 | X-H torsion
[ 10718 10713 10712 10709 ] final  -22.81 input   66.30 | X-H torsion
[ 10763 10752 10751 10750 ] final   74.46 input  -60.55 | X-H torsion
[ 11005 11000 10999 10996 ] final   22.37 input  -57.11 | X-H torsion

> <Gold.Protein.ActiveResidues>
 VAL166  LYS551  ARG553  GLY616  TRP617  ASP618  TYR619  PRO620  LYS621  CYS622 
 ASP623  PHE694  ASN695  SER759  ASP760  ASP761  ALA762  ILE779  LEU786  VAL792 
 PHE793  MET794  SER795  GLU796  ALA797  LYS798  CYS799  TRP800  GLU811  SER814 

> <Gold.Protein.RotatedAtoms>
  152.5391  134.2459  159.8879 H   0  0  0  0  0  0  0  0  0  0  0  0  # atno 6907 bound_to 6896
  151.2424  133.4386  159.2615 H   0  0  0  0  0  0  0  0  0  0  0  0  # atno 6908 bound_to 6896
  151.0614  134.9753  159.8318 H   0  0  0  0  0  0  0  0  0  0  0  0  # atno 6909 bound_to 6896
  146.1773  140.4239  142.8508 H   0  0  0  0  0  0  0  0  0  0  0  0  # atno 7974 bound_to 7965
  155.9482  140.1121  157.0999 H   0  0  0  0  0  0  0  0  0  0  0  0  # atno 8008 bound_to 7997
  154.4104  140.1205  156.5084 H   0  0  0  0  0  0  0  0  0  0  0  0  # atno 8009 bound_to 7997
  155.6876  140.3473  155.4882 H   0  0  0  0  0  0  0  0  0  0  0  0  # atno 8010 bound_to 7997
  139.5776  144.1496  152.1472 H   0  0  0  0  0  0  0  0  0  0  0  0  # atno 10167 bound_to 10162
  156.4995  130.4585  149.6709 H   0  0  0  0  0  0  0  0  0  0  0  0  # atno 10718 bound_to 10713
  153.0588  135.5025  154.8046 H   0  0  0  0  0  0  0  0  0  0  0  0  # atno 10763 bound_to 10752
  154.6851  135.2975  154.9562 H   0  0  0  0  0  0  0  0  0  0  0  0  # atno 10764 bound_to 10752
  154.0335  135.6726  153.4835 H   0  0  0  0  0  0  0  0  0  0  0  0  # atno 10765 bound_to 10752
  140.3813  134.1917  155.7663 H   0  0  0  0  0  0  0  0  0  0  0  0  # atno 11005 bound_to 11000
  144.8257  140.6625  143.6323 LP  0  0  0  0  0  0  0  0  0  0  0  0  # atno 17320 bound_to 7965
  145.4175  139.1569  143.4092 LP  0  0  0  0  0  0  0  0  0  0  0  0  # atno 17321 bound_to 7965
  140.1042  144.5513  150.6968 LP  0  0  0  0  0  0  0  0  0  0  0  0  # atno 17342 bound_to 10162
  140.7058  143.2467  151.4731 LP  0  0  0  0  0  0  0  0  0  0  0  0  # atno 17343 bound_to 10162
  156.3347  130.7350  151.2285 LP  0  0  0  0  0  0  0  0  0  0  0  0  # atno 17370 bound_to 10713
  157.7464  131.0420  150.4674 LP  0  0  0  0  0  0  0  0  0  0  0  0  # atno 17371 bound_to 10713
  141.1922  133.8177  157.0847 LP  0  0  0  0  0  0  0  0  0  0  0  0  # atno 17394 bound_to 11000
  140.0476  134.9822  157.1078 LP  0  0  0  0  0  0  0  0  0  0  0  0  # atno 17395 bound_to 11000

$$$$
