AV-unprocessed.smi:290|AV-procd|sdf|2244|dock9
  -GOLD-   2262022123D 1   1.00000     0.00000
 Structure written by MMmdl.
 59 62  0  0  0  0  0  0  0  0  2 V2000
  150.4787  139.3683  154.4340 C   0  0  0  0  0  0  0  0  0  0  0  0
  149.7386  139.8242  155.7038 C   0  0  1  0  0  0  0  0  0  0  0  0
  150.6393  139.8672  156.8098 O   0  0  0  0  0  0  0  0  0  0  0  0
  150.6781  141.1772  157.3566 C   0  0  0  0  0  0  0  0  0  0  0  0
  149.3058  141.7546  157.0370 C   0  0  0  0  0  0  0  0  0  0  0  0
  149.0314  141.2022  155.6467 C   0  0  1  0  0  0  0  0  0  0  0  0
  149.6599  142.0555  154.7032 O   0  0  0  0  0  0  0  0  0  0  0  0
  147.5188  141.1391  155.3233 C   0  0  0  0  0  0  0  0  0  0  0  0
  147.1593  140.0286  154.4558 N   0  0  0  0  0  0  0  0  0  0  0  0
  147.1639  140.0258  153.0805 C   0  0  0  0  0  0  0  0  0  0  0  0
  146.8188  138.8960  152.5284 N   0  0  0  0  0  0  0  0  0  0  0  0
  146.5436  138.0529  153.6003 C   0  0  0  0  0  0  0  0  0  0  0  0
  146.1292  136.6923  153.7270 C   0  0  0  0  0  0  0  0  0  0  0  0
  145.9141  135.8453  152.6831 N   0  0  0  0  0  0  0  0  0  0  0  0
  145.3399  136.3118  151.4249 C   0  0  0  0  0  0  0  0  0  0  0  0
  144.9567  135.0475  150.6441 C   0  0  0  0  0  0  0  0  0  0  0  0
  145.6828  133.9108  151.3848 C   0  0  2  0  0  0  0  0  0  0  0  0
  145.1154  132.5418  151.2000 N   0  3  2  0  0  0  0  0  0  0  0  0
  145.7253  131.5585  152.1321 C   0  0  0  0  0  0  0  0  0  0  0  0
  145.1422  132.0515  149.7936 C   0  0  0  0  0  0  0  0  0  0  0  0
  144.0861  132.7439  148.9146 C   0  0  0  0  0  0  0  0  0  0  0  0
  142.8475  132.0767  149.0372 O   0  0  0  0  0  0  0  0  0  0  0  0
  145.6668  134.4185  152.8422 C   0  0  2  0  0  0  0  0  0  0  0  0
  144.3279  134.1636  153.5760 C   0  0  0  0  0  0  0  0  0  0  0  0
  145.9311  136.2227  154.9875 N   0  0  0  0  0  0  0  0  0  0  0  0
  146.1421  137.0050  156.0490 C   0  0  0  0  0  0  0  0  0  0  0  0
  146.5468  138.2745  156.0797 N   0  0  0  0  0  0  0  0  0  0  0  0
  146.7354  138.7630  154.8214 C   0  0  0  0  0  0  0  0  0  0  0  0
  146.7174  133.8973  151.0351 H   0  0  0  0  0  0  0  0  0  0  0  0
  146.4868  133.9514  153.3848 H   0  0  0  0  0  0  0  0  0  0  0  0
  149.8116  139.3347  153.5730 H   0  0  0  0  0  0  0  0  0  0  0  0
  150.8909  138.3682  154.5686 H   0  0  0  0  0  0  0  0  0  0  0  0
  151.3089  140.0328  154.1926 H   0  0  0  0  0  0  0  0  0  0  0  0
  149.0042  139.0622  155.9651 H   0  0  0  0  0  0  0  0  0  0  0  0
  150.8912  141.1597  158.4254 H   0  0  0  0  0  0  0  0  0  0  0  0
  151.4632  141.7494  156.8605 H   0  0  0  0  0  0  0  0  0  0  0  0
  148.5791  141.3639  157.7506 H   0  0  0  0  0  0  0  0  0  0  0  0
  149.2748  142.8437  157.0915 H   0  0  0  0  0  0  0  0  0  0  0  0
  149.3475  142.9360  154.8442 H   0  0  0  0  0  0  0  0  0  0  0  0
  146.9390  141.0559  156.2433 H   0  0  0  0  0  0  0  0  0  0  0  0
  147.1964  142.0646  154.8444 H   0  0  0  0  0  0  0  0  0  0  0  0
  147.4431  140.8908  152.4965 H   0  0  0  0  0  0  0  0  0  0  0  0
  144.4687  136.9482  151.5859 H   0  0  0  0  0  0  0  0  0  0  0  0
  146.0901  136.8883  150.8824 H   0  0  0  0  0  0  0  0  0  0  0  0
  143.8762  134.9030  150.6850 H   0  0  0  0  0  0  0  0  0  0  0  0
  145.2451  135.1256  149.5953 H   0  0  0  0  0  0  0  0  0  0  0  0
  146.7905  131.4405  151.9294 H   0  0  0  0  0  0  0  0  0  0  0  0
  145.2567  130.5794  152.0466 H   0  0  0  0  0  0  0  0  0  0  0  0
  145.6156  131.8645  153.1717 H   0  0  0  0  0  0  0  0  0  0  0  0
  146.1085  132.2219  149.3228 H   0  0  0  0  0  0  0  0  0  0  0  0
  144.9951  130.9706  149.7833 H   0  0  0  0  0  0  0  0  0  0  0  0
  143.9514  133.7746  149.2439 H   0  0  0  0  0  0  0  0  0  0  0  0
  144.3783  132.7854  147.8661 H   0  0  0  0  0  0  0  0  0  0  0  0
  142.1647  132.7229  149.1399 H   0  0  0  0  0  0  0  0  0  0  0  0
  144.1251  133.0994  153.6900 H   0  0  0  0  0  0  0  0  0  0  0  0
  143.4828  134.6048  153.0474 H   0  0  0  0  0  0  0  0  0  0  0  0
  144.3376  134.5890  154.5793 H   0  0  0  0  0  0  0  0  0  0  0  0
  145.9643  136.5469  157.0108 H   0  0  0  0  0  0  0  0  0  0  0  0
  144.1381  132.6171  151.4445 H   0  0  0  0  0  0  0  0  0  0  0  0
  1  2  1  0  0  0  0
  1 31  1  0  0  0  0
  1 32  1  0  0  0  0
  1 33  1  0  0  0  0
  2  6  1  0  0  0  0
  2  3  1  0  0  0  0
  2 34  1  0  0  0  0
  3  4  1  0  0  0  0
  4  5  1  0  0  0  0
  4 35  1  0  0  0  0
  4 36  1  0  0  0  0
  5  6  1  0  0  0  0
  5 37  1  0  0  0  0
  5 38  1  0  0  0  0
  6  7  1  0  0  0  0
  6  8  1  0  0  0  0
  7 39  1  0  0  0  0
  8  9  1  0  0  0  0
  8 40  1  0  0  0  0
  8 41  1  0  0  0  0
  9 28  1  0  0  0  0
  9 10  1  0  0  0  0
 10 11  2  0  0  0  0
 10 42  1  0  0  0  0
 11 12  1  0  0  0  0
 12 28  2  0  0  0  0
 12 13  1  0  0  0  0
 13 14  1  0  0  0  0
 13 25  2  0  0  0  0
 14 23  1  0  0  0  0
 14 15  1  0  0  0  0
 15 16  1  0  0  0  0
 15 43  1  0  0  0  0
 15 44  1  0  0  0  0
 16 17  1  0  0  0  0
 16 45  1  0  0  0  0
 16 46  1  0  0  0  0
 17 29  1  0  0  0  0
 17 18  1  0  0  0  0
 17 23  1  0  0  0  0
 18 19  1  0  0  0  0
 18 20  1  0  0  0  0
 18 59  1  0  0  0  0
 19 47  1  0  0  0  0
 19 48  1  0  0  0  0
 19 49  1  0  0  0  0
 20 21  1  0  0  0  0
 20 50  1  0  0  0  0
 20 51  1  0  0  0  0
 21 22  1  0  0  0  0
 21 52  1  0  0  0  0
 21 53  1  0  0  0  0
 22 54  1  0  0  0  0
 23 30  1  0  0  0  0
 23 24  1  0  0  0  0
 24 55  1  0  0  0  0
 24 56  1  0  0  0  0
 24 57  1  0  0  0  0
 25 26  1  0  0  0  0
 26 27  2  0  0  0  0
 26 58  1  0  0  0  0
 27 28  1  0  0  0  0
M  CHG  1  18   1
M  END
> <s_m_source_file>
AV-unprocessed.smi

> <i_m_source_file_index>
290

> <i_lp_mmshare_version>
43012

> <i_f3d_flags>
0

> <s_epik_input>
W0NIMl0xW0NIMl1PW0NAQEhdKFtDSDNdKVtDQEBdMShbT0hdKVtDSDJdbihbY0hdbjIpYyhjMjMpbltjSF1uYzNONFtDSDJdW0NIMl1bQ0BIXShbQ0BIXTRbQ0gzXSlOKFtDSDNdKVtDSDJdW0NIMl1bT0hd

> <s_epik_cmdline>
J2VwaWtfcHl0aG9uJywgJy1waCcsICc3LjAnLCAnLXRuJywgJzgnLCAnLW1hJywgJzIwMCcsICctbWV0YWxfYmluZGluZycsICctaW1hZScsICc8aW5maWxlLm1hZT4nLCAnLW9tYWUnLCAnPG91dGZpbGUubWFlPic=

> <r_lp_tautomer_probability>
1

> <r_epik_Ionization_Penalty>
0.0036983

> <r_epik_Ionization_Penalty_Charging>
0.0032725

> <r_epik_Ionization_Penalty_Neutral>
0.000425798

> <r_epik_State_Penalty>
-0

> <r_epik_Charging_Adjusted_Penalty>
0.0032725

> <i_epik_Tot_Q>
1

> <i_epik_Tot_abs_Q>
1

> <r_epik_Metal_State_Penalty>
-0

> <b_epik_Metal_Only>
0

> <s_lp_Force_Field>
OPLS_2005

> <r_lp_Energy>
62.044

> <b_lp_Chiralities_Consistent>
1

> <s_lp_Variant>
AV-unprocessed.smi:290-30

> <Gold.Version>
5.8.1

> <Gold.Id.Protein>
6NUR|6NUR_protein|mol2

> <Gold.PLP.Fitness>
44.8733

> <Gold.PLP.PLP>
-37.4674

> <Gold.PLP.part.hbond>
-6.0000

> <Gold.PLP.part.metal>
0.0000

> <Gold.PLP.part.buried>
-0.0659

> <Gold.PLP.part.nonpolar>
-30.8404

> <Gold.PLP.part.repulsive>
0.3541

> <Gold.PLP.ligand.clash>
0.0000

> <Gold.PLP.ligand.torsion>
1.5895

> <Gold.PLP.Chemscore.Hbond>
2.9984

> <Gold.PLP.Chemscore.CHOScore>
0.4114

> <Gold.PLP.Chemscore.Metal>
0.0000

> <Gold.Chemscore.Hbonds>
donor molecule, donor type, donor heavy atom, donor atom, acceptor molecule, acceptor atom, score
      L1  H     7    39       P1  8028  1.00
      L1  H    22    54       P1 10186  0.88
      P1  H  8011  8017       L1     7  0.02
      P1  H 10785 10796       L1    22  1.00
      L1  C    10    42       P1  7957  0.32

> <Gold.PLP.Chemscore.Internal.Correction>
0.3555

> <Gold.Rescore>
     Score         DG    S(hbond)    S(metal)    S(lipo)     H(rot)  DE(clash)    DE(int)     intcor
     11.77     -15.50       2.68        0.00      82.35       3.35       0.15       3.58       ----

> <Gold.Chemscore.Fitness>
11.7697

> <Gold.Chemscore.DG>
-15.4964

> <Gold.Chemscore.ZeroCoef>
-5.4800

> <Gold.Chemscore.Hbond>
2.6832

> <Gold.Chemscore.Metal>
0.0000

> <Gold.Chemscore.Lipo>
82.3502

> <Gold.Chemscore.Internal_Hbond>
0.0000

> <Gold.Chemscore.DEClash>
0.1490

> <Gold.Chemscore.DEInternal>
3.5777

> <Gold.Chemscore.Rot>
3.3518

> <Gold.Chemscore.Internal.Correction>
   9.000000E+99

> <Gold.Chemscore.Hbonds>
donor molecule, donor type, donor heavy atom, donor atom, acceptor molecule, acceptor atom, score
      L1  H     7    39       P1  8028  0.96
      L1  H    22    54       P1 10186  0.86
      P1  H 10785 10796       L1    22  0.58

> <Gold.Chemscore.Hbond.Weighted>
-8.9619

> <Gold.Chemscore.Metal.Weighted>
-0.0000

> <Gold.Chemscore.Lipo.Weighted>
-9.6350

> <Gold.Chemscore.Internal_Hbond.Weighted>
0.0000

> <Gold.Chemscore.DEClash.Weighted>
0.1490

> <Gold.Chemscore.DEInternal.Weighted>
3.5777

> <Gold.Chemscore.Rot.Weighted>
8.5806

> <Gold.Chemscore.Internal.Correction.Weighted>
   9.000000E+99

> <Gold.Protein.RotatedTorsions>
[ 6907 6896 6895 6894 ] final  -68.15 input  -60.11 | X-H torsion
[ 7974 7965 7964 7962 ] final    4.71 input  175.53 | X-H torsion
[ 8008 7997 7996 7995 ] final -178.79 input   59.86 | X-H torsion
[ 10167 10162 10161 10158 ] final   49.71 input  -65.29 | X-H torsion
[ 10718 10713 10712 10709 ] final   20.49 input   66.30 | X-H torsion
[ 10763 10752 10751 10750 ] final -147.85 input  -60.55 | X-H torsion
[ 11005 11000 10999 10996 ] final -113.50 input  -57.11 | X-H torsion

> <Gold.Protein.ActiveResidues>
 VAL166  LYS551  ARG553  GLY616  TRP617  ASP618  TYR619  PRO620  LYS621  CYS622 
 ASP623  PHE694  ASN695  SER759  ASP760  ASP761  ALA762  ILE779  LEU786  VAL792 
 PHE793  MET794  SER795  GLU796  ALA797  LYS798  CYS799  TRP800  GLU811  SER814 

> <Gold.Protein.RotatedAtoms>
  150.7371  134.5779  159.5923 H   0  0  0  0  0  0  0  0  0  0  0  0  # atno 6907 bound_to 6896
  152.3201  134.7388  160.0325 H   0  0  0  0  0  0  0  0  0  0  0  0  # atno 6908 bound_to 6896
  151.7907  133.3323  159.3535 H   0  0  0  0  0  0  0  0  0  0  0  0  # atno 6909 bound_to 6896
  146.2443  140.0493  142.8376 H   0  0  0  0  0  0  0  0  0  0  0  0  # atno 7974 bound_to 7965
  156.0230  140.1265  157.0337 H   0  0  0  0  0  0  0  0  0  0  0  0  # atno 8008 bound_to 7997
  154.4319  140.1065  156.6061 H   0  0  0  0  0  0  0  0  0  0  0  0  # atno 8009 bound_to 7997
  155.5917  140.3469  155.4570 H   0  0  0  0  0  0  0  0  0  0  0  0  # atno 8010 bound_to 7997
  140.2801  144.3166  150.6266 H   0  0  0  0  0  0  0  0  0  0  0  0  # atno 10167 bound_to 10162
  157.1253  130.6567  149.5935 H   0  0  0  0  0  0  0  0  0  0  0  0  # atno 10718 bound_to 10713
  154.8264  135.3349  154.6882 H   0  0  0  0  0  0  0  0  0  0  0  0  # atno 10763 bound_to 10752
  153.7508  135.6939  153.4950 H   0  0  0  0  0  0  0  0  0  0  0  0  # atno 10764 bound_to 10752
  153.2178  135.4459  155.0405 H   0  0  0  0  0  0  0  0  0  0  0  0  # atno 10765 bound_to 10752
  141.0611  133.9534  157.2666 H   0  0  0  0  0  0  0  0  0  0  0  0  # atno 11005 bound_to 11000
  145.0999  140.9339  143.4719 LP  0  0  0  0  0  0  0  0  0  0  0  0  # atno 17320 bound_to 7965
  145.0684  139.3051  143.5845 LP  0  0  0  0  0  0  0  0  0  0  0  0  # atno 17321 bound_to 7965
  140.5819  143.2172  151.7413 LP  0  0  0  0  0  0  0  0  0  0  0  0  # atno 17342 bound_to 10162
  139.4965  144.4068  152.0123 LP  0  0  0  0  0  0  0  0  0  0  0  0  # atno 17343 bound_to 10162
  155.9819  130.4830  150.6856 LP  0  0  0  0  0  0  0  0  0  0  0  0  # atno 17370 bound_to 10713
  157.4441  131.0865  151.0914 LP  0  0  0  0  0  0  0  0  0  0  0  0  # atno 17371 bound_to 10713
  139.9433  135.0188  156.8775 LP  0  0  0  0  0  0  0  0  0  0  0  0  # atno 17394 bound_to 11000
  140.5867  134.0300  155.7484 LP  0  0  0  0  0  0  0  0  0  0  0  0  # atno 17395 bound_to 11000

$$$$
