AV-unprocessed.smi:452|AV-procd|sdf|2610|dock10
  -GOLD-   2262023 13D 1   1.00000     0.00000
 Structure written by MMmdl.
 43 44  0  0  0  0  0  0  0  0  1 V2000
  144.6695  135.3782  152.7780 C   0  0  0  0  0  0  0  0  0  0  0  0
  145.9525  136.2130  152.9119 C   0  0  0  0  0  0  0  0  0  0  0  0
  146.5475  136.0494  154.3209 C   0  0  0  0  0  0  0  0  0  0  0  0
  145.6823  137.6886  152.5510 C   0  0  0  0  0  0  0  0  0  0  0  0
  146.9568  138.5433  152.3986 C   0  0  0  0  0  0  0  0  0  0  0  0
  147.4297  139.1407  153.7281 C   0  0  0  0  0  0  0  0  0  0  0  0
  146.7302  139.0238  154.7346 O   0  0  0  0  0  0  0  0  0  0  0  0
  148.6159  139.7768  153.6915 N   0  0  0  0  0  0  0  0  0  0  0  0
  149.3088  140.4141  154.7548 C   0  0  0  0  0  0  0  0  0  0  0  0
  148.4824  140.9806  155.7505 C   0  0  0  0  0  0  0  0  0  0  0  0
  149.0702  141.6425  156.8451 C   0  0  0  0  0  0  0  0  0  0  0  0
  150.4737  141.7205  156.9242 C   0  0  0  0  0  0  0  0  0  0  0  0
  151.0756  142.3876  158.0007 N   0  0  0  0  0  0  0  0  0  0  0  0
  151.5639  143.7134  157.6435 C   0  0  0  0  0  0  0  0  0  0  0  0
  152.0949  144.4349  158.8948 C   0  0  0  0  0  0  0  0  0  0  0  0
  153.0956  143.6360  159.5200 O   0  0  0  0  0  0  0  0  0  0  0  0
  152.5878  142.3706  159.9335 C   0  0  0  0  0  0  0  0  0  0  0  0
  152.0757  141.5957  158.7066 C   0  0  0  0  0  0  0  0  0  0  0  0
  151.2227  141.1234  155.8860 C   0  0  0  0  0  0  0  0  0  0  0  0
  150.6601  140.4909  154.8351 N   0  0  0  0  0  0  0  0  0  0  0  0
  143.8973  135.7272  153.4646 H   0  0  0  0  0  0  0  0  0  0  0  0
  144.8586  134.3268  152.9964 H   0  0  0  0  0  0  0  0  0  0  0  0
  144.2655  135.4338  151.7668 H   0  0  0  0  0  0  0  0  0  0  0  0
  146.6728  135.8155  152.1954 H   0  0  0  0  0  0  0  0  0  0  0  0
  145.8867  136.4681  155.0805 H   0  0  0  0  0  0  0  0  0  0  0  0
  147.5158  136.5402  154.4123 H   0  0  0  0  0  0  0  0  0  0  0  0
  146.7009  134.9966  154.5602 H   0  0  0  0  0  0  0  0  0  0  0  0
  145.1280  137.7188  151.6115 H   0  0  0  0  0  0  0  0  0  0  0  0
  145.0257  138.1332  153.3005 H   0  0  0  0  0  0  0  0  0  0  0  0
  147.7623  137.9458  151.9712 H   0  0  0  0  0  0  0  0  0  0  0  0
  146.7734  139.3626  151.7028 H   0  0  0  0  0  0  0  0  0  0  0  0
  149.0837  139.7948  152.7973 H   0  0  0  0  0  0  0  0  0  0  0  0
  147.4064  140.9149  155.6785 H   0  0  0  0  0  0  0  0  0  0  0  0
  148.4492  142.0846  157.6107 H   0  0  0  0  0  0  0  0  0  0  0  0
  152.3587  143.6261  156.9013 H   0  0  0  0  0  0  0  0  0  0  0  0
  150.7604  144.2951  157.1899 H   0  0  0  0  0  0  0  0  0  0  0  0
  152.5277  145.3965  158.6189 H   0  0  0  0  0  0  0  0  0  0  0  0
  151.2859  144.6389  159.5981 H   0  0  0  0  0  0  0  0  0  0  0  0
  153.3829  141.8118  160.4272 H   0  0  0  0  0  0  0  0  0  0  0  0
  151.7917  142.5085  160.6671 H   0  0  0  0  0  0  0  0  0  0  0  0
  151.6417  140.6452  159.0191 H   0  0  0  0  0  0  0  0  0  0  0  0
  152.9102  141.3683  158.0422 H   0  0  0  0  0  0  0  0  0  0  0  0
  152.3023  141.1589  155.8898 H   0  0  0  0  0  0  0  0  0  0  0  0
  1  2  1  0  0  0  0
  1 21  1  0  0  0  0
  1 22  1  0  0  0  0
  1 23  1  0  0  0  0
  2  3  1  0  0  0  0
  2  4  1  0  0  0  0
  2 24  1  0  0  0  0
  3 25  1  0  0  0  0
  3 26  1  0  0  0  0
  3 27  1  0  0  0  0
  4  5  1  0  0  0  0
  4 28  1  0  0  0  0
  4 29  1  0  0  0  0
  5  6  1  0  0  0  0
  5 30  1  0  0  0  0
  5 31  1  0  0  0  0
  6  7  2  0  0  0  0
  6  8  1  0  0  0  0
  8  9  1  0  0  0  0
  8 32  1  0  0  0  0
  9 20  1  0  0  0  0
  9 10  2  0  0  0  0
 10 11  1  0  0  0  0
 10 33  1  0  0  0  0
 11 12  2  0  0  0  0
 11 34  1  0  0  0  0
 12 13  1  0  0  0  0
 12 19  1  0  0  0  0
 13 18  1  0  0  0  0
 13 14  1  0  0  0  0
 14 15  1  0  0  0  0
 14 35  1  0  0  0  0
 14 36  1  0  0  0  0
 15 16  1  0  0  0  0
 15 37  1  0  0  0  0
 15 38  1  0  0  0  0
 16 17  1  0  0  0  0
 17 18  1  0  0  0  0
 17 39  1  0  0  0  0
 17 40  1  0  0  0  0
 18 41  1  0  0  0  0
 18 42  1  0  0  0  0
 19 20  2  0  0  0  0
 19 43  1  0  0  0  0
M  END
> <s_m_source_file>
AV-unprocessed.smi

> <i_m_source_file_index>
452

> <i_lp_mmshare_version>
43012

> <i_f3d_flags>
0

> <s_epik_input>
W0NIM11bQ0hdKFtDSDNdKVtDSDJdW0NIMl1DKD1PKVtOSF1jMVtjSF1bY0hdYyhbY0hdbjEpTjJbQ0gyXVtDSDJdT1tDSDJdW0NIMl0y

> <s_epik_cmdline>
J2VwaWtfcHl0aG9uJywgJy1waCcsICc3LjAnLCAnLXRuJywgJzgnLCAnLW1hJywgJzIwMCcsICctbWV0YWxfYmluZGluZycsICctaW1hZScsICc8aW5maWxlLm1hZT4nLCAnLW9tYWUnLCAnPG91dGZpbGUubWFlPic=

> <r_lp_tautomer_probability>
1

> <r_epik_Ionization_Penalty>
0.0030116

> <r_epik_Ionization_Penalty_Charging>
0

> <r_epik_Ionization_Penalty_Neutral>
0.0030116

> <r_epik_State_Penalty>
0.00263935

> <r_epik_Charging_Adjusted_Penalty>
0.00263935

> <i_epik_Tot_Q>
0

> <i_epik_Tot_abs_Q>
0

> <r_epik_Metal_State_Penalty>
-0

> <b_epik_Metal_Only>
0

> <s_lp_Force_Field>
OPLS_2005

> <r_lp_Energy>
28.4973

> <b_lp_Chiralities_Consistent>
1

> <s_lp_Variant>
AV-unprocessed.smi:452-1

> <Gold.Version>
5.8.1

> <Gold.Id.Protein>
6NUR|6NUR_protein|mol2

> <Gold.PLP.Fitness>
39.7863

> <Gold.PLP.PLP>
-35.1172

> <Gold.PLP.part.hbond>
-2.0000

> <Gold.PLP.part.metal>
0.0000

> <Gold.PLP.part.buried>
-3.4919

> <Gold.PLP.part.nonpolar>
-29.1529

> <Gold.PLP.part.repulsive>
0.3248

> <Gold.PLP.ligand.clash>
0.0000

> <Gold.PLP.ligand.torsion>
0.7188

> <Gold.PLP.Chemscore.Hbond>
2.0000

> <Gold.PLP.Chemscore.CHOScore>
0.0000

> <Gold.PLP.Chemscore.Metal>
0.0000

> <Gold.Chemscore.Hbonds>
donor molecule, donor type, donor heavy atom, donor atom, acceptor molecule, acceptor atom, score
      L1  H     8    32       P1  7957  1.00
      P1  H  7989  7998       L1    20  1.00

> <Gold.PLP.Chemscore.Internal.Correction>
0.1067

> <Gold.Rescore>
     Score         DG    S(hbond)    S(metal)    S(lipo)     H(rot)  DE(clash)    DE(int)     intcor
     15.67     -18.01       1.78        0.00      87.77       1.43       0.23       2.11       ----

> <Gold.Chemscore.Fitness>
15.6704

> <Gold.Chemscore.DG>
-18.0119

> <Gold.Chemscore.ZeroCoef>
-5.4800

> <Gold.Chemscore.Hbond>
1.7759

> <Gold.Chemscore.Metal>
0.0000

> <Gold.Chemscore.Lipo>
87.7723

> <Gold.Chemscore.Internal_Hbond>
0.0000

> <Gold.Chemscore.DEClash>
0.2317

> <Gold.Chemscore.DEInternal>
2.1098

> <Gold.Chemscore.Rot>
1.4332

> <Gold.Chemscore.Internal.Correction>
   9.000000E+99

> <Gold.Chemscore.Hbonds>
donor molecule, donor type, donor heavy atom, donor atom, acceptor molecule, acceptor atom, score
      L1  H     8    32       P1  7957  1.00
      P1  H  7989  7998       L1    20  0.48

> <Gold.Chemscore.Hbond.Weighted>
-5.9315

> <Gold.Chemscore.Metal.Weighted>
-0.0000

> <Gold.Chemscore.Lipo.Weighted>
-10.2694

> <Gold.Chemscore.Internal_Hbond.Weighted>
0.0000

> <Gold.Chemscore.DEClash.Weighted>
0.2317

> <Gold.Chemscore.DEInternal.Weighted>
2.1098

> <Gold.Chemscore.Rot.Weighted>
3.6689

> <Gold.Chemscore.Internal.Correction.Weighted>
   9.000000E+99

> <Gold.Protein.RotatedTorsions>
[ 6907 6896 6895 6894 ] final  134.80 input  -60.11 | X-H torsion
[ 7974 7965 7964 7962 ] final -162.42 input  175.53 | X-H torsion
[ 8008 7997 7996 7995 ] final  -52.58 input   59.86 | X-H torsion
[ 10167 10162 10161 10158 ] final  -45.27 input  -65.29 | X-H torsion
[ 10718 10713 10712 10709 ] final   75.05 input   66.30 | X-H torsion
[ 10763 10752 10751 10750 ] final -116.75 input  -60.55 | X-H torsion
[ 11005 11000 10999 10996 ] final   25.90 input  -57.11 | X-H torsion

> <Gold.Protein.ActiveResidues>
 VAL166  LYS551  ARG553  GLY616  TRP617  ASP618  TYR619  PRO620  LYS621  CYS622 
 ASP623  PHE694  ASN695  SER759  ASP760  ASP761  ALA762  ILE779  LEU786  VAL792 
 PHE793  MET794  SER795  GLU796  ALA797  LYS798  CYS799  TRP800  GLU811  SER814 

> <Gold.Protein.RotatedAtoms>
  152.3074  133.5717  159.5657 H   0  0  0  0  0  0  0  0  0  0  0  0  # atno 6907 bound_to 6896
  150.7306  134.0203  159.3708 H   0  0  0  0  0  0  0  0  0  0  0  0  # atno 6908 bound_to 6896
  151.8098  135.0684  160.0462 H   0  0  0  0  0  0  0  0  0  0  0  0  # atno 6909 bound_to 6896
  144.7358  140.3255  143.6163 H   0  0  0  0  0  0  0  0  0  0  0  0  # atno 7974 bound_to 7965
  154.4110  140.1220  156.5015 H   0  0  0  0  0  0  0  0  0  0  0  0  # atno 8008 bound_to 7997
  155.6890  140.3495  155.4866 H   0  0  0  0  0  0  0  0  0  0  0  0  # atno 8009 bound_to 7997
  155.9486  140.1100  157.0986 H   0  0  0  0  0  0  0  0  0  0  0  0  # atno 8010 bound_to 7997
  140.6864  143.2888  151.3615 H   0  0  0  0  0  0  0  0  0  0  0  0  # atno 10167 bound_to 10162
  157.6618  130.9708  150.1298 H   0  0  0  0  0  0  0  0  0  0  0  0  # atno 10718 bound_to 10713
  154.8530  135.4334  154.1870 H   0  0  0  0  0  0  0  0  0  0  0  0  # atno 10763 bound_to 10752
  153.2947  135.6964  153.7265 H   0  0  0  0  0  0  0  0  0  0  0  0  # atno 10764 bound_to 10752
  153.6418  135.3466  155.3048 H   0  0  0  0  0  0  0  0  0  0  0  0  # atno 10765 bound_to 10752
  140.3428  134.2314  155.7688 H   0  0  0  0  0  0  0  0  0  0  0  0  # atno 11005 bound_to 11000
  145.7525  139.1798  143.2313 LP  0  0  0  0  0  0  0  0  0  0  0  0  # atno 17320 bound_to 7965
  146.1050  140.7498  142.9531 LP  0  0  0  0  0  0  0  0  0  0  0  0  # atno 17321 bound_to 7965
  139.6227  144.0875  152.2406 LP  0  0  0  0  0  0  0  0  0  0  0  0  # atno 17342 bound_to 10162
  140.0325  144.6070  150.7477 LP  0  0  0  0  0  0  0  0  0  0  0  0  # atno 17343 bound_to 10162
  156.2148  130.3669  149.8626 LP  0  0  0  0  0  0  0  0  0  0  0  0  # atno 17370 bound_to 10713
  156.6495  130.8738  151.3529 LP  0  0  0  0  0  0  0  0  0  0  0  0  # atno 17371 bound_to 10713
  141.2034  133.7914  157.0343 LP  0  0  0  0  0  0  0  0  0  0  0  0  # atno 17394 bound_to 11000
  140.0767  134.9672  157.1557 LP  0  0  0  0  0  0  0  0  0  0  0  0  # atno 17395 bound_to 11000

$$$$
