AV-unprocessed.smi:718|AV-procd|sdf|3491|dock3
  -GOLD-   22720 0483D 1   1.00000     0.00000
 Structure written by MMmdl.
 27 28  0  0  0  0  0  0  0  0  1 V2000
  152.5210  139.1656  158.2646 O   0  0  0  0  0  0  0  0  0  0  0  0
  152.2204  140.1498  157.5881 C   0  0  0  0  0  0  0  0  0  0  0  0
  152.1609  141.4080  158.0657 N   0  0  0  0  0  0  0  0  0  0  0  0
  152.4419  141.8693  159.3789 C   0  0  0  0  0  0  0  0  0  0  0  0
  153.3136  141.0471  160.1275 C   0  0  0  0  0  0  0  0  0  0  0  0
  153.6565  141.4147  161.4435 C   0  0  0  0  0  0  0  0  0  0  0  0
  154.7218  140.4161  162.3668 Cl  0  0  0  0  0  0  0  0  0  0  0  0
  153.1156  142.6014  161.9782 C   0  0  0  0  0  0  0  0  0  0  0  0
  153.4845  143.1246  163.5826 Cl  0  0  0  0  0  0  0  0  0  0  0  0
  152.2558  143.3616  161.1640 C   0  0  0  0  0  0  0  0  0  0  0  0
  151.9272  143.0093  159.9032 N   0  0  0  0  0  0  0  0  0  0  0  0
  151.8546  139.9784  156.1056 C   0  0  2  0  0  0  0  0  0  0  0  0
  150.4791  140.5902  155.7515 C   0  0  0  0  0  0  0  0  0  0  0  0
  150.1999  140.3578  154.3770 O   0  0  0  0  0  0  0  0  0  0  0  0
  150.1715  138.9687  154.0811 C   0  0  0  0  0  0  0  0  0  0  0  0
  151.5418  138.3595  154.4189 C   0  0  0  0  0  0  0  0  0  0  0  0
  151.8227  138.5870  155.7935 O   0  0  0  0  0  0  0  0  0  0  0  0
  151.8933  142.1195  157.4013 H   0  0  0  0  0  0  0  0  0  0  0  0
  153.7181  140.1410  159.6999 H   0  0  0  0  0  0  0  0  0  0  0  0
  151.8191  144.2781  161.5325 H   0  0  0  0  0  0  0  0  0  0  0  0
  152.6357  140.4613  155.5157 H   0  0  0  0  0  0  0  0  0  0  0  0
  149.6860  140.1664  156.3701 H   0  0  0  0  0  0  0  0  0  0  0  0
  150.4789  141.6673  155.9219 H   0  0  0  0  0  0  0  0  0  0  0  0
  149.3767  138.4778  154.6449 H   0  0  0  0  0  0  0  0  0  0  0  0
  149.9464  138.8341  153.0232 H   0  0  0  0  0  0  0  0  0  0  0  0
  151.5362  137.2860  154.2294 H   0  0  0  0  0  0  0  0  0  0  0  0
  152.3261  138.7929  153.7963 H   0  0  0  0  0  0  0  0  0  0  0  0
  1  2  2  0  0  0  0
  2  3  1  0  0  0  0
  2 12  1  0  0  0  0
  3  4  1  0  0  0  0
  3 18  1  0  0  0  0
  4 11  1  0  0  0  0
  4  5  2  0  0  0  0
  5  6  1  0  0  0  0
  5 19  1  0  0  0  0
  6  7  1  0  0  0  0
  6  8  2  0  0  0  0
  8  9  1  0  0  0  0
  8 10  1  0  0  0  0
 10 11  2  0  0  0  0
 10 20  1  0  0  0  0
 12 17  1  0  0  0  0
 12 13  1  0  0  0  0
 12 21  1  0  0  0  0
 13 14  1  0  0  0  0
 13 22  1  0  0  0  0
 13 23  1  0  0  0  0
 14 15  1  0  0  0  0
 15 16  1  0  0  0  0
 15 24  1  0  0  0  0
 15 25  1  0  0  0  0
 16 17  1  0  0  0  0
 16 26  1  0  0  0  0
 16 27  1  0  0  0  0
M  END
> <s_m_source_file>
AV-unprocessed.smi

> <i_m_source_file_index>
718

> <i_lp_mmshare_version>
43012

> <i_f3d_flags>
0

> <s_epik_input>
TzFbQ0gyXVtDSDJdT1tDSDJdW0NASF0xQyg9TylbTkhdYzJbY0hdYyhDbCljKENsKVtjSF1uMg==

> <s_epik_cmdline>
J2VwaWtfcHl0aG9uJywgJy1waCcsICc3LjAnLCAnLXRuJywgJzgnLCAnLW1hJywgJzIwMCcsICctbWV0YWxfYmluZGluZycsICctaW1hZScsICc8aW5maWxlLm1hZT4nLCAnLW9tYWUnLCAnPG91dGZpbGUubWFlPic=

> <r_lp_tautomer_probability>
1

> <r_epik_Ionization_Penalty>
4.81693e-06

> <r_epik_Ionization_Penalty_Charging>
0

> <r_epik_Ionization_Penalty_Neutral>
4.81693e-06

> <r_epik_State_Penalty>
-0

> <r_epik_Charging_Adjusted_Penalty>
0

> <i_epik_Tot_Q>
0

> <i_epik_Tot_abs_Q>
0

> <r_epik_Metal_State_Penalty>
-0

> <b_epik_Metal_Only>
0

> <s_lp_Force_Field>
OPLS_2005

> <r_lp_Energy>
11.6855

> <b_lp_Chiralities_Consistent>
1

> <s_lp_Variant>
AV-unprocessed.smi:718-1

> <Gold.Version>
5.8.1

> <Gold.Id.Protein>
6NUR|6NUR_protein|mol2

> <Gold.PLP.Fitness>
42.3238

> <Gold.PLP.PLP>
-39.7141

> <Gold.PLP.part.hbond>
-1.0000

> <Gold.PLP.part.metal>
0.0000

> <Gold.PLP.part.buried>
-3.9962

> <Gold.PLP.part.nonpolar>
-33.4855

> <Gold.PLP.part.repulsive>
0.1979

> <Gold.PLP.ligand.clash>
0.0000

> <Gold.PLP.ligand.torsion>
0.1960

> <Gold.PLP.Chemscore.Hbond>
1.0000

> <Gold.PLP.Chemscore.CHOScore>
0.0000

> <Gold.PLP.Chemscore.Metal>
0.0000

> <Gold.Chemscore.Hbonds>
donor molecule, donor type, donor heavy atom, donor atom, acceptor molecule, acceptor atom, score
      P1  H  7989  7998       L1    14  0.96

> <Gold.PLP.Chemscore.Internal.Correction>
0.0018

> <Gold.Rescore>
     Score         DG    S(hbond)    S(metal)    S(lipo)     H(rot)  DE(clash)    DE(int)     intcor
     14.50     -16.42       0.80        0.00      92.40       1.00       0.00       1.91       ----

> <Gold.Chemscore.Fitness>
14.5018

> <Gold.Chemscore.DG>
-16.4174

> <Gold.Chemscore.ZeroCoef>
-5.4800

> <Gold.Chemscore.Hbond>
0.8045

> <Gold.Chemscore.Metal>
0.0000

> <Gold.Chemscore.Lipo>
92.3951

> <Gold.Chemscore.Internal_Hbond>
0.0000

> <Gold.Chemscore.DEClash>
0.0048

> <Gold.Chemscore.DEInternal>
1.9108

> <Gold.Chemscore.Rot>
1.0000

> <Gold.Chemscore.Internal.Correction>
   9.000000E+99

> <Gold.Chemscore.Hbonds>
donor molecule, donor type, donor heavy atom, donor atom, acceptor molecule, acceptor atom, score
      P1  H  7989  7998       L1    14  0.19

> <Gold.Chemscore.Hbond.Weighted>
-2.6871

> <Gold.Chemscore.Metal.Weighted>
-0.0000

> <Gold.Chemscore.Lipo.Weighted>
-10.8102

> <Gold.Chemscore.Internal_Hbond.Weighted>
0.0000

> <Gold.Chemscore.DEClash.Weighted>
0.0048

> <Gold.Chemscore.DEInternal.Weighted>
1.9108

> <Gold.Chemscore.Rot.Weighted>
2.5600

> <Gold.Chemscore.Internal.Correction.Weighted>
   9.000000E+99

> <Gold.Protein.RotatedTorsions>
[ 6907 6896 6895 6894 ] final  -29.08 input  -60.11 | X-H torsion
[ 7974 7965 7964 7962 ] final  -12.22 input  175.53 | X-H torsion
[ 8008 7997 7996 7995 ] final  -70.69 input   59.86 | X-H torsion
[ 10167 10162 10161 10158 ] final -120.49 input  -65.29 | X-H torsion
[ 10718 10713 10712 10709 ] final  117.15 input   66.30 | X-H torsion
[ 10763 10752 10751 10750 ] final  103.04 input  -60.55 | X-H torsion
[ 11005 11000 10999 10996 ] final  -11.58 input  -57.11 | X-H torsion

> <Gold.Protein.ActiveResidues>
 VAL166  LYS551  ARG553  GLY616  TRP617  ASP618  TYR619  PRO620  LYS621  CYS622 
 ASP623  PHE694  ASN695  SER759  ASP760  ASP761  ALA762  ILE779  LEU786  VAL792 
 PHE793  MET794  SER795  GLU796  ALA797  LYS798  CYS799  TRP800  GLU811  SER814 

> <Gold.Protein.RotatedAtoms>
  151.1242  135.0095  159.8552 H   0  0  0  0  0  0  0  0  0  0  0  0  # atno 6907 bound_to 6896
  152.5449  134.1687  159.8598 H   0  0  0  0  0  0  0  0  0  0  0  0  # atno 6908 bound_to 6896
  151.1748  133.4717  159.2627 H   0  0  0  0  0  0  0  0  0  0  0  0  # atno 6909 bound_to 6896
  146.2160  140.3025  142.8376 H   0  0  0  0  0  0  0  0  0  0  0  0  # atno 7974 bound_to 7965
  154.5031  140.0829  156.7838 H   0  0  0  0  0  0  0  0  0  0  0  0  # atno 8008 bound_to 7997
  155.3957  140.3434  155.4236 H   0  0  0  0  0  0  0  0  0  0  0  0  # atno 8009 bound_to 7997
  156.1481  140.1550  156.8802 H   0  0  0  0  0  0  0  0  0  0  0  0  # atno 8010 bound_to 7997
  140.0353  143.5208  152.2157 H   0  0  0  0  0  0  0  0  0  0  0  0  # atno 10167 bound_to 10162
  157.6115  131.1034  150.7574 H   0  0  0  0  0  0  0  0  0  0  0  0  # atno 10718 bound_to 10713
  153.3474  135.3990  155.1620 H   0  0  0  0  0  0  0  0  0  0  0  0  # atno 10763 bound_to 10752
  154.8656  135.3648  154.5266 H   0  0  0  0  0  0  0  0  0  0  0  0  # atno 10764 bound_to 10752
  153.5715  135.7079  153.5562 H   0  0  0  0  0  0  0  0  0  0  0  0  # atno 10765 bound_to 10752
  140.7567  133.8548  155.9090 H   0  0  0  0  0  0  0  0  0  0  0  0  # atno 11005 bound_to 11000
  144.9047  140.7685  143.5845 LP  0  0  0  0  0  0  0  0  0  0  0  0  # atno 17320 bound_to 7965
  145.2953  139.1869  143.4719 LP  0  0  0  0  0  0  0  0  0  0  0  0  # atno 17321 bound_to 7965
  139.6049  144.7593  151.3084 LP  0  0  0  0  0  0  0  0  0  0  0  0  # atno 17342 bound_to 10162
  140.7284  143.6936  150.7902 LP  0  0  0  0  0  0  0  0  0  0  0  0  # atno 17343 bound_to 10162
  156.7951  130.4902  149.5378 LP  0  0  0  0  0  0  0  0  0  0  0  0  # atno 17370 bound_to 10713
  156.1220  130.6116  151.0207 LP  0  0  0  0  0  0  0  0  0  0  0  0  # atno 17371 bound_to 10713
  140.9701  134.1543  157.4583 LP  0  0  0  0  0  0  0  0  0  0  0  0  # atno 17394 bound_to 11000
  139.8778  134.9975  156.5852 LP  0  0  0  0  0  0  0  0  0  0  0  0  # atno 17395 bound_to 11000

$$$$
