AV-unprocessed.smi:329|AV-procd|sdf|2348|dock10
  -GOLD-   2262022263D 1   1.00000     0.00000
 Structure written by MMmdl.
 18 18  0  0  0  0  0  0  0  0  1 V2000
  148.2810  131.7780  152.6095 N   0  0  0  0  0  0  0  0  0  0  0  0
  147.7702  133.0046  152.7401 C   0  0  0  0  0  0  0  0  0  0  0  0
  147.8252  133.6217  153.8031 O   0  0  0  0  0  0  0  0  0  0  0  0
  147.1047  133.6015  151.4929 C   0  0  0  0  0  0  0  0  0  0  0  0
  145.8760  132.9169  151.1234 N   0  0  0  0  0  0  0  0  0  0  0  0
  144.8705  133.3535  150.2851 C   0  0  0  0  0  0  0  0  0  0  0  0
  143.9251  132.3695  150.2392 C   0  0  0  0  0  0  0  0  0  0  0  0
  142.7266  132.3883  149.5015 N   0  0  0  0  0  0  0  0  0  0  0  0
  144.4454  131.3586  151.0952 C   0  0  0  0  0  0  0  0  0  0  0  0
  145.6123  131.6897  151.6244 N   0  0  0  0  0  0  0  0  0  0  0  0
  148.7321  131.3383  153.3987 H   0  0  0  0  0  0  0  0  0  0  0  0
  148.2171  131.2950  151.7251 H   0  0  0  0  0  0  0  0  0  0  0  0
  146.8904  134.6581  151.6626 H   0  0  0  0  0  0  0  0  0  0  0  0
  147.7969  133.5450  150.6519 H   0  0  0  0  0  0  0  0  0  0  0  0
  144.9159  134.3148  149.7946 H   0  0  0  0  0  0  0  0  0  0  0  0
  142.4695  133.1753  148.9232 H   0  0  0  0  0  0  0  0  0  0  0  0
  142.0457  131.6457  149.5710 H   0  0  0  0  0  0  0  0  0  0  0  0
  144.0131  130.4012  151.3464 H   0  0  0  0  0  0  0  0  0  0  0  0
  1  2  1  0  0  0  0
  1 11  1  0  0  0  0
  1 12  1  0  0  0  0
  2  3  2  0  0  0  0
  2  4  1  0  0  0  0
  4  5  1  0  0  0  0
  4 13  1  0  0  0  0
  4 14  1  0  0  0  0
  5 10  1  0  0  0  0
  5  6  1  0  0  0  0
  6  7  2  0  0  0  0
  6 15  1  0  0  0  0
  7  8  1  0  0  0  0
  7  9  1  0  0  0  0
  8 16  1  0  0  0  0
  8 17  1  0  0  0  0
  9 10  2  0  0  0  0
  9 18  1  0  0  0  0
M  END
> <s_m_source_file>
AV-unprocessed.smi

> <i_m_source_file_index>
329

> <i_lp_mmshare_version>
43012

> <i_f3d_flags>
0

> <s_epik_input>
W05IMl1DKD1PKVtDSDJdbjFbY0hdYyhbTkgyXSlbY0hdbjE=

> <s_epik_cmdline>
J2VwaWtfcHl0aG9uJywgJy1waCcsICc3LjAnLCAnLXRuJywgJzgnLCAnLW1hJywgJzIwMCcsICctbWV0YWxfYmluZGluZycsICctaW1hZScsICc8aW5maWxlLm1hZT4nLCAnLW9tYWUnLCAnPG91dGZpbGUubWFlPic=

> <r_lp_tautomer_probability>
1

> <r_epik_Ionization_Penalty>
9.33273e-05

> <r_epik_Ionization_Penalty_Charging>
0

> <r_epik_Ionization_Penalty_Neutral>
9.33273e-05

> <r_epik_State_Penalty>
-0

> <r_epik_Charging_Adjusted_Penalty>
0

> <i_epik_Tot_Q>
0

> <i_epik_Tot_abs_Q>
0

> <r_epik_Metal_State_Penalty>
-0

> <b_epik_Metal_Only>
0

> <s_lp_Force_Field>
OPLS_2005

> <r_lp_Energy>
3.96238

> <b_lp_Chiralities_Consistent>
1

> <s_lp_Variant>
AV-unprocessed.smi:329-1

> <Gold.Version>
5.8.1

> <Gold.Id.Protein>
6NUR|6NUR_protein|mol2

> <Gold.PLP.Fitness>
30.5065

> <Gold.PLP.PLP>
-21.3183

> <Gold.PLP.part.hbond>
-3.0000

> <Gold.PLP.part.metal>
0.0000

> <Gold.PLP.part.buried>
-4.2508

> <Gold.PLP.part.nonpolar>
-13.3348

> <Gold.PLP.part.repulsive>
0.3916

> <Gold.PLP.ligand.clash>
0.0000

> <Gold.PLP.ligand.torsion>
0.2906

> <Gold.PLP.Chemscore.Hbond>
2.3440

> <Gold.PLP.Chemscore.CHOScore>
0.9125

> <Gold.PLP.Chemscore.Metal>
0.0000

> <Gold.Chemscore.Hbonds>
donor molecule, donor type, donor heavy atom, donor atom, acceptor molecule, acceptor atom, score
      L1  H     1    12       P1 10747  0.94
      L1  H     8    16       P1 10186  0.40
      L1  H     8    17       P1 10952  1.00
      L1  C     6    15       P1  7921  0.91

> <Gold.PLP.Chemscore.Internal.Correction>
0.0000

> <Gold.Rescore>
     Score         DG    S(hbond)    S(metal)    S(lipo)     H(rot)  DE(clash)    DE(int)     intcor
     13.28     -14.94       2.93        0.00      32.75       1.63       0.00       1.65       ----

> <Gold.Chemscore.Fitness>
13.2841

> <Gold.Chemscore.DG>
-14.9386

> <Gold.Chemscore.ZeroCoef>
-5.4800

> <Gold.Chemscore.Hbond>
2.9321

> <Gold.Chemscore.Metal>
0.0000

> <Gold.Chemscore.Lipo>
32.7489

> <Gold.Chemscore.Internal_Hbond>
0.0000

> <Gold.Chemscore.DEClash>
0.0000

> <Gold.Chemscore.DEInternal>
1.6545

> <Gold.Chemscore.Rot>
1.6274

> <Gold.Chemscore.Internal.Correction>
   9.000000E+99

> <Gold.Chemscore.Hbonds>
donor molecule, donor type, donor heavy atom, donor atom, acceptor molecule, acceptor atom, score
      L1  H     1    12       P1 10747  0.91
      L1  H     8    16       P1 10186  0.38
      L1  H     8    17       P1 10952  1.00

> <Gold.Chemscore.Hbond.Weighted>
-9.7931

> <Gold.Chemscore.Metal.Weighted>
-0.0000

> <Gold.Chemscore.Lipo.Weighted>
-3.8316

> <Gold.Chemscore.Internal_Hbond.Weighted>
0.0000

> <Gold.Chemscore.DEClash.Weighted>
0.0000

> <Gold.Chemscore.DEInternal.Weighted>
1.6545

> <Gold.Chemscore.Rot.Weighted>
4.1662

> <Gold.Chemscore.Internal.Correction.Weighted>
   9.000000E+99

> <Gold.Protein.RotatedTorsions>
[ 6907 6896 6895 6894 ] final  -38.77 input  -60.11 | X-H torsion
[ 7974 7965 7964 7962 ] final -179.28 input  175.53 | X-H torsion
[ 8008 7997 7996 7995 ] final   99.86 input   59.86 | X-H torsion
[ 10167 10162 10161 10158 ] final   87.32 input  -65.29 | X-H torsion
[ 10718 10713 10712 10709 ] final -115.24 input   66.30 | X-H torsion
[ 10763 10752 10751 10750 ] final -123.79 input  -60.55 | X-H torsion
[ 11005 11000 10999 10996 ] final   70.53 input  -57.11 | X-H torsion

> <Gold.Protein.ActiveResidues>
 VAL166  LYS551  ARG553  GLY616  TRP617  ASP618  TYR619  PRO620  LYS621  CYS622 
 ASP623  PHE694  ASN695  SER759  ASP760  ASP761  ALA762  ILE779  LEU786  VAL792 
 PHE793  MET794  SER795  GLU796  ALA797  LYS798  CYS799  TRP800  GLU811  SER814 

> <Gold.Protein.RotatedAtoms>
  150.9984  134.9302  159.7939 H   0  0  0  0  0  0  0  0  0  0  0  0  # atno 6907 bound_to 6896
  152.5271  134.3187  159.9150 H   0  0  0  0  0  0  0  0  0  0  0  0  # atno 6908 bound_to 6896
  151.3193  133.4005  159.2687 H   0  0  0  0  0  0  0  0  0  0  0  0  # atno 6909 bound_to 6896
  144.7135  140.0742  143.6428 H   0  0  0  0  0  0  0  0  0  0  0  0  # atno 7974 bound_to 7965
  156.1147  140.3222  155.8122 H   0  0  0  0  0  0  0  0  0  0  0  0  # atno 8008 bound_to 7997
  155.4611  140.0539  157.3008 H   0  0  0  0  0  0  0  0  0  0  0  0  # atno 8009 bound_to 7997
  154.4784  140.2042  155.9835 H   0  0  0  0  0  0  0  0  0  0  0  0  # atno 8010 bound_to 7997
  139.8786  144.6453  150.8868 H   0  0  0  0  0  0  0  0  0  0  0  0  # atno 10167 bound_to 10162
  156.0883  130.6070  150.8880 H   0  0  0  0  0  0  0  0  0  0  0  0  # atno 10718 bound_to 10713
  154.8713  135.4086  154.3001 H   0  0  0  0  0  0  0  0  0  0  0  0  # atno 10763 bound_to 10752
  153.3862  135.7013  153.6534 H   0  0  0  0  0  0  0  0  0  0  0  0  # atno 10764 bound_to 10752
  153.5335  135.3662  155.2658 H   0  0  0  0  0  0  0  0  0  0  0  0  # atno 10765 bound_to 10752
  139.9593  134.7089  156.0682 H   0  0  0  0  0  0  0  0  0  0  0  0  # atno 11005 bound_to 11000
  145.9757  139.2903  143.1072 LP  0  0  0  0  0  0  0  0  0  0  0  0  # atno 17320 bound_to 7965
  145.9066  140.9207  143.0475 LP  0  0  0  0  0  0  0  0  0  0  0  0  # atno 17321 bound_to 7965
  140.7748  143.3604  151.1839 LP  0  0  0  0  0  0  0  0  0  0  0  0  # atno 17342 bound_to 10162
  139.7217  143.9213  152.2988 LP  0  0  0  0  0  0  0  0  0  0  0  0  # atno 17343 bound_to 10162
  157.6024  131.0940  150.8937 LP  0  0  0  0  0  0  0  0  0  0  0  0  # atno 17370 bound_to 10713
  156.9092  130.5274  149.5281 LP  0  0  0  0  0  0  0  0  0  0  0  0  # atno 17371 bound_to 10713
  141.1268  133.6597  156.3358 LP  0  0  0  0  0  0  0  0  0  0  0  0  # atno 17394 bound_to 11000
  140.5537  134.6002  157.5415 LP  0  0  0  0  0  0  0  0  0  0  0  0  # atno 17395 bound_to 11000

$$$$
