AV-unprocessed.smi:3255|AV-procd|sdf|12460|dock10
  -GOLD-   2272018353D 1   1.00000     0.00000
 Structure written by MMmdl.
 39 40  0  0  0  0  0  0  0  0  2 V2000
  150.0838  134.7985  156.7461 C   0  0  0  0  0  0  0  0  0  0  0  0
  150.6207  135.2948  155.3920 C   0  0  1  0  0  0  0  0  0  0  0  0
  149.6685  134.9665  154.3344 N   0  0  0  0  0  0  0  0  0  0  0  0
  149.0236  133.7989  154.2082 C   0  0  0  0  0  0  0  0  0  0  0  0
  149.1364  132.8569  154.9932 O   0  0  0  0  0  0  0  0  0  0  0  0
  148.2414  133.7769  153.1201 N   0  0  0  0  0  0  0  0  0  0  0  0
  147.4158  132.6461  152.7148 C   0  0  0  0  0  0  0  0  0  0  0  0
  145.9377  132.8665  153.0782 C   0  0  0  0  0  0  0  0  0  0  0  0
  145.2478  133.6734  152.0715 N   0  0  0  0  0  0  0  0  0  0  0  0
  145.7162  134.8026  151.4512 C   0  0  0  0  0  0  0  0  0  0  0  0
  144.7328  135.2090  150.5863 C   0  0  0  0  0  0  0  0  0  0  0  0
  143.7076  134.3101  150.7148 N   0  3  0  0  0  0  0  0  0  0  0  0
  144.0230  133.3769  151.6192 C   0  0  0  0  0  0  0  0  0  0  0  0
  150.8729  136.8143  155.3865 C   0  0  1  0  0  0  0  0  0  0  0  0
  151.8860  137.3009  156.4249 C   0  0  0  0  0  0  0  0  0  0  0  0
  152.4536  138.5728  155.8123 C   0  0  0  0  0  0  0  0  0  0  0  0
  151.9761  138.5342  154.3586 C   0  0  0  0  0  0  0  0  0  0  0  0
  151.4849  137.2155  154.1699 O   0  0  0  0  0  0  0  0  0  0  0  0
  150.7895  135.0015  157.5517 H   0  0  0  0  0  0  0  0  0  0  0  0
  149.9124  133.7218  156.7326 H   0  0  0  0  0  0  0  0  0  0  0  0
  149.1402  135.2826  157.0002 H   0  0  0  0  0  0  0  0  0  0  0  0
  151.5673  134.7913  155.1862 H   0  0  0  0  0  0  0  0  0  0  0  0
  149.5099  135.6760  153.6341 H   0  0  0  0  0  0  0  0  0  0  0  0
  148.2149  134.5988  152.5342 H   0  0  0  0  0  0  0  0  0  0  0  0
  147.5252  132.4738  151.6424 H   0  0  0  0  0  0  0  0  0  0  0  0
  147.7938  131.7530  153.2131 H   0  0  0  0  0  0  0  0  0  0  0  0
  145.4133  131.9147  153.1750 H   0  0  0  0  0  0  0  0  0  0  0  0
  145.8431  133.3833  154.0342 H   0  0  0  0  0  0  0  0  0  0  0  0
  146.6892  135.2212  151.6659 H   0  0  0  0  0  0  0  0  0  0  0  0
  144.6878  136.0476  149.9068 H   0  0  0  0  0  0  0  0  0  0  0  0
  143.4095  132.5469  151.9223 H   0  0  0  0  0  0  0  0  0  0  0  0
  149.9329  137.3581  155.5024 H   0  0  0  0  0  0  0  0  0  0  0  0
  151.4358  137.4686  157.4038 H   0  0  0  0  0  0  0  0  0  0  0  0
  152.6858  136.5686  156.5448 H   0  0  0  0  0  0  0  0  0  0  0  0
  152.0820  139.4649  156.3176 H   0  0  0  0  0  0  0  0  0  0  0  0
  153.5422  138.5788  155.8766 H   0  0  0  0  0  0  0  0  0  0  0  0
  151.1629  139.2446  154.2031 H   0  0  0  0  0  0  0  0  0  0  0  0
  152.7705  138.7655  153.6486 H   0  0  0  0  0  0  0  0  0  0  0  0
  142.8364  134.3437  150.2005 H   0  0  0  0  0  0  0  0  0  0  0  0
  1  2  1  0  0  0  0
  1 19  1  0  0  0  0
  1 20  1  0  0  0  0
  1 21  1  0  0  0  0
  2  3  1  0  0  0  0
  2 14  1  0  0  0  0
  2 22  1  0  0  0  0
  3  4  1  0  0  0  0
  3 23  1  0  0  0  0
  4  5  2  0  0  0  0
  4  6  1  0  0  0  0
  6  7  1  0  0  0  0
  6 24  1  0  0  0  0
  7  8  1  0  0  0  0
  7 25  1  0  0  0  0
  7 26  1  0  0  0  0
  8  9  1  0  0  0  0
  8 27  1  0  0  0  0
  8 28  1  0  0  0  0
  9 13  1  0  0  0  0
  9 10  1  0  0  0  0
 10 11  2  0  0  0  0
 10 29  1  0  0  0  0
 11 12  1  0  0  0  0
 11 30  1  0  0  0  0
 12 13  2  0  0  0  0
 12 39  1  0  0  0  0
 13 31  1  0  0  0  0
 14 18  1  0  0  0  0
 14 15  1  0  0  0  0
 14 32  1  0  0  0  0
 15 16  1  0  0  0  0
 15 33  1  0  0  0  0
 15 34  1  0  0  0  0
 16 17  1  0  0  0  0
 16 35  1  0  0  0  0
 16 36  1  0  0  0  0
 17 18  1  0  0  0  0
 17 37  1  0  0  0  0
 17 38  1  0  0  0  0
M  CHG  1  12   1
M  END
> <s_m_source_file>
AV-unprocessed.smi

> <i_m_source_file_index>
3255

> <i_lp_mmshare_version>
43012

> <i_f3d_flags>
0

> <s_epik_input>
TzFbQ0gyXVtDSDJdW0NIMl1bQ0BIXTFbQ0BIXShbQ0gzXSlbTkhdQyg9TylbTkhdW0NIMl1bQ0gyXW4yW2NIXVtjSF1uW2NIXTI=

> <s_epik_cmdline>
J2VwaWtfcHl0aG9uJywgJy1waCcsICc3LjAnLCAnLXRuJywgJzgnLCAnLW1hJywgJzIwMCcsICctbWV0YWxfYmluZGluZycsICctaW1hZScsICc8aW5maWxlLm1hZT4nLCAnLW9tYWUnLCAnPG91dGZpbGUubWFlPic=

> <r_lp_tautomer_probability>
1

> <r_epik_Ionization_Penalty>
0.256241

> <r_epik_Ionization_Penalty_Charging>
0

> <r_epik_Ionization_Penalty_Neutral>
0.256241

> <r_epik_State_Penalty>
0.247735

> <r_epik_Charging_Adjusted_Penalty>
0.247735

> <i_epik_Tot_Q>
1

> <i_epik_Tot_abs_Q>
1

> <r_epik_Metal_State_Penalty>
0.537184

> <b_epik_Metal_Only>
0

> <s_lp_Force_Field>
OPLS_2005

> <r_lp_Energy>
17.8763

> <b_lp_Chiralities_Consistent>
1

> <s_lp_Variant>
AV-unprocessed.smi:3255-4

> <Gold.Version>
5.8.1

> <Gold.Id.Protein>
6NUR|6NUR_protein|mol2

> <Gold.PLP.Fitness>
47.4074

> <Gold.PLP.PLP>
-30.8696

> <Gold.PLP.part.hbond>
-4.0000

> <Gold.PLP.part.metal>
0.0000

> <Gold.PLP.part.buried>
-5.5713

> <Gold.PLP.part.nonpolar>
-22.3866

> <Gold.PLP.part.repulsive>
0.4373

> <Gold.PLP.ligand.clash>
0.0000

> <Gold.PLP.ligand.torsion>
0.6710

> <Gold.PLP.Chemscore.Hbond>
4.9424

> <Gold.PLP.Chemscore.CHOScore>
1.0000

> <Gold.PLP.Chemscore.Metal>
0.0000

> <Gold.Chemscore.Hbonds>
donor molecule, donor type, donor heavy atom, donor atom, acceptor molecule, acceptor atom, score
      L1  H     3    23       P1  7948  1.00
      L1  H     6    24       P1  7948  1.00
      L1  H    12    39       P1 10186  2.00
      P1  H 10752 10765       L1    18  0.57
      L1  C    10    29       P1  7948  1.00

> <Gold.PLP.Chemscore.Internal.Correction>
0.0526

> <Gold.Rescore>
     Score         DG    S(hbond)    S(metal)    S(lipo)     H(rot)  DE(clash)    DE(int)     intcor
     12.39     -14.37       2.56        0.00      52.48       2.26       0.06       1.92       ----

> <Gold.Chemscore.Fitness>
12.3934

> <Gold.Chemscore.DG>
-14.3700

> <Gold.Chemscore.ZeroCoef>
-5.4800

> <Gold.Chemscore.Hbond>
2.5587

> <Gold.Chemscore.Metal>
0.0000

> <Gold.Chemscore.Lipo>
52.4765

> <Gold.Chemscore.Internal_Hbond>
0.0000

> <Gold.Chemscore.DEClash>
0.0582

> <Gold.Chemscore.DEInternal>
1.9184

> <Gold.Chemscore.Rot>
2.2640

> <Gold.Chemscore.Internal.Correction>
   9.000000E+99

> <Gold.Chemscore.Hbonds>
donor molecule, donor type, donor heavy atom, donor atom, acceptor molecule, acceptor atom, score
      L1  H     3    23       P1  7948  0.24
      L1  H     6    24       P1  7948  0.33
      L1  H    12    39       P1 10186  0.85
      P1  H 10752 10765       L1    18  0.06

> <Gold.Chemscore.Hbond.Weighted>
-8.5460

> <Gold.Chemscore.Metal.Weighted>
-0.0000

> <Gold.Chemscore.Lipo.Weighted>
-6.1397

> <Gold.Chemscore.Internal_Hbond.Weighted>
0.0000

> <Gold.Chemscore.DEClash.Weighted>
0.0582

> <Gold.Chemscore.DEInternal.Weighted>
1.9184

> <Gold.Chemscore.Rot.Weighted>
5.7958

> <Gold.Chemscore.Internal.Correction.Weighted>
   9.000000E+99

> <Gold.Protein.RotatedTorsions>
[ 6907 6896 6895 6894 ] final  100.53 input  -60.11 | X-H torsion
[ 7974 7965 7964 7962 ] final  -59.85 input  175.53 | X-H torsion
[ 8008 7997 7996 7995 ] final  -67.08 input   59.86 | X-H torsion
[ 10167 10162 10161 10158 ] final  -11.49 input  -65.29 | X-H torsion
[ 10718 10713 10712 10709 ] final  112.68 input   66.30 | X-H torsion
[ 10763 10752 10751 10750 ] final  155.32 input  -60.55 | X-H torsion
[ 11005 11000 10999 10996 ] final -113.56 input  -57.11 | X-H torsion

> <Gold.Protein.ActiveResidues>
 VAL166  LYS551  ARG553  GLY616  TRP617  ASP618  TYR619  PRO620  LYS621  CYS622 
 ASP623  PHE694  ASN695  SER759  ASP760  ASP761  ALA762  ILE779  LEU786  VAL792 
 PHE793  MET794  SER795  GLU796  ALA797  LYS798  CYS799  TRP800  GLU811  SER814 

> <Gold.Protein.RotatedAtoms>
  152.5370  134.0263  159.8004 H   0  0  0  0  0  0  0  0  0  0  0  0  # atno 6907 bound_to 6896
  151.0441  133.5673  159.2655 H   0  0  0  0  0  0  0  0  0  0  0  0  # atno 6908 bound_to 6896
  151.2632  135.0668  159.9159 H   0  0  0  0  0  0  0  0  0  0  0  0  # atno 6909 bound_to 6896
  145.8225  140.8531  143.0125 H   0  0  0  0  0  0  0  0  0  0  0  0  # atno 7974 bound_to 7965
  154.4776  140.0900  156.7300 H   0  0  0  0  0  0  0  0  0  0  0  0  # atno 8008 bound_to 7997
  155.4555  140.3459  155.4288 H   0  0  0  0  0  0  0  0  0  0  0  0  # atno 8009 bound_to 7997
  156.1141  140.1456  156.9286 H   0  0  0  0  0  0  0  0  0  0  0  0  # atno 8010 bound_to 7997
  140.7140  143.5634  150.9171 H   0  0  0  0  0  0  0  0  0  0  0  0  # atno 10167 bound_to 10162
  157.6379  131.0971  150.6930 H   0  0  0  0  0  0  0  0  0  0  0  0  # atno 10718 bound_to 10713
  154.1665  135.2807  155.3093 H   0  0  0  0  0  0  0  0  0  0  0  0  # atno 10763 bound_to 10752
  154.6108  135.5499  153.7474 H   0  0  0  0  0  0  0  0  0  0  0  0  # atno 10764 bound_to 10752
  153.0177  135.6415  154.1806 H   0  0  0  0  0  0  0  0  0  0  0  0  # atno 10765 bound_to 10752
  141.0607  133.9540  157.2672 H   0  0  0  0  0  0  0  0  0  0  0  0  # atno 11005 bound_to 11000
  144.6746  140.0555  143.7477 LP  0  0  0  0  0  0  0  0  0  0  0  0  # atno 17320 bound_to 7965
  145.9659  139.2834  143.1128 LP  0  0  0  0  0  0  0  0  0  0  0  0  # atno 17321 bound_to 7965
  139.9359  143.6438  152.3065 LP  0  0  0  0  0  0  0  0  0  0  0  0  # atno 17342 bound_to 10162
  139.6906  144.7647  151.1446 LP  0  0  0  0  0  0  0  0  0  0  0  0  # atno 17343 bound_to 10162
  156.7259  130.4695  149.5511 LP  0  0  0  0  0  0  0  0  0  0  0  0  # atno 17370 bound_to 10713
  156.1634  130.6389  151.0748 LP  0  0  0  0  0  0  0  0  0  0  0  0  # atno 17371 bound_to 10713
  139.9430  135.0188  156.8766 LP  0  0  0  0  0  0  0  0  0  0  0  0  # atno 17394 bound_to 11000
  140.5875  134.0293  155.7487 LP  0  0  0  0  0  0  0  0  0  0  0  0  # atno 17395 bound_to 11000

$$$$
