AV-unprocessed.smi:2926|AV-procd|sdf|11227|dock3
  -GOLD-   2272016113D 1   1.00000     0.00000
 Structure written by MMmdl.
 32 32  0  0  0  0  0  0  0  0  1 V2000
  152.8427  142.6212  160.6977 C   0  0  0  0  0  0  0  0  0  0  0  0
  152.7637  142.6820  159.1624 C   0  0  0  0  0  0  0  0  0  0  0  0
  152.3713  144.0939  158.6868 C   0  0  0  0  0  0  0  0  0  0  0  0
  151.8669  141.5519  158.5889 C   0  0  2  0  0  0  0  0  0  0  0  0
  152.3232  140.1252  158.9647 C   0  0  0  0  0  0  0  0  0  0  0  0
  153.2411  139.6221  158.0175 O   0  0  0  0  0  0  0  0  0  0  0  0
  151.7802  141.6789  157.1281 N   0  0  0  0  0  0  0  0  0  0  0  0
  150.7362  140.6290  156.2387 S   0  0  0  0  0  0  0  0  0  0  0  0
  151.5414  139.9890  155.1870 O   0  0  0  0  0  0  0  0  0  0  0  0
  149.9920  139.8030  157.2023 O   0  0  0  0  0  0  0  0  0  0  0  0
  149.5612  141.8126  155.4567 C   0  0  0  0  0  0  0  0  0  0  0  0
  148.5764  141.0565  154.6117 C   0  0  0  0  0  0  0  0  0  0  0  0
  147.3918  141.5395  153.9897 C   0  0  0  0  0  0  0  0  0  0  0  0
  146.8934  140.4382  153.3555 C   0  0  0  0  0  0  0  0  0  0  0  0
  147.6946  139.3640  153.5687 O   0  0  0  0  0  0  0  0  0  0  0  0
  148.7657  139.7682  154.3736 N   0  0  0  0  0  0  0  0  0  0  0  0
  150.8649  141.6944  158.9961 H   0  0  0  0  0  0  0  0  0  0  0  0
  151.8756  142.8244  161.1587 H   0  0  0  0  0  0  0  0  0  0  0  0
  153.5514  143.3548  161.0829 H   0  0  0  0  0  0  0  0  0  0  0  0
  153.1731  141.6391  161.0370 H   0  0  0  0  0  0  0  0  0  0  0  0
  153.7785  142.5033  158.8057 H   0  0  0  0  0  0  0  0  0  0  0  0
  151.3632  144.3615  159.0036 H   0  0  0  0  0  0  0  0  0  0  0  0
  152.4168  144.1820  157.6018 H   0  0  0  0  0  0  0  0  0  0  0  0
  153.0506  144.8425  159.0953 H   0  0  0  0  0  0  0  0  0  0  0  0
  152.8227  140.1246  159.9337 H   0  0  0  0  0  0  0  0  0  0  0  0
  151.4781  139.4423  159.0482 H   0  0  0  0  0  0  0  0  0  0  0  0
  152.7667  139.1008  157.3877 H   0  0  0  0  0  0  0  0  0  0  0  0
  152.7094  141.7123  156.7094 H   0  0  0  0  0  0  0  0  0  0  0  0
  149.0632  142.3758  156.2467 H   0  0  0  0  0  0  0  0  0  0  0  0
  150.1320  142.5179  154.8534 H   0  0  0  0  0  0  0  0  0  0  0  0
  146.9772  142.5366  154.0028 H   0  0  0  0  0  0  0  0  0  0  0  0
  146.0206  140.2657  152.7434 H   0  0  0  0  0  0  0  0  0  0  0  0
  1  2  1  0  0  0  0
  1 18  1  0  0  0  0
  1 19  1  0  0  0  0
  1 20  1  0  0  0  0
  2  3  1  0  0  0  0
  2  4  1  0  0  0  0
  2 21  1  0  0  0  0
  3 22  1  0  0  0  0
  3 23  1  0  0  0  0
  3 24  1  0  0  0  0
  4 17  1  0  0  0  0
  4  5  1  0  0  0  0
  4  7  1  0  0  0  0
  5  6  1  0  0  0  0
  5 25  1  0  0  0  0
  5 26  1  0  0  0  0
  6 27  1  0  0  0  0
  7  8  1  0  0  0  0
  7 28  1  0  0  0  0
  8  9  2  0  0  0  0
  8 10  2  0  0  0  0
  8 11  1  0  0  0  0
 11 12  1  0  0  0  0
 11 29  1  0  0  0  0
 11 30  1  0  0  0  0
 12 16  2  0  0  0  0
 12 13  1  0  0  0  0
 13 14  2  0  0  0  0
 13 31  1  0  0  0  0
 14 15  1  0  0  0  0
 14 32  1  0  0  0  0
 15 16  1  0  0  0  0
M  END
> <s_m_source_file>
AV-unprocessed.smi

> <i_m_source_file_index>
2926

> <i_lp_mmshare_version>
43012

> <i_f3d_flags>
0

> <s_epik_input>
W0NIM11bQ0hdKFtDSDNdKVtDQEBIXShbQ0gyXVtPSF0pW05IXVMoPU8pKD1PKVtDSDJdYzFbY0hdW2NIXW9uMQ==

> <s_epik_cmdline>
J2VwaWtfcHl0aG9uJywgJy1waCcsICc3LjAnLCAnLXRuJywgJzgnLCAnLW1hJywgJzIwMCcsICctbWV0YWxfYmluZGluZycsICctaW1hZScsICc8aW5maWxlLm1hZT4nLCAnLW9tYWUnLCAnPG91dGZpbGUubWFlPic=

> <r_lp_tautomer_probability>
1

> <r_epik_Ionization_Penalty>
0.000193122

> <r_epik_Ionization_Penalty_Charging>
0

> <r_epik_Ionization_Penalty_Neutral>
0.000193122

> <r_epik_State_Penalty>
-0

> <r_epik_Charging_Adjusted_Penalty>
0

> <i_epik_Tot_Q>
0

> <i_epik_Tot_abs_Q>
0

> <r_epik_Metal_State_Penalty>
0.130256

> <b_epik_Metal_Only>
0

> <s_lp_Force_Field>
OPLS_2005

> <r_lp_Energy>
0.568984

> <b_lp_Chiralities_Consistent>
1

> <s_lp_Variant>
AV-unprocessed.smi:2926-2

> <Gold.Version>
5.8.1

> <Gold.Id.Protein>
6NUR|6NUR_protein|mol2

> <Gold.PLP.Fitness>
39.0037

> <Gold.PLP.PLP>
-30.7524

> <Gold.PLP.part.hbond>
-2.0000

> <Gold.PLP.part.metal>
0.0000

> <Gold.PLP.part.buried>
-1.5559

> <Gold.PLP.part.nonpolar>
-28.1154

> <Gold.PLP.part.repulsive>
1.1987

> <Gold.PLP.ligand.clash>
0.0000

> <Gold.PLP.ligand.torsion>
0.5116

> <Gold.PLP.Chemscore.Hbond>
2.0000

> <Gold.PLP.Chemscore.CHOScore>
0.9978

> <Gold.PLP.Chemscore.Metal>
0.0000

> <Gold.Chemscore.Hbonds>
donor molecule, donor type, donor heavy atom, donor atom, acceptor molecule, acceptor atom, score
      P1  H  7989  7998       L1     9  1.00
      P1  H  7997  8010       L1     6  1.00
      L1  C    14    32       P1 10175  1.00

> <Gold.PLP.Chemscore.Internal.Correction>
0.2812

> <Gold.Rescore>
     Score         DG    S(hbond)    S(metal)    S(lipo)     H(rot)  DE(clash)    DE(int)     intcor
      9.09     -13.13       1.91        0.00      75.46       2.96       0.76       3.27       ----

> <Gold.Chemscore.Fitness>
9.0937

> <Gold.Chemscore.DG>
-13.1302

> <Gold.Chemscore.ZeroCoef>
-5.4800

> <Gold.Chemscore.Hbond>
1.9132

> <Gold.Chemscore.Metal>
0.0000

> <Gold.Chemscore.Lipo>
75.4595

> <Gold.Chemscore.Internal_Hbond>
0.0000

> <Gold.Chemscore.DEClash>
0.7629

> <Gold.Chemscore.DEInternal>
3.2736

> <Gold.Chemscore.Rot>
2.9564

> <Gold.Chemscore.Internal.Correction>
   9.000000E+99

> <Gold.Chemscore.Hbonds>
donor molecule, donor type, donor heavy atom, donor atom, acceptor molecule, acceptor atom, score
      P1  H  7989  7998       L1     9  0.93
      P1  H  7997  8010       L1     6  0.30

> <Gold.Chemscore.Hbond.Weighted>
-6.3900

> <Gold.Chemscore.Metal.Weighted>
-0.0000

> <Gold.Chemscore.Lipo.Weighted>
-8.8288

> <Gold.Chemscore.Internal_Hbond.Weighted>
0.0000

> <Gold.Chemscore.DEClash.Weighted>
0.7629

> <Gold.Chemscore.DEInternal.Weighted>
3.2736

> <Gold.Chemscore.Rot.Weighted>
7.5685

> <Gold.Chemscore.Internal.Correction.Weighted>
   9.000000E+99

> <Gold.Protein.RotatedTorsions>
[ 6907 6896 6895 6894 ] final  140.92 input  -60.11 | X-H torsion
[ 7974 7965 7964 7962 ] final -121.49 input  175.53 | X-H torsion
[ 8008 7997 7996 7995 ] final   28.41 input   59.86 | X-H torsion
[ 10167 10162 10161 10158 ] final   33.15 input  -65.29 | X-H torsion
[ 10718 10713 10712 10709 ] final  -47.39 input   66.30 | X-H torsion
[ 10763 10752 10751 10750 ] final    0.64 input  -60.55 | X-H torsion
[ 11005 11000 10999 10996 ] final  117.80 input  -57.11 | X-H torsion

> <Gold.Protein.ActiveResidues>
 VAL166  LYS551  ARG553  GLY616  TRP617  ASP618  TYR619  PRO620  LYS621  CYS622 
 ASP623  PHE694  ASN695  SER759  ASP760  ASP761  ALA762  ILE779  LEU786  VAL792 
 PHE793  MET794  SER795  GLU796  ALA797  LYS798  CYS799  TRP800  GLU811  SER814 

> <Gold.Protein.RotatedAtoms>
  152.2372  133.5106  159.5249 H   0  0  0  0  0  0  0  0  0  0  0  0  # atno 6907 bound_to 6896
  150.7054  134.1137  159.4018 H   0  0  0  0  0  0  0  0  0  0  0  0  # atno 6908 bound_to 6896
  151.9058  135.0359  160.0561 H   0  0  0  0  0  0  0  0  0  0  0  0  # atno 6909 bound_to 6896
  145.0397  140.8135  143.4273 H   0  0  0  0  0  0  0  0  0  0  0  0  # atno 7974 bound_to 7965
  155.0583  140.3187  155.4669 H   0  0  0  0  0  0  0  0  0  0  0  0  # atno 8008 bound_to 7997
  156.2819  140.2133  156.5654 H   0  0  0  0  0  0  0  0  0  0  0  0  # atno 8009 bound_to 7997
  154.7153  140.0494  157.0576 H   0  0  0  0  0  0  0  0  0  0  0  0  # atno 8010 bound_to 7997
  140.4434  144.1155  150.6178 H   0  0  0  0  0  0  0  0  0  0  0  0  # atno 10167 bound_to 10162
  156.2089  130.4159  149.9141 H   0  0  0  0  0  0  0  0  0  0  0  0  # atno 10718 bound_to 10713
  153.3181  135.6967  153.7055 H   0  0  0  0  0  0  0  0  0  0  0  0  # atno 10763 bound_to 10752
  153.5905  135.3480  155.2910 H   0  0  0  0  0  0  0  0  0  0  0  0  # atno 10764 bound_to 10752
  154.8591  135.4317  154.2338 H   0  0  0  0  0  0  0  0  0  0  0  0  # atno 10765 bound_to 10752
  139.9087  134.9614  156.7406 H   0  0  0  0  0  0  0  0  0  0  0  0  # atno 11005 bound_to 11000
  145.1663  139.2429  143.5365 LP  0  0  0  0  0  0  0  0  0  0  0  0  # atno 17320 bound_to 7965
  146.3508  140.1403  142.8594 LP  0  0  0  0  0  0  0  0  0  0  0  0  # atno 17321 bound_to 7965
  140.4292  143.2576  151.9617 LP  0  0  0  0  0  0  0  0  0  0  0  0  # atno 17342 bound_to 10162
  139.4791  144.5759  151.8012 LP  0  0  0  0  0  0  0  0  0  0  0  0  # atno 17343 bound_to 10162
  156.6826  130.8864  151.3578 LP  0  0  0  0  0  0  0  0  0  0  0  0  # atno 17370 bound_to 10713
  157.7027  130.9351  150.0836 LP  0  0  0  0  0  0  0  0  0  0  0  0  # atno 17371 bound_to 10713
  140.6853  133.9438  155.7934 LP  0  0  0  0  0  0  0  0  0  0  0  0  # atno 17394 bound_to 11000
  141.0481  134.0524  157.3818 LP  0  0  0  0  0  0  0  0  0  0  0  0  # atno 17395 bound_to 11000

$$$$
