AV-unprocessed.smi:3303|AV-procd|sdf|12680|dock10
  -GOLD-   2272019 13D 1   1.00000     0.00000
 Structure written by MMmdl.
 44 45  0  0  0  0  0  0  0  0  2 V2000
  147.4438  141.5604  154.1350 C   0  0  0  0  0  0  0  0  0  0  0  0
  148.8118  140.8575  154.0988 C   0  0  1  0  0  0  0  0  0  0  0  0
  149.6323  141.2313  155.3489 C   0  0  0  0  0  0  0  0  0  0  0  0
  150.9621  140.6165  155.3257 N   0  0  0  0  0  0  0  0  0  0  0  0
  151.6918  141.1204  156.4864 C   0  0  0  0  0  0  0  0  0  0  0  0
  150.8452  139.1483  155.3416 C   0  0  2  0  0  0  0  0  0  0  0  0
  152.2225  138.4548  155.3769 C   0  0  0  0  0  0  0  0  0  0  0  0
  150.0728  138.6918  154.0860 C   0  0  0  0  0  0  0  0  0  0  0  0
  148.6775  139.3256  154.0003 C   0  0  2  0  0  0  0  0  0  0  0  0
  148.0302  138.9310  152.7291 N   0  3  0  0  0  0  0  0  0  0  0  0
  146.5601  139.0677  152.7137 C   0  0  0  0  0  0  0  0  0  0  0  0
  145.8960  137.9626  153.5463 C   0  0  0  0  0  0  0  0  0  0  0  0
  145.2237  136.9152  152.6793 C   0  0  0  0  0  0  0  0  0  0  0  0
  143.9659  136.3836  153.0354 C   0  0  0  0  0  0  0  0  0  0  0  0
  143.3888  135.4086  152.1987 C   0  0  0  0  0  0  0  0  0  0  0  0
  144.0882  135.0050  151.0450 C   0  0  0  0  0  0  0  0  0  0  0  0
  145.3392  135.5961  150.7783 C   0  0  0  0  0  0  0  0  0  0  0  0
  145.9026  136.5300  151.5755 N   0  0  0  0  0  0  0  0  0  0  0  0
  146.8455  141.2209  154.9812 H   0  0  0  0  0  0  0  0  0  0  0  0
  146.8716  141.3735  153.2261 H   0  0  0  0  0  0  0  0  0  0  0  0
  147.5617  142.6405  154.2254 H   0  0  0  0  0  0  0  0  0  0  0  0
  149.3514  141.2195  153.2218 H   0  0  0  0  0  0  0  0  0  0  0  0
  149.7404  142.3164  155.3877 H   0  0  0  0  0  0  0  0  0  0  0  0
  149.1004  140.9345  156.2547 H   0  0  0  0  0  0  0  0  0  0  0  0
  152.7356  140.8088  156.4670 H   0  0  0  0  0  0  0  0  0  0  0  0
  151.2444  140.7743  157.4192 H   0  0  0  0  0  0  0  0  0  0  0  0
  151.6946  142.2111  156.4954 H   0  0  0  0  0  0  0  0  0  0  0  0
  150.2854  138.8475  156.2291 H   0  0  0  0  0  0  0  0  0  0  0  0
  152.1165  137.3762  155.2575 H   0  0  0  0  0  0  0  0  0  0  0  0
  152.7380  138.6096  156.3246 H   0  0  0  0  0  0  0  0  0  0  0  0
  152.8704  138.8116  154.5754 H   0  0  0  0  0  0  0  0  0  0  0  0
  150.6487  138.9436  153.1936 H   0  0  0  0  0  0  0  0  0  0  0  0
  149.9747  137.6052  154.0900 H   0  0  0  0  0  0  0  0  0  0  0  0
  148.0868  138.9676  154.8458 H   0  0  0  0  0  0  0  0  0  0  0  0
  148.4124  139.5049  151.9911 H   0  0  0  0  0  0  0  0  0  0  0  0
  146.2896  140.0495  153.1045 H   0  0  0  0  0  0  0  0  0  0  0  0
  146.2045  139.0187  151.6835 H   0  0  0  0  0  0  0  0  0  0  0  0
  146.6385  137.4770  154.1812 H   0  0  0  0  0  0  0  0  0  0  0  0
  145.1528  138.3947  154.2181 H   0  0  0  0  0  0  0  0  0  0  0  0
  143.4532  136.7124  153.9275 H   0  0  0  0  0  0  0  0  0  0  0  0
  142.4278  134.9778  152.4379 H   0  0  0  0  0  0  0  0  0  0  0  0
  143.6757  134.2604  150.3803 H   0  0  0  0  0  0  0  0  0  0  0  0
  145.9029  135.3104  149.9023 H   0  0  0  0  0  0  0  0  0  0  0  0
  148.2642  137.9671  152.5379 H   0  0  0  0  0  0  0  0  0  0  0  0
  1  2  1  0  0  0  0
  1 19  1  0  0  0  0
  1 20  1  0  0  0  0
  1 21  1  0  0  0  0
  2  9  1  0  0  0  0
  2  3  1  0  0  0  0
  2 22  1  0  0  0  0
  3  4  1  0  0  0  0
  3 23  1  0  0  0  0
  3 24  1  0  0  0  0
  4  5  1  0  0  0  0
  4  6  1  0  0  0  0
  5 25  1  0  0  0  0
  5 26  1  0  0  0  0
  5 27  1  0  0  0  0
  6  7  1  0  0  0  0
  6  8  1  0  0  0  0
  6 28  1  0  0  0  0
  7 29  1  0  0  0  0
  7 30  1  0  0  0  0
  7 31  1  0  0  0  0
  8  9  1  0  0  0  0
  8 32  1  0  0  0  0
  8 33  1  0  0  0  0
  9 10  1  0  0  0  0
  9 34  1  0  0  0  0
 10 11  1  0  0  0  0
 10 35  1  0  0  0  0
 10 44  1  0  0  0  0
 11 12  1  0  0  0  0
 11 36  1  0  0  0  0
 11 37  1  0  0  0  0
 12 13  1  0  0  0  0
 12 38  1  0  0  0  0
 12 39  1  0  0  0  0
 13 18  1  0  0  0  0
 13 14  2  0  0  0  0
 14 15  1  0  0  0  0
 14 40  1  0  0  0  0
 15 16  2  0  0  0  0
 15 41  1  0  0  0  0
 16 17  1  0  0  0  0
 16 42  1  0  0  0  0
 17 18  2  0  0  0  0
 17 43  1  0  0  0  0
M  CHG  1  10   1
M  END
> <s_m_source_file>
AV-unprocessed.smi

> <i_m_source_file_index>
3303

> <i_lp_mmshare_version>
43012

> <i_f3d_flags>
0

> <s_epik_input>
W0NIM11bQ0BASF0xW0NIMl1OKFtDSDNdKVtDQEBIXShbQ0gzXSlbQ0gyXVtDQEhdMVtOSF1bQ0gyXVtDSDJdYzJbY0hdW2NIXVtjSF1bY0hdbjI=

> <s_epik_cmdline>
J2VwaWtfcHl0aG9uJywgJy1waCcsICc3LjAnLCAnLXRuJywgJzgnLCAnLW1hJywgJzIwMCcsICctbWV0YWxfYmluZGluZycsICctaW1hZScsICc8aW5maWxlLm1hZT4nLCAnLW9tYWUnLCAnPG91dGZpbGUubWFlPic=

> <r_epik_Ionization_Penalty>
1.37325

> <r_epik_Ionization_Penalty_Charging>
0.000251572

> <r_epik_Ionization_Penalty_Neutral>
1.373

> <r_epik_State_Penalty>
1.46343

> <r_epik_Charging_Adjusted_Penalty>
1.46368

> <i_epik_Tot_Q>
1

> <i_epik_Tot_abs_Q>
1

> <r_epik_Metal_State_Penalty>
1.46331

> <b_epik_Metal_Only>
0

> <s_lp_Force_Field>
OPLS_2005

> <r_lp_Energy>
21.6133

> <b_lp_Chiralities_Consistent>
1

> <s_lp_Variant>
AV-unprocessed.smi:3303-24

> <Gold.Version>
5.8.1

> <Gold.Id.Protein>
6NUR|6NUR_protein|mol2

> <Gold.PLP.Fitness>
48.4588

> <Gold.PLP.PLP>
-35.3646

> <Gold.PLP.part.hbond>
-2.7996

> <Gold.PLP.part.metal>
0.0000

> <Gold.PLP.part.buried>
-4.0743

> <Gold.PLP.part.nonpolar>
-29.7598

> <Gold.PLP.part.repulsive>
0.8637

> <Gold.PLP.ligand.clash>
0.0000

> <Gold.PLP.ligand.torsion>
0.8236

> <Gold.PLP.Chemscore.Hbond>
3.9120

> <Gold.PLP.Chemscore.CHOScore>
1.0000

> <Gold.PLP.Chemscore.Metal>
0.0000

> <Gold.Chemscore.Hbonds>
donor molecule, donor type, donor heavy atom, donor atom, acceptor molecule, acceptor atom, score
      L1  H    10    35       P1  7957  1.00
      L1  H    10    44       P1  7948  2.00
      P1  H  7989  7998       L1     4  0.91
      L1  C    17    43       P1  7921  1.00

> <Gold.PLP.Chemscore.Internal.Correction>
0.0055

> <Gold.Rescore>
     Score         DG    S(hbond)    S(metal)    S(lipo)     H(rot)  DE(clash)    DE(int)     intcor
     18.00     -20.02       2.14        0.00      92.22       1.33       0.14       1.88       ----

> <Gold.Chemscore.Fitness>
18.0024

> <Gold.Chemscore.DG>
-20.0216

> <Gold.Chemscore.ZeroCoef>
-5.4800

> <Gold.Chemscore.Hbond>
2.1426

> <Gold.Chemscore.Metal>
0.0000

> <Gold.Chemscore.Lipo>
92.2188

> <Gold.Chemscore.Internal_Hbond>
0.0000

> <Gold.Chemscore.DEClash>
0.1365

> <Gold.Chemscore.DEInternal>
1.8827

> <Gold.Chemscore.Rot>
1.3298

> <Gold.Chemscore.Internal.Correction>
   9.000000E+99

> <Gold.Chemscore.Hbonds>
donor molecule, donor type, donor heavy atom, donor atom, acceptor molecule, acceptor atom, score
      L1  H    10    35       P1  7957  0.91
      L1  H    10    44       P1  7948  0.98
      P1  H  7989  7998       L1     4  0.12

> <Gold.Chemscore.Hbond.Weighted>
-7.1563

> <Gold.Chemscore.Metal.Weighted>
-0.0000

> <Gold.Chemscore.Lipo.Weighted>
-10.7896

> <Gold.Chemscore.Internal_Hbond.Weighted>
0.0000

> <Gold.Chemscore.DEClash.Weighted>
0.1365

> <Gold.Chemscore.DEInternal.Weighted>
1.8827

> <Gold.Chemscore.Rot.Weighted>
3.4043

> <Gold.Chemscore.Internal.Correction.Weighted>
   9.000000E+99

> <Gold.Protein.RotatedTorsions>
[ 6907 6896 6895 6894 ] final   46.80 input  -60.11 | X-H torsion
[ 7974 7965 7964 7962 ] final   68.00 input  175.53 | X-H torsion
[ 8008 7997 7996 7995 ] final  130.24 input   59.86 | X-H torsion
[ 10167 10162 10161 10158 ] final  -99.39 input  -65.29 | X-H torsion
[ 10718 10713 10712 10709 ] final  123.16 input   66.30 | X-H torsion
[ 10763 10752 10751 10750 ] final   90.88 input  -60.55 | X-H torsion
[ 11005 11000 10999 10996 ] final  175.91 input  -57.11 | X-H torsion

> <Gold.Protein.ActiveResidues>
 VAL166  LYS551  ARG553  GLY616  TRP617  ASP618  TYR619  PRO620  LYS621  CYS622 
 ASP623  PHE694  ASN695  SER759  ASP760  ASP761  ALA762  ILE779  LEU786  VAL792 
 PHE793  MET794  SER795  GLU796  ALA797  LYS798  CYS799  TRP800  GLU811  SER814 

> <Gold.Protein.RotatedAtoms>
  152.2607  134.8037  160.0430 H   0  0  0  0  0  0  0  0  0  0  0  0  # atno 6907 bound_to 6896
  151.8684  133.3465  159.3735 H   0  0  0  0  0  0  0  0  0  0  0  0  # atno 6908 bound_to 6896
  150.7115  134.5064  159.5630 H   0  0  0  0  0  0  0  0  0  0  0  0  # atno 6909 bound_to 6896
  145.8078  139.3016  143.1117 H   0  0  0  0  0  0  0  0  0  0  0  0  # atno 7974 bound_to 7965
  156.2951  140.2601  156.2729 H   0  0  0  0  0  0  0  0  0  0  0  0  # atno 8008 bound_to 7997
  154.9677  140.0391  157.2238 H   0  0  0  0  0  0  0  0  0  0  0  0  # atno 8009 bound_to 7997
  154.7887  140.2808  155.6012 H   0  0  0  0  0  0  0  0  0  0  0  0  # atno 8010 bound_to 7997
  140.2630  143.3395  152.0608 H   0  0  0  0  0  0  0  0  0  0  0  0  # atno 10167 bound_to 10162
  157.5687  131.1085  150.8407 H   0  0  0  0  0  0  0  0  0  0  0  0  # atno 10718 bound_to 10713
  153.2023  135.4417  155.0281 H   0  0  0  0  0  0  0  0  0  0  0  0  # atno 10763 bound_to 10752
  154.8154  135.3313  154.7193 H   0  0  0  0  0  0  0  0  0  0  0  0  # atno 10764 bound_to 10752
  153.7637  135.6989  153.4976 H   0  0  0  0  0  0  0  0  0  0  0  0  # atno 10765 bound_to 10752
  140.3673  134.7060  157.4370 H   0  0  0  0  0  0  0  0  0  0  0  0  # atno 11005 bound_to 11000
  145.9809  140.8683  143.0115 LP  0  0  0  0  0  0  0  0  0  0  0  0  # atno 17320 bound_to 7965
  144.6761  140.2079  143.7380 LP  0  0  0  0  0  0  0  0  0  0  0  0  # atno 17321 bound_to 7965
  139.5011  144.6706  151.6251 LP  0  0  0  0  0  0  0  0  0  0  0  0  # atno 17342 bound_to 10162
  140.5951  143.9711  150.6349 LP  0  0  0  0  0  0  0  0  0  0  0  0  # atno 17343 bound_to 10162
  156.8885  130.5204  149.5287 LP  0  0  0  0  0  0  0  0  0  0  0  0  # atno 17370 bound_to 10713
  156.0733  130.5761  150.9426 LP  0  0  0  0  0  0  0  0  0  0  0  0  # atno 17371 bound_to 10713
  140.0579  134.6037  155.8783 LP  0  0  0  0  0  0  0  0  0  0  0  0  # atno 17394 bound_to 11000
  141.1965  133.6592  156.5697 LP  0  0  0  0  0  0  0  0  0  0  0  0  # atno 17395 bound_to 11000

$$$$
