AV-unprocessed.smi:1923|AV-procd|sdf|7790|dock2
  -GOLD-   22720 9533D 1   1.00000     0.00000
 Structure written by MMmdl.
 55 57  0  0  0  0  0  0  0  0  2 V2000
  143.9201  132.9563  151.5749 C   0  0  0  0  0  0  0  0  0  0  0  0
  145.4084  133.3239  151.4437 C   0  0  2  0  0  0  0  0  0  0  0  0
  146.0355  133.7565  152.7813 C   0  0  0  0  0  0  0  0  0  0  0  0
  145.5850  135.1653  153.2075 C   0  0  0  0  0  0  0  0  0  0  0  0
  145.8752  136.1675  152.1496 N   0  3  2  0  0  0  0  0  0  0  0  0
  145.5761  137.5532  152.5913 C   0  0  0  0  0  0  0  0  0  0  0  0
  146.4475  138.5997  151.8693 C   0  0  0  0  0  0  0  0  0  0  0  0
  147.7661  138.7195  152.4813 N   0  0  0  0  0  0  0  0  0  0  0  0
  148.0604  139.5087  153.5243 C   0  0  0  0  0  0  0  0  0  0  0  0
  147.2248  140.2058  154.0991 O   0  0  0  0  0  0  0  0  0  0  0  0
  149.3611  139.4155  153.8516 N   0  0  0  0  0  0  0  0  0  0  0  0
  150.0776  140.0958  154.8743 C   0  0  0  0  0  0  0  0  0  0  0  0
  151.2256  139.5890  155.5270 C   0  0  0  0  0  0  0  0  0  0  0  0
  151.8315  140.3587  156.5387 C   0  0  0  0  0  0  0  0  0  0  0  0
  151.2766  141.6138  156.8828 C   0  0  0  0  0  0  0  0  0  0  0  0
  151.8693  142.4012  157.8943 N   0  0  0  0  0  0  0  0  0  0  0  0
  151.4974  143.8133  157.9700 C   0  0  0  0  0  0  0  0  0  0  0  0
  152.4374  144.5665  158.9265 C   0  0  0  0  0  0  0  0  0  0  0  0
  152.4365  143.9295  160.1997 O   0  0  0  0  0  0  0  0  0  0  0  0
  152.9093  142.5891  160.1204 C   0  0  0  0  0  0  0  0  0  0  0  0
  151.9895  141.7640  159.2036 C   0  0  0  0  0  0  0  0  0  0  0  0
  150.1737  142.0938  156.2578 N   0  0  0  0  0  0  0  0  0  0  0  0
  149.5943  141.3521  155.2912 C   0  0  0  0  0  0  0  0  0  0  0  0
  145.2213  135.8077  150.8631 C   0  0  0  0  0  0  0  0  0  0  0  0
  145.6624  134.4122  150.3850 C   0  0  0  0  0  0  0  0  0  0  0  0
  143.3140  133.8000  151.9034 H   0  0  0  0  0  0  0  0  0  0  0  0
  143.7798  132.1500  152.2954 H   0  0  0  0  0  0  0  0  0  0  0  0
  143.5181  132.6139  150.6211 H   0  0  0  0  0  0  0  0  0  0  0  0
  145.9212  132.4184  151.1162 H   0  0  0  0  0  0  0  0  0  0  0  0
  145.7966  133.0341  153.5626 H   0  0  0  0  0  0  0  0  0  0  0  0
  147.1222  133.7474  152.6851 H   0  0  0  0  0  0  0  0  0  0  0  0
  144.5193  135.1741  153.4402 H   0  0  0  0  0  0  0  0  0  0  0  0
  146.1076  135.4387  154.1250 H   0  0  0  0  0  0  0  0  0  0  0  0
  144.5136  137.7586  152.4522 H   0  0  0  0  0  0  0  0  0  0  0  0
  145.7672  137.6399  153.6619 H   0  0  0  0  0  0  0  0  0  0  0  0
  146.5850  138.3109  150.8272 H   0  0  0  0  0  0  0  0  0  0  0  0
  145.9710  139.5802  151.8585 H   0  0  0  0  0  0  0  0  0  0  0  0
  148.5117  138.1760  152.0710 H   0  0  0  0  0  0  0  0  0  0  0  0
  149.9020  138.7453  153.3250 H   0  0  0  0  0  0  0  0  0  0  0  0
  151.6502  138.6278  155.2849 H   0  0  0  0  0  0  0  0  0  0  0  0
  152.7175  139.9821  157.0275 H   0  0  0  0  0  0  0  0  0  0  0  0
  151.5479  144.2706  156.9809 H   0  0  0  0  0  0  0  0  0  0  0  0
  150.4669  143.8977  158.3175 H   0  0  0  0  0  0  0  0  0  0  0  0
  153.4520  144.6039  158.5264 H   0  0  0  0  0  0  0  0  0  0  0  0
  152.1040  145.5975  159.0446 H   0  0  0  0  0  0  0  0  0  0  0  0
  153.9373  142.5757  159.7542 H   0  0  0  0  0  0  0  0  0  0  0  0
  152.9234  142.1588  161.1219 H   0  0  0  0  0  0  0  0  0  0  0  0
  150.9963  141.6840  159.6473 H   0  0  0  0  0  0  0  0  0  0  0  0
  152.3837  140.7519  159.1265 H   0  0  0  0  0  0  0  0  0  0  0  0
  148.7148  141.7806  154.8329 H   0  0  0  0  0  0  0  0  0  0  0  0
  144.1374  135.8467  150.9782 H   0  0  0  0  0  0  0  0  0  0  0  0
  145.4762  136.5348  150.0930 H   0  0  0  0  0  0  0  0  0  0  0  0
  146.7274  134.4399  150.1505 H   0  0  0  0  0  0  0  0  0  0  0  0
  145.1555  134.1582  149.4534 H   0  0  0  0  0  0  0  0  0  0  0  0
  146.8723  136.1268  151.9938 H   0  0  0  0  0  0  0  0  0  0  0  0
  1  2  1  0  0  0  0
  1 26  1  0  0  0  0
  1 27  1  0  0  0  0
  1 28  1  0  0  0  0
  2 25  1  0  0  0  0
  2  3  1  0  0  0  0
  2 29  1  0  0  0  0
  3  4  1  0  0  0  0
  3 30  1  0  0  0  0
  3 31  1  0  0  0  0
  4  5  1  0  0  0  0
  4 32  1  0  0  0  0
  4 33  1  0  0  0  0
  5  6  1  0  0  0  0
  5 24  1  0  0  0  0
  5 55  1  0  0  0  0
  6  7  1  0  0  0  0
  6 34  1  0  0  0  0
  6 35  1  0  0  0  0
  7  8  1  0  0  0  0
  7 36  1  0  0  0  0
  7 37  1  0  0  0  0
  8  9  1  0  0  0  0
  8 38  1  0  0  0  0
  9 10  2  0  0  0  0
  9 11  1  0  0  0  0
 11 12  1  0  0  0  0
 11 39  1  0  0  0  0
 12 23  1  0  0  0  0
 12 13  2  0  0  0  0
 13 14  1  0  0  0  0
 13 40  1  0  0  0  0
 14 15  2  0  0  0  0
 14 41  1  0  0  0  0
 15 16  1  0  0  0  0
 15 22  1  0  0  0  0
 16 21  1  0  0  0  0
 16 17  1  0  0  0  0
 17 18  1  0  0  0  0
 17 42  1  0  0  0  0
 17 43  1  0  0  0  0
 18 19  1  0  0  0  0
 18 44  1  0  0  0  0
 18 45  1  0  0  0  0
 19 20  1  0  0  0  0
 20 21  1  0  0  0  0
 20 46  1  0  0  0  0
 20 47  1  0  0  0  0
 21 48  1  0  0  0  0
 21 49  1  0  0  0  0
 22 23  2  0  0  0  0
 23 50  1  0  0  0  0
 24 25  1  0  0  0  0
 24 51  1  0  0  0  0
 24 52  1  0  0  0  0
 25 53  1  0  0  0  0
 25 54  1  0  0  0  0
M  CHG  1   5   1
M  END
> <s_m_source_file>
AV-unprocessed.smi

> <i_m_source_file_index>
1923

> <i_lp_mmshare_version>
43012

> <i_f3d_flags>
0

> <s_epik_input>
W0NIM11bQ0hdMVtDSDJdW0NIMl1OKFtDSDJdW0NIMl0xKVtDSDJdW0NIMl1bTkhdQyg9TylbTkhdYzJbY0hdW2NIXWMobltjSF0yKU4zW0NIMl1bQ0gyXU9bQ0gyXVtDSDJdMw==

> <s_epik_cmdline>
J2VwaWtfcHl0aG9uJywgJy1waCcsICc3LjAnLCAnLXRuJywgJzgnLCAnLW1hJywgJzIwMCcsICctbWV0YWxfYmluZGluZycsICctaW1hZScsICc8aW5maWxlLm1hZT4nLCAnLW9tYWUnLCAnPG91dGZpbGUubWFlPic=

> <r_lp_tautomer_probability>
1

> <r_epik_Ionization_Penalty>
0.00307683

> <r_epik_Ionization_Penalty_Charging>
0.00139388

> <r_epik_Ionization_Penalty_Neutral>
0.00168296

> <r_epik_State_Penalty>
-0

> <r_epik_Charging_Adjusted_Penalty>
0.00139388

> <i_epik_Tot_Q>
1

> <i_epik_Tot_abs_Q>
1

> <r_epik_Metal_State_Penalty>
-0

> <b_epik_Metal_Only>
0

> <s_lp_Force_Field>
OPLS_2005

> <r_lp_Energy>
36.3694

> <b_lp_Chiralities_Consistent>
1

> <s_lp_Variant>
AV-unprocessed.smi:1923-2

> <Gold.Version>
5.8.1

> <Gold.Id.Protein>
6NUR|6NUR_protein|mol2

> <Gold.PLP.Fitness>
55.1542

> <Gold.PLP.PLP>
-48.3635

> <Gold.PLP.part.hbond>
-4.0000

> <Gold.PLP.part.metal>
0.0000

> <Gold.PLP.part.buried>
-4.1054

> <Gold.PLP.part.nonpolar>
-41.2144

> <Gold.PLP.part.repulsive>
1.0921

> <Gold.PLP.ligand.clash>
0.0000

> <Gold.PLP.ligand.torsion>
0.9243

> <Gold.PLP.Chemscore.Hbond>
2.7520

> <Gold.PLP.Chemscore.CHOScore>
0.0000

> <Gold.PLP.Chemscore.Metal>
0.0000

> <Gold.Chemscore.Hbonds>
donor molecule, donor type, donor heavy atom, donor atom, acceptor molecule, acceptor atom, score
      L1  H     5    55       P1  7948  1.82
      L1  H     8    38       P1  7948  0.77

> <Gold.PLP.Chemscore.Internal.Correction>
0.3834

> <Gold.Rescore>
     Score         DG    S(hbond)    S(metal)    S(lipo)     H(rot)  DE(clash)    DE(int)     intcor
     17.76     -20.44       1.68        0.00     114.85       1.60       0.44       2.23       ----

> <Gold.Chemscore.Fitness>
17.7638

> <Gold.Chemscore.DG>
-20.4370

> <Gold.Chemscore.ZeroCoef>
-5.4800

> <Gold.Chemscore.Hbond>
1.6796

> <Gold.Chemscore.Metal>
0.0000

> <Gold.Chemscore.Lipo>
114.8476

> <Gold.Chemscore.Internal_Hbond>
0.0000

> <Gold.Chemscore.DEClash>
0.4447

> <Gold.Chemscore.DEInternal>
2.2285

> <Gold.Chemscore.Rot>
1.5976

> <Gold.Chemscore.Internal.Correction>
   9.000000E+99

> <Gold.Chemscore.Hbonds>
donor molecule, donor type, donor heavy atom, donor atom, acceptor molecule, acceptor atom, score
      L1  H     5    55       P1  7948  0.89
      L1  H     8    38       P1  7948  0.74

> <Gold.Chemscore.Hbond.Weighted>
-5.6098

> <Gold.Chemscore.Metal.Weighted>
-0.0000

> <Gold.Chemscore.Lipo.Weighted>
-13.4372

> <Gold.Chemscore.Internal_Hbond.Weighted>
0.0000

> <Gold.Chemscore.DEClash.Weighted>
0.4447

> <Gold.Chemscore.DEInternal.Weighted>
2.2285

> <Gold.Chemscore.Rot.Weighted>
4.0899

> <Gold.Chemscore.Internal.Correction.Weighted>
   9.000000E+99

> <Gold.Protein.RotatedTorsions>
[ 6907 6896 6895 6894 ] final  -21.35 input  -60.11 | X-H torsion
[ 7974 7965 7964 7962 ] final -137.47 input  175.53 | X-H torsion
[ 8008 7997 7996 7995 ] final   17.04 input   59.86 | X-H torsion
[ 10167 10162 10161 10158 ] final  151.54 input  -65.29 | X-H torsion
[ 10718 10713 10712 10709 ] final -107.66 input   66.30 | X-H torsion
[ 10763 10752 10751 10750 ] final   31.22 input  -60.55 | X-H torsion
[ 11005 11000 10999 10996 ] final  166.69 input  -57.11 | X-H torsion

> <Gold.Protein.ActiveResidues>
 VAL166  LYS551  ARG553  GLY616  TRP617  ASP618  TYR619  PRO620  LYS621  CYS622 
 ASP623  PHE694  ASN695  SER759  ASP760  ASP761  ALA762  ILE779  LEU786  VAL792 
 PHE793  MET794  SER795  GLU796  ALA797  LYS798  CYS799  TRP800  GLU811  SER814 

> <Gold.Protein.RotatedAtoms>
  151.2347  135.0567  159.9001 H   0  0  0  0  0  0  0  0  0  0  0  0  # atno 6907 bound_to 6896
  152.5400  134.0499  159.8115 H   0  0  0  0  0  0  0  0  0  0  0  0  # atno 6908 bound_to 6896
  151.0684  133.5438  159.2660 H   0  0  0  0  0  0  0  0  0  0  0  0  # atno 6909 bound_to 6896
  144.8839  140.6547  143.5188 H   0  0  0  0  0  0  0  0  0  0  0  0  # atno 7974 bound_to 7965
  154.8857  140.2979  155.5399 H   0  0  0  0  0  0  0  0  0  0  0  0  # atno 8008 bound_to 7997
  156.3021  140.2434  156.3799 H   0  0  0  0  0  0  0  0  0  0  0  0  # atno 8009 bound_to 7997
  154.8671  140.0403  157.1690 H   0  0  0  0  0  0  0  0  0  0  0  0  # atno 8010 bound_to 7997
  139.4840  144.5432  151.7529 H   0  0  0  0  0  0  0  0  0  0  0  0  # atno 10167 bound_to 10162
  156.0447  130.5674  150.7853 H   0  0  0  0  0  0  0  0  0  0  0  0  # atno 10718 bound_to 10713
  153.0328  135.6444  154.1165 H   0  0  0  0  0  0  0  0  0  0  0  0  # atno 10763 bound_to 10752
  154.0885  135.2868  155.3278 H   0  0  0  0  0  0  0  0  0  0  0  0  # atno 10764 bound_to 10752
  154.6481  135.5436  153.7932 H   0  0  0  0  0  0  0  0  0  0  0  0  # atno 10765 bound_to 10752
  140.2690  134.7842  157.3658 H   0  0  0  0  0  0  0  0  0  0  0  0  # atno 11005 bound_to 11000
  145.3904  139.1618  143.4232 LP  0  0  0  0  0  0  0  0  0  0  0  0  # atno 17320 bound_to 7965
  146.3012  140.3992  142.8703 LP  0  0  0  0  0  0  0  0  0  0  0  0  # atno 17321 bound_to 7965
  140.4975  144.1219  150.5963 LP  0  0  0  0  0  0  0  0  0  0  0  0  # atno 17342 bound_to 10162
  140.4101  143.2661  151.9843 LP  0  0  0  0  0  0  0  0  0  0  0  0  # atno 17343 bound_to 10162
  157.5309  131.0936  150.9956 LP  0  0  0  0  0  0  0  0  0  0  0  0  # atno 17370 bound_to 10713
  157.0263  130.5693  149.5337 LP  0  0  0  0  0  0  0  0  0  0  0  0  # atno 17371 bound_to 10713
  140.1391  134.4995  155.8045 LP  0  0  0  0  0  0  0  0  0  0  0  0  # atno 17394 bound_to 11000
  141.2180  133.6818  156.7178 LP  0  0  0  0  0  0  0  0  0  0  0  0  # atno 17395 bound_to 11000

$$$$
