AV-unprocessed.smi:3147|AV-procd|sdf|11990|dock7
  -GOLD-   2272017393D 1   1.00000     0.00000
 Structure written by MMmdl.
 36 37  0  0  0  0  0  0  0  0  1 V2000
  152.4836  143.2860  162.7285 C   0  0  0  0  0  0  0  0  0  0  0  0
  151.9911  143.6632  161.3649 C   0  0  0  0  0  0  0  0  0  0  0  0
  151.1035  144.7241  161.2021 N   0  0  0  0  0  0  0  0  0  0  0  0
  150.8941  144.7657  159.8942 C   0  0  0  0  0  0  0  0  0  0  0  0
  151.5561  143.8338  159.1952 N   0  0  0  0  0  0  0  0  0  0  0  0
  151.5145  143.6445  157.7526 C   0  0  0  0  0  0  0  0  0  0  0  0
  150.9795  142.2658  157.3458 C   0  0  0  0  0  0  0  0  0  0  0  0
  151.5792  141.2332  157.6491 O   0  0  0  0  0  0  0  0  0  0  0  0
  149.8298  142.2686  156.6548 N   0  0  0  0  0  0  0  0  0  0  0  0
  149.1354  141.0796  156.1741 C   0  0  0  0  0  0  0  0  0  0  0  0
  148.6633  141.2440  154.7199 C   0  0  1  0  0  0  0  0  0  0  0  0
  148.2408  139.9357  154.0585 C   0  0  0  0  0  0  0  0  0  0  0  0
  147.3809  140.4387  152.9205 C   0  0  0  0  0  0  0  0  0  0  0  0
  146.6948  141.6582  153.5367 C   0  0  0  0  0  0  0  0  0  0  0  0
  147.4905  142.0479  154.6546 O   0  0  0  0  0  0  0  0  0  0  0  0
  152.2818  143.1048  160.1363 C   0  0  0  0  0  0  0  0  0  0  0  0
  153.1734  141.9608  159.7698 C   0  0  0  0  0  0  0  0  0  0  0  0
  153.1603  142.4330  162.6976 H   0  0  0  0  0  0  0  0  0  0  0  0
  151.6544  143.0211  163.3846 H   0  0  0  0  0  0  0  0  0  0  0  0
  153.0209  144.1132  163.1930 H   0  0  0  0  0  0  0  0  0  0  0  0
  150.2410  145.4919  159.4329 H   0  0  0  0  0  0  0  0  0  0  0  0
  150.8935  144.4221  157.3069 H   0  0  0  0  0  0  0  0  0  0  0  0
  152.5224  143.7765  157.3562 H   0  0  0  0  0  0  0  0  0  0  0  0
  149.4047  143.1597  156.4432 H   0  0  0  0  0  0  0  0  0  0  0  0
  149.7897  140.2105  156.2617 H   0  0  0  0  0  0  0  0  0  0  0  0
  148.2825  140.8916  156.8270 H   0  0  0  0  0  0  0  0  0  0  0  0
  149.4388  141.7151  154.1132 H   0  0  0  0  0  0  0  0  0  0  0  0
  149.0866  139.3345  153.7236 H   0  0  0  0  0  0  0  0  0  0  0  0
  147.6408  139.3342  154.7431 H   0  0  0  0  0  0  0  0  0  0  0  0
  148.0137  140.7475  152.0873 H   0  0  0  0  0  0  0  0  0  0  0  0
  146.6760  139.6923  152.5533 H   0  0  0  0  0  0  0  0  0  0  0  0
  146.6015  142.4746  152.8200 H   0  0  0  0  0  0  0  0  0  0  0  0
  145.6955  141.4047  153.8920 H   0  0  0  0  0  0  0  0  0  0  0  0
  153.7056  141.5722  160.6370 H   0  0  0  0  0  0  0  0  0  0  0  0
  153.9188  142.2702  159.0370 H   0  0  0  0  0  0  0  0  0  0  0  0
  152.5960  141.1424  159.3395 H   0  0  0  0  0  0  0  0  0  0  0  0
  1  2  1  0  0  0  0
  1 18  1  0  0  0  0
  1 19  1  0  0  0  0
  1 20  1  0  0  0  0
  2 16  2  0  0  0  0
  2  3  1  0  0  0  0
  3  4  2  0  0  0  0
  4  5  1  0  0  0  0
  4 21  1  0  0  0  0
  5  6  1  0  0  0  0
  5 16  1  0  0  0  0
  6  7  1  0  0  0  0
  6 22  1  0  0  0  0
  6 23  1  0  0  0  0
  7  8  2  0  0  0  0
  7  9  1  0  0  0  0
  9 10  1  0  0  0  0
  9 24  1  0  0  0  0
 10 11  1  0  0  0  0
 10 25  1  0  0  0  0
 10 26  1  0  0  0  0
 11 15  1  0  0  0  0
 11 12  1  0  0  0  0
 11 27  1  0  0  0  0
 12 13  1  0  0  0  0
 12 28  1  0  0  0  0
 12 29  1  0  0  0  0
 13 14  1  0  0  0  0
 13 30  1  0  0  0  0
 13 31  1  0  0  0  0
 14 15  1  0  0  0  0
 14 32  1  0  0  0  0
 14 33  1  0  0  0  0
 16 17  1  0  0  0  0
 17 34  1  0  0  0  0
 17 35  1  0  0  0  0
 17 36  1  0  0  0  0
M  END
> <s_m_source_file>
AV-unprocessed.smi

> <i_m_source_file_index>
3147

> <i_lp_mmshare_version>
43012

> <i_f3d_flags>
0

> <s_epik_input>
W0NIM11jMW5bY0hdbihjMVtDSDNdKVtDSDJdQyg9TylbTkhdW0NIMl1bQ0BASF0yW0NIMl1bQ0gyXVtDSDJdTzI=

> <s_epik_cmdline>
J2VwaWtfcHl0aG9uJywgJy1waCcsICc3LjAnLCAnLXRuJywgJzgnLCAnLW1hJywgJzIwMCcsICctbWV0YWxfYmluZGluZycsICctaW1hZScsICc8aW5maWxlLm1hZT4nLCAnLW9tYWUnLCAnPG91dGZpbGUubWFlPic=

> <r_lp_tautomer_probability>
1

> <r_epik_Ionization_Penalty>
0.957393

> <r_epik_Ionization_Penalty_Charging>
0.957393

> <r_epik_Ionization_Penalty_Neutral>
1.43432e-07

> <r_epik_State_Penalty>
1.0022

> <r_epik_Charging_Adjusted_Penalty>
1.9596

> <i_epik_Tot_Q>
0

> <i_epik_Tot_abs_Q>
0

> <r_epik_Metal_State_Penalty>
0.374967

> <b_epik_Metal_Only>
0

> <s_lp_Force_Field>
OPLS_2005

> <r_lp_Energy>
18.0511

> <b_lp_Chiralities_Consistent>
1

> <s_lp_Variant>
AV-unprocessed.smi:3147-4

> <Gold.Version>
5.8.1

> <Gold.Id.Protein>
6NUR|6NUR_protein|mol2

> <Gold.PLP.Fitness>
44.6430

> <Gold.PLP.PLP>
-42.0898

> <Gold.PLP.part.hbond>
-1.0000

> <Gold.PLP.part.metal>
0.0000

> <Gold.PLP.part.buried>
-7.1485

> <Gold.PLP.part.nonpolar>
-35.4304

> <Gold.PLP.part.repulsive>
2.0511

> <Gold.PLP.ligand.clash>
0.0000

> <Gold.PLP.ligand.torsion>
0.2343

> <Gold.PLP.Chemscore.Hbond>
1.0000

> <Gold.PLP.Chemscore.CHOScore>
0.0000

> <Gold.PLP.Chemscore.Metal>
0.0000

> <Gold.Chemscore.Hbonds>
donor molecule, donor type, donor heavy atom, donor atom, acceptor molecule, acceptor atom, score
      L1  H     9    24       P1  8028  1.00

> <Gold.PLP.Chemscore.Internal.Correction>
0.0218

> <Gold.Rescore>
     Score         DG    S(hbond)    S(metal)    S(lipo)     H(rot)  DE(clash)    DE(int)     intcor
     14.38     -15.40       0.99        0.00      93.84       1.70       0.43       0.59       ----

> <Gold.Chemscore.Fitness>
14.3825

> <Gold.Chemscore.DG>
-15.4029

> <Gold.Chemscore.ZeroCoef>
-5.4800

> <Gold.Chemscore.Hbond>
0.9892

> <Gold.Chemscore.Metal>
0.0000

> <Gold.Chemscore.Lipo>
93.8437

> <Gold.Chemscore.Internal_Hbond>
0.0000

> <Gold.Chemscore.DEClash>
0.4287

> <Gold.Chemscore.DEInternal>
0.5917

> <Gold.Chemscore.Rot>
1.7034

> <Gold.Chemscore.Internal.Correction>
   9.000000E+99

> <Gold.Chemscore.Hbonds>
donor molecule, donor type, donor heavy atom, donor atom, acceptor molecule, acceptor atom, score
      L1  H     9    24       P1  8028  1.00

> <Gold.Chemscore.Hbond.Weighted>
-3.3039

> <Gold.Chemscore.Metal.Weighted>
-0.0000

> <Gold.Chemscore.Lipo.Weighted>
-10.9797

> <Gold.Chemscore.Internal_Hbond.Weighted>
0.0000

> <Gold.Chemscore.DEClash.Weighted>
0.4287

> <Gold.Chemscore.DEInternal.Weighted>
0.5917

> <Gold.Chemscore.Rot.Weighted>
4.3607

> <Gold.Chemscore.Internal.Correction.Weighted>
   9.000000E+99

> <Gold.Protein.RotatedTorsions>
[ 6907 6896 6895 6894 ] final  -85.53 input  -60.11 | X-H torsion
[ 7974 7965 7964 7962 ] final  153.65 input  175.53 | X-H torsion
[ 8008 7997 7996 7995 ] final -104.11 input   59.86 | X-H torsion
[ 10167 10162 10161 10158 ] final  127.13 input  -65.29 | X-H torsion
[ 10718 10713 10712 10709 ] final  106.80 input   66.30 | X-H torsion
[ 10763 10752 10751 10750 ] final  -74.26 input  -60.55 | X-H torsion
[ 11005 11000 10999 10996 ] final  102.08 input  -57.11 | X-H torsion

> <Gold.Protein.ActiveResidues>
 VAL166  LYS551  ARG553  GLY616  TRP617  ASP618  TYR619  PRO620  LYS621  CYS622 
 ASP623  PHE694  ASN695  SER759  ASP760  ASP761  ALA762  ILE779  LEU786  VAL792 
 PHE793  MET794  SER795  GLU796  ALA797  LYS798  CYS799  TRP800  GLU811  SER814 

> <Gold.Protein.RotatedAtoms>
  150.6870  134.3191  159.4778 H   0  0  0  0  0  0  0  0  0  0  0  0  # atno 6907 bound_to 6896
  152.1068  134.9300  160.0577 H   0  0  0  0  0  0  0  0  0  0  0  0  # atno 6908 bound_to 6896
  152.0558  133.4005  159.4433 H   0  0  0  0  0  0  0  0  0  0  0  0  # atno 6909 bound_to 6896
  144.8140  139.6829  143.6129 H   0  0  0  0  0  0  0  0  0  0  0  0  # atno 7974 bound_to 7965
  154.8806  140.0419  157.1780 H   0  0  0  0  0  0  0  0  0  0  0  0  # atno 8008 bound_to 7997
  154.8643  140.2948  155.5499 H   0  0  0  0  0  0  0  0  0  0  0  0  # atno 8009 bound_to 7997
  156.2999  140.2441  156.3622 H   0  0  0  0  0  0  0  0  0  0  0  0  # atno 8010 bound_to 7997
  139.5594  144.6871  151.4086 H   0  0  0  0  0  0  0  0  0  0  0  0  # atno 10167 bound_to 10162
  157.6654  131.0859  150.6061 H   0  0  0  0  0  0  0  0  0  0  0  0  # atno 10718 bound_to 10713
  154.4707  135.5870  153.6319 H   0  0  0  0  0  0  0  0  0  0  0  0  # atno 10763 bound_to 10752
  152.9834  135.6066  154.3370 H   0  0  0  0  0  0  0  0  0  0  0  0  # atno 10764 bound_to 10752
  154.3252  135.2843  155.2479 H   0  0  0  0  0  0  0  0  0  0  0  0  # atno 10765 bound_to 10752
  139.8776  134.9209  156.5003 H   0  0  0  0  0  0  0  0  0  0  0  0  # atno 11005 bound_to 11000
  146.2442  139.6063  142.9471 LP  0  0  0  0  0  0  0  0  0  0  0  0  # atno 17320 bound_to 7965
  145.5257  141.0430  143.2411 LP  0  0  0  0  0  0  0  0  0  0  0  0  # atno 17321 bound_to 7965
  140.6872  143.7946  150.7203 LP  0  0  0  0  0  0  0  0  0  0  0  0  # atno 17342 bound_to 10162
  140.1417  143.4435  152.2189 LP  0  0  0  0  0  0  0  0  0  0  0  0  # atno 17343 bound_to 10162
  156.6362  130.4446  149.5768 LP  0  0  0  0  0  0  0  0  0  0  0  0  # atno 17370 bound_to 10713
  156.2244  130.6756  151.1400 LP  0  0  0  0  0  0  0  0  0  0  0  0  # atno 17371 bound_to 10713
  140.8594  133.8071  155.9250 LP  0  0  0  0  0  0  0  0  0  0  0  0  # atno 17394 bound_to 11000
  140.9064  134.2314  157.5011 LP  0  0  0  0  0  0  0  0  0  0  0  0  # atno 17395 bound_to 11000

$$$$
