AV-unprocessed.smi:2281|AV-procd|sdf|9193|dock5
  -GOLD-   2272012413D 1   1.00000     0.00000
 Structure written by MMmdl.
 40 41  0  0  0  0  0  0  0  0  1 V2000
  155.1222  140.5422  160.5136 C   0  0  0  0  0  0  0  0  0  0  0  0
  153.8085  140.6297  159.7572 C   0  0  0  0  0  0  0  0  0  0  0  0
  153.6162  139.6631  158.7667 N   0  0  0  0  0  0  0  0  0  0  0  0
  152.5310  139.6669  158.0642 C   0  0  0  0  0  0  0  0  0  0  0  0
  151.5255  140.6288  158.2588 N   0  0  0  0  0  0  0  0  0  0  0  0
  150.3351  140.5067  157.3922 C   0  0  0  0  0  0  0  0  0  0  0  0
  150.4638  141.1710  155.9863 C   0  0  1  0  0  0  0  0  0  0  0  0
  150.9144  142.6486  156.0072 C   0  0  0  0  0  0  0  0  0  0  0  0
  151.5017  140.4790  155.3136 O   0  0  0  0  0  0  0  0  0  0  0  0
  149.1263  141.0394  155.2421 C   0  0  0  0  0  0  0  0  0  0  0  0
  148.9803  140.2008  154.1105 C   0  0  0  0  0  0  0  0  0  0  0  0
  147.7402  140.0953  153.4528 C   0  0  0  0  0  0  0  0  0  0  0  0
  146.6298  140.8243  153.9156 C   0  0  0  0  0  0  0  0  0  0  0  0
  146.7535  141.6673  155.0391 C   0  0  0  0  0  0  0  0  0  0  0  0
  145.5471  142.4440  155.5458 C   0  0  0  0  0  0  0  0  0  0  0  0
  145.8429  143.1335  156.6482 F   0  0  0  0  0  0  0  0  0  0  0  0
  145.1198  143.3030  154.6196 F   0  0  0  0  0  0  0  0  0  0  0  0
  144.5633  141.5901  155.8258 F   0  0  0  0  0  0  0  0  0  0  0  0
  147.9991  141.7639  155.6967 C   0  0  0  0  0  0  0  0  0  0  0  0
  151.6224  141.5903  159.2245 C   0  0  0  0  0  0  0  0  0  0  0  0
  150.7257  142.4148  159.4115 O   0  0  0  0  0  0  0  0  0  0  0  0
  152.8662  141.5779  160.0113 C   0  0  0  0  0  0  0  0  0  0  0  0
  153.0219  142.6572  161.0756 C   0  0  0  0  0  0  0  0  0  0  0  0
  155.6915  141.4650  160.3990 H   0  0  0  0  0  0  0  0  0  0  0  0
  155.7391  139.7216  160.1455 H   0  0  0  0  0  0  0  0  0  0  0  0
  154.9407  140.3733  161.5753 H   0  0  0  0  0  0  0  0  0  0  0  0
  152.3307  138.9317  157.2829 H   0  0  0  0  0  0  0  0  0  0  0  0
  150.0436  139.4599  157.2808 H   0  0  0  0  0  0  0  0  0  0  0  0
  149.4875  140.9439  157.9217 H   0  0  0  0  0  0  0  0  0  0  0  0
  150.2261  143.2784  156.5700 H   0  0  0  0  0  0  0  0  0  0  0  0
  150.9715  143.0534  154.9961 H   0  0  0  0  0  0  0  0  0  0  0  0
  151.9022  142.7678  156.4534 H   0  0  0  0  0  0  0  0  0  0  0  0
  152.3320  140.7987  155.6315 H   0  0  0  0  0  0  0  0  0  0  0  0
  149.8097  139.6243  153.7297 H   0  0  0  0  0  0  0  0  0  0  0  0
  147.6403  139.4510  152.5918 H   0  0  0  0  0  0  0  0  0  0  0  0
  145.6817  140.7307  153.4069 H   0  0  0  0  0  0  0  0  0  0  0  0
  148.0894  142.3970  156.5670 H   0  0  0  0  0  0  0  0  0  0  0  0
  153.0135  143.6443  160.6122 H   0  0  0  0  0  0  0  0  0  0  0  0
  153.9455  142.5690  161.6453 H   0  0  0  0  0  0  0  0  0  0  0  0
  152.1950  142.6092  161.7848 H   0  0  0  0  0  0  0  0  0  0  0  0
  1  2  1  0  0  0  0
  1 24  1  0  0  0  0
  1 25  1  0  0  0  0
  1 26  1  0  0  0  0
  2 22  2  0  0  0  0
  2  3  1  0  0  0  0
  3  4  2  0  0  0  0
  4  5  1  0  0  0  0
  4 27  1  0  0  0  0
  5  6  1  0  0  0  0
  5 20  1  0  0  0  0
  6  7  1  0  0  0  0
  6 28  1  0  0  0  0
  6 29  1  0  0  0  0
  7  8  1  0  0  0  0
  7  9  1  0  0  0  0
  7 10  1  0  0  0  0
  8 30  1  0  0  0  0
  8 31  1  0  0  0  0
  8 32  1  0  0  0  0
  9 33  1  0  0  0  0
 10 19  1  0  0  0  0
 10 11  2  0  0  0  0
 11 12  1  0  0  0  0
 11 34  1  0  0  0  0
 12 13  2  0  0  0  0
 12 35  1  0  0  0  0
 13 14  1  0  0  0  0
 13 36  1  0  0  0  0
 14 15  1  0  0  0  0
 14 19  2  0  0  0  0
 15 16  1  0  0  0  0
 15 17  1  0  0  0  0
 15 18  1  0  0  0  0
 19 37  1  0  0  0  0
 20 21  2  0  0  0  0
 20 22  1  0  0  0  0
 22 23  1  0  0  0  0
 23 38  1  0  0  0  0
 23 39  1  0  0  0  0
 23 40  1  0  0  0  0
M  END
> <s_m_source_file>
AV-unprocessed.smi

> <i_m_source_file_index>
2281

> <i_lp_mmshare_version>
43012

> <i_f3d_flags>
0

> <s_epik_input>
W0NIM11jMW5bY0hdbihjKD1PKWMxW0NIM10pW0NIMl1bQ0BAXShbQ0gzXSkoW09IXSljMltjSF1bY0hdW2NIXWMoQyhGKShGKUYpW2NIXTI=

> <s_epik_cmdline>
J2VwaWtfcHl0aG9uJywgJy1waCcsICc3LjAnLCAnLXRuJywgJzgnLCAnLW1hJywgJzIwMCcsICctbWV0YWxfYmluZGluZycsICctaW1hZScsICc8aW5maWxlLm1hZT4nLCAnLW9tYWUnLCAnPG91dGZpbGUubWFlPic=

> <r_lp_tautomer_probability>
1

> <r_epik_Ionization_Penalty>
5.68222e-05

> <r_epik_Ionization_Penalty_Charging>
9.07816e-08

> <r_epik_Ionization_Penalty_Neutral>
5.67314e-05

> <r_epik_State_Penalty>
-0

> <r_epik_Charging_Adjusted_Penalty>
9.07816e-08

> <i_epik_Tot_Q>
0

> <i_epik_Tot_abs_Q>
0

> <r_epik_Metal_State_Penalty>
-0

> <b_epik_Metal_Only>
0

> <s_lp_Force_Field>
OPLS_2005

> <r_lp_Energy>
23.727

> <b_lp_Chiralities_Consistent>
1

> <s_lp_Variant>
AV-unprocessed.smi:2281-1

> <Gold.Version>
5.8.1

> <Gold.Id.Protein>
6NUR|6NUR_protein|mol2

> <Gold.PLP.Fitness>
43.2302

> <Gold.PLP.PLP>
-38.3233

> <Gold.PLP.part.hbond>
-3.0000

> <Gold.PLP.part.metal>
0.0000

> <Gold.PLP.part.buried>
0.4713

> <Gold.PLP.part.nonpolar>
-35.1371

> <Gold.PLP.part.repulsive>
0.0089

> <Gold.PLP.ligand.clash>
0.8745

> <Gold.PLP.ligand.torsion>
0.4809

> <Gold.PLP.Chemscore.Hbond>
1.8800

> <Gold.PLP.Chemscore.CHOScore>
0.0000

> <Gold.PLP.Chemscore.Metal>
0.0000

> <Gold.Chemscore.Hbonds>
donor molecule, donor type, donor heavy atom, donor atom, acceptor molecule, acceptor atom, score
      P1  H  7989  7998       L1     9  0.85
      P1  H  7997  8008       L1     3  0.94

> <Gold.PLP.Chemscore.Internal.Correction>
1.1032

> <Gold.Rescore>
     Score         DG    S(hbond)    S(metal)    S(lipo)     H(rot)  DE(clash)    DE(int)     intcor
     12.02     -13.64       0.68        0.00      96.05       2.09       1.10       0.52       ----

> <Gold.Chemscore.Fitness>
12.0182

> <Gold.Chemscore.DG>
-13.6371

> <Gold.Chemscore.ZeroCoef>
-5.4800

> <Gold.Chemscore.Hbond>
0.6764

> <Gold.Chemscore.Metal>
0.0000

> <Gold.Chemscore.Lipo>
96.0531

> <Gold.Chemscore.Internal_Hbond>
0.0000

> <Gold.Chemscore.DEClash>
1.0954

> <Gold.Chemscore.DEInternal>
0.5235

> <Gold.Chemscore.Rot>
2.0860

> <Gold.Chemscore.Internal.Correction>
   9.000000E+99

> <Gold.Chemscore.Hbonds>
donor molecule, donor type, donor heavy atom, donor atom, acceptor molecule, acceptor atom, score
      P1  H  7989  7998       L1     9  0.20
      P1  H  7997  8008       L1     3  0.12

> <Gold.Chemscore.Hbond.Weighted>
-2.2591

> <Gold.Chemscore.Metal.Weighted>
-0.0000

> <Gold.Chemscore.Lipo.Weighted>
-11.2382

> <Gold.Chemscore.Internal_Hbond.Weighted>
0.0000

> <Gold.Chemscore.DEClash.Weighted>
1.0954

> <Gold.Chemscore.DEInternal.Weighted>
0.5235

> <Gold.Chemscore.Rot.Weighted>
5.3402

> <Gold.Chemscore.Internal.Correction.Weighted>
   9.000000E+99

> <Gold.Protein.RotatedTorsions>
[ 6907 6896 6895 6894 ] final  -87.28 input  -60.11 | X-H torsion
[ 7974 7965 7964 7962 ] final   80.55 input  175.53 | X-H torsion
[ 8008 7997 7996 7995 ] final -112.83 input   59.86 | X-H torsion
[ 10167 10162 10161 10158 ] final -136.40 input  -65.29 | X-H torsion
[ 10718 10713 10712 10709 ] final  -42.81 input   66.30 | X-H torsion
[ 10763 10752 10751 10750 ] final  -57.31 input  -60.55 | X-H torsion
[ 11005 11000 10999 10996 ] final  -42.99 input  -57.11 | X-H torsion

> <Gold.Protein.ActiveResidues>
 VAL166  LYS551  ARG553  GLY616  TRP617  ASP618  TYR619  PRO620  LYS621  CYS622 
 ASP623  PHE694  ASN695  SER759  ASP760  ASP761  ALA762  ILE779  LEU786  VAL792 
 PHE793  MET794  SER795  GLU796  ALA797  LYS798  CYS799  TRP800  GLU811  SER814 

> <Gold.Protein.RotatedAtoms>
  150.6866  134.2920  159.4670 H   0  0  0  0  0  0  0  0  0  0  0  0  # atno 6907 bound_to 6896
  152.0824  134.9459  160.0582 H   0  0  0  0  0  0  0  0  0  0  0  0  # atno 6908 bound_to 6896
  152.0807  133.4117  159.4537 H   0  0  0  0  0  0  0  0  0  0  0  0  # atno 6909 bound_to 6896
  145.6497  139.2445  143.1984 H   0  0  0  0  0  0  0  0  0  0  0  0  # atno 7974 bound_to 7965
  155.0113  140.0393  157.2400 H   0  0  0  0  0  0  0  0  0  0  0  0  # atno 8008 bound_to 7997
  154.7457  140.2757  155.6312 H   0  0  0  0  0  0  0  0  0  0  0  0  # atno 8009 bound_to 7997
  156.2874  140.2656  156.2197 H   0  0  0  0  0  0  0  0  0  0  0  0  # atno 8010 bound_to 7997
  139.8681  143.6992  152.2643 H   0  0  0  0  0  0  0  0  0  0  0  0  # atno 10167 bound_to 10162
  156.2556  130.4192  149.8599 H   0  0  0  0  0  0  0  0  0  0  0  0  # atno 10718 bound_to 10713
  154.2203  135.6379  153.5143 H   0  0  0  0  0  0  0  0  0  0  0  0  # atno 10763 bound_to 10752
  152.9970  135.5495  154.6121 H   0  0  0  0  0  0  0  0  0  0  0  0  # atno 10764 bound_to 10752
  154.5579  135.2906  155.0921 H   0  0  0  0  0  0  0  0  0  0  0  0  # atno 10765 bound_to 10752
  141.0353  133.6802  156.2671 H   0  0  0  0  0  0  0  0  0  0  0  0  # atno 11005 bound_to 11000
  146.1214  140.7304  142.9456 LP  0  0  0  0  0  0  0  0  0  0  0  0  # atno 17320 bound_to 7965
  144.7127  140.4098  143.7068 LP  0  0  0  0  0  0  0  0  0  0  0  0  # atno 17321 bound_to 7965
  139.7310  144.7582  151.0803 LP  0  0  0  0  0  0  0  0  0  0  0  0  # atno 17342 bound_to 10162
  140.7765  143.5089  150.9677 LP  0  0  0  0  0  0  0  0  0  0  0  0  # atno 17343 bound_to 10162
  156.6132  130.8595  151.3459 LP  0  0  0  0  0  0  0  0  0  0  0  0  # atno 17370 bound_to 10713
  157.7231  130.9586  150.1522 LP  0  0  0  0  0  0  0  0  0  0  0  0  # atno 17371 bound_to 10713
  140.6333  134.5242  157.5562 LP  0  0  0  0  0  0  0  0  0  0  0  0  # atno 17394 bound_to 11000
  139.9236  134.8099  156.1134 LP  0  0  0  0  0  0  0  0  0  0  0  0  # atno 17395 bound_to 11000

$$$$
