AV-unprocessed.smi:1868|AV-procd|sdf|7590|dock10
  -GOLD-   22720 9303D 1   1.00000     0.00000
 Structure written by MMmdl.
 48 50  0  0  0  0  0  0  0  0  3 V2000
  146.4738  142.4405  154.3172 C   0  0  0  0  0  0  0  0  0  0  0  0
  147.6278  141.6686  154.8633 C   0  0  0  0  0  0  0  0  0  0  0  0
  148.8188  142.1908  155.2707 N   0  3  0  0  0  0  0  0  0  0  0  0
  149.6527  141.1678  155.7248 C   0  0  0  0  0  0  0  0  0  0  0  0
  150.9473  141.2048  156.2338 C   0  0  0  0  0  0  0  0  0  0  0  0
  151.5151  139.9697  156.6093 C   0  0  0  0  0  0  0  0  0  0  0  0
  150.8008  138.7614  156.4736 C   0  0  0  0  0  0  0  0  0  0  0  0
  149.4886  138.7361  155.9561 C   0  0  0  0  0  0  0  0  0  0  0  0
  148.9352  139.9618  155.5868 C   0  0  0  0  0  0  0  0  0  0  0  0
  147.6936  140.3184  155.0487 N   0  0  0  0  0  0  0  0  0  0  0  0
  146.6975  139.2694  154.7798 C   0  0  0  0  0  0  0  0  0  0  0  0
  147.2861  138.0530  154.0359 C   0  0  2  0  0  0  0  0  0  0  0  0
  147.5057  138.4028  152.6824 O   0  0  0  0  0  0  0  0  0  0  0  0
  146.3318  136.8421  154.0991 C   0  0  0  0  0  0  0  0  0  0  0  0
  146.2762  136.0675  152.8314 N   0  3  2  0  0  0  0  0  0  0  0  0
  145.2382  136.5915  151.9061 C   0  0  0  0  0  0  0  0  0  0  0  0
  145.2791  135.8695  150.5472 C   0  0  0  0  0  0  0  0  0  0  0  0
  145.1511  134.3426  150.6938 C   0  0  2  0  0  0  0  0  0  0  0  0
  143.7207  133.8946  151.0430 C   0  0  0  0  0  0  0  0  0  0  0  0
  146.1961  133.8384  151.7052 C   0  0  0  0  0  0  0  0  0  0  0  0
  146.1306  134.6017  153.0404 C   0  0  0  0  0  0  0  0  0  0  0  0
  146.7089  143.5043  154.2761 H   0  0  0  0  0  0  0  0  0  0  0  0
  145.5964  142.3038  154.9494 H   0  0  0  0  0  0  0  0  0  0  0  0
  146.2351  142.1001  153.3097 H   0  0  0  0  0  0  0  0  0  0  0  0
  151.4962  142.1292  156.3397 H   0  0  0  0  0  0  0  0  0  0  0  0
  152.5182  139.9490  157.0104 H   0  0  0  0  0  0  0  0  0  0  0  0
  151.2694  137.8351  156.7735 H   0  0  0  0  0  0  0  0  0  0  0  0
  148.9500  137.8056  155.8573 H   0  0  0  0  0  0  0  0  0  0  0  0
  146.2526  138.9685  155.7291 H   0  0  0  0  0  0  0  0  0  0  0  0
  145.8931  139.7181  154.1954 H   0  0  0  0  0  0  0  0  0  0  0  0
  148.2485  137.8089  154.4829 H   0  0  0  0  0  0  0  0  0  0  0  0
  147.7152  137.6228  152.1921 H   0  0  0  0  0  0  0  0  0  0  0  0
  146.6208  136.1721  154.9103 H   0  0  0  0  0  0  0  0  0  0  0  0
  145.3345  137.2066  154.3505 H   0  0  0  0  0  0  0  0  0  0  0  0
  144.2537  136.4904  152.3646 H   0  0  0  0  0  0  0  0  0  0  0  0
  145.3986  137.6578  151.7420 H   0  0  0  0  0  0  0  0  0  0  0  0
  144.4936  136.2539  149.8954 H   0  0  0  0  0  0  0  0  0  0  0  0
  146.2226  136.1033  150.0516 H   0  0  0  0  0  0  0  0  0  0  0  0
  145.3858  133.8969  149.7261 H   0  0  0  0  0  0  0  0  0  0  0  0
  143.3823  134.2992  151.9965 H   0  0  0  0  0  0  0  0  0  0  0  0
  143.6576  132.8077  151.1059 H   0  0  0  0  0  0  0  0  0  0  0  0
  143.0125  134.2176  150.2794 H   0  0  0  0  0  0  0  0  0  0  0  0
  146.0690  132.7691  151.8780 H   0  0  0  0  0  0  0  0  0  0  0  0
  147.1931  133.9577  151.2789 H   0  0  0  0  0  0  0  0  0  0  0  0
  146.9220  134.2290  153.6889 H   0  0  0  0  0  0  0  0  0  0  0  0
  145.1892  134.3952  153.5513 H   0  0  0  0  0  0  0  0  0  0  0  0
  147.1606  136.2144  152.3666 H   0  0  0  0  0  0  0  0  0  0  0  0
  149.0424  143.1775  155.2412 H   0  0  0  0  0  0  0  0  0  0  0  0
  1  2  1  0  0  0  0
  1 22  1  0  0  0  0
  1 23  1  0  0  0  0
  1 24  1  0  0  0  0
  2 10  1  0  0  0  0
  2  3  2  0  0  0  0
  3  4  1  0  0  0  0
  3 48  1  0  0  0  0
  4  9  2  0  0  0  0
  4  5  1  0  0  0  0
  5  6  2  0  0  0  0
  5 25  1  0  0  0  0
  6  7  1  0  0  0  0
  6 26  1  0  0  0  0
  7  8  2  0  0  0  0
  7 27  1  0  0  0  0
  8  9  1  0  0  0  0
  8 28  1  0  0  0  0
  9 10  1  0  0  0  0
 10 11  1  0  0  0  0
 11 12  1  0  0  0  0
 11 29  1  0  0  0  0
 11 30  1  0  0  0  0
 12 13  1  0  0  0  0
 12 14  1  0  0  0  0
 12 31  1  0  0  0  0
 13 32  1  0  0  0  0
 14 15  1  0  0  0  0
 14 33  1  0  0  0  0
 14 34  1  0  0  0  0
 15 21  1  0  0  0  0
 15 16  1  0  0  0  0
 15 47  1  0  0  0  0
 16 17  1  0  0  0  0
 16 35  1  0  0  0  0
 16 36  1  0  0  0  0
 17 18  1  0  0  0  0
 17 37  1  0  0  0  0
 17 38  1  0  0  0  0
 18 19  1  0  0  0  0
 18 20  1  0  0  0  0
 18 39  1  0  0  0  0
 19 40  1  0  0  0  0
 19 41  1  0  0  0  0
 19 42  1  0  0  0  0
 20 21  1  0  0  0  0
 20 43  1  0  0  0  0
 20 44  1  0  0  0  0
 21 45  1  0  0  0  0
 21 46  1  0  0  0  0
M  CHG  1   3   1
M  CHG  1  15   1
M  END
> <s_m_source_file>
AV-unprocessed.smi

> <i_m_source_file_index>
1868

> <i_lp_mmshare_version>
43012

> <i_f3d_flags>
0

> <s_epik_input>
W2NIXTFbY0hdW2NIXVtjSF1jKGMxMiluKGMobjIpW0NIM10pW0NIMl1bQ0BIXShbT0hdKVtDSDJdTjNbQ0gyXVtDSDJdW0NIXShbQ0gzXSlbQ0gyXVtDSDJdMw==

> <s_epik_cmdline>
J2VwaWtfcHl0aG9uJywgJy1waCcsICc3LjAnLCAnLXRuJywgJzgnLCAnLW1hJywgJzIwMCcsICctbWV0YWxfYmluZGluZycsICctaW1hZScsICc8aW5maWxlLm1hZT4nLCAnLW9tYWUnLCAnPG91dGZpbGUubWFlPic=

> <r_epik_Ionization_Penalty>
1.10901

> <r_epik_Ionization_Penalty_Charging>
1.10901

> <r_epik_Ionization_Penalty_Neutral>
6.90208e-07

> <r_epik_State_Penalty>
1.18788

> <r_epik_Charging_Adjusted_Penalty>
2.29689

> <i_epik_Tot_Q>
2

> <i_epik_Tot_abs_Q>
2

> <r_epik_Metal_State_Penalty>
5.19353

> <b_epik_Metal_Only>
0

> <s_lp_Force_Field>
OPLS_2005

> <r_lp_Energy>
32.3741

> <b_lp_Chiralities_Consistent>
1

> <s_lp_Variant>
AV-unprocessed.smi:1868-7

> <Gold.Version>
5.8.1

> <Gold.Id.Protein>
6NUR|6NUR_protein|mol2

> <Gold.PLP.Fitness>
47.6492

> <Gold.PLP.PLP>
-35.1903

> <Gold.PLP.part.hbond>
-3.8658

> <Gold.PLP.part.metal>
0.0000

> <Gold.PLP.part.buried>
-5.9169

> <Gold.PLP.part.nonpolar>
-26.7600

> <Gold.PLP.part.repulsive>
0.2039

> <Gold.PLP.ligand.clash>
0.0000

> <Gold.PLP.ligand.torsion>
1.2285

> <Gold.PLP.Chemscore.Hbond>
4.9600

> <Gold.PLP.Chemscore.CHOScore>
0.0000

> <Gold.PLP.Chemscore.Metal>
0.0000

> <Gold.Chemscore.Hbonds>
donor molecule, donor type, donor heavy atom, donor atom, acceptor molecule, acceptor atom, score
      L1  H     3    48       P1  8028  2.00
      L1  H    13    32       P1  7948  0.96
      L1  H    15    47       P1  7948  2.00

> <Gold.PLP.Chemscore.Internal.Correction>
0.0359

> <Gold.Rescore>
     Score         DG    S(hbond)    S(metal)    S(lipo)     H(rot)  DE(clash)    DE(int)     intcor
     17.93     -19.08       2.92        0.00      76.29       1.99       0.03       1.13       ----

> <Gold.Chemscore.Fitness>
17.9310

> <Gold.Chemscore.DG>
-19.0848

> <Gold.Chemscore.ZeroCoef>
-5.4800

> <Gold.Chemscore.Hbond>
2.9234

> <Gold.Chemscore.Metal>
0.0000

> <Gold.Chemscore.Lipo>
76.2888

> <Gold.Chemscore.Internal_Hbond>
0.0000

> <Gold.Chemscore.DEClash>
0.0251

> <Gold.Chemscore.DEInternal>
1.1287

> <Gold.Chemscore.Rot>
1.9863

> <Gold.Chemscore.Internal.Correction>
   9.000000E+99

> <Gold.Chemscore.Hbonds>
donor molecule, donor type, donor heavy atom, donor atom, acceptor molecule, acceptor atom, score
      L1  H     3    48       P1  8028  0.96
      L1  H    13    32       P1  7948  0.92
      L1  H    15    47       P1  7948  1.00

> <Gold.Chemscore.Hbond.Weighted>
-9.7641

> <Gold.Chemscore.Metal.Weighted>
-0.0000

> <Gold.Chemscore.Lipo.Weighted>
-8.9258

> <Gold.Chemscore.Internal_Hbond.Weighted>
0.0000

> <Gold.Chemscore.DEClash.Weighted>
0.0251

> <Gold.Chemscore.DEInternal.Weighted>
1.1287

> <Gold.Chemscore.Rot.Weighted>
5.0850

> <Gold.Chemscore.Internal.Correction.Weighted>
   9.000000E+99

> <Gold.Protein.RotatedTorsions>
[ 6907 6896 6895 6894 ] final   68.33 input  -60.11 | X-H torsion
[ 7974 7965 7964 7962 ] final   33.60 input  175.53 | X-H torsion
[ 8008 7997 7996 7995 ] final  143.02 input   59.86 | X-H torsion
[ 10167 10162 10161 10158 ] final  -97.18 input  -65.29 | X-H torsion
[ 10718 10713 10712 10709 ] final  -45.17 input   66.30 | X-H torsion
[ 10763 10752 10751 10750 ] final -172.25 input  -60.55 | X-H torsion
[ 11005 11000 10999 10996 ] final  -59.17 input  -57.11 | X-H torsion

> <Gold.Protein.ActiveResidues>
 VAL166  LYS551  ARG553  GLY616  TRP617  ASP618  TYR619  PRO620  LYS621  CYS622 
 ASP623  PHE694  ASN695  SER759  ASP760  ASP761  ALA762  ILE779  LEU786  VAL792 
 PHE793  MET794  SER795  GLU796  ALA797  LYS798  CYS799  TRP800  GLU811  SER814 

> <Gold.Protein.RotatedAtoms>
  152.4613  134.5178  159.9773 H   0  0  0  0  0  0  0  0  0  0  0  0  # atno 6907 bound_to 6896
  151.5226  133.3458  159.2912 H   0  0  0  0  0  0  0  0  0  0  0  0  # atno 6908 bound_to 6896
  150.8577  134.7950  159.7121 H   0  0  0  0  0  0  0  0  0  0  0  0  # atno 6909 bound_to 6896
  146.1410  139.6376  142.9163 H   0  0  0  0  0  0  0  0  0  0  0  0  # atno 7974 bound_to 7965
  156.2938  140.2273  156.4823 H   0  0  0  0  0  0  0  0  0  0  0  0  # atno 8008 bound_to 7997
  154.7842  140.0458  157.1172 H   0  0  0  0  0  0  0  0  0  0  0  0  # atno 8009 bound_to 7997
  154.9722  140.3068  155.4986 H   0  0  0  0  0  0  0  0  0  0  0  0  # atno 8010 bound_to 7997
  140.2861  143.3251  152.0393 H   0  0  0  0  0  0  0  0  0  0  0  0  # atno 10167 bound_to 10162
  156.2310  130.4172  149.8874 H   0  0  0  0  0  0  0  0  0  0  0  0  # atno 10718 bound_to 10713
  154.6215  135.2876  155.0321 H   0  0  0  0  0  0  0  0  0  0  0  0  # atno 10763 bound_to 10752
  154.1514  135.6503  153.4968 H   0  0  0  0  0  0  0  0  0  0  0  0  # atno 10764 bound_to 10752
  153.0238  135.5356  154.7006 H   0  0  0  0  0  0  0  0  0  0  0  0  # atno 10765 bound_to 10752
  141.1237  133.6615  156.5032 H   0  0  0  0  0  0  0  0  0  0  0  0  # atno 11005 bound_to 11000
  145.5047  141.0437  143.2521 LP  0  0  0  0  0  0  0  0  0  0  0  0  # atno 17320 bound_to 7965
  144.7792  139.6563  143.7161 LP  0  0  0  0  0  0  0  0  0  0  0  0  # atno 17321 bound_to 7965
  139.4950  144.6558  151.6575 LP  0  0  0  0  0  0  0  0  0  0  0  0  # atno 17342 bound_to 10162
  140.5772  144.0009  150.6248 LP  0  0  0  0  0  0  0  0  0  0  0  0  # atno 17343 bound_to 10162
  156.6489  130.8735  151.3527 LP  0  0  0  0  0  0  0  0  0  0  0  0  # atno 17370 bound_to 10713
  157.7133  130.9466  150.1165 LP  0  0  0  0  0  0  0  0  0  0  0  0  # atno 17371 bound_to 10713
  140.4429  134.6999  157.5001 LP  0  0  0  0  0  0  0  0  0  0  0  0  # atno 17394 bound_to 11000
  140.0217  134.6537  155.9230 LP  0  0  0  0  0  0  0  0  0  0  0  0  # atno 17395 bound_to 11000

$$$$
