AV-unprocessed.smi:1644|AV-procd|sdf|6591|dock9
  -GOLD-   22720 7283D 1   1.00000     0.00000
 Structure written by MMmdl.
 50 52  0  0  0  0  0  0  0  0  2 V2000
  146.8400  134.8010  162.2643 C   0  0  0  0  0  0  0  0  0  0  0  0
  147.1204  135.6148  160.9966 C   0  0  0  0  0  0  0  0  0  0  0  0
  146.8880  134.7977  159.7092 C   0  0  0  0  0  0  0  0  0  0  0  0
  147.1488  135.5453  158.3813 C   0  0  1  0  0  0  0  0  0  0  0  0
  146.4316  136.8010  158.2789 N   0  0  0  0  0  0  0  0  0  0  0  0
  147.2486  137.8445  158.0821 C   0  0  0  0  0  0  0  0  0  0  0  0
  146.8864  139.0114  157.9420 O   0  0  0  0  0  0  0  0  0  0  0  0
  148.5157  137.3931  158.0614 N   0  0  0  0  0  0  0  0  0  0  0  0
  149.6940  138.2416  157.8605 C   0  0  0  0  0  0  0  0  0  0  0  0
  150.2038  138.1697  156.4067 C   0  0  1  0  0  0  0  0  0  0  0  0
  149.1568  138.5462  155.5338 O   0  0  0  0  0  0  0  0  0  0  0  0
  151.3938  139.1196  156.1690 C   0  0  0  0  0  0  0  0  0  0  0  0
  151.0289  140.5322  156.3304 N   0  0  0  0  0  0  0  0  0  0  0  0
  150.2843  141.3445  155.5325 C   0  0  0  0  0  0  0  0  0  0  0  0
  150.2420  142.5714  156.1234 N   0  3  0  0  0  0  0  0  0  0  0  0
  150.9720  142.5409  157.3142 C   0  0  0  0  0  0  0  0  0  0  0  0
  151.2224  143.5312  158.2567 C   0  0  0  0  0  0  0  0  0  0  0  0
  152.0152  143.1751  159.3715 C   0  0  0  0  0  0  0  0  0  0  0  0
  152.3089  144.2343  160.4204 C   0  0  0  0  0  0  0  0  0  0  0  0
  152.5290  141.8596  159.5125 C   0  0  0  0  0  0  0  0  0  0  0  0
  153.3844  141.4884  160.7120 C   0  0  0  0  0  0  0  0  0  0  0  0
  152.2600  140.8658  158.5448 C   0  0  0  0  0  0  0  0  0  0  0  0
  151.4782  141.2345  157.4529 C   0  0  0  0  0  0  0  0  0  0  0  0
  148.5661  136.0640  158.2234 C   0  0  0  0  0  0  0  0  0  0  0  0
  149.5697  135.3507  158.2356 O   0  0  0  0  0  0  0  0  0  0  0  0
  147.0183  135.4001  163.1577 H   0  0  0  0  0  0  0  0  0  0  0  0
  147.4839  133.9228  162.3196 H   0  0  0  0  0  0  0  0  0  0  0  0
  145.8044  134.4611  162.2931 H   0  0  0  0  0  0  0  0  0  0  0  0
  146.4828  136.4992  160.9975 H   0  0  0  0  0  0  0  0  0  0  0  0
  148.1487  135.9756  161.0324 H   0  0  0  0  0  0  0  0  0  0  0  0
  147.5099  133.9017  159.7374 H   0  0  0  0  0  0  0  0  0  0  0  0
  145.8580  134.4389  159.7037 H   0  0  0  0  0  0  0  0  0  0  0  0
  146.8979  134.9129  157.5289 H   0  0  0  0  0  0  0  0  0  0  0  0
  145.4253  136.8655  158.3344 H   0  0  0  0  0  0  0  0  0  0  0  0
  149.5031  139.2738  158.1611 H   0  0  0  0  0  0  0  0  0  0  0  0
  150.4720  137.8909  158.5410 H   0  0  0  0  0  0  0  0  0  0  0  0
  150.5078  137.1509  156.1633 H   0  0  0  0  0  0  0  0  0  0  0  0
  149.4508  138.4292  154.6429 H   0  0  0  0  0  0  0  0  0  0  0  0
  152.2049  138.9018  156.8654 H   0  0  0  0  0  0  0  0  0  0  0  0
  151.8027  138.9902  155.1660 H   0  0  0  0  0  0  0  0  0  0  0  0
  149.8163  141.0668  154.5991 H   0  0  0  0  0  0  0  0  0  0  0  0
  150.8291  144.5307  158.1421 H   0  0  0  0  0  0  0  0  0  0  0  0
  151.9545  143.9131  161.4002 H   0  0  0  0  0  0  0  0  0  0  0  0
  151.8182  145.1787  160.1827 H   0  0  0  0  0  0  0  0  0  0  0  0
  153.3810  144.4223  160.4839 H   0  0  0  0  0  0  0  0  0  0  0  0
  153.7209  140.4527  160.6567 H   0  0  0  0  0  0  0  0  0  0  0  0
  152.8184  141.6061  161.6365 H   0  0  0  0  0  0  0  0  0  0  0  0
  154.2694  142.1231  160.7634 H   0  0  0  0  0  0  0  0  0  0  0  0
  152.6501  139.8639  158.6504 H   0  0  0  0  0  0  0  0  0  0  0  0
  149.7519  143.3688  155.7386 H   0  0  0  0  0  0  0  0  0  0  0  0
  1  2  1  0  0  0  0
  1 26  1  0  0  0  0
  1 27  1  0  0  0  0
  1 28  1  0  0  0  0
  2  3  1  0  0  0  0
  2 29  1  0  0  0  0
  2 30  1  0  0  0  0
  3  4  1  0  0  0  0
  3 31  1  0  0  0  0
  3 32  1  0  0  0  0
  4 24  1  0  0  0  0
  4  5  1  0  0  0  0
  4 33  1  0  0  0  0
  5  6  1  0  0  0  0
  5 34  1  0  0  0  0
  6  7  2  0  0  0  0
  6  8  1  0  0  0  0
  8  9  1  0  0  0  0
  8 24  1  0  0  0  0
  9 10  1  0  0  0  0
  9 35  1  0  0  0  0
  9 36  1  0  0  0  0
 10 11  1  0  0  0  0
 10 12  1  0  0  0  0
 10 37  1  0  0  0  0
 11 38  1  0  0  0  0
 12 13  1  0  0  0  0
 12 39  1  0  0  0  0
 12 40  1  0  0  0  0
 13 23  1  0  0  0  0
 13 14  1  0  0  0  0
 14 15  2  0  0  0  0
 14 41  1  0  0  0  0
 15 16  1  0  0  0  0
 15 50  1  0  0  0  0
 16 23  2  0  0  0  0
 16 17  1  0  0  0  0
 17 18  2  0  0  0  0
 17 42  1  0  0  0  0
 18 19  1  0  0  0  0
 18 20  1  0  0  0  0
 19 43  1  0  0  0  0
 19 44  1  0  0  0  0
 19 45  1  0  0  0  0
 20 21  1  0  0  0  0
 20 22  2  0  0  0  0
 21 46  1  0  0  0  0
 21 47  1  0  0  0  0
 21 48  1  0  0  0  0
 22 23  1  0  0  0  0
 22 49  1  0  0  0  0
 24 25  2  0  0  0  0
M  CHG  1  15   1
M  END
> <s_m_source_file>
AV-unprocessed.smi

> <i_m_source_file_index>
1644

> <i_lp_mmshare_version>
43012

> <i_f3d_flags>
0

> <s_epik_input>
W0NIM11bQ0gyXVtDSDJdW0NAQEhdMVtOSF1DKD1PKU4oQzE9TylbQ0gyXVtDQEhdKFtPSF0pW0NIMl1uKFtjSF1uMiljKGMyMylbY0hdYyhbQ0gzXSljKFtjSF0zKVtDSDNd

> <s_epik_cmdline>
J2VwaWtfcHl0aG9uJywgJy1waCcsICc3LjAnLCAnLXRuJywgJzgnLCAnLW1hJywgJzIwMCcsICctbWV0YWxfYmluZGluZycsICctaW1hZScsICc8aW5maWxlLm1hZT4nLCAnLW9tYWUnLCAnPG91dGZpbGUubWFlPic=

> <r_lp_tautomer_probability>
1

> <r_epik_Ionization_Penalty>
1.06742

> <r_epik_Ionization_Penalty_Charging>
1.06736

> <r_epik_Ionization_Penalty_Neutral>
5.56132e-05

> <r_epik_State_Penalty>
1.12163

> <r_epik_Charging_Adjusted_Penalty>
2.18899

> <i_epik_Tot_Q>
1

> <i_epik_Tot_abs_Q>
1

> <r_epik_Metal_State_Penalty>
1.26636

> <b_epik_Metal_Only>
0

> <s_lp_Force_Field>
OPLS_2005

> <r_lp_Energy>
28.3475

> <b_lp_Chiralities_Consistent>
1

> <s_lp_Variant>
AV-unprocessed.smi:1644-8

> <Gold.Version>
5.8.1

> <Gold.Id.Protein>
6NUR|6NUR_protein|mol2

> <Gold.PLP.Fitness>
53.5514

> <Gold.PLP.PLP>
-45.3197

> <Gold.PLP.part.hbond>
-2.9630

> <Gold.PLP.part.metal>
0.0000

> <Gold.PLP.part.buried>
-5.6985

> <Gold.PLP.part.nonpolar>
-37.1289

> <Gold.PLP.part.repulsive>
0.1966

> <Gold.PLP.ligand.clash>
0.0000

> <Gold.PLP.ligand.torsion>
0.4340

> <Gold.PLP.Chemscore.Hbond>
3.0000

> <Gold.PLP.Chemscore.CHOScore>
0.0000

> <Gold.PLP.Chemscore.Metal>
0.0000

> <Gold.Chemscore.Hbonds>
donor molecule, donor type, donor heavy atom, donor atom, acceptor molecule, acceptor atom, score
      L1  H    15    50       P1  8028  2.00
      P1  H  6896  6907       L1    25  1.00

> <Gold.PLP.Chemscore.Internal.Correction>
0.0997

> <Gold.Rescore>
     Score         DG    S(hbond)    S(metal)    S(lipo)     H(rot)  DE(clash)    DE(int)     intcor
     17.65     -18.13       1.99        0.00     112.57       2.80       0.00       0.48       ----

> <Gold.Chemscore.Fitness>
17.6487

> <Gold.Chemscore.DG>
-18.1287

> <Gold.Chemscore.ZeroCoef>
-5.4800

> <Gold.Chemscore.Hbond>
1.9869

> <Gold.Chemscore.Metal>
0.0000

> <Gold.Chemscore.Lipo>
112.5687

> <Gold.Chemscore.Internal_Hbond>
0.0000

> <Gold.Chemscore.DEClash>
0.0021

> <Gold.Chemscore.DEInternal>
0.4779

> <Gold.Chemscore.Rot>
2.7961

> <Gold.Chemscore.Internal.Correction>
   9.000000E+99

> <Gold.Chemscore.Hbonds>
donor molecule, donor type, donor heavy atom, donor atom, acceptor molecule, acceptor atom, score
      L1  H    15    50       P1  8028  0.98
      P1  H  6896  6907       L1    25  0.98

> <Gold.Chemscore.Hbond.Weighted>
-6.6362

> <Gold.Chemscore.Metal.Weighted>
-0.0000

> <Gold.Chemscore.Lipo.Weighted>
-13.1705

> <Gold.Chemscore.Internal_Hbond.Weighted>
0.0000

> <Gold.Chemscore.DEClash.Weighted>
0.0021

> <Gold.Chemscore.DEInternal.Weighted>
0.4779

> <Gold.Chemscore.Rot.Weighted>
7.1580

> <Gold.Chemscore.Internal.Correction.Weighted>
   9.000000E+99

> <Gold.Protein.RotatedTorsions>
[ 6907 6896 6895 6894 ] final  -63.82 input  -60.11 | X-H torsion
[ 7974 7965 7964 7962 ] final   94.57 input  175.53 | X-H torsion
[ 8008 7997 7996 7995 ] final   24.10 input   59.86 | X-H torsion
[ 10167 10162 10161 10158 ] final -124.31 input  -65.29 | X-H torsion
[ 10718 10713 10712 10709 ] final -155.75 input   66.30 | X-H torsion
[ 10763 10752 10751 10750 ] final   42.53 input  -60.55 | X-H torsion
[ 11005 11000 10999 10996 ] final  125.07 input  -57.11 | X-H torsion

> <Gold.Protein.ActiveResidues>
 VAL166  LYS551  ARG553  GLY616  TRP617  ASP618  TYR619  PRO620  LYS621  CYS622 
 ASP623  PHE694  ASN695  SER759  ASP760  ASP761  ALA762  ILE779  LEU786  VAL792 
 PHE793  MET794  SER795  GLU796  ALA797  LYS798  CYS799  TRP800  GLU811  SER814 

> <Gold.Protein.RotatedAtoms>
  150.7625  134.6383  159.6222 H   0  0  0  0  0  0  0  0  0  0  0  0  # atno 6907 bound_to 6896
  152.3639  134.6829  160.0207 H   0  0  0  0  0  0  0  0  0  0  0  0  # atno 6908 bound_to 6896
  151.7210  133.3278  159.3352 H   0  0  0  0  0  0  0  0  0  0  0  0  # atno 6909 bound_to 6896
  145.4637  139.2285  143.2973 H   0  0  0  0  0  0  0  0  0  0  0  0  # atno 7974 bound_to 7965
  154.9910  140.3114  155.4906 H   0  0  0  0  0  0  0  0  0  0  0  0  # atno 8008 bound_to 7997
  156.2940  140.2249  156.4955 H   0  0  0  0  0  0  0  0  0  0  0  0  # atno 8009 bound_to 7997
  154.7703  140.0453  157.1034 H   0  0  0  0  0  0  0  0  0  0  0  0  # atno 8010 bound_to 7997
  139.9941  143.5609  152.2330 H   0  0  0  0  0  0  0  0  0  0  0  0  # atno 10167 bound_to 10162
  156.5171  130.8461  151.2668 H   0  0  0  0  0  0  0  0  0  0  0  0  # atno 10718 bound_to 10713
  152.9881  135.6129  154.2964 H   0  0  0  0  0  0  0  0  0  0  0  0  # atno 10763 bound_to 10752
  154.2686  135.2780  155.2749 H   0  0  0  0  0  0  0  0  0  0  0  0  # atno 10764 bound_to 10752
  154.5142  135.5832  153.6686 H   0  0  0  0  0  0  0  0  0  0  0  0  # atno 10765 bound_to 10752
  139.9389  134.9637  156.8503 H   0  0  0  0  0  0  0  0  0  0  0  0  # atno 11005 bound_to 11000
  146.2436  140.5409  142.8923 LP  0  0  0  0  0  0  0  0  0  0  0  0  # atno 17320 bound_to 7965
  144.7987  140.6172  143.6493 LP  0  0  0  0  0  0  0  0  0  0  0  0  # atno 17321 bound_to 7965
  139.6318  144.7645  151.2519 LP  0  0  0  0  0  0  0  0  0  0  0  0  # atno 17342 bound_to 10162
  140.7443  143.6466  150.8287 LP  0  0  0  0  0  0  0  0  0  0  0  0  # atno 17343 bound_to 10162
  157.7442  130.9930  150.2655 LP  0  0  0  0  0  0  0  0  0  0  0  0  # atno 17370 bound_to 10713
  156.3184  130.3782  149.7597 LP  0  0  0  0  0  0  0  0  0  0  0  0  # atno 17371 bound_to 10713
  140.6004  134.0177  155.7535 LP  0  0  0  0  0  0  0  0  0  0  0  0  # atno 17394 bound_to 11000
  141.1015  133.9761  157.3071 LP  0  0  0  0  0  0  0  0  0  0  0  0  # atno 17395 bound_to 11000

$$$$
