AV-unprocessed.smi:49|AV-procd|sdf|473|dock1
  -GOLD-   2262016343D 1   1.00000     0.00000
 Structure written by MMmdl.
 27 28  0  0  0  0  0  0  0  0  1 V2000
  152.5807  141.6875  159.0920 C   0  0  0  0  0  0  0  0  0  0  0  0
  151.3300  140.8509  158.8017 C   0  0  0  0  0  0  0  0  0  0  0  0
  151.0248  140.7634  157.3424 C   0  0  0  0  0  0  0  0  0  0  0  0
  149.9160  141.2127  156.7647 N   0  0  0  0  0  0  0  0  0  0  0  0
  150.1774  140.9019  155.4591 C   0  0  0  0  0  0  0  0  0  0  0  0
  149.1866  141.1656  154.3666 C   0  0  2  0  0  0  0  0  0  0  0  0
  147.9379  141.9007  154.8702 C   0  0  0  0  0  0  0  0  0  0  0  0
  146.8749  141.4624  153.8743 C   0  0  2  0  0  0  0  0  0  0  0  0
  145.5619  141.6027  154.3730 O   0  0  0  0  0  0  0  0  0  0  0  0
  147.2526  140.0044  153.6274 C   0  0  0  0  0  0  0  0  0  0  0  0
  148.7123  139.9576  153.6774 N   0  0  0  0  0  0  0  0  0  0  0  0
  151.3394  140.2879  155.2288 N   0  0  0  0  0  0  0  0  0  0  0  0
  151.8742  140.2240  156.4661 N   0  0  0  0  0  0  0  0  0  0  0  0
  149.6693  141.8031  153.6248 H   0  0  0  0  0  0  0  0  0  0  0  0
  146.9740  142.0344  152.9504 H   0  0  0  0  0  0  0  0  0  0  0  0
  152.7775  139.8141  156.6566 H   0  0  0  0  0  0  0  0  0  0  0  0
  152.7776  141.7333  160.1631 H   0  0  0  0  0  0  0  0  0  0  0  0
  152.4622  142.7097  158.7313 H   0  0  0  0  0  0  0  0  0  0  0  0
  153.4599  141.2606  158.6089 H   0  0  0  0  0  0  0  0  0  0  0  0
  151.4559  139.8436  159.2010 H   0  0  0  0  0  0  0  0  0  0  0  0
  150.4688  141.2825  159.3127 H   0  0  0  0  0  0  0  0  0  0  0  0
  147.6701  141.5453  155.8671 H   0  0  0  0  0  0  0  0  0  0  0  0
  148.0692  142.9819  154.9236 H   0  0  0  0  0  0  0  0  0  0  0  0
  144.9620  141.2177  153.7527 H   0  0  0  0  0  0  0  0  0  0  0  0
  146.8478  139.3800  154.4251 H   0  0  0  0  0  0  0  0  0  0  0  0
  146.8646  139.6246  152.6822 H   0  0  0  0  0  0  0  0  0  0  0  0
  149.0677  139.9722  152.7269 H   0  0  0  0  0  0  0  0  0  0  0  0
  1  2  1  0  0  0  0
  1 17  1  0  0  0  0
  1 18  1  0  0  0  0
  1 19  1  0  0  0  0
  2  3  1  0  0  0  0
  2 20  1  0  0  0  0
  2 21  1  0  0  0  0
  3 13  1  0  0  0  0
  3  4  2  0  0  0  0
  4  5  1  0  0  0  0
  5  6  1  0  0  0  0
  5 12  2  0  0  0  0
  6 14  1  0  0  0  0
  6 11  1  0  0  0  0
  6  7  1  0  0  0  0
  7  8  1  0  0  0  0
  7 22  1  0  0  0  0
  7 23  1  0  0  0  0
  8 15  1  0  0  0  0
  8  9  1  0  0  0  0
  8 10  1  0  0  0  0
  9 24  1  0  0  0  0
 10 11  1  0  0  0  0
 10 25  1  0  0  0  0
 10 26  1  0  0  0  0
 11 27  1  0  0  0  0
 12 13  1  0  0  0  0
 13 16  1  0  0  0  0
M  END
> <s_m_source_file>
AV-unprocessed.smi

> <i_m_source_file_index>
49

> <i_lp_mmshare_version>
43012

> <i_f3d_flags>
0

> <s_epik_input>
W0NIM11bQ0gyXWMxbmMobltuSF0xKVtDQEBIXTJbQ0gyXVtDQEBIXShbT0hdKVtDSDJdW05IXTI=

> <s_epik_cmdline>
J2VwaWtfcHl0aG9uJywgJy1waCcsICc3LjAnLCAnLXRuJywgJzgnLCAnLW1hJywgJzIwMCcsICctbWV0YWxfYmluZGluZycsICctaW1hZScsICc8aW5maWxlLm1hZT4nLCAnLW9tYWUnLCAnPG91dGZpbGUubWFlPic=

> <r_lp_tautomer_probability>
0.948284

> <r_epik_Ionization_Penalty>
1.6657

> <r_epik_Ionization_Penalty_Charging>
0

> <r_epik_Ionization_Penalty_Neutral>
1.6657

> <r_epik_State_Penalty>
2.01417

> <r_epik_Charging_Adjusted_Penalty>
2.01417

> <i_epik_Tot_Q>
0

> <i_epik_Tot_abs_Q>
0

> <r_epik_Metal_State_Penalty>
2.28256

> <b_epik_Metal_Only>
0

> <s_lp_Force_Field>
OPLS_2005

> <r_lp_Energy>
18.5321

> <b_lp_Chiralities_Consistent>
1

> <s_lp_Variant>
AV-unprocessed.smi:49-11

> <Gold.Version>
5.8.1

> <Gold.Id.Protein>
6NUR|6NUR_protein|mol2

> <Gold.PLP.Fitness>
32.5728

> <Gold.PLP.PLP>
-23.6136

> <Gold.PLP.part.hbond>
-3.0000

> <Gold.PLP.part.metal>
0.0000

> <Gold.PLP.part.buried>
-2.4564

> <Gold.PLP.part.nonpolar>
-18.4432

> <Gold.PLP.part.repulsive>
0.2415

> <Gold.PLP.ligand.clash>
0.0000

> <Gold.PLP.ligand.torsion>
0.0164

> <Gold.PLP.Chemscore.Hbond>
2.9920

> <Gold.PLP.Chemscore.CHOScore>
0.0000

> <Gold.PLP.Chemscore.Metal>
0.0000

> <Gold.Chemscore.Hbonds>
donor molecule, donor type, donor heavy atom, donor atom, acceptor molecule, acceptor atom, score
      L1  H     9    24       P1 10175  1.00
      L1  H    11    27       P1  7957  1.00
      P1  H  7989  7998       L1    12  0.95

> <Gold.PLP.Chemscore.Internal.Correction>
0.0159

> <Gold.Rescore>
     Score         DG    S(hbond)    S(metal)    S(lipo)     H(rot)  DE(clash)    DE(int)     intcor
     14.45     -14.55       2.67        0.00      41.86       1.86       0.04       0.06       ----

> <Gold.Chemscore.Fitness>
14.4525

> <Gold.Chemscore.DG>
-14.5493

> <Gold.Chemscore.ZeroCoef>
-5.4800

> <Gold.Chemscore.Hbond>
2.6713

> <Gold.Chemscore.Metal>
0.0000

> <Gold.Chemscore.Lipo>
41.8612

> <Gold.Chemscore.Internal_Hbond>
0.0000

> <Gold.Chemscore.DEClash>
0.0375

> <Gold.Chemscore.DEInternal>
0.0593

> <Gold.Chemscore.Rot>
1.8558

> <Gold.Chemscore.Internal.Correction>
   9.000000E+99

> <Gold.Chemscore.Hbonds>
donor molecule, donor type, donor heavy atom, donor atom, acceptor molecule, acceptor atom, score
      L1  H     9    24       P1 10175  0.50
      L1  H    11    27       P1  7957  1.00
      P1  H  7989  7998       L1    12  0.21

> <Gold.Chemscore.Hbond.Weighted>
-8.9223

> <Gold.Chemscore.Metal.Weighted>
-0.0000

> <Gold.Chemscore.Lipo.Weighted>
-4.8978

> <Gold.Chemscore.Internal_Hbond.Weighted>
0.0000

> <Gold.Chemscore.DEClash.Weighted>
0.0375

> <Gold.Chemscore.DEInternal.Weighted>
0.0593

> <Gold.Chemscore.Rot.Weighted>
4.7507

> <Gold.Chemscore.Internal.Correction.Weighted>
   9.000000E+99

> <Gold.Protein.RotatedTorsions>
[ 6907 6896 6895 6894 ] final  -74.06 input  -60.11 | X-H torsion
[ 7974 7965 7964 7962 ] final  -93.66 input  175.53 | X-H torsion
[ 8008 7997 7996 7995 ] final   86.81 input   59.86 | X-H torsion
[ 10167 10162 10161 10158 ] final   37.02 input  -65.29 | X-H torsion
[ 10718 10713 10712 10709 ] final  -86.28 input   66.30 | X-H torsion
[ 10763 10752 10751 10750 ] final -107.28 input  -60.55 | X-H torsion
[ 11005 11000 10999 10996 ] final  118.24 input  -57.11 | X-H torsion

> <Gold.Protein.ActiveResidues>
 VAL166  LYS551  ARG553  GLY616  TRP617  ASP618  TYR619  PRO620  LYS621  CYS622 
 ASP623  PHE694  ASN695  SER759  ASP760  ASP761  ALA762  ILE779  LEU786  VAL792 
 PHE793  MET794  SER795  GLU796  ALA797  LYS798  CYS799  TRP800  GLU811  SER814 

> <Gold.Protein.RotatedAtoms>
  150.7107  134.4925  159.5522 H   0  0  0  0  0  0  0  0  0  0  0  0  # atno 6907 bound_to 6896
  152.2539  134.8101  160.0450 H   0  0  0  0  0  0  0  0  0  0  0  0  # atno 6908 bound_to 6896
  151.8838  133.3466  159.3812 H   0  0  0  0  0  0  0  0  0  0  0  0  # atno 6909 bound_to 6896
  145.3836  140.9520  143.2380 H   0  0  0  0  0  0  0  0  0  0  0  0  # atno 7974 bound_to 7965
  155.9674  140.3388  155.6545 H   0  0  0  0  0  0  0  0  0  0  0  0  # atno 8008 bound_to 7997
  155.6719  140.0728  157.2535 H   0  0  0  0  0  0  0  0  0  0  0  0  # atno 8009 bound_to 7997
  154.4158  140.1690  156.1876 H   0  0  0  0  0  0  0  0  0  0  0  0  # atno 8010 bound_to 7997
  140.4073  144.1642  150.6137 H   0  0  0  0  0  0  0  0  0  0  0  0  # atno 10167 bound_to 10162
  155.9991  130.4759  150.4690 H   0  0  0  0  0  0  0  0  0  0  0  0  # atno 10718 bound_to 10713
  154.8065  135.4680  154.0407 H   0  0  0  0  0  0  0  0  0  0  0  0  # atno 10763 bound_to 10752
  153.1871  135.6849  153.8408 H   0  0  0  0  0  0  0  0  0  0  0  0  # atno 10764 bound_to 10752
  153.7938  135.3239  155.3359 H   0  0  0  0  0  0  0  0  0  0  0  0  # atno 10765 bound_to 10752
  139.9102  134.9618  156.7473 H   0  0  0  0  0  0  0  0  0  0  0  0  # atno 11005 bound_to 11000
  144.8490  139.5352  143.6865 LP  0  0  0  0  0  0  0  0  0  0  0  0  # atno 17320 bound_to 7965
  146.2830  139.6929  142.9215 LP  0  0  0  0  0  0  0  0  0  0  0  0  # atno 17321 bound_to 7965
  140.4676  143.2425  151.9134 LP  0  0  0  0  0  0  0  0  0  0  0  0  # atno 17342 bound_to 10162
  139.4783  144.5403  151.8538 LP  0  0  0  0  0  0  0  0  0  0  0  0  # atno 17343 bound_to 10162
  157.2707  131.0586  151.2261 LP  0  0  0  0  0  0  0  0  0  0  0  0  # atno 17370 bound_to 10713
  157.3343  130.7001  149.6343 LP  0  0  0  0  0  0  0  0  0  0  0  0  # atno 17371 bound_to 10713
  140.6802  133.9481  155.7906 LP  0  0  0  0  0  0  0  0  0  0  0  0  # atno 17394 bound_to 11000
  141.0516  134.0477  157.3776 LP  0  0  0  0  0  0  0  0  0  0  0  0  # atno 17395 bound_to 11000

$$$$
