AV-unprocessed.smi:1033|AV-procd|sdf|4502|dock8
  -GOLD-   22720 2503D 1   1.00000     0.00000
 Structure written by MMmdl.
 57 59  0  0  0  0  0  0  0  0  3 V2000
  152.3311  143.5608  159.8085 C   0  0  0  0  0  0  0  0  0  0  0  0
  151.9201  142.5596  158.7422 C   0  0  0  0  0  0  0  0  0  0  0  0
  150.9973  142.9688  157.7526 C   0  0  0  0  0  0  0  0  0  0  0  0
  150.6395  142.0299  156.7923 C   0  0  0  0  0  0  0  0  0  0  0  0
  149.7680  142.1178  155.7040 N   0  3  0  0  0  0  0  0  0  0  0  0
  149.7423  140.9262  155.0446 C   0  0  0  0  0  0  0  0  0  0  0  0
  150.5888  140.0812  155.6939 N   0  0  0  0  0  0  0  0  0  0  0  0
  150.9356  138.6833  155.4091 C   0  0  0  0  0  0  0  0  0  0  0  0
  149.8157  137.6981  155.8017 C   0  0  2  0  0  0  0  0  0  0  0  0
  149.4675  137.9116  157.1541 O   0  0  0  0  0  0  0  0  0  0  0  0
  150.2423  136.2256  155.6477 C   0  0  0  0  0  0  0  0  0  0  0  0
  149.3131  135.2398  156.2133 N   0  0  0  0  0  0  0  0  0  0  0  0
  147.9585  135.3678  155.6771 C   0  0  0  0  0  0  0  0  0  0  0  0
  147.8348  134.8955  154.2137 C   0  0  0  0  0  0  0  0  0  0  0  0
  148.2877  133.4866  154.0828 N   0  3  0  0  0  0  0  0  0  0  0  0
  148.1185  132.9633  152.7029 C   0  0  0  0  0  0  0  0  0  0  0  0
  146.6390  132.8601  152.2824 C   0  0  2  0  0  0  0  0  0  0  0  0
  145.8393  131.9358  153.2098 C   0  0  0  0  0  0  0  0  0  0  0  0
  146.5624  132.3399  150.9703 O   0  0  0  0  0  0  0  0  0  0  0  0
  149.6663  133.3276  154.6191 C   0  0  0  0  0  0  0  0  0  0  0  0
  149.7378  133.8445  156.0705 C   0  0  0  0  0  0  0  0  0  0  0  0
  151.1667  140.7243  156.7926 C   0  0  0  0  0  0  0  0  0  0  0  0
  152.0759  140.3039  157.7599 C   0  0  0  0  0  0  0  0  0  0  0  0
  152.4525  141.2440  158.7456 C   0  0  0  0  0  0  0  0  0  0  0  0
  153.4430  140.8148  159.8143 C   0  0  0  0  0  0  0  0  0  0  0  0
  151.8476  144.5264  159.6571 H   0  0  0  0  0  0  0  0  0  0  0  0
  153.4089  143.7226  159.7882 H   0  0  0  0  0  0  0  0  0  0  0  0
  152.0526  143.2006  160.7992 H   0  0  0  0  0  0  0  0  0  0  0  0
  150.5877  143.9683  157.7443 H   0  0  0  0  0  0  0  0  0  0  0  0
  149.1587  140.6944  154.1651 H   0  0  0  0  0  0  0  0  0  0  0  0
  151.1778  138.6029  154.3486 H   0  0  0  0  0  0  0  0  0  0  0  0
  151.8529  138.4539  155.9532 H   0  0  0  0  0  0  0  0  0  0  0  0
  148.9197  137.8951  155.2147 H   0  0  0  0  0  0  0  0  0  0  0  0
  149.3910  138.8421  157.3004 H   0  0  0  0  0  0  0  0  0  0  0  0
  150.3626  136.0249  154.5822 H   0  0  0  0  0  0  0  0  0  0  0  0
  151.2337  136.0960  156.0814 H   0  0  0  0  0  0  0  0  0  0  0  0
  147.2753  134.7836  156.2950 H   0  0  0  0  0  0  0  0  0  0  0  0
  147.6221  136.4016  155.7619 H   0  0  0  0  0  0  0  0  0  0  0  0
  146.7930  134.9735  153.9005 H   0  0  0  0  0  0  0  0  0  0  0  0
  148.4118  135.5365  153.5459 H   0  0  0  0  0  0  0  0  0  0  0  0
  148.6344  133.6168  151.9971 H   0  0  0  0  0  0  0  0  0  0  0  0
  148.6069  131.9904  152.6270 H   0  0  0  0  0  0  0  0  0  0  0  0
  146.1668  133.8417  152.2894 H   0  0  0  0  0  0  0  0  0  0  0  0
  145.8501  132.3069  154.2352 H   0  0  0  0  0  0  0  0  0  0  0  0
  146.2500  130.9254  153.2187 H   0  0  0  0  0  0  0  0  0  0  0  0
  144.7969  131.8689  152.8962 H   0  0  0  0  0  0  0  0  0  0  0  0
  147.3201  131.7964  150.8136 H   0  0  0  0  0  0  0  0  0  0  0  0
  149.9559  132.2777  154.6086 H   0  0  0  0  0  0  0  0  0  0  0  0
  150.3796  133.8530  153.9831 H   0  0  0  0  0  0  0  0  0  0  0  0
  150.7426  133.7052  156.4660 H   0  0  0  0  0  0  0  0  0  0  0  0
  149.0971  133.2182  156.6929 H   0  0  0  0  0  0  0  0  0  0  0  0
  152.4790  139.3022  157.7619 H   0  0  0  0  0  0  0  0  0  0  0  0
  153.7647  139.7830  159.6692 H   0  0  0  0  0  0  0  0  0  0  0  0
  152.9922  140.8876  160.8044 H   0  0  0  0  0  0  0  0  0  0  0  0
  154.3311  141.4465  159.7900 H   0  0  0  0  0  0  0  0  0  0  0  0
  147.6765  132.9397  154.6728 H   0  0  0  0  0  0  0  0  0  0  0  0
  149.2282  142.9290  155.4304 H   0  0  0  0  0  0  0  0  0  0  0  0
  1  2  1  0  0  0  0
  1 26  1  0  0  0  0
  1 27  1  0  0  0  0
  1 28  1  0  0  0  0
  2 24  1  0  0  0  0
  2  3  2  0  0  0  0
  3  4  1  0  0  0  0
  3 29  1  0  0  0  0
  4 22  2  0  0  0  0
  4  5  1  0  0  0  0
  5  6  2  0  0  0  0
  5 57  1  0  0  0  0
  6  7  1  0  0  0  0
  6 30  1  0  0  0  0
  7  8  1  0  0  0  0
  7 22  1  0  0  0  0
  8  9  1  0  0  0  0
  8 31  1  0  0  0  0
  8 32  1  0  0  0  0
  9 10  1  0  0  0  0
  9 11  1  0  0  0  0
  9 33  1  0  0  0  0
 10 34  1  0  0  0  0
 11 12  1  0  0  0  0
 11 35  1  0  0  0  0
 11 36  1  0  0  0  0
 12 21  1  0  0  0  0
 12 13  1  0  0  0  0
 13 14  1  0  0  0  0
 13 37  1  0  0  0  0
 13 38  1  0  0  0  0
 14 15  1  0  0  0  0
 14 39  1  0  0  0  0
 14 40  1  0  0  0  0
 15 16  1  0  0  0  0
 15 20  1  0  0  0  0
 15 56  1  0  0  0  0
 16 17  1  0  0  0  0
 16 41  1  0  0  0  0
 16 42  1  0  0  0  0
 17 18  1  0  0  0  0
 17 19  1  0  0  0  0
 17 43  1  0  0  0  0
 18 44  1  0  0  0  0
 18 45  1  0  0  0  0
 18 46  1  0  0  0  0
 19 47  1  0  0  0  0
 20 21  1  0  0  0  0
 20 48  1  0  0  0  0
 20 49  1  0  0  0  0
 21 50  1  0  0  0  0
 21 51  1  0  0  0  0
 22 23  1  0  0  0  0
 23 24  2  0  0  0  0
 23 52  1  0  0  0  0
 24 25  1  0  0  0  0
 25 53  1  0  0  0  0
 25 54  1  0  0  0  0
 25 55  1  0  0  0  0
M  CHG  1   5   1
M  CHG  1  15   1
M  END
> <s_m_source_file>
AV-unprocessed.smi

> <i_m_source_file_index>
1033

> <i_lp_mmshare_version>
43012

> <i_f3d_flags>
0

> <s_epik_input>
W0NIM11jKFtjSF0xKWMoW0NIM10pW2NIXWMoYzEyKW4oW2NIXW4yKVtDSDJdW0NASF0oW09IXSlbQ0gyXU4zW0NIMl1bQ0gyXU4oW0NIMl1bQ0gyXTMpW0NIMl1bQ0BIXShbQ0gzXSlbT0hd

> <s_epik_cmdline>
J2VwaWtfcHl0aG9uJywgJy1waCcsICc3LjAnLCAnLXRuJywgJzgnLCAnLW1hJywgJzIwMCcsICctbWV0YWxfYmluZGluZycsICctaW1hZScsICc8aW5maWxlLm1hZT4nLCAnLW9tYWUnLCAnPG91dGZpbGUubWFlPic=

> <r_epik_Ionization_Penalty>
1.28617

> <r_epik_Ionization_Penalty_Charging>
1.23646

> <r_epik_Ionization_Penalty_Neutral>
0.0497112

> <r_epik_State_Penalty>
1.79157

> <r_epik_Charging_Adjusted_Penalty>
3.02803

> <i_epik_Tot_Q>
2

> <i_epik_Tot_abs_Q>
2

> <r_epik_Metal_State_Penalty>
5.81739

> <b_epik_Metal_Only>
0

> <s_lp_Force_Field>
OPLS_2005

> <r_lp_Energy>
39.1755

> <b_lp_Chiralities_Consistent>
1

> <s_lp_Variant>
AV-unprocessed.smi:1033-13

> <Gold.Version>
5.8.1

> <Gold.Id.Protein>
6NUR|6NUR_protein|mol2

> <Gold.PLP.Fitness>
50.2079

> <Gold.PLP.PLP>
-41.7340

> <Gold.PLP.part.hbond>
-2.0000

> <Gold.PLP.part.metal>
0.0000

> <Gold.PLP.part.buried>
-2.8520

> <Gold.PLP.part.nonpolar>
-37.3910

> <Gold.PLP.part.repulsive>
0.1924

> <Gold.PLP.ligand.clash>
0.0000

> <Gold.PLP.ligand.torsion>
0.3104

> <Gold.PLP.Chemscore.Hbond>
2.9840

> <Gold.PLP.Chemscore.CHOScore>
0.0000

> <Gold.PLP.Chemscore.Metal>
0.0000

> <Gold.Chemscore.Hbonds>
donor molecule, donor type, donor heavy atom, donor atom, acceptor molecule, acceptor atom, score
      L1  H     5    57       P1  8028  1.95
      L1  H    19    47       P1 10747  1.00

> <Gold.PLP.Chemscore.Internal.Correction>
0.1427

> <Gold.Rescore>
     Score         DG    S(hbond)    S(metal)    S(lipo)     H(rot)  DE(clash)    DE(int)     intcor
     16.49     -17.96       1.99        0.00     118.60       3.15       1.20       0.27       ----

> <Gold.Chemscore.Fitness>
16.4883

> <Gold.Chemscore.DG>
-17.9551

> <Gold.Chemscore.ZeroCoef>
-5.4800

> <Gold.Chemscore.Hbond>
1.9937

> <Gold.Chemscore.Metal>
0.0000

> <Gold.Chemscore.Lipo>
118.5969

> <Gold.Chemscore.Internal_Hbond>
0.0000

> <Gold.Chemscore.DEClash>
1.2004

> <Gold.Chemscore.DEInternal>
0.2664

> <Gold.Chemscore.Rot>
3.1483

> <Gold.Chemscore.Internal.Correction>
   9.000000E+99

> <Gold.Chemscore.Hbonds>
donor molecule, donor type, donor heavy atom, donor atom, acceptor molecule, acceptor atom, score
      L1  H     5    57       P1  8028  0.93
      L1  H    19    47       P1 10747  0.98

> <Gold.Chemscore.Hbond.Weighted>
-6.6590

> <Gold.Chemscore.Metal.Weighted>
-0.0000

> <Gold.Chemscore.Lipo.Weighted>
-13.8758

> <Gold.Chemscore.Internal_Hbond.Weighted>
0.0000

> <Gold.Chemscore.DEClash.Weighted>
1.2004

> <Gold.Chemscore.DEInternal.Weighted>
0.2664

> <Gold.Chemscore.Rot.Weighted>
8.0597

> <Gold.Chemscore.Internal.Correction.Weighted>
   9.000000E+99

> <Gold.Protein.RotatedTorsions>
[ 6907 6896 6895 6894 ] final  176.30 input  -60.11 | X-H torsion
[ 7974 7965 7964 7962 ] final  -10.42 input  175.53 | X-H torsion
[ 8008 7997 7996 7995 ] final  119.84 input   59.86 | X-H torsion
[ 10167 10162 10161 10158 ] final   44.91 input  -65.29 | X-H torsion
[ 10718 10713 10712 10709 ] final  134.67 input   66.30 | X-H torsion
[ 10763 10752 10751 10750 ] final  -82.98 input  -60.55 | X-H torsion
[ 11005 11000 10999 10996 ] final -173.01 input  -57.11 | X-H torsion

> <Gold.Protein.ActiveResidues>
 VAL166  LYS551  ARG553  GLY616  TRP617  ASP618  TYR619  PRO620  LYS621  CYS622 
 ASP623  PHE694  ASN695  SER759  ASP760  ASP761  ALA762  ILE779  LEU786  VAL792 
 PHE793  MET794  SER795  GLU796  ALA797  LYS798  CYS799  TRP800  GLU811  SER814 

> <Gold.Protein.RotatedAtoms>
  151.7223  133.3315  159.3318 H   0  0  0  0  0  0  0  0  0  0  0  0  # atno 6907 bound_to 6896
  150.7647  134.6437  159.6260 H   0  0  0  0  0  0  0  0  0  0  0  0  # atno 6908 bound_to 6896
  152.3644  134.6828  160.0248 H   0  0  0  0  0  0  0  0  0  0  0  0  # atno 6909 bound_to 6896
  146.2221  140.2762  142.8359 H   0  0  0  0  0  0  0  0  0  0  0  0  # atno 7974 bound_to 7965
  156.2615  140.2844  156.1054 H   0  0  0  0  0  0  0  0  0  0  0  0  # atno 8008 bound_to 7997
  155.1314  140.0394  157.2793 H   0  0  0  0  0  0  0  0  0  0  0  0  # atno 8009 bound_to 7997
  154.6597  140.2563  155.7129 H   0  0  0  0  0  0  0  0  0  0  0  0  # atno 8010 bound_to 7997
  140.3295  144.2606  150.6170 H   0  0  0  0  0  0  0  0  0  0  0  0  # atno 10167 bound_to 10162
  157.4649  131.1076  150.9874 H   0  0  0  0  0  0  0  0  0  0  0  0  # atno 10718 bound_to 10713
  154.5823  135.5572  153.7197 H   0  0  0  0  0  0  0  0  0  0  0  0  # atno 10763 bound_to 10752
  153.0086  135.6323  154.1966 H   0  0  0  0  0  0  0  0  0  0  0  0  # atno 10764 bound_to 10752
  154.1906  135.2882  155.3003 H   0  0  0  0  0  0  0  0  0  0  0  0  # atno 10765 bound_to 10752
  140.4905  134.5989  157.4953 H   0  0  0  0  0  0  0  0  0  0  0  0  # atno 11005 bound_to 11000
  144.9231  140.7890  143.5736 LP  0  0  0  0  0  0  0  0  0  0  0  0  # atno 17320 bound_to 7965
  145.2700  139.1958  143.4846 LP  0  0  0  0  0  0  0  0  0  0  0  0  # atno 17321 bound_to 7965
  140.5410  143.2223  151.8085 LP  0  0  0  0  0  0  0  0  0  0  0  0  # atno 17342 bound_to 10162
  139.4859  144.4600  151.9552 LP  0  0  0  0  0  0  0  0  0  0  0  0  # atno 17343 bound_to 10162
  157.0658  130.5844  149.5394 LP  0  0  0  0  0  0  0  0  0  0  0  0  # atno 17370 bound_to 10713
  156.0046  130.5130  150.7784 LP  0  0  0  0  0  0  0  0  0  0  0  0  # atno 17371 bound_to 10713
  139.9772  134.7196  155.9927 LP  0  0  0  0  0  0  0  0  0  0  0  0  # atno 17394 bound_to 11000
  141.1486  133.6552  156.3944 LP  0  0  0  0  0  0  0  0  0  0  0  0  # atno 17395 bound_to 11000

$$$$
