AV-unprocessed.smi:2229|AV-procd|sdf|9033|dock1
  -GOLD-   2272012243D 1   1.00000     0.00000
 Structure written by MMmdl.
 43 44  0  0  0  0  0  0  0  0  2 V2000
  153.3430  143.4511  159.3049 C   0  0  0  0  0  0  0  0  0  0  0  0
  151.9968  143.5737  158.5709 C   0  0  0  0  0  0  0  0  0  0  0  0
  151.2604  144.8468  159.0156 C   0  0  0  0  0  0  0  0  0  0  0  0
  151.1021  142.3316  158.7632 C   0  0  0  0  0  0  0  0  0  0  0  0
  151.1290  141.3490  157.5784 C   0  0  0  0  0  0  0  0  0  0  0  0
  150.1491  141.7290  156.4470 C   0  0  2  0  0  0  0  0  0  0  0  0
  148.6701  141.6608  156.8368 C   0  0  0  0  0  0  0  0  0  0  0  0
  147.9335  141.6941  155.4999 C   0  0  0  0  0  0  0  0  0  0  0  0
  148.8348  140.9336  154.5202 C   0  0  0  0  0  0  0  0  0  0  0  0
  150.2406  140.8831  155.1569 C   0  0  2  0  0  0  0  0  0  0  0  0
  150.6370  139.5027  155.4327 N   0  0  0  0  0  0  0  0  0  0  0  0
  151.8658  138.9958  155.2559 C   0  0  0  0  0  0  0  0  0  0  0  0
  152.8179  139.6613  154.8469 O   0  0  0  0  0  0  0  0  0  0  0  0
  152.0370  137.5169  155.6262 C   0  0  0  0  0  0  0  0  0  0  0  0
  152.0774  137.2818  157.0715 N   0  0  0  0  0  0  0  0  0  0  0  0
  151.1427  137.7895  157.9383 C   0  0  0  0  0  0  0  0  0  0  0  0
  151.3932  137.4232  159.1439 N   0  0  0  0  0  0  0  0  0  0  0  0
  152.5736  136.6154  159.0849 N   0  5  0  0  0  0  0  0  0  0  0  0
  152.9461  136.5653  157.7866 C   0  0  0  0  0  0  0  0  0  0  0  0
  153.9042  135.9752  157.2884 O   0  0  0  0  0  0  0  0  0  0  0  0
  153.1982  143.3087  160.3763 H   0  0  0  0  0  0  0  0  0  0  0  0
  153.9452  144.3498  159.1692 H   0  0  0  0  0  0  0  0  0  0  0  0
  153.9322  142.6137  158.9322 H   0  0  0  0  0  0  0  0  0  0  0  0
  152.2055  143.6781  157.5054 H   0  0  0  0  0  0  0  0  0  0  0  0
  151.0196  144.8147  160.0788 H   0  0  0  0  0  0  0  0  0  0  0  0
  150.3271  144.9752  158.4670 H   0  0  0  0  0  0  0  0  0  0  0  0
  151.8677  145.7352  158.8393 H   0  0  0  0  0  0  0  0  0  0  0  0
  151.3878  141.8154  159.6805 H   0  0  0  0  0  0  0  0  0  0  0  0
  150.0731  142.6614  158.9109 H   0  0  0  0  0  0  0  0  0  0  0  0
  152.1401  141.3176  157.1705 H   0  0  0  0  0  0  0  0  0  0  0  0
  150.9072  140.3424  157.9325 H   0  0  0  0  0  0  0  0  0  0  0  0
  150.3578  142.7605  156.1578 H   0  0  0  0  0  0  0  0  0  0  0  0
  148.4597  140.7219  157.3509 H   0  0  0  0  0  0  0  0  0  0  0  0
  148.3683  142.4774  157.4932 H   0  0  0  0  0  0  0  0  0  0  0  0
  146.9331  141.2654  155.5653 H   0  0  0  0  0  0  0  0  0  0  0  0
  147.8273  142.7283  155.1696 H   0  0  0  0  0  0  0  0  0  0  0  0
  148.4388  139.9309  154.3504 H   0  0  0  0  0  0  0  0  0  0  0  0
  148.8573  141.4313  153.5502 H   0  0  0  0  0  0  0  0  0  0  0  0
  150.9771  141.3352  154.4898 H   0  0  0  0  0  0  0  0  0  0  0  0
  149.9171  138.8838  155.7759 H   0  0  0  0  0  0  0  0  0  0  0  0
  151.2268  136.9490  155.1663 H   0  0  0  0  0  0  0  0  0  0  0  0
  152.9618  137.1378  155.1881 H   0  0  0  0  0  0  0  0  0  0  0  0
  150.3275  138.4124  157.5661 H   0  0  0  0  0  0  0  0  0  0  0  0
  1  2  1  0  0  0  0
  1 21  1  0  0  0  0
  1 22  1  0  0  0  0
  1 23  1  0  0  0  0
  2  3  1  0  0  0  0
  2  4  1  0  0  0  0
  2 24  1  0  0  0  0
  3 25  1  0  0  0  0
  3 26  1  0  0  0  0
  3 27  1  0  0  0  0
  4  5  1  0  0  0  0
  4 28  1  0  0  0  0
  4 29  1  0  0  0  0
  5  6  1  0  0  0  0
  5 30  1  0  0  0  0
  5 31  1  0  0  0  0
  6 10  1  0  0  0  0
  6  7  1  0  0  0  0
  6 32  1  0  0  0  0
  7  8  1  0  0  0  0
  7 33  1  0  0  0  0
  7 34  1  0  0  0  0
  8  9  1  0  0  0  0
  8 35  1  0  0  0  0
  8 36  1  0  0  0  0
  9 10  1  0  0  0  0
  9 37  1  0  0  0  0
  9 38  1  0  0  0  0
 10 11  1  0  0  0  0
 10 39  1  0  0  0  0
 11 12  1  0  0  0  0
 11 40  1  0  0  0  0
 12 13  2  0  0  0  0
 12 14  1  0  0  0  0
 14 15  1  0  0  0  0
 14 41  1  0  0  0  0
 14 42  1  0  0  0  0
 15 19  1  0  0  0  0
 15 16  1  0  0  0  0
 16 17  2  0  0  0  0
 16 43  1  0  0  0  0
 17 18  1  0  0  0  0
 18 19  1  0  0  0  0
 19 20  2  0  0  0  0
M  CHG  1  18  -1
M  END
> <s_m_source_file>
AV-unprocessed.smi

> <i_m_source_file_index>
2229

> <i_lp_mmshare_version>
43012

> <i_f3d_flags>
0

> <s_epik_input>
W0NIM11bQ0hdKFtDSDNdKVtDSDJdW0NIMl1bQ0BASF0xW0NIMl1bQ0gyXVtDSDJdW0NASF0xW05IXUMoPU8pW0NIMl1uMltjSF1uW25IXWMyPU8=

> <s_epik_cmdline>
J2VwaWtfcHl0aG9uJywgJy1waCcsICc3LjAnLCAnLXRuJywgJzgnLCAnLW1hJywgJzIwMCcsICctbWV0YWxfYmluZGluZycsICctaW1hZScsICc8aW5maWxlLm1hZT4nLCAnLW9tYWUnLCAnPG91dGZpbGUubWFlPic=

> <r_lp_tautomer_probability>
1

> <r_epik_Ionization_Penalty>
13.6733

> <r_epik_Ionization_Penalty_Charging>
13.6725

> <r_epik_Ionization_Penalty_Neutral>
0.000837689

> <r_epik_State_Penalty>
5.67062

> <r_epik_Charging_Adjusted_Penalty>
19.3431

> <i_epik_Tot_Q>
-1

> <i_epik_Tot_abs_Q>
1

> <r_epik_Metal_State_Penalty>
1.61781

> <b_epik_Metal_Only>
1

> <s_lp_Force_Field>
OPLS_2005

> <r_lp_Energy>
26.4382

> <b_lp_Chiralities_Consistent>
1

> <s_lp_Variant>
AV-unprocessed.smi:2229-7

> <Gold.Version>
5.8.1

> <Gold.Id.Protein>
6NUR|6NUR_protein|mol2

> <Gold.PLP.Fitness>
45.5717

> <Gold.PLP.PLP>
-35.7321

> <Gold.PLP.part.hbond>
-3.9255

> <Gold.PLP.part.metal>
0.0000

> <Gold.PLP.part.buried>
-2.7855

> <Gold.PLP.part.nonpolar>
-28.7576

> <Gold.PLP.part.repulsive>
0.1085

> <Gold.PLP.ligand.clash>
0.0000

> <Gold.PLP.ligand.torsion>
1.3152

> <Gold.PLP.Chemscore.Hbond>
4.1396

> <Gold.PLP.Chemscore.CHOScore>
0.0000

> <Gold.PLP.Chemscore.Metal>
0.0000

> <Gold.Chemscore.Hbonds>
donor molecule, donor type, donor heavy atom, donor atom, acceptor molecule, acceptor atom, score
      P1  H  6896  6909       L1    18  1.79
      P1  H  7989  7998       L1    13  0.29
      P1  H  7997  8009       L1    13  1.00
      P1  H 10752 10764       L1    20  1.00

> <Gold.PLP.Chemscore.Internal.Correction>
0.0511

> <Gold.Rescore>
     Score         DG    S(hbond)    S(metal)    S(lipo)     H(rot)  DE(clash)    DE(int)     intcor
     14.82     -18.43       2.66        0.00      91.35       2.59       1.36       2.26       ----

> <Gold.Chemscore.Fitness>
14.8170

> <Gold.Chemscore.DG>
-18.4277

> <Gold.Chemscore.ZeroCoef>
-5.4800

> <Gold.Chemscore.Hbond>
2.6648

> <Gold.Chemscore.Metal>
0.0000

> <Gold.Chemscore.Lipo>
91.3500

> <Gold.Chemscore.Internal_Hbond>
0.0000

> <Gold.Chemscore.DEClash>
1.3554

> <Gold.Chemscore.DEInternal>
2.2554

> <Gold.Chemscore.Rot>
2.5939

> <Gold.Chemscore.Internal.Correction>
   9.000000E+99

> <Gold.Chemscore.Hbonds>
donor molecule, donor type, donor heavy atom, donor atom, acceptor molecule, acceptor atom, score
      P1  H  6896  6909       L1    18  0.22
      P1  H  7989  7998       L1    13  0.04
      P1  H  7997  8009       L1    13  0.95
      P1  H 10752 10764       L1    20  0.96

> <Gold.Chemscore.Hbond.Weighted>
-8.9003

> <Gold.Chemscore.Metal.Weighted>
-0.0000

> <Gold.Chemscore.Lipo.Weighted>
-10.6880

> <Gold.Chemscore.Internal_Hbond.Weighted>
0.0000

> <Gold.Chemscore.DEClash.Weighted>
1.3554

> <Gold.Chemscore.DEInternal.Weighted>
2.2554

> <Gold.Chemscore.Rot.Weighted>
6.6405

> <Gold.Chemscore.Internal.Correction.Weighted>
   9.000000E+99

> <Gold.Protein.RotatedTorsions>
[ 6907 6896 6895 6894 ] final  143.65 input  -60.11 | X-H torsion
[ 7974 7965 7964 7962 ] final   13.82 input  175.53 | X-H torsion
[ 8008 7997 7996 7995 ] final -140.12 input   59.86 | X-H torsion
[ 10167 10162 10161 10158 ] final  -43.06 input  -65.29 | X-H torsion
[ 10718 10713 10712 10709 ] final  138.08 input   66.30 | X-H torsion
[ 10763 10752 10751 10750 ] final   27.30 input  -60.55 | X-H torsion
[ 11005 11000 10999 10996 ] final   10.16 input  -57.11 | X-H torsion

> <Gold.Protein.ActiveResidues>
 VAL166  LYS551  ARG553  GLY616  TRP617  ASP618  TYR619  PRO620  LYS621  CYS622 
 ASP623  PHE694  ASN695  SER759  ASP760  ASP761  ALA762  ILE779  LEU786  VAL792 
 PHE793  MET794  SER795  GLU796  ALA797  LYS798  CYS799  TRP800  GLU811  SER814 

> <Gold.Protein.RotatedAtoms>
  152.2036  133.4859  159.5071 H   0  0  0  0  0  0  0  0  0  0  0  0  # atno 6907 bound_to 6896
  150.6975  134.1558  159.4166 H   0  0  0  0  0  0  0  0  0  0  0  0  # atno 6908 bound_to 6896
  151.9476  135.0184  160.0590 H   0  0  0  0  0  0  0  0  0  0  0  0  # atno 6909 bound_to 6896
  146.2320  139.9132  142.8521 H   0  0  0  0  0  0  0  0  0  0  0  0  # atno 7974 bound_to 7965
  155.4562  140.0542  157.2996 H   0  0  0  0  0  0  0  0  0  0  0  0  # atno 8008 bound_to 7997
  154.4756  140.2059  155.9841 H   0  0  0  0  0  0  0  0  0  0  0  0  # atno 8009 bound_to 7997
  156.1127  140.3201  155.8100 H   0  0  0  0  0  0  0  0  0  0  0  0  # atno 8010 bound_to 7997
  140.6947  143.3003  151.3298 H   0  0  0  0  0  0  0  0  0  0  0  0  # atno 10167 bound_to 10162
  157.4292  131.1047  151.0268 H   0  0  0  0  0  0  0  0  0  0  0  0  # atno 10718 bound_to 10713
  153.0565  135.6540  154.0566 H   0  0  0  0  0  0  0  0  0  0  0  0  # atno 10763 bound_to 10752
  154.0243  135.2917  155.3378 H   0  0  0  0  0  0  0  0  0  0  0  0  # atno 10764 bound_to 10752
  154.6882  135.5293  153.8423 H   0  0  0  0  0  0  0  0  0  0  0  0  # atno 10765 bound_to 10752
  140.5176  134.0590  155.7835 H   0  0  0  0  0  0  0  0  0  0  0  0  # atno 11005 bound_to 11000
  145.2209  140.9934  143.4046 LP  0  0  0  0  0  0  0  0  0  0  0  0  # atno 17320 bound_to 7965
  144.9611  139.3979  143.6355 LP  0  0  0  0  0  0  0  0  0  0  0  0  # atno 17321 bound_to 7965
  139.6388  144.0578  152.2538 LP  0  0  0  0  0  0  0  0  0  0  0  0  # atno 17342 bound_to 10162
  140.0077  144.6247  150.7674 LP  0  0  0  0  0  0  0  0  0  0  0  0  # atno 17343 bound_to 10162
  157.1171  130.6046  149.5496 LP  0  0  0  0  0  0  0  0  0  0  0  0  # atno 17370 bound_to 10713
  155.9907  130.4959  150.7269 LP  0  0  0  0  0  0  0  0  0  0  0  0  # atno 17371 bound_to 10713
  141.1351  133.9235  157.2450 LP  0  0  0  0  0  0  0  0  0  0  0  0  # atno 17394 bound_to 11000
  139.9623  135.0151  156.9295 LP  0  0  0  0  0  0  0  0  0  0  0  0  # atno 17395 bound_to 11000

$$$$
