AV-unprocessed.smi:1648|AV-procd|sdf|6630|dock9
  -GOLD-   22720 7333D 1   1.00000     0.00000
 Structure written by MMmdl.
 42 42  0  0  0  0  0  0  0  0  2 V2000
  153.5232  139.3447  161.4242 C   0  0  0  0  0  0  0  0  0  0  0  0
  153.3585  140.1458  160.1313 C   0  0  0  0  0  0  0  0  0  0  0  0
  153.8450  139.7139  159.0891 O   0  0  0  0  0  0  0  0  0  0  0  0
  152.6814  141.3069  160.1571 N   0  0  0  0  0  0  0  0  0  0  0  0
  152.4205  142.2076  159.0314 C   0  0  1  0  0  0  0  0  0  0  0  0
  151.4275  141.4926  158.0977 C   0  0  0  0  0  0  0  0  0  0  0  0
  150.8538  140.4664  158.4662 O   0  0  0  0  0  0  0  0  0  0  0  0
  151.2485  142.0403  156.8851 N   0  0  0  0  0  0  0  0  0  0  0  0
  150.3916  141.5069  155.8272 C   0  0  1  0  0  0  0  0  0  0  0  0
  150.7013  140.0153  155.6457 C   0  0  0  0  0  0  0  0  0  0  0  0
  148.8981  141.7315  156.1536 C   0  0  0  0  0  0  0  0  0  0  0  0
  148.0076  141.4271  155.0270 N   0  0  0  0  0  0  0  0  0  0  0  0
  148.3465  140.8394  153.8350 C   0  0  0  0  0  0  0  0  0  0  0  0
  147.1962  140.7699  153.0920 C   0  0  0  0  0  0  0  0  0  0  0  0
  146.2022  141.3070  153.8651 N   0  3  0  0  0  0  0  0  0  0  0  0
  146.6956  141.6967  155.0446 C   0  0  0  0  0  0  0  0  0  0  0  0
  151.7903  143.5249  159.5712 C   0  0  0  0  0  0  0  0  0  0  0  0
  151.7095  144.6326  158.5003 C   0  0  0  0  0  0  0  0  0  0  0  0
  152.5539  144.0640  160.7969 C   0  0  0  0  0  0  0  0  0  0  0  0
  153.9604  139.9535  162.2148 H   0  0  0  0  0  0  0  0  0  0  0  0
  154.1760  138.4861  161.2634 H   0  0  0  0  0  0  0  0  0  0  0  0
  152.5568  138.9728  161.7654 H   0  0  0  0  0  0  0  0  0  0  0  0
  152.2590  141.5693  161.0362 H   0  0  0  0  0  0  0  0  0  0  0  0
  153.3425  142.4466  158.4984 H   0  0  0  0  0  0  0  0  0  0  0  0
  151.7540  142.8888  156.6741 H   0  0  0  0  0  0  0  0  0  0  0  0
  150.6253  142.0002  154.8819 H   0  0  0  0  0  0  0  0  0  0  0  0
  150.1065  139.5870  154.8384 H   0  0  0  0  0  0  0  0  0  0  0  0
  150.4855  139.4501  156.5533 H   0  0  0  0  0  0  0  0  0  0  0  0
  151.7516  139.8588  155.3974 H   0  0  0  0  0  0  0  0  0  0  0  0
  148.5932  141.0890  156.9806 H   0  0  0  0  0  0  0  0  0  0  0  0
  148.7213  142.7602  156.4724 H   0  0  0  0  0  0  0  0  0  0  0  0
  149.3566  140.5320  153.6058 H   0  0  0  0  0  0  0  0  0  0  0  0
  147.0155  140.3880  152.0976 H   0  0  0  0  0  0  0  0  0  0  0  0
  146.1421  142.1490  155.8475 H   0  0  0  0  0  0  0  0  0  0  0  0
  150.7703  143.3171  159.8994 H   0  0  0  0  0  0  0  0  0  0  0  0
  152.6964  144.8657  158.0991 H   0  0  0  0  0  0  0  0  0  0  0  0
  151.2982  145.5517  158.9186 H   0  0  0  0  0  0  0  0  0  0  0  0
  151.0672  144.3534  157.6649 H   0  0  0  0  0  0  0  0  0  0  0  0
  153.5968  144.2688  160.5531 H   0  0  0  0  0  0  0  0  0  0  0  0
  152.5386  143.3607  161.6296 H   0  0  0  0  0  0  0  0  0  0  0  0
  152.1107  144.9923  161.1585 H   0  0  0  0  0  0  0  0  0  0  0  0
  145.2327  141.3957  153.5873 H   0  0  0  0  0  0  0  0  0  0  0  0
  1  2  1  0  0  0  0
  1 20  1  0  0  0  0
  1 21  1  0  0  0  0
  1 22  1  0  0  0  0
  2  3  2  0  0  0  0
  2  4  1  0  0  0  0
  4  5  1  0  0  0  0
  4 23  1  0  0  0  0
  5  6  1  0  0  0  0
  5 17  1  0  0  0  0
  5 24  1  0  0  0  0
  6  7  2  0  0  0  0
  6  8  1  0  0  0  0
  8  9  1  0  0  0  0
  8 25  1  0  0  0  0
  9 10  1  0  0  0  0
  9 11  1  0  0  0  0
  9 26  1  0  0  0  0
 10 27  1  0  0  0  0
 10 28  1  0  0  0  0
 10 29  1  0  0  0  0
 11 12  1  0  0  0  0
 11 30  1  0  0  0  0
 11 31  1  0  0  0  0
 12 16  1  0  0  0  0
 12 13  1  0  0  0  0
 13 14  2  0  0  0  0
 13 32  1  0  0  0  0
 14 15  1  0  0  0  0
 14 33  1  0  0  0  0
 15 16  2  0  0  0  0
 15 42  1  0  0  0  0
 16 34  1  0  0  0  0
 17 18  1  0  0  0  0
 17 19  1  0  0  0  0
 17 35  1  0  0  0  0
 18 36  1  0  0  0  0
 18 37  1  0  0  0  0
 18 38  1  0  0  0  0
 19 39  1  0  0  0  0
 19 40  1  0  0  0  0
 19 41  1  0  0  0  0
M  CHG  1  15   1
M  END
> <s_m_source_file>
AV-unprocessed.smi

> <i_m_source_file_index>
1648

> <i_lp_mmshare_version>
43012

> <i_f3d_flags>
0

> <s_epik_input>
W0NIM11DKD1PKVtOSF1bQ0BASF0oW0NIXShbQ0gzXSlbQ0gzXSlDKD1PKVtOSF1bQ0BIXShbQ0gzXSlbQ0gyXW4xW2NIXVtjSF1uW2NIXTE=

> <s_epik_cmdline>
J2VwaWtfcHl0aG9uJywgJy1waCcsICc3LjAnLCAnLXRuJywgJzgnLCAnLW1hJywgJzIwMCcsICctbWV0YWxfYmluZGluZycsICctaW1hZScsICc8aW5maWxlLm1hZT4nLCAnLW9tYWUnLCAnPG91dGZpbGUubWFlPic=

> <r_lp_tautomer_probability>
1

> <r_epik_Ionization_Penalty>
0.251562

> <r_epik_Ionization_Penalty_Charging>
0

> <r_epik_Ionization_Penalty_Neutral>
0.251562

> <r_epik_State_Penalty>
0.242926

> <r_epik_Charging_Adjusted_Penalty>
0.242926

> <i_epik_Tot_Q>
1

> <i_epik_Tot_abs_Q>
1

> <r_epik_Metal_State_Penalty>
0.53388

> <b_epik_Metal_Only>
0

> <s_lp_Force_Field>
OPLS_2005

> <r_lp_Energy>
9.97271

> <b_lp_Chiralities_Consistent>
1

> <s_lp_Variant>
AV-unprocessed.smi:1648-4

> <Gold.Version>
5.8.1

> <Gold.Id.Protein>
6NUR|6NUR_protein|mol2

> <Gold.PLP.Fitness>
44.5729

> <Gold.PLP.PLP>
-35.1856

> <Gold.PLP.part.hbond>
-2.0000

> <Gold.PLP.part.metal>
0.0000

> <Gold.PLP.part.buried>
-1.9439

> <Gold.PLP.part.nonpolar>
-31.2808

> <Gold.PLP.part.repulsive>
0.1852

> <Gold.PLP.ligand.clash>
0.0000

> <Gold.PLP.ligand.torsion>
0.7747

> <Gold.PLP.Chemscore.Hbond>
2.9586

> <Gold.PLP.Chemscore.CHOScore>
0.6651

> <Gold.PLP.Chemscore.Metal>
0.0000

> <Gold.Chemscore.Hbonds>
donor molecule, donor type, donor heavy atom, donor atom, acceptor molecule, acceptor atom, score
      L1  H    15    42       P1 10175  1.41
      P1  H  7997  8010       L1     3  0.63
      L1  C    13    32       P1  7957  0.62

> <Gold.PLP.Chemscore.Internal.Correction>
0.0655

> <Gold.Rescore>
     Score         DG    S(hbond)    S(metal)    S(lipo)     H(rot)  DE(clash)    DE(int)     intcor
     11.02     -14.38       1.80        0.00      81.83       2.61       0.03       3.33       ----

> <Gold.Chemscore.Fitness>
11.0232

> <Gold.Chemscore.DG>
-14.3837

> <Gold.Chemscore.ZeroCoef>
-5.4800

> <Gold.Chemscore.Hbond>
1.8026

> <Gold.Chemscore.Metal>
0.0000

> <Gold.Chemscore.Lipo>
81.8270

> <Gold.Chemscore.Internal_Hbond>
0.0000

> <Gold.Chemscore.DEClash>
0.0270

> <Gold.Chemscore.DEInternal>
3.3334

> <Gold.Chemscore.Rot>
2.6135

> <Gold.Chemscore.Internal.Correction>
   9.000000E+99

> <Gold.Chemscore.Hbonds>
donor molecule, donor type, donor heavy atom, donor atom, acceptor molecule, acceptor atom, score
      L1  H    15    42       P1 10175  0.16
      P1  H  7997  8010       L1     3  0.62

> <Gold.Chemscore.Hbond.Weighted>
-6.0205

> <Gold.Chemscore.Metal.Weighted>
-0.0000

> <Gold.Chemscore.Lipo.Weighted>
-9.5738

> <Gold.Chemscore.Internal_Hbond.Weighted>
0.0000

> <Gold.Chemscore.DEClash.Weighted>
0.0270

> <Gold.Chemscore.DEInternal.Weighted>
3.3334

> <Gold.Chemscore.Rot.Weighted>
6.6906

> <Gold.Chemscore.Internal.Correction.Weighted>
   9.000000E+99

> <Gold.Protein.RotatedTorsions>
[ 6907 6896 6895 6894 ] final  -11.04 input  -60.11 | X-H torsion
[ 7974 7965 7964 7962 ] final  -56.92 input  175.53 | X-H torsion
[ 8008 7997 7996 7995 ] final   -0.01 input   59.86 | X-H torsion
[ 10167 10162 10161 10158 ] final  -86.54 input  -65.29 | X-H torsion
[ 10718 10713 10712 10709 ] final   -7.40 input   66.30 | X-H torsion
[ 10763 10752 10751 10750 ] final    0.25 input  -60.55 | X-H torsion
[ 11005 11000 10999 10996 ] final   33.54 input  -57.11 | X-H torsion

> <Gold.Protein.ActiveResidues>
 VAL166  LYS551  ARG553  GLY616  TRP617  ASP618  TYR619  PRO620  LYS621  CYS622 
 ASP623  PHE694  ASN695  SER759  ASP760  ASP761  ALA762  ILE779  LEU786  VAL792 
 PHE793  MET794  SER795  GLU796  ALA797  LYS798  CYS799  TRP800  GLU811  SER814 

> <Gold.Protein.RotatedAtoms>
  151.3924  135.0958  159.9530 H   0  0  0  0  0  0  0  0  0  0  0  0  # atno 6907 bound_to 6896
  152.5075  133.8967  159.7431 H   0  0  0  0  0  0  0  0  0  0  0  0  # atno 6908 bound_to 6896
  150.9423  133.6586  159.2817 H   0  0  0  0  0  0  0  0  0  0  0  0  # atno 6909 bound_to 6896
  145.8571  140.8311  142.9956 H   0  0  0  0  0  0  0  0  0  0  0  0  # atno 7974 bound_to 7965
  154.6629  140.2594  155.7089 H   0  0  0  0  0  0  0  0  0  0  0  0  # atno 8008 bound_to 7997
  156.2626  140.2845  156.1030 H   0  0  0  0  0  0  0  0  0  0  0  0  # atno 8009 bound_to 7997
  155.1281  140.0378  157.2758 H   0  0  0  0  0  0  0  0  0  0  0  0  # atno 8010 bound_to 7997
  140.3931  143.2695  151.9238 H   0  0  0  0  0  0  0  0  0  0  0  0  # atno 10167 bound_to 10162
  156.7178  130.5141  149.5876 H   0  0  0  0  0  0  0  0  0  0  0  0  # atno 10718 bound_to 10713
  153.3231  135.6970  153.7013 H   0  0  0  0  0  0  0  0  0  0  0  0  # atno 10763 bound_to 10752
  153.5845  135.3491  155.2888 H   0  0  0  0  0  0  0  0  0  0  0  0  # atno 10764 bound_to 10752
  154.8602  135.4303  154.2400 H   0  0  0  0  0  0  0  0  0  0  0  0  # atno 10765 bound_to 10752
  140.2620  134.3181  155.7854 H   0  0  0  0  0  0  0  0  0  0  0  0  # atno 11005 bound_to 11000
  144.6727  140.1040  143.7459 LP  0  0  0  0  0  0  0  0  0  0  0  0  # atno 17320 bound_to 7965
  145.9291  139.2594  143.1336 LP  0  0  0  0  0  0  0  0  0  0  0  0  # atno 17321 bound_to 7965
  139.4788  144.5707  151.8092 LP  0  0  0  0  0  0  0  0  0  0  0  0  # atno 17342 bound_to 10162
  140.4818  144.1438  150.5934 LP  0  0  0  0  0  0  0  0  0  0  0  0  # atno 17343 bound_to 10162
  156.1616  130.6377  151.0726 LP  0  0  0  0  0  0  0  0  0  0  0  0  # atno 17370 bound_to 10713
  157.6910  131.0810  150.7106 LP  0  0  0  0  0  0  0  0  0  0  0  0  # atno 17371 bound_to 10713
  141.2189  133.7415  156.9202 LP  0  0  0  0  0  0  0  0  0  0  0  0  # atno 17394 bound_to 11000
  140.1455  134.9265  157.2524 LP  0  0  0  0  0  0  0  0  0  0  0  0  # atno 17395 bound_to 11000

$$$$
