AV-unprocessed.smi:358|AV-procd|sdf|2417|dock10
  -GOLD-   2262022353D 1   1.00000     0.00000
 Structure written by MMmdl.
 37 39  0  0  0  0  0  0  0  0  1 V2000
  150.3267  138.4931  153.4934 N   0  0  0  0  0  0  0  0  0  0  0  0
  151.0867  138.6440  154.5805 C   0  0  0  0  0  0  0  0  0  0  0  0
  151.6166  139.7174  154.8626 O   0  0  0  0  0  0  0  0  0  0  0  0
  151.2736  137.4092  155.4684 C   0  0  0  0  0  0  0  0  0  0  0  0
  150.2740  137.3340  156.5280 N   0  0  0  0  0  0  0  0  0  0  0  0
  150.1819  138.0497  157.6680 C   0  0  0  0  0  0  0  0  0  0  0  0
  151.3446  139.2923  158.1142 S   0  0  0  0  0  0  0  0  0  0  0  0
  150.1956  140.6986  158.0855 C   0  0  0  0  0  0  0  0  0  0  0  0
  150.8070  142.0140  158.5710 C   0  0  0  0  0  0  0  0  0  0  0  0
  151.2337  142.1241  159.7209 O   0  0  0  0  0  0  0  0  0  0  0  0
  150.8536  143.0050  157.6684 N   0  0  0  0  0  0  0  0  0  0  0  0
  151.3856  144.3098  157.8943 C   0  0  0  0  0  0  0  0  0  0  0  0
  152.6662  144.4161  158.6941 C   0  0  0  0  0  0  0  0  0  0  0  0
  151.3627  144.8433  159.3105 C   0  0  0  0  0  0  0  0  0  0  0  0
  149.1207  137.7378  158.4155 N   0  0  0  0  0  0  0  0  0  0  0  0
  148.4623  136.7451  157.7242 N   0  0  0  0  0  0  0  0  0  0  0  0
  149.1933  136.5326  156.6275 C   0  0  0  0  0  0  0  0  0  0  0  0
  148.8230  135.5431  155.5685 C   0  0  0  0  0  0  0  0  0  0  0  0
  148.6168  134.0813  155.9001 C   0  0  0  0  0  0  0  0  0  0  0  0
  149.8123  134.5041  155.0881 C   0  0  0  0  0  0  0  0  0  0  0  0
  150.1729  139.2793  152.8784 H   0  0  0  0  0  0  0  0  0  0  0  0
  149.9070  137.5978  153.2892 H   0  0  0  0  0  0  0  0  0  0  0  0
  151.2160  136.5113  154.8529 H   0  0  0  0  0  0  0  0  0  0  0  0
  152.2666  137.4127  155.9196 H   0  0  0  0  0  0  0  0  0  0  0  0
  149.8370  140.8386  157.0656 H   0  0  0  0  0  0  0  0  0  0  0  0
  149.3292  140.4497  158.6998 H   0  0  0  0  0  0  0  0  0  0  0  0
  150.4811  142.8211  156.7482 H   0  0  0  0  0  0  0  0  0  0  0  0
  151.2581  145.0464  157.1022 H   0  0  0  0  0  0  0  0  0  0  0  0
  153.1165  143.4954  159.0602 H   0  0  0  0  0  0  0  0  0  0  0  0
  153.3693  145.1978  158.4137 H   0  0  0  0  0  0  0  0  0  0  0  0
  151.1938  145.9102  159.4410 H   0  0  0  0  0  0  0  0  0  0  0  0
  150.9418  144.2075  160.0872 H   0  0  0  0  0  0  0  0  0  0  0  0
  148.1608  135.9961  154.8334 H   0  0  0  0  0  0  0  0  0  0  0  0
  148.7983  133.7598  156.9239 H   0  0  0  0  0  0  0  0  0  0  0  0
  147.8165  133.5575  155.3816 H   0  0  0  0  0  0  0  0  0  0  0  0
  149.8119  134.2639  154.0269 H   0  0  0  0  0  0  0  0  0  0  0  0
  150.7839  134.4609  155.5761 H   0  0  0  0  0  0  0  0  0  0  0  0
  1  2  1  0  0  0  0
  1 21  1  0  0  0  0
  1 22  1  0  0  0  0
  2  3  2  0  0  0  0
  2  4  1  0  0  0  0
  4  5  1  0  0  0  0
  4 23  1  0  0  0  0
  4 24  1  0  0  0  0
  5 17  1  0  0  0  0
  5  6  1  0  0  0  0
  6  7  1  0  0  0  0
  6 15  2  0  0  0  0
  7  8  1  0  0  0  0
  8  9  1  0  0  0  0
  8 25  1  0  0  0  0
  8 26  1  0  0  0  0
  9 10  2  0  0  0  0
  9 11  1  0  0  0  0
 11 12  1  0  0  0  0
 11 27  1  0  0  0  0
 12 14  1  0  0  0  0
 12 13  1  0  0  0  0
 12 28  1  0  0  0  0
 13 14  1  0  0  0  0
 13 29  1  0  0  0  0
 13 30  1  0  0  0  0
 14 31  1  0  0  0  0
 14 32  1  0  0  0  0
 15 16  1  0  0  0  0
 16 17  2  0  0  0  0
 17 18  1  0  0  0  0
 18 20  1  0  0  0  0
 18 19  1  0  0  0  0
 18 33  1  0  0  0  0
 19 20  1  0  0  0  0
 19 34  1  0  0  0  0
 19 35  1  0  0  0  0
 20 36  1  0  0  0  0
 20 37  1  0  0  0  0
M  END
> <s_m_source_file>
AV-unprocessed.smi

> <i_m_source_file_index>
358

> <i_lp_mmshare_version>
43012

> <i_f3d_flags>
0

> <s_epik_input>
W0NIMl0xW0NIMl1bQ0hdMWMybm5jKG4yW0NIMl1DKD1PKVtOSDJdKVNbQ0gyXUMoPU8pW05IXVtDSF0zW0NIMl1bQ0gyXTM=

> <s_epik_cmdline>
J2VwaWtfcHl0aG9uJywgJy1waCcsICc3LjAnLCAnLXRuJywgJzgnLCAnLW1hJywgJzIwMCcsICctbWV0YWxfYmluZGluZycsICctaW1hZScsICc8aW5maWxlLm1hZT4nLCAnLW9tYWUnLCAnPG91dGZpbGUubWFlPic=

> <r_lp_tautomer_probability>
1

> <r_epik_Ionization_Penalty>
5.83215e-07

> <r_epik_Ionization_Penalty_Charging>
0

> <r_epik_Ionization_Penalty_Neutral>
5.83215e-07

> <r_epik_State_Penalty>
-0

> <r_epik_Charging_Adjusted_Penalty>
0

> <i_epik_Tot_Q>
0

> <i_epik_Tot_abs_Q>
0

> <r_epik_Metal_State_Penalty>
-0

> <b_epik_Metal_Only>
0

> <s_lp_Force_Field>
OPLS_2005

> <r_lp_Energy>
18.9456

> <b_lp_Chiralities_Consistent>
1

> <s_lp_Variant>
AV-unprocessed.smi:358-1

> <Gold.Version>
5.8.1

> <Gold.Id.Protein>
6NUR|6NUR_protein|mol2

> <Gold.PLP.Fitness>
39.6729

> <Gold.PLP.PLP>
-32.4532

> <Gold.PLP.part.hbond>
-4.4922

> <Gold.PLP.part.metal>
0.0000

> <Gold.PLP.part.buried>
-4.6171

> <Gold.PLP.part.nonpolar>
-23.5795

> <Gold.PLP.part.repulsive>
0.1686

> <Gold.PLP.ligand.clash>
0.0000

> <Gold.PLP.ligand.torsion>
0.9679

> <Gold.PLP.Chemscore.Hbond>
2.9760

> <Gold.PLP.Chemscore.CHOScore>
0.0000

> <Gold.PLP.Chemscore.Metal>
0.0000

> <Gold.Chemscore.Hbonds>
donor molecule, donor type, donor heavy atom, donor atom, acceptor molecule, acceptor atom, score
      L1  H     1    21       P1  7957  1.00
      L1  H     1    22       P1  7948  0.68
      P1  H  7989  7998       L1     3  1.00

> <Gold.PLP.Chemscore.Internal.Correction>
0.2274

> <Gold.Rescore>
     Score         DG    S(hbond)    S(metal)    S(lipo)     H(rot)  DE(clash)    DE(int)     intcor
     11.54     -13.93       2.75        0.00      65.88       3.30       0.00       2.38       ----

> <Gold.Chemscore.Fitness>
11.5442

> <Gold.Chemscore.DG>
-13.9271

> <Gold.Chemscore.ZeroCoef>
-5.4800

> <Gold.Chemscore.Hbond>
2.7494

> <Gold.Chemscore.Metal>
0.0000

> <Gold.Chemscore.Lipo>
65.8803

> <Gold.Chemscore.Internal_Hbond>
0.0000

> <Gold.Chemscore.DEClash>
0.0009

> <Gold.Chemscore.DEInternal>
2.3821

> <Gold.Chemscore.Rot>
3.2984

> <Gold.Chemscore.Internal.Correction>
   9.000000E+99

> <Gold.Chemscore.Hbonds>
donor molecule, donor type, donor heavy atom, donor atom, acceptor molecule, acceptor atom, score
      L1  H     1    21       P1  7957  0.83
      L1  H     1    22       P1  7948  0.32
      P1  H  7989  7998       L1     3  0.84

> <Gold.Chemscore.Hbond.Weighted>
-9.1829

> <Gold.Chemscore.Metal.Weighted>
-0.0000

> <Gold.Chemscore.Lipo.Weighted>
-7.7080

> <Gold.Chemscore.Internal_Hbond.Weighted>
0.0000

> <Gold.Chemscore.DEClash.Weighted>
0.0009

> <Gold.Chemscore.DEInternal.Weighted>
2.3821

> <Gold.Chemscore.Rot.Weighted>
8.4438

> <Gold.Chemscore.Internal.Correction.Weighted>
   9.000000E+99

> <Gold.Protein.RotatedTorsions>
[ 6907 6896 6895 6894 ] final  135.32 input  -60.11 | X-H torsion
[ 7974 7965 7964 7962 ] final -162.60 input  175.53 | X-H torsion
[ 8008 7997 7996 7995 ] final  -53.95 input   59.86 | X-H torsion
[ 10167 10162 10161 10158 ] final  164.98 input  -65.29 | X-H torsion
[ 10718 10713 10712 10709 ] final  152.37 input   66.30 | X-H torsion
[ 10763 10752 10751 10750 ] final   54.52 input  -60.55 | X-H torsion
[ 11005 11000 10999 10996 ] final  -12.94 input  -57.11 | X-H torsion

> <Gold.Protein.ActiveResidues>
 VAL166  LYS551  ARG553  GLY616  TRP617  ASP618  TYR619  PRO620  LYS621  CYS622 
 ASP623  PHE694  ASN695  SER759  ASP760  ASP761  ALA762  ILE779  LEU786  VAL792 
 PHE793  MET794  SER795  GLU796  ALA797  LYS798  CYS799  TRP800  GLU811  SER814 

> <Gold.Protein.RotatedAtoms>
  152.3017  133.5662  159.5622 H   0  0  0  0  0  0  0  0  0  0  0  0  # atno 6907 bound_to 6896
  150.7281  134.0282  159.3733 H   0  0  0  0  0  0  0  0  0  0  0  0  # atno 6908 bound_to 6896
  151.8181  135.0660  160.0472 H   0  0  0  0  0  0  0  0  0  0  0  0  # atno 6909 bound_to 6896
  144.7352  140.3230  143.6167 H   0  0  0  0  0  0  0  0  0  0  0  0  # atno 7974 bound_to 7965
  154.4148  140.1188  156.5237 H   0  0  0  0  0  0  0  0  0  0  0  0  # atno 8008 bound_to 7997
  155.6677  140.3496  155.4787 H   0  0  0  0  0  0  0  0  0  0  0  0  # atno 8009 bound_to 7997
  155.9660  140.1132  157.0844 H   0  0  0  0  0  0  0  0  0  0  0  0  # atno 8010 bound_to 7997
  139.4898  144.4179  151.9221 H   0  0  0  0  0  0  0  0  0  0  0  0  # atno 10167 bound_to 10162
  157.2586  131.0793  151.1681 H   0  0  0  0  0  0  0  0  0  0  0  0  # atno 10718 bound_to 10713
  152.9805  135.5742  154.4918 H   0  0  0  0  0  0  0  0  0  0  0  0  # atno 10763 bound_to 10752
  154.4451  135.2777  155.1822 H   0  0  0  0  0  0  0  0  0  0  0  0  # atno 10764 bound_to 10752
  154.3474  135.6216  153.5679 H   0  0  0  0  0  0  0  0  0  0  0  0  # atno 10765 bound_to 10752
  140.7710  133.8439  155.9207 H   0  0  0  0  0  0  0  0  0  0  0  0  # atno 11005 bound_to 11000
  145.7550  139.1806  143.2300 LP  0  0  0  0  0  0  0  0  0  0  0  0  # atno 17320 bound_to 7965
  146.1031  140.7519  142.9539 LP  0  0  0  0  0  0  0  0  0  0  0  0  # atno 17321 bound_to 7965
  140.3623  144.2958  150.5932 LP  0  0  0  0  0  0  0  0  0  0  0  0  # atno 17342 bound_to 10162
  140.5392  143.2227  151.8112 LP  0  0  0  0  0  0  0  0  0  0  0  0  # atno 17343 bound_to 10162
  157.3200  130.6932  149.6263 LP  0  0  0  0  0  0  0  0  0  0  0  0  # atno 17370 bound_to 10713
  155.9664  130.4338  150.5023 LP  0  0  0  0  0  0  0  0  0  0  0  0  # atno 17371 bound_to 10713
  140.9574  134.1700  157.4681 LP  0  0  0  0  0  0  0  0  0  0  0  0  # atno 17394 bound_to 11000
  139.8756  134.9932  156.5633 LP  0  0  0  0  0  0  0  0  0  0  0  0  # atno 17395 bound_to 11000

$$$$
