AV-unprocessed.smi:35|AV-procd|sdf|263|dock3
  -GOLD-   2262016 33D 1   1.00000     0.00000
 Structure written by MMmdl.
 28 29  0  0  0  0  0  0  0  0  2 V2000
  150.5467  134.1617  156.2983 O   0  0  0  0  0  0  0  0  0  0  0  0
  150.4513  135.2923  155.8242 C   0  0  0  0  0  0  0  0  0  0  0  0
  151.5276  136.0029  155.3802 N   0  5  0  0  0  0  0  0  0  0  0  0
  151.4151  137.2540  154.8450 C   0  0  0  0  0  0  0  0  0  0  0  0
  152.3842  137.9077  154.4584 O   0  0  0  0  0  0  0  0  0  0  0  0
  150.1244  137.8407  154.7222 N   0  0  0  0  0  0  0  0  0  0  0  0
  150.0124  139.2357  154.1302 C   0  0  2  0  0  0  0  0  0  0  0  0
  150.8228  140.1174  154.8530 O   0  0  0  0  0  0  0  0  0  0  0  0
  150.0370  140.8079  155.8199 C   0  0  1  0  0  0  0  0  0  0  0  0
  150.7662  142.0556  156.3477 C   0  0  0  0  0  0  0  0  0  0  0  0
  149.9264  142.7695  157.2302 O   0  0  0  0  0  0  0  0  0  0  0  0
  148.7442  141.0705  155.0417 C   0  0  1  0  0  0  0  0  0  0  0  0
  148.8898  142.2052  154.2025 O   0  0  0  0  0  0  0  0  0  0  0  0
  148.5688  139.7727  154.2534 C   0  0  1  0  0  0  0  0  0  0  0  0
  147.9355  139.9753  153.0039 O   0  0  0  0  0  0  0  0  0  0  0  0
  149.0164  137.1516  155.1924 C   0  0  0  0  0  0  0  0  0  0  0  0
  149.1365  135.9194  155.7262 C   0  0  0  0  0  0  0  0  0  0  0  0
  147.4671  135.0531  156.3501 Br  0  0  0  0  0  0  0  0  0  0  0  0
  150.3828  139.1465  153.1074 H   0  0  0  0  0  0  0  0  0  0  0  0
  149.8021  140.1364  156.6478 H   0  0  0  0  0  0  0  0  0  0  0  0
  151.7001  141.7916  156.8450 H   0  0  0  0  0  0  0  0  0  0  0  0
  151.0134  142.7229  155.5217 H   0  0  0  0  0  0  0  0  0  0  0  0
  149.3399  143.3052  156.7184 H   0  0  0  0  0  0  0  0  0  0  0  0
  147.9002  141.2491  155.7085 H   0  0  0  0  0  0  0  0  0  0  0  0
  148.7942  142.9794  154.7365 H   0  0  0  0  0  0  0  0  0  0  0  0
  147.9729  139.0755  154.8446 H   0  0  0  0  0  0  0  0  0  0  0  0
  148.6037  139.9756  152.3343 H   0  0  0  0  0  0  0  0  0  0  0  0
  148.0316  137.5900  155.1430 H   0  0  0  0  0  0  0  0  0  0  0  0
  1  2  2  0  0  0  0
  2 17  1  0  0  0  0
  2  3  1  0  0  0  0
  3  4  1  0  0  0  0
  4  5  2  0  0  0  0
  4  6  1  0  0  0  0
  6  7  1  0  0  0  0
  6 16  1  0  0  0  0
  7 14  1  0  0  0  0
  7  8  1  0  0  0  0
  7 19  1  0  0  0  0
  8  9  1  0  0  0  0
  9 10  1  0  0  0  0
  9 12  1  0  0  0  0
  9 20  1  0  0  0  0
 10 11  1  0  0  0  0
 10 21  1  0  0  0  0
 10 22  1  0  0  0  0
 11 23  1  0  0  0  0
 12 13  1  0  0  0  0
 12 14  1  0  0  0  0
 12 24  1  0  0  0  0
 13 25  1  0  0  0  0
 14 15  1  0  0  0  0
 14 26  1  0  0  0  0
 15 27  1  0  0  0  0
 16 17  2  0  0  0  0
 16 28  1  0  0  0  0
 17 18  1  0  0  0  0
M  CHG  1   3  -1
M  END
> <s_m_source_file>
AV-unprocessed.smi

> <i_m_source_file_index>
35

> <i_lp_mmshare_version>
43012

> <i_f3d_flags>
0

> <s_epik_input>
Tz1jMVtuSF1jKD1PKW4oW2NIXWMxQnIpW0NAQEhdMk9bQ0BASF0oW0NIMl1bT0hdKVtDQEBIXShbT0hdKVtDQEhdMltPSF0=

> <s_epik_cmdline>
J2VwaWtfcHl0aG9uJywgJy1waCcsICc3LjAnLCAnLXRuJywgJzgnLCAnLW1hJywgJzIwMCcsICctbWV0YWxfYmluZGluZycsICctaW1hZScsICc8aW5maWxlLm1hZT4nLCAnLW9tYWUnLCAnPG91dGZpbGUubWFlPic=

> <r_epik_Ionization_Penalty>
1.06112

> <r_epik_Ionization_Penalty_Charging>
2.1796e-09

> <r_epik_Ionization_Penalty_Neutral>
1.06112

> <r_epik_State_Penalty>
1.11484

> <r_epik_Charging_Adjusted_Penalty>
1.11484

> <i_epik_Tot_Q>
-1

> <i_epik_Tot_abs_Q>
1

> <r_epik_Metal_State_Penalty>
0.0032876

> <b_epik_Metal_Only>
0

> <s_epik_Chemistry_Notes>
This compound contains an acetal/aminal-like group ( X-CH(R)-Y where X, Y are N, S, or O) that may be acid/base labile, releasing an aldehyde.

> <s_lp_Force_Field>
OPLS_2005

> <r_lp_Energy>
42.0638

> <b_lp_Chiralities_Consistent>
1

> <s_lp_Variant>
AV-unprocessed.smi:35-17

> <Gold.Version>
5.8.1

> <Gold.Id.Protein>
6NUR|6NUR_protein|mol2

> <Gold.PLP.Fitness>
46.6314

> <Gold.PLP.PLP>
-27.8168

> <Gold.PLP.part.hbond>
-6.8306

> <Gold.PLP.part.metal>
0.0000

> <Gold.PLP.part.buried>
-4.8117

> <Gold.PLP.part.nonpolar>
-17.2489

> <Gold.PLP.part.repulsive>
0.2651

> <Gold.PLP.ligand.clash>
0.0000

> <Gold.PLP.ligand.torsion>
0.0592

> <Gold.PLP.Chemscore.Hbond>
6.3040

> <Gold.PLP.Chemscore.CHOScore>
0.0000

> <Gold.PLP.Chemscore.Metal>
0.0000

> <Gold.Chemscore.Hbonds>
donor molecule, donor type, donor heavy atom, donor atom, acceptor molecule, acceptor atom, score
      L1  H    11    23       P1  8028  1.00
      L1  H    13    25       P1  8028  1.00
      L1  H    15    27       P1  7957  1.00
      P1  H  7989  7998       L1     8  0.90
      P1  H  8011  8017       L1    13  0.26
      P1  H 10752 10763       L1     3  2.00

> <Gold.PLP.Chemscore.Internal.Correction>
0.0210

> <Gold.Rescore>
     Score         DG    S(hbond)    S(metal)    S(lipo)     H(rot)  DE(clash)    DE(int)     intcor
     12.37     -13.83       4.19        0.00      31.02       3.63       0.09       1.37       ----

> <Gold.Chemscore.Fitness>
12.3739

> <Gold.Chemscore.DG>
-13.8308

> <Gold.Chemscore.ZeroCoef>
-5.4800

> <Gold.Chemscore.Hbond>
4.1929

> <Gold.Chemscore.Metal>
0.0000

> <Gold.Chemscore.Lipo>
31.0198

> <Gold.Chemscore.Internal_Hbond>
0.0000

> <Gold.Chemscore.DEClash>
0.0889

> <Gold.Chemscore.DEInternal>
1.3681

> <Gold.Chemscore.Rot>
3.6261

> <Gold.Chemscore.Internal.Correction>
   9.000000E+99

> <Gold.Chemscore.Hbonds>
donor molecule, donor type, donor heavy atom, donor atom, acceptor molecule, acceptor atom, score
      L1  H    11    23       P1  8028  0.97
      L1  H    13    25       P1  8028  0.99
      L1  H    15    27       P1  7957  0.94
      P1  H  7989  7998       L1     8  0.18
      P1  H  8011  8017       L1    13  0.23
      P1  H 10752 10763       L1     3  0.25

> <Gold.Chemscore.Hbond.Weighted>
-14.0043

> <Gold.Chemscore.Metal.Weighted>
-0.0000

> <Gold.Chemscore.Lipo.Weighted>
-3.6293

> <Gold.Chemscore.Internal_Hbond.Weighted>
0.0000

> <Gold.Chemscore.DEClash.Weighted>
0.0889

> <Gold.Chemscore.DEInternal.Weighted>
1.3681

> <Gold.Chemscore.Rot.Weighted>
9.2828

> <Gold.Chemscore.Internal.Correction.Weighted>
   9.000000E+99

> <Gold.Protein.RotatedTorsions>
[ 6907 6896 6895 6894 ] final   26.83 input  -60.11 | X-H torsion
[ 7974 7965 7964 7962 ] final  -79.42 input  175.53 | X-H torsion
[ 8008 7997 7996 7995 ] final   32.81 input   59.86 | X-H torsion
[ 10167 10162 10161 10158 ] final  158.38 input  -65.29 | X-H torsion
[ 10718 10713 10712 10709 ] final  152.50 input   66.30 | X-H torsion
[ 10763 10752 10751 10750 ] final   68.90 input  -60.55 | X-H torsion
[ 11005 11000 10999 10996 ] final  -40.60 input  -57.11 | X-H torsion

> <Gold.Protein.ActiveResidues>
 VAL166  LYS551  ARG553  GLY616  TRP617  ASP618  TYR619  PRO620  LYS621  CYS622 
 ASP623  PHE694  ASN695  SER759  ASP760  ASP761  ALA762  ILE779  LEU786  VAL792 
 PHE793  MET794  SER795  GLU796  ALA797  LYS798  CYS799  TRP800  GLU811  SER814 

> <Gold.Protein.RotatedAtoms>
  151.9932  134.9968  160.0562 H   0  0  0  0  0  0  0  0  0  0  0  0  # atno 6907 bound_to 6896
  152.1588  133.4564  159.4859 H   0  0  0  0  0  0  0  0  0  0  0  0  # atno 6908 bound_to 6896
  150.6885  134.2015  159.4367 H   0  0  0  0  0  0  0  0  0  0  0  0  # atno 6909 bound_to 6896
  145.5734  140.9462  143.1383 H   0  0  0  0  0  0  0  0  0  0  0  0  # atno 7974 bound_to 7965
  155.1284  140.3255  155.4480 H   0  0  0  0  0  0  0  0  0  0  0  0  # atno 8008 bound_to 7997
  156.2642  140.2015  156.6353 H   0  0  0  0  0  0  0  0  0  0  0  0  # atno 8009 bound_to 7997
  154.6631  140.0545  157.0070 H   0  0  0  0  0  0  0  0  0  0  0  0  # atno 8010 bound_to 7997
  139.4826  144.4830  151.8417 H   0  0  0  0  0  0  0  0  0  0  0  0  # atno 10167 bound_to 10162
  157.2570  131.0790  151.1691 H   0  0  0  0  0  0  0  0  0  0  0  0  # atno 10718 bound_to 10713
  153.0259  135.5230  154.7205 H   0  0  0  0  0  0  0  0  0  0  0  0  # atno 10763 bound_to 10752
  154.6262  135.2895  155.0272 H   0  0  0  0  0  0  0  0  0  0  0  0  # atno 10764 bound_to 10752
  154.1240  135.6603  153.4961 H   0  0  0  0  0  0  0  0  0  0  0  0  # atno 10765 bound_to 10752
  141.0186  133.6873  156.2343 H   0  0  0  0  0  0  0  0  0  0  0  0  # atno 11005 bound_to 11000
  144.7427  139.7404  143.7304 LP  0  0  0  0  0  0  0  0  0  0  0  0  # atno 17320 bound_to 7965
  146.1768  139.4942  142.9892 LP  0  0  0  0  0  0  0  0  0  0  0  0  # atno 17321 bound_to 7965
  140.4307  144.2119  150.5888 LP  0  0  0  0  0  0  0  0  0  0  0  0  # atno 17342 bound_to 10162
  140.4782  143.2388  151.8993 LP  0  0  0  0  0  0  0  0  0  0  0  0  # atno 17343 bound_to 10162
  157.3217  130.6940  149.6273 LP  0  0  0  0  0  0  0  0  0  0  0  0  # atno 17370 bound_to 10713
  155.9665  130.4333  150.5002 LP  0  0  0  0  0  0  0  0  0  0  0  0  # atno 17371 bound_to 10713
  140.6612  134.4966  157.5583 LP  0  0  0  0  0  0  0  0  0  0  0  0  # atno 17394 bound_to 11000
  139.9132  134.8300  156.1455 LP  0  0  0  0  0  0  0  0  0  0  0  0  # atno 17395 bound_to 11000

$$$$
