AV-unprocessed.smi:17|AV-procd|sdf|102|dock5
  -GOLD-   2262015253D 1   1.00000     0.00000
 Structure written by MMmdl.
 57 59  0  0  0  0  0  0  0  0  1 V2000
  149.3411  135.7139  155.3992 C   0  0  0  0  0  0  0  0  0  0  0  0
  147.9434  136.3441  155.4817 C   0  0  0  0  0  0  0  0  0  0  0  0
  147.9120  137.5246  156.3501 N   0  0  0  0  0  0  0  0  0  0  0  0
  148.7178  138.5775  156.0422 C   0  0  0  0  0  0  0  0  0  0  0  0
  148.6224  139.1115  154.7958 N   0  0  0  0  0  0  0  0  0  0  0  0
  149.3810  140.1513  154.4403 C   0  0  0  0  0  0  0  0  0  0  0  0
  150.2970  140.7987  155.1607 N   0  0  0  0  0  0  0  0  0  0  0  0
  150.4154  140.2602  156.4071 C   0  0  0  0  0  0  0  0  0  0  0  0
  149.6741  139.1597  156.9275 C   0  0  0  0  0  0  0  0  0  0  0  0
  150.0939  138.8907  158.2265 N   0  0  0  0  0  0  0  0  0  0  0  0
  151.0129  139.7853  158.4638 C   0  0  0  0  0  0  0  0  0  0  0  0
  151.2749  140.6433  157.4219 N   0  0  0  0  0  0  0  0  0  0  0  0
  152.2523  141.7181  157.4134 C   0  0  0  0  0  0  0  0  0  0  0  0
  151.9979  142.7792  158.5126 C   0  0  1  0  0  0  0  0  0  0  0  0
  150.5923  143.4205  158.4095 C   0  0  0  0  0  0  0  0  0  0  0  0
  150.6726  144.7865  158.0575 O   0  0  0  0  0  0  0  0  0  0  0  0
  152.2829  142.2177  159.9288 C   0  0  1  0  0  0  0  0  0  0  0  0
  153.6340  141.5435  160.0900 C   0  0  0  0  0  0  0  0  0  0  0  0
  153.8032  141.5330  161.6042 C   0  0  0  0  0  0  0  0  0  0  0  0
  153.1906  142.7331  162.0600 O   0  0  0  0  0  0  0  0  0  0  0  0
  152.3638  143.2766  161.0349 C   0  0  0  0  0  0  0  0  0  0  0  0
  147.1225  137.5397  157.5869 C   0  0  2  0  0  0  0  0  0  0  0  0
  146.5228  138.9311  157.8506 C   0  0  0  0  0  0  0  0  0  0  0  0
  147.9151  137.0236  158.8076 C   0  0  0  0  0  0  0  0  0  0  0  0
  146.8471  136.6794  160.2810 S   0  0  0  0  0  0  0  0  0  0  0  0
  147.2424  134.9236  160.6674 C   0  0  0  0  0  0  0  0  0  0  0  0
  147.3401  137.4986  161.3983 O   0  0  0  0  0  0  0  0  0  0  0  0
  145.4322  136.7566  159.8863 O   0  0  0  0  0  0  0  0  0  0  0  0
  149.3254  134.8247  154.7690 H   0  0  0  0  0  0  0  0  0  0  0  0
  149.7013  135.4156  156.3836 H   0  0  0  0  0  0  0  0  0  0  0  0
  150.0670  136.4068  154.9730 H   0  0  0  0  0  0  0  0  0  0  0  0
  147.5887  136.5973  154.4825 H   0  0  0  0  0  0  0  0  0  0  0  0
  147.2470  135.5961  155.8585 H   0  0  0  0  0  0  0  0  0  0  0  0
  149.2331  140.5165  153.4348 H   0  0  0  0  0  0  0  0  0  0  0  0
  151.5353  139.8389  159.4078 H   0  0  0  0  0  0  0  0  0  0  0  0
  153.2486  141.2885  157.5242 H   0  0  0  0  0  0  0  0  0  0  0  0
  152.2247  142.1755  156.4244 H   0  0  0  0  0  0  0  0  0  0  0  0
  152.7126  143.5853  158.3397 H   0  0  0  0  0  0  0  0  0  0  0  0
  149.9844  142.9053  157.6663 H   0  0  0  0  0  0  0  0  0  0  0  0
  150.0497  143.3327  159.3508 H   0  0  0  0  0  0  0  0  0  0  0  0
  150.5002  144.8700  157.1320 H   0  0  0  0  0  0  0  0  0  0  0  0
  151.5100  141.4956  160.1980 H   0  0  0  0  0  0  0  0  0  0  0  0
  153.6713  140.5413  159.6619 H   0  0  0  0  0  0  0  0  0  0  0  0
  154.4198  142.1436  159.6290 H   0  0  0  0  0  0  0  0  0  0  0  0
  153.2731  140.6846  162.0394 H   0  0  0  0  0  0  0  0  0  0  0  0
  154.8480  141.4736  161.9099 H   0  0  0  0  0  0  0  0  0  0  0  0
  152.8364  144.1883  160.6666 H   0  0  0  0  0  0  0  0  0  0  0  0
  151.3814  143.5421  161.4260 H   0  0  0  0  0  0  0  0  0  0  0  0
  146.2810  136.8576  157.4826 H   0  0  0  0  0  0  0  0  0  0  0  0
  145.8578  138.9124  158.7143 H   0  0  0  0  0  0  0  0  0  0  0  0
  145.9394  139.2770  156.9971 H   0  0  0  0  0  0  0  0  0  0  0  0
  147.2973  139.6727  158.0474 H   0  0  0  0  0  0  0  0  0  0  0  0
  148.5096  136.1383  158.5851 H   0  0  0  0  0  0  0  0  0  0  0  0
  148.6183  137.7959  159.1199 H   0  0  0  0  0  0  0  0  0  0  0  0
  146.7354  134.6366  161.5883 H   0  0  0  0  0  0  0  0  0  0  0  0
  148.3181  134.8096  160.7987 H   0  0  0  0  0  0  0  0  0  0  0  0
  146.9023  134.2762  159.8624 H   0  0  0  0  0  0  0  0  0  0  0  0
  1  2  1  0  0  0  0
  1 29  1  0  0  0  0
  1 30  1  0  0  0  0
  1 31  1  0  0  0  0
  2  3  1  0  0  0  0
  2 32  1  0  0  0  0
  2 33  1  0  0  0  0
  3  4  1  0  0  0  0
  3 22  1  0  0  0  0
  4  9  1  0  0  0  0
  4  5  2  0  0  0  0
  5  6  1  0  0  0  0
  6  7  2  0  0  0  0
  6 34  1  0  0  0  0
  7  8  1  0  0  0  0
  8 12  1  0  0  0  0
  8  9  2  0  0  0  0
  9 10  1  0  0  0  0
 10 11  2  0  0  0  0
 11 12  1  0  0  0  0
 11 35  1  0  0  0  0
 12 13  1  0  0  0  0
 13 14  1  0  0  0  0
 13 36  1  0  0  0  0
 13 37  1  0  0  0  0
 14 15  1  0  0  0  0
 14 17  1  0  0  0  0
 14 38  1  0  0  0  0
 15 16  1  0  0  0  0
 15 39  1  0  0  0  0
 15 40  1  0  0  0  0
 16 41  1  0  0  0  0
 17 21  1  0  0  0  0
 17 18  1  0  0  0  0
 17 42  1  0  0  0  0
 18 19  1  0  0  0  0
 18 43  1  0  0  0  0
 18 44  1  0  0  0  0
 19 20  1  0  0  0  0
 19 45  1  0  0  0  0
 19 46  1  0  0  0  0
 20 21  1  0  0  0  0
 21 47  1  0  0  0  0
 21 48  1  0  0  0  0
 22 23  1  0  0  0  0
 22 24  1  0  0  0  0
 22 49  1  0  0  0  0
 23 50  1  0  0  0  0
 23 51  1  0  0  0  0
 23 52  1  0  0  0  0
 24 25  1  0  0  0  0
 24 53  1  0  0  0  0
 24 54  1  0  0  0  0
 25 26  1  0  0  0  0
 25 27  2  0  0  0  0
 25 28  2  0  0  0  0
 26 55  1  0  0  0  0
 26 56  1  0  0  0  0
 26 57  1  0  0  0  0
M  END
> <s_m_source_file>
AV-unprocessed.smi

> <i_m_source_file_index>
17

> <i_lp_mmshare_version>
43012

> <i_f3d_flags>
0

> <s_epik_input>
W0NIM11TKD1PKSg9TylbQ0gyXVtDQEBIXShbQ0gzXSlOKFtDSDJdW0NIM10pYyhuW2NIXW4xKWMoYzEyKW5bY0hdbjJbQ0gyXVtDQEhdKFtDSDJdW09IXSlbQ0BASF0zW0NIMl1bQ0gyXU9bQ0gyXTM=

> <s_epik_cmdline>
J2VwaWtfcHl0aG9uJywgJy1waCcsICc3LjAnLCAnLXRuJywgJzgnLCAnLW1hJywgJzIwMCcsICctbWV0YWxfYmluZGluZycsICctaW1hZScsICc8aW5maWxlLm1hZT4nLCAnLW9tYWUnLCAnPG91dGZpbGUubWFlPic=

> <r_lp_tautomer_probability>
1

> <r_epik_Ionization_Penalty>
0.00119955

> <r_epik_Ionization_Penalty_Charging>
0

> <r_epik_Ionization_Penalty_Neutral>
0.00119955

> <r_epik_State_Penalty>
0.000665399

> <r_epik_Charging_Adjusted_Penalty>
0.000665399

> <i_epik_Tot_Q>
0

> <i_epik_Tot_abs_Q>
0

> <r_epik_Metal_State_Penalty>
-0

> <b_epik_Metal_Only>
0

> <s_lp_Force_Field>
OPLS_2005

> <r_lp_Energy>
33.4806

> <b_lp_Chiralities_Consistent>
1

> <s_lp_Variant>
AV-unprocessed.smi:17-4

> <Gold.Version>
5.8.1

> <Gold.Id.Protein>
6NUR|6NUR_protein|mol2

> <Gold.PLP.Fitness>
44.2844

> <Gold.PLP.PLP>
-36.4462

> <Gold.PLP.part.hbond>
-5.0000

> <Gold.PLP.part.metal>
0.0000

> <Gold.PLP.part.buried>
-6.2094

> <Gold.PLP.part.nonpolar>
-24.9835

> <Gold.PLP.part.repulsive>
0.2767

> <Gold.PLP.ligand.clash>
0.0000

> <Gold.PLP.ligand.torsion>
2.5754

> <Gold.PLP.Chemscore.Hbond>
3.1144

> <Gold.PLP.Chemscore.CHOScore>
1.0000

> <Gold.PLP.Chemscore.Metal>
0.0000

> <Gold.Chemscore.Hbonds>
donor molecule, donor type, donor heavy atom, donor atom, acceptor molecule, acceptor atom, score
      L1  H    16    41       P1  8028  0.61
      P1  H  6931  6943       L1    27  0.74
      P1  H  6934  6947       L1    27  0.91
      P1  H  7989  7998       L1     7  0.38
      L1  C     6    34       P1  7957  1.00

> <Gold.PLP.Chemscore.Internal.Correction>
0.6459

> <Gold.Rescore>
     Score         DG    S(hbond)    S(metal)    S(lipo)     H(rot)  DE(clash)    DE(int)     intcor
      9.43     -14.25       2.27        0.00      86.89       3.51       1.42       3.40       ----

> <Gold.Chemscore.Fitness>
9.4336

> <Gold.Chemscore.DG>
-14.2487

> <Gold.Chemscore.ZeroCoef>
-5.4800

> <Gold.Chemscore.Hbond>
2.2686

> <Gold.Chemscore.Metal>
0.0000

> <Gold.Chemscore.Lipo>
86.8947

> <Gold.Chemscore.Internal_Hbond>
0.0000

> <Gold.Chemscore.DEClash>
1.4154

> <Gold.Chemscore.DEInternal>
3.3997

> <Gold.Chemscore.Rot>
3.5059

> <Gold.Chemscore.Internal.Correction>
   9.000000E+99

> <Gold.Chemscore.Hbonds>
donor molecule, donor type, donor heavy atom, donor atom, acceptor molecule, acceptor atom, score
      L1  H    16    41       P1  8028  0.26
      P1  H  6931  6943       L1    27  0.74
      P1  H  6934  6947       L1    27  0.53
      P1  H  7989  7998       L1     7  0.03

> <Gold.Chemscore.Hbond.Weighted>
-7.5770

> <Gold.Chemscore.Metal.Weighted>
-0.0000

> <Gold.Chemscore.Lipo.Weighted>
-10.1667

> <Gold.Chemscore.Internal_Hbond.Weighted>
0.0000

> <Gold.Chemscore.DEClash.Weighted>
1.4154

> <Gold.Chemscore.DEInternal.Weighted>
3.3997

> <Gold.Chemscore.Rot.Weighted>
8.9750

> <Gold.Chemscore.Internal.Correction.Weighted>
   9.000000E+99

> <Gold.Protein.RotatedTorsions>
[ 6907 6896 6895 6894 ] final -116.43 input  -60.11 | X-H torsion
[ 7974 7965 7964 7962 ] final  141.63 input  175.53 | X-H torsion
[ 8008 7997 7996 7995 ] final   78.44 input   59.86 | X-H torsion
[ 10167 10162 10161 10158 ] final -178.70 input  -65.29 | X-H torsion
[ 10718 10713 10712 10709 ] final   22.97 input   66.30 | X-H torsion
[ 10763 10752 10751 10750 ] final   49.98 input  -60.55 | X-H torsion
[ 11005 11000 10999 10996 ] final   71.73 input  -57.11 | X-H torsion

> <Gold.Protein.ActiveResidues>
 VAL166  LYS551  ARG553  GLY616  TRP617  ASP618  TYR619  PRO620  LYS621  CYS622 
 ASP623  PHE694  ASN695  SER759  ASP760  ASP761  ALA762  ILE779  LEU786  VAL792 
 PHE793  MET794  SER795  GLU796  ALA797  LYS798  CYS799  TRP800  GLU811  SER814 

> <Gold.Protein.RotatedAtoms>
  150.8055  133.8518  159.3207 H   0  0  0  0  0  0  0  0  0  0  0  0  # atno 6907 bound_to 6896
  151.6318  135.1020  160.0133 H   0  0  0  0  0  0  0  0  0  0  0  0  # atno 6908 bound_to 6896
  152.4145  133.6977  159.6462 H   0  0  0  0  0  0  0  0  0  0  0  0  # atno 6909 bound_to 6896
  144.9079  139.5333  143.5722 H   0  0  0  0  0  0  0  0  0  0  0  0  # atno 7974 bound_to 7965
  155.8558  140.3456  155.5723 H   0  0  0  0  0  0  0  0  0  0  0  0  # atno 8008 bound_to 7997
  155.7988  140.0882  157.1988 H   0  0  0  0  0  0  0  0  0  0  0  0  # atno 8009 bound_to 7997
  154.4009  140.1469  156.3237 H   0  0  0  0  0  0  0  0  0  0  0  0  # atno 8010 bound_to 7997
  139.5420  144.2337  152.0914 H   0  0  0  0  0  0  0  0  0  0  0  0  # atno 10167 bound_to 10162
  157.1597  130.6711  149.6040 H   0  0  0  0  0  0  0  0  0  0  0  0  # atno 10718 bound_to 10713
  152.9785  135.5894  154.4177 H   0  0  0  0  0  0  0  0  0  0  0  0  # atno 10763 bound_to 10752
  154.3805  135.2767  155.2216 H   0  0  0  0  0  0  0  0  0  0  0  0  # atno 10764 bound_to 10752
  154.4132  135.6076  153.6019 H   0  0  0  0  0  0  0  0  0  0  0  0  # atno 10765 bound_to 10752
  139.9528  134.7197  156.0822 H   0  0  0  0  0  0  0  0  0  0  0  0  # atno 11005 bound_to 11000
  146.3143  139.7862  142.8995 LP  0  0  0  0  0  0  0  0  0  0  0  0  # atno 17320 bound_to 7965
  145.3504  141.0306  143.3342 LP  0  0  0  0  0  0  0  0  0  0  0  0  # atno 17321 bound_to 7965
  140.1817  144.4837  150.6524 LP  0  0  0  0  0  0  0  0  0  0  0  0  # atno 17342 bound_to 10162
  140.6654  143.2266  151.5756 LP  0  0  0  0  0  0  0  0  0  0  0  0  # atno 17343 bound_to 10162
  155.9756  130.4716  150.6470 LP  0  0  0  0  0  0  0  0  0  0  0  0  # atno 17370 bound_to 10713
  157.4144  131.0828  151.1190 LP  0  0  0  0  0  0  0  0  0  0  0  0  # atno 17371 bound_to 10713
  141.1194  133.6617  156.3176 LP  0  0  0  0  0  0  0  0  0  0  0  0  # atno 17394 bound_to 11000
  140.5679  134.5869  157.5450 LP  0  0  0  0  0  0  0  0  0  0  0  0  # atno 17395 bound_to 11000

$$$$
