AV-unprocessed.smi:522|AV-procd|sdf|2802|dock8
  -GOLD-   2262023273D 1   1.00000     0.00000
 Structure written by MMmdl.
 41 42  0  0  0  0  0  0  0  0  1 V2000
  156.1354  140.2705  163.8477 C   0  0  0  0  0  0  0  0  0  0  0  0
  156.5156  140.6565  162.5391 O   0  0  0  0  0  0  0  0  0  0  0  0
  155.8490  139.9085  161.5353 C   0  0  0  0  0  0  0  0  0  0  0  0
  154.3310  139.9855  161.7489 C   0  0  0  0  0  0  0  0  0  0  0  0
  153.6644  140.7057  160.6739 N   0  0  0  0  0  0  0  0  0  0  0  0
  153.4857  140.3177  159.3869 C   0  0  0  0  0  0  0  0  0  0  0  0
  154.0799  138.7697  158.7816 S   0  0  0  0  0  0  0  0  0  0  0  0
  152.4809  138.0386  158.3062 C   0  0  0  0  0  0  0  0  0  0  0  0
  152.5560  137.2268  157.0049 C   0  0  0  0  0  0  0  0  0  0  0  0
  153.2463  136.2069  156.9792 O   0  0  0  0  0  0  0  0  0  0  0  0
  151.8030  137.7629  155.8417 C   0  0  0  0  0  0  0  0  0  0  0  0
  151.7782  139.1670  155.5754 C   0  0  0  0  0  0  0  0  0  0  0  0
  151.7734  140.3059  155.3677 N   0  0  0  0  0  0  0  0  0  0  0  0
  151.1057  136.9581  154.9956 C   0  0  0  0  0  0  0  0  0  0  0  0
  150.9718  135.4435  155.0984 C   0  0  0  0  0  0  0  0  0  0  0  0
  150.4097  137.4686  153.9136 N   0  0  0  0  0  0  0  0  0  0  0  0
  152.8267  141.1789  158.6105 N   0  0  0  0  0  0  0  0  0  0  0  0
  152.5576  142.2235  159.4726 C   0  0  0  0  0  0  0  0  0  0  0  0
  151.8838  143.4462  159.2525 C   0  0  0  0  0  0  0  0  0  0  0  0
  151.7280  144.3740  160.3031 C   0  0  0  0  0  0  0  0  0  0  0  0
  152.2415  144.0931  161.5857 C   0  0  0  0  0  0  0  0  0  0  0  0
  152.9160  142.8808  161.8263 C   0  0  0  0  0  0  0  0  0  0  0  0
  153.0692  141.9584  160.7740 C   0  0  0  0  0  0  0  0  0  0  0  0
  156.6790  140.8691  164.5786 H   0  0  0  0  0  0  0  0  0  0  0  0
  156.3671  139.2208  164.0322 H   0  0  0  0  0  0  0  0  0  0  0  0
  155.0684  140.4284  164.0103 H   0  0  0  0  0  0  0  0  0  0  0  0
  156.1029  140.2988  160.5489 H   0  0  0  0  0  0  0  0  0  0  0  0
  156.1755  138.8678  161.5676 H   0  0  0  0  0  0  0  0  0  0  0  0
  153.9073  138.9856  161.8397 H   0  0  0  0  0  0  0  0  0  0  0  0
  154.1130  140.4914  162.6899 H   0  0  0  0  0  0  0  0  0  0  0  0
  152.1220  137.4079  159.1198 H   0  0  0  0  0  0  0  0  0  0  0  0
  151.7549  138.8410  158.1759 H   0  0  0  0  0  0  0  0  0  0  0  0
  150.5705  135.1576  156.0714 H   0  0  0  0  0  0  0  0  0  0  0  0
  151.9400  134.9612  154.9613 H   0  0  0  0  0  0  0  0  0  0  0  0
  150.2990  135.0430  154.3388 H   0  0  0  0  0  0  0  0  0  0  0  0
  150.3931  138.4582  153.7111 H   0  0  0  0  0  0  0  0  0  0  0  0
  149.8888  136.8759  153.2826 H   0  0  0  0  0  0  0  0  0  0  0  0
  151.4875  143.6709  158.2733 H   0  0  0  0  0  0  0  0  0  0  0  0
  151.2120  145.3061  160.1239 H   0  0  0  0  0  0  0  0  0  0  0  0
  152.1173  144.8091  162.3850 H   0  0  0  0  0  0  0  0  0  0  0  0
  153.3115  142.6626  162.8074 H   0  0  0  0  0  0  0  0  0  0  0  0
  1  2  1  0  0  0  0
  1 24  1  0  0  0  0
  1 25  1  0  0  0  0
  1 26  1  0  0  0  0
  2  3  1  0  0  0  0
  3  4  1  0  0  0  0
  3 27  1  0  0  0  0
  3 28  1  0  0  0  0
  4  5  1  0  0  0  0
  4 29  1  0  0  0  0
  4 30  1  0  0  0  0
  5 23  1  0  0  0  0
  5  6  1  0  0  0  0
  6  7  1  0  0  0  0
  6 17  2  0  0  0  0
  7  8  1  0  0  0  0
  8  9  1  0  0  0  0
  8 31  1  0  0  0  0
  8 32  1  0  0  0  0
  9 10  2  0  0  0  0
  9 11  1  0  0  0  0
 11 12  1  0  0  0  0
 11 14  2  0  0  0  0
 12 13  3  0  0  0  0
 14 15  1  0  0  0  0
 14 16  1  0  0  0  0
 15 33  1  0  0  0  0
 15 34  1  0  0  0  0
 15 35  1  0  0  0  0
 16 36  1  0  0  0  0
 16 37  1  0  0  0  0
 17 18  1  0  0  0  0
 18 23  2  0  0  0  0
 18 19  1  0  0  0  0
 19 20  2  0  0  0  0
 19 38  1  0  0  0  0
 20 21  1  0  0  0  0
 20 39  1  0  0  0  0
 21 22  2  0  0  0  0
 21 40  1  0  0  0  0
 22 23  1  0  0  0  0
 22 41  1  0  0  0  0
M  END
> <s_m_source_file>
AV-unprocessed.smi

> <i_m_source_file_index>
522

> <i_lp_mmshare_version>
43012

> <i_f3d_flags>
0

> <s_epik_input>
W2NIXTFbY0hdW2NIXVtjSF1jKGMxMiluKFtDSDJdW0NIMl1PW0NIM10pYyhuMilTW0NIMl1DKD1PKS9DKEMjTik9QygvW0NIM10pW05IMl0=

> <s_epik_cmdline>
J2VwaWtfcHl0aG9uJywgJy1waCcsICc3LjAnLCAnLXRuJywgJzgnLCAnLW1hJywgJzIwMCcsICctbWV0YWxfYmluZGluZycsICctaW1hZScsICc8aW5maWxlLm1hZT4nLCAnLW9tYWUnLCAnPG91dGZpbGUubWFlPic=

> <r_lp_tautomer_probability>
0.5

> <r_epik_Ionization_Penalty>
0.0129021

> <r_epik_Ionization_Penalty_Charging>
0

> <r_epik_Ionization_Penalty_Neutral>
0.0129021

> <r_epik_State_Penalty>
0.42069

> <r_epik_Charging_Adjusted_Penalty>
0.42069

> <i_epik_Tot_Q>
0

> <i_epik_Tot_abs_Q>
0

> <r_epik_Metal_State_Penalty>
0.41068

> <b_epik_Metal_Only>
0

> <s_lp_Force_Field>
OPLS_2005

> <r_lp_Energy>
16.5573

> <b_lp_Chiralities_Consistent>
1

> <s_lp_Variant>
AV-unprocessed.smi:522-2

> <Gold.Version>
5.8.1

> <Gold.Id.Protein>
6NUR|6NUR_protein|mol2

> <Gold.PLP.Fitness>
52.5314

> <Gold.PLP.PLP>
-46.7296

> <Gold.PLP.part.hbond>
-4.9871

> <Gold.PLP.part.metal>
0.0000

> <Gold.PLP.part.buried>
-3.2570

> <Gold.PLP.part.nonpolar>
-38.0806

> <Gold.PLP.part.repulsive>
0.0786

> <Gold.PLP.ligand.clash>
0.0000

> <Gold.PLP.ligand.torsion>
1.4124

> <Gold.PLP.Chemscore.Hbond>
2.8480

> <Gold.PLP.Chemscore.CHOScore>
0.0000

> <Gold.PLP.Chemscore.Metal>
0.0000

> <Gold.Chemscore.Hbonds>
donor molecule, donor type, donor heavy atom, donor atom, acceptor molecule, acceptor atom, score
      L1  H    16    37       P1  7948  1.00
      P1  H  7989  7998       L1    13  0.82
      P1  H 10752 10763       L1    10  1.00

> <Gold.PLP.Chemscore.Internal.Correction>
0.0826

> <Gold.Rescore>
     Score         DG    S(hbond)    S(metal)    S(lipo)     H(rot)  DE(clash)    DE(int)     intcor
     20.37     -21.85       2.75        0.00     112.30       2.33       0.05       1.43       ----

> <Gold.Chemscore.Fitness>
20.3679

> <Gold.Chemscore.DG>
-21.8519

> <Gold.Chemscore.ZeroCoef>
-5.4800

> <Gold.Chemscore.Hbond>
2.7524

> <Gold.Chemscore.Metal>
0.0000

> <Gold.Chemscore.Lipo>
112.2956

> <Gold.Chemscore.Internal_Hbond>
0.0000

> <Gold.Chemscore.DEClash>
0.0495

> <Gold.Chemscore.DEInternal>
1.4346

> <Gold.Chemscore.Rot>
2.3280

> <Gold.Chemscore.Internal.Correction>
   9.000000E+99

> <Gold.Chemscore.Hbonds>
donor molecule, donor type, donor heavy atom, donor atom, acceptor molecule, acceptor atom, score
      L1  H    16    37       P1  7948  0.26
      P1  H  7989  7998       L1    13  0.77
      P1  H 10752 10763       L1    10  0.98

> <Gold.Chemscore.Hbond.Weighted>
-9.1931

> <Gold.Chemscore.Metal.Weighted>
-0.0000

> <Gold.Chemscore.Lipo.Weighted>
-13.1386

> <Gold.Chemscore.Internal_Hbond.Weighted>
0.0000

> <Gold.Chemscore.DEClash.Weighted>
0.0495

> <Gold.Chemscore.DEInternal.Weighted>
1.4346

> <Gold.Chemscore.Rot.Weighted>
5.9598

> <Gold.Chemscore.Internal.Correction.Weighted>
   9.000000E+99

> <Gold.Protein.RotatedTorsions>
[ 6907 6896 6895 6894 ] final -147.64 input  -60.11 | X-H torsion
[ 7974 7965 7964 7962 ] final  165.28 input  175.53 | X-H torsion
[ 8008 7997 7996 7995 ] final -106.48 input   59.86 | X-H torsion
[ 10167 10162 10161 10158 ] final -107.06 input  -65.29 | X-H torsion
[ 10718 10713 10712 10709 ] final  -57.04 input   66.30 | X-H torsion
[ 10763 10752 10751 10750 ] final  123.43 input  -60.55 | X-H torsion
[ 11005 11000 10999 10996 ] final -144.66 input  -57.11 | X-H torsion

> <Gold.Protein.ActiveResidues>
 VAL166  LYS551  ARG553  GLY616  TRP617  ASP618  TYR619  PRO620  LYS621  CYS622 
 ASP623  PHE694  ASN695  SER759  ASP760  ASP761  ALA762  ILE779  LEU786  VAL792 
 PHE793  MET794  SER795  GLU796  ALA797  LYS798  CYS799  TRP800  GLU811  SER814 

> <Gold.Protein.RotatedAtoms>
  151.1586  133.4860  159.2594 H   0  0  0  0  0  0  0  0  0  0  0  0  # atno 6907 bound_to 6896
  151.1478  135.0212  159.8665 H   0  0  0  0  0  0  0  0  0  0  0  0  # atno 6908 bound_to 6896
  152.5463  134.1473  159.8557 H   0  0  0  0  0  0  0  0  0  0  0  0  # atno 6909 bound_to 6896
  144.7509  139.8448  143.6366 H   0  0  0  0  0  0  0  0  0  0  0  0  # atno 7974 bound_to 7965
  154.9152  140.0409  157.1968 H   0  0  0  0  0  0  0  0  0  0  0  0  # atno 8008 bound_to 7997
  154.8309  140.2899  155.5702 H   0  0  0  0  0  0  0  0  0  0  0  0  # atno 8009 bound_to 7997
  156.2986  140.2501  156.3233 H   0  0  0  0  0  0  0  0  0  0  0  0  # atno 8010 bound_to 7997
  140.1810  143.3967  152.1281 H   0  0  0  0  0  0  0  0  0  0  0  0  # atno 10167 bound_to 10162
  156.1241  130.4164  150.0387 H   0  0  0  0  0  0  0  0  0  0  0  0  # atno 10718 bound_to 10713
  153.6454  135.3372  155.3084 H   0  0  0  0  0  0  0  0  0  0  0  0  # atno 10763 bound_to 10752
  154.8550  135.4328  154.1960 H   0  0  0  0  0  0  0  0  0  0  0  0  # atno 10764 bound_to 10752
  153.2890  135.7015  153.7386 H   0  0  0  0  0  0  0  0  0  0  0  0  # atno 10765 bound_to 10752
  140.8002  134.2866  157.4981 H   0  0  0  0  0  0  0  0  0  0  0  0  # atno 11005 bound_to 11000
  146.1457  139.4526  143.0080 LP  0  0  0  0  0  0  0  0  0  0  0  0  # atno 17320 bound_to 7965
  145.6948  141.0153  143.1536 LP  0  0  0  0  0  0  0  0  0  0  0  0  # atno 17321 bound_to 7965
  139.5296  144.7144  151.5103 LP  0  0  0  0  0  0  0  0  0  0  0  0  # atno 17342 bound_to 10162
  140.6520  143.8678  150.6795 LP  0  0  0  0  0  0  0  0  0  0  0  0  # atno 17343 bound_to 10162
  156.8317  130.9395  151.3637 LP  0  0  0  0  0  0  0  0  0  0  0  0  # atno 17370 bound_to 10713
  157.6424  130.8816  149.9473 LP  0  0  0  0  0  0  0  0  0  0  0  0  # atno 17371 bound_to 10713
  139.8722  134.9425  156.3827 LP  0  0  0  0  0  0  0  0  0  0  0  0  # atno 17394 bound_to 11000
  140.9302  133.7584  156.0015 LP  0  0  0  0  0  0  0  0  0  0  0  0  # atno 17395 bound_to 11000

$$$$
