AV-unprocessed.smi:3169|AV-procd|sdf|12104|dock9
  -GOLD-   2272017543D 1   1.00000     0.00000
 Structure written by MMmdl.
 36 37  0  0  0  0  0  0  0  0  2 V2000
  154.9044  139.8180  159.1893 O   0  0  0  0  0  0  0  0  0  0  0  0
  153.6785  139.8369  159.3042 C   0  0  0  0  0  0  0  0  0  0  0  0
  152.9972  140.8284  159.8952 N   0  0  0  0  0  0  0  0  0  0  0  0
  153.6045  142.0175  160.4807 C   0  0  0  0  0  0  0  0  0  0  0  0
  152.5515  143.0951  160.7869 C   0  0  0  0  0  0  0  0  0  0  0  0
  151.9910  143.6656  159.5614 N   0  0  0  0  0  0  0  0  0  0  0  0
  152.6572  144.3635  158.5871 C   0  0  0  0  0  0  0  0  0  0  0  0
  151.7234  144.6996  157.6407 C   0  0  0  0  0  0  0  0  0  0  0  0
  150.5281  144.1944  158.0784 N   0  3  0  0  0  0  0  0  0  0  0  0
  150.6930  143.5664  159.2472 C   0  0  0  0  0  0  0  0  0  0  0  0
  152.8659  138.8713  158.8548 N   0  0  0  0  0  0  0  0  0  0  0  0
  153.3046  137.6760  158.1441 C   0  0  0  0  0  0  0  0  0  0  0  0
  152.8849  137.7169  156.6659 C   0  0  1  0  0  0  0  0  0  0  0  0
  151.4039  137.4207  156.4384 C   0  0  0  0  0  0  0  0  0  0  0  0
  151.1598  138.1029  155.1121 C   0  0  0  0  0  0  0  0  0  0  0  0
  152.0096  139.3630  155.2498 C   0  0  0  0  0  0  0  0  0  0  0  0
  153.0833  139.0206  156.1230 O   0  0  0  0  0  0  0  0  0  0  0  0
  151.9908  140.7579  159.9368 H   0  0  0  0  0  0  0  0  0  0  0  0
  154.1516  141.7472  161.3857 H   0  0  0  0  0  0  0  0  0  0  0  0
  154.3420  142.4057  159.7776 H   0  0  0  0  0  0  0  0  0  0  0  0
  151.7296  142.6779  161.3702 H   0  0  0  0  0  0  0  0  0  0  0  0
  152.9803  143.9097  161.3729 H   0  0  0  0  0  0  0  0  0  0  0  0
  153.7176  144.5640  158.6386 H   0  0  0  0  0  0  0  0  0  0  0  0
  151.8173  145.2467  156.7138 H   0  0  0  0  0  0  0  0  0  0  0  0
  149.9283  143.0763  159.8237 H   0  0  0  0  0  0  0  0  0  0  0  0
  151.8716  138.9784  158.9927 H   0  0  0  0  0  0  0  0  0  0  0  0
  154.3876  137.5698  158.2266 H   0  0  0  0  0  0  0  0  0  0  0  0
  152.8701  136.8038  158.6332 H   0  0  0  0  0  0  0  0  0  0  0  0
  153.4785  137.0136  156.0791 H   0  0  0  0  0  0  0  0  0  0  0  0
  151.1817  136.3535  156.4189 H   0  0  0  0  0  0  0  0  0  0  0  0
  150.7923  137.8846  157.2138 H   0  0  0  0  0  0  0  0  0  0  0  0
  151.5357  137.4819  154.2977 H   0  0  0  0  0  0  0  0  0  0  0  0
  150.1070  138.3160  154.9240 H   0  0  0  0  0  0  0  0  0  0  0  0
  152.3768  139.7223  154.2882 H   0  0  0  0  0  0  0  0  0  0  0  0
  151.4313  140.1642  155.7115 H   0  0  0  0  0  0  0  0  0  0  0  0
  149.6452  144.2825  157.5909 H   0  0  0  0  0  0  0  0  0  0  0  0
  1  2  2  0  0  0  0
  2  3  1  0  0  0  0
  2 11  1  0  0  0  0
  3  4  1  0  0  0  0
  3 18  1  0  0  0  0
  4  5  1  0  0  0  0
  4 19  1  0  0  0  0
  4 20  1  0  0  0  0
  5  6  1  0  0  0  0
  5 21  1  0  0  0  0
  5 22  1  0  0  0  0
  6 10  1  0  0  0  0
  6  7  1  0  0  0  0
  7  8  2  0  0  0  0
  7 23  1  0  0  0  0
  8  9  1  0  0  0  0
  8 24  1  0  0  0  0
  9 10  2  0  0  0  0
  9 36  1  0  0  0  0
 10 25  1  0  0  0  0
 11 12  1  0  0  0  0
 11 26  1  0  0  0  0
 12 13  1  0  0  0  0
 12 27  1  0  0  0  0
 12 28  1  0  0  0  0
 13 17  1  0  0  0  0
 13 14  1  0  0  0  0
 13 29  1  0  0  0  0
 14 15  1  0  0  0  0
 14 30  1  0  0  0  0
 14 31  1  0  0  0  0
 15 16  1  0  0  0  0
 15 32  1  0  0  0  0
 15 33  1  0  0  0  0
 16 17  1  0  0  0  0
 16 34  1  0  0  0  0
 16 35  1  0  0  0  0
M  CHG  1   9   1
M  END
> <s_m_source_file>
AV-unprocessed.smi

> <i_m_source_file_index>
3169

> <i_lp_mmshare_version>
43012

> <i_f3d_flags>
0

> <s_epik_input>
TzFbQ0gyXVtDSDJdW0NIMl1bQ0BIXTFbQ0gyXVtOSF1DKD1PKVtOSF1bQ0gyXVtDSDJdbjJbY0hdW2NIXW5bY0hdMg==

> <s_epik_cmdline>
J2VwaWtfcHl0aG9uJywgJy1waCcsICc3LjAnLCAnLXRuJywgJzgnLCAnLW1hJywgJzIwMCcsICctbWV0YWxfYmluZGluZycsICctaW1hZScsICc8aW5maWxlLm1hZT4nLCAnLW9tYWUnLCAnPG91dGZpbGUubWFlPic=

> <r_lp_tautomer_probability>
1

> <r_epik_Ionization_Penalty>
0.256136

> <r_epik_Ionization_Penalty_Charging>
0

> <r_epik_Ionization_Penalty_Neutral>
0.256136

> <r_epik_State_Penalty>
0.247629

> <r_epik_Charging_Adjusted_Penalty>
0.247629

> <i_epik_Tot_Q>
1

> <i_epik_Tot_abs_Q>
1

> <r_epik_Metal_State_Penalty>
0.537113

> <b_epik_Metal_Only>
0

> <s_lp_Force_Field>
OPLS_2005

> <r_lp_Energy>
16.1594

> <b_lp_Chiralities_Consistent>
1

> <s_lp_Variant>
AV-unprocessed.smi:3169-2

> <Gold.Version>
5.8.1

> <Gold.Id.Protein>
6NUR|6NUR_protein|mol2

> <Gold.PLP.Fitness>
46.9345

> <Gold.PLP.PLP>
-35.8270

> <Gold.PLP.part.hbond>
-3.0363

> <Gold.PLP.part.metal>
0.0000

> <Gold.PLP.part.buried>
-4.8223

> <Gold.PLP.part.nonpolar>
-28.0021

> <Gold.PLP.part.repulsive>
0.2307

> <Gold.PLP.ligand.clash>
0.0000

> <Gold.PLP.ligand.torsion>
0.2876

> <Gold.PLP.Chemscore.Hbond>
3.8880

> <Gold.PLP.Chemscore.CHOScore>
0.0000

> <Gold.PLP.Chemscore.Metal>
0.0000

> <Gold.Chemscore.Hbonds>
donor molecule, donor type, donor heavy atom, donor atom, acceptor molecule, acceptor atom, score
      L1  H     9    36       P1  8028  1.19
      P1  H  7997  8008       L1     1  0.91
      P1  H  7997  8009       L1    17  0.96

> <Gold.PLP.Chemscore.Internal.Correction>
0.0187

> <Gold.Rescore>
     Score         DG    S(hbond)    S(metal)    S(lipo)     H(rot)  DE(clash)    DE(int)     intcor
     16.54     -17.21       2.53        0.00      78.93       2.33       0.34       0.33       ----

> <Gold.Chemscore.Fitness>
16.5375

> <Gold.Chemscore.DG>
-17.2065

> <Gold.Chemscore.ZeroCoef>
-5.4800

> <Gold.Chemscore.Hbond>
2.5308

> <Gold.Chemscore.Metal>
0.0000

> <Gold.Chemscore.Lipo>
78.9338

> <Gold.Chemscore.Internal_Hbond>
0.0000

> <Gold.Chemscore.DEClash>
0.3363

> <Gold.Chemscore.DEInternal>
0.3328

> <Gold.Chemscore.Rot>
2.3288

> <Gold.Chemscore.Internal.Correction>
   9.000000E+99

> <Gold.Chemscore.Hbonds>
donor molecule, donor type, donor heavy atom, donor atom, acceptor molecule, acceptor atom, score
      L1  H     9    36       P1  8028  0.10
      P1  H  7997  8008       L1     1  0.75
      P1  H  7997  8009       L1    17  0.79

> <Gold.Chemscore.Hbond.Weighted>
-8.4529

> <Gold.Chemscore.Metal.Weighted>
-0.0000

> <Gold.Chemscore.Lipo.Weighted>
-9.2353

> <Gold.Chemscore.Internal_Hbond.Weighted>
0.0000

> <Gold.Chemscore.DEClash.Weighted>
0.3363

> <Gold.Chemscore.DEInternal.Weighted>
0.3328

> <Gold.Chemscore.Rot.Weighted>
5.9617

> <Gold.Chemscore.Internal.Correction.Weighted>
   9.000000E+99

> <Gold.Protein.RotatedTorsions>
[ 6907 6896 6895 6894 ] final  162.06 input  -60.11 | X-H torsion
[ 7974 7965 7964 7962 ] final  -56.91 input  175.53 | X-H torsion
[ 8008 7997 7996 7995 ] final -143.40 input   59.86 | X-H torsion
[ 10167 10162 10161 10158 ] final  -30.02 input  -65.29 | X-H torsion
[ 10718 10713 10712 10709 ] final -118.14 input   66.30 | X-H torsion
[ 10763 10752 10751 10750 ] final  -86.69 input  -60.55 | X-H torsion
[ 11005 11000 10999 10996 ] final  157.58 input  -57.11 | X-H torsion

> <Gold.Protein.ActiveResidues>
 VAL166  LYS551  ARG553  GLY616  TRP617  ASP618  TYR619  PRO620  LYS621  CYS622 
 ASP623  PHE694  ASN695  SER759  ASP760  ASP761  ALA762  ILE779  LEU786  VAL792 
 PHE793  MET794  SER795  GLU796  ALA797  LYS798  CYS799  TRP800  GLU811  SER814 

> <Gold.Protein.RotatedAtoms>
  151.9462  133.3652  159.3983 H   0  0  0  0  0  0  0  0  0  0  0  0  # atno 6907 bound_to 6896
  150.6989  134.4387  159.5291 H   0  0  0  0  0  0  0  0  0  0  0  0  # atno 6908 bound_to 6896
  152.2053  134.8551  160.0554 H   0  0  0  0  0  0  0  0  0  0  0  0  # atno 6909 bound_to 6896
  145.8572  140.8311  142.9955 H   0  0  0  0  0  0  0  0  0  0  0  0  # atno 7974 bound_to 7965
  155.5099  140.0582  157.2925 H   0  0  0  0  0  0  0  0  0  0  0  0  # atno 8008 bound_to 7997
  154.4555  140.1971  156.0339 H   0  0  0  0  0  0  0  0  0  0  0  0  # atno 8009 bound_to 7997
  156.0791  140.3249  155.7675 H   0  0  0  0  0  0  0  0  0  0  0  0  # atno 8010 bound_to 7997
  140.7254  143.3882  151.1478 H   0  0  0  0  0  0  0  0  0  0  0  0  # atno 10167 bound_to 10162
  156.1084  130.6229  150.9253 H   0  0  0  0  0  0  0  0  0  0  0  0  # atno 10718 bound_to 10713
  154.6253  135.5440  153.7620 H   0  0  0  0  0  0  0  0  0  0  0  0  # atno 10763 bound_to 10752
  153.0258  135.6422  154.1381 H   0  0  0  0  0  0  0  0  0  0  0  0  # atno 10764 bound_to 10752
  154.1313  135.2914  155.3164 H   0  0  0  0  0  0  0  0  0  0  0  0  # atno 10765 bound_to 10752
  140.1783  134.8494  157.2773 H   0  0  0  0  0  0  0  0  0  0  0  0  # atno 11005 bound_to 11000
  144.6727  140.1041  143.7459 LP  0  0  0  0  0  0  0  0  0  0  0  0  # atno 17320 bound_to 7965
  145.9290  139.2594  143.1336 LP  0  0  0  0  0  0  0  0  0  0  0  0  # atno 17321 bound_to 7965
  139.7482  143.8819  152.3069 LP  0  0  0  0  0  0  0  0  0  0  0  0  # atno 17342 bound_to 10162
  139.8664  144.7091  150.9039 LP  0  0  0  0  0  0  0  0  0  0  0  0  # atno 17343 bound_to 10162
  157.6263  131.0925  150.8527 LP  0  0  0  0  0  0  0  0  0  0  0  0  # atno 17370 bound_to 10713
  156.8642  130.5123  149.5301 LP  0  0  0  0  0  0  0  0  0  0  0  0  # atno 17371 bound_to 10713
  140.2297  134.3924  155.7527 LP  0  0  0  0  0  0  0  0  0  0  0  0  # atno 17394 bound_to 11000
  141.2221  133.7208  156.8621 LP  0  0  0  0  0  0  0  0  0  0  0  0  # atno 17395 bound_to 11000

$$$$
