AV-unprocessed.smi:54|AV-procd|sdf|546|dock3
  -GOLD-   2262016443D 1   1.00000     0.00000
 Structure written by MMmdl.
 43 45  0  0  0  0  0  0  0  0  2 V2000
  145.2741  136.1219  159.8679 C   0  0  0  0  0  0  0  0  0  0  0  0
  146.6150  135.3693  159.8618 C   0  0  0  0  0  0  0  0  0  0  0  0
  146.7381  134.4380  161.0795 C   0  0  0  0  0  0  0  0  0  0  0  0
  147.7906  136.3554  159.8084 C   0  0  0  0  0  0  0  0  0  0  0  0
  147.9484  137.1524  160.7358 O   0  0  0  0  0  0  0  0  0  0  0  0
  148.5650  136.2710  158.7047 N   0  0  0  0  0  0  0  0  0  0  0  0
  149.6838  137.0352  158.3565 C   0  0  0  0  0  0  0  0  0  0  0  0
  149.4992  137.7551  157.2776 N   0  0  0  0  0  0  0  0  0  0  0  0
  150.6147  138.4912  156.9277 C   0  0  0  0  0  0  0  0  0  0  0  0
  151.8256  138.5224  157.5644 C   0  0  0  0  0  0  0  0  0  0  0  0
  152.7125  139.3836  156.9302 N   0  0  0  0  0  0  0  0  0  0  0  0
  151.9783  139.8431  155.9190 C   0  0  0  0  0  0  0  0  0  0  0  0
  150.7200  139.3657  155.8476 N   0  0  0  0  0  0  0  0  0  0  0  0
  149.7002  139.7324  154.8100 C   0  0  1  0  0  0  0  0  0  0  0  0
  148.4765  139.1357  155.1306 O   0  0  0  0  0  0  0  0  0  0  0  0
  147.4676  140.1271  155.3252 C   0  0  2  0  0  0  0  0  0  0  0  0
  146.1024  139.5693  154.8953 C   0  0  0  0  0  0  0  0  0  0  0  0
  146.0880  139.3378  153.5028 O   0  0  0  0  0  0  0  0  0  0  0  0
  147.9603  141.2824  154.4520 C   0  0  1  0  0  0  0  0  0  0  0  0
  147.3772  142.5276  154.7843 O   0  0  0  0  0  0  0  0  0  0  0  0
  149.4631  141.2503  154.6899 C   0  0  1  0  0  0  0  0  0  0  0  0
  149.8438  141.9835  155.8447 O   0  0  0  0  0  0  0  0  0  0  0  0
  151.9729  137.6725  158.7696 C   0  0  0  0  0  0  0  0  0  0  0  0
  153.0459  137.6663  159.3698 O   0  0  0  0  0  0  0  0  0  0  0  0
  150.8671  136.9485  159.1166 N   0  5  0  0  0  0  0  0  0  0  0  0
  150.0730  139.2895  153.8854 H   0  0  0  0  0  0  0  0  0  0  0  0
  147.4514  140.4421  156.3696 H   0  0  0  0  0  0  0  0  0  0  0  0
  147.7551  141.0616  153.4035 H   0  0  0  0  0  0  0  0  0  0  0  0
  150.0173  141.6416  153.8363 H   0  0  0  0  0  0  0  0  0  0  0  0
  145.1841  136.7773  159.0006 H   0  0  0  0  0  0  0  0  0  0  0  0
  145.1616  136.7357  160.7625 H   0  0  0  0  0  0  0  0  0  0  0  0
  144.4364  135.4248  159.8385 H   0  0  0  0  0  0  0  0  0  0  0  0
  146.6448  134.7479  158.9649 H   0  0  0  0  0  0  0  0  0  0  0  0
  147.6944  133.9132  161.0822 H   0  0  0  0  0  0  0  0  0  0  0  0
  145.9516  133.6831  161.0727 H   0  0  0  0  0  0  0  0  0  0  0  0
  146.6581  134.9896  162.0172 H   0  0  0  0  0  0  0  0  0  0  0  0
  148.2415  135.6159  158.0084 H   0  0  0  0  0  0  0  0  0  0  0  0
  152.3677  140.5554  155.2064 H   0  0  0  0  0  0  0  0  0  0  0  0
  145.9154  138.6139  155.3863 H   0  0  0  0  0  0  0  0  0  0  0  0
  145.2925  140.2425  155.1776 H   0  0  0  0  0  0  0  0  0  0  0  0
  145.2011  139.4346  153.1916 H   0  0  0  0  0  0  0  0  0  0  0  0
  148.0601  143.0914  155.1157 H   0  0  0  0  0  0  0  0  0  0  0  0
  149.5547  142.8777  155.7448 H   0  0  0  0  0  0  0  0  0  0  0  0
  1  2  1  0  0  0  0
  1 30  1  0  0  0  0
  1 31  1  0  0  0  0
  1 32  1  0  0  0  0
  2  3  1  0  0  0  0
  2  4  1  0  0  0  0
  2 33  1  0  0  0  0
  3 34  1  0  0  0  0
  3 35  1  0  0  0  0
  3 36  1  0  0  0  0
  4  5  2  0  0  0  0
  4  6  1  0  0  0  0
  6 37  1  0  0  0  0
  6  7  1  0  0  0  0
  7 25  1  0  0  0  0
  7  8  2  0  0  0  0
  8  9  1  0  0  0  0
  9 13  1  0  0  0  0
  9 10  2  0  0  0  0
 10 11  1  0  0  0  0
 10 23  1  0  0  0  0
 11 12  2  0  0  0  0
 12 13  1  0  0  0  0
 12 38  1  0  0  0  0
 13 14  1  0  0  0  0
 14 26  1  0  0  0  0
 14 21  1  0  0  0  0
 14 15  1  0  0  0  0
 15 16  1  0  0  0  0
 16 27  1  0  0  0  0
 16 17  1  0  0  0  0
 16 19  1  0  0  0  0
 17 18  1  0  0  0  0
 17 39  1  0  0  0  0
 17 40  1  0  0  0  0
 18 41  1  0  0  0  0
 19 28  1  0  0  0  0
 19 20  1  0  0  0  0
 19 21  1  0  0  0  0
 20 42  1  0  0  0  0
 21 29  1  0  0  0  0
 21 22  1  0  0  0  0
 22 43  1  0  0  0  0
 23 24  2  0  0  0  0
 23 25  1  0  0  0  0
M  CHG  1  25  -1
M  END
> <s_m_source_file>
AV-unprocessed.smi

> <i_m_source_file_index>
54

> <i_lp_mmshare_version>
43012

> <i_f3d_flags>
0

> <s_epik_input>
W0NIM11bQ0hdKFtDSDNdKUMoPU8pW05IXWMobjEpW25IXWMoPU8pYyhjMTIpbltjSF1uMltDQEBIXTNPW0NASF0oW0NIMl1bT0hdKVtDQEBIXShbT0hdKVtDQEhdM1tPSF0=

> <s_epik_cmdline>
J2VwaWtfcHl0aG9uJywgJy1waCcsICc3LjAnLCAnLXRuJywgJzgnLCAnLW1hJywgJzIwMCcsICctbWV0YWxfYmluZGluZycsICctaW1hZScsICc8aW5maWxlLm1hZT4nLCAnLW9tYWUnLCAnPG91dGZpbGUubWFlPic=

> <r_lp_tautomer_probability>
0.85571

> <r_epik_Ionization_Penalty>
1.75936

> <r_epik_Ionization_Penalty_Charging>
4.55893e-11

> <r_epik_Ionization_Penalty_Neutral>
1.75936

> <r_epik_State_Penalty>
1.72072

> <r_epik_Charging_Adjusted_Penalty>
1.72072

> <i_epik_Tot_Q>
-1

> <i_epik_Tot_abs_Q>
1

> <r_epik_Metal_State_Penalty>
0.400338

> <b_epik_Metal_Only>
1

> <s_epik_Chemistry_Notes>
This compound contains an acetal/aminal-like group ( X-CH(R)-Y where X, Y are N, S, or O) that may be acid/base labile, releasing an aldehyde.

> <s_lp_Force_Field>
OPLS_2005

> <r_lp_Energy>
68.5195

> <b_lp_Chiralities_Consistent>
1

> <s_lp_Variant>
AV-unprocessed.smi:54-18

> <Gold.Version>
5.8.1

> <Gold.Id.Protein>
6NUR|6NUR_protein|mol2

> <Gold.PLP.Fitness>
51.3544

> <Gold.PLP.PLP>
-29.9167

> <Gold.PLP.part.hbond>
-7.0000

> <Gold.PLP.part.metal>
0.0000

> <Gold.PLP.part.buried>
-5.0837

> <Gold.PLP.part.nonpolar>
-18.3357

> <Gold.PLP.part.repulsive>
0.1851

> <Gold.PLP.ligand.clash>
0.0000

> <Gold.PLP.ligand.torsion>
0.7332

> <Gold.PLP.Chemscore.Hbond>
7.6160

> <Gold.PLP.Chemscore.CHOScore>
0.0000

> <Gold.PLP.Chemscore.Metal>
0.0000

> <Gold.Chemscore.Hbonds>
donor molecule, donor type, donor heavy atom, donor atom, acceptor molecule, acceptor atom, score
      L1  H    18    41       P1 10175  1.00
      L1  H    20    42       P1  8028  1.00
      L1  H    22    43       P1  8028  1.00
      P1  H  6896  6909       L1    25  2.00
      P1  H  6931  6943       L1     5  0.86
      P1  H  6934  6947       L1     5  0.80
      P1  H  7997  8008       L1    11  1.00

> <Gold.PLP.Chemscore.Internal.Correction>
0.0560

> <Gold.Rescore>
     Score         DG    S(hbond)    S(metal)    S(lipo)     H(rot)  DE(clash)    DE(int)     intcor
     16.12     -19.40       6.02        0.00      35.11       4.02       0.03       3.25       ----

> <Gold.Chemscore.Fitness>
16.1165

> <Gold.Chemscore.DG>
-19.3951

> <Gold.Chemscore.ZeroCoef>
-5.4800

> <Gold.Chemscore.Hbond>
6.0169

> <Gold.Chemscore.Metal>
0.0000

> <Gold.Chemscore.Lipo>
35.1119

> <Gold.Chemscore.Internal_Hbond>
0.0000

> <Gold.Chemscore.DEClash>
0.0291

> <Gold.Chemscore.DEInternal>
3.2495

> <Gold.Chemscore.Rot>
4.0192

> <Gold.Chemscore.Internal.Correction>
   9.000000E+99

> <Gold.Chemscore.Hbonds>
donor molecule, donor type, donor heavy atom, donor atom, acceptor molecule, acceptor atom, score
      L1  H    18    41       P1 10175  0.95
      L1  H    20    42       P1  8028  0.89
      L1  H    22    43       P1  8028  0.99
      P1  H  6896  6909       L1    25  0.78
      P1  H  6931  6943       L1     5  0.84
      P1  H  6934  6947       L1     5  0.74
      P1  H  7997  8008       L1    11  0.30

> <Gold.Chemscore.Hbond.Weighted>
-20.0963

> <Gold.Chemscore.Metal.Weighted>
-0.0000

> <Gold.Chemscore.Lipo.Weighted>
-4.1081

> <Gold.Chemscore.Internal_Hbond.Weighted>
0.0000

> <Gold.Chemscore.DEClash.Weighted>
0.0291

> <Gold.Chemscore.DEInternal.Weighted>
3.2495

> <Gold.Chemscore.Rot.Weighted>
10.2893

> <Gold.Chemscore.Internal.Correction.Weighted>
   9.000000E+99

> <Gold.Protein.RotatedTorsions>
[ 6907 6896 6895 6894 ] final   99.10 input  -60.11 | X-H torsion
[ 7974 7965 7964 7962 ] final -131.32 input  175.53 | X-H torsion
[ 8008 7997 7996 7995 ] final  -53.59 input   59.86 | X-H torsion
[ 10167 10162 10161 10158 ] final  -93.70 input  -65.29 | X-H torsion
[ 10718 10713 10712 10709 ] final  -64.98 input   66.30 | X-H torsion
[ 10763 10752 10751 10750 ] final  -78.13 input  -60.55 | X-H torsion
[ 11005 11000 10999 10996 ] final -156.31 input  -57.11 | X-H torsion

> <Gold.Protein.ActiveResidues>
 VAL166  LYS551  ARG553  GLY616  TRP617  ASP618  TYR619  PRO620  LYS621  CYS622 
 ASP623  PHE694  ASN695  SER759  ASP760  ASP761  ALA762  ILE779  LEU786  VAL792 
 PHE793  MET794  SER795  GLU796  ALA797  LYS798  CYS799  TRP800  GLU811  SER814 

> <Gold.Protein.RotatedAtoms>
  152.5398  134.0479  159.8096 H   0  0  0  0  0  0  0  0  0  0  0  0  # atno 6907 bound_to 6896
  151.0625  133.5524  159.2640 H   0  0  0  0  0  0  0  0  0  0  0  0  # atno 6908 bound_to 6896
  151.2418  135.0599  159.9081 H   0  0  0  0  0  0  0  0  0  0  0  0  # atno 6909 bound_to 6896
  144.9391  140.7217  143.4858 H   0  0  0  0  0  0  0  0  0  0  0  0  # atno 7974 bound_to 7965
  154.4138  140.1196  156.5179 H   0  0  0  0  0  0  0  0  0  0  0  0  # atno 8008 bound_to 7997
  155.6733  140.3496  155.4807 H   0  0  0  0  0  0  0  0  0  0  0  0  # atno 8009 bound_to 7997
  155.9614  140.1124  157.0882 H   0  0  0  0  0  0  0  0  0  0  0  0  # atno 8010 bound_to 7997
  140.3220  143.3043  152.0036 H   0  0  0  0  0  0  0  0  0  0  0  0  # atno 10167 bound_to 10162
  156.0696  130.4241  150.1499 H   0  0  0  0  0  0  0  0  0  0  0  0  # atno 10718 bound_to 10713
  154.5219  135.5740  153.6687 H   0  0  0  0  0  0  0  0  0  0  0  0  # atno 10763 bound_to 10752
  152.9919  135.6184  154.2743 H   0  0  0  0  0  0  0  0  0  0  0  0  # atno 10764 bound_to 10752
  154.2665  135.2854  155.2736 H   0  0  0  0  0  0  0  0  0  0  0  0  # atno 10765 bound_to 10752
  140.6769  134.4187  157.5229 H   0  0  0  0  0  0  0  0  0  0  0  0  # atno 11005 bound_to 11000
  145.3020  139.1847  143.4684 LP  0  0  0  0  0  0  0  0  0  0  0  0  # atno 17320 bound_to 7965
  146.3278  140.3013  142.8621 LP  0  0  0  0  0  0  0  0  0  0  0  0  # atno 17321 bound_to 7965
  139.4872  144.6303  151.7083 LP  0  0  0  0  0  0  0  0  0  0  0  0  # atno 17342 bound_to 10162
  140.5475  144.0480  150.6113 LP  0  0  0  0  0  0  0  0  0  0  0  0  # atno 17343 bound_to 10162
  156.9552  130.9787  151.3490 LP  0  0  0  0  0  0  0  0  0  0  0  0  # atno 17370 bound_to 10713
  157.5759  130.8343  149.8455 LP  0  0  0  0  0  0  0  0  0  0  0  0  # atno 17371 bound_to 10713
  139.8964  134.8661  156.2090 LP  0  0  0  0  0  0  0  0  0  0  0  0  # atno 17394 bound_to 11000
  141.0348  133.6969  156.1493 LP  0  0  0  0  0  0  0  0  0  0  0  0  # atno 17395 bound_to 11000

$$$$
