AV-unprocessed.smi:52|AV-procd|sdf|509|dock8
  -GOLD-   2262016383D 1   1.00000     0.00000
 Structure written by MMmdl.
 27 28  0  0  0  0  0  0  0  0  3 V2000
  151.1735  132.8445  157.2993 O   0  0  0  0  0  0  0  0  0  0  0  0
  151.2036  133.8937  156.6189 C   0  0  0  0  0  0  0  0  0  0  0  0
  152.1143  134.7410  156.7493 O   0  5  0  0  0  0  0  0  0  0  0  0
  150.1238  134.1423  155.6295 C   0  0  0  0  0  0  0  0  0  0  0  0
  149.5529  135.3513  155.3216 C   0  0  0  0  0  0  0  0  0  0  0  0
  148.6009  135.1667  154.3556 O   0  0  0  0  0  0  0  0  0  0  0  0
  148.6289  133.8287  154.1108 C   0  0  0  0  0  0  0  0  0  0  0  0
  147.7172  133.2623  153.0730 C   0  0  0  0  0  0  0  0  0  0  0  0
  147.0405  134.4485  152.4973 N   0  3  2  0  0  0  0  0  0  0  0  0
  146.0148  135.0407  153.3802 C   0  0  0  0  0  0  0  0  0  0  0  0
  145.0770  135.7967  152.4450 C   0  0  0  0  0  0  0  0  0  0  0  0
  145.0222  134.8803  151.2266 C   0  0  1  0  0  0  0  0  0  0  0  0
  144.6932  135.5905  150.0515 O   0  0  0  0  0  0  0  0  0  0  0  0
  146.4217  134.2509  151.1610 C   0  0  0  0  0  0  0  0  0  0  0  0
  149.5194  133.1677  154.8456 N   0  0  0  0  0  0  0  0  0  0  0  0
  144.2794  134.0993  151.3956 H   0  0  0  0  0  0  0  0  0  0  0  0
  149.7046  136.3614  155.6734 H   0  0  0  0  0  0  0  0  0  0  0  0
  148.2752  132.7017  152.3217 H   0  0  0  0  0  0  0  0  0  0  0  0
  146.9986  132.5952  153.5505 H   0  0  0  0  0  0  0  0  0  0  0  0
  145.4635  134.2475  153.8883 H   0  0  0  0  0  0  0  0  0  0  0  0
  146.4604  135.6837  154.1397 H   0  0  0  0  0  0  0  0  0  0  0  0
  144.0957  135.9832  152.8830 H   0  0  0  0  0  0  0  0  0  0  0  0
  145.5195  136.7593  152.1818 H   0  0  0  0  0  0  0  0  0  0  0  0
  145.2671  135.3082  149.3551 H   0  0  0  0  0  0  0  0  0  0  0  0
  147.0523  134.7461  150.4212 H   0  0  0  0  0  0  0  0  0  0  0  0
  146.3543  133.1979  150.8822 H   0  0  0  0  0  0  0  0  0  0  0  0
  147.7477  135.1595  152.3754 H   0  0  0  0  0  0  0  0  0  0  0  0
  1  2  2  0  0  0  0
  2  3  1  0  0  0  0
  2  4  1  0  0  0  0
  4 15  1  0  0  0  0
  4  5  2  0  0  0  0
  5  6  1  0  0  0  0
  5 17  1  0  0  0  0
  6  7  1  0  0  0  0
  7  8  1  0  0  0  0
  7 15  2  0  0  0  0
  8  9  1  0  0  0  0
  8 18  1  0  0  0  0
  8 19  1  0  0  0  0
  9 14  1  0  0  0  0
  9 10  1  0  0  0  0
  9 27  1  0  0  0  0
 10 11  1  0  0  0  0
 10 20  1  0  0  0  0
 10 21  1  0  0  0  0
 11 12  1  0  0  0  0
 11 22  1  0  0  0  0
 11 23  1  0  0  0  0
 12 16  1  0  0  0  0
 12 13  1  0  0  0  0
 12 14  1  0  0  0  0
 13 24  1  0  0  0  0
 14 25  1  0  0  0  0
 14 26  1  0  0  0  0
M  CHG  1   3  -1
M  CHG  1   9   1
M  END
> <s_m_source_file>
AV-unprocessed.smi

> <i_m_source_file_index>
52

> <i_lp_mmshare_version>
43012

> <i_f3d_flags>
0

> <s_epik_input>
Tz1DKFtPSF0pYzFbY0hdb2MobjEpW0NIMl1OMltDSDJdW0NIMl1bQ0BIXShbT0hdKVtDSDJdMg==

> <s_epik_cmdline>
J2VwaWtfcHl0aG9uJywgJy1waCcsICc3LjAnLCAnLXRuJywgJzgnLCAnLW1hJywgJzIwMCcsICctbWV0YWxfYmluZGluZycsICctaW1hZScsICc8aW5maWxlLm1hZT4nLCAnLW9tYWUnLCAnPG91dGZpbGUubWFlPic=

> <r_epik_Ionization_Penalty>
0.0376014

> <r_epik_Ionization_Penalty_Charging>
0.0376013

> <r_epik_Ionization_Penalty_Neutral>
1.78687e-08

> <r_epik_State_Penalty>
0.0314164

> <r_epik_Charging_Adjusted_Penalty>
0.0690177

> <i_epik_Tot_Q>
0

> <i_epik_Tot_abs_Q>
2

> <r_epik_Metal_State_Penalty>
0.0314164

> <b_epik_Metal_Only>
0

> <s_lp_Force_Field>
OPLS_2005

> <r_lp_Energy>
21.0877

> <b_lp_Chiralities_Consistent>
1

> <s_lp_Variant>
AV-unprocessed.smi:52-3

> <Gold.Version>
5.8.1

> <Gold.Id.Protein>
6NUR|6NUR_protein|mol2

> <Gold.PLP.Fitness>
39.8465

> <Gold.PLP.PLP>
-20.4196

> <Gold.PLP.part.hbond>
-4.7100

> <Gold.PLP.part.metal>
0.0000

> <Gold.PLP.part.buried>
-3.4041

> <Gold.PLP.part.nonpolar>
-13.7253

> <Gold.PLP.part.repulsive>
2.6562

> <Gold.PLP.ligand.clash>
0.0000

> <Gold.PLP.ligand.torsion>
0.6954

> <Gold.PLP.Chemscore.Hbond>
6.9360

> <Gold.PLP.Chemscore.CHOScore>
0.0000

> <Gold.PLP.Chemscore.Metal>
0.0000

> <Gold.Chemscore.Hbonds>
donor molecule, donor type, donor heavy atom, donor atom, acceptor molecule, acceptor atom, score
      L1  H     9    27       P1  7948  2.00
      L1  H    13    24       P1  7921  1.00
      P1  H  6896  6908       L1     1  1.98
      P1  H 10752 10764       L1     3  1.84

> <Gold.PLP.Chemscore.Internal.Correction>
0.0096

> <Gold.Rescore>
     Score         DG    S(hbond)    S(metal)    S(lipo)     H(rot)  DE(clash)    DE(int)     intcor
     13.02     -16.55       3.75        0.00      31.02       1.99       1.37       2.16       ----

> <Gold.Chemscore.Fitness>
13.0203

> <Gold.Chemscore.DG>
-16.5485

> <Gold.Chemscore.ZeroCoef>
-5.4800

> <Gold.Chemscore.Hbond>
3.7541

> <Gold.Chemscore.Metal>
0.0000

> <Gold.Chemscore.Lipo>
31.0175

> <Gold.Chemscore.Internal_Hbond>
0.0000

> <Gold.Chemscore.DEClash>
1.3728

> <Gold.Chemscore.DEInternal>
2.1554

> <Gold.Chemscore.Rot>
1.9919

> <Gold.Chemscore.Internal.Correction>
   9.000000E+99

> <Gold.Chemscore.Hbonds>
donor molecule, donor type, donor heavy atom, donor atom, acceptor molecule, acceptor atom, score
      L1  H     9    27       P1  7948  0.98
      L1  H    13    24       P1  7921  0.97
      P1  H  6896  6908       L1     1  0.55
      P1  H 10752 10764       L1     3  0.84

> <Gold.Chemscore.Hbond.Weighted>
-12.5386

> <Gold.Chemscore.Metal.Weighted>
-0.0000

> <Gold.Chemscore.Lipo.Weighted>
-3.6290

> <Gold.Chemscore.Internal_Hbond.Weighted>
0.0000

> <Gold.Chemscore.DEClash.Weighted>
1.3728

> <Gold.Chemscore.DEInternal.Weighted>
2.1554

> <Gold.Chemscore.Rot.Weighted>
5.0991

> <Gold.Chemscore.Internal.Correction.Weighted>
   9.000000E+99

> <Gold.Protein.RotatedTorsions>
[ 6907 6896 6895 6894 ] final   78.72 input  -60.11 | X-H torsion
[ 7974 7965 7964 7962 ] final -169.42 input  175.53 | X-H torsion
[ 8008 7997 7996 7995 ] final   13.90 input   59.86 | X-H torsion
[ 10167 10162 10161 10158 ] final  101.97 input  -65.29 | X-H torsion
[ 10718 10713 10712 10709 ] final   87.63 input   66.30 | X-H torsion
[ 10763 10752 10751 10750 ] final  -13.12 input  -60.55 | X-H torsion
[ 11005 11000 10999 10996 ] final   67.92 input  -57.11 | X-H torsion

> <Gold.Protein.ActiveResidues>
 VAL166  LYS551  ARG553  GLY616  TRP617  ASP618  TYR619  PRO620  LYS621  CYS622 
 ASP623  PHE694  ASN695  SER759  ASP760  ASP761  ALA762  ILE779  LEU786  VAL792 
 PHE793  MET794  SER795  GLU796  ALA797  LYS798  CYS799  TRP800  GLU811  SER814 

> <Gold.Protein.RotatedAtoms>
  152.5170  134.3622  159.9288 H   0  0  0  0  0  0  0  0  0  0  0  0  # atno 6907 bound_to 6896
  151.3574  133.3896  159.2694 H   0  0  0  0  0  0  0  0  0  0  0  0  # atno 6908 bound_to 6896
  150.9679  134.9075  159.7828 H   0  0  0  0  0  0  0  0  0  0  0  0  # atno 6909 bound_to 6896
  144.7186  140.2224  143.6314 H   0  0  0  0  0  0  0  0  0  0  0  0  # atno 7974 bound_to 7965
  154.8409  140.2914  155.5660 H   0  0  0  0  0  0  0  0  0  0  0  0  # atno 8008 bound_to 7997
  156.3011  140.2514  156.3283 H   0  0  0  0  0  0  0  0  0  0  0  0  # atno 8009 bound_to 7997
  154.9127  140.0388  157.1944 H   0  0  0  0  0  0  0  0  0  0  0  0  # atno 8010 bound_to 7997
  139.7391  144.7016  151.0603 H   0  0  0  0  0  0  0  0  0  0  0  0  # atno 10167 bound_to 10162
  157.6942  131.0263  150.3153 H   0  0  0  0  0  0  0  0  0  0  0  0  # atno 10718 bound_to 10713
  153.5086  135.7016  153.5793 H   0  0  0  0  0  0  0  0  0  0  0  0  # atno 10763 bound_to 10752
  153.3893  135.3900  155.1912 H   0  0  0  0  0  0  0  0  0  0  0  0  # atno 10764 bound_to 10752
  154.8705  135.3854  154.4563 H   0  0  0  0  0  0  0  0  0  0  0  0  # atno 10765 bound_to 10752
  139.9742  134.6850  156.0387 H   0  0  0  0  0  0  0  0  0  0  0  0  # atno 11005 bound_to 11000
  145.8489  139.2165  143.1784 LP  0  0  0  0  0  0  0  0  0  0  0  0  # atno 17320 bound_to 7965
  146.0279  140.8286  142.9890 LP  0  0  0  0  0  0  0  0  0  0  0  0  # atno 17321 bound_to 7965
  140.7783  143.4946  150.9848 LP  0  0  0  0  0  0  0  0  0  0  0  0  # atno 17342 bound_to 10162
  139.8635  143.7284  152.3172 LP  0  0  0  0  0  0  0  0  0  0  0  0  # atno 17343 bound_to 10162
  156.3648  130.3853  149.7222 LP  0  0  0  0  0  0  0  0  0  0  0  0  # atno 17370 bound_to 10713
  156.4656  130.7972  151.2991 LP  0  0  0  0  0  0  0  0  0  0  0  0  # atno 17371 bound_to 10713
  141.1420  133.6563  156.3757 LP  0  0  0  0  0  0  0  0  0  0  0  0  # atno 17394 bound_to 11000
  140.5230  134.6286  157.5324 LP  0  0  0  0  0  0  0  0  0  0  0  0  # atno 17395 bound_to 11000

$$$$
