AV-unprocessed.smi:3201|AV-procd|sdf|12240|dock6
  -GOLD-   2272018 73D 1   1.00000     0.00000
 Structure written by MMmdl.
 41 43  0  0  0  0  0  0  0  0  2 V2000
  148.9909  138.1874  154.6561 C   0  0  0  0  0  0  0  0  0  0  0  0
  148.4803  139.5774  154.4489 C   0  0  0  0  0  0  0  0  0  0  0  0
  148.8648  140.7601  155.0225 C   0  0  0  0  0  0  0  0  0  0  0  0
  149.9327  141.0140  156.0511 C   0  0  0  0  0  0  0  0  0  0  0  0
  149.3502  141.6390  157.3252 C   0  0  0  0  0  0  0  0  0  0  0  0
  149.8461  143.0175  157.5108 N   0  3  0  0  0  0  0  0  0  0  0  0
  151.3194  143.1456  157.5475 C   0  0  1  0  0  0  0  0  0  0  0  0
  151.8477  144.5137  157.0635 C   0  0  0  0  0  0  0  0  0  0  0  0
  152.7605  144.9543  158.2248 C   0  0  1  0  0  0  0  0  0  0  0  0
  151.8830  145.4186  159.4002 C   0  0  0  0  0  0  0  0  0  0  0  0
  151.2903  144.0956  159.9186 C   0  0  0  0  0  0  0  0  0  0  0  0
  151.9075  143.0429  158.9718 C   0  0  2  0  0  0  0  0  0  0  0  0
  153.2994  143.6251  158.7460 C   0  0  0  0  0  0  0  0  0  0  0  0
  148.0118  141.7235  154.4145 C   0  0  0  0  0  0  0  0  0  0  0  0
  147.1735  141.1901  153.5450 N   0  0  0  0  0  0  0  0  0  0  0  0
  147.4566  139.8718  153.5650 N   0  0  0  0  0  0  0  0  0  0  0  0
  146.6959  138.9868  152.7033 C   0  0  0  0  0  0  0  0  0  0  0  0
  149.8323  138.1724  155.3484 H   0  0  0  0  0  0  0  0  0  0  0  0
  149.3289  137.7538  153.7147 H   0  0  0  0  0  0  0  0  0  0  0  0
  148.2106  137.5454  155.0654 H   0  0  0  0  0  0  0  0  0  0  0  0
  150.4402  140.0832  156.3076 H   0  0  0  0  0  0  0  0  0  0  0  0
  150.7070  141.6671  155.6475 H   0  0  0  0  0  0  0  0  0  0  0  0
  148.2608  141.6554  157.2688 H   0  0  0  0  0  0  0  0  0  0  0  0
  149.6196  141.0333  158.1912 H   0  0  0  0  0  0  0  0  0  0  0  0
  149.4909  143.5991  156.7652 H   0  0  0  0  0  0  0  0  0  0  0  0
  151.7501  142.3498  156.9367 H   0  0  0  0  0  0  0  0  0  0  0  0
  152.4175  144.3967  156.1408 H   0  0  0  0  0  0  0  0  0  0  0  0
  151.0571  145.2412  156.8742 H   0  0  0  0  0  0  0  0  0  0  0  0
  153.5205  145.6807  157.9349 H   0  0  0  0  0  0  0  0  0  0  0  0
  152.4880  145.8960  160.1723 H   0  0  0  0  0  0  0  0  0  0  0  0
  151.1145  146.1286  159.0920 H   0  0  0  0  0  0  0  0  0  0  0  0
  151.6074  143.9176  160.9470 H   0  0  0  0  0  0  0  0  0  0  0  0
  150.2004  144.0945  159.9101 H   0  0  0  0  0  0  0  0  0  0  0  0
  151.8974  142.0307  159.3771 H   0  0  0  0  0  0  0  0  0  0  0  0
  153.8876  143.0773  158.0078 H   0  0  0  0  0  0  0  0  0  0  0  0
  153.8822  143.7247  159.6638 H   0  0  0  0  0  0  0  0  0  0  0  0
  147.9789  142.7905  154.5789 H   0  0  0  0  0  0  0  0  0  0  0  0
  146.9526  137.9447  152.8916 H   0  0  0  0  0  0  0  0  0  0  0  0
  146.9095  139.2192  151.6598 H   0  0  0  0  0  0  0  0  0  0  0  0
  145.6293  139.1210  152.8865 H   0  0  0  0  0  0  0  0  0  0  0  0
  149.4812  143.3611  158.3876 H   0  0  0  0  0  0  0  0  0  0  0  0
  1  2  1  0  0  0  0
  1 18  1  0  0  0  0
  1 19  1  0  0  0  0
  1 20  1  0  0  0  0
  2 16  1  0  0  0  0
  2  3  2  0  0  0  0
  3  4  1  0  0  0  0
  3 14  1  0  0  0  0
  4  5  1  0  0  0  0
  4 21  1  0  0  0  0
  4 22  1  0  0  0  0
  5  6  1  0  0  0  0
  5 23  1  0  0  0  0
  5 24  1  0  0  0  0
  6  7  1  0  0  0  0
  6 25  1  0  0  0  0
  6 41  1  0  0  0  0
  7 12  1  0  0  0  0
  7  8  1  0  0  0  0
  7 26  1  0  0  0  0
  8  9  1  0  0  0  0
  8 27  1  0  0  0  0
  8 28  1  0  0  0  0
  9 13  1  0  0  0  0
  9 10  1  0  0  0  0
  9 29  1  0  0  0  0
 10 11  1  0  0  0  0
 10 30  1  0  0  0  0
 10 31  1  0  0  0  0
 11 12  1  0  0  0  0
 11 32  1  0  0  0  0
 11 33  1  0  0  0  0
 12 13  1  0  0  0  0
 12 34  1  0  0  0  0
 13 35  1  0  0  0  0
 13 36  1  0  0  0  0
 14 15  2  0  0  0  0
 14 37  1  0  0  0  0
 15 16  1  0  0  0  0
 16 17  1  0  0  0  0
 17 38  1  0  0  0  0
 17 39  1  0  0  0  0
 17 40  1  0  0  0  0
M  CHG  1   6   1
M  END
> <s_m_source_file>
AV-unprocessed.smi

> <i_m_source_file_index>
3201

> <i_lp_mmshare_version>
43012

> <i_f3d_flags>
0

> <s_epik_input>
W0NIM11uMW5bY0hdYyhjMVtDSDNdKVtDSDJdW0NIMl1bTkhdW0NASF0oW0NIMl1bQ0BIXTIzKVtDQEhdKFtDSDJdMylbQ0gyXVtDSDJdMg==

> <s_epik_cmdline>
J2VwaWtfcHl0aG9uJywgJy1waCcsICc3LjAnLCAnLXRuJywgJzgnLCAnLW1hJywgJzIwMCcsICctbWV0YWxfYmluZGluZycsICctaW1hZScsICc8aW5maWxlLm1hZT4nLCAnLW9tYWUnLCAnPG91dGZpbGUubWFlPic=

> <r_lp_tautomer_probability>
1

> <r_epik_Ionization_Penalty>
0.000331174

> <r_epik_Ionization_Penalty_Charging>
0.000242709

> <r_epik_Ionization_Penalty_Neutral>
8.84659e-05

> <r_epik_State_Penalty>
-0

> <r_epik_Charging_Adjusted_Penalty>
0.000242709

> <i_epik_Tot_Q>
1

> <i_epik_Tot_abs_Q>
1

> <r_epik_Metal_State_Penalty>
-0

> <b_epik_Metal_Only>
0

> <s_lp_Force_Field>
OPLS_2005

> <r_lp_Energy>
51.1066

> <b_lp_Chiralities_Consistent>
1

> <s_lp_Variant>
AV-unprocessed.smi:3201-4

> <Gold.Version>
5.8.1

> <Gold.Id.Protein>
6NUR|6NUR_protein|mol2

> <Gold.PLP.Fitness>
47.6644

> <Gold.PLP.PLP>
-40.1237

> <Gold.PLP.part.hbond>
-1.0000

> <Gold.PLP.part.metal>
0.0000

> <Gold.PLP.part.buried>
-4.7197

> <Gold.PLP.part.nonpolar>
-34.7957

> <Gold.PLP.part.repulsive>
0.1986

> <Gold.PLP.ligand.clash>
0.0000

> <Gold.PLP.ligand.torsion>
0.7372

> <Gold.PLP.Chemscore.Hbond>
2.0000

> <Gold.PLP.Chemscore.CHOScore>
1.0000

> <Gold.PLP.Chemscore.Metal>
0.0000

> <Gold.Chemscore.Hbonds>
donor molecule, donor type, donor heavy atom, donor atom, acceptor molecule, acceptor atom, score
      L1  H     6    25       P1  8028  2.00
      L1  C    14    37       P1  8028  1.00

> <Gold.PLP.Chemscore.Internal.Correction>
0.0151

> <Gold.Rescore>
     Score         DG    S(hbond)    S(metal)    S(lipo)     H(rot)  DE(clash)    DE(int)     intcor
     19.31     -20.26       0.98        0.00     128.05       1.36       0.13       0.82       ----

> <Gold.Chemscore.Fitness>
19.3081

> <Gold.Chemscore.DG>
-20.2642

> <Gold.Chemscore.ZeroCoef>
-5.4800

> <Gold.Chemscore.Hbond>
0.9824

> <Gold.Chemscore.Metal>
0.0000

> <Gold.Chemscore.Lipo>
128.0475

> <Gold.Chemscore.Internal_Hbond>
0.0000

> <Gold.Chemscore.DEClash>
0.1329

> <Gold.Chemscore.DEInternal>
0.8232

> <Gold.Chemscore.Rot>
1.3588

> <Gold.Chemscore.Internal.Correction>
   9.000000E+99

> <Gold.Chemscore.Hbonds>
donor molecule, donor type, donor heavy atom, donor atom, acceptor molecule, acceptor atom, score
      L1  H     6    25       P1  8028  0.98

> <Gold.Chemscore.Hbond.Weighted>
-3.2812

> <Gold.Chemscore.Metal.Weighted>
-0.0000

> <Gold.Chemscore.Lipo.Weighted>
-14.9816

> <Gold.Chemscore.Internal_Hbond.Weighted>
0.0000

> <Gold.Chemscore.DEClash.Weighted>
0.1329

> <Gold.Chemscore.DEInternal.Weighted>
0.8232

> <Gold.Chemscore.Rot.Weighted>
3.4786

> <Gold.Chemscore.Internal.Correction.Weighted>
   9.000000E+99

> <Gold.Protein.RotatedTorsions>
[ 6907 6896 6895 6894 ] final  164.70 input  -60.11 | X-H torsion
[ 7974 7965 7964 7962 ] final  -41.36 input  175.53 | X-H torsion
[ 8008 7997 7996 7995 ] final  129.16 input   59.86 | X-H torsion
[ 10167 10162 10161 10158 ] final  168.99 input  -65.29 | X-H torsion
[ 10718 10713 10712 10709 ] final  -97.06 input   66.30 | X-H torsion
[ 10763 10752 10751 10750 ] final  110.99 input  -60.55 | X-H torsion
[ 11005 11000 10999 10996 ] final  -74.32 input  -57.11 | X-H torsion

> <Gold.Protein.ActiveResidues>
 VAL166  LYS551  ARG553  GLY616  TRP617  ASP618  TYR619  PRO620  LYS621  CYS622 
 ASP623  PHE694  ASN695  SER759  ASP760  ASP761  ALA762  ILE779  LEU786  VAL792 
 PHE793  MET794  SER795  GLU796  ALA797  LYS798  CYS799  TRP800  GLU811  SER814 

> <Gold.Protein.RotatedAtoms>
  151.9058  133.3549  159.3846 H   0  0  0  0  0  0  0  0  0  0  0  0  # atno 6907 bound_to 6896
  150.7069  134.4782  159.5467 H   0  0  0  0  0  0  0  0  0  0  0  0  # atno 6908 bound_to 6896
  152.2379  134.8258  160.0515 H   0  0  0  0  0  0  0  0  0  0  0  0  # atno 6909 bound_to 6896
  146.0218  140.6841  142.9175 H   0  0  0  0  0  0  0  0  0  0  0  0  # atno 7974 bound_to 7965
  156.2930  140.2627  156.2554 H   0  0  0  0  0  0  0  0  0  0  0  0  # atno 8008 bound_to 7997
  154.9841  140.0389  157.2309 H   0  0  0  0  0  0  0  0  0  0  0  0  # atno 8009 bound_to 7997
  154.7745  140.2784  155.6116 H   0  0  0  0  0  0  0  0  0  0  0  0  # atno 8010 bound_to 7997
  139.4981  144.3754  151.9680 H   0  0  0  0  0  0  0  0  0  0  0  0  # atno 10167 bound_to 10162
  156.0075  130.5178  150.6318 H   0  0  0  0  0  0  0  0  0  0  0  0  # atno 10718 bound_to 10713
  153.4569  135.3731  155.2316 H   0  0  0  0  0  0  0  0  0  0  0  0  # atno 10763 bound_to 10752
  154.8757  135.3899  154.3971 H   0  0  0  0  0  0  0  0  0  0  0  0  # atno 10764 bound_to 10752
  153.4539  135.7086  153.6156 H   0  0  0  0  0  0  0  0  0  0  0  0  # atno 10765 bound_to 10752
  141.1633  133.6907  156.7347 H   0  0  0  0  0  0  0  0  0  0  0  0  # atno 11005 bound_to 11000
  144.6993  140.3579  143.7169 LP  0  0  0  0  0  0  0  0  0  0  0  0  # atno 17320 bound_to 7965
  145.7181  139.1702  143.2500 LP  0  0  0  0  0  0  0  0  0  0  0  0  # atno 17321 bound_to 7965
  140.3190  144.3449  150.6014 LP  0  0  0  0  0  0  0  0  0  0  0  0  # atno 17342 bound_to 10162
  140.5738  143.2178  151.7552 LP  0  0  0  0  0  0  0  0  0  0  0  0  # atno 17343 bound_to 10162
  157.4114  131.0824  151.1217 LP  0  0  0  0  0  0  0  0  0  0  0  0  # atno 17370 bound_to 10713
  157.1847  130.6325  149.5684 LP  0  0  0  0  0  0  0  0  0  0  0  0  # atno 17371 bound_to 10713
  140.2719  134.8385  157.3855 LP  0  0  0  0  0  0  0  0  0  0  0  0  # atno 17394 bound_to 11000
  140.1513  134.4846  155.7959 LP  0  0  0  0  0  0  0  0  0  0  0  0  # atno 17395 bound_to 11000

$$$$
