AV-unprocessed.smi:757|AV-procd|sdf|3614|dock3
  -GOLD-   22720 1 13D 1   1.00000     0.00000
 Structure written by MMmdl.
 45 46  0  0  0  0  0  0  0  0  2 V2000
  153.3382  142.0908  160.3998 C   0  0  0  0  0  0  0  0  0  0  0  0
  152.8994  141.2442  159.6372 C   0  0  0  0  0  0  0  0  0  0  0  0
  152.3800  140.2128  158.7245 C   0  0  0  0  0  0  0  0  0  0  0  0
  151.5365  140.7939  157.5751 C   0  0  0  0  0  0  0  0  0  0  0  0
  150.9530  139.7387  156.7084 N   0  3  2  0  0  0  0  0  0  0  0  0
  150.4568  138.5800  157.4957 C   0  0  0  0  0  0  0  0  0  0  0  0
  149.7350  137.5611  156.5981 C   0  0  0  0  0  0  0  0  0  0  0  0
  150.6481  137.0813  155.4591 C   0  0  1  0  0  0  0  0  0  0  0  0
  149.9161  136.1725  154.5811 N   0  0  0  0  0  0  0  0  0  0  0  0
  149.7684  134.8556  154.7874 C   0  0  0  0  0  0  0  0  0  0  0  0
  150.2625  134.2624  155.7459 O   0  0  0  0  0  0  0  0  0  0  0  0
  149.0393  134.2881  153.8111 N   0  0  0  0  0  0  0  0  0  0  0  0
  148.6322  132.9321  153.6813 C   0  0  0  0  0  0  0  0  0  0  0  0
  149.2824  131.8392  154.3033 C   0  0  0  0  0  0  0  0  0  0  0  0
  148.7686  130.5424  154.1114 C   0  0  0  0  0  0  0  0  0  0  0  0
  147.6187  130.3750  153.3146 C   0  0  0  0  0  0  0  0  0  0  0  0
  147.1213  129.1007  153.1338 O   0  0  0  0  0  0  0  0  0  0  0  0
  145.9759  128.9335  152.3055 C   0  0  0  0  0  0  0  0  0  0  0  0
  146.9834  131.4181  152.7255 N   0  0  0  0  0  0  0  0  0  0  0  0
  147.4818  132.6582  152.9127 C   0  0  0  0  0  0  0  0  0  0  0  0
  151.1746  138.2994  154.6788 C   0  0  0  0  0  0  0  0  0  0  0  0
  151.8651  139.3036  155.6169 C   0  0  0  0  0  0  0  0  0  0  0  0
  153.7188  142.8301  161.0685 H   0  0  0  0  0  0  0  0  0  0  0  0
  153.2360  139.6650  158.3290 H   0  0  0  0  0  0  0  0  0  0  0  0
  151.8021  139.5155  159.3301 H   0  0  0  0  0  0  0  0  0  0  0  0
  150.7433  141.4385  157.9583 H   0  0  0  0  0  0  0  0  0  0  0  0
  152.1828  141.4293  156.9669 H   0  0  0  0  0  0  0  0  0  0  0  0
  151.2929  138.1033  158.0104 H   0  0  0  0  0  0  0  0  0  0  0  0
  149.7663  138.9252  158.2664 H   0  0  0  0  0  0  0  0  0  0  0  0
  149.4064  136.7113  157.1978 H   0  0  0  0  0  0  0  0  0  0  0  0
  148.8332  138.0169  156.1863 H   0  0  0  0  0  0  0  0  0  0  0  0
  151.4927  136.5470  155.8993 H   0  0  0  0  0  0  0  0  0  0  0  0
  149.4811  136.5766  153.7645 H   0  0  0  0  0  0  0  0  0  0  0  0
  148.7746  134.8916  153.0463 H   0  0  0  0  0  0  0  0  0  0  0  0
  150.1501  131.9662  154.9314 H   0  0  0  0  0  0  0  0  0  0  0  0
  149.2459  129.6908  154.5730 H   0  0  0  0  0  0  0  0  0  0  0  0
  145.7125  127.8768  152.2635 H   0  0  0  0  0  0  0  0  0  0  0  0
  146.1687  129.2665  151.2848 H   0  0  0  0  0  0  0  0  0  0  0  0
  145.1148  129.4730  152.7027 H   0  0  0  0  0  0  0  0  0  0  0  0
  146.9432  133.4595  152.4276 H   0  0  0  0  0  0  0  0  0  0  0  0
  151.8766  137.9799  153.9077 H   0  0  0  0  0  0  0  0  0  0  0  0
  150.3513  138.7935  154.1607 H   0  0  0  0  0  0  0  0  0  0  0  0
  152.1922  140.1608  155.0297 H   0  0  0  0  0  0  0  0  0  0  0  0
  152.7621  138.8561  156.0480 H   0  0  0  0  0  0  0  0  0  0  0  0
  150.1410  140.1487  156.2691 H   0  0  0  0  0  0  0  0  0  0  0  0
  1  2  3  0  0  0  0
  1 23  1  0  0  0  0
  2  3  1  0  0  0  0
  3  4  1  0  0  0  0
  3 24  1  0  0  0  0
  3 25  1  0  0  0  0
  4  5  1  0  0  0  0
  4 26  1  0  0  0  0
  4 27  1  0  0  0  0
  5 22  1  0  0  0  0
  5  6  1  0  0  0  0
  5 45  1  0  0  0  0
  6  7  1  0  0  0  0
  6 28  1  0  0  0  0
  6 29  1  0  0  0  0
  7  8  1  0  0  0  0
  7 30  1  0  0  0  0
  7 31  1  0  0  0  0
  8  9  1  0  0  0  0
  8 21  1  0  0  0  0
  8 32  1  0  0  0  0
  9 10  1  0  0  0  0
  9 33  1  0  0  0  0
 10 11  2  0  0  0  0
 10 12  1  0  0  0  0
 12 13  1  0  0  0  0
 12 34  1  0  0  0  0
 13 20  1  0  0  0  0
 13 14  2  0  0  0  0
 14 15  1  0  0  0  0
 14 35  1  0  0  0  0
 15 16  2  0  0  0  0
 15 36  1  0  0  0  0
 16 17  1  0  0  0  0
 16 19  1  0  0  0  0
 17 18  1  0  0  0  0
 18 37  1  0  0  0  0
 18 38  1  0  0  0  0
 18 39  1  0  0  0  0
 19 20  2  0  0  0  0
 20 40  1  0  0  0  0
 21 22  1  0  0  0  0
 21 41  1  0  0  0  0
 21 42  1  0  0  0  0
 22 43  1  0  0  0  0
 22 44  1  0  0  0  0
M  CHG  1   5   1
M  END
> <s_m_source_file>
AV-unprocessed.smi

> <i_m_source_file_index>
757

> <i_lp_mmshare_version>
43012

> <i_f3d_flags>
0

> <s_epik_input>
W0NIXSNDW0NIMl1bQ0gyXU4xW0NIMl1bQ0gyXVtDSF0oW0NIMl1bQ0gyXTEpW05IXUMoPU8pW05IXWMyW2NIXVtjSF1jKE9bQ0gzXSluW2NIXTI=

> <s_epik_cmdline>
J2VwaWtfcHl0aG9uJywgJy1waCcsICc3LjAnLCAnLXRuJywgJzgnLCAnLW1hJywgJzIwMCcsICctbWV0YWxfYmluZGluZycsICctaW1hZScsICc8aW5maWxlLm1hZT4nLCAnLW9tYWUnLCAnPG91dGZpbGUubWFlPic=

> <r_lp_tautomer_probability>
1

> <r_epik_Ionization_Penalty>
0.0402573

> <r_epik_Ionization_Penalty_Charging>
0.0401786

> <r_epik_Ionization_Penalty_Neutral>
7.86509e-05

> <r_epik_State_Penalty>
0.0338029

> <r_epik_Charging_Adjusted_Penalty>
0.0739815

> <i_epik_Tot_Q>
1

> <i_epik_Tot_abs_Q>
1

> <r_epik_Metal_State_Penalty>
0.0338035

> <b_epik_Metal_Only>
0

> <s_lp_Force_Field>
OPLS_2005

> <r_lp_Energy>
20.3265

> <b_lp_Chiralities_Consistent>
1

> <s_lp_Variant>
AV-unprocessed.smi:757-1

> <Gold.Version>
5.8.1

> <Gold.Id.Protein>
6NUR|6NUR_protein|mol2

> <Gold.PLP.Fitness>
42.8476

> <Gold.PLP.PLP>
-38.6163

> <Gold.PLP.part.hbond>
-2.0757

> <Gold.PLP.part.metal>
0.0000

> <Gold.PLP.part.buried>
-4.6832

> <Gold.PLP.part.nonpolar>
-32.4272

> <Gold.PLP.part.repulsive>
0.3782

> <Gold.PLP.ligand.clash>
0.0000

> <Gold.PLP.ligand.torsion>
0.7219

> <Gold.PLP.Chemscore.Hbond>
1.8800

> <Gold.PLP.Chemscore.CHOScore>
0.0000

> <Gold.PLP.Chemscore.Metal>
0.0000

> <Gold.Chemscore.Hbonds>
donor molecule, donor type, donor heavy atom, donor atom, acceptor molecule, acceptor atom, score
      L1  H     9    33       P1  7948  0.86
      L1  H    12    34       P1  7948  1.00

> <Gold.PLP.Chemscore.Internal.Correction>
0.0352

> <Gold.Rescore>
     Score         DG    S(hbond)    S(metal)    S(lipo)     H(rot)  DE(clash)    DE(int)     intcor
     14.68     -16.51       1.43        0.00      88.19       1.59       0.02       1.82       ----

> <Gold.Chemscore.Fitness>
14.6774

> <Gold.Chemscore.DG>
-16.5124

> <Gold.Chemscore.ZeroCoef>
-5.4800

> <Gold.Chemscore.Hbond>
1.4307

> <Gold.Chemscore.Metal>
0.0000

> <Gold.Chemscore.Lipo>
88.1950

> <Gold.Chemscore.Internal_Hbond>
0.0000

> <Gold.Chemscore.DEClash>
0.0170

> <Gold.Chemscore.DEInternal>
1.8180

> <Gold.Chemscore.Rot>
1.5879

> <Gold.Chemscore.Internal.Correction>
   9.000000E+99

> <Gold.Chemscore.Hbonds>
donor molecule, donor type, donor heavy atom, donor atom, acceptor molecule, acceptor atom, score
      L1  H     9    33       P1  7948  0.70
      L1  H    12    34       P1  7948  0.25

> <Gold.Chemscore.Hbond.Weighted>
-4.7785

> <Gold.Chemscore.Metal.Weighted>
-0.0000

> <Gold.Chemscore.Lipo.Weighted>
-10.3188

> <Gold.Chemscore.Internal_Hbond.Weighted>
0.0000

> <Gold.Chemscore.DEClash.Weighted>
0.0170

> <Gold.Chemscore.DEInternal.Weighted>
1.8180

> <Gold.Chemscore.Rot.Weighted>
4.0649

> <Gold.Chemscore.Internal.Correction.Weighted>
   9.000000E+99

> <Gold.Protein.RotatedTorsions>
[ 6907 6896 6895 6894 ] final  105.41 input  -60.11 | X-H torsion
[ 7974 7965 7964 7962 ] final -162.65 input  175.53 | X-H torsion
[ 8008 7997 7996 7995 ] final  154.13 input   59.86 | X-H torsion
[ 10167 10162 10161 10158 ] final  -21.88 input  -65.29 | X-H torsion
[ 10718 10713 10712 10709 ] final   -9.92 input   66.30 | X-H torsion
[ 10763 10752 10751 10750 ] final  144.27 input  -60.55 | X-H torsion
[ 11005 11000 10999 10996 ] final  -55.38 input  -57.11 | X-H torsion

> <Gold.Protein.ActiveResidues>
 VAL166  LYS551  ARG553  GLY616  TRP617  ASP618  TYR619  PRO620  LYS621  CYS622 
 ASP623  PHE694  ASN695  SER759  ASP760  ASP761  ALA762  ILE779  LEU786  VAL792 
 PHE793  MET794  SER795  GLU796  ALA797  LYS798  CYS799  TRP800  GLU811  SER814 

> <Gold.Protein.RotatedAtoms>
  152.5231  133.9532  159.7681 H   0  0  0  0  0  0  0  0  0  0  0  0  # atno 6907 bound_to 6896
  150.9838  133.6210  159.2725 H   0  0  0  0  0  0  0  0  0  0  0  0  # atno 6908 bound_to 6896
  151.3378  135.0862  159.9413 H   0  0  0  0  0  0  0  0  0  0  0  0  # atno 6909 bound_to 6896
  144.7350  140.3221  143.6169 H   0  0  0  0  0  0  0  0  0  0  0  0  # atno 7974 bound_to 7965
  156.2547  140.1975  156.6598 H   0  0  0  0  0  0  0  0  0  0  0  0  # atno 8008 bound_to 7997
  154.6473  140.0576  156.9940 H   0  0  0  0  0  0  0  0  0  0  0  0  # atno 8009 bound_to 7997
  155.1472  140.3248  155.4442 H   0  0  0  0  0  0  0  0  0  0  0  0  # atno 8010 bound_to 7997
  140.7284  143.4587  151.0411 H   0  0  0  0  0  0  0  0  0  0  0  0  # atno 10167 bound_to 10162
  156.6810  130.5037  149.5971 H   0  0  0  0  0  0  0  0  0  0  0  0  # atno 10718 bound_to 10713
  153.9862  135.2936  155.3416 H   0  0  0  0  0  0  0  0  0  0  0  0  # atno 10763 bound_to 10752
  154.7241  135.5096  153.8861 H   0  0  0  0  0  0  0  0  0  0  0  0  # atno 10764 bound_to 10752
  153.0831  135.6685  154.0119 H   0  0  0  0  0  0  0  0  0  0  0  0  # atno 10765 bound_to 10752
  141.1071  133.6612  156.4461 H   0  0  0  0  0  0  0  0  0  0  0  0  # atno 11005 bound_to 11000
  145.7558  139.1808  143.2295 LP  0  0  0  0  0  0  0  0  0  0  0  0  # atno 17320 bound_to 7965
  146.1025  140.7526  142.9542 LP  0  0  0  0  0  0  0  0  0  0  0  0  # atno 17321 bound_to 7965
  139.8269  143.7743  152.3179 LP  0  0  0  0  0  0  0  0  0  0  0  0  # atno 17342 bound_to 10162
  139.7845  144.7432  151.0041 LP  0  0  0  0  0  0  0  0  0  0  0  0  # atno 17343 bound_to 10162
  156.1867  130.6534  151.1015 LP  0  0  0  0  0  0  0  0  0  0  0  0  # atno 17370 bound_to 10713
  157.7043  131.0763  150.6717 LP  0  0  0  0  0  0  0  0  0  0  0  0  # atno 17371 bound_to 10713
  140.4873  134.6608  157.5196 LP  0  0  0  0  0  0  0  0  0  0  0  0  # atno 17394 bound_to 11000
  139.9946  134.6931  155.9631 LP  0  0  0  0  0  0  0  0  0  0  0  0  # atno 17395 bound_to 11000

$$$$
