AV-unprocessed.smi:1311|AV-procd|sdf|5447|dock8
  -GOLD-   22720 5 13D 1   1.00000     0.00000
 Structure written by MMmdl.
 46 47  0  0  0  0  0  0  0  0  2 V2000
  149.1776  132.3047  153.7223 C   0  0  0  0  0  0  0  0  0  0  0  0
  148.9124  133.7592  154.1425 C   0  0  0  0  0  0  0  0  0  0  0  0
  147.4354  134.2246  153.9999 C   0  0  1  0  0  0  0  0  0  0  0  0
  147.2452  135.6035  154.6980 C   0  0  0  0  0  0  0  0  0  0  0  0
  148.1685  136.6403  154.2492 N   0  0  0  0  0  0  0  0  0  0  0  0
  148.9211  137.4058  155.0565 C   0  0  0  0  0  0  0  0  0  0  0  0
  148.9058  137.3056  156.2826 O   0  0  0  0  0  0  0  0  0  0  0  0
  149.8007  138.4675  154.3896 C   0  0  0  0  0  0  0  0  0  0  0  0
  150.7188  139.1205  155.3936 C   0  0  0  0  0  0  0  0  0  0  0  0
  150.3636  139.8534  156.5631 C   0  0  0  0  0  0  0  0  0  0  0  0
  148.9953  140.1672  157.0963 C   0  0  0  0  0  0  0  0  0  0  0  0
  151.4290  140.2841  157.2172 N   0  0  0  0  0  0  0  0  0  0  0  0
  152.5347  139.8403  156.4857 O   0  0  0  0  0  0  0  0  0  0  0  0
  152.0864  139.1533  155.4047 C   0  0  0  0  0  0  0  0  0  0  0  0
  153.1231  138.5883  154.4930 C   0  0  0  0  0  0  0  0  0  0  0  0
  147.0051  134.2818  152.5631 N   0  3  0  0  0  0  0  0  0  0  0  0
  146.9454  132.9938  151.8355 C   0  0  0  0  0  0  0  0  0  0  0  0
  146.0997  133.2725  150.5995 C   0  0  0  0  0  0  0  0  0  0  0  0
  145.0380  134.2311  151.1214 C   0  0  0  0  0  0  0  0  0  0  0  0
  145.7074  134.9570  152.2962 C   0  0  0  0  0  0  0  0  0  0  0  0
  150.2494  132.1095  153.6814 H   0  0  0  0  0  0  0  0  0  0  0  0
  148.7682  132.0978  152.7330 H   0  0  0  0  0  0  0  0  0  0  0  0
  148.7538  131.5865  154.4233 H   0  0  0  0  0  0  0  0  0  0  0  0
  149.2563  133.9112  155.1665 H   0  0  0  0  0  0  0  0  0  0  0  0
  149.5623  134.3637  153.5113 H   0  0  0  0  0  0  0  0  0  0  0  0
  146.8179  133.4776  154.5011 H   0  0  0  0  0  0  0  0  0  0  0  0
  146.2380  135.9902  154.5488 H   0  0  0  0  0  0  0  0  0  0  0  0
  147.3615  135.4900  155.7764 H   0  0  0  0  0  0  0  0  0  0  0  0
  148.2537  136.7801  153.2526 H   0  0  0  0  0  0  0  0  0  0  0  0
  150.3633  137.9899  153.5869 H   0  0  0  0  0  0  0  0  0  0  0  0
  149.1612  139.2083  153.9078 H   0  0  0  0  0  0  0  0  0  0  0  0
  148.2483  139.4768  156.7047 H   0  0  0  0  0  0  0  0  0  0  0  0
  148.6914  141.1770  156.8197 H   0  0  0  0  0  0  0  0  0  0  0  0
  148.9671  140.0965  158.1841 H   0  0  0  0  0  0  0  0  0  0  0  0
  152.8280  138.7036  153.4500 H   0  0  0  0  0  0  0  0  0  0  0  0
  153.2689  137.5260  154.6882 H   0  0  0  0  0  0  0  0  0  0  0  0
  154.0806  139.0918  154.6280 H   0  0  0  0  0  0  0  0  0  0  0  0
  147.9363  132.6252  151.5683 H   0  0  0  0  0  0  0  0  0  0  0  0
  146.4501  132.2432  152.4540 H   0  0  0  0  0  0  0  0  0  0  0  0
  146.7056  133.7669  149.8388 H   0  0  0  0  0  0  0  0  0  0  0  0
  145.6775  132.3681  150.1602 H   0  0  0  0  0  0  0  0  0  0  0  0
  144.6857  134.9175  150.3506 H   0  0  0  0  0  0  0  0  0  0  0  0
  144.1761  133.6672  151.4806 H   0  0  0  0  0  0  0  0  0  0  0  0
  145.0488  134.9159  153.1646 H   0  0  0  0  0  0  0  0  0  0  0  0
  145.8840  136.0060  152.0569 H   0  0  0  0  0  0  0  0  0  0  0  0
  147.7053  134.8226  152.0757 H   0  0  0  0  0  0  0  0  0  0  0  0
  1  2  1  0  0  0  0
  1 21  1  0  0  0  0
  1 22  1  0  0  0  0
  1 23  1  0  0  0  0
  2  3  1  0  0  0  0
  2 24  1  0  0  0  0
  2 25  1  0  0  0  0
  3  4  1  0  0  0  0
  3 16  1  0  0  0  0
  3 26  1  0  0  0  0
  4  5  1  0  0  0  0
  4 27  1  0  0  0  0
  4 28  1  0  0  0  0
  5  6  1  0  0  0  0
  5 29  1  0  0  0  0
  6  7  2  0  0  0  0
  6  8  1  0  0  0  0
  8  9  1  0  0  0  0
  8 30  1  0  0  0  0
  8 31  1  0  0  0  0
  9 14  2  0  0  0  0
  9 10  1  0  0  0  0
 10 11  1  0  0  0  0
 10 12  2  0  0  0  0
 11 32  1  0  0  0  0
 11 33  1  0  0  0  0
 11 34  1  0  0  0  0
 12 13  1  0  0  0  0
 13 14  1  0  0  0  0
 14 15  1  0  0  0  0
 15 35  1  0  0  0  0
 15 36  1  0  0  0  0
 15 37  1  0  0  0  0
 16 20  1  0  0  0  0
 16 17  1  0  0  0  0
 16 46  1  0  0  0  0
 17 18  1  0  0  0  0
 17 38  1  0  0  0  0
 17 39  1  0  0  0  0
 18 19  1  0  0  0  0
 18 40  1  0  0  0  0
 18 41  1  0  0  0  0
 19 20  1  0  0  0  0
 19 42  1  0  0  0  0
 19 43  1  0  0  0  0
 20 44  1  0  0  0  0
 20 45  1  0  0  0  0
M  CHG  1  16   1
M  END
> <s_m_source_file>
AV-unprocessed.smi

> <i_m_source_file_index>
1311

> <i_lp_mmshare_version>
43012

> <i_f3d_flags>
0

> <s_epik_input>
W0NIMl0xW0NIMl1bQ0gyXVtDSDJdTjFbQ0BIXShbQ0gyXVtDSDNdKVtDSDJdW05IXUMoPU8pW0NIMl1jMmMoW0NIM10pbm9jMltDSDNd

> <s_epik_cmdline>
J2VwaWtfcHl0aG9uJywgJy1waCcsICc3LjAnLCAnLXRuJywgJzgnLCAnLW1hJywgJzIwMCcsICctbWV0YWxfYmluZGluZycsICctaW1hZScsICc8aW5maWxlLm1hZT4nLCAnLW9tYWUnLCAnPG91dGZpbGUubWFlPic=

> <r_epik_Ionization_Penalty>
0.00366311

> <r_epik_Ionization_Penalty_Charging>
0.00366302

> <r_epik_Ionization_Penalty_Neutral>
9.25085e-08

> <r_epik_State_Penalty>
0.00260703

> <r_epik_Charging_Adjusted_Penalty>
0.00627005

> <i_epik_Tot_Q>
1

> <i_epik_Tot_abs_Q>
1

> <r_epik_Metal_State_Penalty>
-0

> <b_epik_Metal_Only>
0

> <s_lp_Force_Field>
OPLS_2005

> <r_lp_Energy>
34.8572

> <b_lp_Chiralities_Consistent>
1

> <s_lp_Variant>
AV-unprocessed.smi:1311-2

> <Gold.Version>
5.8.1

> <Gold.Id.Protein>
6NUR|6NUR_protein|mol2

> <Gold.PLP.Fitness>
43.6305

> <Gold.PLP.PLP>
-32.2354

> <Gold.PLP.part.hbond>
-2.9295

> <Gold.PLP.part.metal>
0.0000

> <Gold.PLP.part.buried>
-1.9658

> <Gold.PLP.part.nonpolar>
-26.8154

> <Gold.PLP.part.repulsive>
0.0302

> <Gold.PLP.ligand.clash>
0.0000

> <Gold.PLP.ligand.torsion>
0.2869

> <Gold.PLP.Chemscore.Hbond>
3.9440

> <Gold.PLP.Chemscore.CHOScore>
0.0000

> <Gold.PLP.Chemscore.Metal>
0.0000

> <Gold.Chemscore.Hbonds>
donor molecule, donor type, donor heavy atom, donor atom, acceptor molecule, acceptor atom, score
      L1  H     5    29       P1  7948  0.90
      L1  H    16    46       P1  7948  2.00
      P1  H  7997  8010       L1    13  1.00

> <Gold.PLP.Chemscore.Internal.Correction>
0.1368

> <Gold.Rescore>
     Score         DG    S(hbond)    S(metal)    S(lipo)     H(rot)  DE(clash)    DE(int)     intcor
     17.93     -19.20       2.80        0.00      76.74       1.80       0.24       1.04       ----

> <Gold.Chemscore.Fitness>
17.9277

> <Gold.Chemscore.DG>
-19.2027

> <Gold.Chemscore.ZeroCoef>
-5.4800

> <Gold.Chemscore.Hbond>
2.8002

> <Gold.Chemscore.Metal>
0.0000

> <Gold.Chemscore.Lipo>
76.7440

> <Gold.Chemscore.Internal_Hbond>
0.0000

> <Gold.Chemscore.DEClash>
0.2386

> <Gold.Chemscore.DEInternal>
1.0364

> <Gold.Chemscore.Rot>
1.8004

> <Gold.Chemscore.Internal.Correction>
   9.000000E+99

> <Gold.Chemscore.Hbonds>
donor molecule, donor type, donor heavy atom, donor atom, acceptor molecule, acceptor atom, score
      L1  H     5    29       P1  7948  0.88
      L1  H    16    46       P1  7948  0.69
      P1  H  7997  8010       L1    13  0.65

> <Gold.Chemscore.Hbond.Weighted>
-9.3526

> <Gold.Chemscore.Metal.Weighted>
-0.0000

> <Gold.Chemscore.Lipo.Weighted>
-8.9790

> <Gold.Chemscore.Internal_Hbond.Weighted>
0.0000

> <Gold.Chemscore.DEClash.Weighted>
0.2386

> <Gold.Chemscore.DEInternal.Weighted>
1.0364

> <Gold.Chemscore.Rot.Weighted>
4.6090

> <Gold.Chemscore.Internal.Correction.Weighted>
   9.000000E+99

> <Gold.Protein.RotatedTorsions>
[ 6907 6896 6895 6894 ] final  -48.86 input  -60.11 | X-H torsion
[ 7974 7965 7964 7962 ] final  -77.48 input  175.53 | X-H torsion
[ 8008 7997 7996 7995 ] final   81.94 input   59.86 | X-H torsion
[ 10167 10162 10161 10158 ] final -179.83 input  -65.29 | X-H torsion
[ 10718 10713 10712 10709 ] final  139.03 input   66.30 | X-H torsion
[ 10763 10752 10751 10750 ] final  170.31 input  -60.55 | X-H torsion
[ 11005 11000 10999 10996 ] final  124.00 input  -57.11 | X-H torsion

> <Gold.Protein.ActiveResidues>
 VAL166  LYS551  ARG553  GLY616  TRP617  ASP618  TYR619  PRO620  LYS621  CYS622 
 ASP623  PHE694  ASN695  SER759  ASP760  ASP761  ALA762  ILE779  LEU786  VAL792 
 PHE793  MET794  SER795  GLU796  ALA797  LYS798  CYS799  TRP800  GLU811  SER814 

> <Gold.Protein.RotatedAtoms>
  150.8863  134.8261  159.7261 H   0  0  0  0  0  0  0  0  0  0  0  0  # atno 6907 bound_to 6896
  152.4810  134.4717  159.9647 H   0  0  0  0  0  0  0  0  0  0  0  0  # atno 6908 bound_to 6896
  151.4785  133.3513  159.2870 H   0  0  0  0  0  0  0  0  0  0  0  0  # atno 6909 bound_to 6896
  145.5992  140.9412  143.1250 H   0  0  0  0  0  0  0  0  0  0  0  0  # atno 7974 bound_to 7965
  155.9039  140.3431  155.6047 H   0  0  0  0  0  0  0  0  0  0  0  0  # atno 8008 bound_to 7997
  155.7468  140.0814  157.2239 H   0  0  0  0  0  0  0  0  0  0  0  0  # atno 8009 bound_to 7997
  154.4047  140.1560  156.2665 H   0  0  0  0  0  0  0  0  0  0  0  0  # atno 8010 bound_to 7997
  139.5368  144.2473  152.0812 H   0  0  0  0  0  0  0  0  0  0  0  0  # atno 10167 bound_to 10162
  157.4189  131.1036  151.0375 H   0  0  0  0  0  0  0  0  0  0  0  0  # atno 10718 bound_to 10713
  154.3958  135.2754  155.2127 H   0  0  0  0  0  0  0  0  0  0  0  0  # atno 10763 bound_to 10752
  154.4174  135.6008  153.5992 H   0  0  0  0  0  0  0  0  0  0  0  0  # atno 10764 bound_to 10752
  152.9831  135.5964  154.4219 H   0  0  0  0  0  0  0  0  0  0  0  0  # atno 10765 bound_to 10752
  139.9338  134.9640  156.8344 H   0  0  0  0  0  0  0  0  0  0  0  0  # atno 11005 bound_to 11000
  144.7317  139.7705  143.7344 LP  0  0  0  0  0  0  0  0  0  0  0  0  # atno 17320 bound_to 7965
  146.1589  139.4696  143.0001 LP  0  0  0  0  0  0  0  0  0  0  0  0  # atno 17321 bound_to 7965
  140.1945  144.4719  150.6462 LP  0  0  0  0  0  0  0  0  0  0  0  0  # atno 17342 bound_to 10162
  140.6579  143.2243  151.5925 LP  0  0  0  0  0  0  0  0  0  0  0  0  # atno 17343 bound_to 10162
  157.1312  130.6103  149.5530 LP  0  0  0  0  0  0  0  0  0  0  0  0  # atno 17370 bound_to 10713
  155.9874  130.4913  150.7123 LP  0  0  0  0  0  0  0  0  0  0  0  0  # atno 17371 bound_to 10713
  140.6130  134.0065  155.7585 LP  0  0  0  0  0  0  0  0  0  0  0  0  # atno 17394 bound_to 11000
  141.0942  133.9870  157.3188 LP  0  0  0  0  0  0  0  0  0  0  0  0  # atno 17395 bound_to 11000

$$$$
