AV-unprocessed.smi:3330|AV-procd|sdf|12816|dock9
  -GOLD-   2272019183D 1   1.00000     0.00000
 Structure written by MMmdl.
 37 38  0  0  0  0  0  0  0  0  2 V2000
  147.6008  134.1922  155.7594 C   0  0  0  0  0  0  0  0  0  0  0  0
  148.1403  134.6785  154.4001 C   0  0  1  0  0  0  0  0  0  0  0  0
  149.4841  135.2170  154.5905 N   0  0  0  0  0  0  0  0  0  0  0  0
  149.4626  136.5475  155.1811 C   0  0  0  0  0  0  0  0  0  0  0  0
  150.5204  137.4331  154.5002 C   0  0  0  0  0  0  0  0  0  0  0  0
  151.4659  138.0016  155.4703 N   0  0  0  0  0  0  0  0  0  0  0  0
  152.1712  137.2837  156.3503 C   0  0  0  0  0  0  0  0  0  0  0  0
  152.1720  136.0620  156.5040 O   0  0  0  0  0  0  0  0  0  0  0  0
  153.0141  138.2468  157.1535 C   0  0  0  0  0  0  0  0  0  0  0  0
  152.6730  139.5214  156.5647 N   0  5  0  0  0  0  0  0  0  0  0  0
  151.7622  139.3108  155.5855 C   0  0  0  0  0  0  0  0  0  0  0  0
  151.2457  140.1664  154.8671 O   0  0  0  0  0  0  0  0  0  0  0  0
  148.2097  133.5501  153.3348 C   0  0  1  0  0  0  0  0  0  0  0  0
  148.8055  132.2407  153.8848 C   0  0  0  0  0  0  0  0  0  0  0  0
  146.9005  133.2831  152.7458 N   0  0  0  0  0  0  0  0  0  0  0  0
  146.5856  132.3929  151.7399 C   0  0  0  0  0  0  0  0  0  0  0  0
  145.2432  132.4911  151.5120 C   0  0  0  0  0  0  0  0  0  0  0  0
  144.8150  133.4829  152.4378 C   0  0  0  0  0  0  0  0  0  0  0  0
  145.8059  133.9494  153.1792 N   0  0  0  0  0  0  0  0  0  0  0  0
  146.5724  133.8419  155.6781 H   0  0  0  0  0  0  0  0  0  0  0  0
  147.5977  134.9888  156.5030 H   0  0  0  0  0  0  0  0  0  0  0  0
  148.2017  133.3726  156.1544 H   0  0  0  0  0  0  0  0  0  0  0  0
  147.4882  135.4649  154.0169 H   0  0  0  0  0  0  0  0  0  0  0  0
  149.9231  135.2927  153.6832 H   0  0  0  0  0  0  0  0  0  0  0  0
  148.4768  137.0028  155.0770 H   0  0  0  0  0  0  0  0  0  0  0  0
  149.6732  136.4728  156.2478 H   0  0  0  0  0  0  0  0  0  0  0  0
  151.0764  136.8332  153.7782 H   0  0  0  0  0  0  0  0  0  0  0  0
  150.0427  138.2195  153.9131 H   0  0  0  0  0  0  0  0  0  0  0  0
  152.7511  138.1768  158.2094 H   0  0  0  0  0  0  0  0  0  0  0  0
  154.0697  137.9950  157.0529 H   0  0  0  0  0  0  0  0  0  0  0  0
  148.8573  133.8877  152.5239 H   0  0  0  0  0  0  0  0  0  0  0  0
  149.8489  132.3624  154.1733 H   0  0  0  0  0  0  0  0  0  0  0  0
  148.7734  131.4518  153.1327 H   0  0  0  0  0  0  0  0  0  0  0  0
  148.2558  131.8885  154.7583 H   0  0  0  0  0  0  0  0  0  0  0  0
  147.3361  131.7743  151.2703 H   0  0  0  0  0  0  0  0  0  0  0  0
  144.6575  131.9447  150.7881 H   0  0  0  0  0  0  0  0  0  0  0  0
  143.8206  133.8755  152.5911 H   0  0  0  0  0  0  0  0  0  0  0  0
  1  2  1  0  0  0  0
  1 20  1  0  0  0  0
  1 21  1  0  0  0  0
  1 22  1  0  0  0  0
  2  3  1  0  0  0  0
  2 13  1  0  0  0  0
  2 23  1  0  0  0  0
  3  4  1  0  0  0  0
  3 24  1  0  0  0  0
  4  5  1  0  0  0  0
  4 25  1  0  0  0  0
  4 26  1  0  0  0  0
  5  6  1  0  0  0  0
  5 27  1  0  0  0  0
  5 28  1  0  0  0  0
  6 11  1  0  0  0  0
  6  7  1  0  0  0  0
  7  8  2  0  0  0  0
  7  9  1  0  0  0  0
  9 10  1  0  0  0  0
  9 29  1  0  0  0  0
  9 30  1  0  0  0  0
 10 11  1  0  0  0  0
 11 12  2  0  0  0  0
 13 14  1  0  0  0  0
 13 15  1  0  0  0  0
 13 31  1  0  0  0  0
 14 32  1  0  0  0  0
 14 33  1  0  0  0  0
 14 34  1  0  0  0  0
 15 19  1  0  0  0  0
 15 16  1  0  0  0  0
 16 17  2  0  0  0  0
 16 35  1  0  0  0  0
 17 18  1  0  0  0  0
 17 36  1  0  0  0  0
 18 19  2  0  0  0  0
 18 37  1  0  0  0  0
M  CHG  1  10  -1
M  END
> <s_m_source_file>
AV-unprocessed.smi

> <i_m_source_file_index>
3330

> <i_lp_mmshare_version>
43012

> <i_f3d_flags>
0

> <s_epik_input>
bjFbY0hdW2NIXVtjSF1uMVtDQEBIXShbQ0gzXSlbQ0BIXShbQ0gzXSlbTkhdW0NIMl1bQ0gyXU4yQyg9TylbQ0gyXVtOSF1DMj1P

> <s_epik_cmdline>
J2VwaWtfcHl0aG9uJywgJy1waCcsICc3LjAnLCAnLXRuJywgJzgnLCAnLW1hJywgJzIwMCcsICctbWV0YWxfYmluZGluZycsICctaW1hZScsICc8aW5maWxlLm1hZT4nLCAnLW9tYWUnLCAnPG91dGZpbGUubWFlPic=

> <r_lp_tautomer_probability>
1

> <r_epik_Ionization_Penalty>
8.77477

> <r_epik_Ionization_Penalty_Charging>
6.28461

> <r_epik_Ionization_Penalty_Neutral>
2.49016

> <r_epik_State_Penalty>
8.73376

> <r_epik_Charging_Adjusted_Penalty>
15.0184

> <i_epik_Tot_Q>
-1

> <i_epik_Tot_abs_Q>
1

> <r_epik_Metal_State_Penalty>
4.73175

> <b_epik_Metal_Only>
1

> <s_lp_Force_Field>
OPLS_2005

> <r_lp_Energy>
23.0712

> <b_lp_Chiralities_Consistent>
1

> <s_lp_Variant>
AV-unprocessed.smi:3330-16

> <Gold.Version>
5.8.1

> <Gold.Id.Protein>
6NUR|6NUR_protein|mol2

> <Gold.PLP.Fitness>
38.9584

> <Gold.PLP.PLP>
-25.7817

> <Gold.PLP.part.hbond>
-4.0000

> <Gold.PLP.part.metal>
0.0000

> <Gold.PLP.part.buried>
-1.2257

> <Gold.PLP.part.nonpolar>
-20.7098

> <Gold.PLP.part.repulsive>
0.1499

> <Gold.PLP.ligand.clash>
0.0000

> <Gold.PLP.ligand.torsion>
1.1828

> <Gold.PLP.Chemscore.Hbond>
4.1512

> <Gold.PLP.Chemscore.CHOScore>
1.0000

> <Gold.PLP.Chemscore.Metal>
0.0000

> <Gold.Chemscore.Hbonds>
donor molecule, donor type, donor heavy atom, donor atom, acceptor molecule, acceptor atom, score
      L1  H     3    24       P1  7948  0.11
      P1  H  7989  7998       L1    12  1.00
      P1  H  7997  8010       L1    10  1.70
      P1  H 10752 10765       L1     8  1.00
      L1  C    16    35       P1 10747  1.00

> <Gold.PLP.Chemscore.Internal.Correction>
0.0888

> <Gold.Rescore>
     Score         DG    S(hbond)    S(metal)    S(lipo)     H(rot)  DE(clash)    DE(int)     intcor
      9.83     -10.98       1.86        0.00      48.93       2.52       0.05       1.10       ----

> <Gold.Chemscore.Fitness>
9.8311

> <Gold.Chemscore.DG>
-10.9820

> <Gold.Chemscore.ZeroCoef>
-5.4800

> <Gold.Chemscore.Hbond>
1.8619

> <Gold.Chemscore.Metal>
0.0000

> <Gold.Chemscore.Lipo>
48.9256

> <Gold.Chemscore.Internal_Hbond>
0.0000

> <Gold.Chemscore.DEClash>
0.0515

> <Gold.Chemscore.DEInternal>
1.0994

> <Gold.Chemscore.Rot>
2.5160

> <Gold.Chemscore.Internal.Correction>
   9.000000E+99

> <Gold.Chemscore.Hbonds>
donor molecule, donor type, donor heavy atom, donor atom, acceptor molecule, acceptor atom, score
      P1  H  7989  7998       L1    12  0.97
      P1  H  7997  8010       L1    10  0.15
      P1  H 10752 10765       L1     8  0.40

> <Gold.Chemscore.Hbond.Weighted>
-6.2188

> <Gold.Chemscore.Metal.Weighted>
-0.0000

> <Gold.Chemscore.Lipo.Weighted>
-5.7243

> <Gold.Chemscore.Internal_Hbond.Weighted>
0.0000

> <Gold.Chemscore.DEClash.Weighted>
0.0515

> <Gold.Chemscore.DEInternal.Weighted>
1.0994

> <Gold.Chemscore.Rot.Weighted>
6.4410

> <Gold.Chemscore.Internal.Correction.Weighted>
   9.000000E+99

> <Gold.Protein.RotatedTorsions>
[ 6907 6896 6895 6894 ] final   33.83 input  -60.11 | X-H torsion
[ 7974 7965 7964 7962 ] final  -36.12 input  175.53 | X-H torsion
[ 8008 7997 7996 7995 ] final   78.29 input   59.86 | X-H torsion
[ 10167 10162 10161 10158 ] final  130.38 input  -65.29 | X-H torsion
[ 10718 10713 10712 10709 ] final -112.03 input   66.30 | X-H torsion
[ 10763 10752 10751 10750 ] final -150.60 input  -60.55 | X-H torsion
[ 11005 11000 10999 10996 ] final -127.39 input  -57.11 | X-H torsion

> <Gold.Protein.ActiveResidues>
 VAL166  LYS551  ARG553  GLY616  TRP617  ASP618  TYR619  PRO620  LYS621  CYS622 
 ASP623  PHE694  ASN695  SER759  ASP760  ASP761  ALA762  ILE779  LEU786  VAL792 
 PHE793  MET794  SER795  GLU796  ALA797  LYS798  CYS799  TRP800  GLU811  SER814 

> <Gold.Protein.RotatedAtoms>
  152.0939  134.9388  160.0571 H   0  0  0  0  0  0  0  0  0  0  0  0  # atno 6907 bound_to 6896
  152.0629  133.4065  159.4434 H   0  0  0  0  0  0  0  0  0  0  0  0  # atno 6908 bound_to 6896
  150.6837  134.3100  159.4786 H   0  0  0  0  0  0  0  0  0  0  0  0  # atno 6909 bound_to 6896
  146.0689  140.6240  142.8962 H   0  0  0  0  0  0  0  0  0  0  0  0  # atno 7974 bound_to 7965
  155.8537  140.3457  155.5710 H   0  0  0  0  0  0  0  0  0  0  0  0  # atno 8008 bound_to 7997
  155.8010  140.0885  157.1977 H   0  0  0  0  0  0  0  0  0  0  0  0  # atno 8009 bound_to 7997
  154.4008  140.1465  156.3261 H   0  0  0  0  0  0  0  0  0  0  0  0  # atno 8010 bound_to 7997
  139.5433  144.6750  151.4555 H   0  0  0  0  0  0  0  0  0  0  0  0  # atno 10167 bound_to 10162
  156.0681  130.5898  150.8453 H   0  0  0  0  0  0  0  0  0  0  0  0  # atno 10718 bound_to 10713
  154.8109  135.3280  154.7308 H   0  0  0  0  0  0  0  0  0  0  0  0  # atno 10763 bound_to 10752
  153.7957  135.6907  153.4868 H   0  0  0  0  0  0  0  0  0  0  0  0  # atno 10764 bound_to 10752
  153.1887  135.4559  155.0068 H   0  0  0  0  0  0  0  0  0  0  0  0  # atno 10765 bound_to 10752
  140.9604  134.0945  157.3974 H   0  0  0  0  0  0  0  0  0  0  0  0  # atno 11005 bound_to 11000
  144.7219  140.4401  143.7002 LP  0  0  0  0  0  0  0  0  0  0  0  0  # atno 17320 bound_to 7965
  145.6428  139.1552  143.2906 LP  0  0  0  0  0  0  0  0  0  0  0  0  # atno 17321 bound_to 7965
  140.6671  143.8374  150.6955 LP  0  0  0  0  0  0  0  0  0  0  0  0  # atno 17342 bound_to 10162
  140.1787  143.4133  152.1949 LP  0  0  0  0  0  0  0  0  0  0  0  0  # atno 17343 bound_to 10162
  157.5736  131.0946  150.9380 LP  0  0  0  0  0  0  0  0  0  0  0  0  # atno 17370 bound_to 10713
  156.9591  130.5448  149.5285 LP  0  0  0  0  0  0  0  0  0  0  0  0  # atno 17371 bound_to 10713
  139.8876  135.0091  156.6570 LP  0  0  0  0  0  0  0  0  0  0  0  0  # atno 17394 bound_to 11000
  140.7476  133.8924  155.8323 LP  0  0  0  0  0  0  0  0  0  0  0  0  # atno 17395 bound_to 11000

$$$$
