AV-unprocessed.smi:1285|AV-procd|sdf|5374|dock5
  -GOLD-   22720 4523D 1   1.00000     0.00000
 Structure written by MMmdl.
 47 48  0  0  0  0  0  0  0  0  2 V2000
  146.9194  132.8058  156.3841 C   0  0  0  0  0  0  0  0  0  0  0  0
  146.4451  133.1448  154.9599 C   0  0  0  0  0  0  0  0  0  0  0  0
  147.2433  134.2701  154.2307 C   0  0  2  0  0  0  0  0  0  0  0  0
  148.7369  133.8478  154.2348 C   0  0  0  0  0  0  0  0  0  0  0  0
  147.0995  135.6145  155.0116 C   0  0  0  0  0  0  0  0  0  0  0  0
  147.8090  136.7235  154.3767 N   0  0  0  0  0  0  0  0  0  0  0  0
  148.2797  137.8160  155.0000 C   0  0  0  0  0  0  0  0  0  0  0  0
  148.0820  138.0477  156.1933 O   0  0  0  0  0  0  0  0  0  0  0  0
  149.1300  138.7660  154.1410 C   0  0  1  0  0  0  0  0  0  0  0  0
  148.6981  140.2415  154.2610 C   0  0  0  0  0  0  0  0  0  0  0  0
  150.5435  138.5857  154.4519 N   0  0  0  0  0  0  0  0  0  0  0  0
  151.2998  137.4869  154.4033 C   0  0  0  0  0  0  0  0  0  0  0  0
  152.5461  137.6721  154.8145 N   0  0  0  0  0  0  0  0  0  0  0  0
  152.4880  139.0004  155.1281 C   0  0  0  0  0  0  0  0  0  0  0  0
  151.3092  139.5933  154.9410 N   0  0  0  0  0  0  0  0  0  0  0  0
  146.7437  134.4200  152.8149 N   0  3  0  0  0  0  0  0  0  0  0  0
  146.7291  133.1753  151.9944 C   0  0  0  0  0  0  0  0  0  0  0  0
  146.4114  133.5026  150.5269 C   0  0  0  0  0  0  0  0  0  0  0  0
  145.1528  134.1569  150.4515 O   0  0  0  0  0  0  0  0  0  0  0  0
  145.1578  135.3895  151.1579 C   0  0  0  0  0  0  0  0  0  0  0  0
  145.4489  135.1393  152.6480 C   0  0  0  0  0  0  0  0  0  0  0  0
  146.3026  132.0139  156.8092 H   0  0  0  0  0  0  0  0  0  0  0  0
  146.8450  133.6640  157.0514 H   0  0  0  0  0  0  0  0  0  0  0  0
  147.9511  132.4549  156.3992 H   0  0  0  0  0  0  0  0  0  0  0  0
  146.4378  132.2337  154.3622 H   0  0  0  0  0  0  0  0  0  0  0  0
  145.3948  133.4279  155.0320 H   0  0  0  0  0  0  0  0  0  0  0  0
  149.0601  133.5154  155.2223 H   0  0  0  0  0  0  0  0  0  0  0  0
  149.3967  134.6711  153.9604 H   0  0  0  0  0  0  0  0  0  0  0  0
  148.9288  133.0274  153.5431 H   0  0  0  0  0  0  0  0  0  0  0  0
  146.0530  135.9120  155.0694 H   0  0  0  0  0  0  0  0  0  0  0  0
  147.4353  135.5090  156.0433 H   0  0  0  0  0  0  0  0  0  0  0  0
  148.0130  136.6227  153.3929 H   0  0  0  0  0  0  0  0  0  0  0  0
  148.9887  138.4699  153.1003 H   0  0  0  0  0  0  0  0  0  0  0  0
  147.6565  140.3725  153.9659 H   0  0  0  0  0  0  0  0  0  0  0  0
  149.3021  140.8756  153.6112 H   0  0  0  0  0  0  0  0  0  0  0  0
  148.8037  140.6179  155.2793 H   0  0  0  0  0  0  0  0  0  0  0  0
  150.9280  136.5290  154.0704 H   0  0  0  0  0  0  0  0  0  0  0  0
  153.3373  139.5446  155.5141 H   0  0  0  0  0  0  0  0  0  0  0  0
  147.6876  132.6613  152.0251 H   0  0  0  0  0  0  0  0  0  0  0  0
  145.9793  132.4801  152.3719 H   0  0  0  0  0  0  0  0  0  0  0  0
  147.1912  134.1267  150.0869 H   0  0  0  0  0  0  0  0  0  0  0  0
  146.3674  132.5858  149.9388 H   0  0  0  0  0  0  0  0  0  0  0  0
  145.8956  136.0671  150.7251 H   0  0  0  0  0  0  0  0  0  0  0  0
  144.1837  135.8646  151.0412 H   0  0  0  0  0  0  0  0  0  0  0  0
  144.6358  134.5592  153.0853 H   0  0  0  0  0  0  0  0  0  0  0  0
  145.4587  136.1068  153.1465 H   0  0  0  0  0  0  0  0  0  0  0  0
  147.4290  135.0167  152.3733 H   0  0  0  0  0  0  0  0  0  0  0  0
  1  2  1  0  0  0  0
  1 22  1  0  0  0  0
  1 23  1  0  0  0  0
  1 24  1  0  0  0  0
  2  3  1  0  0  0  0
  2 25  1  0  0  0  0
  2 26  1  0  0  0  0
  3  4  1  0  0  0  0
  3  5  1  0  0  0  0
  3 16  1  0  0  0  0
  4 27  1  0  0  0  0
  4 28  1  0  0  0  0
  4 29  1  0  0  0  0
  5  6  1  0  0  0  0
  5 30  1  0  0  0  0
  5 31  1  0  0  0  0
  6  7  1  0  0  0  0
  6 32  1  0  0  0  0
  7  8  2  0  0  0  0
  7  9  1  0  0  0  0
  9 10  1  0  0  0  0
  9 11  1  0  0  0  0
  9 33  1  0  0  0  0
 10 34  1  0  0  0  0
 10 35  1  0  0  0  0
 10 36  1  0  0  0  0
 11 15  1  0  0  0  0
 11 12  1  0  0  0  0
 12 13  2  0  0  0  0
 12 37  1  0  0  0  0
 13 14  1  0  0  0  0
 14 15  2  0  0  0  0
 14 38  1  0  0  0  0
 16 21  1  0  0  0  0
 16 17  1  0  0  0  0
 16 47  1  0  0  0  0
 17 18  1  0  0  0  0
 17 39  1  0  0  0  0
 17 40  1  0  0  0  0
 18 19  1  0  0  0  0
 18 41  1  0  0  0  0
 18 42  1  0  0  0  0
 19 20  1  0  0  0  0
 20 21  1  0  0  0  0
 20 43  1  0  0  0  0
 20 44  1  0  0  0  0
 21 45  1  0  0  0  0
 21 46  1  0  0  0  0
M  CHG  1  16   1
M  END
> <s_m_source_file>
AV-unprocessed.smi

> <i_m_source_file_index>
1285

> <i_lp_mmshare_version>
43012

> <i_f3d_flags>
0

> <s_epik_input>
W0NIMl0xW0NIMl1PW0NIMl1bQ0gyXU4xW0NAQF0oW0NIM10pKFtDSDJdW0NIM10pW0NIMl1bTkhdQyg9TylbQ0BIXShbQ0gzXSluMltjSF1uW2NIXW4y

> <s_epik_cmdline>
J2VwaWtfcHl0aG9uJywgJy1waCcsICc3LjAnLCAnLXRuJywgJzgnLCAnLW1hJywgJzIwMCcsICctbWV0YWxfYmluZGluZycsICctaW1hZScsICc8aW5maWxlLm1hZT4nLCAnLW9tYWUnLCAnPG91dGZpbGUubWFlPic=

> <r_lp_tautomer_probability>
1

> <r_epik_Ionization_Penalty>
0.569304

> <r_epik_Ionization_Penalty_Charging>
0.569295

> <r_epik_Ionization_Penalty_Neutral>
8.22697e-06

> <r_epik_State_Penalty>
0.581114

> <r_epik_Charging_Adjusted_Penalty>
1.15041

> <i_epik_Tot_Q>
1

> <i_epik_Tot_abs_Q>
1

> <r_epik_Metal_State_Penalty>
0.581117

> <b_epik_Metal_Only>
0

> <s_lp_Force_Field>
OPLS_2005

> <r_lp_Energy>
34.4039

> <b_lp_Chiralities_Consistent>
1

> <s_lp_Variant>
AV-unprocessed.smi:1285-8

> <Gold.Version>
5.8.1

> <Gold.Id.Protein>
6NUR|6NUR_protein|mol2

> <Gold.PLP.Fitness>
45.6491

> <Gold.PLP.PLP>
-31.7751

> <Gold.PLP.part.hbond>
-4.0000

> <Gold.PLP.part.metal>
0.0000

> <Gold.PLP.part.buried>
-3.3522

> <Gold.PLP.part.nonpolar>
-24.6653

> <Gold.PLP.part.repulsive>
0.5401

> <Gold.PLP.ligand.clash>
0.0000

> <Gold.PLP.ligand.torsion>
0.7367

> <Gold.PLP.Chemscore.Hbond>
4.1854

> <Gold.PLP.Chemscore.CHOScore>
0.8119

> <Gold.PLP.Chemscore.Metal>
0.0000

> <Gold.Chemscore.Hbonds>
donor molecule, donor type, donor heavy atom, donor atom, acceptor molecule, acceptor atom, score
      L1  H     6    32       P1  7948  1.00
      L1  H    16    47       P1  7948  2.00
      P1  H  7989  7998       L1    15  1.00
      P1  H 10752 10763       L1    13  0.22
      L1  C    12    37       P1  7948  0.01
      L1  C    12    37       P1  7949  0.51

> <Gold.PLP.Chemscore.Internal.Correction>
0.3556

> <Gold.Rescore>
     Score         DG    S(hbond)    S(metal)    S(lipo)     H(rot)  DE(clash)    DE(int)     intcor
     12.55     -13.59       2.89        0.00      47.17       2.76       0.02       1.02       ----

> <Gold.Chemscore.Fitness>
12.5533

> <Gold.Chemscore.DG>
-13.5919

> <Gold.Chemscore.ZeroCoef>
-5.4800

> <Gold.Chemscore.Hbond>
2.8909

> <Gold.Chemscore.Metal>
0.0000

> <Gold.Chemscore.Lipo>
47.1712

> <Gold.Chemscore.Internal_Hbond>
0.0000

> <Gold.Chemscore.DEClash>
0.0185

> <Gold.Chemscore.DEInternal>
1.0200

> <Gold.Chemscore.Rot>
2.7589

> <Gold.Chemscore.Internal.Correction>
   9.000000E+99

> <Gold.Chemscore.Hbonds>
donor molecule, donor type, donor heavy atom, donor atom, acceptor molecule, acceptor atom, score
      L1  H     6    32       P1  7948  0.99
      L1  H    16    47       P1  7948  0.96
      P1  H  7989  7998       L1    15  0.29
      P1  H 10752 10763       L1    13  0.01

> <Gold.Chemscore.Hbond.Weighted>
-9.6555

> <Gold.Chemscore.Metal.Weighted>
-0.0000

> <Gold.Chemscore.Lipo.Weighted>
-5.5190

> <Gold.Chemscore.Internal_Hbond.Weighted>
0.0000

> <Gold.Chemscore.DEClash.Weighted>
0.0185

> <Gold.Chemscore.DEInternal.Weighted>
1.0200

> <Gold.Chemscore.Rot.Weighted>
7.0627

> <Gold.Chemscore.Internal.Correction.Weighted>
   9.000000E+99

> <Gold.Protein.RotatedTorsions>
[ 6907 6896 6895 6894 ] final -110.43 input  -60.11 | X-H torsion
[ 7974 7965 7964 7962 ] final    2.98 input  175.53 | X-H torsion
[ 8008 7997 7996 7995 ] final   -5.80 input   59.86 | X-H torsion
[ 10167 10162 10161 10158 ] final  134.38 input  -65.29 | X-H torsion
[ 10718 10713 10712 10709 ] final  -23.12 input   66.30 | X-H torsion
[ 10763 10752 10751 10750 ] final   54.85 input  -60.55 | X-H torsion
[ 11005 11000 10999 10996 ] final -147.98 input  -57.11 | X-H torsion

> <Gold.Protein.ActiveResidues>
 VAL166  LYS551  ARG553  GLY616  TRP617  ASP618  TYR619  PRO620  LYS621  CYS622 
 ASP623  PHE694  ASN695  SER759  ASP760  ASP761  ALA762  ILE779  LEU786  VAL792 
 PHE793  MET794  SER795  GLU796  ALA797  LYS798  CYS799  TRP800  GLU811  SER814 

> <Gold.Protein.RotatedAtoms>
  150.7624  133.9383  159.3448 H   0  0  0  0  0  0  0  0  0  0  0  0  # atno 6907 bound_to 6896
  151.7289  135.0877  160.0306 H   0  0  0  0  0  0  0  0  0  0  0  0  # atno 6908 bound_to 6896
  152.3602  133.6250  159.6045 H   0  0  0  0  0  0  0  0  0  0  0  0  # atno 6909 bound_to 6896
  146.2445  140.0754  142.8360 H   0  0  0  0  0  0  0  0  0  0  0  0  # atno 7974 bound_to 7965
  154.6002  140.2449  155.7802 H   0  0  0  0  0  0  0  0  0  0  0  0  # atno 8008 bound_to 7997
  156.2306  140.2968  156.0131 H   0  0  0  0  0  0  0  0  0  0  0  0  # atno 8009 bound_to 7997
  155.2223  140.0401  157.2940 H   0  0  0  0  0  0  0  0  0  0  0  0  # atno 8010 bound_to 7997
  139.5258  144.6570  151.5131 H   0  0  0  0  0  0  0  0  0  0  0  0  # atno 10167 bound_to 10162
  156.4954  130.4576  149.6731 H   0  0  0  0  0  0  0  0  0  0  0  0  # atno 10718 bound_to 10713
  152.9809  135.5731  154.4971 H   0  0  0  0  0  0  0  0  0  0  0  0  # atno 10763 bound_to 10752
  154.4497  135.2778  155.1792 H   0  0  0  0  0  0  0  0  0  0  0  0  # atno 10764 bound_to 10752
  154.3425  135.6226  153.5657 H   0  0  0  0  0  0  0  0  0  0  0  0  # atno 10765 bound_to 10752
  140.7660  134.3244  157.5088 H   0  0  0  0  0  0  0  0  0  0  0  0  # atno 11005 bound_to 11000
  145.0780  140.9201  143.4842 LP  0  0  0  0  0  0  0  0  0  0  0  0  # atno 17320 bound_to 7965
  145.0901  139.2896  143.5739 LP  0  0  0  0  0  0  0  0  0  0  0  0  # atno 17321 bound_to 7965
  140.6400  143.8907  150.6683 LP  0  0  0  0  0  0  0  0  0  0  0  0  # atno 17342 bound_to 10162
  140.2239  143.3787  152.1620 LP  0  0  0  0  0  0  0  0  0  0  0  0  # atno 17343 bound_to 10162
  156.3385  130.7369  151.2311 LP  0  0  0  0  0  0  0  0  0  0  0  0  # atno 17370 bound_to 10713
  157.7469  131.0410  150.4625 LP  0  0  0  0  0  0  0  0  0  0  0  0  # atno 17371 bound_to 10713
  139.8763  134.9231  156.3317 LP  0  0  0  0  0  0  0  0  0  0  0  0  # atno 17394 bound_to 11000
  140.9619  133.7383  156.0413 LP  0  0  0  0  0  0  0  0  0  0  0  0  # atno 17395 bound_to 11000

$$$$
