AV-unprocessed.smi:2855|AV-procd|sdf|10978|dock10
  -GOLD-   2272015433D 1   1.00000     0.00000
 Structure written by MMmdl.
 47 48  0  0  0  0  0  0  0  0  1 V2000
  147.2606  141.1638  154.1275 C   0  0  0  0  0  0  0  0  0  0  0  0
  148.7111  140.7362  154.3928 C   0  0  1  0  0  0  0  0  0  0  0  0
  149.5218  141.8704  155.0521 C   0  0  0  0  0  0  0  0  0  0  0  0
  150.9573  141.4253  155.3906 C   0  0  0  0  0  0  0  0  0  0  0  0
  150.9807  140.1818  156.3154 C   0  0  1  0  0  0  0  0  0  0  0  0
  150.4740  140.4838  157.7704 C   0  0  0  0  0  0  0  0  0  0  0  0
  150.8704  141.8950  158.2499 C   0  0  0  0  0  0  0  0  0  0  0  0
  150.9563  139.4705  158.8276 C   0  0  0  0  0  0  0  0  0  0  0  0
  150.2370  139.0551  155.5338 C   0  0  1  0  0  0  0  0  0  0  0  0
  150.3089  137.7344  156.1515 N   0  0  0  0  0  0  0  0  0  0  0  0
  150.8561  136.6419  155.5961 C   0  0  0  0  0  0  0  0  0  0  0  0
  151.3544  136.6369  154.4693 O   0  0  0  0  0  0  0  0  0  0  0  0
  150.8479  135.3767  156.4664 C   0  0  0  0  0  0  0  0  0  0  0  0
  150.3835  134.1797  155.7498 N   0  0  0  0  0  0  0  0  0  0  0  0
  149.6965  134.3087  154.5508 C   0  0  0  0  0  0  0  0  0  0  0  0
  149.2216  133.2544  153.8462 C   0  0  0  0  0  0  0  0  0  0  0  0
  149.4160  131.8929  154.3328 C   0  0  0  0  0  0  0  0  0  0  0  0
  149.0233  130.8747  153.7676 O   0  0  0  0  0  0  0  0  0  0  0  0
  150.1101  131.8047  155.5425 N   0  0  0  0  0  0  0  0  0  0  0  0
  150.6012  132.8870  156.2745 C   0  0  0  0  0  0  0  0  0  0  0  0
  151.1954  132.6969  157.3349 O   0  0  0  0  0  0  0  0  0  0  0  0
  148.7770  139.4446  155.2333 C   0  0  0  0  0  0  0  0  0  0  0  0
  150.2660  130.8815  155.9205 H   0  0  0  0  0  0  0  0  0  0  0  0
  146.7420  141.4029  155.0565 H   0  0  0  0  0  0  0  0  0  0  0  0
  146.7022  140.3715  153.6286 H   0  0  0  0  0  0  0  0  0  0  0  0
  147.2230  142.0468  153.4887 H   0  0  0  0  0  0  0  0  0  0  0  0
  149.1700  140.5232  153.4261 H   0  0  0  0  0  0  0  0  0  0  0  0
  149.5588  142.7308  154.3831 H   0  0  0  0  0  0  0  0  0  0  0  0
  149.0174  142.2141  155.9554 H   0  0  0  0  0  0  0  0  0  0  0  0
  151.4749  141.1858  154.4606 H   0  0  0  0  0  0  0  0  0  0  0  0
  151.5239  142.2544  155.8111 H   0  0  0  0  0  0  0  0  0  0  0  0
  152.0269  139.8861  156.4055 H   0  0  0  0  0  0  0  0  0  0  0  0
  149.3851  140.4512  157.7804 H   0  0  0  0  0  0  0  0  0  0  0  0
  151.9458  142.0554  158.1663 H   0  0  0  0  0  0  0  0  0  0  0  0
  150.5937  142.0528  159.2926 H   0  0  0  0  0  0  0  0  0  0  0  0
  150.3643  142.6763  157.6843 H   0  0  0  0  0  0  0  0  0  0  0  0
  152.0329  139.3091  158.7651 H   0  0  0  0  0  0  0  0  0  0  0  0
  150.4568  138.5087  158.7281 H   0  0  0  0  0  0  0  0  0  0  0  0
  150.7348  139.8136  159.8385 H   0  0  0  0  0  0  0  0  0  0  0  0
  150.7291  138.9474  154.5647 H   0  0  0  0  0  0  0  0  0  0  0  0
  149.9241  137.6481  157.0810 H   0  0  0  0  0  0  0  0  0  0  0  0
  151.8591  135.2117  156.8419 H   0  0  0  0  0  0  0  0  0  0  0  0
  150.2389  135.5572  157.3543 H   0  0  0  0  0  0  0  0  0  0  0  0
  149.5245  135.2997  154.1553 H   0  0  0  0  0  0  0  0  0  0  0  0
  148.6927  133.4193  152.9186 H   0  0  0  0  0  0  0  0  0  0  0  0
  148.2177  139.5658  156.1610 H   0  0  0  0  0  0  0  0  0  0  0  0
  148.2869  138.6369  154.6883 H   0  0  0  0  0  0  0  0  0  0  0  0
  1  2  1  0  0  0  0
  1 24  1  0  0  0  0
  1 25  1  0  0  0  0
  1 26  1  0  0  0  0
  2 22  1  0  0  0  0
  2  3  1  0  0  0  0
  2 27  1  0  0  0  0
  3  4  1  0  0  0  0
  3 28  1  0  0  0  0
  3 29  1  0  0  0  0
  4  5  1  0  0  0  0
  4 30  1  0  0  0  0
  4 31  1  0  0  0  0
  5  6  1  0  0  0  0
  5  9  1  0  0  0  0
  5 32  1  0  0  0  0
  6  7  1  0  0  0  0
  6  8  1  0  0  0  0
  6 33  1  0  0  0  0
  7 34  1  0  0  0  0
  7 35  1  0  0  0  0
  7 36  1  0  0  0  0
  8 37  1  0  0  0  0
  8 38  1  0  0  0  0
  8 39  1  0  0  0  0
  9 10  1  0  0  0  0
  9 22  1  0  0  0  0
  9 40  1  0  0  0  0
 10 11  1  0  0  0  0
 10 41  1  0  0  0  0
 11 12  2  0  0  0  0
 11 13  1  0  0  0  0
 13 14  1  0  0  0  0
 13 42  1  0  0  0  0
 13 43  1  0  0  0  0
 14 20  1  0  0  0  0
 14 15  1  0  0  0  0
 15 16  2  0  0  0  0
 15 44  1  0  0  0  0
 16 17  1  0  0  0  0
 16 45  1  0  0  0  0
 17 18  2  0  0  0  0
 17 19  1  0  0  0  0
 19 23  1  0  0  0  0
 19 20  1  0  0  0  0
 20 21  2  0  0  0  0
 22 46  1  0  0  0  0
 22 47  1  0  0  0  0
M  END
> <s_m_source_file>
AV-unprocessed.smi

> <i_m_source_file_index>
2855

> <i_lp_mmshare_version>
43012

> <i_f3d_flags>
0

> <s_epik_input>
W0NIM11bQ0BASF0xW0NIMl1bQ0gyXVtDQEBIXShbQ0hdKFtDSDNdKVtDSDNdKVtDQEhdKFtDSDJdMSlbTkhdQyg9TylbQ0gyXW4yW2NIXVtjSF1jKD1PKVtuSF1jMj1P

> <s_epik_cmdline>
J2VwaWtfcHl0aG9uJywgJy1waCcsICc3LjAnLCAnLXRuJywgJzgnLCAnLW1hJywgJzIwMCcsICctbWV0YWxfYmluZGluZycsICctaW1hZScsICc8aW5maWxlLm1hZT4nLCAnLW9tYWUnLCAnPG91dGZpbGUubWFlPic=

> <r_lp_tautomer_probability>
0.999537

> <r_epik_Ionization_Penalty>
0.00306256

> <r_epik_Ionization_Penalty_Charging>
0.00306254

> <r_epik_Ionization_Penalty_Neutral>
2.0223e-08

> <r_epik_State_Penalty>
0.0021533

> <r_epik_Charging_Adjusted_Penalty>
0.00521583

> <i_epik_Tot_Q>
0

> <i_epik_Tot_abs_Q>
0

> <r_epik_Metal_State_Penalty>
0.362116

> <b_epik_Metal_Only>
0

> <s_lp_Force_Field>
OPLS_2005

> <r_lp_Energy>
18.9466

> <b_lp_Chiralities_Consistent>
1

> <s_lp_Variant>
AV-unprocessed.smi:2855-2

> <Gold.Version>
5.8.1

> <Gold.Id.Protein>
6NUR|6NUR_protein|mol2

> <Gold.PLP.Fitness>
37.3404

> <Gold.PLP.PLP>
-29.8630

> <Gold.PLP.part.hbond>
-2.0000

> <Gold.PLP.part.metal>
0.0000

> <Gold.PLP.part.buried>
-2.0645

> <Gold.PLP.part.nonpolar>
-27.2801

> <Gold.PLP.part.repulsive>
0.8233

> <Gold.PLP.ligand.clash>
0.0000

> <Gold.PLP.ligand.torsion>
0.7907

> <Gold.PLP.Chemscore.Hbond>
2.0000

> <Gold.PLP.Chemscore.CHOScore>
1.0000

> <Gold.PLP.Chemscore.Metal>
0.0000

> <Gold.Chemscore.Hbonds>
donor molecule, donor type, donor heavy atom, donor atom, acceptor molecule, acceptor atom, score
      P1  H  6896  6907       L1    21  1.00
      P1  H 10752 10764       L1    12  1.00
      L1  C    15    44       P1  7948  1.00

> <Gold.PLP.Chemscore.Internal.Correction>
0.0588

> <Gold.Rescore>
     Score         DG    S(hbond)    S(metal)    S(lipo)     H(rot)  DE(clash)    DE(int)     intcor
     11.88     -16.28       1.95        0.00      77.23       1.85       2.68       1.72       ----

> <Gold.Chemscore.Fitness>
11.8782

> <Gold.Chemscore.DG>
-16.2822

> <Gold.Chemscore.ZeroCoef>
-5.4800

> <Gold.Chemscore.Hbond>
1.9499

> <Gold.Chemscore.Metal>
0.0000

> <Gold.Chemscore.Lipo>
77.2272

> <Gold.Chemscore.Internal_Hbond>
0.0000

> <Gold.Chemscore.DEClash>
2.6836

> <Gold.Chemscore.DEInternal>
1.7204

> <Gold.Chemscore.Rot>
1.8539

> <Gold.Chemscore.Internal.Correction>
   9.000000E+99

> <Gold.Chemscore.Hbonds>
donor molecule, donor type, donor heavy atom, donor atom, acceptor molecule, acceptor atom, score
      P1  H  6896  6907       L1    21  0.91
      P1  H 10752 10764       L1    12  0.94

> <Gold.Chemscore.Hbond.Weighted>
-6.5126

> <Gold.Chemscore.Metal.Weighted>
-0.0000

> <Gold.Chemscore.Lipo.Weighted>
-9.0356

> <Gold.Chemscore.Internal_Hbond.Weighted>
0.0000

> <Gold.Chemscore.DEClash.Weighted>
2.6836

> <Gold.Chemscore.DEInternal.Weighted>
1.7204

> <Gold.Chemscore.Rot.Weighted>
4.7460

> <Gold.Chemscore.Internal.Correction.Weighted>
   9.000000E+99

> <Gold.Protein.RotatedTorsions>
[ 6907 6896 6895 6894 ] final -169.49 input  -60.11 | X-H torsion
[ 7974 7965 7964 7962 ] final   57.82 input  175.53 | X-H torsion
[ 8008 7997 7996 7995 ] final -158.32 input   59.86 | X-H torsion
[ 10167 10162 10161 10158 ] final -153.34 input  -65.29 | X-H torsion
[ 10718 10713 10712 10709 ] final  -19.95 input   66.30 | X-H torsion
[ 10763 10752 10751 10750 ] final  -92.21 input  -60.55 | X-H torsion
[ 11005 11000 10999 10996 ] final   71.13 input  -57.11 | X-H torsion

> <Gold.Protein.ActiveResidues>
 VAL166  LYS551  ARG553  GLY616  TRP617  ASP618  TYR619  PRO620  LYS621  CYS622 
 ASP623  PHE694  ASN695  SER759  ASP760  ASP761  ALA762  ILE779  LEU786  VAL792 
 PHE793  MET794  SER795  GLU796  ALA797  LYS798  CYS799  TRP800  GLU811  SER814 

> <Gold.Protein.RotatedAtoms>
  151.4924  133.3522  159.2855 H   0  0  0  0  0  0  0  0  0  0  0  0  # atno 6907 bound_to 6896
  150.8826  134.8221  159.7247 H   0  0  0  0  0  0  0  0  0  0  0  0  # atno 6908 bound_to 6896
  152.4772  134.4823  159.9721 H   0  0  0  0  0  0  0  0  0  0  0  0  # atno 6909 bound_to 6896
  145.9249  139.3759  143.0456 H   0  0  0  0  0  0  0  0  0  0  0  0  # atno 7974 bound_to 7965
  155.7457  140.0820  157.2225 H   0  0  0  0  0  0  0  0  0  0  0  0  # atno 8008 bound_to 7997
  154.4017  140.1569  156.2722 H   0  0  0  0  0  0  0  0  0  0  0  0  # atno 8009 bound_to 7997
  155.8978  140.3411  155.6006 H   0  0  0  0  0  0  0  0  0  0  0  0  # atno 8010 bound_to 7997
  139.7105  143.9117  152.2466 H   0  0  0  0  0  0  0  0  0  0  0  0  # atno 10167 bound_to 10162
  156.5386  130.4672  149.6510 H   0  0  0  0  0  0  0  0  0  0  0  0  # atno 10718 bound_to 10713
  154.6838  135.5239  153.8299 H   0  0  0  0  0  0  0  0  0  0  0  0  # atno 10763 bound_to 10752
  153.0583  135.6559  154.0533 H   0  0  0  0  0  0  0  0  0  0  0  0  # atno 10764 bound_to 10752
  154.0417  135.2976  155.3334 H   0  0  0  0  0  0  0  0  0  0  0  0  # atno 10765 bound_to 10752
  139.9560  134.7143  156.0752 H   0  0  0  0  0  0  0  0  0  0  0  0  # atno 11005 bound_to 11000
  145.8502  140.9533  143.0753 LP  0  0  0  0  0  0  0  0  0  0  0  0  # atno 17320 bound_to 7965
  144.6757  140.0397  143.7481 LP  0  0  0  0  0  0  0  0  0  0  0  0  # atno 17321 bound_to 7965
  139.8984  144.6925  150.8692 LP  0  0  0  0  0  0  0  0  0  0  0  0  # atno 17342 bound_to 10162
  140.7732  143.3532  151.1973 LP  0  0  0  0  0  0  0  0  0  0  0  0  # atno 17343 bound_to 10162
  156.2992  130.7167  151.2035 LP  0  0  0  0  0  0  0  0  0  0  0  0  # atno 17370 bound_to 10713
  157.7409  131.0511  150.5133 LP  0  0  0  0  0  0  0  0  0  0  0  0  # atno 17371 bound_to 10713
  141.1231  133.6607  156.3267 LP  0  0  0  0  0  0  0  0  0  0  0  0  # atno 17394 bound_to 11000
  140.5608  134.5936  157.5433 LP  0  0  0  0  0  0  0  0  0  0  0  0  # atno 17395 bound_to 11000

$$$$
