AV-unprocessed.smi:2790|AV-procd|sdf|10767|dock6
  -GOLD-   2272015203D 1   1.00000     0.00000
 Structure written by MMmdl.
 47 48  0  0  0  0  0  0  0  0  3 V2000
  145.5785  140.5692  155.5505 C   0  0  0  0  0  0  0  0  0  0  0  0
  146.1214  141.9300  155.3287 N   0  3  0  0  0  0  0  0  0  0  0  0
  147.2257  141.9245  154.3447 C   0  0  0  0  0  0  0  0  0  0  0  0
  146.4940  142.6219  156.5896 C   0  0  0  0  0  0  0  0  0  0  0  0
  147.5011  141.8346  157.4341 C   0  0  0  0  0  0  0  0  0  0  0  0
  147.1695  140.7829  157.9818 O   0  0  0  0  0  0  0  0  0  0  0  0
  148.7286  142.3665  157.5370 N   0  0  0  0  0  0  0  0  0  0  0  0
  149.8447  141.7932  158.2897 C   0  0  0  0  0  0  0  0  0  0  0  0
  151.1960  141.8294  157.5129 C   0  0  0  0  0  0  0  0  0  0  0  0
  151.1757  140.7265  156.4289 C   0  0  0  0  0  0  0  0  0  0  0  0
  150.1297  140.7002  155.4714 C   0  0  0  0  0  0  0  0  0  0  0  0
  150.1025  139.7003  154.4787 C   0  0  0  0  0  0  0  0  0  0  0  0
  151.0704  138.7623  154.4441 N   0  3  0  0  0  0  0  0  0  0  0  0
  152.0830  138.7304  155.3346 C   0  0  0  0  0  0  0  0  0  0  0  0
  152.1604  139.7056  156.3499 C   0  0  0  0  0  0  0  0  0  0  0  0
  151.3662  143.2109  156.8143 C   0  0  0  0  0  0  0  0  0  0  0  0
  151.5712  144.3921  157.7815 C   0  0  0  0  0  0  0  0  0  0  0  0
  152.7598  144.1522  158.7183 C   0  0  0  0  0  0  0  0  0  0  0  0
  152.6007  142.8267  159.4701 C   0  0  0  0  0  0  0  0  0  0  0  0
  152.4005  141.6550  158.4918 C   0  0  0  0  0  0  0  0  0  0  0  0
  146.3313  139.9157  155.9930 H   0  0  0  0  0  0  0  0  0  0  0  0
  145.2566  140.1272  154.6068 H   0  0  0  0  0  0  0  0  0  0  0  0
  144.7135  140.5898  156.2139 H   0  0  0  0  0  0  0  0  0  0  0  0
  148.0879  141.3762  154.7272 H   0  0  0  0  0  0  0  0  0  0  0  0
  147.5419  142.9421  154.1126 H   0  0  0  0  0  0  0  0  0  0  0  0
  146.9092  141.4577  153.4114 H   0  0  0  0  0  0  0  0  0  0  0  0
  146.8781  143.6196  156.3690 H   0  0  0  0  0  0  0  0  0  0  0  0
  145.6057  142.7573  157.2085 H   0  0  0  0  0  0  0  0  0  0  0  0
  148.9051  143.2414  157.0645 H   0  0  0  0  0  0  0  0  0  0  0  0
  149.9315  142.3778  159.2059 H   0  0  0  0  0  0  0  0  0  0  0  0
  149.5997  140.7865  158.6269 H   0  0  0  0  0  0  0  0  0  0  0  0
  149.3434  141.4399  155.4885 H   0  0  0  0  0  0  0  0  0  0  0  0
  149.3397  139.6239  153.7173 H   0  0  0  0  0  0  0  0  0  0  0  0
  152.7979  137.9302  155.2099 H   0  0  0  0  0  0  0  0  0  0  0  0
  152.9820  139.6440  157.0462 H   0  0  0  0  0  0  0  0  0  0  0  0
  152.2284  143.1670  156.1469 H   0  0  0  0  0  0  0  0  0  0  0  0
  150.5097  143.4349  156.1788 H   0  0  0  0  0  0  0  0  0  0  0  0
  151.7357  145.3070  157.2115 H   0  0  0  0  0  0  0  0  0  0  0  0
  150.6677  144.5623  158.3670 H   0  0  0  0  0  0  0  0  0  0  0  0
  153.6842  144.1362  158.1395 H   0  0  0  0  0  0  0  0  0  0  0  0
  152.8514  144.9764  159.4263 H   0  0  0  0  0  0  0  0  0  0  0  0
  153.4860  142.6461  160.0804 H   0  0  0  0  0  0  0  0  0  0  0  0
  151.7659  142.8928  160.1671 H   0  0  0  0  0  0  0  0  0  0  0  0
  152.3117  140.7300  159.0617 H   0  0  0  0  0  0  0  0  0  0  0  0
  153.3222  141.5685  157.9143 H   0  0  0  0  0  0  0  0  0  0  0  0
  145.3788  142.4772  154.9157 H   0  0  0  0  0  0  0  0  0  0  0  0
  151.0346  138.0478  153.7162 H   0  0  0  0  0  0  0  0  0  0  0  0
  1  2  1  0  0  0  0
  1 21  1  0  0  0  0
  1 22  1  0  0  0  0
  1 23  1  0  0  0  0
  2  3  1  0  0  0  0
  2  4  1  0  0  0  0
  2 46  1  0  0  0  0
  3 24  1  0  0  0  0
  3 25  1  0  0  0  0
  3 26  1  0  0  0  0
  4  5  1  0  0  0  0
  4 27  1  0  0  0  0
  4 28  1  0  0  0  0
  5  6  2  0  0  0  0
  5  7  1  0  0  0  0
  7  8  1  0  0  0  0
  7 29  1  0  0  0  0
  8  9  1  0  0  0  0
  8 30  1  0  0  0  0
  8 31  1  0  0  0  0
  9 20  1  0  0  0  0
  9 10  1  0  0  0  0
  9 16  1  0  0  0  0
 10 15  1  0  0  0  0
 10 11  2  0  0  0  0
 11 12  1  0  0  0  0
 11 32  1  0  0  0  0
 12 13  2  0  0  0  0
 12 33  1  0  0  0  0
 13 14  1  0  0  0  0
 13 47  1  0  0  0  0
 14 15  2  0  0  0  0
 14 34  1  0  0  0  0
 15 35  1  0  0  0  0
 16 17  1  0  0  0  0
 16 36  1  0  0  0  0
 16 37  1  0  0  0  0
 17 18  1  0  0  0  0
 17 38  1  0  0  0  0
 17 39  1  0  0  0  0
 18 19  1  0  0  0  0
 18 40  1  0  0  0  0
 18 41  1  0  0  0  0
 19 20  1  0  0  0  0
 19 42  1  0  0  0  0
 19 43  1  0  0  0  0
 20 44  1  0  0  0  0
 20 45  1  0  0  0  0
M  CHG  1   2   1
M  CHG  1  13   1
M  END
> <s_m_source_file>
AV-unprocessed.smi

> <i_m_source_file_index>
2790

> <i_lp_mmshare_version>
43012

> <i_f3d_flags>
0

> <s_epik_input>
W0NIM11OKFtDSDNdKVtDSDJdQyg9TylbTkhdW0NIMl1DMShbQ0gyXVtDSDJdW0NIMl1bQ0gyXVtDSDJdMSljMltjSF1bY0hdbltjSF1bY0hdMg==

> <s_epik_cmdline>
J2VwaWtfcHl0aG9uJywgJy1waCcsICc3LjAnLCAnLXRuJywgJzgnLCAnLW1hJywgJzIwMCcsICctbWV0YWxfYmluZGluZycsICctaW1hZScsICc8aW5maWxlLm1hZT4nLCAnLW9tYWUnLCAnPG91dGZpbGUubWFlPic=

> <r_epik_Ionization_Penalty>
1.49613

> <r_epik_Ionization_Penalty_Charging>
1.4961

> <r_epik_Ionization_Penalty_Neutral>
2.84587e-05

> <r_epik_State_Penalty>
1.54102

> <r_epik_Charging_Adjusted_Penalty>
3.03712

> <i_epik_Tot_Q>
2

> <i_epik_Tot_abs_Q>
2

> <r_epik_Metal_State_Penalty>
1.62888

> <b_epik_Metal_Only>
0

> <s_lp_Force_Field>
OPLS_2005

> <r_lp_Energy>
33.1663

> <b_lp_Chiralities_Consistent>
1

> <s_lp_Variant>
AV-unprocessed.smi:2790-2

> <Gold.Version>
5.8.1

> <Gold.Id.Protein>
6NUR|6NUR_protein|mol2

> <Gold.PLP.Fitness>
41.6967

> <Gold.PLP.PLP>
-39.5320

> <Gold.PLP.part.hbond>
-1.6318

> <Gold.PLP.part.metal>
0.0000

> <Gold.PLP.part.buried>
-2.1091

> <Gold.PLP.part.nonpolar>
-35.4119

> <Gold.PLP.part.repulsive>
0.1938

> <Gold.PLP.ligand.clash>
0.0000

> <Gold.PLP.ligand.torsion>
0.4383

> <Gold.PLP.Chemscore.Hbond>
1.0000

> <Gold.PLP.Chemscore.CHOScore>
0.0000

> <Gold.PLP.Chemscore.Metal>
0.0000

> <Gold.Chemscore.Hbonds>
donor molecule, donor type, donor heavy atom, donor atom, acceptor molecule, acceptor atom, score
      L1  H     7    29       P1  8028  1.00

> <Gold.PLP.Chemscore.Internal.Correction>
0.0413

> <Gold.Rescore>
     Score         DG    S(hbond)    S(metal)    S(lipo)     H(rot)  DE(clash)    DE(int)     intcor
     14.66     -17.48       0.97        0.00     112.85       1.73       0.49       2.34       ----

> <Gold.Chemscore.Fitness>
14.6562

> <Gold.Chemscore.DG>
-17.4827

> <Gold.Chemscore.ZeroCoef>
-5.4800

> <Gold.Chemscore.Hbond>
0.9694

> <Gold.Chemscore.Metal>
0.0000

> <Gold.Chemscore.Lipo>
112.8514

> <Gold.Chemscore.Internal_Hbond>
0.0000

> <Gold.Chemscore.DEClash>
0.4911

> <Gold.Chemscore.DEInternal>
2.3354

> <Gold.Chemscore.Rot>
1.7339

> <Gold.Chemscore.Internal.Correction>
   9.000000E+99

> <Gold.Chemscore.Hbonds>
donor molecule, donor type, donor heavy atom, donor atom, acceptor molecule, acceptor atom, score
      L1  H     7    29       P1  8028  0.65

> <Gold.Chemscore.Hbond.Weighted>
-3.2377

> <Gold.Chemscore.Metal.Weighted>
-0.0000

> <Gold.Chemscore.Lipo.Weighted>
-13.2036

> <Gold.Chemscore.Internal_Hbond.Weighted>
0.0000

> <Gold.Chemscore.DEClash.Weighted>
0.4911

> <Gold.Chemscore.DEInternal.Weighted>
2.3354

> <Gold.Chemscore.Rot.Weighted>
4.4387

> <Gold.Chemscore.Internal.Correction.Weighted>
   9.000000E+99

> <Gold.Protein.RotatedTorsions>
[ 6907 6896 6895 6894 ] final   40.88 input  -60.11 | X-H torsion
[ 7974 7965 7964 7962 ] final  -50.43 input  175.53 | X-H torsion
[ 8008 7997 7996 7995 ] final -166.48 input   59.86 | X-H torsion
[ 10167 10162 10161 10158 ] final -143.78 input  -65.29 | X-H torsion
[ 10718 10713 10712 10709 ] final  135.73 input   66.30 | X-H torsion
[ 10763 10752 10751 10750 ] final   45.56 input  -60.55 | X-H torsion
[ 11005 11000 10999 10996 ] final -168.92 input  -57.11 | X-H torsion

> <Gold.Protein.ActiveResidues>
 VAL166  LYS551  ARG553  GLY616  TRP617  ASP618  TYR619  PRO620  LYS621  CYS622 
 ASP623  PHE694  ASN695  SER759  ASP760  ASP761  ALA762  ILE779  LEU786  VAL792 
 PHE793  MET794  SER795  GLU796  ALA797  LYS798  CYS799  TRP800  GLU811  SER814 

> <Gold.Protein.RotatedAtoms>
  152.1882  134.8695  160.0519 H   0  0  0  0  0  0  0  0  0  0  0  0  # atno 6907 bound_to 6896
  151.9594  133.3685  159.4038 H   0  0  0  0  0  0  0  0  0  0  0  0  # atno 6908 bound_to 6896
  150.6930  134.4180  159.5236 H   0  0  0  0  0  0  0  0  0  0  0  0  # atno 6909 bound_to 6896
  145.9299  140.7758  142.9605 H   0  0  0  0  0  0  0  0  0  0  0  0  # atno 7974 bound_to 7965
  155.8644  140.0983  157.1592 H   0  0  0  0  0  0  0  0  0  0  0  0  # atno 8008 bound_to 7997
  154.3992  140.1359  156.4063 H   0  0  0  0  0  0  0  0  0  0  0  0  # atno 8009 bound_to 7997
  155.7820  140.3458  155.5305 H   0  0  0  0  0  0  0  0  0  0  0  0  # atno 8010 bound_to 7997
  139.7961  143.7898  152.2654 H   0  0  0  0  0  0  0  0  0  0  0  0  # atno 10167 bound_to 10162
  157.4540  131.1068  150.9999 H   0  0  0  0  0  0  0  0  0  0  0  0  # atno 10718 bound_to 10713
  152.9823  135.6036  154.3456 H   0  0  0  0  0  0  0  0  0  0  0  0  # atno 10763 bound_to 10752
  154.3150  135.2770  155.2549 H   0  0  0  0  0  0  0  0  0  0  0  0  # atno 10764 bound_to 10752
  154.4742  135.5934  153.6399 H   0  0  0  0  0  0  0  0  0  0  0  0  # atno 10765 bound_to 10752
  140.5366  134.5564  157.5089 H   0  0  0  0  0  0  0  0  0  0  0  0  # atno 11005 bound_to 11000
  144.6763  140.2111  143.7377 LP  0  0  0  0  0  0  0  0  0  0  0  0  # atno 17320 bound_to 7965
  145.8439  139.2143  143.1811 LP  0  0  0  0  0  0  0  0  0  0  0  0  # atno 17321 bound_to 7965
  139.8004  144.7376  150.9832 LP  0  0  0  0  0  0  0  0  0  0  0  0  # atno 17342 bound_to 10162
  140.7820  143.4351  151.0636 LP  0  0  0  0  0  0  0  0  0  0  0  0  # atno 17343 bound_to 10162
  157.0819  130.5906  149.5422 LP  0  0  0  0  0  0  0  0  0  0  0  0  # atno 17370 bound_to 10713
  155.9999  130.5076  150.7625 LP  0  0  0  0  0  0  0  0  0  0  0  0  # atno 17371 bound_to 10713
  139.9526  134.7590  156.0414 LP  0  0  0  0  0  0  0  0  0  0  0  0  # atno 17394 bound_to 11000
  141.1251  133.6601  156.3316 LP  0  0  0  0  0  0  0  0  0  0  0  0  # atno 17395 bound_to 11000

$$$$
