AV-unprocessed.smi:2152|AV-procd|sdf|8765|dock1
  -GOLD-   2272011543D 1   1.00000     0.00000
 Structure written by MMmdl.
 41 42  0  0  0  0  0  0  0  0  1 V2000
  150.6776  144.6792  159.5508 C   0  0  0  0  0  0  0  0  0  0  0  0
  151.9077  143.9225  160.0842 C   0  0  1  0  0  0  0  0  0  0  0  0
  152.0657  144.1512  161.6013 C   0  0  0  0  0  0  0  0  0  0  0  0
  153.2942  143.4223  162.1666 C   0  0  0  0  0  0  0  0  0  0  0  0
  153.2360  141.9207  161.8554 C   0  0  0  0  0  0  0  0  0  0  0  0
  153.0945  141.6777  160.3460 C   0  0  0  0  0  0  0  0  0  0  0  0
  151.8664  142.4055  159.7647 C   0  0  2  0  0  0  0  0  0  0  0  0
  151.8242  142.1789  158.3209 N   0  0  0  0  0  0  0  0  0  0  0  0
  150.7360  141.8562  157.6050 C   0  0  0  0  0  0  0  0  0  0  0  0
  149.6223  141.6814  158.1010 O   0  0  0  0  0  0  0  0  0  0  0  0
  150.9490  141.6974  156.0940 C   0  0  0  0  0  0  0  0  0  0  0  0
  151.2069  140.3066  155.6999 N   0  0  0  0  0  0  0  0  0  0  0  0
  150.4851  139.7418  154.6643 C   0  0  0  0  0  0  0  0  0  0  0  0
  150.6737  138.4774  154.2277 C   0  0  0  0  0  0  0  0  0  0  0  0
  151.6736  137.6143  154.8443 C   0  0  0  0  0  0  0  0  0  0  0  0
  151.8955  136.4640  154.4643 O   0  0  0  0  0  0  0  0  0  0  0  0
  152.3854  138.2098  155.9127 N   0  0  0  0  0  0  0  0  0  0  0  0
  153.4123  137.4245  156.5659 C   0  0  0  0  0  0  0  0  0  0  0  0
  152.1971  139.5399  156.3519 C   0  0  0  0  0  0  0  0  0  0  0  0
  152.8692  140.0299  157.2630 O   0  0  0  0  0  0  0  0  0  0  0  0
  149.7538  144.2706  159.9615 H   0  0  0  0  0  0  0  0  0  0  0  0
  150.6106  144.6263  158.4641 H   0  0  0  0  0  0  0  0  0  0  0  0
  150.7210  145.7353  159.8174 H   0  0  0  0  0  0  0  0  0  0  0  0
  152.7867  144.3466  159.5958 H   0  0  0  0  0  0  0  0  0  0  0  0
  152.1503  145.2181  161.8108 H   0  0  0  0  0  0  0  0  0  0  0  0
  151.1700  143.8065  162.1199 H   0  0  0  0  0  0  0  0  0  0  0  0
  154.2028  143.8508  161.7416 H   0  0  0  0  0  0  0  0  0  0  0  0
  153.3541  143.5762  163.2444 H   0  0  0  0  0  0  0  0  0  0  0  0
  154.1336  141.4277  162.2294 H   0  0  0  0  0  0  0  0  0  0  0  0
  152.3927  141.4693  162.3799 H   0  0  0  0  0  0  0  0  0  0  0  0
  153.9999  142.0177  159.8407 H   0  0  0  0  0  0  0  0  0  0  0  0
  153.0186  140.6065  160.1547 H   0  0  0  0  0  0  0  0  0  0  0  0
  150.9782  141.9814  160.2371 H   0  0  0  0  0  0  0  0  0  0  0  0
  152.6942  142.2971  157.8222 H   0  0  0  0  0  0  0  0  0  0  0  0
  150.0833  142.0822  155.5514 H   0  0  0  0  0  0  0  0  0  0  0  0
  151.7868  142.3315  155.8008 H   0  0  0  0  0  0  0  0  0  0  0  0
  149.7350  140.3430  154.1713 H   0  0  0  0  0  0  0  0  0  0  0  0
  150.0792  138.1007  153.4083 H   0  0  0  0  0  0  0  0  0  0  0  0
  153.4695  137.7070  157.6182 H   0  0  0  0  0  0  0  0  0  0  0  0
  154.3478  137.6318  156.0448 H   0  0  0  0  0  0  0  0  0  0  0  0
  153.1543  136.3658  156.5173 H   0  0  0  0  0  0  0  0  0  0  0  0
  1  2  1  0  0  0  0
  1 21  1  0  0  0  0
  1 22  1  0  0  0  0
  1 23  1  0  0  0  0
  2  7  1  0  0  0  0
  2  3  1  0  0  0  0
  2 24  1  0  0  0  0
  3  4  1  0  0  0  0
  3 25  1  0  0  0  0
  3 26  1  0  0  0  0
  4  5  1  0  0  0  0
  4 27  1  0  0  0  0
  4 28  1  0  0  0  0
  5  6  1  0  0  0  0
  5 29  1  0  0  0  0
  5 30  1  0  0  0  0
  6  7  1  0  0  0  0
  6 31  1  0  0  0  0
  6 32  1  0  0  0  0
  7  8  1  0  0  0  0
  7 33  1  0  0  0  0
  8  9  1  0  0  0  0
  8 34  1  0  0  0  0
  9 10  2  0  0  0  0
  9 11  1  0  0  0  0
 11 12  1  0  0  0  0
 11 35  1  0  0  0  0
 11 36  1  0  0  0  0
 12 19  1  0  0  0  0
 12 13  1  0  0  0  0
 13 14  2  0  0  0  0
 13 37  1  0  0  0  0
 14 15  1  0  0  0  0
 14 38  1  0  0  0  0
 15 16  2  0  0  0  0
 15 17  1  0  0  0  0
 17 18  1  0  0  0  0
 17 19  1  0  0  0  0
 18 39  1  0  0  0  0
 18 40  1  0  0  0  0
 18 41  1  0  0  0  0
 19 20  2  0  0  0  0
M  END
> <s_m_source_file>
AV-unprocessed.smi

> <i_m_source_file_index>
2152

> <i_lp_mmshare_version>
43012

> <i_f3d_flags>
0

> <s_epik_input>
W0NIM11bQ0BASF0xW0NIMl1bQ0gyXVtDSDJdW0NIMl1bQ0BIXTFbTkhdQyg9TylbQ0gyXW4yW2NIXVtjSF1jKD1PKW4oW0NIM10pYzI9Tw==

> <s_epik_cmdline>
J2VwaWtfcHl0aG9uJywgJy1waCcsICc3LjAnLCAnLXRuJywgJzgnLCAnLW1hJywgJzIwMCcsICctbWV0YWxfYmluZGluZycsICctaW1hZScsICc8aW5maWxlLm1hZT4nLCAnLW9tYWUnLCAnPG91dGZpbGUubWFlPic=

> <r_lp_tautomer_probability>
1

> <r_epik_Ionization_Penalty>
3.20555e-08

> <r_epik_Ionization_Penalty_Charging>
1.30086e-08

> <r_epik_Ionization_Penalty_Neutral>
1.90469e-08

> <r_epik_State_Penalty>
-0

> <r_epik_Charging_Adjusted_Penalty>
1.30086e-08

> <i_epik_Tot_Q>
0

> <i_epik_Tot_abs_Q>
0

> <r_epik_Metal_State_Penalty>
-0

> <b_epik_Metal_Only>
0

> <s_lp_Force_Field>
OPLS_2005

> <r_lp_Energy>
17.8687

> <b_lp_Chiralities_Consistent>
1

> <s_lp_Variant>
AV-unprocessed.smi:2152-4

> <Gold.Version>
5.8.1

> <Gold.Id.Protein>
6NUR|6NUR_protein|mol2

> <Gold.PLP.Fitness>
46.1962

> <Gold.PLP.PLP>
-41.5096

> <Gold.PLP.part.hbond>
-2.0000

> <Gold.PLP.part.metal>
0.0000

> <Gold.PLP.part.buried>
-3.7518

> <Gold.PLP.part.nonpolar>
-35.9070

> <Gold.PLP.part.repulsive>
0.9130

> <Gold.PLP.ligand.clash>
0.0000

> <Gold.PLP.ligand.torsion>
0.6623

> <Gold.PLP.Chemscore.Hbond>
2.0000

> <Gold.PLP.Chemscore.CHOScore>
0.0000

> <Gold.PLP.Chemscore.Metal>
0.0000

> <Gold.Chemscore.Hbonds>
donor molecule, donor type, donor heavy atom, donor atom, acceptor molecule, acceptor atom, score
      P1  H  7997  8009       L1    20  0.91
      P1  H 10752 10764       L1    16  0.52

> <Gold.PLP.Chemscore.Internal.Correction>
0.0111

> <Gold.Rescore>
     Score         DG    S(hbond)    S(metal)    S(lipo)     H(rot)  DE(clash)    DE(int)     intcor
     15.24     -19.96       1.88        0.00     103.40       1.52       1.46       3.27       ----

> <Gold.Chemscore.Fitness>
15.2370

> <Gold.Chemscore.DG>
-19.9622

> <Gold.Chemscore.ZeroCoef>
-5.4800

> <Gold.Chemscore.Hbond>
1.8821

> <Gold.Chemscore.Metal>
0.0000

> <Gold.Chemscore.Lipo>
103.3994

> <Gold.Chemscore.Internal_Hbond>
0.0000

> <Gold.Chemscore.DEClash>
1.4572

> <Gold.Chemscore.DEInternal>
3.2680

> <Gold.Chemscore.Rot>
1.5242

> <Gold.Chemscore.Internal.Correction>
   9.000000E+99

> <Gold.Chemscore.Hbonds>
donor molecule, donor type, donor heavy atom, donor atom, acceptor molecule, acceptor atom, score
      P1  H  7997  8009       L1    20  0.20
      P1  H 10752 10764       L1    16  0.52

> <Gold.Chemscore.Hbond.Weighted>
-6.2863

> <Gold.Chemscore.Metal.Weighted>
-0.0000

> <Gold.Chemscore.Lipo.Weighted>
-12.0977

> <Gold.Chemscore.Internal_Hbond.Weighted>
0.0000

> <Gold.Chemscore.DEClash.Weighted>
1.4572

> <Gold.Chemscore.DEInternal.Weighted>
3.2680

> <Gold.Chemscore.Rot.Weighted>
3.9019

> <Gold.Chemscore.Internal.Correction.Weighted>
   9.000000E+99

> <Gold.Protein.RotatedTorsions>
[ 6907 6896 6895 6894 ] final  -17.32 input  -60.11 | X-H torsion
[ 7974 7965 7964 7962 ] final  -26.14 input  175.53 | X-H torsion
[ 8008 7997 7996 7995 ] final -169.32 input   59.86 | X-H torsion
[ 10167 10162 10161 10158 ] final   19.14 input  -65.29 | X-H torsion
[ 10718 10713 10712 10709 ] final  -43.69 input   66.30 | X-H torsion
[ 10763 10752 10751 10750 ] final  -63.61 input  -60.55 | X-H torsion
[ 11005 11000 10999 10996 ] final -112.32 input  -57.11 | X-H torsion

> <Gold.Protein.ActiveResidues>
 VAL166  LYS551  ARG553  GLY616  TRP617  ASP618  TYR619  PRO620  LYS621  CYS622 
 ASP623  PHE694  ASN695  SER759  ASP760  ASP761  ALA762  ILE779  LEU786  VAL792 
 PHE793  MET794  SER795  GLU796  ALA797  LYS798  CYS799  TRP800  GLU811  SER814 

> <Gold.Protein.RotatedAtoms>
  151.2951  135.0753  159.9217 H   0  0  0  0  0  0  0  0  0  0  0  0  # atno 6907 bound_to 6896
  152.5309  133.9891  159.7853 H   0  0  0  0  0  0  0  0  0  0  0  0  # atno 6908 bound_to 6896
  151.0168  133.5862  159.2706 H   0  0  0  0  0  0  0  0  0  0  0  0  # atno 6909 bound_to 6896
  146.1445  140.4980  142.8638 H   0  0  0  0  0  0  0  0  0  0  0  0  # atno 7974 bound_to 7965
  155.9034  140.1045  157.1333 H   0  0  0  0  0  0  0  0  0  0  0  0  # atno 8008 bound_to 7997
  154.4029  140.1288  156.4529 H   0  0  0  0  0  0  0  0  0  0  0  0  # atno 8009 bound_to 7997
  155.7396  140.3467  155.5100 H   0  0  0  0  0  0  0  0  0  0  0  0  # atno 8010 bound_to 7997
  140.5601  143.9352  150.6637 H   0  0  0  0  0  0  0  0  0  0  0  0  # atno 10167 bound_to 10162
  156.2463  130.4184  149.8701 H   0  0  0  0  0  0  0  0  0  0  0  0  # atno 10718 bound_to 10713
  154.3176  135.6203  153.5493 H   0  0  0  0  0  0  0  0  0  0  0  0  # atno 10763 bound_to 10752
  152.9823  135.5716  154.5106 H   0  0  0  0  0  0  0  0  0  0  0  0  # atno 10764 bound_to 10752
  154.4768  135.2861  155.1578 H   0  0  0  0  0  0  0  0  0  0  0  0  # atno 10765 bound_to 10752
  141.0682  133.9424  157.2537 H   0  0  0  0  0  0  0  0  0  0  0  0  # atno 11005 bound_to 11000
  144.7830  140.5879  143.6593 LP  0  0  0  0  0  0  0  0  0  0  0  0  # atno 17320 bound_to 7965
  145.4970  139.1485  143.3678 LP  0  0  0  0  0  0  0  0  0  0  0  0  # atno 17321 bound_to 7965
  140.2801  143.3395  152.1159 LP  0  0  0  0  0  0  0  0  0  0  0  0  # atno 17342 bound_to 10162
  139.5066  144.6817  151.5991 LP  0  0  0  0  0  0  0  0  0  0  0  0  # atno 17343 bound_to 10162
  156.6265  130.8648  151.3486 LP  0  0  0  0  0  0  0  0  0  0  0  0  # atno 17370 bound_to 10713
  157.7196  130.9541  150.1387 LP  0  0  0  0  0  0  0  0  0  0  0  0  # atno 17371 bound_to 10713
  139.9497  135.0178  156.8957 LP  0  0  0  0  0  0  0  0  0  0  0  0  # atno 17394 bound_to 11000
  140.5729  134.0426  155.7437 LP  0  0  0  0  0  0  0  0  0  0  0  0  # atno 17395 bound_to 11000

$$$$
