AV-unprocessed.smi:3056|AV-procd|sdf|11656|dock7
  -GOLD-   2272017 53D 1   1.00000     0.00000
 Structure written by MMmdl.
 47 48  0  0  0  0  0  0  0  0  1 V2000
  145.4088  132.6283  149.6019 C   0  0  0  0  0  0  0  0  0  0  0  0
  145.8843  132.9851  150.9808 C   0  0  0  0  0  0  0  0  0  0  0  0
  145.5249  134.1164  151.7661 C   0  0  0  0  0  0  0  0  0  0  0  0
  146.1337  134.1416  152.9402 N   0  0  0  0  0  0  0  0  0  0  0  0
  146.8892  133.0221  152.9589 N   0  0  0  0  0  0  0  0  0  0  0  0
  147.7415  132.7493  154.1130 C   0  0  1  0  0  0  0  0  0  0  0  0
  149.0880  132.1294  153.6828 C   0  0  0  0  0  0  0  0  0  0  0  0
  147.8783  133.9970  155.0273 C   0  0  1  0  0  0  0  0  0  0  0  0
  148.2290  133.6233  156.4816 C   0  0  0  0  0  0  0  0  0  0  0  0
  148.8641  134.9078  154.4504 N   0  0  0  0  0  0  0  0  0  0  0  0
  148.9332  136.2205  155.1045 C   0  0  0  0  0  0  0  0  0  0  0  0
  150.3807  136.7211  155.1789 C   0  0  0  0  0  0  0  0  0  0  0  0
  151.2341  135.9452  155.6093 O   0  0  0  0  0  0  0  0  0  0  0  0
  150.6783  137.9862  154.7922 N   0  0  0  0  0  0  0  0  0  0  0  0
  152.0018  138.5866  154.9708 C   0  0  0  0  0  0  0  0  0  0  0  0
  151.8797  139.6894  156.0391 C   0  0  0  0  0  0  0  0  0  0  0  0
  150.8970  140.6458  155.6417 O   0  0  0  0  0  0  0  0  0  0  0  0
  149.6071  140.0773  155.4141 C   0  0  1  0  0  0  0  0  0  0  0  0
  148.6418  141.1989  155.0179 C   0  0  0  0  0  0  0  0  0  0  0  0
  149.7275  138.9969  154.3208 C   0  0  0  0  0  0  0  0  0  0  0  0
  146.7653  132.3133  151.7791 C   0  0  0  0  0  0  0  0  0  0  0  0
  145.0156  133.4961  149.0721 H   0  0  0  0  0  0  0  0  0  0  0  0
  144.6145  131.8825  149.6317 H   0  0  0  0  0  0  0  0  0  0  0  0
  146.2134  132.2180  148.9916 H   0  0  0  0  0  0  0  0  0  0  0  0
  144.8479  134.9199  151.5153 H   0  0  0  0  0  0  0  0  0  0  0  0
  147.2304  131.9814  154.6968 H   0  0  0  0  0  0  0  0  0  0  0  0
  149.6546  131.7708  154.5419 H   0  0  0  0  0  0  0  0  0  0  0  0
  149.7161  132.8439  153.1503 H   0  0  0  0  0  0  0  0  0  0  0  0
  148.9301  131.2742  153.0254 H   0  0  0  0  0  0  0  0  0  0  0  0
  146.9124  134.5049  155.0325 H   0  0  0  0  0  0  0  0  0  0  0  0
  147.5743  132.8323  156.8483 H   0  0  0  0  0  0  0  0  0  0  0  0
  148.1068  134.4690  157.1579 H   0  0  0  0  0  0  0  0  0  0  0  0
  149.2573  133.2720  156.5725 H   0  0  0  0  0  0  0  0  0  0  0  0
  148.6469  135.0143  153.4695 H   0  0  0  0  0  0  0  0  0  0  0  0
  148.3373  136.9386  154.5388 H   0  0  0  0  0  0  0  0  0  0  0  0
  148.5140  136.1852  156.1095 H   0  0  0  0  0  0  0  0  0  0  0  0
  152.7610  137.8627  155.2694 H   0  0  0  0  0  0  0  0  0  0  0  0
  152.3430  139.0112  154.0256 H   0  0  0  0  0  0  0  0  0  0  0  0
  151.6100  139.2624  157.0065 H   0  0  0  0  0  0  0  0  0  0  0  0
  152.8354  140.1972  156.1692 H   0  0  0  0  0  0  0  0  0  0  0  0
  149.2507  139.6262  156.3420 H   0  0  0  0  0  0  0  0  0  0  0  0
  147.6374  140.8088  154.8509 H   0  0  0  0  0  0  0  0  0  0  0  0
  148.9664  141.6946  154.1026 H   0  0  0  0  0  0  0  0  0  0  0  0
  148.5786  141.9536  155.8021 H   0  0  0  0  0  0  0  0  0  0  0  0
  150.0993  139.4379  153.3946 H   0  0  0  0  0  0  0  0  0  0  0  0
  148.7461  138.5940  154.0768 H   0  0  0  0  0  0  0  0  0  0  0  0
  147.3127  131.3993  151.6012 H   0  0  0  0  0  0  0  0  0  0  0  0
  1  2  1  0  0  0  0
  1 22  1  0  0  0  0
  1 23  1  0  0  0  0
  1 24  1  0  0  0  0
  2 21  2  0  0  0  0
  2  3  1  0  0  0  0
  3  4  2  0  0  0  0
  3 25  1  0  0  0  0
  4  5  1  0  0  0  0
  5  6  1  0  0  0  0
  5 21  1  0  0  0  0
  6  7  1  0  0  0  0
  6  8  1  0  0  0  0
  6 26  1  0  0  0  0
  7 27  1  0  0  0  0
  7 28  1  0  0  0  0
  7 29  1  0  0  0  0
  8  9  1  0  0  0  0
  8 10  1  0  0  0  0
  8 30  1  0  0  0  0
  9 31  1  0  0  0  0
  9 32  1  0  0  0  0
  9 33  1  0  0  0  0
 10 11  1  0  0  0  0
 10 34  1  0  0  0  0
 11 12  1  0  0  0  0
 11 35  1  0  0  0  0
 11 36  1  0  0  0  0
 12 13  2  0  0  0  0
 12 14  1  0  0  0  0
 14 20  1  0  0  0  0
 14 15  1  0  0  0  0
 15 16  1  0  0  0  0
 15 37  1  0  0  0  0
 15 38  1  0  0  0  0
 16 17  1  0  0  0  0
 16 39  1  0  0  0  0
 16 40  1  0  0  0  0
 17 18  1  0  0  0  0
 18 19  1  0  0  0  0
 18 20  1  0  0  0  0
 18 41  1  0  0  0  0
 19 42  1  0  0  0  0
 19 43  1  0  0  0  0
 19 44  1  0  0  0  0
 20 45  1  0  0  0  0
 20 46  1  0  0  0  0
 21 47  1  0  0  0  0
M  END
> <s_m_source_file>
AV-unprocessed.smi

> <i_m_source_file_index>
3056

> <i_lp_mmshare_version>
43012

> <i_f3d_flags>
0

> <s_epik_input>
W0NIM11jMVtjSF1ubihbY0hdMSlbQ0BIXShbQ0gzXSlbQ0BIXShbQ0gzXSlbTkhdW0NIMl1DKD1PKU4yW0NIMl1bQ0gyXU9bQ0BASF0oW0NIM10pW0NIMl0y

> <s_epik_cmdline>
J2VwaWtfcHl0aG9uJywgJy1waCcsICc3LjAnLCAnLXRuJywgJzgnLCAnLW1hJywgJzIwMCcsICctbWV0YWxfYmluZGluZycsICctaW1hZScsICc8aW5maWxlLm1hZT4nLCAnLW9tYWUnLCAnPG91dGZpbGUubWFlPic=

> <r_lp_tautomer_probability>
1

> <r_epik_Ionization_Penalty>
0.667689

> <r_epik_Ionization_Penalty_Charging>
0

> <r_epik_Ionization_Penalty_Neutral>
0.667689

> <r_epik_State_Penalty>
0.684601

> <r_epik_Charging_Adjusted_Penalty>
0.684601

> <i_epik_Tot_Q>
0

> <i_epik_Tot_abs_Q>
0

> <r_epik_Metal_State_Penalty>
0.681448

> <b_epik_Metal_Only>
0

> <s_lp_Force_Field>
OPLS_2005

> <r_lp_Energy>
30.7947

> <b_lp_Chiralities_Consistent>
1

> <s_lp_Variant>
AV-unprocessed.smi:3056-12

> <Gold.Version>
5.8.1

> <Gold.Id.Protein>
6NUR|6NUR_protein|mol2

> <Gold.PLP.Fitness>
45.5184

> <Gold.PLP.PLP>
-36.8154

> <Gold.PLP.part.hbond>
-3.0000

> <Gold.PLP.part.metal>
0.0000

> <Gold.PLP.part.buried>
-3.2830

> <Gold.PLP.part.nonpolar>
-31.0505

> <Gold.PLP.part.repulsive>
0.2148

> <Gold.PLP.ligand.clash>
0.0000

> <Gold.PLP.ligand.torsion>
1.2611

> <Gold.PLP.Chemscore.Hbond>
2.6960

> <Gold.PLP.Chemscore.CHOScore>
0.9829

> <Gold.PLP.Chemscore.Metal>
0.0000

> <Gold.Chemscore.Hbonds>
donor molecule, donor type, donor heavy atom, donor atom, acceptor molecule, acceptor atom, score
      L1  H    10    34       P1  7948  0.86
      P1  H  7989  7998       L1    17  0.28
      P1  H 10752 10764       L1    13  1.00
      L1  C    21    47       P1 10747  1.00

> <Gold.PLP.Chemscore.Internal.Correction>
0.1884

> <Gold.Rescore>
     Score         DG    S(hbond)    S(metal)    S(lipo)     H(rot)  DE(clash)    DE(int)     intcor
     16.12     -17.60       1.87        0.00      86.96       1.68       0.36       1.12       ----

> <Gold.Chemscore.Fitness>
16.1169

> <Gold.Chemscore.DG>
-17.5985

> <Gold.Chemscore.ZeroCoef>
-5.4800

> <Gold.Chemscore.Hbond>
1.8692

> <Gold.Chemscore.Metal>
0.0000

> <Gold.Chemscore.Lipo>
86.9605

> <Gold.Chemscore.Internal_Hbond>
0.0000

> <Gold.Chemscore.DEClash>
0.3623

> <Gold.Chemscore.DEInternal>
1.1193

> <Gold.Chemscore.Rot>
1.6793

> <Gold.Chemscore.Internal.Correction>
   9.000000E+99

> <Gold.Chemscore.Hbonds>
donor molecule, donor type, donor heavy atom, donor atom, acceptor molecule, acceptor atom, score
      L1  H    10    34       P1  7948  0.57
      P1  H  7989  7998       L1    17  0.01
      P1  H 10752 10764       L1    13  0.97

> <Gold.Chemscore.Hbond.Weighted>
-6.2432

> <Gold.Chemscore.Metal.Weighted>
-0.0000

> <Gold.Chemscore.Lipo.Weighted>
-10.1744

> <Gold.Chemscore.Internal_Hbond.Weighted>
0.0000

> <Gold.Chemscore.DEClash.Weighted>
0.3623

> <Gold.Chemscore.DEInternal.Weighted>
1.1193

> <Gold.Chemscore.Rot.Weighted>
4.2990

> <Gold.Chemscore.Internal.Correction.Weighted>
   9.000000E+99

> <Gold.Protein.RotatedTorsions>
[ 6907 6896 6895 6894 ] final   51.50 input  -60.11 | X-H torsion
[ 7974 7965 7964 7962 ] final  -75.55 input  175.53 | X-H torsion
[ 8008 7997 7996 7995 ] final    4.62 input   59.86 | X-H torsion
[ 10167 10162 10161 10158 ] final  113.39 input  -65.29 | X-H torsion
[ 10718 10713 10712 10709 ] final  -98.46 input   66.30 | X-H torsion
[ 10763 10752 10751 10750 ] final  -40.18 input  -60.55 | X-H torsion
[ 11005 11000 10999 10996 ] final -101.76 input  -57.11 | X-H torsion

> <Gold.Protein.ActiveResidues>
 VAL166  LYS551  ARG553  GLY616  TRP617  ASP618  TYR619  PRO620  LYS621  CYS622 
 ASP623  PHE694  ASN695  SER759  ASP760  ASP761  ALA762  ILE779  LEU786  VAL792 
 PHE793  MET794  SER795  GLU796  ALA797  LYS798  CYS799  TRP800  GLU811  SER814 

> <Gold.Protein.RotatedAtoms>
  152.3133  134.7470  160.0330 H   0  0  0  0  0  0  0  0  0  0  0  0  # atno 6907 bound_to 6896
  151.7943  133.3357  159.3516 H   0  0  0  0  0  0  0  0  0  0  0  0  # atno 6908 bound_to 6896
  150.7331  134.5743  159.5951 H   0  0  0  0  0  0  0  0  0  0  0  0  # atno 6909 bound_to 6896
  145.6245  140.9354  143.1120 H   0  0  0  0  0  0  0  0  0  0  0  0  # atno 7974 bound_to 7965
  154.7182  140.2706  155.6566 H   0  0  0  0  0  0  0  0  0  0  0  0  # atno 8008 bound_to 7997
  156.2816  140.2739  156.1770 H   0  0  0  0  0  0  0  0  0  0  0  0  # atno 8009 bound_to 7997
  155.0542  140.0371  157.2544 H   0  0  0  0  0  0  0  0  0  0  0  0  # atno 8010 bound_to 7997
  139.6465  144.7127  151.2133 H   0  0  0  0  0  0  0  0  0  0  0  0  # atno 10167 bound_to 10162
  156.0108  130.5239  150.6526 H   0  0  0  0  0  0  0  0  0  0  0  0  # atno 10718 bound_to 10713
  153.9416  135.6760  153.4744 H   0  0  0  0  0  0  0  0  0  0  0  0  # atno 10763 bound_to 10752
  153.0928  135.4866  154.8720 H   0  0  0  0  0  0  0  0  0  0  0  0  # atno 10764 bound_to 10752
  154.7374  135.3152  154.8746 H   0  0  0  0  0  0  0  0  0  0  0  0  # atno 10765 bound_to 10752
  141.1217  133.8504  157.1273 H   0  0  0  0  0  0  0  0  0  0  0  0  # atno 11005 bound_to 11000
  144.7218  139.8005  143.7379 LP  0  0  0  0  0  0  0  0  0  0  0  0  # atno 17320 bound_to 7965
  146.1405  139.4461  143.0112 LP  0  0  0  0  0  0  0  0  0  0  0  0  # atno 17321 bound_to 7965
  140.7517  143.6223  150.8501 LP  0  0  0  0  0  0  0  0  0  0  0  0  # atno 17342 bound_to 10162
  139.9866  143.5892  152.2924 LP  0  0  0  0  0  0  0  0  0  0  0  0  # atno 17343 bound_to 10162
  157.4285  131.0846  151.1062 LP  0  0  0  0  0  0  0  0  0  0  0  0  # atno 17370 bound_to 10713
  157.1642  130.6239  149.5620 LP  0  0  0  0  0  0  0  0  0  0  0  0  # atno 17371 bound_to 10713
  140.0181  134.9958  157.0535 LP  0  0  0  0  0  0  0  0  0  0  0  0  # atno 17394 bound_to 11000
  140.4486  134.1606  155.7179 LP  0  0  0  0  0  0  0  0  0  0  0  0  # atno 17395 bound_to 11000

$$$$
