AV-unprocessed.smi:101|AV-procd|sdf|922|dock6
  -GOLD-   2262017433D 1   1.00000     0.00000
 Structure written by MMmdl.
 44 46  0  0  0  0  0  0  0  0  1 V2000
  154.0340  138.7701  154.1611 C   0  0  0  0  0  0  0  0  0  0  0  0
  152.9914  138.4195  155.2105 C   0  0  0  0  0  0  0  0  0  0  0  0
  151.6666  138.6509  155.0259 C   0  0  0  0  0  0  0  0  0  0  0  0
  150.6813  138.3270  155.9537 N   0  0  0  0  0  0  0  0  0  0  0  0
  149.2124  138.6406  155.6964 C   0  0  1  0  0  0  0  0  0  0  0  0
  148.8600  139.7965  156.4059 O   0  0  0  0  0  0  0  0  0  0  0  0
  148.8120  140.9337  155.5485 C   0  0  1  0  0  0  0  0  0  0  0  0
  150.2153  141.5514  155.3724 C   0  0  0  0  0  0  0  0  0  0  0  0
  150.5884  142.2205  156.5657 O   0  0  0  0  0  0  0  0  0  0  0  0
  151.4705  141.6508  157.4109 C   0  0  0  0  0  0  0  0  0  0  0  0
  151.9684  140.5378  157.2308 O   0  0  0  0  0  0  0  0  0  0  0  0
  151.7595  142.4974  158.6033 C   0  0  0  0  0  0  0  0  0  0  0  0
  152.5485  141.9699  159.6519 C   0  0  0  0  0  0  0  0  0  0  0  0
  152.8246  142.7395  160.7984 C   0  0  0  0  0  0  0  0  0  0  0  0
  152.3157  144.0465  160.9097 C   0  0  0  0  0  0  0  0  0  0  0  0
  151.5293  144.5826  159.8733 C   0  0  0  0  0  0  0  0  0  0  0  0
  151.2516  143.8141  158.7261 C   0  0  0  0  0  0  0  0  0  0  0  0
  148.2243  140.3191  154.2776 C   0  0  1  0  0  0  0  0  0  0  0  0
  148.4846  141.1013  153.1277 O   0  0  0  0  0  0  0  0  0  0  0  0
  148.8989  138.9529  154.2076 C   0  0  2  0  0  0  0  0  0  0  0  0
  148.0064  138.0099  153.6483 O   0  0  0  0  0  0  0  0  0  0  0  0
  151.0828  137.8555  157.2240 C   0  0  0  0  0  0  0  0  0  0  0  0
  150.2975  137.6742  158.1531 O   0  0  0  0  0  0  0  0  0  0  0  0
  152.4403  137.6009  157.4100 N   0  0  0  0  0  0  0  0  0  0  0  0
  153.4470  137.8270  156.4694 C   0  0  0  0  0  0  0  0  0  0  0  0
  154.6118  137.5441  156.7447 O   0  0  0  0  0  0  0  0  0  0  0  0
  152.7229  137.2349  158.3076 H   0  0  0  0  0  0  0  0  0  0  0  0
  153.5869  139.2469  153.2883 H   0  0  0  0  0  0  0  0  0  0  0  0
  154.5476  137.8700  153.8215 H   0  0  0  0  0  0  0  0  0  0  0  0
  154.7761  139.4559  154.5711 H   0  0  0  0  0  0  0  0  0  0  0  0
  151.3807  139.1201  154.0967 H   0  0  0  0  0  0  0  0  0  0  0  0
  148.6777  137.7792  156.1006 H   0  0  0  0  0  0  0  0  0  0  0  0
  148.1363  141.6833  155.9618 H   0  0  0  0  0  0  0  0  0  0  0  0
  150.9447  140.7836  155.1125 H   0  0  0  0  0  0  0  0  0  0  0  0
  150.2122  142.2779  154.5594 H   0  0  0  0  0  0  0  0  0  0  0  0
  152.9473  140.9674  159.5904 H   0  0  0  0  0  0  0  0  0  0  0  0
  153.4270  142.3256  161.5935 H   0  0  0  0  0  0  0  0  0  0  0  0
  152.5276  144.6367  161.7890 H   0  0  0  0  0  0  0  0  0  0  0  0
  151.1376  145.5854  159.9580 H   0  0  0  0  0  0  0  0  0  0  0  0
  150.6419  144.2546  157.9507 H   0  0  0  0  0  0  0  0  0  0  0  0
  147.1460  140.2063  154.4049 H   0  0  0  0  0  0  0  0  0  0  0  0
  148.4623  140.5382  152.3690 H   0  0  0  0  0  0  0  0  0  0  0  0
  149.8176  139.0196  153.6232 H   0  0  0  0  0  0  0  0  0  0  0  0
  148.5130  137.3601  153.1848 H   0  0  0  0  0  0  0  0  0  0  0  0
  1  2  1  0  0  0  0
  1 28  1  0  0  0  0
  1 29  1  0  0  0  0
  1 30  1  0  0  0  0
  2 25  1  0  0  0  0
  2  3  2  0  0  0  0
  3  4  1  0  0  0  0
  3 31  1  0  0  0  0
  4  5  1  0  0  0  0
  4 22  1  0  0  0  0
  5 20  1  0  0  0  0
  5  6  1  0  0  0  0
  5 32  1  0  0  0  0
  6  7  1  0  0  0  0
  7  8  1  0  0  0  0
  7 18  1  0  0  0  0
  7 33  1  0  0  0  0
  8  9  1  0  0  0  0
  8 34  1  0  0  0  0
  8 35  1  0  0  0  0
  9 10  1  0  0  0  0
 10 11  2  0  0  0  0
 10 12  1  0  0  0  0
 12 17  1  0  0  0  0
 12 13  2  0  0  0  0
 13 14  1  0  0  0  0
 13 36  1  0  0  0  0
 14 15  2  0  0  0  0
 14 37  1  0  0  0  0
 15 16  1  0  0  0  0
 15 38  1  0  0  0  0
 16 17  2  0  0  0  0
 16 39  1  0  0  0  0
 17 40  1  0  0  0  0
 18 19  1  0  0  0  0
 18 20  1  0  0  0  0
 18 41  1  0  0  0  0
 19 42  1  0  0  0  0
 20 21  1  0  0  0  0
 20 43  1  0  0  0  0
 21 44  1  0  0  0  0
 22 23  2  0  0  0  0
 22 24  1  0  0  0  0
 24 27  1  0  0  0  0
 24 25  1  0  0  0  0
 25 26  2  0  0  0  0
M  END
> <s_m_source_file>
AV-unprocessed.smi

> <i_m_source_file_index>
101

> <i_lp_mmshare_version>
43012

> <i_f3d_flags>
0

> <s_epik_input>
Tz1jMVtuSF1jKD1PKW4oW2NIXWMxW0NIM10pW0NAQEhdMk9bQ0BIXShbQ0BASF0oW09IXSlbQ0BIXTJbT0hdKVtDSDJdT0MoPU8pYzNbY0hdW2NIXVtjSF1bY0hdW2NIXTM=

> <s_epik_cmdline>
J2VwaWtfcHl0aG9uJywgJy1waCcsICc3LjAnLCAnLXRuJywgJzgnLCAnLW1hJywgJzIwMCcsICctbWV0YWxfYmluZGluZycsICctaW1hZScsICc8aW5maWxlLm1hZT4nLCAnLW9tYWUnLCAnPG91dGZpbGUubWFlPic=

> <r_lp_tautomer_probability>
0.999537

> <r_epik_Ionization_Penalty>
0.00263537

> <r_epik_Ionization_Penalty_Charging>
0.00263428

> <r_epik_Ionization_Penalty_Neutral>
1.09111e-06

> <r_epik_State_Penalty>
0.00183335

> <r_epik_Charging_Adjusted_Penalty>
0.00446763

> <i_epik_Tot_Q>
0

> <i_epik_Tot_abs_Q>
0

> <r_epik_Metal_State_Penalty>
1.00528

> <b_epik_Metal_Only>
0

> <s_epik_Chemistry_Notes>
This compound has an ester and may undergo hydrolysis at high or low pH. This compound contains an acetal/aminal-like group ( X-CH(R)-Y where X, Y are N, S, or O) that may be acid/base labile, releasing an aldehyde.

> <s_lp_Force_Field>
OPLS_2005

> <r_lp_Energy>
31.3632

> <b_lp_Chiralities_Consistent>
1

> <s_lp_Variant>
AV-unprocessed.smi:101-10

> <Gold.Version>
5.8.1

> <Gold.Id.Protein>
6NUR|6NUR_protein|mol2

> <Gold.PLP.Fitness>
47.1626

> <Gold.PLP.PLP>
-40.2844

> <Gold.PLP.part.hbond>
-3.3031

> <Gold.PLP.part.metal>
0.0000

> <Gold.PLP.part.buried>
-2.7308

> <Gold.PLP.part.nonpolar>
-33.8059

> <Gold.PLP.part.repulsive>
0.6932

> <Gold.PLP.ligand.clash>
0.0000

> <Gold.PLP.ligand.torsion>
0.7083

> <Gold.PLP.Chemscore.Hbond>
2.7020

> <Gold.PLP.Chemscore.CHOScore>
0.0000

> <Gold.PLP.Chemscore.Metal>
0.0000

> <Gold.Chemscore.Hbonds>
donor molecule, donor type, donor heavy atom, donor atom, acceptor molecule, acceptor atom, score
      L1  H    19    42       P1  7957  0.72
      L1  H    21    44       P1  7948  1.00
      P1  H  8011  8017       L1    19  0.73

> <Gold.PLP.Chemscore.Internal.Correction>
0.1887

> <Gold.Rescore>
     Score         DG    S(hbond)    S(metal)    S(lipo)     H(rot)  DE(clash)    DE(int)     intcor
     15.69     -16.79       1.85        0.00     116.29       3.32       0.28       0.82       ----

> <Gold.Chemscore.Fitness>
15.6939

> <Gold.Chemscore.DG>
-16.7896

> <Gold.Chemscore.ZeroCoef>
-5.4800

> <Gold.Chemscore.Hbond>
1.8550

> <Gold.Chemscore.Metal>
0.0000

> <Gold.Chemscore.Lipo>
116.2907

> <Gold.Chemscore.Internal_Hbond>
0.0000

> <Gold.Chemscore.DEClash>
0.2766

> <Gold.Chemscore.DEInternal>
0.8191

> <Gold.Chemscore.Rot>
3.3172

> <Gold.Chemscore.Internal.Correction>
   9.000000E+99

> <Gold.Chemscore.Hbonds>
donor molecule, donor type, donor heavy atom, donor atom, acceptor molecule, acceptor atom, score
      L1  H    19    42       P1  7957  0.72
      L1  H    21    44       P1  7948  0.99
      P1  H  8011  8017       L1    19  0.08

> <Gold.Chemscore.Hbond.Weighted>
-6.1956

> <Gold.Chemscore.Metal.Weighted>
-0.0000

> <Gold.Chemscore.Lipo.Weighted>
-13.6060

> <Gold.Chemscore.Internal_Hbond.Weighted>
0.0000

> <Gold.Chemscore.DEClash.Weighted>
0.2766

> <Gold.Chemscore.DEInternal.Weighted>
0.8191

> <Gold.Chemscore.Rot.Weighted>
8.4920

> <Gold.Chemscore.Internal.Correction.Weighted>
   9.000000E+99

> <Gold.Protein.RotatedTorsions>
[ 6907 6896 6895 6894 ] final -108.46 input  -60.11 | X-H torsion
[ 7974 7965 7964 7962 ] final  169.61 input  175.53 | X-H torsion
[ 8008 7997 7996 7995 ] final   44.57 input   59.86 | X-H torsion
[ 10167 10162 10161 10158 ] final  103.61 input  -65.29 | X-H torsion
[ 10718 10713 10712 10709 ] final   53.26 input   66.30 | X-H torsion
[ 10763 10752 10751 10750 ] final -111.36 input  -60.55 | X-H torsion
[ 11005 11000 10999 10996 ] final   86.84 input  -57.11 | X-H torsion

> <Gold.Protein.ActiveResidues>
 VAL166  LYS551  ARG553  GLY616  TRP617  ASP618  TYR619  PRO620  LYS621  CYS622 
 ASP623  PHE694  ASN695  SER759  ASP760  ASP761  ALA762  ILE779  LEU786  VAL792 
 PHE793  MET794  SER795  GLU796  ALA797  LYS798  CYS799  TRP800  GLU811  SER814 

> <Gold.Protein.RotatedAtoms>
  150.7503  133.9674  159.3534 H   0  0  0  0  0  0  0  0  0  0  0  0  # atno 6907 bound_to 6896
  151.7605  135.0809  160.0354 H   0  0  0  0  0  0  0  0  0  0  0  0  # atno 6908 bound_to 6896
  152.3406  133.6026  159.5910 H   0  0  0  0  0  0  0  0  0  0  0  0  # atno 6909 bound_to 6896
  144.7349  139.9080  143.6413 H   0  0  0  0  0  0  0  0  0  0  0  0  # atno 7974 bound_to 7965
  155.3215  140.3397  155.4241 H   0  0  0  0  0  0  0  0  0  0  0  0  # atno 8008 bound_to 7997
  156.1906  140.1696  156.8136 H   0  0  0  0  0  0  0  0  0  0  0  0  # atno 8009 bound_to 7997
  154.5438  140.0719  156.8538 H   0  0  0  0  0  0  0  0  0  0  0  0  # atno 8010 bound_to 7997
  139.7248  144.7050  151.0816 H   0  0  0  0  0  0  0  0  0  0  0  0  # atno 10167 bound_to 10162
  157.5151  130.8527  149.8484 H   0  0  0  0  0  0  0  0  0  0  0  0  # atno 10718 bound_to 10713
  154.8296  135.4530  154.1027 H   0  0  0  0  0  0  0  0  0  0  0  0  # atno 10763 bound_to 10752
  153.2311  135.6905  153.7895 H   0  0  0  0  0  0  0  0  0  0  0  0  # atno 10764 bound_to 10752
  153.7277  135.3332  155.3256 H   0  0  0  0  0  0  0  0  0  0  0  0  # atno 10765 bound_to 10752
  139.8934  134.8382  156.2776 H   0  0  0  0  0  0  0  0  0  0  0  0  # atno 11005 bound_to 11000
  146.1022  139.4019  143.0339 LP  0  0  0  0  0  0  0  0  0  0  0  0  # atno 17320 bound_to 7965
  145.7562  140.9953  143.1224 LP  0  0  0  0  0  0  0  0  0  0  0  0  # atno 17321 bound_to 7965
  140.7760  143.5120  150.9641 LP  0  0  0  0  0  0  0  0  0  0  0  0  # atno 17342 bound_to 10162
  139.8807  143.7076  152.3157 LP  0  0  0  0  0  0  0  0  0  0  0  0  # atno 17343 bound_to 10162
  156.0315  130.3763  150.1676 LP  0  0  0  0  0  0  0  0  0  0  0  0  # atno 17370 bound_to 10713
  156.9865  130.9880  151.3425 LP  0  0  0  0  0  0  0  0  0  0  0  0  # atno 17371 bound_to 10713
  141.0060  133.7123  156.1035 LP  0  0  0  0  0  0  0  0  0  0  0  0  # atno 17394 bound_to 11000
  140.7433  134.4126  157.5552 LP  0  0  0  0  0  0  0  0  0  0  0  0  # atno 17395 bound_to 11000

$$$$
