AV-unprocessed.smi:1194|AV-procd|sdf|4992|dock9
  -GOLD-   22720 3593D 1   1.00000     0.00000
 Structure written by MMmdl.
 48 49  0  0  0  0  0  0  0  0  2 V2000
  152.4253  143.6906  160.7958 C   0  0  0  0  0  0  0  0  0  0  0  0
  152.9190  142.4208  160.0938 C   0  0  0  0  0  0  0  0  0  0  0  0
  151.9452  141.9374  159.0018 C   0  0  0  0  0  0  0  0  0  0  0  0
  152.4053  140.6618  158.2711 C   0  0  0  0  0  0  0  0  0  0  0  0
  153.4791  140.1553  158.6027 O   0  0  0  0  0  0  0  0  0  0  0  0
  151.6355  140.1414  157.2759 N   0  0  0  0  0  0  0  0  0  0  0  0
  151.9743  138.8864  156.5627 C   0  0  0  0  0  0  0  0  0  0  0  0
  151.7530  139.0002  155.0469 C   0  0  0  0  0  0  0  0  0  0  0  0
  150.3402  139.4906  154.7282 C   0  0  0  0  0  0  0  0  0  0  0  0
  150.0990  140.8236  155.4416 C   0  0  0  0  0  0  0  0  0  0  0  0
  150.3035  140.7365  156.9742 C   0  0  1  0  0  0  0  0  0  0  0  0
  149.1244  140.0046  157.6588 C   0  0  0  0  0  0  0  0  0  0  0  0
  148.1081  140.6324  157.9553 O   0  0  0  0  0  0  0  0  0  0  0  0
  149.2776  138.7053  157.9631 N   0  0  0  0  0  0  0  0  0  0  0  0
  148.3444  137.8980  158.7400 C   0  0  0  0  0  0  0  0  0  0  0  0
  149.0688  136.8603  159.6212 C   0  0  0  0  0  0  0  0  0  0  0  0
  148.1692  136.2274  160.6713 C   0  0  0  0  0  0  0  0  0  0  0  0
  147.6759  136.9912  161.7519 C   0  0  0  0  0  0  0  0  0  0  0  0
  146.8168  136.3847  162.6922 C   0  0  0  0  0  0  0  0  0  0  0  0
  146.4719  135.0271  162.5317 C   0  0  0  0  0  0  0  0  0  0  0  0
  146.9656  134.3272  161.4872 N   0  3  0  0  0  0  0  0  0  0  0  0
  147.7904  134.8708  160.5661 C   0  0  0  0  0  0  0  0  0  0  0  0
  153.1320  144.0109  161.5617 H   0  0  0  0  0  0  0  0  0  0  0  0
  151.4629  143.5238  161.2804 H   0  0  0  0  0  0  0  0  0  0  0  0
  152.3072  144.5114  160.0880 H   0  0  0  0  0  0  0  0  0  0  0  0
  153.8986  142.6181  159.6568 H   0  0  0  0  0  0  0  0  0  0  0  0
  153.0622  141.6373  160.8391 H   0  0  0  0  0  0  0  0  0  0  0  0
  150.9686  141.7513  159.4507 H   0  0  0  0  0  0  0  0  0  0  0  0
  151.8237  142.7372  158.2704 H   0  0  0  0  0  0  0  0  0  0  0  0
  153.0054  138.5692  156.7029 H   0  0  0  0  0  0  0  0  0  0  0  0
  151.3639  138.0752  156.9589 H   0  0  0  0  0  0  0  0  0  0  0  0
  152.4843  139.6899  154.6230 H   0  0  0  0  0  0  0  0  0  0  0  0
  151.9275  138.0346  154.5713 H   0  0  0  0  0  0  0  0  0  0  0  0
  150.2197  139.6136  153.6516 H   0  0  0  0  0  0  0  0  0  0  0  0
  149.6038  138.7503  155.0434 H   0  0  0  0  0  0  0  0  0  0  0  0
  150.7869  141.5680  155.0381 H   0  0  0  0  0  0  0  0  0  0  0  0
  149.1011  141.1936  155.2025 H   0  0  0  0  0  0  0  0  0  0  0  0
  150.2467  141.7660  157.3306 H   0  0  0  0  0  0  0  0  0  0  0  0
  150.1381  138.2578  157.6822 H   0  0  0  0  0  0  0  0  0  0  0  0
  147.6906  138.5300  159.3431 H   0  0  0  0  0  0  0  0  0  0  0  0
  147.7015  137.3804  158.0276 H   0  0  0  0  0  0  0  0  0  0  0  0
  149.4787  136.0713  158.9890 H   0  0  0  0  0  0  0  0  0  0  0  0
  149.9232  137.3250  160.1144 H   0  0  0  0  0  0  0  0  0  0  0  0
  147.9453  138.0323  161.8553 H   0  0  0  0  0  0  0  0  0  0  0  0
  146.4258  136.9536  163.5232 H   0  0  0  0  0  0  0  0  0  0  0  0
  145.8187  134.4851  163.1998 H   0  0  0  0  0  0  0  0  0  0  0  0
  148.1075  134.2126  159.7702 H   0  0  0  0  0  0  0  0  0  0  0  0
  146.6989  133.3475  161.3855 H   0  0  0  0  0  0  0  0  0  0  0  0
  1  2  1  0  0  0  0
  1 23  1  0  0  0  0
  1 24  1  0  0  0  0
  1 25  1  0  0  0  0
  2  3  1  0  0  0  0
  2 26  1  0  0  0  0
  2 27  1  0  0  0  0
  3  4  1  0  0  0  0
  3 28  1  0  0  0  0
  3 29  1  0  0  0  0
  4  5  2  0  0  0  0
  4  6  1  0  0  0  0
  6 11  1  0  0  0  0
  6  7  1  0  0  0  0
  7  8  1  0  0  0  0
  7 30  1  0  0  0  0
  7 31  1  0  0  0  0
  8  9  1  0  0  0  0
  8 32  1  0  0  0  0
  8 33  1  0  0  0  0
  9 10  1  0  0  0  0
  9 34  1  0  0  0  0
  9 35  1  0  0  0  0
 10 11  1  0  0  0  0
 10 36  1  0  0  0  0
 10 37  1  0  0  0  0
 11 12  1  0  0  0  0
 11 38  1  0  0  0  0
 12 13  2  0  0  0  0
 12 14  1  0  0  0  0
 14 15  1  0  0  0  0
 14 39  1  0  0  0  0
 15 16  1  0  0  0  0
 15 40  1  0  0  0  0
 15 41  1  0  0  0  0
 16 17  1  0  0  0  0
 16 42  1  0  0  0  0
 16 43  1  0  0  0  0
 17 22  1  0  0  0  0
 17 18  2  0  0  0  0
 18 19  1  0  0  0  0
 18 44  1  0  0  0  0
 19 20  2  0  0  0  0
 19 45  1  0  0  0  0
 20 21  1  0  0  0  0
 20 46  1  0  0  0  0
 21 22  2  0  0  0  0
 21 48  1  0  0  0  0
 22 47  1  0  0  0  0
M  CHG  1  21   1
M  END
> <s_m_source_file>
AV-unprocessed.smi

> <i_m_source_file_index>
1194

> <i_lp_mmshare_version>
43012

> <i_f3d_flags>
0

> <s_epik_input>
W0NIM11bQ0gyXVtDSDJdQyg9TylOMVtDSDJdW0NIMl1bQ0gyXVtDSDJdW0NASF0xQyg9TylbTkhdW0NIMl1bQ0gyXWMyW2NIXVtjSF1bY0hdbltjSF0y

> <s_epik_cmdline>
J2VwaWtfcHl0aG9uJywgJy1waCcsICc3LjAnLCAnLXRuJywgJzgnLCAnLW1hJywgJzIwMCcsICctbWV0YWxfYmluZGluZycsICctaW1hZScsICc8aW5maWxlLm1hZT4nLCAnLW9tYWUnLCAnPG91dGZpbGUubWFlPic=

> <r_epik_Ionization_Penalty>
2.26523

> <r_epik_Ionization_Penalty_Charging>
2.26523

> <r_epik_Ionization_Penalty_Neutral>
5.33649e-08

> <r_epik_State_Penalty>
2.41338

> <r_epik_Charging_Adjusted_Penalty>
4.67861

> <i_epik_Tot_Q>
1

> <i_epik_Tot_abs_Q>
1

> <r_epik_Metal_State_Penalty>
2.42628

> <b_epik_Metal_Only>
0

> <s_lp_Force_Field>
OPLS_2005

> <r_lp_Energy>
32.0414

> <b_lp_Chiralities_Consistent>
1

> <s_lp_Variant>
AV-unprocessed.smi:1194-3

> <Gold.Version>
5.8.1

> <Gold.Id.Protein>
6NUR|6NUR_protein|mol2

> <Gold.PLP.Fitness>
45.4753

> <Gold.PLP.PLP>
-44.3996

> <Gold.PLP.part.hbond>
-1.8190

> <Gold.PLP.part.metal>
0.0000

> <Gold.PLP.part.buried>
-3.0561

> <Gold.PLP.part.nonpolar>
-38.3798

> <Gold.PLP.part.repulsive>
0.1393

> <Gold.PLP.ligand.clash>
0.0000

> <Gold.PLP.ligand.torsion>
0.9942

> <Gold.PLP.Chemscore.Hbond>
0.9920

> <Gold.PLP.Chemscore.CHOScore>
0.0000

> <Gold.PLP.Chemscore.Metal>
0.0000

> <Gold.Chemscore.Hbonds>
donor molecule, donor type, donor heavy atom, donor atom, acceptor molecule, acceptor atom, score
      P1  H  7997  8008       L1     5  0.98

> <Gold.PLP.Chemscore.Internal.Correction>
0.0880

> <Gold.Rescore>
     Score         DG    S(hbond)    S(metal)    S(lipo)     H(rot)  DE(clash)    DE(int)     intcor
     15.66     -16.95       0.93        0.00     110.74       1.80       0.03       1.26       ----

> <Gold.Chemscore.Fitness>
15.6623

> <Gold.Chemscore.DG>
-16.9520

> <Gold.Chemscore.ZeroCoef>
-5.4800

> <Gold.Chemscore.Hbond>
0.9342

> <Gold.Chemscore.Metal>
0.0000

> <Gold.Chemscore.Lipo>
110.7355

> <Gold.Chemscore.Internal_Hbond>
0.0000

> <Gold.Chemscore.DEClash>
0.0339

> <Gold.Chemscore.DEInternal>
1.2558

> <Gold.Chemscore.Rot>
1.7985

> <Gold.Chemscore.Internal.Correction>
   9.000000E+99

> <Gold.Chemscore.Hbonds>
donor molecule, donor type, donor heavy atom, donor atom, acceptor molecule, acceptor atom, score
      P1  H  7997  8008       L1     5  0.79

> <Gold.Chemscore.Hbond.Weighted>
-3.1201

> <Gold.Chemscore.Metal.Weighted>
-0.0000

> <Gold.Chemscore.Lipo.Weighted>
-12.9561

> <Gold.Chemscore.Internal_Hbond.Weighted>
0.0000

> <Gold.Chemscore.DEClash.Weighted>
0.0339

> <Gold.Chemscore.DEInternal.Weighted>
1.2558

> <Gold.Chemscore.Rot.Weighted>
4.6041

> <Gold.Chemscore.Internal.Correction.Weighted>
   9.000000E+99

> <Gold.Protein.RotatedTorsions>
[ 6907 6896 6895 6894 ] final   37.89 input  -60.11 | X-H torsion
[ 7974 7965 7964 7962 ] final   59.84 input  175.53 | X-H torsion
[ 8008 7997 7996 7995 ] final  -96.46 input   59.86 | X-H torsion
[ 10167 10162 10161 10158 ] final  152.75 input  -65.29 | X-H torsion
[ 10718 10713 10712 10709 ] final -136.19 input   66.30 | X-H torsion
[ 10763 10752 10751 10750 ] final   23.92 input  -60.55 | X-H torsion
[ 11005 11000 10999 10996 ] final   19.46 input  -57.11 | X-H torsion

> <Gold.Protein.ActiveResidues>
 VAL166  LYS551  ARG553  GLY616  TRP617  ASP618  TYR619  PRO620  LYS621  CYS622 
 ASP623  PHE694  ASN695  SER759  ASP760  ASP761  ALA762  ILE779  LEU786  VAL792 
 PHE793  MET794  SER795  GLU796  ALA797  LYS798  CYS799  TRP800  GLU811  SER814 

> <Gold.Protein.RotatedAtoms>
  152.1492  134.9001  160.0548 H   0  0  0  0  0  0  0  0  0  0  0  0  # atno 6907 bound_to 6896
  152.0039  133.3831  159.4201 H   0  0  0  0  0  0  0  0  0  0  0  0  # atno 6908 bound_to 6896
  150.6873  134.3725  159.5042 H   0  0  0  0  0  0  0  0  0  0  0  0  # atno 6909 bound_to 6896
  145.9027  139.3593  143.0583 H   0  0  0  0  0  0  0  0  0  0  0  0  # atno 7974 bound_to 7965
  154.7748  140.0471  157.1080 H   0  0  0  0  0  0  0  0  0  0  0  0  # atno 8008 bound_to 7997
  154.9776  140.3097  155.4941 H   0  0  0  0  0  0  0  0  0  0  0  0  # atno 8009 bound_to 7997
  156.2927  140.2242  156.4873 H   0  0  0  0  0  0  0  0  0  0  0  0  # atno 8010 bound_to 7997
  139.4831  144.5331  151.7689 H   0  0  0  0  0  0  0  0  0  0  0  0  # atno 10167 bound_to 10162
  156.2743  130.7284  151.1261 H   0  0  0  0  0  0  0  0  0  0  0  0  # atno 10718 bound_to 10713
  153.0802  135.6616  154.0061 H   0  0  0  0  0  0  0  0  0  0  0  0  # atno 10763 bound_to 10752
  153.9685  135.2967  155.3430 H   0  0  0  0  0  0  0  0  0  0  0  0  # atno 10764 bound_to 10752
  154.7199  135.5169  153.8867 H   0  0  0  0  0  0  0  0  0  0  0  0  # atno 10765 bound_to 10752
  140.4135  134.1594  155.7668 H   0  0  0  0  0  0  0  0  0  0  0  0  # atno 11005 bound_to 11000
  145.8771  140.9385  143.0620 LP  0  0  0  0  0  0  0  0  0  0  0  0  # atno 17320 bound_to 7965
  144.6737  140.0731  143.7472 LP  0  0  0  0  0  0  0  0  0  0  0  0  # atno 17321 bound_to 7965
  140.4860  144.1380  150.5941 LP  0  0  0  0  0  0  0  0  0  0  0  0  # atno 17342 bound_to 10162
  140.4224  143.2605  151.9698 LP  0  0  0  0  0  0  0  0  0  0  0  0  # atno 17343 bound_to 10162
  157.7294  131.0624  150.5775 LP  0  0  0  0  0  0  0  0  0  0  0  0  # atno 17370 bound_to 10713
  156.5874  130.4320  149.5951 LP  0  0  0  0  0  0  0  0  0  0  0  0  # atno 17371 bound_to 10713
  141.1812  133.8410  157.1251 LP  0  0  0  0  0  0  0  0  0  0  0  0  # atno 17394 bound_to 11000
  140.0251  134.9928  157.0669 LP  0  0  0  0  0  0  0  0  0  0  0  0  # atno 17395 bound_to 11000

$$$$
