AV-unprocessed.smi:646|AV-procd|sdf|3165|dock5
  -GOLD-   22720 0 83D 1   1.00000     0.00000
 Structure written by MMmdl.
 44 45  0  0  0  0  0  0  0  0  1 V2000
  144.9476  138.0435  160.2262 C   0  0  0  0  0  0  0  0  0  0  0  0
  145.9978  137.5048  161.0207 O   0  0  0  0  0  0  0  0  0  0  0  0
  146.0401  136.0801  161.1810 C   0  0  1  0  0  0  0  0  0  0  0  0
  144.7827  135.5906  161.9117 C   0  0  0  0  0  0  0  0  0  0  0  0
  146.4501  135.4092  159.8563 C   0  0  0  0  0  0  0  0  0  0  0  0
  147.9161  135.5589  160.2682 C   0  0  1  0  0  0  0  0  0  0  0  0
  148.4936  136.7863  159.7234 N   0  0  0  0  0  0  0  0  0  0  0  0
  149.4694  136.8411  158.8052 C   0  0  0  0  0  0  0  0  0  0  0  0
  149.9850  135.8436  158.3018 O   0  0  0  0  0  0  0  0  0  0  0  0
  149.9501  138.2370  158.4050 C   0  0  0  0  0  0  0  0  0  0  0  0
  151.2620  138.1464  157.6670 C   0  0  0  0  0  0  0  0  0  0  0  0
  151.5477  138.5742  156.3391 C   0  0  0  0  0  0  0  0  0  0  0  0
  150.6197  139.2191  155.3503 C   0  0  0  0  0  0  0  0  0  0  0  0
  152.8074  138.3475  156.0067 N   0  0  0  0  0  0  0  0  0  0  0  0
  153.3976  137.7540  157.1267 O   0  0  0  0  0  0  0  0  0  0  0  0
  152.4596  137.6471  158.1016 C   0  0  0  0  0  0  0  0  0  0  0  0
  152.9043  137.0413  159.3898 C   0  0  0  0  0  0  0  0  0  0  0  0
  147.4453  135.6825  161.7418 C   0  0  0  0  0  0  0  0  0  0  0  0
  148.1504  136.7041  162.6498 C   0  0  0  0  0  0  0  0  0  0  0  0
  147.5083  134.3520  162.5069 C   0  0  0  0  0  0  0  0  0  0  0  0
  145.1266  139.1077  160.0756 H   0  0  0  0  0  0  0  0  0  0  0  0
  143.9802  137.9494  160.7189 H   0  0  0  0  0  0  0  0  0  0  0  0
  144.8877  137.5773  159.2433 H   0  0  0  0  0  0  0  0  0  0  0  0
  144.8354  134.5278  162.1449 H   0  0  0  0  0  0  0  0  0  0  0  0
  143.8844  135.7206  161.3090 H   0  0  0  0  0  0  0  0  0  0  0  0
  144.6367  136.1243  162.8510 H   0  0  0  0  0  0  0  0  0  0  0  0
  146.1406  134.3642  159.8048 H   0  0  0  0  0  0  0  0  0  0  0  0
  146.1761  135.9356  158.9420 H   0  0  0  0  0  0  0  0  0  0  0  0
  148.5013  134.6604  160.0645 H   0  0  0  0  0  0  0  0  0  0  0  0
  148.1342  137.6574  160.0863 H   0  0  0  0  0  0  0  0  0  0  0  0
  149.1794  138.7089  157.7948 H   0  0  0  0  0  0  0  0  0  0  0  0
  150.0442  138.8527  159.3002 H   0  0  0  0  0  0  0  0  0  0  0  0
  149.7431  138.5951  155.1755 H   0  0  0  0  0  0  0  0  0  0  0  0
  151.1043  139.3868  154.3877 H   0  0  0  0  0  0  0  0  0  0  0  0
  150.2707  140.1839  155.7186 H   0  0  0  0  0  0  0  0  0  0  0  0
  152.1667  137.2030  160.1759 H   0  0  0  0  0  0  0  0  0  0  0  0
  153.8458  137.4810  159.7193 H   0  0  0  0  0  0  0  0  0  0  0  0
  153.0515  135.9670  159.2801 H   0  0  0  0  0  0  0  0  0  0  0  0
  149.1857  136.4187  162.8395 H   0  0  0  0  0  0  0  0  0  0  0  0
  147.6511  136.7892  163.6155 H   0  0  0  0  0  0  0  0  0  0  0  0
  148.1754  137.7050  162.2195 H   0  0  0  0  0  0  0  0  0  0  0  0
  148.5388  134.0544  162.7039 H   0  0  0  0  0  0  0  0  0  0  0  0
  147.0474  133.5374  161.9477 H   0  0  0  0  0  0  0  0  0  0  0  0
  146.9980  134.4139  163.4687 H   0  0  0  0  0  0  0  0  0  0  0  0
  1  2  1  0  0  0  0
  1 21  1  0  0  0  0
  1 22  1  0  0  0  0
  1 23  1  0  0  0  0
  2  3  1  0  0  0  0
  3 18  1  0  0  0  0
  3  4  1  0  0  0  0
  3  5  1  0  0  0  0
  4 24  1  0  0  0  0
  4 25  1  0  0  0  0
  4 26  1  0  0  0  0
  5  6  1  0  0  0  0
  5 27  1  0  0  0  0
  5 28  1  0  0  0  0
  6  7  1  0  0  0  0
  6 18  1  0  0  0  0
  6 29  1  0  0  0  0
  7  8  1  0  0  0  0
  7 30  1  0  0  0  0
  8  9  2  0  0  0  0
  8 10  1  0  0  0  0
 10 11  1  0  0  0  0
 10 31  1  0  0  0  0
 10 32  1  0  0  0  0
 11 16  2  0  0  0  0
 11 12  1  0  0  0  0
 12 13  1  0  0  0  0
 12 14  2  0  0  0  0
 13 33  1  0  0  0  0
 13 34  1  0  0  0  0
 13 35  1  0  0  0  0
 14 15  1  0  0  0  0
 15 16  1  0  0  0  0
 16 17  1  0  0  0  0
 17 36  1  0  0  0  0
 17 37  1  0  0  0  0
 17 38  1  0  0  0  0
 18 19  1  0  0  0  0
 18 20  1  0  0  0  0
 19 39  1  0  0  0  0
 19 40  1  0  0  0  0
 19 41  1  0  0  0  0
 20 42  1  0  0  0  0
 20 43  1  0  0  0  0
 20 44  1  0  0  0  0
M  END
> <s_m_source_file>
AV-unprocessed.smi

> <i_m_source_file_index>
646

> <i_lp_mmshare_version>
43012

> <i_f3d_flags>
0

> <s_epik_input>
W0NIM11PW0NAQF0xKFtDSDNdKVtDSDJdW0NASF0oQzEoW0NIM10pW0NIM10pW05IXUMoPU8pW0NIMl1jMmMoW0NIM10pbm9jMltDSDNd

> <s_epik_cmdline>
J2VwaWtfcHl0aG9uJywgJy1waCcsICc3LjAnLCAnLXRuJywgJzgnLCAnLW1hJywgJzIwMCcsICctbWV0YWxfYmluZGluZycsICctaW1hZScsICc8aW5maWxlLm1hZT4nLCAnLW9tYWUnLCAnPG91dGZpbGUubWFlPic=

> <r_lp_tautomer_probability>
1

> <r_epik_Ionization_Penalty>
2.13169e-08

> <r_epik_Ionization_Penalty_Charging>
0

> <r_epik_Ionization_Penalty_Neutral>
2.13169e-08

> <r_epik_State_Penalty>
-0

> <r_epik_Charging_Adjusted_Penalty>
0

> <i_epik_Tot_Q>
0

> <i_epik_Tot_abs_Q>
0

> <r_epik_Metal_State_Penalty>
-0

> <b_epik_Metal_Only>
0

> <s_lp_Force_Field>
OPLS_2005

> <r_lp_Energy>
17.7516

> <b_lp_Chiralities_Consistent>
1

> <s_lp_Variant>
AV-unprocessed.smi:646-1

> <Gold.Version>
5.8.1

> <Gold.Id.Protein>
6NUR|6NUR_protein|mol2

> <Gold.PLP.Fitness>
36.7049

> <Gold.PLP.PLP>
-28.2776

> <Gold.PLP.part.hbond>
-3.8831

> <Gold.PLP.part.metal>
0.0000

> <Gold.PLP.part.buried>
-2.7806

> <Gold.PLP.part.nonpolar>
-22.7121

> <Gold.PLP.part.repulsive>
0.2342

> <Gold.PLP.ligand.clash>
0.0000

> <Gold.PLP.ligand.torsion>
0.4700

> <Gold.PLP.Chemscore.Hbond>
2.9920

> <Gold.PLP.Chemscore.CHOScore>
0.0000

> <Gold.PLP.Chemscore.Metal>
0.0000

> <Gold.Chemscore.Hbonds>
donor molecule, donor type, donor heavy atom, donor atom, acceptor molecule, acceptor atom, score
      P1  H  6896  6908       L1     9  1.00
      P1  H  6934  6947       L1     2  0.80
      P1  H  7997  8009       L1    14  0.07

> <Gold.PLP.Chemscore.Internal.Correction>
0.3913

> <Gold.Rescore>
     Score         DG    S(hbond)    S(metal)    S(lipo)     H(rot)  DE(clash)    DE(int)     intcor
     16.72     -18.98       2.49        0.00      76.82       1.49       1.59       0.67       ----

> <Gold.Chemscore.Fitness>
16.7216

> <Gold.Chemscore.DG>
-18.9776

> <Gold.Chemscore.ZeroCoef>
-5.4800

> <Gold.Chemscore.Hbond>
2.4945

> <Gold.Chemscore.Metal>
0.0000

> <Gold.Chemscore.Lipo>
76.8166

> <Gold.Chemscore.Internal_Hbond>
0.0000

> <Gold.Chemscore.DEClash>
1.5869

> <Gold.Chemscore.DEInternal>
0.6692

> <Gold.Chemscore.Rot>
1.4928

> <Gold.Chemscore.Internal.Correction>
   9.000000E+99

> <Gold.Chemscore.Hbonds>
donor molecule, donor type, donor heavy atom, donor atom, acceptor molecule, acceptor atom, score
      P1  H  6896  6908       L1     9  0.75
      P1  H  6934  6947       L1     2  0.12

> <Gold.Chemscore.Hbond.Weighted>
-8.3318

> <Gold.Chemscore.Metal.Weighted>
-0.0000

> <Gold.Chemscore.Lipo.Weighted>
-8.9875

> <Gold.Chemscore.Internal_Hbond.Weighted>
0.0000

> <Gold.Chemscore.DEClash.Weighted>
1.5869

> <Gold.Chemscore.DEInternal.Weighted>
0.6692

> <Gold.Chemscore.Rot.Weighted>
3.8217

> <Gold.Chemscore.Internal.Correction.Weighted>
   9.000000E+99

> <Gold.Protein.RotatedTorsions>
[ 6907 6896 6895 6894 ] final -177.84 input  -60.11 | X-H torsion
[ 7974 7965 7964 7962 ] final  123.02 input  175.53 | X-H torsion
[ 8008 7997 7996 7995 ] final -157.14 input   59.86 | X-H torsion
[ 10167 10162 10161 10158 ] final  163.24 input  -65.29 | X-H torsion
[ 10718 10713 10712 10709 ] final  179.05 input   66.30 | X-H torsion
[ 10763 10752 10751 10750 ] final -143.88 input  -60.55 | X-H torsion
[ 11005 11000 10999 10996 ] final  -77.08 input  -57.11 | X-H torsion

> <Gold.Protein.ActiveResidues>
 VAL166  LYS551  ARG553  GLY616  TRP617  ASP618  TYR619  PRO620  LYS621  CYS622 
 ASP623  PHE694  ASN695  SER759  ASP760  ASP761  ALA762  ILE779  LEU786  VAL792 
 PHE793  MET794  SER795  GLU796  ALA797  LYS798  CYS799  TRP800  GLU811  SER814 

> <Gold.Protein.RotatedAtoms>
  151.6275  133.3334  159.3101 H   0  0  0  0  0  0  0  0  0  0  0  0  # atno 6907 bound_to 6896
  150.8074  134.7211  159.6668 H   0  0  0  0  0  0  0  0  0  0  0  0  # atno 6908 bound_to 6896
  152.4169  134.6029  160.0056 H   0  0  0  0  0  0  0  0  0  0  0  0  # atno 6909 bound_to 6896
  145.1008  139.3520  143.4813 H   0  0  0  0  0  0  0  0  0  0  0  0  # atno 7974 bound_to 7965
  155.7279  140.0798  157.2302 H   0  0  0  0  0  0  0  0  0  0  0  0  # atno 8008 bound_to 7997
  154.4036  140.1600  156.2531 H   0  0  0  0  0  0  0  0  0  0  0  0  # atno 8009 bound_to 7997
  155.9136  140.3402  155.6120 H   0  0  0  0  0  0  0  0  0  0  0  0  # atno 8010 bound_to 7997
  139.4871  144.4357  151.9015 H   0  0  0  0  0  0  0  0  0  0  0  0  # atno 10167 bound_to 10162
  156.8816  130.9817  151.3061 H   0  0  0  0  0  0  0  0  0  0  0  0  # atno 10718 bound_to 10713
  154.8452  135.3456  154.6257 H   0  0  0  0  0  0  0  0  0  0  0  0  # atno 10763 bound_to 10752
  153.6866  135.6977  153.5106 H   0  0  0  0  0  0  0  0  0  0  0  0  # atno 10764 bound_to 10752
  153.2627  135.4318  155.0865 H   0  0  0  0  0  0  0  0  0  0  0  0  # atno 10765 bound_to 10752
  141.1658  133.7008  156.7766 H   0  0  0  0  0  0  0  0  0  0  0  0  # atno 11005 bound_to 11000
  146.3530  140.0884  142.8614 LP  0  0  0  0  0  0  0  0  0  0  0  0  # atno 17320 bound_to 7965
  145.0958  140.9314  143.4742 LP  0  0  0  0  0  0  0  0  0  0  0  0  # atno 17321 bound_to 7965
  140.3806  144.2740  150.5909 LP  0  0  0  0  0  0  0  0  0  0  0  0  # atno 17342 bound_to 10162
  140.5236  143.2259  151.8349 LP  0  0  0  0  0  0  0  0  0  0  0  0  # atno 17343 bound_to 10162
  157.6137  130.8602  149.8993 LP  0  0  0  0  0  0  0  0  0  0  0  0  # atno 17370 bound_to 10713
  156.0674  130.3690  150.0848 LP  0  0  0  0  0  0  0  0  0  0  0  0  # atno 17371 bound_to 10713
  140.2425  134.8603  157.3587 LP  0  0  0  0  0  0  0  0  0  0  0  0  # atno 17394 bound_to 11000
  140.1782  134.4523  155.7788 LP  0  0  0  0  0  0  0  0  0  0  0  0  # atno 17395 bound_to 11000

$$$$
