AV-unprocessed.smi:50|AV-procd|sdf|495|dock10
  -GOLD-   2262016363D 1   1.00000     0.00000
 Structure written by MMmdl.
 43 44  0  0  0  0  0  0  0  0  3 V2000
  145.1400  131.5583  150.5583 C   0  0  0  0  0  0  0  0  0  0  0  0
  145.5338  133.0041  150.9156 C   0  0  0  0  0  0  0  0  0  0  0  0
  146.1095  133.0337  152.3450 C   0  0  0  0  0  0  0  0  0  0  0  0
  144.3456  133.9824  150.7011 C   0  0  2  0  0  0  0  0  0  0  0  0
  144.0071  134.0993  149.2693 N   0  3  0  0  0  0  0  0  0  0  0  0
  144.6067  135.4111  151.2157 C   0  0  0  0  0  0  0  0  0  0  0  0
  145.5054  136.1488  150.8057 O   0  0  0  0  0  0  0  0  0  0  0  0
  143.7192  135.7302  152.1766 O   0  0  0  0  0  0  0  0  0  0  0  0
  143.6935  137.0333  152.7447 C   0  0  0  0  0  0  0  0  0  0  0  0
  142.5100  137.1640  153.7108 C   0  0  0  0  0  0  0  0  0  0  0  0
  141.3472  137.5538  152.9921 O   0  0  0  0  0  0  0  0  0  0  0  0
  140.1557  137.0085  153.4622 C   0  0  0  0  0  0  0  0  0  0  0  0
  139.1020  137.9910  153.2757 N   0  0  0  0  0  0  0  0  0  0  0  0
  139.1709  139.1020  152.5167 C   0  0  0  0  0  0  0  0  0  0  0  0
  138.0624  139.8397  152.4791 N   0  0  0  0  0  0  0  0  0  0  0  0
  137.2100  139.1240  153.3105 C   0  0  0  0  0  0  0  0  0  0  0  0
  135.7931  139.3434  153.6876 C   0  0  0  0  0  0  0  0  0  0  0  0
  135.2062  140.3327  153.2543 O   0  0  0  0  0  0  0  0  0  0  0  0
  135.2411  138.3781  154.4820 N   0  5  0  0  0  0  0  0  0  0  0  0
  136.0126  137.2941  154.9227 C   0  0  0  0  0  0  0  0  0  0  0  0
  135.3112  136.4351  155.7398 N   0  0  0  0  0  0  0  0  0  0  0  0
  137.2675  137.0451  154.6394 N   0  0  0  0  0  0  0  0  0  0  0  0
  137.8160  138.0013  153.8058 C   0  0  0  0  0  0  0  0  0  0  0  0
  143.4662  133.5846  151.2094 H   0  0  0  0  0  0  0  0  0  0  0  0
  144.3103  131.2126  151.1759 H   0  0  0  0  0  0  0  0  0  0  0  0
  145.9744  130.8733  150.7130 H   0  0  0  0  0  0  0  0  0  0  0  0
  144.8408  131.4620  149.5144 H   0  0  0  0  0  0  0  0  0  0  0  0
  146.3396  133.2958  150.2399 H   0  0  0  0  0  0  0  0  0  0  0  0
  145.3339  132.8394  153.0869 H   0  0  0  0  0  0  0  0  0  0  0  0
  146.5683  133.9939  152.5801 H   0  0  0  0  0  0  0  0  0  0  0  0
  146.8855  132.2781  152.4725 H   0  0  0  0  0  0  0  0  0  0  0  0
  144.7222  134.6394  148.8020 H   0  0  0  0  0  0  0  0  0  0  0  0
  143.1177  134.5671  149.1698 H   0  0  0  0  0  0  0  0  0  0  0  0
  144.6213  137.1530  153.3039 H   0  0  0  0  0  0  0  0  0  0  0  0
  143.6831  137.8205  151.9894 H   0  0  0  0  0  0  0  0  0  0  0  0
  142.3888  136.2347  154.2666 H   0  0  0  0  0  0  0  0  0  0  0  0
  142.7154  137.9399  154.4484 H   0  0  0  0  0  0  0  0  0  0  0  0
  139.8867  136.0690  152.9759 H   0  0  0  0  0  0  0  0  0  0  0  0
  140.2614  136.8236  154.5316 H   0  0  0  0  0  0  0  0  0  0  0  0
  140.0587  139.3710  151.9635 H   0  0  0  0  0  0  0  0  0  0  0  0
  134.3440  136.5717  155.9942 H   0  0  0  0  0  0  0  0  0  0  0  0
  135.7075  135.5876  156.1192 H   0  0  0  0  0  0  0  0  0  0  0  0
  143.9592  133.1792  148.8566 H   0  0  0  0  0  0  0  0  0  0  0  0
  1  2  1  0  0  0  0
  1 25  1  0  0  0  0
  1 26  1  0  0  0  0
  1 27  1  0  0  0  0
  2  3  1  0  0  0  0
  2  4  1  0  0  0  0
  2 28  1  0  0  0  0
  3 29  1  0  0  0  0
  3 30  1  0  0  0  0
  3 31  1  0  0  0  0
  4 24  1  0  0  0  0
  4  5  1  0  0  0  0
  4  6  1  0  0  0  0
  5 32  1  0  0  0  0
  5 33  1  0  0  0  0
  5 43  1  0  0  0  0
  6  7  2  0  0  0  0
  6  8  1  0  0  0  0
  8  9  1  0  0  0  0
  9 10  1  0  0  0  0
  9 34  1  0  0  0  0
  9 35  1  0  0  0  0
 10 11  1  0  0  0  0
 10 36  1  0  0  0  0
 10 37  1  0  0  0  0
 11 12  1  0  0  0  0
 12 13  1  0  0  0  0
 12 38  1  0  0  0  0
 12 39  1  0  0  0  0
 13 23  1  0  0  0  0
 13 14  1  0  0  0  0
 14 15  2  0  0  0  0
 14 40  1  0  0  0  0
 15 16  1  0  0  0  0
 16 23  2  0  0  0  0
 16 17  1  0  0  0  0
 17 18  2  0  0  0  0
 17 19  1  0  0  0  0
 19 20  1  0  0  0  0
 20 21  1  0  0  0  0
 20 22  2  0  0  0  0
 21 41  1  0  0  0  0
 21 42  1  0  0  0  0
 22 23  1  0  0  0  0
M  CHG  1   5   1
M  CHG  1  19  -1
M  END
> <s_m_source_file>
AV-unprocessed.smi

> <i_m_source_file_index>
50

> <i_lp_mmshare_version>
43012

> <i_f3d_flags>
0

> <s_epik_input>
W0NIM11bQ0hdKFtDSDNdKVtDQEhdKFtOSDJdKUMoPU8pT1tDSDJdW0NIMl1PW0NIMl1uKFtjSF1uMSljKGMxMiluYyhbTkgyXSlbbkhdYzI9Tw==

> <s_epik_cmdline>
J2VwaWtfcHl0aG9uJywgJy1waCcsICc3LjAnLCAnLXRuJywgJzgnLCAnLW1hJywgJzIwMCcsICctbWV0YWxfYmluZGluZycsICctaW1hZScsICc8aW5maWxlLm1hZT4nLCAnLW9tYWUnLCAnPG91dGZpbGUubWFlPic=

> <r_lp_tautomer_probability>
0.99994

> <r_epik_Ionization_Penalty>
3.77459

> <r_epik_Ionization_Penalty_Charging>
0.215994

> <r_epik_Ionization_Penalty_Neutral>
3.5586

> <r_epik_State_Penalty>
3.75449

> <r_epik_Charging_Adjusted_Penalty>
3.97048

> <i_epik_Tot_Q>
0

> <i_epik_Tot_abs_Q>
2

> <r_epik_Metal_State_Penalty>
0.723824

> <b_epik_Metal_Only>
1

> <s_epik_Chemistry_Notes>
This compound has an ester and may undergo hydrolysis at high or low pH. This compound contains an acetal/aminal-like group ( X-CH(R)-Y where X, Y are N, S, or O) that may be acid/base labile, releasing an aldehyde.

> <s_lp_Force_Field>
OPLS_2005

> <r_lp_Energy>
6.41072

> <b_lp_Chiralities_Consistent>
1

> <s_lp_Variant>
AV-unprocessed.smi:50-5

> <Gold.Version>
5.8.1

> <Gold.Id.Protein>
6NUR|6NUR_protein|mol2

> <Gold.PLP.Fitness>
44.3062

> <Gold.PLP.PLP>
-33.8971

> <Gold.PLP.part.hbond>
-3.0000

> <Gold.PLP.part.metal>
0.0000

> <Gold.PLP.part.buried>
-7.0852

> <Gold.PLP.part.nonpolar>
-25.8698

> <Gold.PLP.part.repulsive>
1.0846

> <Gold.PLP.ligand.clash>
0.0000

> <Gold.PLP.ligand.torsion>
0.9024

> <Gold.PLP.Chemscore.Hbond>
3.0000

> <Gold.PLP.Chemscore.CHOScore>
1.0000

> <Gold.PLP.Chemscore.Metal>
0.0000

> <Gold.Chemscore.Hbonds>
donor molecule, donor type, donor heavy atom, donor atom, acceptor molecule, acceptor atom, score
      L1  H     5    32       P1  7921  1.00
      L1  H     5    33       P1 10186  1.33

> <Gold.PLP.Chemscore.Internal.Correction>
0.2138

> <Gold.Rescore>
     Score         DG    S(hbond)    S(metal)    S(lipo)     H(rot)  DE(clash)    DE(int)     intcor
      2.94      -4.33       1.91        0.00      41.31       4.83       0.23       1.16       ----

> <Gold.Chemscore.Fitness>
2.9372

> <Gold.Chemscore.DG>
-4.3252

> <Gold.Chemscore.ZeroCoef>
-5.4800

> <Gold.Chemscore.Hbond>
1.9102

> <Gold.Chemscore.Metal>
0.0000

> <Gold.Chemscore.Lipo>
41.3072

> <Gold.Chemscore.Internal_Hbond>
0.0000

> <Gold.Chemscore.DEClash>
0.2260

> <Gold.Chemscore.DEInternal>
1.1621

> <Gold.Chemscore.Rot>
4.8312

> <Gold.Chemscore.Internal.Correction>
   9.000000E+99

> <Gold.Chemscore.Hbonds>
donor molecule, donor type, donor heavy atom, donor atom, acceptor molecule, acceptor atom, score
      L1  H     5    32       P1  7921  0.96
      L1  H     5    33       P1 10186  0.65

> <Gold.Chemscore.Hbond.Weighted>
-6.3801

> <Gold.Chemscore.Metal.Weighted>
-0.0000

> <Gold.Chemscore.Lipo.Weighted>
-4.8329

> <Gold.Chemscore.Internal_Hbond.Weighted>
0.0000

> <Gold.Chemscore.DEClash.Weighted>
0.2260

> <Gold.Chemscore.DEInternal.Weighted>
1.1621

> <Gold.Chemscore.Rot.Weighted>
12.3678

> <Gold.Chemscore.Internal.Correction.Weighted>
   9.000000E+99

> <Gold.Protein.RotatedTorsions>
[ 6907 6896 6895 6894 ] final  -86.00 input  -60.11 | X-H torsion
[ 7974 7965 7964 7962 ] final -166.42 input  175.53 | X-H torsion
[ 8008 7997 7996 7995 ] final  -11.09 input   59.86 | X-H torsion
[ 10167 10162 10161 10158 ] final   59.27 input  -65.29 | X-H torsion
[ 10718 10713 10712 10709 ] final  -18.09 input   66.30 | X-H torsion
[ 10763 10752 10751 10750 ] final  -56.63 input  -60.55 | X-H torsion
[ 11005 11000 10999 10996 ] final  -35.17 input  -57.11 | X-H torsion

> <Gold.Protein.ActiveResidues>
 VAL166  LYS551  ARG553  GLY616  TRP617  ASP618  TYR619  PRO620  LYS621  CYS622 
 ASP623  PHE694  ASN695  SER759  ASP760  ASP761  ALA762  ILE779  LEU786  VAL792 
 PHE793  MET794  SER795  GLU796  ALA797  LYS798  CYS799  TRP800  GLU811  SER814 

> <Gold.Protein.RotatedAtoms>
  150.6868  134.3118  159.4749 H   0  0  0  0  0  0  0  0  0  0  0  0  # atno 6907 bound_to 6896
  152.1003  134.9344  160.0579 H   0  0  0  0  0  0  0  0  0  0  0  0  # atno 6908 bound_to 6896
  152.0626  133.4034  159.4461 H   0  0  0  0  0  0  0  0  0  0  0  0  # atno 6909 bound_to 6896
  144.7246  140.2669  143.6256 H   0  0  0  0  0  0  0  0  0  0  0  0  # atno 7974 bound_to 7965
  154.5495  140.2311  155.8507 H   0  0  0  0  0  0  0  0  0  0  0  0  # atno 8008 bound_to 7997
  156.1934  140.3071  155.9339 H   0  0  0  0  0  0  0  0  0  0  0  0  # atno 8009 bound_to 7997
  155.3098  140.0435  157.3025 H   0  0  0  0  0  0  0  0  0  0  0  0  # atno 8010 bound_to 7997
  140.1782  144.4208  150.6628 H   0  0  0  0  0  0  0  0  0  0  0  0  # atno 10167 bound_to 10162
  156.5644  130.4734  149.6391 H   0  0  0  0  0  0  0  0  0  0  0  0  # atno 10718 bound_to 10713
  154.2097  135.6396  153.5111 H   0  0  0  0  0  0  0  0  0  0  0  0  # atno 10763 bound_to 10752
  152.9993  135.5471  154.6228 H   0  0  0  0  0  0  0  0  0  0  0  0  # atno 10764 bound_to 10752
  154.5662  135.2913  155.0845 H   0  0  0  0  0  0  0  0  0  0  0  0  # atno 10765 bound_to 10752
  140.9775  133.7075  156.1627 H   0  0  0  0  0  0  0  0  0  0  0  0  # atno 11005 bound_to 11000
  145.8081  139.1991  143.2009 LP  0  0  0  0  0  0  0  0  0  0  0  0  # atno 17320 bound_to 7965
  146.0620  140.7961  142.9730 LP  0  0  0  0  0  0  0  0  0  0  0  0  # atno 17321 bound_to 7965
  140.6537  143.2231  151.6019 LP  0  0  0  0  0  0  0  0  0  0  0  0  # atno 17342 bound_to 10162
  139.5307  144.2923  152.1142 LP  0  0  0  0  0  0  0  0  0  0  0  0  # atno 17343 bound_to 10162
  156.2770  130.7049  151.1863 LP  0  0  0  0  0  0  0  0  0  0  0  0  # atno 17370 bound_to 10713
  157.7361  131.0565  150.5429 LP  0  0  0  0  0  0  0  0  0  0  0  0  # atno 17371 bound_to 10713
  140.7237  134.4331  157.5572 LP  0  0  0  0  0  0  0  0  0  0  0  0  # atno 17394 bound_to 11000
  139.8936  134.8726  156.2214 LP  0  0  0  0  0  0  0  0  0  0  0  0  # atno 17395 bound_to 11000

$$$$
