AV-unprocessed.smi:261|AV-procd|sdf|1983|dock10
  -GOLD-   2262021163D 1   1.00000     0.00000
 Structure written by MMmdl.
 51 54  0  0  0  0  0  0  0  0  1 V2000
  148.3621  133.3582  162.7951 C   0  0  0  0  0  0  0  0  0  0  0  0
  147.3620  132.8839  161.9089 O   0  0  0  0  0  0  0  0  0  0  0  0
  147.5917  133.2438  160.5549 C   0  0  1  0  0  0  0  0  0  0  0  0
  147.8692  134.7367  160.4318 C   0  0  0  0  0  0  0  0  0  0  0  0
  148.6069  134.8423  159.0899 C   0  0  1  0  0  0  0  0  0  0  0  0
  149.5089  136.0829  159.0246 C   0  0  0  0  0  0  0  0  0  0  0  0
  148.9064  137.2698  159.1248 N   0  0  0  0  0  0  0  0  0  0  0  0
  150.7282  135.9772  158.9016 O   0  0  0  0  0  0  0  0  0  0  0  0
  149.3755  133.5976  158.9999 N   0  0  0  0  0  0  0  0  0  0  0  0
  149.5670  133.1333  157.7453 C   0  0  0  0  0  0  0  0  0  0  0  0
  150.6186  132.3029  157.5435 N   0  0  0  0  0  0  0  0  0  0  0  0
  150.8645  131.8229  156.3205 C   0  0  0  0  0  0  0  0  0  0  0  0
  150.1984  132.0473  155.1852 N   0  0  0  0  0  0  0  0  0  0  0  0
  149.1412  132.8853  155.3875 C   0  0  0  0  0  0  0  0  0  0  0  0
  148.7540  133.4679  156.6263 C   0  0  0  0  0  0  0  0  0  0  0  0
  147.6302  134.2659  156.4467 N   0  0  0  0  0  0  0  0  0  0  0  0
  147.3685  134.1621  155.1724 C   0  0  0  0  0  0  0  0  0  0  0  0
  148.2256  133.3528  154.4615 N   0  0  0  0  0  0  0  0  0  0  0  0
  148.1681  133.0703  153.0376 C   0  0  0  0  0  0  0  0  0  0  0  0
  147.0275  132.0961  152.6730 C   0  0  2  0  0  0  0  0  0  0  0  0
  147.6084  130.8622  152.2972 O   0  0  0  0  0  0  0  0  0  0  0  0
  146.1639  132.5896  151.4944 C   0  0  2  0  0  0  0  0  0  0  0  0
  145.2910  133.8086  151.8025 C   0  0  0  0  0  0  0  0  0  0  0  0
  144.1565  133.7029  150.7968 C   0  0  0  0  0  0  0  0  0  0  0  0
  144.2124  132.2454  150.3335 C   0  0  0  0  0  0  0  0  0  0  0  0
  145.1706  131.6246  151.1792 O   0  0  0  0  0  0  0  0  0  0  0  0
  148.8644  132.6286  159.9650 C   0  0  0  0  0  0  0  0  0  0  0  0
  146.7285  132.9944  159.9345 H   0  0  0  0  0  0  0  0  0  0  0  0
  147.8702  134.8884  158.2847 H   0  0  0  0  0  0  0  0  0  0  0  0
  148.1390  133.0229  163.8077 H   0  0  0  0  0  0  0  0  0  0  0  0
  148.4042  134.4477  162.8063 H   0  0  0  0  0  0  0  0  0  0  0  0
  149.3454  132.9725  162.5228 H   0  0  0  0  0  0  0  0  0  0  0  0
  146.9561  135.3327  160.4585 H   0  0  0  0  0  0  0  0  0  0  0  0
  148.5074  135.0631  161.2554 H   0  0  0  0  0  0  0  0  0  0  0  0
  149.4525  138.1181  159.0876 H   0  0  0  0  0  0  0  0  0  0  0  0
  147.9041  137.3134  159.2373 H   0  0  0  0  0  0  0  0  0  0  0  0
  151.7181  131.1663  156.2398 H   0  0  0  0  0  0  0  0  0  0  0  0
  146.5373  134.6764  154.7118 H   0  0  0  0  0  0  0  0  0  0  0  0
  148.0430  134.0210  152.5192 H   0  0  0  0  0  0  0  0  0  0  0  0
  149.1300  132.6674  152.7173 H   0  0  0  0  0  0  0  0  0  0  0  0
  146.3966  131.9363  153.5485 H   0  0  0  0  0  0  0  0  0  0  0  0
  148.0737  130.9849  151.4839 H   0  0  0  0  0  0  0  0  0  0  0  0
  146.7780  132.7913  150.6140 H   0  0  0  0  0  0  0  0  0  0  0  0
  144.8870  133.7353  152.8134 H   0  0  0  0  0  0  0  0  0  0  0  0
  145.8361  134.7500  151.7244 H   0  0  0  0  0  0  0  0  0  0  0  0
  143.1991  133.9493  151.2573 H   0  0  0  0  0  0  0  0  0  0  0  0
  144.3096  134.3776  149.9537 H   0  0  0  0  0  0  0  0  0  0  0  0
  143.2463  131.7456  150.4055 H   0  0  0  0  0  0  0  0  0  0  0  0
  144.5519  132.1839  149.2985 H   0  0  0  0  0  0  0  0  0  0  0  0
  149.6223  132.5114  160.7404 H   0  0  0  0  0  0  0  0  0  0  0  0
  148.6776  131.6397  159.5430 H   0  0  0  0  0  0  0  0  0  0  0  0
  1  2  1  0  0  0  0
  1 30  1  0  0  0  0
  1 31  1  0  0  0  0
  1 32  1  0  0  0  0
  2  3  1  0  0  0  0
  3 28  1  0  0  0  0
  3 27  1  0  0  0  0
  3  4  1  0  0  0  0
  4  5  1  0  0  0  0
  4 33  1  0  0  0  0
  4 34  1  0  0  0  0
  5 29  1  0  0  0  0
  5  6  1  0  0  0  0
  5  9  1  0  0  0  0
  6  7  1  0  0  0  0
  6  8  2  0  0  0  0
  7 35  1  0  0  0  0
  7 36  1  0  0  0  0
  9 10  1  0  0  0  0
  9 27  1  0  0  0  0
 10 15  1  0  0  0  0
 10 11  2  0  0  0  0
 11 12  1  0  0  0  0
 12 13  2  0  0  0  0
 12 37  1  0  0  0  0
 13 14  1  0  0  0  0
 14 18  1  0  0  0  0
 14 15  2  0  0  0  0
 15 16  1  0  0  0  0
 16 17  2  0  0  0  0
 17 18  1  0  0  0  0
 17 38  1  0  0  0  0
 18 19  1  0  0  0  0
 19 20  1  0  0  0  0
 19 39  1  0  0  0  0
 19 40  1  0  0  0  0
 20 21  1  0  0  0  0
 20 22  1  0  0  0  0
 20 41  1  0  0  0  0
 21 42  1  0  0  0  0
 22 26  1  0  0  0  0
 22 23  1  0  0  0  0
 22 43  1  0  0  0  0
 23 24  1  0  0  0  0
 23 44  1  0  0  0  0
 23 45  1  0  0  0  0
 24 25  1  0  0  0  0
 24 46  1  0  0  0  0
 24 47  1  0  0  0  0
 25 26  1  0  0  0  0
 25 48  1  0  0  0  0
 25 49  1  0  0  0  0
 27 50  1  0  0  0  0
 27 51  1  0  0  0  0
M  END
> <s_m_source_file>
AV-unprocessed.smi

> <i_m_source_file_index>
261

> <i_lp_mmshare_version>
43012

> <i_f3d_flags>
0

> <s_epik_input>
W0NIM11PW0NASF0xW0NIMl1bQ0BASF0oQyg9TylbTkgyXSlOKFtDSDJdMSljKG5bY0hdbjIpYyhjMjMpbltjSF1uM1tDSDJdW0NASF0oW09IXSlbQ0BASF00W0NIMl1bQ0gyXVtDSDJdTzQ=

> <s_epik_cmdline>
J2VwaWtfcHl0aG9uJywgJy1waCcsICc3LjAnLCAnLXRuJywgJzgnLCAnLW1hJywgJzIwMCcsICctbWV0YWxfYmluZGluZycsICctaW1hZScsICc8aW5maWxlLm1hZT4nLCAnLW9tYWUnLCAnPG91dGZpbGUubWFlPic=

> <r_lp_tautomer_probability>
1

> <r_epik_Ionization_Penalty>
0.000713824

> <r_epik_Ionization_Penalty_Charging>
0

> <r_epik_Ionization_Penalty_Neutral>
0.000713824

> <r_epik_State_Penalty>
0.000402132

> <r_epik_Charging_Adjusted_Penalty>
0.000402132

> <i_epik_Tot_Q>
0

> <i_epik_Tot_abs_Q>
0

> <r_epik_Metal_State_Penalty>
-0

> <b_epik_Metal_Only>
0

> <s_lp_Force_Field>
OPLS_2005

> <r_lp_Energy>
45.6621

> <b_lp_Chiralities_Consistent>
1

> <s_lp_Variant>
AV-unprocessed.smi:261-1

> <Gold.Version>
5.8.1

> <Gold.Id.Protein>
6NUR|6NUR_protein|mol2

> <Gold.PLP.Fitness>
41.8398

> <Gold.PLP.PLP>
-35.4660

> <Gold.PLP.part.hbond>
-4.0000

> <Gold.PLP.part.metal>
0.0000

> <Gold.PLP.part.buried>
-6.5980

> <Gold.PLP.part.nonpolar>
-26.5853

> <Gold.PLP.part.repulsive>
0.2866

> <Gold.PLP.ligand.clash>
0.0000

> <Gold.PLP.ligand.torsion>
1.4043

> <Gold.PLP.Chemscore.Hbond>
3.0000

> <Gold.PLP.Chemscore.CHOScore>
0.0000

> <Gold.PLP.Chemscore.Metal>
0.0000

> <Gold.Chemscore.Hbonds>
donor molecule, donor type, donor heavy atom, donor atom, acceptor molecule, acceptor atom, score
      L1  H    21    42       P1 10747  0.94
      P1  H  6896  6907       L1     8  0.46
      P1  H  6896  6909       L1     9  0.04

> <Gold.PLP.Chemscore.Internal.Correction>
0.1825

> <Gold.Rescore>
     Score         DG    S(hbond)    S(metal)    S(lipo)     H(rot)  DE(clash)    DE(int)     intcor
     10.66     -13.40       2.77        0.00      66.92       3.57       0.00       2.74       ----

> <Gold.Chemscore.Fitness>
10.6638

> <Gold.Chemscore.DG>
-13.4010

> <Gold.Chemscore.ZeroCoef>
-5.4800

> <Gold.Chemscore.Hbond>
2.7665

> <Gold.Chemscore.Metal>
0.0000

> <Gold.Chemscore.Lipo>
66.9246

> <Gold.Chemscore.Internal_Hbond>
0.0000

> <Gold.Chemscore.DEClash>
0.0019

> <Gold.Chemscore.DEInternal>
2.7353

> <Gold.Chemscore.Rot>
3.5740

> <Gold.Chemscore.Internal.Correction>
   9.000000E+99

> <Gold.Chemscore.Hbonds>
donor molecule, donor type, donor heavy atom, donor atom, acceptor molecule, acceptor atom, score
      L1  H    21    42       P1 10747  0.90
      P1  H  6896  6907       L1     8  0.15

> <Gold.Chemscore.Hbond.Weighted>
-9.2402

> <Gold.Chemscore.Metal.Weighted>
-0.0000

> <Gold.Chemscore.Lipo.Weighted>
-7.8302

> <Gold.Chemscore.Internal_Hbond.Weighted>
0.0000

> <Gold.Chemscore.DEClash.Weighted>
0.0019

> <Gold.Chemscore.DEInternal.Weighted>
2.7353

> <Gold.Chemscore.Rot.Weighted>
9.1495

> <Gold.Chemscore.Internal.Correction.Weighted>
   9.000000E+99

> <Gold.Protein.RotatedTorsions>
[ 6907 6896 6895 6894 ] final  -36.84 input  -60.11 | X-H torsion
[ 7974 7965 7964 7962 ] final    7.86 input  175.53 | X-H torsion
[ 8008 7997 7996 7995 ] final -178.84 input   59.86 | X-H torsion
[ 10167 10162 10161 10158 ] final  -42.19 input  -65.29 | X-H torsion
[ 10718 10713 10712 10709 ] final  -90.42 input   66.30 | X-H torsion
[ 10763 10752 10751 10750 ] final   54.30 input  -60.55 | X-H torsion
[ 11005 11000 10999 10996 ] final  -22.83 input  -57.11 | X-H torsion

> <Gold.Protein.ActiveResidues>
 VAL166  LYS551  ARG553  GLY616  TRP617  ASP618  TYR619  PRO620  LYS621  CYS622 
 ASP623  PHE694  ASN695  SER759  ASP760  ASP761  ALA762  ILE779  LEU786  VAL792 
 PHE793  MET794  SER795  GLU796  ALA797  LYS798  CYS799  TRP800  GLU811  SER814 

> <Gold.Protein.RotatedAtoms>
  151.0222  134.9477  159.8065 H   0  0  0  0  0  0  0  0  0  0  0  0  # atno 6907 bound_to 6896
  152.5327  134.2889  159.9045 H   0  0  0  0  0  0  0  0  0  0  0  0  # atno 6908 bound_to 6896
  151.2897  133.4129  159.2666 H   0  0  0  0  0  0  0  0  0  0  0  0  # atno 6909 bound_to 6896
  146.2422  140.0020  142.8415 H   0  0  0  0  0  0  0  0  0  0  0  0  # atno 7974 bound_to 7965
  156.0235  140.1266  157.0332 H   0  0  0  0  0  0  0  0  0  0  0  0  # atno 8008 bound_to 7997
  154.4321  140.1064  156.6068 H   0  0  0  0  0  0  0  0  0  0  0  0  # atno 8009 bound_to 7997
  155.5910  140.3469  155.4568 H   0  0  0  0  0  0  0  0  0  0  0  0  # atno 8010 bound_to 7997
  140.6977  143.3051  151.3174 H   0  0  0  0  0  0  0  0  0  0  0  0  # atno 10167 bound_to 10162
  155.9988  130.4909  150.5320 H   0  0  0  0  0  0  0  0  0  0  0  0  # atno 10718 bound_to 10713
  152.9803  135.5749  154.4882 H   0  0  0  0  0  0  0  0  0  0  0  0  # atno 10763 bound_to 10752
  154.4420  135.2776  155.1843 H   0  0  0  0  0  0  0  0  0  0  0  0  # atno 10764 bound_to 10752
  154.3507  135.6210  153.5695 H   0  0  0  0  0  0  0  0  0  0  0  0  # atno 10765 bound_to 10752
  140.8694  133.7731  156.0169 H   0  0  0  0  0  0  0  0  0  0  0  0  # atno 11005 bound_to 11000
  145.1407  140.9569  143.4490 LP  0  0  0  0  0  0  0  0  0  0  0  0  # atno 17320 bound_to 7965
  145.0299  139.3350  143.6030 LP  0  0  0  0  0  0  0  0  0  0  0  0  # atno 17321 bound_to 7965
  139.6454  144.0461  152.2587 LP  0  0  0  0  0  0  0  0  0  0  0  0  # atno 17342 bound_to 10162
  139.9980  144.6314  150.7755 LP  0  0  0  0  0  0  0  0  0  0  0  0  # atno 17343 bound_to 10162
  157.3267  131.0692  151.1891 LP  0  0  0  0  0  0  0  0  0  0  0  0  # atno 17370 bound_to 10713
  157.2786  130.6739  149.6054 LP  0  0  0  0  0  0  0  0  0  0  0  0  # atno 17371 bound_to 10713
  140.8591  134.2863  157.5242 LP  0  0  0  0  0  0  0  0  0  0  0  0  # atno 17394 bound_to 11000
  139.8711  134.9508  156.4067 LP  0  0  0  0  0  0  0  0  0  0  0  0  # atno 17395 bound_to 11000

$$$$
