AV-unprocessed.smi:1514|AV-procd|sdf|6114|dock1
  -GOLD-   22720 6243D 1   1.00000     0.00000
 Structure written by MMmdl.
 48 49  0  0  0  0  0  0  0  0  2 V2000
  144.0344  132.4886  151.1254 C   0  0  0  0  0  0  0  0  0  0  0  0
  144.6592  133.3448  152.2368 C   0  0  0  0  0  0  0  0  0  0  0  0
  143.6478  133.8978  153.1720 N   0  3  0  0  0  0  0  0  0  0  0  0
  142.4743  134.5036  152.4935 C   0  0  0  0  0  0  0  0  0  0  0  0
  141.4428  134.9979  153.5304 C   0  0  0  0  0  0  0  0  0  0  0  0
  142.0190  135.9679  154.4646 N   0  0  0  0  0  0  0  0  0  0  0  0
  142.2853  137.2630  153.8296 C   0  0  0  0  0  0  0  0  0  0  0  0
  141.0016  138.0165  153.4363 C   0  0  0  0  0  0  0  0  0  0  0  0
  141.1715  139.4579  153.5691 N   0  0  0  0  0  0  0  0  0  0  0  0
  140.3188  140.2624  154.2171 C   0  0  0  0  0  0  0  0  0  0  0  0
  139.2973  139.8567  154.7717 O   0  0  0  0  0  0  0  0  0  0  0  0
  140.7294  141.5418  154.1725 N   0  0  0  0  0  0  0  0  0  0  0  0
  140.1429  142.6421  154.7143 C   0  0  0  0  0  0  0  0  0  0  0  0
  140.7223  143.6870  155.3808 C   0  0  0  0  0  0  0  0  0  0  0  0
  139.6059  144.5145  155.6973 C   0  0  0  0  0  0  0  0  0  0  0  0
  139.6053  145.8223  156.4325 C   0  0  0  0  0  0  0  0  0  0  0  0
  138.4558  144.0135  155.2600 N   0  0  0  0  0  0  0  0  0  0  0  0
  138.7838  142.8539  154.6498 N   0  0  0  0  0  0  0  0  0  0  0  0
  137.7516  142.0316  154.0490 C   0  0  0  0  0  0  0  0  0  0  0  0
  143.1700  135.3524  155.1343 C   0  0  0  0  0  0  0  0  0  0  0  0
  144.2360  134.8645  154.1309 C   0  0  0  0  0  0  0  0  0  0  0  0
  144.8116  132.0213  150.5205 H   0  0  0  0  0  0  0  0  0  0  0  0
  143.4154  133.0799  150.4512 H   0  0  0  0  0  0  0  0  0  0  0  0
  143.4171  131.6913  151.5401 H   0  0  0  0  0  0  0  0  0  0  0  0
  145.3492  132.7117  152.7965 H   0  0  0  0  0  0  0  0  0  0  0  0
  145.2562  134.1521  151.8105 H   0  0  0  0  0  0  0  0  0  0  0  0
  142.7958  135.3164  151.8408 H   0  0  0  0  0  0  0  0  0  0  0  0
  141.9927  133.7654  151.8534 H   0  0  0  0  0  0  0  0  0  0  0  0
  140.5800  135.4374  153.0281 H   0  0  0  0  0  0  0  0  0  0  0  0
  141.0638  134.1484  154.1005 H   0  0  0  0  0  0  0  0  0  0  0  0
  142.8996  137.8953  154.4693 H   0  0  0  0  0  0  0  0  0  0  0  0
  142.8681  137.0909  152.9236 H   0  0  0  0  0  0  0  0  0  0  0  0
  140.6895  137.7684  152.4215 H   0  0  0  0  0  0  0  0  0  0  0  0
  140.1892  137.6992  154.0916 H   0  0  0  0  0  0  0  0  0  0  0  0
  141.9858  139.8660  153.1338 H   0  0  0  0  0  0  0  0  0  0  0  0
  141.5895  141.7157  153.6743 H   0  0  0  0  0  0  0  0  0  0  0  0
  141.7636  143.8518  155.6132 H   0  0  0  0  0  0  0  0  0  0  0  0
  140.5933  146.0490  156.8336 H   0  0  0  0  0  0  0  0  0  0  0  0
  138.9054  145.8043  157.2684 H   0  0  0  0  0  0  0  0  0  0  0  0
  139.3183  146.6420  155.7735 H   0  0  0  0  0  0  0  0  0  0  0  0
  137.6678  141.0929  154.5969 H   0  0  0  0  0  0  0  0  0  0  0  0
  138.0102  141.8174  153.0117 H   0  0  0  0  0  0  0  0  0  0  0  0
  136.7889  142.5439  154.0733 H   0  0  0  0  0  0  0  0  0  0  0  0
  143.6108  136.0419  155.8532 H   0  0  0  0  0  0  0  0  0  0  0  0
  142.8124  134.5042  155.7199 H   0  0  0  0  0  0  0  0  0  0  0  0
  145.0429  134.3800  154.6820 H   0  0  0  0  0  0  0  0  0  0  0  0
  144.6864  135.7008  153.5948 H   0  0  0  0  0  0  0  0  0  0  0  0
  143.3048  133.1243  153.7236 H   0  0  0  0  0  0  0  0  0  0  0  0
  1  2  1  0  0  0  0
  1 22  1  0  0  0  0
  1 23  1  0  0  0  0
  1 24  1  0  0  0  0
  2  3  1  0  0  0  0
  2 25  1  0  0  0  0
  2 26  1  0  0  0  0
  3 21  1  0  0  0  0
  3  4  1  0  0  0  0
  3 48  1  0  0  0  0
  4  5  1  0  0  0  0
  4 27  1  0  0  0  0
  4 28  1  0  0  0  0
  5  6  1  0  0  0  0
  5 29  1  0  0  0  0
  5 30  1  0  0  0  0
  6  7  1  0  0  0  0
  6 20  1  0  0  0  0
  7  8  1  0  0  0  0
  7 31  1  0  0  0  0
  7 32  1  0  0  0  0
  8  9  1  0  0  0  0
  8 33  1  0  0  0  0
  8 34  1  0  0  0  0
  9 10  1  0  0  0  0
  9 35  1  0  0  0  0
 10 11  2  0  0  0  0
 10 12  1  0  0  0  0
 12 13  1  0  0  0  0
 12 36  1  0  0  0  0
 13 18  1  0  0  0  0
 13 14  2  0  0  0  0
 14 15  1  0  0  0  0
 14 37  1  0  0  0  0
 15 16  1  0  0  0  0
 15 17  2  0  0  0  0
 16 38  1  0  0  0  0
 16 39  1  0  0  0  0
 16 40  1  0  0  0  0
 17 18  1  0  0  0  0
 18 19  1  0  0  0  0
 19 41  1  0  0  0  0
 19 42  1  0  0  0  0
 19 43  1  0  0  0  0
 20 21  1  0  0  0  0
 20 44  1  0  0  0  0
 20 45  1  0  0  0  0
 21 46  1  0  0  0  0
 21 47  1  0  0  0  0
M  CHG  1   3   1
M  END
> <s_m_source_file>
AV-unprocessed.smi

> <i_m_source_file_index>
1514

> <i_lp_mmshare_version>
43012

> <i_f3d_flags>
0

> <s_epik_input>
W0NIM11bQ0gyXU4xW0NIMl1bQ0gyXU4oW0NIMl1bQ0gyXTEpW0NIMl1bQ0gyXVtOSF1DKD1PKVtOSF1jMltjSF1jKFtDSDNdKW5uMltDSDNd

> <s_epik_cmdline>
J2VwaWtfcHl0aG9uJywgJy1waCcsICc3LjAnLCAnLXRuJywgJzgnLCAnLW1hJywgJzIwMCcsICctbWV0YWxfYmluZGluZycsICctaW1hZScsICc8aW5maWxlLm1hZT4nLCAnLW9tYWUnLCAnPG91dGZpbGUubWFlPic=

> <r_lp_tautomer_probability>
1

> <r_epik_Ionization_Penalty>
0.0527919

> <r_epik_Ionization_Penalty_Charging>
0.052373

> <r_epik_Ionization_Penalty_Neutral>
0.000418955

> <r_epik_State_Penalty>
0.130843

> <r_epik_Charging_Adjusted_Penalty>
0.183216

> <i_epik_Tot_Q>
1

> <i_epik_Tot_abs_Q>
1

> <r_epik_Metal_State_Penalty>
0.130841

> <b_epik_Metal_Only>
0

> <s_lp_Force_Field>
OPLS_2005

> <r_lp_Energy>
24.8956

> <b_lp_Chiralities_Consistent>
1

> <s_lp_Variant>
AV-unprocessed.smi:1514-1

> <Gold.Version>
5.8.1

> <Gold.Id.Protein>
6NUR|6NUR_protein|mol2

> <Gold.PLP.Fitness>
40.1474

> <Gold.PLP.PLP>
-29.5845

> <Gold.PLP.part.hbond>
-4.5038

> <Gold.PLP.part.metal>
0.0000

> <Gold.PLP.part.buried>
-4.8763

> <Gold.PLP.part.nonpolar>
-20.2556

> <Gold.PLP.part.repulsive>
0.1461

> <Gold.PLP.ligand.clash>
0.0000

> <Gold.PLP.ligand.torsion>
0.7408

> <Gold.PLP.Chemscore.Hbond>
4.0000

> <Gold.PLP.Chemscore.CHOScore>
0.0000

> <Gold.PLP.Chemscore.Metal>
0.0000

> <Gold.Chemscore.Hbonds>
donor molecule, donor type, donor heavy atom, donor atom, acceptor molecule, acceptor atom, score
      L1  H     3    48       P1 10957  2.00
      L1  H     9    35       P1 10175  1.00
      L1  H    12    36       P1 10174  1.00

> <Gold.PLP.Chemscore.Internal.Correction>
0.0445

> <Gold.Rescore>
     Score         DG    S(hbond)    S(metal)    S(lipo)     H(rot)  DE(clash)    DE(int)     intcor
     11.71     -14.49       1.99        0.00      57.34       1.69       0.01       2.77       ----

> <Gold.Chemscore.Fitness>
11.7126

> <Gold.Chemscore.DG>
-14.4924

> <Gold.Chemscore.ZeroCoef>
-5.4800

> <Gold.Chemscore.Hbond>
1.9861

> <Gold.Chemscore.Metal>
0.0000

> <Gold.Chemscore.Lipo>
57.3399

> <Gold.Chemscore.Internal_Hbond>
0.0000

> <Gold.Chemscore.DEClash>
0.0089

> <Gold.Chemscore.DEInternal>
2.7709

> <Gold.Chemscore.Rot>
1.6914

> <Gold.Chemscore.Internal.Correction>
   9.000000E+99

> <Gold.Chemscore.Hbonds>
donor molecule, donor type, donor heavy atom, donor atom, acceptor molecule, acceptor atom, score
      L1  H     3    48       P1 10957  0.98
      L1  H     9    35       P1 10175  0.50
      L1  H    12    36       P1 10174  0.32

> <Gold.Chemscore.Hbond.Weighted>
-6.6335

> <Gold.Chemscore.Metal.Weighted>
-0.0000

> <Gold.Chemscore.Lipo.Weighted>
-6.7088

> <Gold.Chemscore.Internal_Hbond.Weighted>
0.0000

> <Gold.Chemscore.DEClash.Weighted>
0.0089

> <Gold.Chemscore.DEInternal.Weighted>
2.7709

> <Gold.Chemscore.Rot.Weighted>
4.3299

> <Gold.Chemscore.Internal.Correction.Weighted>
   9.000000E+99

> <Gold.Protein.RotatedTorsions>
[ 6907 6896 6895 6894 ] final  -24.74 input  -60.11 | X-H torsion
[ 7974 7965 7964 7962 ] final  108.36 input  175.53 | X-H torsion
[ 8008 7997 7996 7995 ] final  108.08 input   59.86 | X-H torsion
[ 10167 10162 10161 10158 ] final  -89.77 input  -65.29 | X-H torsion
[ 10718 10713 10712 10709 ] final   83.29 input   66.30 | X-H torsion
[ 10763 10752 10751 10750 ] final   98.88 input  -60.55 | X-H torsion
[ 11005 11000 10999 10996 ] final   99.00 input  -57.11 | X-H torsion

> <Gold.Protein.ActiveResidues>
 VAL166  LYS551  ARG553  GLY616  TRP617  ASP618  TYR619  PRO620  LYS621  CYS622 
 ASP623  PHE694  ASN695  SER759  ASP760  ASP761  ALA762  ILE779  LEU786  VAL792 
 PHE793  MET794  SER795  GLU796  ALA797  LYS798  CYS799  TRP800  GLU811  SER814 

> <Gold.Protein.RotatedAtoms>
  151.1852  135.0378  159.8808 H   0  0  0  0  0  0  0  0  0  0  0  0  # atno 6907 bound_to 6896
  152.5442  134.1018  159.8331 H   0  0  0  0  0  0  0  0  0  0  0  0  # atno 6908 bound_to 6896
  151.1140  133.5105  159.2637 H   0  0  0  0  0  0  0  0  0  0  0  0  # atno 6909 bound_to 6896
  145.2817  139.2630  143.3912 H   0  0  0  0  0  0  0  0  0  0  0  0  # atno 7974 bound_to 7965
  156.1875  140.3083  155.9266 H   0  0  0  0  0  0  0  0  0  0  0  0  # atno 8008 bound_to 7997
  155.3249  140.0457  157.3057 H   0  0  0  0  0  0  0  0  0  0  0  0  # atno 8009 bound_to 7997
  154.5412  140.2262  155.8647 H   0  0  0  0  0  0  0  0  0  0  0  0  # atno 8010 bound_to 7997
  140.3615  143.2839  151.9609 H   0  0  0  0  0  0  0  0  0  0  0  0  # atno 10167 bound_to 10162
  157.6876  131.0084  150.2502 H   0  0  0  0  0  0  0  0  0  0  0  0  # atno 10718 bound_to 10713
  153.2946  135.4133  155.1197 H   0  0  0  0  0  0  0  0  0  0  0  0  # atno 10763 bound_to 10752
  154.8531  135.3526  154.5935 H   0  0  0  0  0  0  0  0  0  0  0  0  # atno 10764 bound_to 10752
  153.6358  135.7059  153.5317 H   0  0  0  0  0  0  0  0  0  0  0  0  # atno 10765 bound_to 10752
  139.8771  134.9075  156.4540 H   0  0  0  0  0  0  0  0  0  0  0  0  # atno 11005 bound_to 11000
  146.3214  140.3286  142.8638 LP  0  0  0  0  0  0  0  0  0  0  0  0  # atno 17320 bound_to 7965
  144.9247  140.7908  143.5726 LP  0  0  0  0  0  0  0  0  0  0  0  0  # atno 17321 bound_to 7965
  139.4813  144.5988  151.7642 LP  0  0  0  0  0  0  0  0  0  0  0  0  # atno 17342 bound_to 10162
  140.5122  144.1007  150.5998 LP  0  0  0  0  0  0  0  0  0  0  0  0  # atno 17343 bound_to 10162
  156.3100  130.3770  149.7671 LP  0  0  0  0  0  0  0  0  0  0  0  0  # atno 17370 bound_to 10713
  156.5274  130.8242  151.3225 LP  0  0  0  0  0  0  0  0  0  0  0  0  # atno 17371 bound_to 10713
  140.8911  133.7847  155.9573 LP  0  0  0  0  0  0  0  0  0  0  0  0  # atno 17394 bound_to 11000
  140.8752  134.2678  157.5171 LP  0  0  0  0  0  0  0  0  0  0  0  0  # atno 17395 bound_to 11000

$$$$
