AV-unprocessed.smi:1193|AV-procd|sdf|4989|dock10
  -GOLD-   22720 3593D 1   1.00000     0.00000
 Structure written by MMmdl.
 38 39  0  0  0  0  0  0  0  0  1 V2000
  148.7937  135.8003  158.8641 C   0  0  0  0  0  0  0  0  0  0  0  0
  149.6535  136.9249  158.7161 O   0  0  0  0  0  0  0  0  0  0  0  0
  150.2257  137.1610  157.4803 C   0  0  0  0  0  0  0  0  0  0  0  0
  149.8887  136.3476  156.4481 N   0  0  0  0  0  0  0  0  0  0  0  0
  150.4478  136.5746  155.2418 C   0  0  0  0  0  0  0  0  0  0  0  0
  151.3689  137.6107  155.0027 C   0  0  0  0  0  0  0  0  0  0  0  0
  151.7204  138.4555  156.0718 C   0  0  0  0  0  0  0  0  0  0  0  0
  151.1309  138.2390  157.3411 C   0  0  0  0  0  0  0  0  0  0  0  0
  151.4259  139.0194  158.4931 N   0  0  0  0  0  0  0  0  0  0  0  0
  152.5406  139.7141  158.7763 C   0  0  0  0  0  0  0  0  0  0  0  0
  153.5364  139.7918  158.0570 O   0  0  0  0  0  0  0  0  0  0  0  0
  152.4313  140.3409  159.9566 N   0  0  0  0  0  0  0  0  0  0  0  0
  153.4662  141.1725  160.5680 C   0  0  0  0  0  0  0  0  0  0  0  0
  152.9337  142.5142  161.1033 C   0  0  0  0  0  0  0  0  0  0  0  0
  152.9085  142.7260  162.3174 O   0  0  0  0  0  0  0  0  0  0  0  0
  152.4909  143.4234  160.2103 N   0  0  0  0  0  0  0  0  0  0  0  0
  152.4615  143.2513  158.7581 C   0  0  0  0  0  0  0  0  0  0  0  0
  151.6433  144.4256  158.2201 C   0  0  0  0  0  0  0  0  0  0  0  0
  151.8067  145.5087  159.2774 C   0  0  0  0  0  0  0  0  0  0  0  0
  151.9603  144.7324  160.5858 C   0  0  0  0  0  0  0  0  0  0  0  0
  148.4250  135.7618  159.8891 H   0  0  0  0  0  0  0  0  0  0  0  0
  149.3212  134.8658  158.6671 H   0  0  0  0  0  0  0  0  0  0  0  0
  147.9278  135.8697  158.2039 H   0  0  0  0  0  0  0  0  0  0  0  0
  150.1565  135.9067  154.4449 H   0  0  0  0  0  0  0  0  0  0  0  0
  151.8002  137.7511  154.0226 H   0  0  0  0  0  0  0  0  0  0  0  0
  152.4421  139.2385  155.8988 H   0  0  0  0  0  0  0  0  0  0  0  0
  150.6663  139.1152  159.1512 H   0  0  0  0  0  0  0  0  0  0  0  0
  151.5776  140.2207  160.4815 H   0  0  0  0  0  0  0  0  0  0  0  0
  153.9588  140.6174  161.3680 H   0  0  0  0  0  0  0  0  0  0  0  0
  154.2235  141.3751  159.8105 H   0  0  0  0  0  0  0  0  0  0  0  0
  153.4821  143.2923  158.3743 H   0  0  0  0  0  0  0  0  0  0  0  0
  152.0218  142.2988  158.4596 H   0  0  0  0  0  0  0  0  0  0  0  0
  151.9663  144.7477  157.2298 H   0  0  0  0  0  0  0  0  0  0  0  0
  150.5929  144.1388  158.1516 H   0  0  0  0  0  0  0  0  0  0  0  0
  152.7172  146.0759  159.0789 H   0  0  0  0  0  0  0  0  0  0  0  0
  150.9730  146.2110  159.2978 H   0  0  0  0  0  0  0  0  0  0  0  0
  150.9907  144.5965  161.0670 H   0  0  0  0  0  0  0  0  0  0  0  0
  152.6151  145.2566  161.2837 H   0  0  0  0  0  0  0  0  0  0  0  0
  1  2  1  0  0  0  0
  1 21  1  0  0  0  0
  1 22  1  0  0  0  0
  1 23  1  0  0  0  0
  2  3  1  0  0  0  0
  3  8  1  0  0  0  0
  3  4  2  0  0  0  0
  4  5  1  0  0  0  0
  5  6  2  0  0  0  0
  5 24  1  0  0  0  0
  6  7  1  0  0  0  0
  6 25  1  0  0  0  0
  7  8  2  0  0  0  0
  7 26  1  0  0  0  0
  8  9  1  0  0  0  0
  9 10  1  0  0  0  0
  9 27  1  0  0  0  0
 10 11  2  0  0  0  0
 10 12  1  0  0  0  0
 12 13  1  0  0  0  0
 12 28  1  0  0  0  0
 13 14  1  0  0  0  0
 13 29  1  0  0  0  0
 13 30  1  0  0  0  0
 14 15  2  0  0  0  0
 14 16  1  0  0  0  0
 16 20  1  0  0  0  0
 16 17  1  0  0  0  0
 17 18  1  0  0  0  0
 17 31  1  0  0  0  0
 17 32  1  0  0  0  0
 18 19  1  0  0  0  0
 18 33  1  0  0  0  0
 18 34  1  0  0  0  0
 19 20  1  0  0  0  0
 19 35  1  0  0  0  0
 19 36  1  0  0  0  0
 20 37  1  0  0  0  0
 20 38  1  0  0  0  0
M  END
> <s_m_source_file>
AV-unprocessed.smi

> <i_m_source_file_index>
1193

> <i_lp_mmshare_version>
43012

> <i_f3d_flags>
0

> <s_epik_input>
W0NIM11PYzFuW2NIXVtjSF1bY0hdYzFbTkhdQyg9TylbTkhdW0NIMl1DKD1PKU4yW0NIMl1bQ0gyXVtDSDJdW0NIMl0y

> <s_epik_cmdline>
J2VwaWtfcHl0aG9uJywgJy1waCcsICc3LjAnLCAnLXRuJywgJzgnLCAnLW1hJywgJzIwMCcsICctbWV0YWxfYmluZGluZycsICctaW1hZScsICc8aW5maWxlLm1hZT4nLCAnLW9tYWUnLCAnPG91dGZpbGUubWFlPic=

> <r_lp_tautomer_probability>
1

> <r_epik_Ionization_Penalty>
0.000141665

> <r_epik_Ionization_Penalty_Charging>
0

> <r_epik_Ionization_Penalty_Neutral>
0.000141665

> <r_epik_State_Penalty>
-0

> <r_epik_Charging_Adjusted_Penalty>
0

> <i_epik_Tot_Q>
0

> <i_epik_Tot_abs_Q>
0

> <r_epik_Metal_State_Penalty>
-0

> <b_epik_Metal_Only>
0

> <s_lp_Force_Field>
OPLS_2005

> <r_lp_Energy>
26.7485

> <b_lp_Chiralities_Consistent>
1

> <s_lp_Variant>
AV-unprocessed.smi:1193-1

> <Gold.Version>
5.8.1

> <Gold.Id.Protein>
6NUR|6NUR_protein|mol2

> <Gold.PLP.Fitness>
42.5524

> <Gold.PLP.PLP>
-37.1390

> <Gold.PLP.part.hbond>
-0.8179

> <Gold.PLP.part.metal>
0.0000

> <Gold.PLP.part.buried>
-3.8321

> <Gold.PLP.part.nonpolar>
-33.3354

> <Gold.PLP.part.repulsive>
0.3751

> <Gold.PLP.ligand.clash>
0.0000

> <Gold.PLP.ligand.torsion>
0.2952

> <Gold.PLP.Chemscore.Hbond>
1.0000

> <Gold.PLP.Chemscore.CHOScore>
1.0000

> <Gold.PLP.Chemscore.Metal>
0.0000

> <Gold.Chemscore.Hbonds>
donor molecule, donor type, donor heavy atom, donor atom, acceptor molecule, acceptor atom, score
      P1  H  7997  8009       L1    11  0.98
      L1  C     5    24       P1  7948  0.22

> <Gold.PLP.Chemscore.Internal.Correction>
0.0037

> <Gold.Rescore>
     Score         DG    S(hbond)    S(metal)    S(lipo)     H(rot)  DE(clash)    DE(int)     intcor
     12.70     -14.24       0.98        0.00      81.61       1.58       0.17       1.37       ----

> <Gold.Chemscore.Fitness>
12.7042

> <Gold.Chemscore.DG>
-14.2440

> <Gold.Chemscore.ZeroCoef>
-5.4800

> <Gold.Chemscore.Hbond>
0.9766

> <Gold.Chemscore.Metal>
0.0000

> <Gold.Chemscore.Lipo>
81.6084

> <Gold.Chemscore.Internal_Hbond>
0.0000

> <Gold.Chemscore.DEClash>
0.1722

> <Gold.Chemscore.DEInternal>
1.3675

> <Gold.Chemscore.Rot>
1.5804

> <Gold.Chemscore.Internal.Correction>
   9.000000E+99

> <Gold.Chemscore.Hbonds>
donor molecule, donor type, donor heavy atom, donor atom, acceptor molecule, acceptor atom, score
      P1  H  7997  8009       L1    11  0.89

> <Gold.Chemscore.Hbond.Weighted>
-3.2617

> <Gold.Chemscore.Metal.Weighted>
-0.0000

> <Gold.Chemscore.Lipo.Weighted>
-9.5482

> <Gold.Chemscore.Internal_Hbond.Weighted>
0.0000

> <Gold.Chemscore.DEClash.Weighted>
0.1722

> <Gold.Chemscore.DEInternal.Weighted>
1.3675

> <Gold.Chemscore.Rot.Weighted>
4.0459

> <Gold.Chemscore.Internal.Correction.Weighted>
   9.000000E+99

> <Gold.Protein.RotatedTorsions>
[ 6907 6896 6895 6894 ] final  108.87 input  -60.11 | X-H torsion
[ 7974 7965 7964 7962 ] final  141.30 input  175.53 | X-H torsion
[ 8008 7997 7996 7995 ] final  169.13 input   59.86 | X-H torsion
[ 10167 10162 10161 10158 ] final -148.79 input  -65.29 | X-H torsion
[ 10718 10713 10712 10709 ] final  -90.82 input   66.30 | X-H torsion
[ 10763 10752 10751 10750 ] final -172.17 input  -60.55 | X-H torsion
[ 11005 11000 10999 10996 ] final  143.85 input  -57.11 | X-H torsion

> <Gold.Protein.ActiveResidues>
 VAL166  LYS551  ARG553  GLY616  TRP617  ASP618  TYR619  PRO620  LYS621  CYS622 
 ASP623  PHE694  ASN695  SER759  ASP760  ASP761  ALA762  ILE779  LEU786  VAL792 
 PHE793  MET794  SER795  GLU796  ALA797  LYS798  CYS799  TRP800  GLU811  SER814 

> <Gold.Protein.RotatedAtoms>
  152.5093  133.9026  159.7448 H   0  0  0  0  0  0  0  0  0  0  0  0  # atno 6907 bound_to 6896
  150.9438  133.6617  159.2792 H   0  0  0  0  0  0  0  0  0  0  0  0  # atno 6908 bound_to 6896
  151.3919  135.0962  159.9581 H   0  0  0  0  0  0  0  0  0  0  0  0  # atno 6909 bound_to 6896
  144.9108  139.5295  143.5709 H   0  0  0  0  0  0  0  0  0  0  0  0  # atno 7974 bound_to 7965
  156.1484  140.1572  156.8809 H   0  0  0  0  0  0  0  0  0  0  0  0  # atno 8008 bound_to 7997
  154.5049  140.0815  156.7911 H   0  0  0  0  0  0  0  0  0  0  0  0  # atno 8009 bound_to 7997
  155.3943  140.3411  155.4255 H   0  0  0  0  0  0  0  0  0  0  0  0  # atno 8010 bound_to 7997
  139.7500  143.8532  152.2584 H   0  0  0  0  0  0  0  0  0  0  0  0  # atno 10167 bound_to 10162
  155.9990  130.4924  150.5380 H   0  0  0  0  0  0  0  0  0  0  0  0  # atno 10718 bound_to 10713
  154.6223  135.2876  155.0311 H   0  0  0  0  0  0  0  0  0  0  0  0  # atno 10763 bound_to 10752
  154.1502  135.6504  153.4965 H   0  0  0  0  0  0  0  0  0  0  0  0  # atno 10764 bound_to 10752
  153.0241  135.5353  154.7018 H   0  0  0  0  0  0  0  0  0  0  0  0  # atno 10765 bound_to 10752
  140.0586  134.9217  157.1144 H   0  0  0  0  0  0  0  0  0  0  0  0  # atno 11005 bound_to 11000
  146.3157  139.7913  142.8985 LP  0  0  0  0  0  0  0  0  0  0  0  0  # atno 17320 bound_to 7965
  145.3457  141.0297  143.3367 LP  0  0  0  0  0  0  0  0  0  0  0  0  # atno 17321 bound_to 7965
  139.8508  144.7165  150.9217 LP  0  0  0  0  0  0  0  0  0  0  0  0  # atno 17342 bound_to 10162
  140.7797  143.3901  151.1324 LP  0  0  0  0  0  0  0  0  0  0  0  0  # atno 17343 bound_to 10162
  157.3321  131.0701  151.1853 LP  0  0  0  0  0  0  0  0  0  0  0  0  # atno 17370 bound_to 10713
  157.2730  130.6713  149.6029 LP  0  0  0  0  0  0  0  0  0  0  0  0  # atno 17371 bound_to 10713
  140.3805  134.2292  155.7171 LP  0  0  0  0  0  0  0  0  0  0  0  0  # atno 17394 bound_to 11000
  141.1963  133.8085  157.0677 LP  0  0  0  0  0  0  0  0  0  0  0  0  # atno 17395 bound_to 11000

$$$$
