AV-unprocessed.smi:1762|AV-procd|sdf|7117|dock6
  -GOLD-   22720 8343D 1   1.00000     0.00000
 Structure written by MMmdl.
 53 54  0  0  0  0  0  0  0  0  2 V2000
  146.0614  131.3032  152.0344 C   0  0  0  0  0  0  0  0  0  0  0  0
  146.3808  132.7994  152.1290 C   0  0  2  0  0  0  0  0  0  0  0  0
  147.1661  133.1459  153.4067 C   0  0  0  0  0  0  0  0  0  0  0  0
  147.4184  134.6127  153.5032 N   0  3  2  0  0  0  0  0  0  0  0  0
  148.2706  134.9847  154.6853 C   0  0  1  0  0  0  0  0  0  0  0  0
  147.5448  134.6724  156.0123 C   0  0  0  0  0  0  0  0  0  0  0  0
  147.1849  133.5219  156.2651 O   0  0  0  0  0  0  0  0  0  0  0  0
  147.3396  135.7041  156.8450 N   0  0  0  0  0  0  0  0  0  0  0  0
  146.6849  135.6088  158.1432 C   0  0  0  0  0  0  0  0  0  0  0  0
  147.3228  136.5864  159.1398 C   0  0  0  0  0  0  0  0  0  0  0  0
  147.2989  136.0560  160.5612 C   0  0  0  0  0  0  0  0  0  0  0  0
  146.9916  134.7034  160.8210 C   0  0  0  0  0  0  0  0  0  0  0  0
  146.9920  134.2602  162.1578 C   0  0  0  0  0  0  0  0  0  0  0  0
  147.2991  135.1812  163.1776 C   0  0  0  0  0  0  0  0  0  0  0  0
  147.5927  136.5105  162.8140 C   0  0  0  0  0  0  0  0  0  0  0  0
  147.5943  136.9460  161.5355 N   0  0  0  0  0  0  0  0  0  0  0  0
  149.7015  134.3468  154.6760 C   0  0  0  0  0  0  0  0  0  0  0  0
  149.7148  132.8308  154.9636 C   0  0  0  0  0  0  0  0  0  0  0  0
  150.6976  135.0690  155.6050 C   0  0  0  0  0  0  0  0  0  0  0  0
  146.1177  135.3320  153.4051 C   0  0  0  0  0  0  0  0  0  0  0  0
  145.3473  134.9192  152.1362 C   0  0  2  0  0  0  0  0  0  0  0  0
  143.9712  135.5893  152.0539 C   0  0  0  0  0  0  0  0  0  0  0  0
  145.1518  133.5119  152.1394 O   0  0  0  0  0  0  0  0  0  0  0  0
  146.9739  130.7065  152.0153 H   0  0  0  0  0  0  0  0  0  0  0  0
  145.5015  131.0813  151.1256 H   0  0  0  0  0  0  0  0  0  0  0  0
  145.4626  130.9722  152.8834 H   0  0  0  0  0  0  0  0  0  0  0  0
  146.9610  133.0861  151.2500 H   0  0  0  0  0  0  0  0  0  0  0  0
  146.6114  132.8163  154.2869 H   0  0  0  0  0  0  0  0  0  0  0  0
  148.0987  132.5823  153.3960 H   0  0  0  0  0  0  0  0  0  0  0  0
  148.4063  136.0668  154.6314 H   0  0  0  0  0  0  0  0  0  0  0  0
  147.6685  136.6171  156.5656 H   0  0  0  0  0  0  0  0  0  0  0  0
  145.6245  135.8330  158.0197 H   0  0  0  0  0  0  0  0  0  0  0  0
  146.7562  134.5910  158.5312 H   0  0  0  0  0  0  0  0  0  0  0  0
  148.3571  136.7868  158.8555 H   0  0  0  0  0  0  0  0  0  0  0  0
  146.8038  137.5453  159.1063 H   0  0  0  0  0  0  0  0  0  0  0  0
  146.7617  134.0193  160.0173 H   0  0  0  0  0  0  0  0  0  0  0  0
  146.7623  133.2323  162.3962 H   0  0  0  0  0  0  0  0  0  0  0  0
  147.3096  134.8764  164.2138 H   0  0  0  0  0  0  0  0  0  0  0  0
  147.8335  137.2431  163.5701 H   0  0  0  0  0  0  0  0  0  0  0  0
  150.1254  134.4948  153.6840 H   0  0  0  0  0  0  0  0  0  0  0  0
  149.4207  132.6124  155.9905 H   0  0  0  0  0  0  0  0  0  0  0  0
  150.7141  132.4187  154.8200 H   0  0  0  0  0  0  0  0  0  0  0  0
  149.0416  132.2822  154.3054 H   0  0  0  0  0  0  0  0  0  0  0  0
  150.4658  134.9130  156.6588 H   0  0  0  0  0  0  0  0  0  0  0  0
  150.7040  136.1431  155.4178 H   0  0  0  0  0  0  0  0  0  0  0  0
  151.7125  134.7050  155.4429 H   0  0  0  0  0  0  0  0  0  0  0  0
  145.5220  135.1285  154.2964 H   0  0  0  0  0  0  0  0  0  0  0  0
  146.2634  136.4089  153.3513 H   0  0  0  0  0  0  0  0  0  0  0  0
  145.9213  135.2008  151.2514 H   0  0  0  0  0  0  0  0  0  0  0  0
  144.0630  136.6756  152.0396 H   0  0  0  0  0  0  0  0  0  0  0  0
  143.3476  135.3173  152.9062 H   0  0  0  0  0  0  0  0  0  0  0  0
  143.4451  135.2896  151.1473 H   0  0  0  0  0  0  0  0  0  0  0  0
  147.9507  134.8716  152.6843 H   0  0  0  0  0  0  0  0  0  0  0  0
  1  2  1  0  0  0  0
  1 24  1  0  0  0  0
  1 25  1  0  0  0  0
  1 26  1  0  0  0  0
  2 23  1  0  0  0  0
  2  3  1  0  0  0  0
  2 27  1  0  0  0  0
  3  4  1  0  0  0  0
  3 28  1  0  0  0  0
  3 29  1  0  0  0  0
  4  5  1  0  0  0  0
  4 20  1  0  0  0  0
  4 53  1  0  0  0  0
  5  6  1  0  0  0  0
  5 17  1  0  0  0  0
  5 30  1  0  0  0  0
  6  7  2  0  0  0  0
  6  8  1  0  0  0  0
  8  9  1  0  0  0  0
  8 31  1  0  0  0  0
  9 10  1  0  0  0  0
  9 32  1  0  0  0  0
  9 33  1  0  0  0  0
 10 11  1  0  0  0  0
 10 34  1  0  0  0  0
 10 35  1  0  0  0  0
 11 16  1  0  0  0  0
 11 12  2  0  0  0  0
 12 13  1  0  0  0  0
 12 36  1  0  0  0  0
 13 14  2  0  0  0  0
 13 37  1  0  0  0  0
 14 15  1  0  0  0  0
 14 38  1  0  0  0  0
 15 16  2  0  0  0  0
 15 39  1  0  0  0  0
 17 18  1  0  0  0  0
 17 19  1  0  0  0  0
 17 40  1  0  0  0  0
 18 41  1  0  0  0  0
 18 42  1  0  0  0  0
 18 43  1  0  0  0  0
 19 44  1  0  0  0  0
 19 45  1  0  0  0  0
 19 46  1  0  0  0  0
 20 21  1  0  0  0  0
 20 47  1  0  0  0  0
 20 48  1  0  0  0  0
 21 22  1  0  0  0  0
 21 23  1  0  0  0  0
 21 49  1  0  0  0  0
 22 50  1  0  0  0  0
 22 51  1  0  0  0  0
 22 52  1  0  0  0  0
M  CHG  1   4   1
M  END
> <s_m_source_file>
AV-unprocessed.smi

> <i_m_source_file_index>
1762

> <i_lp_mmshare_version>
43012

> <i_f3d_flags>
0

> <s_epik_input>
W0NIM11bQ0BASF0xW0NIMl1OKFtDSDJdW0NASF0oTzEpW0NIM10pW0NAQEhdKFtDSF0oW0NIM10pW0NIM10pQyg9TylbTkhdW0NIMl1bQ0gyXWMyW2NIXVtjSF1bY0hdW2NIXW4y

> <s_epik_cmdline>
J2VwaWtfcHl0aG9uJywgJy1waCcsICc3LjAnLCAnLXRuJywgJzgnLCAnLW1hJywgJzIwMCcsICctbWV0YWxfYmluZGluZycsICctaW1hZScsICc8aW5maWxlLm1hZT4nLCAnLW9tYWUnLCAnPG91dGZpbGUubWFlPic=

> <r_epik_Ionization_Penalty>
2.27005

> <r_epik_Ionization_Penalty_Charging>
2.24983

> <r_epik_Ionization_Penalty_Neutral>
0.0202209

> <r_epik_State_Penalty>
2.40228

> <r_epik_Charging_Adjusted_Penalty>
4.65211

> <i_epik_Tot_Q>
1

> <i_epik_Tot_abs_Q>
1

> <r_epik_Metal_State_Penalty>
2.40762

> <b_epik_Metal_Only>
0

> <s_lp_Force_Field>
OPLS_2005

> <r_lp_Energy>
21.958

> <b_lp_Chiralities_Consistent>
1

> <s_lp_Variant>
AV-unprocessed.smi:1762-19

> <Gold.Version>
5.8.1

> <Gold.Id.Protein>
6NUR|6NUR_protein|mol2

> <Gold.PLP.Fitness>
43.9430

> <Gold.PLP.PLP>
-35.8884

> <Gold.PLP.part.hbond>
-3.0000

> <Gold.PLP.part.metal>
0.0000

> <Gold.PLP.part.buried>
-3.5264

> <Gold.PLP.part.nonpolar>
-29.7399

> <Gold.PLP.part.repulsive>
0.0730

> <Gold.PLP.ligand.clash>
0.0000

> <Gold.PLP.ligand.torsion>
0.7940

> <Gold.PLP.Chemscore.Hbond>
3.1001

> <Gold.PLP.Chemscore.CHOScore>
0.0000

> <Gold.PLP.Chemscore.Metal>
0.0000

> <Gold.Chemscore.Hbonds>
donor molecule, donor type, donor heavy atom, donor atom, acceptor molecule, acceptor atom, score
      L1  H     4    53       P1  7948  1.89
      P1  H  6931  6943       L1    16  0.60
      P1  H  6934  6947       L1    16  0.50

> <Gold.PLP.Chemscore.Internal.Correction>
0.3422

> <Gold.Rescore>
     Score         DG    S(hbond)    S(metal)    S(lipo)     H(rot)  DE(clash)    DE(int)     intcor
     14.16     -17.69       1.80        0.00      89.34       1.66       0.01       3.51       ----

> <Gold.Chemscore.Fitness>
14.1606

> <Gold.Chemscore.DG>
-17.6868

> <Gold.Chemscore.ZeroCoef>
-5.4800

> <Gold.Chemscore.Hbond>
1.8000

> <Gold.Chemscore.Metal>
0.0000

> <Gold.Chemscore.Lipo>
89.3447

> <Gold.Chemscore.Internal_Hbond>
0.0000

> <Gold.Chemscore.DEClash>
0.0144

> <Gold.Chemscore.DEInternal>
3.5118

> <Gold.Chemscore.Rot>
1.6635

> <Gold.Chemscore.Internal.Correction>
   9.000000E+99

> <Gold.Chemscore.Hbonds>
donor molecule, donor type, donor heavy atom, donor atom, acceptor molecule, acceptor atom, score
      L1  H     4    53       P1  7948  0.80
      P1  H  6931  6943       L1    16  0.04
      P1  H  6934  6947       L1    16  0.41

> <Gold.Chemscore.Hbond.Weighted>
-6.0121

> <Gold.Chemscore.Metal.Weighted>
-0.0000

> <Gold.Chemscore.Lipo.Weighted>
-10.4533

> <Gold.Chemscore.Internal_Hbond.Weighted>
0.0000

> <Gold.Chemscore.DEClash.Weighted>
0.0144

> <Gold.Chemscore.DEInternal.Weighted>
3.5118

> <Gold.Chemscore.Rot.Weighted>
4.2586

> <Gold.Chemscore.Internal.Correction.Weighted>
   9.000000E+99

> <Gold.Protein.RotatedTorsions>
[ 6907 6896 6895 6894 ] final -150.73 input  -60.11 | X-H torsion
[ 7974 7965 7964 7962 ] final  -52.42 input  175.53 | X-H torsion
[ 8008 7997 7996 7995 ] final  156.21 input   59.86 | X-H torsion
[ 10167 10162 10161 10158 ] final -178.33 input  -65.29 | X-H torsion
[ 10718 10713 10712 10709 ] final -160.39 input   66.30 | X-H torsion
[ 10763 10752 10751 10750 ] final  -10.67 input  -60.55 | X-H torsion
[ 11005 11000 10999 10996 ] final  163.63 input  -57.11 | X-H torsion

> <Gold.Protein.ActiveResidues>
 VAL166  LYS551  ARG553  GLY616  TRP617  ASP618  TYR619  PRO620  LYS621  CYS622 
 ASP623  PHE694  ASN695  SER759  ASP760  ASP761  ALA762  ILE779  LEU786  VAL792 
 PHE793  MET794  SER795  GLU796  ALA797  LYS798  CYS799  TRP800  GLU811  SER814 

> <Gold.Protein.RotatedAtoms>
  151.2028  133.4601  159.2596 H   0  0  0  0  0  0  0  0  0  0  0  0  # atno 6907 bound_to 6896
  151.1053  134.9996  159.8478 H   0  0  0  0  0  0  0  0  0  0  0  0  # atno 6908 bound_to 6896
  152.5446  134.1951  159.8742 H   0  0  0  0  0  0  0  0  0  0  0  0  # atno 6909 bound_to 6896
  145.9081  140.7938  142.9709 H   0  0  0  0  0  0  0  0  0  0  0  0  # atno 7974 bound_to 7965
  156.2435  140.1918  156.6920 H   0  0  0  0  0  0  0  0  0  0  0  0  # atno 8008 bound_to 7997
  154.6244  140.0604  156.9682 H   0  0  0  0  0  0  0  0  0  0  0  0  # atno 8009 bound_to 7997
  155.1810  140.3276  155.4378 H   0  0  0  0  0  0  0  0  0  0  0  0  # atno 8010 bound_to 7997
  139.5437  144.2293  152.0946 H   0  0  0  0  0  0  0  0  0  0  0  0  # atno 10167 bound_to 10162
  156.5815  130.8731  151.2866 H   0  0  0  0  0  0  0  0  0  0  0  0  # atno 10718 bound_to 10713
  153.4726  135.7017  153.5984 H   0  0  0  0  0  0  0  0  0  0  0  0  # atno 10763 bound_to 10752
  153.4232  135.3820  155.2124 H   0  0  0  0  0  0  0  0  0  0  0  0  # atno 10764 bound_to 10752
  154.8724  135.3932  154.4166 H   0  0  0  0  0  0  0  0  0  0  0  0  # atno 10765 bound_to 10752
  140.2377  134.8075  157.3380 H   0  0  0  0  0  0  0  0  0  0  0  0  # atno 11005 bound_to 11000
  144.6741  140.1783  143.7408 LP  0  0  0  0  0  0  0  0  0  0  0  0  # atno 17320 bound_to 7965
  145.8706  139.2270  143.1663 LP  0  0  0  0  0  0  0  0  0  0  0  0  # atno 17321 bound_to 7965
  140.1775  144.4876  150.6546 LP  0  0  0  0  0  0  0  0  0  0  0  0  # atno 17342 bound_to 10162
  140.6677  143.2274  151.5701 LP  0  0  0  0  0  0  0  0  0  0  0  0  # atno 17343 bound_to 10162
  157.7325  130.9716  150.1933 LP  0  0  0  0  0  0  0  0  0  0  0  0  # atno 17370 bound_to 10713
  156.2627  130.3712  149.8113 LP  0  0  0  0  0  0  0  0  0  0  0  0  # atno 17371 bound_to 10713
  140.1685  134.4639  155.7847 LP  0  0  0  0  0  0  0  0  0  0  0  0  # atno 17394 bound_to 11000
  141.2213  133.6931  156.7666 LP  0  0  0  0  0  0  0  0  0  0  0  0  # atno 17395 bound_to 11000

$$$$
