AV-unprocessed.smi:2029|AV-procd|sdf|8223|dock1
  -GOLD-   2272010493D 1   1.00000     0.00000
 Structure written by MMmdl.
 29 30  0  0  0  0  0  0  0  0  2 V2000
  153.1858  139.6003  154.8256 O   0  0  0  0  0  0  0  0  0  0  0  0
  152.0890  139.1357  155.1394 C   0  0  0  0  0  0  0  0  0  0  0  0
  151.3985  139.5594  156.2076 N   0  0  0  0  0  0  0  0  0  0  0  0
  151.8550  140.5969  157.1221 C   0  0  0  0  0  0  0  0  0  0  0  0
  151.0262  141.8768  156.9479 C   0  0  0  0  0  0  0  0  0  0  0  0
  151.3862  142.9384  157.9696 C   0  0  0  0  0  0  0  0  0  0  0  0
  152.3770  142.7287  158.9534 C   0  0  0  0  0  0  0  0  0  0  0  0
  152.6660  143.7600  159.8712 C   0  0  0  0  0  0  0  0  0  0  0  0
  151.9598  144.9778  159.7860 C   0  0  0  0  0  0  0  0  0  0  0  0
  150.9818  145.1341  158.7827 C   0  0  0  0  0  0  0  0  0  0  0  0
  150.7335  144.1225  157.9218 N   0  3  0  0  0  0  0  0  0  0  0  0
  151.4106  138.0507  154.3687 C   0  0  0  0  0  0  0  0  0  0  0  0
  150.0425  138.3504  153.7908 C   0  0  0  0  0  0  0  0  0  0  0  0
  150.1705  137.4267  154.9758 C   0  0  0  0  0  0  0  0  0  0  0  0
  150.5053  139.1297  156.4008 H   0  0  0  0  0  0  0  0  0  0  0  0
  151.7710  140.2353  158.1483 H   0  0  0  0  0  0  0  0  0  0  0  0
  152.9107  140.8019  156.9366 H   0  0  0  0  0  0  0  0  0  0  0  0
  151.1730  142.2858  155.9473 H   0  0  0  0  0  0  0  0  0  0  0  0
  149.9632  141.6472  157.0341 H   0  0  0  0  0  0  0  0  0  0  0  0
  152.9114  141.7911  159.0055 H   0  0  0  0  0  0  0  0  0  0  0  0
  153.4204  143.6186  160.6314 H   0  0  0  0  0  0  0  0  0  0  0  0
  152.1662  145.7799  160.4796 H   0  0  0  0  0  0  0  0  0  0  0  0
  150.3954  146.0306  158.6439 H   0  0  0  0  0  0  0  0  0  0  0  0
  152.0528  137.3927  153.7851 H   0  0  0  0  0  0  0  0  0  0  0  0
  149.6059  139.3320  153.9671 H   0  0  0  0  0  0  0  0  0  0  0  0
  149.8085  137.9108  152.8234 H   0  0  0  0  0  0  0  0  0  0  0  0
  150.0221  136.3615  154.8108 H   0  0  0  0  0  0  0  0  0  0  0  0
  149.8188  137.7957  155.9378 H   0  0  0  0  0  0  0  0  0  0  0  0
  150.0223  144.2584  157.2030 H   0  0  0  0  0  0  0  0  0  0  0  0
  1  2  2  0  0  0  0
  2  3  1  0  0  0  0
  2 12  1  0  0  0  0
  3  4  1  0  0  0  0
  3 15  1  0  0  0  0
  4  5  1  0  0  0  0
  4 16  1  0  0  0  0
  4 17  1  0  0  0  0
  5  6  1  0  0  0  0
  5 18  1  0  0  0  0
  5 19  1  0  0  0  0
  6 11  1  0  0  0  0
  6  7  2  0  0  0  0
  7  8  1  0  0  0  0
  7 20  1  0  0  0  0
  8  9  2  0  0  0  0
  8 21  1  0  0  0  0
  9 10  1  0  0  0  0
  9 22  1  0  0  0  0
 10 11  2  0  0  0  0
 10 23  1  0  0  0  0
 11 29  1  0  0  0  0
 12 14  1  0  0  0  0
 12 13  1  0  0  0  0
 12 24  1  0  0  0  0
 13 14  1  0  0  0  0
 13 25  1  0  0  0  0
 13 26  1  0  0  0  0
 14 27  1  0  0  0  0
 14 28  1  0  0  0  0
M  CHG  1  11   1
M  END
> <s_m_source_file>
AV-unprocessed.smi

> <i_m_source_file_index>
2029

> <i_lp_mmshare_version>
43012

> <i_f3d_flags>
0

> <s_epik_input>
W0NIMl0xW0NIMl1bQ0hdMUMoPU8pW05IXVtDSDJdW0NIMl1jMltjSF1bY0hdW2NIXVtjSF1uMg==

> <s_epik_cmdline>
J2VwaWtfcHl0aG9uJywgJy1waCcsICc3LjAnLCAnLXRuJywgJzgnLCAnLW1hJywgJzIwMCcsICctbWV0YWxfYmluZGluZycsICctaW1hZScsICc8aW5maWxlLm1hZT4nLCAnLW9tYWUnLCAnPG91dGZpbGUubWFlPic=

> <r_epik_Ionization_Penalty>
1.82741

> <r_epik_Ionization_Penalty_Charging>
1.82741

> <r_epik_Ionization_Penalty_Neutral>
2.2197e-08

> <r_epik_State_Penalty>
1.94311

> <r_epik_Charging_Adjusted_Penalty>
3.77052

> <i_epik_Tot_Q>
1

> <i_epik_Tot_abs_Q>
1

> <r_epik_Metal_State_Penalty>
1.96982

> <b_epik_Metal_Only>
0

> <s_lp_Force_Field>
OPLS_2005

> <r_lp_Energy>
10.9876

> <b_lp_Chiralities_Consistent>
1

> <s_lp_Variant>
AV-unprocessed.smi:2029-2

> <Gold.Version>
5.8.1

> <Gold.Id.Protein>
6NUR|6NUR_protein|mol2

> <Gold.PLP.Fitness>
43.4100

> <Gold.PLP.PLP>
-34.6068

> <Gold.PLP.part.hbond>
-3.0000

> <Gold.PLP.part.metal>
0.0000

> <Gold.PLP.part.buried>
-2.8569

> <Gold.PLP.part.nonpolar>
-29.2413

> <Gold.PLP.part.repulsive>
0.1632

> <Gold.PLP.ligand.clash>
0.0000

> <Gold.PLP.ligand.torsion>
0.1406

> <Gold.PLP.Chemscore.Hbond>
3.0000

> <Gold.PLP.Chemscore.CHOScore>
0.0000

> <Gold.PLP.Chemscore.Metal>
0.0000

> <Gold.Chemscore.Hbonds>
donor molecule, donor type, donor heavy atom, donor atom, acceptor molecule, acceptor atom, score
      L1  H    11    29       P1  8028  2.00
      P1  H  7997  8008       L1     1  1.00

> <Gold.PLP.Chemscore.Internal.Correction>
0.0845

> <Gold.Rescore>
     Score         DG    S(hbond)    S(metal)    S(lipo)     H(rot)  DE(clash)    DE(int)     intcor
     18.45     -18.77       1.90        0.00      93.86       1.58       0.09       0.22       ----

> <Gold.Chemscore.Fitness>
18.4527

> <Gold.Chemscore.DG>
-18.7655

> <Gold.Chemscore.ZeroCoef>
-5.4800

> <Gold.Chemscore.Hbond>
1.9020

> <Gold.Chemscore.Metal>
0.0000

> <Gold.Chemscore.Lipo>
93.8567

> <Gold.Chemscore.Internal_Hbond>
0.0000

> <Gold.Chemscore.DEClash>
0.0925

> <Gold.Chemscore.DEInternal>
0.2204

> <Gold.Chemscore.Rot>
1.5813

> <Gold.Chemscore.Internal.Correction>
   9.000000E+99

> <Gold.Chemscore.Hbonds>
donor molecule, donor type, donor heavy atom, donor atom, acceptor molecule, acceptor atom, score
      L1  H    11    29       P1  8028  0.65
      P1  H  7997  8008       L1     1  0.99

> <Gold.Chemscore.Hbond.Weighted>
-6.3525

> <Gold.Chemscore.Metal.Weighted>
-0.0000

> <Gold.Chemscore.Lipo.Weighted>
-10.9812

> <Gold.Chemscore.Internal_Hbond.Weighted>
0.0000

> <Gold.Chemscore.DEClash.Weighted>
0.0925

> <Gold.Chemscore.DEInternal.Weighted>
0.2204

> <Gold.Chemscore.Rot.Weighted>
4.0482

> <Gold.Chemscore.Internal.Correction.Weighted>
   9.000000E+99

> <Gold.Protein.RotatedTorsions>
[ 6907 6896 6895 6894 ] final  -35.07 input  -60.11 | X-H torsion
[ 7974 7965 7964 7962 ] final   45.51 input  175.53 | X-H torsion
[ 8008 7997 7996 7995 ] final    4.39 input   59.86 | X-H torsion
[ 10167 10162 10161 10158 ] final -155.53 input  -65.29 | X-H torsion
[ 10718 10713 10712 10709 ] final -106.82 input   66.30 | X-H torsion
[ 10763 10752 10751 10750 ] final  -55.48 input  -60.55 | X-H torsion
[ 11005 11000 10999 10996 ] final  -53.50 input  -57.11 | X-H torsion

> <Gold.Protein.ActiveResidues>
 VAL166  LYS551  ARG553  GLY616  TRP617  ASP618  TYR619  PRO620  LYS621  CYS622 
 ASP623  PHE694  ASN695  SER759  ASP760  ASP761  ALA762  ILE779  LEU786  VAL792 
 PHE793  MET794  SER795  GLU796  ALA797  LYS798  CYS799  TRP800  GLU811  SER814 

> <Gold.Protein.RotatedAtoms>
  151.0445  134.9630  159.8178 H   0  0  0  0  0  0  0  0  0  0  0  0  # atno 6907 bound_to 6896
  152.5370  134.2616  159.8947 H   0  0  0  0  0  0  0  0  0  0  0  0  # atno 6908 bound_to 6896
  151.2629  133.4250  159.2651 H   0  0  0  0  0  0  0  0  0  0  0  0  # atno 6909 bound_to 6896
  146.0473  139.4956  142.9740 H   0  0  0  0  0  0  0  0  0  0  0  0  # atno 7974 bound_to 7965
  154.7153  140.2701  155.6591 H   0  0  0  0  0  0  0  0  0  0  0  0  # atno 8008 bound_to 7997
  156.2807  140.2745  156.1732 H   0  0  0  0  0  0  0  0  0  0  0  0  # atno 8009 bound_to 7997
  155.0580  140.0371  157.2557 H   0  0  0  0  0  0  0  0  0  0  0  0  # atno 8010 bound_to 7997
  139.6924  143.9399  152.2391 H   0  0  0  0  0  0  0  0  0  0  0  0  # atno 10167 bound_to 10162
  156.0408  130.5632  150.7735 H   0  0  0  0  0  0  0  0  0  0  0  0  # atno 10718 bound_to 10713
  154.1915  135.6426  153.5061 H   0  0  0  0  0  0  0  0  0  0  0  0  # atno 10763 bound_to 10752
  153.0034  135.5430  154.6410 H   0  0  0  0  0  0  0  0  0  0  0  0  # atno 10764 bound_to 10752
  154.5800  135.2924  155.0715 H   0  0  0  0  0  0  0  0  0  0  0  0  # atno 10765 bound_to 10752
  141.0979  133.6622  156.4181 H   0  0  0  0  0  0  0  0  0  0  0  0  # atno 11005 bound_to 11000
  145.6784  141.0198  143.1620 LP  0  0  0  0  0  0  0  0  0  0  0  0  # atno 17320 bound_to 7965
  144.7104  139.8392  143.7416 LP  0  0  0  0  0  0  0  0  0  0  0  0  # atno 17321 bound_to 7965
  139.9219  144.6795  150.8453 LP  0  0  0  0  0  0  0  0  0  0  0  0  # atno 17342 bound_to 10162
  140.7686  143.3369  151.2290 LP  0  0  0  0  0  0  0  0  0  0  0  0  # atno 17343 bound_to 10162
  157.5222  131.0932  151.0064 LP  0  0  0  0  0  0  0  0  0  0  0  0  # atno 17370 bound_to 10713
  157.0391  130.5742  149.5353 LP  0  0  0  0  0  0  0  0  0  0  0  0  # atno 17371 bound_to 10713
  140.5095  134.6409  157.5279 LP  0  0  0  0  0  0  0  0  0  0  0  0  # atno 17394 bound_to 11000
  139.9821  134.7120  155.9840 LP  0  0  0  0  0  0  0  0  0  0  0  0  # atno 17395 bound_to 11000

$$$$
