AV-unprocessed.smi:788|AV-procd|sdf|3735|dock2
  -GOLD-   22720 1173D 1   1.00000     0.00000
 Structure written by MMmdl.
 34 35  0  0  0  0  0  0  0  0  2 V2000
  153.6817  141.4377  161.5193 C   0  0  0  0  0  0  0  0  0  0  0  0
  153.1081  142.6534  160.7683 C   0  0  2  0  0  0  0  0  0  0  0  0
  152.5003  143.6628  161.7622 C   0  0  0  0  0  0  0  0  0  0  0  0
  151.9246  144.8943  161.0487 C   0  0  0  0  0  0  0  0  0  0  0  0
  150.8891  144.4870  159.9893 C   0  0  0  0  0  0  0  0  0  0  0  0
  151.4628  143.4859  158.9671 C   0  0  1  0  0  0  0  0  0  0  0  0
  152.4327  144.1650  157.9773 C   0  0  0  0  0  0  0  0  0  0  0  0
  152.0623  142.2519  159.6959 C   0  0  1  0  0  0  0  0  0  0  0  0
  152.6459  141.3056  158.7458 N   0  0  0  0  0  0  0  0  0  0  0  0
  152.0150  140.6957  157.7234 C   0  0  0  0  0  0  0  0  0  0  0  0
  150.8282  140.9474  157.5192 O   0  0  0  0  0  0  0  0  0  0  0  0
  152.7345  139.8271  156.9650 N   0  5  0  0  0  0  0  0  0  0  0  0
  152.1697  139.0543  156.0187 C   0  0  0  0  0  0  0  0  0  0  0  0
  152.6526  137.8445  155.6926 N   0  0  0  0  0  0  0  0  0  0  0  0
  151.9154  137.2118  154.7010 N   0  0  0  0  0  0  0  0  0  0  0  0
  150.8970  137.9696  154.2942 C   0  0  0  0  0  0  0  0  0  0  0  0
  150.7446  139.5229  155.0873 S   0  0  0  0  0  0  0  0  0  0  0  0
  152.8930  140.8722  162.0162 H   0  0  0  0  0  0  0  0  0  0  0  0
  154.3969  141.7500  162.2805 H   0  0  0  0  0  0  0  0  0  0  0  0
  154.2055  140.7578  160.8470 H   0  0  0  0  0  0  0  0  0  0  0  0
  153.9449  143.1426  160.2681 H   0  0  0  0  0  0  0  0  0  0  0  0
  151.7118  143.1790  162.3403 H   0  0  0  0  0  0  0  0  0  0  0  0
  153.2564  143.9811  162.4808 H   0  0  0  0  0  0  0  0  0  0  0  0
  151.4630  145.5602  161.7782 H   0  0  0  0  0  0  0  0  0  0  0  0
  152.7312  145.4621  160.5843 H   0  0  0  0  0  0  0  0  0  0  0  0
  150.0324  144.0336  160.4893 H   0  0  0  0  0  0  0  0  0  0  0  0
  150.5064  145.3721  159.4798 H   0  0  0  0  0  0  0  0  0  0  0  0
  150.6208  143.1346  158.3690 H   0  0  0  0  0  0  0  0  0  0  0  0
  153.3374  144.5221  158.4681 H   0  0  0  0  0  0  0  0  0  0  0  0
  151.9604  145.0220  157.4967 H   0  0  0  0  0  0  0  0  0  0  0  0
  152.7366  143.4828  157.1830 H   0  0  0  0  0  0  0  0  0  0  0  0
  151.2491  141.7445  160.2190 H   0  0  0  0  0  0  0  0  0  0  0  0
  153.6221  141.0860  158.8776 H   0  0  0  0  0  0  0  0  0  0  0  0
  150.2322  137.6121  153.5221 H   0  0  0  0  0  0  0  0  0  0  0  0
  1  2  1  0  0  0  0
  1 18  1  0  0  0  0
  1 19  1  0  0  0  0
  1 20  1  0  0  0  0
  2  8  1  0  0  0  0
  2  3  1  0  0  0  0
  2 21  1  0  0  0  0
  3  4  1  0  0  0  0
  3 22  1  0  0  0  0
  3 23  1  0  0  0  0
  4  5  1  0  0  0  0
  4 24  1  0  0  0  0
  4 25  1  0  0  0  0
  5  6  1  0  0  0  0
  5 26  1  0  0  0  0
  5 27  1  0  0  0  0
  6  7  1  0  0  0  0
  6  8  1  0  0  0  0
  6 28  1  0  0  0  0
  7 29  1  0  0  0  0
  7 30  1  0  0  0  0
  7 31  1  0  0  0  0
  8  9  1  0  0  0  0
  8 32  1  0  0  0  0
  9 10  1  0  0  0  0
  9 33  1  0  0  0  0
 10 11  2  0  0  0  0
 10 12  1  0  0  0  0
 12 13  1  0  0  0  0
 13 17  1  0  0  0  0
 13 14  2  0  0  0  0
 14 15  1  0  0  0  0
 15 16  2  0  0  0  0
 16 17  1  0  0  0  0
 16 34  1  0  0  0  0
M  CHG  1  12  -1
M  END
> <s_m_source_file>
AV-unprocessed.smi

> <i_m_source_file_index>
788

> <i_lp_mmshare_version>
43012

> <i_f3d_flags>
0

> <s_epik_input>
W0NIM11bQ0BASF0xW0NIMl1bQ0gyXVtDSDJdW0NAQEhdKFtDSDNdKVtDQEhdMVtOSF1DKD1PKVtOSF1jMm5uW2NIXXMy

> <s_epik_cmdline>
J2VwaWtfcHl0aG9uJywgJy1waCcsICc3LjAnLCAnLXRuJywgJzgnLCAnLW1hJywgJzIwMCcsICctbWV0YWxfYmluZGluZycsICctaW1hZScsICc8aW5maWxlLm1hZT4nLCAnLW9tYWUnLCAnPG91dGZpbGUubWFlPic=

> <r_lp_tautomer_probability>
1

> <r_epik_Ionization_Penalty>
4.58638

> <r_epik_Ionization_Penalty_Charging>
4.53816

> <r_epik_Ionization_Penalty_Neutral>
0.048215

> <r_epik_State_Penalty>
4.53788

> <r_epik_Charging_Adjusted_Penalty>
9.07605

> <i_epik_Tot_Q>
-1

> <i_epik_Tot_abs_Q>
1

> <r_epik_Metal_State_Penalty>
0.838628

> <b_epik_Metal_Only>
1

> <s_lp_Force_Field>
OPLS_2005

> <r_lp_Energy>
12.907

> <b_lp_Chiralities_Consistent>
1

> <s_lp_Variant>
AV-unprocessed.smi:788-5

> <Gold.Version>
5.8.1

> <Gold.Id.Protein>
6NUR|6NUR_protein|mol2

> <Gold.PLP.Fitness>
52.2912

> <Gold.PLP.PLP>
-40.6728

> <Gold.PLP.part.hbond>
-2.4391

> <Gold.PLP.part.metal>
0.0000

> <Gold.PLP.part.buried>
-2.5677

> <Gold.PLP.part.nonpolar>
-34.9306

> <Gold.PLP.part.repulsive>
0.2482

> <Gold.PLP.ligand.clash>
0.0000

> <Gold.PLP.ligand.torsion>
0.2160

> <Gold.PLP.Chemscore.Hbond>
2.9280

> <Gold.PLP.Chemscore.CHOScore>
1.0810

> <Gold.PLP.Chemscore.Metal>
0.0000

> <Gold.Chemscore.Hbonds>
donor molecule, donor type, donor heavy atom, donor atom, acceptor molecule, acceptor atom, score
      P1  H  7997  8009       L1    12  2.00
      P1  H 10752 10764       L1    15  0.96
      L1  C    16    34       P1  7948  1.00
      L1  C    16    34       P1  7949  0.11

> <Gold.PLP.Chemscore.Internal.Correction>
0.0234

> <Gold.Rescore>
     Score         DG    S(hbond)    S(metal)    S(lipo)     H(rot)  DE(clash)    DE(int)     intcor
     19.09     -20.77       1.71        0.00     103.81       1.00       0.05       1.64       ----

> <Gold.Chemscore.Fitness>
19.0877

> <Gold.Chemscore.DG>
-20.7741

> <Gold.Chemscore.ZeroCoef>
-5.4800

> <Gold.Chemscore.Hbond>
1.7092

> <Gold.Chemscore.Metal>
0.0000

> <Gold.Chemscore.Lipo>
103.8072

> <Gold.Chemscore.Internal_Hbond>
0.0000

> <Gold.Chemscore.DEClash>
0.0460

> <Gold.Chemscore.DEInternal>
1.6404

> <Gold.Chemscore.Rot>
1.0000

> <Gold.Chemscore.Internal.Correction>
   9.000000E+99

> <Gold.Chemscore.Hbonds>
donor molecule, donor type, donor heavy atom, donor atom, acceptor molecule, acceptor atom, score
      P1  H  7997  8009       L1    12  0.87
      P1  H 10752 10764       L1    15  0.28

> <Gold.Chemscore.Hbond.Weighted>
-5.7086

> <Gold.Chemscore.Metal.Weighted>
-0.0000

> <Gold.Chemscore.Lipo.Weighted>
-12.1454

> <Gold.Chemscore.Internal_Hbond.Weighted>
0.0000

> <Gold.Chemscore.DEClash.Weighted>
0.0460

> <Gold.Chemscore.DEInternal.Weighted>
1.6404

> <Gold.Chemscore.Rot.Weighted>
2.5600

> <Gold.Chemscore.Internal.Correction.Weighted>
   9.000000E+99

> <Gold.Protein.RotatedTorsions>
[ 6907 6896 6895 6894 ] final   35.84 input  -60.11 | X-H torsion
[ 7974 7965 7964 7962 ] final  142.51 input  175.53 | X-H torsion
[ 8008 7997 7996 7995 ] final  167.67 input   59.86 | X-H torsion
[ 10167 10162 10161 10158 ] final  -38.50 input  -65.29 | X-H torsion
[ 10718 10713 10712 10709 ] final   21.64 input   66.30 | X-H torsion
[ 10763 10752 10751 10750 ] final  -69.70 input  -60.55 | X-H torsion
[ 11005 11000 10999 10996 ] final  -77.85 input  -57.11 | X-H torsion

> <Gold.Protein.ActiveResidues>
 VAL166  LYS551  ARG553  GLY616  TRP617  ASP618  TYR619  PRO620  LYS621  CYS622 
 ASP623  PHE694  ASN695  SER759  ASP760  ASP761  ALA762  ILE779  LEU786  VAL792 
 PHE793  MET794  SER795  GLU796  ALA797  LYS798  CYS799  TRP800  GLU811  SER814 

> <Gold.Protein.RotatedAtoms>
  152.1217  134.9201  160.0562 H   0  0  0  0  0  0  0  0  0  0  0  0  # atno 6907 bound_to 6896
  152.0339  133.3944  159.4317 H   0  0  0  0  0  0  0  0  0  0  0  0  # atno 6908 bound_to 6896
  150.6849  134.3411  159.4912 H   0  0  0  0  0  0  0  0  0  0  0  0  # atno 6909 bound_to 6896
  144.9001  139.5435  143.5757 H   0  0  0  0  0  0  0  0  0  0  0  0  # atno 7974 bound_to 7965
  156.1613  140.1610  156.8606 H   0  0  0  0  0  0  0  0  0  0  0  0  # atno 8008 bound_to 7997
  154.5164  140.0788  156.8124 H   0  0  0  0  0  0  0  0  0  0  0  0  # atno 8009 bound_to 7997
  155.3701  140.3400  155.4245 H   0  0  0  0  0  0  0  0  0  0  0  0  # atno 8010 bound_to 7997
  140.7090  143.3273  151.2650 H   0  0  0  0  0  0  0  0  0  0  0  0  # atno 10167 bound_to 10162
  157.1412  130.6633  149.5982 H   0  0  0  0  0  0  0  0  0  0  0  0  # atno 10718 bound_to 10713
  154.4072  135.6017  153.5931 H   0  0  0  0  0  0  0  0  0  0  0  0  # atno 10763 bound_to 10752
  152.9789  135.5920  154.4114 H   0  0  0  0  0  0  0  0  0  0  0  0  # atno 10764 bound_to 10752
  154.3921  135.2842  155.2127 H   0  0  0  0  0  0  0  0  0  0  0  0  # atno 10765 bound_to 10752
  141.1662  133.7039  156.7883 H   0  0  0  0  0  0  0  0  0  0  0  0  # atno 11005 bound_to 11000
  146.3104  139.7725  142.9024 LP  0  0  0  0  0  0  0  0  0  0  0  0  # atno 17320 bound_to 7965
  145.3631  141.0329  143.3273 LP  0  0  0  0  0  0  0  0  0  0  0  0  # atno 17321 bound_to 7965
  139.6745  143.9962  152.2773 LP  0  0  0  0  0  0  0  0  0  0  0  0  # atno 17342 bound_to 10162
  139.9571  144.6582  150.8115 LP  0  0  0  0  0  0  0  0  0  0  0  0  # atno 17343 bound_to 10162
  155.9788  130.4777  150.6678 LP  0  0  0  0  0  0  0  0  0  0  0  0  # atno 17370 bound_to 10713
  157.4305  131.0848  151.1043 LP  0  0  0  0  0  0  0  0  0  0  0  0  # atno 17371 bound_to 10713
  140.2344  134.8661  157.3509 LP  0  0  0  0  0  0  0  0  0  0  0  0  # atno 17394 bound_to 11000
  140.1859  134.4432  155.7744 LP  0  0  0  0  0  0  0  0  0  0  0  0  # atno 17395 bound_to 11000

$$$$
