AV-unprocessed.smi:1875|AV-procd|sdf|7616|dock6
  -GOLD-   22720 9343D 1   1.00000     0.00000
 Structure written by MMmdl.
 49 51  0  0  0  0  0  0  0  0  3 V2000
  146.7608  131.4949  156.4656 C   0  0  0  0  0  0  0  0  0  0  0  0
  147.5869  132.1160  155.3587 C   0  0  0  0  0  0  0  0  0  0  0  0
  147.2772  131.7724  154.1050 N   0  0  0  0  0  0  0  0  0  0  0  0
  148.0150  132.3255  153.1179 C   0  0  0  0  0  0  0  0  0  0  0  0
  149.0585  133.2328  153.3927 C   0  0  0  0  0  0  0  0  0  0  0  0
  149.2917  133.5211  154.7537 C   0  0  0  0  0  0  0  0  0  0  0  0
  150.3733  134.4973  155.1783 C   0  0  0  0  0  0  0  0  0  0  0  0
  150.1037  135.8645  154.6852 N   0  3  0  0  0  0  0  0  0  0  0  0
  149.3620  136.7297  155.6279 C   0  0  0  0  0  0  0  0  0  0  0  0
  149.3167  138.1893  155.1398 C   0  0  2  0  0  0  0  0  0  0  0  0
  148.9498  138.2083  153.7758 O   0  0  0  0  0  0  0  0  0  0  0  0
  150.6652  138.9272  155.2751 C   0  0  0  0  0  0  0  0  0  0  0  0
  150.5162  140.3662  155.5316 N   0  0  0  0  0  0  0  0  0  0  0  0
  149.8207  141.3137  154.8440 C   0  0  0  0  0  0  0  0  0  0  0  0
  150.0006  142.5011  155.4860 N   0  3  0  0  0  0  0  0  0  0  0  0
  150.8126  142.3074  156.6057 C   0  0  0  0  0  0  0  0  0  0  0  0
  151.2699  143.2026  157.5653 C   0  0  0  0  0  0  0  0  0  0  0  0
  152.0854  142.6825  158.5958 C   0  0  0  0  0  0  0  0  0  0  0  0
  152.5998  143.6345  159.6621 C   0  0  0  0  0  0  0  0  0  0  0  0
  152.4176  141.3035  158.6390 C   0  0  0  0  0  0  0  0  0  0  0  0
  153.2917  140.7551  159.7543 C   0  0  0  0  0  0  0  0  0  0  0  0
  151.9452  140.4096  157.6511 C   0  0  0  0  0  0  0  0  0  0  0  0
  151.1430  140.9389  156.6433 C   0  0  0  0  0  0  0  0  0  0  0  0
  148.5522  132.9596  155.7366 N   0  0  0  0  0  0  0  0  0  0  0  0
  145.9155  130.9326  156.0664 H   0  0  0  0  0  0  0  0  0  0  0  0
  146.3704  132.2677  157.1284 H   0  0  0  0  0  0  0  0  0  0  0  0
  147.3744  130.8134  157.0554 H   0  0  0  0  0  0  0  0  0  0  0  0
  147.7689  132.0472  152.1040 H   0  0  0  0  0  0  0  0  0  0  0  0
  149.6437  133.6774  152.6011 H   0  0  0  0  0  0  0  0  0  0  0  0
  150.4806  134.5048  156.2641 H   0  0  0  0  0  0  0  0  0  0  0  0
  151.3280  134.1636  154.7711 H   0  0  0  0  0  0  0  0  0  0  0  0
  150.9891  136.3096  154.4905 H   0  0  0  0  0  0  0  0  0  0  0  0
  148.3462  136.3467  155.7147 H   0  0  0  0  0  0  0  0  0  0  0  0
  149.8118  136.6700  156.6200 H   0  0  0  0  0  0  0  0  0  0  0  0
  148.5539  138.7311  155.7002 H   0  0  0  0  0  0  0  0  0  0  0  0
  149.0989  137.3503  153.4075 H   0  0  0  0  0  0  0  0  0  0  0  0
  151.2426  138.5104  156.1017 H   0  0  0  0  0  0  0  0  0  0  0  0
  151.2733  138.8007  154.3781 H   0  0  0  0  0  0  0  0  0  0  0  0
  149.2363  141.1552  153.9487 H   0  0  0  0  0  0  0  0  0  0  0  0
  151.0119  144.2511  157.5278 H   0  0  0  0  0  0  0  0  0  0  0  0
  152.2402  143.3363  160.6472 H   0  0  0  0  0  0  0  0  0  0  0  0
  152.2643  144.6558  159.4797 H   0  0  0  0  0  0  0  0  0  0  0  0
  153.6901  143.6402  159.6772 H   0  0  0  0  0  0  0  0  0  0  0  0
  153.4367  139.6789  159.6561 H   0  0  0  0  0  0  0  0  0  0  0  0
  152.8344  140.9405  160.7265 H   0  0  0  0  0  0  0  0  0  0  0  0
  154.2742  141.2273  159.7375 H   0  0  0  0  0  0  0  0  0  0  0  0
  152.1971  139.3597  157.6844 H   0  0  0  0  0  0  0  0  0  0  0  0
  149.5820  135.7975  153.8231 H   0  0  0  0  0  0  0  0  0  0  0  0
  149.5915  143.3769  155.1852 H   0  0  0  0  0  0  0  0  0  0  0  0
  1  2  1  0  0  0  0
  1 25  1  0  0  0  0
  1 26  1  0  0  0  0
  1 27  1  0  0  0  0
  2 24  1  0  0  0  0
  2  3  2  0  0  0  0
  3  4  1  0  0  0  0
  4  5  2  0  0  0  0
  4 28  1  0  0  0  0
  5  6  1  0  0  0  0
  5 29  1  0  0  0  0
  6  7  1  0  0  0  0
  6 24  2  0  0  0  0
  7  8  1  0  0  0  0
  7 30  1  0  0  0  0
  7 31  1  0  0  0  0
  8  9  1  0  0  0  0
  8 32  1  0  0  0  0
  8 48  1  0  0  0  0
  9 10  1  0  0  0  0
  9 33  1  0  0  0  0
  9 34  1  0  0  0  0
 10 11  1  0  0  0  0
 10 12  1  0  0  0  0
 10 35  1  0  0  0  0
 11 36  1  0  0  0  0
 12 13  1  0  0  0  0
 12 37  1  0  0  0  0
 12 38  1  0  0  0  0
 13 23  1  0  0  0  0
 13 14  1  0  0  0  0
 14 15  2  0  0  0  0
 14 39  1  0  0  0  0
 15 16  1  0  0  0  0
 15 49  1  0  0  0  0
 16 23  2  0  0  0  0
 16 17  1  0  0  0  0
 17 18  2  0  0  0  0
 17 40  1  0  0  0  0
 18 19  1  0  0  0  0
 18 20  1  0  0  0  0
 19 41  1  0  0  0  0
 19 42  1  0  0  0  0
 19 43  1  0  0  0  0
 20 21  1  0  0  0  0
 20 22  2  0  0  0  0
 21 44  1  0  0  0  0
 21 45  1  0  0  0  0
 21 46  1  0  0  0  0
 22 23  1  0  0  0  0
 22 47  1  0  0  0  0
M  CHG  1   8   1
M  CHG  1  15   1
M  END
> <s_m_source_file>
AV-unprocessed.smi

> <i_m_source_file_index>
1875

> <i_lp_mmshare_version>
43012

> <i_f3d_flags>
0

> <s_epik_input>
W0NIM11jMW5bY0hdW2NIXWMobjEpW0NIMl1bTkhdW0NIMl1bQ0BIXShbT0hdKVtDSDJdbihbY0hdbjIpYyhjMjMpW2NIXWMoW0NIM10pYyhbY0hdMylbQ0gzXQ==

> <s_epik_cmdline>
J2VwaWtfcHl0aG9uJywgJy1waCcsICc3LjAnLCAnLXRuJywgJzgnLCAnLW1hJywgJzIwMCcsICctbWV0YWxfYmluZGluZycsICctaW1hZScsICc8aW5maWxlLm1hZT4nLCAnLW9tYWUnLCAnPG91dGZpbGUubWFlPic=

> <r_lp_tautomer_probability>
1

> <r_epik_Ionization_Penalty>
1.27527

> <r_epik_Ionization_Penalty_Charging>
1.27526

> <r_epik_Ionization_Penalty_Neutral>
8.72389e-06

> <r_epik_State_Penalty>
1.28654

> <r_epik_Charging_Adjusted_Penalty>
2.5618

> <i_epik_Tot_Q>
2

> <i_epik_Tot_abs_Q>
2

> <r_epik_Metal_State_Penalty>
1.36882

> <b_epik_Metal_Only>
0

> <s_epik_Chemistry_Notes>
This compound contains an electron-poor aromatic ring that is susceptible to covalent hydrolysis at low pH, typically resulting in measured values for nitrogen ring protonation that are around two units higher than predicted values.

> <s_lp_Force_Field>
OPLS_2005

> <r_lp_Energy>
13.455

> <b_lp_Chiralities_Consistent>
1

> <s_lp_Variant>
AV-unprocessed.smi:1875-5

> <Gold.Version>
5.8.1

> <Gold.Id.Protein>
6NUR|6NUR_protein|mol2

> <Gold.PLP.Fitness>
58.9081

> <Gold.PLP.PLP>
-42.4123

> <Gold.PLP.part.hbond>
-3.3616

> <Gold.PLP.part.metal>
0.0000

> <Gold.PLP.part.buried>
-3.1315

> <Gold.PLP.part.nonpolar>
-35.1391

> <Gold.PLP.part.repulsive>
0.3189

> <Gold.PLP.ligand.clash>
0.0000

> <Gold.PLP.ligand.torsion>
0.7588

> <Gold.PLP.Chemscore.Hbond>
5.0000

> <Gold.PLP.Chemscore.CHOScore>
0.9591

> <Gold.PLP.Chemscore.Metal>
0.0000

> <Gold.Chemscore.Hbonds>
donor molecule, donor type, donor heavy atom, donor atom, acceptor molecule, acceptor atom, score
      L1  H     8    48       P1  7948  1.82
      L1  H    11    36       P1  7948  0.93
      L1  H    15    49       P1  8028  1.86
      L1  C     4    28       P1 10747  1.00

> <Gold.PLP.Chemscore.Internal.Correction>
0.1361

> <Gold.Rescore>
     Score         DG    S(hbond)    S(metal)    S(lipo)     H(rot)  DE(clash)    DE(int)     intcor
     18.20     -19.08       2.69        0.00     102.40       2.88       0.02       0.86       ----

> <Gold.Chemscore.Fitness>
18.1956

> <Gold.Chemscore.DG>
-19.0764

> <Gold.Chemscore.ZeroCoef>
-5.4800

> <Gold.Chemscore.Hbond>
2.6942

> <Gold.Chemscore.Metal>
0.0000

> <Gold.Chemscore.Lipo>
102.3951

> <Gold.Chemscore.Internal_Hbond>
0.0000

> <Gold.Chemscore.DEClash>
0.0178

> <Gold.Chemscore.DEInternal>
0.8630

> <Gold.Chemscore.Rot>
2.8838

> <Gold.Chemscore.Internal.Correction>
   9.000000E+99

> <Gold.Chemscore.Hbonds>
donor molecule, donor type, donor heavy atom, donor atom, acceptor molecule, acceptor atom, score
      L1  H     8    48       P1  7948  0.30
      L1  H    11    36       P1  7948  0.89
      L1  H    15    49       P1  8028  0.89

> <Gold.Chemscore.Hbond.Weighted>
-8.9986

> <Gold.Chemscore.Metal.Weighted>
-0.0000

> <Gold.Chemscore.Lipo.Weighted>
-11.9802

> <Gold.Chemscore.Internal_Hbond.Weighted>
0.0000

> <Gold.Chemscore.DEClash.Weighted>
0.0178

> <Gold.Chemscore.DEInternal.Weighted>
0.8630

> <Gold.Chemscore.Rot.Weighted>
7.3824

> <Gold.Chemscore.Internal.Correction.Weighted>
   9.000000E+99

> <Gold.Protein.RotatedTorsions>
[ 6907 6896 6895 6894 ] final -158.66 input  -60.11 | X-H torsion
[ 7974 7965 7964 7962 ] final   30.48 input  175.53 | X-H torsion
[ 8008 7997 7996 7995 ] final   -9.33 input   59.86 | X-H torsion
[ 10167 10162 10161 10158 ] final -102.94 input  -65.29 | X-H torsion
[ 10718 10713 10712 10709 ] final    7.39 input   66.30 | X-H torsion
[ 10763 10752 10751 10750 ] final  -75.19 input  -60.55 | X-H torsion
[ 11005 11000 10999 10996 ] final -148.92 input  -57.11 | X-H torsion

> <Gold.Protein.ActiveResidues>
 VAL166  LYS551  ARG553  GLY616  TRP617  ASP618  TYR619  PRO620  LYS621  CYS622 
 ASP623  PHE694  ASN695  SER759  ASP760  ASP761  ALA762  ILE779  LEU786  VAL792 
 PHE793  MET794  SER795  GLU796  ALA797  LYS798  CYS799  TRP800  GLU811  SER814 

> <Gold.Protein.RotatedAtoms>
  151.3217  133.4037  159.2654 H   0  0  0  0  0  0  0  0  0  0  0  0  # atno 6907 bound_to 6896
  151.0029  134.9337  159.7974 H   0  0  0  0  0  0  0  0  0  0  0  0  # atno 6908 bound_to 6896
  152.5280  134.3181  159.9191 H   0  0  0  0  0  0  0  0  0  0  0  0  # atno 6909 bound_to 6896
  146.1609  139.6782  142.9034 H   0  0  0  0  0  0  0  0  0  0  0  0  # atno 7974 bound_to 7965
  154.5657  140.2358  155.8268 H   0  0  0  0  0  0  0  0  0  0  0  0  # atno 8008 bound_to 7997
  156.2066  140.3038  155.9599 H   0  0  0  0  0  0  0  0  0  0  0  0  # atno 8009 bound_to 7997
  155.2806  140.0422  157.3005 H   0  0  0  0  0  0  0  0  0  0  0  0  # atno 8010 bound_to 7997
  140.2253  143.3646  152.0934 H   0  0  0  0  0  0  0  0  0  0  0  0  # atno 10167 bound_to 10162
  156.9362  130.5844  149.5651 H   0  0  0  0  0  0  0  0  0  0  0  0  # atno 10718 bound_to 10713
  154.4832  135.5839  153.6405 H   0  0  0  0  0  0  0  0  0  0  0  0  # atno 10763 bound_to 10752
  152.9851  135.6095  154.3219 H   0  0  0  0  0  0  0  0  0  0  0  0  # atno 10764 bound_to 10752
  154.3112  135.2845  155.2544 H   0  0  0  0  0  0  0  0  0  0  0  0  # atno 10765 bound_to 10752
  140.7562  134.3350  157.5113 H   0  0  0  0  0  0  0  0  0  0  0  0  # atno 11005 bound_to 11000
  145.4591  141.0432  143.2762 LP  0  0  0  0  0  0  0  0  0  0  0  0  # atno 17320 bound_to 7965
  144.8025  139.6113  143.7065 LP  0  0  0  0  0  0  0  0  0  0  0  0  # atno 17321 bound_to 7965
  139.5129  144.6924  151.5722 LP  0  0  0  0  0  0  0  0  0  0  0  0  # atno 17342 bound_to 10162
  140.6225  143.9231  150.6538 LP  0  0  0  0  0  0  0  0  0  0  0  0  # atno 17343 bound_to 10162
  156.0424  130.5505  150.8803 LP  0  0  0  0  0  0  0  0  0  0  0  0  # atno 17370 bound_to 10713
  157.5814  131.0946  150.9264 LP  0  0  0  0  0  0  0  0  0  0  0  0  # atno 17371 bound_to 10713
  139.8779  134.9173  156.3176 LP  0  0  0  0  0  0  0  0  0  0  0  0  # atno 17394 bound_to 11000
  140.9705  133.7330  156.0528 LP  0  0  0  0  0  0  0  0  0  0  0  0  # atno 17395 bound_to 11000

$$$$
