AV-unprocessed.smi:1243|AV-procd|sdf|5218|dock1
  -GOLD-   22720 4313D 1   1.00000     0.00000
 Structure written by MMmdl.
 51 52  0  0  0  0  0  0  0  0  2 V2000
  152.1253  137.9259  153.9724 C   0  0  0  0  0  0  0  0  0  0  0  0
  150.7608  138.1925  153.6663 O   0  0  0  0  0  0  0  0  0  0  0  0
  150.1803  139.3347  154.1847 C   0  0  0  0  0  0  0  0  0  0  0  0
  150.9867  140.2751  154.7383 N   0  0  0  0  0  0  0  0  0  0  0  0
  150.4205  141.3887  155.2470 C   0  0  0  0  0  0  0  0  0  0  0  0
  149.0327  141.6207  155.2387 C   0  0  0  0  0  0  0  0  0  0  0  0
  148.1944  140.6474  154.6643 C   0  0  0  0  0  0  0  0  0  0  0  0
  148.7756  139.4807  154.1121 C   0  0  0  0  0  0  0  0  0  0  0  0
  148.0149  138.4307  153.5306 N   0  0  0  0  0  0  0  0  0  0  0  0
  146.6791  138.2916  153.5063 C   0  0  0  0  0  0  0  0  0  0  0  0
  145.8745  139.0914  153.9837 O   0  0  0  0  0  0  0  0  0  0  0  0
  146.3237  137.1716  152.8617 N   0  0  0  0  0  0  0  0  0  0  0  0
  144.9531  136.7349  152.5950 C   0  0  0  0  0  0  0  0  0  0  0  0
  144.6572  135.3112  153.1523 C   0  0  0  0  0  0  0  0  0  0  0  0
  144.7634  135.3538  154.6956 C   0  0  0  0  0  0  0  0  0  0  0  0
  143.1998  134.9521  152.7648 C   0  0  0  0  0  0  0  0  0  0  0  0
  145.5901  134.3133  152.5608 N   0  0  0  0  0  0  0  0  0  0  0  0
  145.3651  134.0282  151.1334 C   0  0  0  0  0  0  0  0  0  0  0  0
  146.5274  133.1932  150.5595 C   0  0  0  0  0  0  0  0  0  0  0  0
  146.6897  131.9141  151.2872 N   0  3  0  0  0  0  0  0  0  0  0  0
  145.6804  130.8889  150.9352 C   0  0  0  0  0  0  0  0  0  0  0  0
  146.8089  132.1654  152.7413 C   0  0  0  0  0  0  0  0  0  0  0  0
  145.6378  133.0208  153.2652 C   0  0  0  0  0  0  0  0  0  0  0  0
  152.4303  137.0009  153.4836 H   0  0  0  0  0  0  0  0  0  0  0  0
  152.2753  137.7979  155.0452 H   0  0  0  0  0  0  0  0  0  0  0  0
  152.7790  138.7213  153.6114 H   0  0  0  0  0  0  0  0  0  0  0  0
  151.0937  142.1138  155.6799 H   0  0  0  0  0  0  0  0  0  0  0  0
  148.6206  142.5219  155.6678 H   0  0  0  0  0  0  0  0  0  0  0  0
  147.1266  140.8037  154.6710 H   0  0  0  0  0  0  0  0  0  0  0  0
  148.5458  137.7510  153.0060 H   0  0  0  0  0  0  0  0  0  0  0  0
  147.0597  136.5856  152.4968 H   0  0  0  0  0  0  0  0  0  0  0  0
  144.2716  137.4781  153.0068 H   0  0  0  0  0  0  0  0  0  0  0  0
  144.7462  136.7546  151.5235 H   0  0  0  0  0  0  0  0  0  0  0  0
  144.0612  136.0792  155.1080 H   0  0  0  0  0  0  0  0  0  0  0  0
  145.7553  135.6519  155.0346 H   0  0  0  0  0  0  0  0  0  0  0  0
  144.5259  134.3950  155.1558 H   0  0  0  0  0  0  0  0  0  0  0  0
  142.5204  135.7752  152.9893 H   0  0  0  0  0  0  0  0  0  0  0  0
  142.8190  134.0922  153.3157 H   0  0  0  0  0  0  0  0  0  0  0  0
  143.1032  134.7367  151.6999 H   0  0  0  0  0  0  0  0  0  0  0  0
  144.4167  133.5114  150.9863 H   0  0  0  0  0  0  0  0  0  0  0  0
  145.3168  134.9456  150.5510 H   0  0  0  0  0  0  0  0  0  0  0  0
  146.3717  133.0005  149.4973 H   0  0  0  0  0  0  0  0  0  0  0  0
  147.4569  133.7594  150.6359 H   0  0  0  0  0  0  0  0  0  0  0  0
  144.6714  131.1970  151.2090 H   0  0  0  0  0  0  0  0  0  0  0  0
  145.8980  129.9499  151.4451 H   0  0  0  0  0  0  0  0  0  0  0  0
  145.6951  130.6925  149.8626 H   0  0  0  0  0  0  0  0  0  0  0  0
  146.8623  131.2186  153.2801 H   0  0  0  0  0  0  0  0  0  0  0  0
  147.7517  132.6806  152.9316 H   0  0  0  0  0  0  0  0  0  0  0  0
  145.7987  133.1581  154.3319 H   0  0  0  0  0  0  0  0  0  0  0  0
  144.6949  132.4847  153.1560 H   0  0  0  0  0  0  0  0  0  0  0  0
  147.5751  131.5288  150.9908 H   0  0  0  0  0  0  0  0  0  0  0  0
  1  2  1  0  0  0  0
  1 24  1  0  0  0  0
  1 25  1  0  0  0  0
  1 26  1  0  0  0  0
  2  3  1  0  0  0  0
  3  8  1  0  0  0  0
  3  4  2  0  0  0  0
  4  5  1  0  0  0  0
  5  6  2  0  0  0  0
  5 27  1  0  0  0  0
  6  7  1  0  0  0  0
  6 28  1  0  0  0  0
  7  8  2  0  0  0  0
  7 29  1  0  0  0  0
  8  9  1  0  0  0  0
  9 10  1  0  0  0  0
  9 30  1  0  0  0  0
 10 11  2  0  0  0  0
 10 12  1  0  0  0  0
 12 13  1  0  0  0  0
 12 31  1  0  0  0  0
 13 14  1  0  0  0  0
 13 32  1  0  0  0  0
 13 33  1  0  0  0  0
 14 15  1  0  0  0  0
 14 16  1  0  0  0  0
 14 17  1  0  0  0  0
 15 34  1  0  0  0  0
 15 35  1  0  0  0  0
 15 36  1  0  0  0  0
 16 37  1  0  0  0  0
 16 38  1  0  0  0  0
 16 39  1  0  0  0  0
 17 23  1  0  0  0  0
 17 18  1  0  0  0  0
 18 19  1  0  0  0  0
 18 40  1  0  0  0  0
 18 41  1  0  0  0  0
 19 20  1  0  0  0  0
 19 42  1  0  0  0  0
 19 43  1  0  0  0  0
 20 21  1  0  0  0  0
 20 22  1  0  0  0  0
 20 51  1  0  0  0  0
 21 44  1  0  0  0  0
 21 45  1  0  0  0  0
 21 46  1  0  0  0  0
 22 23  1  0  0  0  0
 22 47  1  0  0  0  0
 22 48  1  0  0  0  0
 23 49  1  0  0  0  0
 23 50  1  0  0  0  0
M  CHG  1  20   1
M  END
> <s_m_source_file>
AV-unprocessed.smi

> <i_m_source_file_index>
1243

> <i_lp_mmshare_version>
43012

> <i_f3d_flags>
0

> <s_epik_input>
W0NIM11PYzFuW2NIXVtjSF1bY0hdYzFbTkhdQyg9TylbTkhdW0NIMl1DKFtDSDNdKShbQ0gzXSlOMltDSDJdW0NIMl1OKFtDSDNdKVtDSDJdW0NIMl0y

> <s_epik_cmdline>
J2VwaWtfcHl0aG9uJywgJy1waCcsICc3LjAnLCAnLXRuJywgJzgnLCAnLW1hJywgJzIwMCcsICctbWV0YWxfYmluZGluZycsICctaW1hZScsICc8aW5maWxlLm1hZT4nLCAnLW9tYWUnLCAnPG91dGZpbGUubWFlPic=

> <r_lp_tautomer_probability>
1

> <r_epik_Ionization_Penalty>
0.0248754

> <r_epik_Ionization_Penalty_Charging>
0.0238192

> <r_epik_Ionization_Penalty_Neutral>
0.00105626

> <r_epik_State_Penalty>
0.139266

> <r_epik_Charging_Adjusted_Penalty>
0.163085

> <i_epik_Tot_Q>
1

> <i_epik_Tot_abs_Q>
1

> <r_epik_Metal_State_Penalty>
0.139265

> <b_epik_Metal_Only>
0

> <s_lp_Force_Field>
OPLS_2005

> <r_lp_Energy>
29.8064

> <b_lp_Chiralities_Consistent>
1

> <s_lp_Variant>
AV-unprocessed.smi:1243-1

> <Gold.Version>
5.8.1

> <Gold.Id.Protein>
6NUR|6NUR_protein|mol2

> <Gold.PLP.Fitness>
42.1240

> <Gold.PLP.PLP>
-31.5343

> <Gold.PLP.part.hbond>
-4.0000

> <Gold.PLP.part.metal>
0.0000

> <Gold.PLP.part.buried>
-5.3473

> <Gold.PLP.part.nonpolar>
-22.2406

> <Gold.PLP.part.repulsive>
0.5719

> <Gold.PLP.ligand.clash>
0.0000

> <Gold.PLP.ligand.torsion>
0.4515

> <Gold.PLP.Chemscore.Hbond>
3.8100

> <Gold.PLP.Chemscore.CHOScore>
0.0000

> <Gold.PLP.Chemscore.Metal>
0.0000

> <Gold.Chemscore.Hbonds>
donor molecule, donor type, donor heavy atom, donor atom, acceptor molecule, acceptor atom, score
      L1  H     9    30       P1  7948  1.00
      L1  H    12    31       P1  7948  1.00
      L1  H    20    51       P1 10747  1.00
      P1  H  7989  7998       L1     4  0.93

> <Gold.PLP.Chemscore.Internal.Correction>
0.0626

> <Gold.Rescore>
     Score         DG    S(hbond)    S(metal)    S(lipo)     H(rot)  DE(clash)    DE(int)     intcor
     18.18     -20.04       2.87        0.00      80.15       1.72       0.28       1.58       ----

> <Gold.Chemscore.Fitness>
18.1826

> <Gold.Chemscore.DG>
-20.0420

> <Gold.Chemscore.ZeroCoef>
-5.4800

> <Gold.Chemscore.Hbond>
2.8714

> <Gold.Chemscore.Metal>
0.0000

> <Gold.Chemscore.Lipo>
80.1536

> <Gold.Chemscore.Internal_Hbond>
0.0000

> <Gold.Chemscore.DEClash>
0.2797

> <Gold.Chemscore.DEInternal>
1.5797

> <Gold.Chemscore.Rot>
1.7213

> <Gold.Chemscore.Internal.Correction>
   9.000000E+99

> <Gold.Chemscore.Hbonds>
donor molecule, donor type, donor heavy atom, donor atom, acceptor molecule, acceptor atom, score
      L1  H     9    30       P1  7948  0.99
      L1  H    12    31       P1  7948  0.92
      L1  H    20    51       P1 10747  1.00
      P1  H  7989  7998       L1     4  0.06

> <Gold.Chemscore.Hbond.Weighted>
-9.5906

> <Gold.Chemscore.Metal.Weighted>
-0.0000

> <Gold.Chemscore.Lipo.Weighted>
-9.3780

> <Gold.Chemscore.Internal_Hbond.Weighted>
0.0000

> <Gold.Chemscore.DEClash.Weighted>
0.2797

> <Gold.Chemscore.DEInternal.Weighted>
1.5797

> <Gold.Chemscore.Rot.Weighted>
4.4066

> <Gold.Chemscore.Internal.Correction.Weighted>
   9.000000E+99

> <Gold.Protein.RotatedTorsions>
[ 6907 6896 6895 6894 ] final -159.83 input  -60.11 | X-H torsion
[ 7974 7965 7964 7962 ] final   60.47 input  175.53 | X-H torsion
[ 8008 7997 7996 7995 ] final   39.29 input   59.86 | X-H torsion
[ 10167 10162 10161 10158 ] final  -47.89 input  -65.29 | X-H torsion
[ 10718 10713 10712 10709 ] final   -3.11 input   66.30 | X-H torsion
[ 10763 10752 10751 10750 ] final  -47.32 input  -60.55 | X-H torsion
[ 11005 11000 10999 10996 ] final  -87.43 input  -57.11 | X-H torsion

> <Gold.Protein.ActiveResidues>
 VAL166  LYS551  ARG553  GLY616  TRP617  ASP618  TYR619  PRO620  LYS621  CYS622 
 ASP623  PHE694  ASN695  SER759  ASP760  ASP761  ALA762  ILE779  LEU786  VAL792 
 PHE793  MET794  SER795  GLU796  ALA797  LYS798  CYS799  TRP800  GLU811  SER814 

> <Gold.Protein.RotatedAtoms>
  151.3397  133.3967  159.2669 H   0  0  0  0  0  0  0  0  0  0  0  0  # atno 6907 bound_to 6896
  150.9888  134.9228  159.7898 H   0  0  0  0  0  0  0  0  0  0  0  0  # atno 6908 bound_to 6896
  152.5241  134.3361  159.9253 H   0  0  0  0  0  0  0  0  0  0  0  0  # atno 6909 bound_to 6896
  145.8956  139.3543  143.0623 H   0  0  0  0  0  0  0  0  0  0  0  0  # atno 7974 bound_to 7965
  155.2341  140.3340  155.4300 H   0  0  0  0  0  0  0  0  0  0  0  0  # atno 8008 bound_to 7997
  156.2283  140.1839  156.7354 H   0  0  0  0  0  0  0  0  0  0  0  0  # atno 8009 bound_to 7997
  154.5935  140.0634  156.9256 H   0  0  0  0  0  0  0  0  0  0  0  0  # atno 8010 bound_to 7997
  140.6755  143.2764  151.3991 H   0  0  0  0  0  0  0  0  0  0  0  0  # atno 10167 bound_to 10162
  156.7809  130.5330  149.5751 H   0  0  0  0  0  0  0  0  0  0  0  0  # atno 10718 bound_to 10713
  154.0595  135.6620  153.4810 H   0  0  0  0  0  0  0  0  0  0  0  0  # atno 10763 bound_to 10752
  153.0432  135.5131  154.7673 H   0  0  0  0  0  0  0  0  0  0  0  0  # atno 10764 bound_to 10752
  154.6705  135.3028  154.9716 H   0  0  0  0  0  0  0  0  0  0  0  0  # atno 10765 bound_to 10752
  141.1617  133.7511  156.9305 H   0  0  0  0  0  0  0  0  0  0  0  0  # atno 11005 bound_to 11000
  145.8855  140.9336  143.0579 LP  0  0  0  0  0  0  0  0  0  0  0  0  # atno 17320 bound_to 7965
  144.6733  140.0836  143.7468 LP  0  0  0  0  0  0  0  0  0  0  0  0  # atno 17321 bound_to 7965
  139.6046  144.1225  152.2235 LP  0  0  0  0  0  0  0  0  0  0  0  0  # atno 17342 bound_to 10162
  140.0619  144.5849  150.7256 LP  0  0  0  0  0  0  0  0  0  0  0  0  # atno 17343 bound_to 10162
  156.1218  130.6116  151.0205 LP  0  0  0  0  0  0  0  0  0  0  0  0  # atno 17370 bound_to 10713
  157.6647  131.0874  150.7757 LP  0  0  0  0  0  0  0  0  0  0  0  0  # atno 17371 bound_to 10713
  140.1389  134.9306  157.2440 LP  0  0  0  0  0  0  0  0  0  0  0  0  # atno 17394 bound_to 11000
  140.2861  134.3294  155.7329 LP  0  0  0  0  0  0  0  0  0  0  0  0  # atno 17395 bound_to 11000

$$$$
