AV-unprocessed.smi:1059|AV-procd|sdf|4654|dock5
  -GOLD-   22720 3163D 1   1.00000     0.00000
 Structure written by MMmdl.
 55 56  0  0  0  0  0  0  0  0  2 V2000
  134.4042  142.0667  154.3931 C   0  0  0  0  0  0  0  0  0  0  0  0
  135.6615  142.4843  155.1716 C   0  0  0  0  0  0  0  0  0  0  0  0
  135.5605  143.9644  155.5861 C   0  0  0  0  0  0  0  0  0  0  0  0
  136.9362  142.1807  154.3464 C   0  0  0  0  0  0  0  0  0  0  0  0
  138.2484  142.7684  154.9036 C   0  0  0  0  0  0  0  0  0  0  0  0
  138.5043  143.9577  154.7088 O   0  0  0  0  0  0  0  0  0  0  0  0
  139.0851  141.9601  155.6001 N   0  0  0  0  0  0  0  0  0  0  0  0
  138.7993  140.5391  155.8355 C   0  0  0  0  0  0  0  0  0  0  0  0
  139.7554  139.6878  154.9810 C   0  0  0  0  0  0  0  0  0  0  0  0
  141.2298  140.0344  155.2778 C   0  0  0  0  0  0  0  0  0  0  0  0
  142.0977  139.3350  154.3351 N   0  0  0  0  0  0  0  0  0  0  0  0
  142.1675  138.0040  154.1906 C   0  0  0  0  0  0  0  0  0  0  0  0
  141.4990  137.2124  154.8549 O   0  0  0  0  0  0  0  0  0  0  0  0
  143.0387  137.6642  153.2248 N   0  0  0  0  0  0  0  0  0  0  0  0
  143.4062  136.3630  152.7873 C   0  0  0  0  0  0  0  0  0  0  0  0
  144.1652  136.2559  151.6018 C   0  0  0  0  0  0  0  0  0  0  0  0
  144.5610  134.9852  151.1362 C   0  0  0  0  0  0  0  0  0  0  0  0
  144.1987  133.8360  151.8694 C   0  0  0  0  0  0  0  0  0  0  0  0
  144.5676  132.5528  151.4430 N   0  0  0  0  0  0  0  0  0  0  0  0
  143.8660  132.1361  150.2383 C   0  0  0  0  0  0  0  0  0  0  0  0
  146.0086  132.3479  151.4432 C   0  0  0  0  0  0  0  0  0  0  0  0
  143.4846  133.9785  153.0111 N   0  3  0  0  0  0  0  0  0  0  0  0
  143.0851  135.1761  153.4908 C   0  0  0  0  0  0  0  0  0  0  0  0
  141.4692  141.5610  155.2214 C   0  0  0  0  0  0  0  0  0  0  0  0
  140.4309  142.3195  156.0674 C   0  0  0  0  0  0  0  0  0  0  0  0
  134.3098  142.6269  153.4622 H   0  0  0  0  0  0  0  0  0  0  0  0
  133.5017  142.2420  154.9792 H   0  0  0  0  0  0  0  0  0  0  0  0
  134.4289  141.0058  154.1420 H   0  0  0  0  0  0  0  0  0  0  0  0
  135.6834  141.8813  156.0808 H   0  0  0  0  0  0  0  0  0  0  0  0
  135.5309  144.6172  154.7133 H   0  0  0  0  0  0  0  0  0  0  0  0
  136.4028  144.2764  156.2024 H   0  0  0  0  0  0  0  0  0  0  0  0
  134.6552  144.1471  156.1653 H   0  0  0  0  0  0  0  0  0  0  0  0
  137.0699  141.1000  154.2816 H   0  0  0  0  0  0  0  0  0  0  0  0
  136.7834  142.5431  153.3293 H   0  0  0  0  0  0  0  0  0  0  0  0
  138.9401  140.3129  156.8935 H   0  0  0  0  0  0  0  0  0  0  0  0
  137.7654  140.2717  155.6132 H   0  0  0  0  0  0  0  0  0  0  0  0
  139.5747  138.6281  155.1655 H   0  0  0  0  0  0  0  0  0  0  0  0
  139.5380  139.8595  153.9255 H   0  0  0  0  0  0  0  0  0  0  0  0
  141.4541  139.6875  156.2884 H   0  0  0  0  0  0  0  0  0  0  0  0
  142.6803  139.9099  153.7441 H   0  0  0  0  0  0  0  0  0  0  0  0
  143.4501  138.4289  152.7096 H   0  0  0  0  0  0  0  0  0  0  0  0
  144.4389  137.1407  151.0455 H   0  0  0  0  0  0  0  0  0  0  0  0
  145.1356  134.8966  150.2257 H   0  0  0  0  0  0  0  0  0  0  0  0
  142.7931  132.3078  150.3334 H   0  0  0  0  0  0  0  0  0  0  0  0
  144.0218  131.0718  150.0607 H   0  0  0  0  0  0  0  0  0  0  0  0
  144.2272  132.6835  149.3667 H   0  0  0  0  0  0  0  0  0  0  0  0
  146.4456  132.6650  152.3908 H   0  0  0  0  0  0  0  0  0  0  0  0
  146.4845  132.9096  150.6385 H   0  0  0  0  0  0  0  0  0  0  0  0
  146.2391  131.2914  151.3038 H   0  0  0  0  0  0  0  0  0  0  0  0
  142.5371  135.1313  154.4199 H   0  0  0  0  0  0  0  0  0  0  0  0
  142.4739  141.7997  155.5722 H   0  0  0  0  0  0  0  0  0  0  0  0
  141.4124  141.9078  154.1883 H   0  0  0  0  0  0  0  0  0  0  0  0
  140.6427  143.3864  156.0316 H   0  0  0  0  0  0  0  0  0  0  0  0
  140.5317  142.0395  157.1170 H   0  0  0  0  0  0  0  0  0  0  0  0
  143.2369  133.1405  153.5377 H   0  0  0  0  0  0  0  0  0  0  0  0
  1  2  1  0  0  0  0
  1 26  1  0  0  0  0
  1 27  1  0  0  0  0
  1 28  1  0  0  0  0
  2  3  1  0  0  0  0
  2  4  1  0  0  0  0
  2 29  1  0  0  0  0
  3 30  1  0  0  0  0
  3 31  1  0  0  0  0
  3 32  1  0  0  0  0
  4  5  1  0  0  0  0
  4 33  1  0  0  0  0
  4 34  1  0  0  0  0
  5  6  2  0  0  0  0
  5  7  1  0  0  0  0
  7 25  1  0  0  0  0
  7  8  1  0  0  0  0
  8  9  1  0  0  0  0
  8 35  1  0  0  0  0
  8 36  1  0  0  0  0
  9 10  1  0  0  0  0
  9 37  1  0  0  0  0
  9 38  1  0  0  0  0
 10 11  1  0  0  0  0
 10 24  1  0  0  0  0
 10 39  1  0  0  0  0
 11 12  1  0  0  0  0
 11 40  1  0  0  0  0
 12 13  2  0  0  0  0
 12 14  1  0  0  0  0
 14 15  1  0  0  0  0
 14 41  1  0  0  0  0
 15 23  1  0  0  0  0
 15 16  2  0  0  0  0
 16 17  1  0  0  0  0
 16 42  1  0  0  0  0
 17 18  2  0  0  0  0
 17 43  1  0  0  0  0
 18 19  1  0  0  0  0
 18 22  1  0  0  0  0
 19 20  1  0  0  0  0
 19 21  1  0  0  0  0
 20 44  1  0  0  0  0
 20 45  1  0  0  0  0
 20 46  1  0  0  0  0
 21 47  1  0  0  0  0
 21 48  1  0  0  0  0
 21 49  1  0  0  0  0
 22 23  2  0  0  0  0
 22 55  1  0  0  0  0
 23 50  1  0  0  0  0
 24 25  1  0  0  0  0
 24 51  1  0  0  0  0
 24 52  1  0  0  0  0
 25 53  1  0  0  0  0
 25 54  1  0  0  0  0
M  CHG  1  22   1
M  END
> <s_m_source_file>
AV-unprocessed.smi

> <i_m_source_file_index>
1059

> <i_lp_mmshare_version>
43012

> <i_f3d_flags>
0

> <s_epik_input>
W0NIM11bQ0hdKFtDSDNdKVtDSDJdQyg9TylOMVtDSDJdW0NIMl1bQ0hdKFtDSDJdW0NIMl0xKVtOSF1DKD1PKVtOSF1jMltjSF1bY0hdYyhOKFtDSDNdKVtDSDNdKW5bY0hdMg==

> <s_epik_cmdline>
J2VwaWtfcHl0aG9uJywgJy1waCcsICc3LjAnLCAnLXRuJywgJzgnLCAnLW1hJywgJzIwMCcsICctbWV0YWxfYmluZGluZycsICctaW1hZScsICc8aW5maWxlLm1hZT4nLCAnLW9tYWUnLCAnPG91dGZpbGUubWFlPic=

> <r_lp_tautomer_probability>
0.999994

> <r_epik_Ionization_Penalty>
0.255783

> <r_epik_Ionization_Penalty_Charging>
0.255763

> <r_epik_Ionization_Penalty_Neutral>
1.99447e-05

> <r_epik_State_Penalty>
0.247288

> <r_epik_Charging_Adjusted_Penalty>
0.503051

> <i_epik_Tot_Q>
1

> <i_epik_Tot_abs_Q>
1

> <r_epik_Metal_State_Penalty>
0.537004

> <b_epik_Metal_Only>
0

> <s_lp_Force_Field>
OPLS_2005

> <r_lp_Energy>
38.2328

> <b_lp_Chiralities_Consistent>
1

> <s_lp_Variant>
AV-unprocessed.smi:1059-1

> <Gold.Version>
5.8.1

> <Gold.Id.Protein>
6NUR|6NUR_protein|mol2

> <Gold.PLP.Fitness>
48.9790

> <Gold.PLP.PLP>
-34.9671

> <Gold.PLP.part.hbond>
-4.0000

> <Gold.PLP.part.metal>
0.0000

> <Gold.PLP.part.buried>
-4.4830

> <Gold.PLP.part.nonpolar>
-25.9558

> <Gold.PLP.part.repulsive>
0.2146

> <Gold.PLP.ligand.clash>
0.0000

> <Gold.PLP.ligand.torsion>
0.4959

> <Gold.PLP.Chemscore.Hbond>
4.9254

> <Gold.PLP.Chemscore.CHOScore>
0.0000

> <Gold.PLP.Chemscore.Metal>
0.0000

> <Gold.Chemscore.Hbonds>
donor molecule, donor type, donor heavy atom, donor atom, acceptor molecule, acceptor atom, score
      L1  H    11    40       P1 10175  1.00
      L1  H    14    41       P1 10175  0.96
      L1  H    22    55       P1 10957  2.00

> <Gold.PLP.Chemscore.Internal.Correction>
0.2276

> <Gold.Rescore>
     Score         DG    S(hbond)    S(metal)    S(lipo)     H(rot)  DE(clash)    DE(int)     intcor
     19.35     -21.21       3.21        0.00      76.73       1.55       0.18       1.68       ----

> <Gold.Chemscore.Fitness>
19.3476

> <Gold.Chemscore.DG>
-21.2084

> <Gold.Chemscore.ZeroCoef>
-5.4800

> <Gold.Chemscore.Hbond>
3.2104

> <Gold.Chemscore.Metal>
0.0000

> <Gold.Chemscore.Lipo>
76.7293

> <Gold.Chemscore.Internal_Hbond>
0.0000

> <Gold.Chemscore.DEClash>
0.1770

> <Gold.Chemscore.DEInternal>
1.6838

> <Gold.Chemscore.Rot>
1.5514

> <Gold.Chemscore.Internal.Correction>
   9.000000E+99

> <Gold.Chemscore.Hbonds>
donor molecule, donor type, donor heavy atom, donor atom, acceptor molecule, acceptor atom, score
      L1  H    11    40       P1 10175  0.99
      L1  H    14    41       P1 10175  0.86
      L1  H    22    55       P1 10957  0.95

> <Gold.Chemscore.Hbond.Weighted>
-10.7226

> <Gold.Chemscore.Metal.Weighted>
-0.0000

> <Gold.Chemscore.Lipo.Weighted>
-8.9773

> <Gold.Chemscore.Internal_Hbond.Weighted>
0.0000

> <Gold.Chemscore.DEClash.Weighted>
0.1770

> <Gold.Chemscore.DEInternal.Weighted>
1.6838

> <Gold.Chemscore.Rot.Weighted>
3.9716

> <Gold.Chemscore.Internal.Correction.Weighted>
   9.000000E+99

> <Gold.Protein.RotatedTorsions>
[ 6907 6896 6895 6894 ] final -170.14 input  -60.11 | X-H torsion
[ 7974 7965 7964 7962 ] final -121.32 input  175.53 | X-H torsion
[ 8008 7997 7996 7995 ] final  178.99 input   59.86 | X-H torsion
[ 10167 10162 10161 10158 ] final -159.58 input  -65.29 | X-H torsion
[ 10718 10713 10712 10709 ] final   25.56 input   66.30 | X-H torsion
[ 10763 10752 10751 10750 ] final  128.98 input  -60.55 | X-H torsion
[ 11005 11000 10999 10996 ] final  176.58 input  -57.11 | X-H torsion

> <Gold.Protein.ActiveResidues>
 VAL166  LYS551  ARG553  GLY616  TRP617  ASP618  TYR619  PRO620  LYS621  CYS622 
 ASP623  PHE694  ASN695  SER759  ASP760  ASP761  ALA762  ILE779  LEU786  VAL792 
 PHE793  MET794  SER795  GLU796  ALA797  LYS798  CYS799  TRP800  GLU811  SER814 

> <Gold.Protein.RotatedAtoms>
  151.5030  133.3500  159.2871 H   0  0  0  0  0  0  0  0  0  0  0  0  # atno 6907 bound_to 6896
  150.8761  134.8146  159.7201 H   0  0  0  0  0  0  0  0  0  0  0  0  # atno 6908 bound_to 6896
  152.4731  134.4921  159.9750 H   0  0  0  0  0  0  0  0  0  0  0  0  # atno 6909 bound_to 6896
  145.0416  140.8149  143.4263 H   0  0  0  0  0  0  0  0  0  0  0  0  # atno 7974 bound_to 7965
  156.0484  140.1319  157.0078 H   0  0  0  0  0  0  0  0  0  0  0  0  # atno 8008 bound_to 7997
  154.4423  140.1016  156.6410 H   0  0  0  0  0  0  0  0  0  0  0  0  # atno 8009 bound_to 7997
  155.5561  140.3464  155.4482 H   0  0  0  0  0  0  0  0  0  0  0  0  # atno 8010 bound_to 7997
  139.6604  143.9922  152.2222 H   0  0  0  0  0  0  0  0  0  0  0  0  # atno 10167 bound_to 10162
  157.1951  130.6864  149.6165 H   0  0  0  0  0  0  0  0  0  0  0  0  # atno 10718 bound_to 10713
  153.7343  135.3234  155.3292 H   0  0  0  0  0  0  0  0  0  0  0  0  # atno 10763 bound_to 10752
  154.8316  135.4529  154.1090 H   0  0  0  0  0  0  0  0  0  0  0  0  # atno 10764 bound_to 10752
  153.2247  135.6952  153.8040 H   0  0  0  0  0  0  0  0  0  0  0  0  # atno 10765 bound_to 10752
  140.3747  134.6999  157.4414 H   0  0  0  0  0  0  0  0  0  0  0  0  # atno 11005 bound_to 11000
  145.1640  139.2442  143.5376 LP  0  0  0  0  0  0  0  0  0  0  0  0  # atno 17320 bound_to 7965
  146.3510  140.1375  142.8595 LP  0  0  0  0  0  0  0  0  0  0  0  0  # atno 17321 bound_to 7965
  139.9660  144.6526  150.8034 LP  0  0  0  0  0  0  0  0  0  0  0  0  # atno 17342 bound_to 10162
  140.7577  143.3093  151.2885 LP  0  0  0  0  0  0  0  0  0  0  0  0  # atno 17343 bound_to 10162
  155.9707  130.4601  150.6062 LP  0  0  0  0  0  0  0  0  0  0  0  0  # atno 17370 bound_to 10713
  157.3823  131.0783  151.1466 LP  0  0  0  0  0  0  0  0  0  0  0  0  # atno 17371 bound_to 10713
  140.0525  134.6111  155.8845 LP  0  0  0  0  0  0  0  0  0  0  0  0  # atno 17394 bound_to 11000
  141.1943  133.6582  156.5589 LP  0  0  0  0  0  0  0  0  0  0  0  0  # atno 17395 bound_to 11000

$$$$
