AV-unprocessed.smi:497|AV-procd|sdf|2724|dock3
  -GOLD-   2262023173D 1   1.00000     0.00000
 Structure written by MMmdl.
 39 41  0  0  0  0  0  0  0  0  1 V2000
  151.1304  138.6987  154.3890 C   0  0  0  0  0  0  0  0  0  0  0  0
  151.4998  140.0201  154.7423 O   0  0  0  0  0  0  0  0  0  0  0  0
  150.3904  140.8009  155.1515 C   0  0  0  0  0  0  0  0  0  0  0  0
  149.6987  140.1013  156.3279 C   0  0  0  0  0  0  0  0  0  0  0  0
  150.4865  140.1983  157.5470 N   0  0  0  0  0  0  0  0  0  0  0  0
  150.7536  139.2254  158.4553 C   0  0  0  0  0  0  0  0  0  0  0  0
  150.2131  137.8274  158.2784 C   0  0  0  0  0  0  0  0  0  0  0  0
  149.1993  137.5172  159.2842 N   0  0  0  0  0  0  0  0  0  0  0  0
  148.6694  136.3024  159.4986 C   0  0  0  0  0  0  0  0  0  0  0  0
  149.0049  135.2960  158.8743 O   0  0  0  0  0  0  0  0  0  0  0  0
  147.6275  136.2302  160.5400 C   0  0  0  0  0  0  0  0  0  0  0  0
  146.9852  135.1491  161.0816 C   0  0  0  0  0  0  0  0  0  0  0  0
  146.0705  135.6589  162.0443 C   0  0  0  0  0  0  0  0  0  0  0  0
  146.2196  137.0158  162.0225 C   0  0  0  0  0  0  0  0  0  0  0  0
  147.1636  137.3805  161.1127 O   0  0  0  0  0  0  0  0  0  0  0  0
  151.5301  139.5971  159.4783 N   0  0  0  0  0  0  0  0  0  0  0  0
  151.7783  140.9283  159.2120 C   0  0  0  0  0  0  0  0  0  0  0  0
  152.5374  141.8820  159.9271 C   0  0  0  0  0  0  0  0  0  0  0  0
  152.6560  143.2035  159.4488 C   0  0  0  0  0  0  0  0  0  0  0  0
  152.0193  143.5888  158.2511 C   0  0  0  0  0  0  0  0  0  0  0  0
  151.2583  142.6534  157.5237 C   0  0  0  0  0  0  0  0  0  0  0  0
  151.1415  141.3362  158.0070 C   0  0  0  0  0  0  0  0  0  0  0  0
  152.0151  138.1399  154.0838 H   0  0  0  0  0  0  0  0  0  0  0  0
  150.4262  138.6955  153.5558 H   0  0  0  0  0  0  0  0  0  0  0  0
  150.6768  138.1770  155.2327 H   0  0  0  0  0  0  0  0  0  0  0  0
  150.7244  141.7969  155.4465 H   0  0  0  0  0  0  0  0  0  0  0  0
  149.6916  140.9194  154.3217 H   0  0  0  0  0  0  0  0  0  0  0  0
  148.7227  140.5529  156.5082 H   0  0  0  0  0  0  0  0  0  0  0  0
  149.5089  139.0542  156.0946 H   0  0  0  0  0  0  0  0  0  0  0  0
  149.7976  137.7102  157.2768 H   0  0  0  0  0  0  0  0  0  0  0  0
  151.0318  137.1148  158.3759 H   0  0  0  0  0  0  0  0  0  0  0  0
  148.8543  138.2872  159.8386 H   0  0  0  0  0  0  0  0  0  0  0  0
  147.1528  134.1158  160.8152 H   0  0  0  0  0  0  0  0  0  0  0  0
  145.3901  135.1033  162.6723 H   0  0  0  0  0  0  0  0  0  0  0  0
  145.7577  137.8302  162.5611 H   0  0  0  0  0  0  0  0  0  0  0  0
  153.0299  141.5955  160.8445 H   0  0  0  0  0  0  0  0  0  0  0  0
  153.2395  143.9242  160.0029 H   0  0  0  0  0  0  0  0  0  0  0  0
  152.1158  144.6026  157.8909 H   0  0  0  0  0  0  0  0  0  0  0  0
  150.7711  142.9453  156.6052 H   0  0  0  0  0  0  0  0  0  0  0  0
  1  2  1  0  0  0  0
  1 23  1  0  0  0  0
  1 24  1  0  0  0  0
  1 25  1  0  0  0  0
  2  3  1  0  0  0  0
  3  4  1  0  0  0  0
  3 26  1  0  0  0  0
  3 27  1  0  0  0  0
  4  5  1  0  0  0  0
  4 28  1  0  0  0  0
  4 29  1  0  0  0  0
  5 22  1  0  0  0  0
  5  6  1  0  0  0  0
  6  7  1  0  0  0  0
  6 16  2  0  0  0  0
  7  8  1  0  0  0  0
  7 30  1  0  0  0  0
  7 31  1  0  0  0  0
  8  9  1  0  0  0  0
  8 32  1  0  0  0  0
  9 10  2  0  0  0  0
  9 11  1  0  0  0  0
 11 15  1  0  0  0  0
 11 12  2  0  0  0  0
 12 13  1  0  0  0  0
 12 33  1  0  0  0  0
 13 14  2  0  0  0  0
 13 34  1  0  0  0  0
 14 15  1  0  0  0  0
 14 35  1  0  0  0  0
 16 17  1  0  0  0  0
 17 22  2  0  0  0  0
 17 18  1  0  0  0  0
 18 19  2  0  0  0  0
 18 36  1  0  0  0  0
 19 20  1  0  0  0  0
 19 37  1  0  0  0  0
 20 21  2  0  0  0  0
 20 38  1  0  0  0  0
 21 22  1  0  0  0  0
 21 39  1  0  0  0  0
M  END
> <s_m_source_file>
AV-unprocessed.smi

> <i_m_source_file_index>
497

> <i_lp_mmshare_version>
43012

> <i_f3d_flags>
0

> <s_epik_input>
W2NIXTFbY0hdW2NIXVtjSF1jKGMxMiluKFtDSDJdW0NIMl1PW0NIM10pYyhuMilbQ0gyXVtOSF1DKD1PKWMzW2NIXVtjSF1bY0hdbzM=

> <s_epik_cmdline>
J2VwaWtfcHl0aG9uJywgJy1waCcsICc3LjAnLCAnLXRuJywgJzgnLCAnLW1hJywgJzIwMCcsICctbWV0YWxfYmluZGluZycsICctaW1hZScsICc8aW5maWxlLm1hZT4nLCAnLW9tYWUnLCAnPG91dGZpbGUubWFlPic=

> <r_epik_Ionization_Penalty>
0.0745911

> <r_epik_Ionization_Penalty_Charging>
0

> <r_epik_Ionization_Penalty_Neutral>
0.0745911

> <r_epik_State_Penalty>
0.0656752

> <r_epik_Charging_Adjusted_Penalty>
0.0656752

> <i_epik_Tot_Q>
0

> <i_epik_Tot_abs_Q>
0

> <r_epik_Metal_State_Penalty>
0.069874

> <b_epik_Metal_Only>
0

> <s_lp_Force_Field>
OPLS_2005

> <r_lp_Energy>
10.4941

> <b_lp_Chiralities_Consistent>
1

> <s_lp_Variant>
AV-unprocessed.smi:497-1

> <Gold.Version>
5.8.1

> <Gold.Id.Protein>
6NUR|6NUR_protein|mol2

> <Gold.PLP.Fitness>
56.1246

> <Gold.PLP.PLP>
-45.3785

> <Gold.PLP.part.hbond>
-4.0000

> <Gold.PLP.part.metal>
0.0000

> <Gold.PLP.part.buried>
-6.0599

> <Gold.PLP.part.nonpolar>
-37.3716

> <Gold.PLP.part.repulsive>
0.7254

> <Gold.PLP.ligand.clash>
0.0000

> <Gold.PLP.ligand.torsion>
0.3985

> <Gold.PLP.Chemscore.Hbond>
3.7920

> <Gold.PLP.Chemscore.CHOScore>
0.0000

> <Gold.PLP.Chemscore.Metal>
0.0000

> <Gold.Chemscore.Hbonds>
donor molecule, donor type, donor heavy atom, donor atom, acceptor molecule, acceptor atom, score
      P1  H  6896  6907       L1    10  1.00
      P1  H  6931  6943       L1    15  0.41
      P1  H  6934  6947       L1    15  1.00
      P1  H  7989  7998       L1     2  0.52

> <Gold.PLP.Chemscore.Internal.Correction>
0.1671

> <Gold.Rescore>
     Score         DG    S(hbond)    S(metal)    S(lipo)     H(rot)  DE(clash)    DE(int)     intcor
     22.88     -23.54       3.13        0.00     106.62       1.90       0.08       0.57       ----

> <Gold.Chemscore.Fitness>
22.8844

> <Gold.Chemscore.DG>
-23.5391

> <Gold.Chemscore.ZeroCoef>
-5.4800

> <Gold.Chemscore.Hbond>
3.1314

> <Gold.Chemscore.Metal>
0.0000

> <Gold.Chemscore.Lipo>
106.6176

> <Gold.Chemscore.Internal_Hbond>
0.0000

> <Gold.Chemscore.DEClash>
0.0801

> <Gold.Chemscore.DEInternal>
0.5747

> <Gold.Chemscore.Rot>
1.9039

> <Gold.Chemscore.Internal.Correction>
   9.000000E+99

> <Gold.Chemscore.Hbonds>
donor molecule, donor type, donor heavy atom, donor atom, acceptor molecule, acceptor atom, score
      P1  H  6896  6907       L1    10  0.41
      P1  H  6931  6943       L1    15  0.13
      P1  H  6934  6947       L1    15  0.73
      P1  H  7989  7998       L1     2  0.02

> <Gold.Chemscore.Hbond.Weighted>
-10.4589

> <Gold.Chemscore.Metal.Weighted>
-0.0000

> <Gold.Chemscore.Lipo.Weighted>
-12.4743

> <Gold.Chemscore.Internal_Hbond.Weighted>
0.0000

> <Gold.Chemscore.DEClash.Weighted>
0.0801

> <Gold.Chemscore.DEInternal.Weighted>
0.5747

> <Gold.Chemscore.Rot.Weighted>
4.8740

> <Gold.Chemscore.Internal.Correction.Weighted>
   9.000000E+99

> <Gold.Protein.RotatedTorsions>
[ 6907 6896 6895 6894 ] final  -53.52 input  -60.11 | X-H torsion
[ 7974 7965 7964 7962 ] final  -13.29 input  175.53 | X-H torsion
[ 8008 7997 7996 7995 ] final   -1.78 input   59.86 | X-H torsion
[ 10167 10162 10161 10158 ] final   67.90 input  -65.29 | X-H torsion
[ 10718 10713 10712 10709 ] final -113.19 input   66.30 | X-H torsion
[ 10763 10752 10751 10750 ] final   46.56 input  -60.55 | X-H torsion
[ 11005 11000 10999 10996 ] final   75.93 input  -57.11 | X-H torsion

> <Gold.Protein.ActiveResidues>
 VAL166  LYS551  ARG553  GLY616  TRP617  ASP618  TYR619  PRO620  LYS621  CYS622 
 ASP623  PHE694  ASN695  SER759  ASP760  ASP761  ALA762  ILE779  LEU786  VAL792 
 PHE793  MET794  SER795  GLU796  ALA797  LYS798  CYS799  TRP800  GLU811  SER814 

> <Gold.Protein.RotatedAtoms>
  150.8420  134.7715  159.6939 H   0  0  0  0  0  0  0  0  0  0  0  0  # atno 6907 bound_to 6896
  152.4505  134.5400  159.9846 H   0  0  0  0  0  0  0  0  0  0  0  0  # atno 6908 bound_to 6896
  151.5539  133.3375  159.2994 H   0  0  0  0  0  0  0  0  0  0  0  0  # atno 6909 bound_to 6896
  146.2120  140.3181  142.8388 H   0  0  0  0  0  0  0  0  0  0  0  0  # atno 7974 bound_to 7965
  154.6430  140.2551  155.7300 H   0  0  0  0  0  0  0  0  0  0  0  0  # atno 8008 bound_to 7997
  156.2538  140.2883  156.0752 H   0  0  0  0  0  0  0  0  0  0  0  0  # atno 8009 bound_to 7997
  155.1567  140.0383  157.2823 H   0  0  0  0  0  0  0  0  0  0  0  0  # atno 8010 bound_to 7997
  140.0845  144.5042  150.7140 H   0  0  0  0  0  0  0  0  0  0  0  0  # atno 10167 bound_to 10162
  156.0751  130.5960  150.8609 H   0  0  0  0  0  0  0  0  0  0  0  0  # atno 10718 bound_to 10713
  152.9809  135.6004  154.3619 H   0  0  0  0  0  0  0  0  0  0  0  0  # atno 10763 bound_to 10752
  154.3300  135.2768  155.2478 H   0  0  0  0  0  0  0  0  0  0  0  0  # atno 10764 bound_to 10752
  154.4607  135.5966  153.6309 H   0  0  0  0  0  0  0  0  0  0  0  0  # atno 10765 bound_to 10752
  139.9321  134.7559  156.1333 H   0  0  0  0  0  0  0  0  0  0  0  0  # atno 11005 bound_to 11000
  144.8939  140.7559  143.5909 LP  0  0  0  0  0  0  0  0  0  0  0  0  # atno 17320 bound_to 7965
  145.3105  139.1820  143.4641 LP  0  0  0  0  0  0  0  0  0  0  0  0  # atno 17321 bound_to 7965
  140.7061  143.2469  151.4723 LP  0  0  0  0  0  0  0  0  0  0  0  0  # atno 17342 bound_to 10162
  139.5760  144.1817  152.1904 LP  0  0  0  0  0  0  0  0  0  0  0  0  # atno 17343 bound_to 10162
  157.5842  131.0946  150.9222 LP  0  0  0  0  0  0  0  0  0  0  0  0  # atno 17370 bound_to 10713
  156.9411  130.5385  149.5280 LP  0  0  0  0  0  0  0  0  0  0  0  0  # atno 17371 bound_to 10713
  141.0915  133.6712  156.2551 LP  0  0  0  0  0  0  0  0  0  0  0  0  # atno 17394 bound_to 11000
  140.6174  134.5396  157.5542 LP  0  0  0  0  0  0  0  0  0  0  0  0  # atno 17395 bound_to 11000

$$$$
