AV-unprocessed.smi:3284|AV-procd|sdf|12578|dock10
  -GOLD-   2272018503D 1   1.00000     0.00000
 Structure written by MMmdl.
 45 46  0  0  0  0  0  0  0  0  3 V2000
  150.3077  145.2206  159.7453 C   0  0  0  0  0  0  0  0  0  0  0  0
  151.3220  144.1138  159.9823 C   0  0  0  0  0  0  0  0  0  0  0  0
  152.0297  144.0896  161.1278 C   0  0  0  0  0  0  0  0  0  0  0  0
  153.0080  143.0003  161.5017 C   0  0  0  0  0  0  0  0  0  0  0  0
  152.7266  141.7183  160.7145 C   0  0  0  0  0  0  0  0  0  0  0  0
  152.6010  142.0011  159.2086 C   0  0  1  0  0  0  0  0  0  0  0  0
  152.4061  140.6724  158.4528 C   0  0  0  0  0  0  0  0  0  0  0  0
  151.4802  143.0380  158.8879 C   0  0  2  0  0  0  0  0  0  0  0  0
  151.7097  143.6481  157.4800 C   0  0  0  0  0  0  0  0  0  0  0  0
  150.7786  143.1165  156.4632 N   0  3  0  0  0  0  0  0  0  0  0  0
  150.1641  141.8245  156.8259 C   0  0  0  0  0  0  0  0  0  0  0  0
  149.8905  140.9727  155.5788 C   0  0  0  0  0  0  0  0  0  0  0  0
  148.5834  141.3012  154.9246 C   0  0  0  0  0  0  0  0  0  0  0  0
  148.0297  142.5182  154.8562 N   0  3  0  0  0  0  0  0  0  0  0  0
  146.8288  142.4602  154.2022 C   0  0  0  0  0  0  0  0  0  0  0  0
  146.6377  141.1474  153.8592 C   0  0  0  0  0  0  0  0  0  0  0  0
  147.7307  140.4579  154.3185 N   0  0  0  0  0  0  0  0  0  0  0  0
  147.9730  139.0197  154.1848 C   0  0  0  0  0  0  0  0  0  0  0  0
  149.3443  144.8012  159.4544 H   0  0  0  0  0  0  0  0  0  0  0  0
  150.6491  145.9030  158.9674 H   0  0  0  0  0  0  0  0  0  0  0  0
  150.1497  145.8121  160.6478 H   0  0  0  0  0  0  0  0  0  0  0  0
  151.9040  144.8775  161.8565 H   0  0  0  0  0  0  0  0  0  0  0  0
  154.0205  143.3587  161.3135 H   0  0  0  0  0  0  0  0  0  0  0  0
  152.9308  142.8008  162.5708 H   0  0  0  0  0  0  0  0  0  0  0  0
  153.5225  140.9966  160.9031 H   0  0  0  0  0  0  0  0  0  0  0  0
  151.8046  141.2624  161.0788 H   0  0  0  0  0  0  0  0  0  0  0  0
  153.5545  142.4257  158.8897 H   0  0  0  0  0  0  0  0  0  0  0  0
  151.4629  140.1977  158.7257 H   0  0  0  0  0  0  0  0  0  0  0  0
  153.2055  139.9692  158.6888 H   0  0  0  0  0  0  0  0  0  0  0  0
  152.4093  140.8032  157.3718 H   0  0  0  0  0  0  0  0  0  0  0  0
  150.5336  142.4950  158.8768 H   0  0  0  0  0  0  0  0  0  0  0  0
  151.6167  144.7339  157.5339 H   0  0  0  0  0  0  0  0  0  0  0  0
  152.7181  143.4465  157.1217 H   0  0  0  0  0  0  0  0  0  0  0  0
  150.0483  143.7976  156.3109 H   0  0  0  0  0  0  0  0  0  0  0  0
  150.8322  141.2924  157.5043 H   0  0  0  0  0  0  0  0  0  0  0  0
  149.2337  142.0063  157.3658 H   0  0  0  0  0  0  0  0  0  0  0  0
  150.6678  141.1239  154.8285 H   0  0  0  0  0  0  0  0  0  0  0  0
  149.8797  139.9095  155.8212 H   0  0  0  0  0  0  0  0  0  0  0  0
  146.2160  143.3343  154.0344 H   0  0  0  0  0  0  0  0  0  0  0  0
  145.8243  140.6659  153.3353 H   0  0  0  0  0  0  0  0  0  0  0  0
  147.0917  138.5385  153.7594 H   0  0  0  0  0  0  0  0  0  0  0  0
  148.1773  138.5905  155.1659 H   0  0  0  0  0  0  0  0  0  0  0  0
  148.8255  138.8585  153.5244 H   0  0  0  0  0  0  0  0  0  0  0  0
  151.2914  142.9956  155.6011 H   0  0  0  0  0  0  0  0  0  0  0  0
  148.4427  143.3631  155.2312 H   0  0  0  0  0  0  0  0  0  0  0  0
  1  2  1  0  0  0  0
  1 19  1  0  0  0  0
  1 20  1  0  0  0  0
  1 21  1  0  0  0  0
  2  8  1  0  0  0  0
  2  3  2  0  0  0  0
  3  4  1  0  0  0  0
  3 22  1  0  0  0  0
  4  5  1  0  0  0  0
  4 23  1  0  0  0  0
  4 24  1  0  0  0  0
  5  6  1  0  0  0  0
  5 25  1  0  0  0  0
  5 26  1  0  0  0  0
  6  7  1  0  0  0  0
  6  8  1  0  0  0  0
  6 27  1  0  0  0  0
  7 28  1  0  0  0  0
  7 29  1  0  0  0  0
  7 30  1  0  0  0  0
  8  9  1  0  0  0  0
  8 31  1  0  0  0  0
  9 10  1  0  0  0  0
  9 32  1  0  0  0  0
  9 33  1  0  0  0  0
 10 11  1  0  0  0  0
 10 34  1  0  0  0  0
 10 44  1  0  0  0  0
 11 12  1  0  0  0  0
 11 35  1  0  0  0  0
 11 36  1  0  0  0  0
 12 13  1  0  0  0  0
 12 37  1  0  0  0  0
 12 38  1  0  0  0  0
 13 17  1  0  0  0  0
 13 14  2  0  0  0  0
 14 15  1  0  0  0  0
 14 45  1  0  0  0  0
 15 16  2  0  0  0  0
 15 39  1  0  0  0  0
 16 17  1  0  0  0  0
 16 40  1  0  0  0  0
 17 18  1  0  0  0  0
 18 41  1  0  0  0  0
 18 42  1  0  0  0  0
 18 43  1  0  0  0  0
M  CHG  1  10   1
M  CHG  1  14   1
M  END
> <s_m_source_file>
AV-unprocessed.smi

> <i_m_source_file_index>
3284

> <i_lp_mmshare_version>
43012

> <i_f3d_flags>
0

> <s_epik_input>
W0NIM11DMT1bQ0hdW0NIMl1bQ0gyXVtDQEBIXShbQ0gzXSlbQ0BIXTFbQ0gyXVtOSF1bQ0gyXVtDSDJdYzJuW2NIXVtjSF1uMltDSDNd

> <s_epik_cmdline>
J2VwaWtfcHl0aG9uJywgJy1waCcsICc3LjAnLCAnLXRuJywgJzgnLCAnLW1hJywgJzIwMCcsICctbWV0YWxfYmluZGluZycsICctaW1hZScsICc8aW5maWxlLm1hZT4nLCAnLW9tYWUnLCAnPG91dGZpbGUubWFlPic=

> <r_lp_tautomer_probability>
1

> <r_epik_Ionization_Penalty>
0.892846

> <r_epik_Ionization_Penalty_Charging>
0.00275802

> <r_epik_Ionization_Penalty_Neutral>
0.890088

> <r_epik_State_Penalty>
0.485211

> <r_epik_Charging_Adjusted_Penalty>
0.487969

> <i_epik_Tot_Q>
2

> <i_epik_Tot_abs_Q>
2

> <r_epik_Metal_State_Penalty>
4.22898

> <b_epik_Metal_Only>
0

> <s_lp_Force_Field>
OPLS_2005

> <r_lp_Energy>
22.9484

> <b_lp_Chiralities_Consistent>
1

> <s_lp_Variant>
AV-unprocessed.smi:3284-7

> <Gold.Version>
5.8.1

> <Gold.Id.Protein>
6NUR|6NUR_protein|mol2

> <Gold.PLP.Fitness>
56.4364

> <Gold.PLP.PLP>
-45.3576

> <Gold.PLP.part.hbond>
-2.0000

> <Gold.PLP.part.metal>
0.0000

> <Gold.PLP.part.buried>
-6.4127

> <Gold.PLP.part.nonpolar>
-38.5549

> <Gold.PLP.part.repulsive>
0.2667

> <Gold.PLP.ligand.clash>
0.7035

> <Gold.PLP.ligand.torsion>
1.6451

> <Gold.PLP.Chemscore.Hbond>
4.0000

> <Gold.PLP.Chemscore.CHOScore>
1.0000

> <Gold.PLP.Chemscore.Metal>
0.0000

> <Gold.Chemscore.Hbonds>
donor molecule, donor type, donor heavy atom, donor atom, acceptor molecule, acceptor atom, score
      L1  H    10    34       P1  8028  2.00
      L1  H    14    45       P1  8028  1.69
      L1  C    16    40       P1 10175  1.00

> <Gold.PLP.Chemscore.Internal.Correction>
0.0724

> <Gold.Rescore>
     Score         DG    S(hbond)    S(metal)    S(lipo)     H(rot)  DE(clash)    DE(int)     intcor
     20.59     -22.14       1.99        0.00     122.68       1.70       0.01       1.54       ----

> <Gold.Chemscore.Fitness>
20.5862

> <Gold.Chemscore.DG>
-22.1357

> <Gold.Chemscore.ZeroCoef>
-5.4800

> <Gold.Chemscore.Hbond>
1.9920

> <Gold.Chemscore.Metal>
0.0000

> <Gold.Chemscore.Lipo>
122.6810

> <Gold.Chemscore.Internal_Hbond>
0.0000

> <Gold.Chemscore.DEClash>
0.0109

> <Gold.Chemscore.DEInternal>
1.5386

> <Gold.Chemscore.Rot>
1.6997

> <Gold.Chemscore.Internal.Correction>
   9.000000E+99

> <Gold.Chemscore.Hbonds>
donor molecule, donor type, donor heavy atom, donor atom, acceptor molecule, acceptor atom, score
      L1  H    10    34       P1  8028  0.99
      L1  H    14    45       P1  8028  0.82

> <Gold.Chemscore.Hbond.Weighted>
-6.6533

> <Gold.Chemscore.Metal.Weighted>
-0.0000

> <Gold.Chemscore.Lipo.Weighted>
-14.3537

> <Gold.Chemscore.Internal_Hbond.Weighted>
0.0000

> <Gold.Chemscore.DEClash.Weighted>
0.0109

> <Gold.Chemscore.DEInternal.Weighted>
1.5386

> <Gold.Chemscore.Rot.Weighted>
4.3512

> <Gold.Chemscore.Internal.Correction.Weighted>
   9.000000E+99

> <Gold.Protein.RotatedTorsions>
[ 6907 6896 6895 6894 ] final  -58.99 input  -60.11 | X-H torsion
[ 7974 7965 7964 7962 ] final  103.14 input  175.53 | X-H torsion
[ 8008 7997 7996 7995 ] final  -55.55 input   59.86 | X-H torsion
[ 10167 10162 10161 10158 ] final -125.63 input  -65.29 | X-H torsion
[ 10718 10713 10712 10709 ] final  -22.74 input   66.30 | X-H torsion
[ 10763 10752 10751 10750 ] final  -24.25 input  -60.55 | X-H torsion
[ 11005 11000 10999 10996 ] final  -32.53 input  -57.11 | X-H torsion

> <Gold.Protein.ActiveResidues>
 VAL166  LYS551  ARG553  GLY616  TRP617  ASP618  TYR619  PRO620  LYS621  CYS622 
 ASP623  PHE694  ASN695  SER759  ASP760  ASP761  ALA762  ILE779  LEU786  VAL792 
 PHE793  MET794  SER795  GLU796  ALA797  LYS798  CYS799  TRP800  GLU811  SER814 

> <Gold.Protein.RotatedAtoms>
  150.7964  134.7026  159.6558 H   0  0  0  0  0  0  0  0  0  0  0  0  # atno 6907 bound_to 6896
  152.4077  134.6176  160.0052 H   0  0  0  0  0  0  0  0  0  0  0  0  # atno 6908 bound_to 6896
  151.6428  133.3288  159.3170 H   0  0  0  0  0  0  0  0  0  0  0  0  # atno 6909 bound_to 6896
  145.3499  139.2442  143.3564 H   0  0  0  0  0  0  0  0  0  0  0  0  # atno 7974 bound_to 7965
  154.4199  140.1150  156.5494 H   0  0  0  0  0  0  0  0  0  0  0  0  # atno 8008 bound_to 7997
  155.6426  140.3496  155.4701 H   0  0  0  0  0  0  0  0  0  0  0  0  # atno 8009 bound_to 7997
  155.9859  140.1169  157.0673 H   0  0  0  0  0  0  0  0  0  0  0  0  # atno 8010 bound_to 7997
  139.9801  143.5752  152.2381 H   0  0  0  0  0  0  0  0  0  0  0  0  # atno 10167 bound_to 10162
  156.5004  130.4587  149.6704 H   0  0  0  0  0  0  0  0  0  0  0  0  # atno 10718 bound_to 10713
  153.6808  135.6967  153.5119 H   0  0  0  0  0  0  0  0  0  0  0  0  # atno 10763 bound_to 10752
  153.2487  135.4282  155.0773 H   0  0  0  0  0  0  0  0  0  0  0  0  # atno 10764 bound_to 10752
  154.8401  135.3526  154.6351 H   0  0  0  0  0  0  0  0  0  0  0  0  # atno 10765 bound_to 10752
  140.9560  133.7192  156.1294 H   0  0  0  0  0  0  0  0  0  0  0  0  # atno 11005 bound_to 11000
  146.2972  140.4113  142.8717 LP  0  0  0  0  0  0  0  0  0  0  0  0  # atno 17320 bound_to 7965
  144.8726  140.7293  143.6037 LP  0  0  0  0  0  0  0  0  0  0  0  0  # atno 17321 bound_to 7965
  139.6416  144.7655  151.2327 LP  0  0  0  0  0  0  0  0  0  0  0  0  # atno 17342 bound_to 10162
  140.7492  143.6307  150.8425 LP  0  0  0  0  0  0  0  0  0  0  0  0  # atno 17343 bound_to 10162
  156.3338  130.7345  151.2279 LP  0  0  0  0  0  0  0  0  0  0  0  0  # atno 17370 bound_to 10713
  157.7463  131.0422  150.4685 LP  0  0  0  0  0  0  0  0  0  0  0  0  # atno 17371 bound_to 10713
  140.7535  134.4018  157.5537 LP  0  0  0  0  0  0  0  0  0  0  0  0  # atno 17394 bound_to 11000
  139.8862  134.8915  156.2597 LP  0  0  0  0  0  0  0  0  0  0  0  0  # atno 17395 bound_to 11000

$$$$
