AV-unprocessed.smi:2804|AV-procd|sdf|10811|dock3
  -GOLD-   2272015243D 1   1.00000     0.00000
 Structure written by MMmdl.
 34 35  0  0  0  0  0  0  0  0  2 V2000
  156.7028  139.8916  160.6352 C   0  0  0  0  0  0  0  0  0  0  0  0
  155.7067  140.6978  159.7957 C   0  0  0  0  0  0  0  0  0  0  0  0
  154.4018  140.9885  160.5529 C   0  0  0  0  0  0  0  0  0  0  0  0
  153.2999  141.2436  159.6282 N   0  0  0  0  0  0  0  0  0  0  0  0
  152.9061  140.4478  158.6066 C   0  0  0  0  0  0  0  0  0  0  0  0
  153.4036  139.3610  158.3097 O   0  0  0  0  0  0  0  0  0  0  0  0
  151.8648  141.0490  157.9751 N   0  0  0  0  0  0  0  0  0  0  0  0
  151.0935  140.5182  156.8383 C   0  0  0  0  0  0  0  0  0  0  0  0
  151.8426  139.4408  156.0003 C   0  0  2  0  0  0  0  0  0  0  0  0
  152.6442  140.0778  155.1798 O   0  5  0  0  0  0  0  0  0  0  0  0
  150.8604  138.6090  155.1395 C   0  0  0  0  0  0  0  0  0  0  0  0
  150.1177  139.4125  154.3756 F   0  0  0  0  0  0  0  0  0  0  0  0
  151.5470  137.8010  154.3302 F   0  0  0  0  0  0  0  0  0  0  0  0
  150.0557  137.8581  155.8955 F   0  0  0  0  0  0  0  0  0  0  0  0
  151.5734  142.2553  158.6369 C   0  0  0  0  0  0  0  0  0  0  0  0
  150.5896  143.2305  158.3932 C   0  0  0  0  0  0  0  0  0  0  0  0
  150.5653  144.3562  159.2489 C   0  0  0  0  0  0  0  0  0  0  0  0
  151.5023  144.4852  160.3064 C   0  0  0  0  0  0  0  0  0  0  0  0
  152.4815  143.4897  160.5314 C   0  0  0  0  0  0  0  0  0  0  0  0
  152.4807  142.3798  159.6682 C   0  0  0  0  0  0  0  0  0  0  0  0
  157.6178  139.7000  160.0742 H   0  0  0  0  0  0  0  0  0  0  0  0
  156.2820  138.9288  160.9264 H   0  0  0  0  0  0  0  0  0  0  0  0
  156.9755  140.4281  161.5442 H   0  0  0  0  0  0  0  0  0  0  0  0
  156.1707  141.6363  159.4903 H   0  0  0  0  0  0  0  0  0  0  0  0
  155.4861  140.1504  158.8785 H   0  0  0  0  0  0  0  0  0  0  0  0
  154.1498  140.1467  161.1995 H   0  0  0  0  0  0  0  0  0  0  0  0
  154.5316  141.8457  161.2140 H   0  0  0  0  0  0  0  0  0  0  0  0
  150.1723  140.0887  157.2344 H   0  0  0  0  0  0  0  0  0  0  0  0
  150.7668  141.3427  156.2027 H   0  0  0  0  0  0  0  0  0  0  0  0
  152.2506  138.7361  156.7268 H   0  0  0  0  0  0  0  0  0  0  0  0
  149.8843  143.1311  157.5815 H   0  0  0  0  0  0  0  0  0  0  0  0
  149.8266  145.1282  159.0921 H   0  0  0  0  0  0  0  0  0  0  0  0
  151.4683  145.3545  160.9464 H   0  0  0  0  0  0  0  0  0  0  0  0
  153.1978  143.5837  161.3339 H   0  0  0  0  0  0  0  0  0  0  0  0
  1  2  1  0  0  0  0
  1 21  1  0  0  0  0
  1 22  1  0  0  0  0
  1 23  1  0  0  0  0
  2  3  1  0  0  0  0
  2 24  1  0  0  0  0
  2 25  1  0  0  0  0
  3  4  1  0  0  0  0
  3 26  1  0  0  0  0
  3 27  1  0  0  0  0
  4 20  1  0  0  0  0
  4  5  1  0  0  0  0
  5  6  2  0  0  0  0
  5  7  1  0  0  0  0
  7  8  1  0  0  0  0
  7 15  1  0  0  0  0
  8  9  1  0  0  0  0
  8 28  1  0  0  0  0
  8 29  1  0  0  0  0
  9 10  1  0  0  0  0
  9 11  1  0  0  0  0
  9 30  1  0  0  0  0
 11 12  1  0  0  0  0
 11 13  1  0  0  0  0
 11 14  1  0  0  0  0
 15 20  2  0  0  0  0
 15 16  1  0  0  0  0
 16 17  2  0  0  0  0
 16 31  1  0  0  0  0
 17 18  1  0  0  0  0
 17 32  1  0  0  0  0
 18 19  2  0  0  0  0
 18 33  1  0  0  0  0
 19 20  1  0  0  0  0
 19 34  1  0  0  0  0
M  CHG  1  10  -1
M  END
> <s_m_source_file>
AV-unprocessed.smi

> <i_m_source_file_index>
2804

> <i_lp_mmshare_version>
43012

> <i_f3d_flags>
0

> <s_epik_input>
W2NIXTFbY0hdW2NIXVtjSF1jKGMxMiluKFtDSDJdW0NIMl1bQ0gzXSljKD1PKW4yW0NIMl1bQ0BIXShbT0hdKUMoRikoRilG

> <s_epik_cmdline>
J2VwaWtfcHl0aG9uJywgJy1waCcsICc3LjAnLCAnLXRuJywgJzgnLCAnLW1hJywgJzIwMCcsICctbWV0YWxfYmluZGluZycsICctaW1hZScsICc8aW5maWxlLm1hZT4nLCAnLW9tYWUnLCAnPG91dGZpbGUubWFlPic=

> <r_epik_Ionization_Penalty>
2.32651

> <r_epik_Ionization_Penalty_Charging>
2.32651

> <r_epik_Ionization_Penalty_Neutral>
0

> <r_epik_State_Penalty>
2.47909

> <r_epik_Charging_Adjusted_Penalty>
4.8056

> <i_epik_Tot_Q>
-1

> <i_epik_Tot_abs_Q>
1

> <r_epik_Metal_State_Penalty>
2.47909

> <b_epik_Metal_Only>
0

> <s_lp_Force_Field>
OPLS_2005

> <r_lp_Energy>
44.0832

> <b_lp_Chiralities_Consistent>
1

> <s_lp_Variant>
AV-unprocessed.smi:2804-3

> <Gold.Version>
5.8.1

> <Gold.Id.Protein>
6NUR|6NUR_protein|mol2

> <Gold.PLP.Fitness>
51.8238

> <Gold.PLP.PLP>
-44.0031

> <Gold.PLP.part.hbond>
-3.0000

> <Gold.PLP.part.metal>
0.0000

> <Gold.PLP.part.buried>
-2.6639

> <Gold.PLP.part.nonpolar>
-38.4243

> <Gold.PLP.part.repulsive>
0.0131

> <Gold.PLP.ligand.clash>
0.0000

> <Gold.PLP.ligand.torsion>
0.6804

> <Gold.PLP.Chemscore.Hbond>
3.0403

> <Gold.PLP.Chemscore.CHOScore>
0.0000

> <Gold.PLP.Chemscore.Metal>
0.0000

> <Gold.Chemscore.Hbonds>
donor molecule, donor type, donor heavy atom, donor atom, acceptor molecule, acceptor atom, score
      P1  H  7989  7998       L1    10  0.43
      P1  H  7997  8008       L1    10  1.89
      P1  H  7997  8010       L1     6  0.66

> <Gold.PLP.Chemscore.Internal.Correction>
0.0606

> <Gold.Rescore>
     Score         DG    S(hbond)    S(metal)    S(lipo)     H(rot)  DE(clash)    DE(int)     intcor
     15.48     -17.59       1.39        0.00     101.46       1.72       0.09       2.02       ----

> <Gold.Chemscore.Fitness>
15.4846

> <Gold.Chemscore.DG>
-17.5940

> <Gold.Chemscore.ZeroCoef>
-5.4800

> <Gold.Chemscore.Hbond>
1.3899

> <Gold.Chemscore.Metal>
0.0000

> <Gold.Chemscore.Lipo>
101.4615

> <Gold.Chemscore.Internal_Hbond>
0.0000

> <Gold.Chemscore.DEClash>
0.0904

> <Gold.Chemscore.DEInternal>
2.0191

> <Gold.Chemscore.Rot>
1.7185

> <Gold.Chemscore.Internal.Correction>
   9.000000E+99

> <Gold.Chemscore.Hbonds>
donor molecule, donor type, donor heavy atom, donor atom, acceptor molecule, acceptor atom, score
      P1  H  7989  7998       L1    10  0.37
      P1  H  7997  8008       L1    10  0.81
      P1  H  7997  8010       L1     6  0.14

> <Gold.Chemscore.Hbond.Weighted>
-4.6423

> <Gold.Chemscore.Metal.Weighted>
-0.0000

> <Gold.Chemscore.Lipo.Weighted>
-11.8710

> <Gold.Chemscore.Internal_Hbond.Weighted>
0.0000

> <Gold.Chemscore.DEClash.Weighted>
0.0904

> <Gold.Chemscore.DEInternal.Weighted>
2.0191

> <Gold.Chemscore.Rot.Weighted>
4.3992

> <Gold.Chemscore.Internal.Correction.Weighted>
   9.000000E+99

> <Gold.Protein.RotatedTorsions>
[ 6907 6896 6895 6894 ] final   98.49 input  -60.11 | X-H torsion
[ 7974 7965 7964 7962 ] final  -12.37 input  175.53 | X-H torsion
[ 8008 7997 7996 7995 ] final   -0.09 input   59.86 | X-H torsion
[ 10167 10162 10161 10158 ] final  115.28 input  -65.29 | X-H torsion
[ 10718 10713 10712 10709 ] final  -48.04 input   66.30 | X-H torsion
[ 10763 10752 10751 10750 ] final  103.69 input  -60.55 | X-H torsion
[ 11005 11000 10999 10996 ] final  160.68 input  -57.11 | X-H torsion

> <Gold.Protein.ActiveResidues>
 VAL166  LYS551  ARG553  GLY616  TRP617  ASP618  TYR619  PRO620  LYS621  CYS622 
 ASP623  PHE694  ASN695  SER759  ASP760  ASP761  ALA762  ILE779  LEU786  VAL792 
 PHE793  MET794  SER795  GLU796  ALA797  LYS798  CYS799  TRP800  GLU811  SER814 

> <Gold.Protein.RotatedAtoms>
  152.5408  134.0573  159.8136 H   0  0  0  0  0  0  0  0  0  0  0  0  # atno 6907 bound_to 6896
  151.0706  133.5462  159.2634 H   0  0  0  0  0  0  0  0  0  0  0  0  # atno 6908 bound_to 6896
  151.2326  135.0568  159.9047 H   0  0  0  0  0  0  0  0  0  0  0  0  # atno 6909 bound_to 6896
  146.2154  140.3048  142.8378 H   0  0  0  0  0  0  0  0  0  0  0  0  # atno 7974 bound_to 7965
  154.6620  140.2593  155.7098 H   0  0  0  0  0  0  0  0  0  0  0  0  # atno 8008 bound_to 7997
  156.2622  140.2846  156.1018 H   0  0  0  0  0  0  0  0  0  0  0  0  # atno 8009 bound_to 7997
  155.1294  140.0378  157.2761 H   0  0  0  0  0  0  0  0  0  0  0  0  # atno 8010 bound_to 7997
  139.6328  144.7116  151.2397 H   0  0  0  0  0  0  0  0  0  0  0  0  # atno 10167 bound_to 10162
  156.2026  130.4157  149.9220 H   0  0  0  0  0  0  0  0  0  0  0  0  # atno 10718 bound_to 10713
  153.3560  135.3968  155.1682 H   0  0  0  0  0  0  0  0  0  0  0  0  # atno 10763 bound_to 10752
  154.8671  135.3668  154.5161 H   0  0  0  0  0  0  0  0  0  0  0  0  # atno 10764 bound_to 10752
  153.5617  135.7081  153.5604 H   0  0  0  0  0  0  0  0  0  0  0  0  # atno 10765 bound_to 10752
  140.2083  134.8286  157.3093 H   0  0  0  0  0  0  0  0  0  0  0  0  # atno 11005 bound_to 11000
  144.9031  140.7667  143.5854 LP  0  0  0  0  0  0  0  0  0  0  0  0  # atno 17320 bound_to 7965
  145.2975  139.1862  143.4707 LP  0  0  0  0  0  0  0  0  0  0  0  0  # atno 17321 bound_to 7965
  140.7448  143.6450  150.8300 LP  0  0  0  0  0  0  0  0  0  0  0  0  # atno 17342 bound_to 10162
  140.0077  143.5676  152.2851 LP  0  0  0  0  0  0  0  0  0  0  0  0  # atno 17343 bound_to 10162
  156.6924  130.8901  151.3590 LP  0  0  0  0  0  0  0  0  0  0  0  0  # atno 17370 bound_to 10713
  157.6994  130.9317  150.0741 LP  0  0  0  0  0  0  0  0  0  0  0  0  # atno 17371 bound_to 10713
  140.1978  134.4292  155.7679 LP  0  0  0  0  0  0  0  0  0  0  0  0  # atno 17394 bound_to 11000
  141.2226  133.7057  156.8134 LP  0  0  0  0  0  0  0  0  0  0  0  0  # atno 17395 bound_to 11000

$$$$
