AV-unprocessed.smi:1345|AV-procd|sdf|5511|dock6
  -GOLD-   22720 5 93D 1   1.00000     0.00000
 Structure written by MMmdl.
 40 41  0  0  0  0  0  0  0  0  1 V2000
  144.1949  135.3527  150.8829 C   0  0  0  0  0  0  0  0  0  0  0  0
  143.8751  135.5225  152.3812 C   0  0  0  0  0  0  0  0  0  0  0  0
  142.7046  134.5978  152.7620 C   0  0  0  0  0  0  0  0  0  0  0  0
  143.6080  137.0034  152.7602 C   0  0  1  0  0  0  0  0  0  0  0  0
  143.3218  137.2061  154.2605 C   0  0  0  0  0  0  0  0  0  0  0  0
  144.7532  137.8316  152.3864 N   0  0  0  0  0  0  0  0  0  0  0  0
  145.9419  137.8580  153.0108 C   0  0  0  0  0  0  0  0  0  0  0  0
  146.2026  137.1830  154.0065 O   0  0  0  0  0  0  0  0  0  0  0  0
  147.0008  138.7889  152.4180 C   0  0  0  0  0  0  0  0  0  0  0  0
  147.3560  139.8647  153.4035 C   0  0  0  0  0  0  0  0  0  0  0  0
  146.6243  140.9906  153.6924 C   0  0  0  0  0  0  0  0  0  0  0  0
  147.3895  141.9719  154.9116 S   0  0  0  0  0  0  0  0  0  0  0  0
  148.7055  140.7963  154.9841 C   0  0  0  0  0  0  0  0  0  0  0  0
  149.8538  140.8618  155.8278 N   0  0  0  0  0  0  0  0  0  0  0  0
  149.8486  141.6239  157.0729 C   0  0  0  0  0  0  0  0  0  0  0  0
  151.2536  141.4215  157.6320 C   0  0  0  0  0  0  0  0  0  0  0  0
  151.8597  140.5756  156.6311 N   0  0  0  0  0  0  0  0  0  0  0  0
  151.0472  140.2716  155.6162 C   0  0  0  0  0  0  0  0  0  0  0  0
  151.3722  139.5657  154.6632 O   0  0  0  0  0  0  0  0  0  0  0  0
  148.5410  139.7711  154.1415 N   0  0  0  0  0  0  0  0  0  0  0  0
  143.3755  135.7150  150.2614 H   0  0  0  0  0  0  0  0  0  0  0  0
  144.3609  134.3044  150.6327 H   0  0  0  0  0  0  0  0  0  0  0  0
  145.0964  135.8930  150.5939 H   0  0  0  0  0  0  0  0  0  0  0  0
  144.7503  135.1842  152.9378 H   0  0  0  0  0  0  0  0  0  0  0  0
  141.7749  134.9218  152.2930 H   0  0  0  0  0  0  0  0  0  0  0  0
  142.5451  134.5666  153.8392 H   0  0  0  0  0  0  0  0  0  0  0  0
  142.8955  133.5727  152.4434 H   0  0  0  0  0  0  0  0  0  0  0  0
  142.7351  137.3399  152.1976 H   0  0  0  0  0  0  0  0  0  0  0  0
  142.4054  136.7046  154.5693 H   0  0  0  0  0  0  0  0  0  0  0  0
  143.1952  138.2628  154.4982 H   0  0  0  0  0  0  0  0  0  0  0  0
  144.1379  136.8254  154.8754 H   0  0  0  0  0  0  0  0  0  0  0  0
  144.6376  138.4222  151.5753 H   0  0  0  0  0  0  0  0  0  0  0  0
  147.8791  138.2034  152.1428 H   0  0  0  0  0  0  0  0  0  0  0  0
  146.6213  139.2272  151.4941 H   0  0  0  0  0  0  0  0  0  0  0  0
  145.6800  141.2972  153.2672 H   0  0  0  0  0  0  0  0  0  0  0  0
  149.6445  142.6780  156.8791 H   0  0  0  0  0  0  0  0  0  0  0  0
  149.0890  141.2411  157.7562 H   0  0  0  0  0  0  0  0  0  0  0  0
  151.7991  142.3616  157.7224 H   0  0  0  0  0  0  0  0  0  0  0  0
  151.2420  140.9212  158.6011 H   0  0  0  0  0  0  0  0  0  0  0  0
  152.8130  140.2500  156.7033 H   0  0  0  0  0  0  0  0  0  0  0  0
  1  2  1  0  0  0  0
  1 21  1  0  0  0  0
  1 22  1  0  0  0  0
  1 23  1  0  0  0  0
  2  3  1  0  0  0  0
  2  4  1  0  0  0  0
  2 24  1  0  0  0  0
  3 25  1  0  0  0  0
  3 26  1  0  0  0  0
  3 27  1  0  0  0  0
  4  5  1  0  0  0  0
  4  6  1  0  0  0  0
  4 28  1  0  0  0  0
  5 29  1  0  0  0  0
  5 30  1  0  0  0  0
  5 31  1  0  0  0  0
  6  7  1  0  0  0  0
  6 32  1  0  0  0  0
  7  8  2  0  0  0  0
  7  9  1  0  0  0  0
  9 10  1  0  0  0  0
  9 33  1  0  0  0  0
  9 34  1  0  0  0  0
 10 20  1  0  0  0  0
 10 11  2  0  0  0  0
 11 12  1  0  0  0  0
 11 35  1  0  0  0  0
 12 13  1  0  0  0  0
 13 14  1  0  0  0  0
 13 20  2  0  0  0  0
 14 18  1  0  0  0  0
 14 15  1  0  0  0  0
 15 16  1  0  0  0  0
 15 36  1  0  0  0  0
 15 37  1  0  0  0  0
 16 17  1  0  0  0  0
 16 38  1  0  0  0  0
 16 39  1  0  0  0  0
 17 18  1  0  0  0  0
 17 40  1  0  0  0  0
 18 19  2  0  0  0  0
M  END
> <s_m_source_file>
AV-unprocessed.smi

> <i_m_source_file_index>
1345

> <i_lp_mmshare_version>
43012

> <i_f3d_flags>
0

> <s_epik_input>
W0NIM11bQ0hdKFtDSDNdKVtDQEhdKFtDSDNdKVtOSF1DKD1PKVtDSDJdYzFbY0hdc2MobjEpTjJbQ0gyXVtDSDJdW05IXUMyPU8=

> <s_epik_cmdline>
J2VwaWtfcHl0aG9uJywgJy1waCcsICc3LjAnLCAnLXRuJywgJzgnLCAnLW1hJywgJzIwMCcsICctbWV0YWxfYmluZGluZycsICctaW1hZScsICc8aW5maWxlLm1hZT4nLCAnLW9tYWUnLCAnPG91dGZpbGUubWFlPic=

> <r_lp_tautomer_probability>
1

> <r_epik_Ionization_Penalty>
0.000122034

> <r_epik_Ionization_Penalty_Charging>
0

> <r_epik_Ionization_Penalty_Neutral>
0.000122034

> <r_epik_State_Penalty>
-0

> <r_epik_Charging_Adjusted_Penalty>
0

> <i_epik_Tot_Q>
0

> <i_epik_Tot_abs_Q>
0

> <r_epik_Metal_State_Penalty>
-0

> <b_epik_Metal_Only>
0

> <s_lp_Force_Field>
OPLS_2005

> <r_lp_Energy>
32.8432

> <b_lp_Chiralities_Consistent>
1

> <s_lp_Variant>
AV-unprocessed.smi:1345-2

> <Gold.Version>
5.8.1

> <Gold.Id.Protein>
6NUR|6NUR_protein|mol2

> <Gold.PLP.Fitness>
40.3493

> <Gold.PLP.PLP>
-33.0808

> <Gold.PLP.part.hbond>
-3.0000

> <Gold.PLP.part.metal>
0.0000

> <Gold.PLP.part.buried>
-1.3417

> <Gold.PLP.part.nonpolar>
-29.3617

> <Gold.PLP.part.repulsive>
0.4803

> <Gold.PLP.ligand.clash>
0.0000

> <Gold.PLP.ligand.torsion>
0.6158

> <Gold.PLP.Chemscore.Hbond>
1.8960

> <Gold.PLP.Chemscore.CHOScore>
0.9266

> <Gold.PLP.Chemscore.Metal>
0.0000

> <Gold.Chemscore.Hbonds>
donor molecule, donor type, donor heavy atom, donor atom, acceptor molecule, acceptor atom, score
      L1  H     6    32       P1 10171  0.93
      P1  H  7989  7998       L1    19  0.90
      L1  C    11    35       P1 10175  0.93

> <Gold.PLP.Chemscore.Internal.Correction>
0.0325

> <Gold.Rescore>
     Score         DG    S(hbond)    S(metal)    S(lipo)     H(rot)  DE(clash)    DE(int)     intcor
     11.22     -13.92       1.86        0.00      57.07       1.74       0.17       2.53       ----

> <Gold.Chemscore.Fitness>
11.2176

> <Gold.Chemscore.DG>
-13.9198

> <Gold.Chemscore.ZeroCoef>
-5.4800

> <Gold.Chemscore.Hbond>
1.8577

> <Gold.Chemscore.Metal>
0.0000

> <Gold.Chemscore.Lipo>
57.0700

> <Gold.Chemscore.Internal_Hbond>
0.0000

> <Gold.Chemscore.DEClash>
0.1687

> <Gold.Chemscore.DEInternal>
2.5335

> <Gold.Chemscore.Rot>
1.7353

> <Gold.Chemscore.Internal.Correction>
   9.000000E+99

> <Gold.Chemscore.Hbonds>
donor molecule, donor type, donor heavy atom, donor atom, acceptor molecule, acceptor atom, score
      L1  H     6    32       P1 10171  0.91
      P1  H  7989  7998       L1    19  0.18

> <Gold.Chemscore.Hbond.Weighted>
-6.2049

> <Gold.Chemscore.Metal.Weighted>
-0.0000

> <Gold.Chemscore.Lipo.Weighted>
-6.6772

> <Gold.Chemscore.Internal_Hbond.Weighted>
0.0000

> <Gold.Chemscore.DEClash.Weighted>
0.1687

> <Gold.Chemscore.DEInternal.Weighted>
2.5335

> <Gold.Chemscore.Rot.Weighted>
4.4423

> <Gold.Chemscore.Internal.Correction.Weighted>
   9.000000E+99

> <Gold.Protein.RotatedTorsions>
[ 6907 6896 6895 6894 ] final  146.96 input  -60.11 | X-H torsion
[ 7974 7965 7964 7962 ] final -127.93 input  175.53 | X-H torsion
[ 8008 7997 7996 7995 ] final -172.32 input   59.86 | X-H torsion
[ 10167 10162 10161 10158 ] final   25.57 input  -65.29 | X-H torsion
[ 10718 10713 10712 10709 ] final   20.91 input   66.30 | X-H torsion
[ 10763 10752 10751 10750 ] final -176.69 input  -60.55 | X-H torsion
[ 11005 11000 10999 10996 ] final  -32.91 input  -57.11 | X-H torsion

> <Gold.Protein.ActiveResidues>
 VAL166  LYS551  ARG553  GLY616  TRP617  ASP618  TYR619  PRO620  LYS621  CYS622 
 ASP623  PHE694  ASN695  SER759  ASP760  ASP761  ALA762  ILE779  LEU786  VAL792 
 PHE793  MET794  SER795  GLU796  ALA797  LYS798  CYS799  TRP800  GLU811  SER814 

> <Gold.Protein.RotatedAtoms>
  152.1611  133.4582  159.4860 H   0  0  0  0  0  0  0  0  0  0  0  0  # atno 6907 bound_to 6896
  150.6907  134.2071  159.4354 H   0  0  0  0  0  0  0  0  0  0  0  0  # atno 6908 bound_to 6896
  151.9973  134.9947  160.0614 H   0  0  0  0  0  0  0  0  0  0  0  0  # atno 6909 bound_to 6896
  144.9721  140.7556  143.4664 H   0  0  0  0  0  0  0  0  0  0  0  0  # atno 7974 bound_to 7965
  155.9431  140.1112  157.1039 H   0  0  0  0  0  0  0  0  0  0  0  0  # atno 8008 bound_to 7997
  154.4093  140.1215  156.5019 H   0  0  0  0  0  0  0  0  0  0  0  0  # atno 8009 bound_to 7997
  155.6937  140.3472  155.4906 H   0  0  0  0  0  0  0  0  0  0  0  0  # atno 8010 bound_to 7997
  140.5095  144.0184  150.6366 H   0  0  0  0  0  0  0  0  0  0  0  0  # atno 10167 bound_to 10162
  157.1311  130.6591  149.5952 H   0  0  0  0  0  0  0  0  0  0  0  0  # atno 10718 bound_to 10713
  154.5693  135.2826  155.0843 H   0  0  0  0  0  0  0  0  0  0  0  0  # atno 10763 bound_to 10752
  154.2222  135.6389  153.5152 H   0  0  0  0  0  0  0  0  0  0  0  0  # atno 10764 bound_to 10752
  153.0052  135.5517  154.6311 H   0  0  0  0  0  0  0  0  0  0  0  0  # atno 10765 bound_to 10752
  140.9591  133.7175  156.1341 H   0  0  0  0  0  0  0  0  0  0  0  0  # atno 11005 bound_to 11000
  145.2543  139.2018  143.4925 LP  0  0  0  0  0  0  0  0  0  0  0  0  # atno 17320 bound_to 7965
  146.3385  140.2462  142.8597 LP  0  0  0  0  0  0  0  0  0  0  0  0  # atno 17321 bound_to 7965
  140.3502  143.2967  152.0495 LP  0  0  0  0  0  0  0  0  0  0  0  0  # atno 17342 bound_to 10162
  139.4892  144.6379  151.6937 LP  0  0  0  0  0  0  0  0  0  0  0  0  # atno 17343 bound_to 10162
  155.9808  130.4810  150.6791 LP  0  0  0  0  0  0  0  0  0  0  0  0  # atno 17370 bound_to 10713
  157.4391  131.0859  151.0961 LP  0  0  0  0  0  0  0  0  0  0  0  0  # atno 17371 bound_to 10713
  140.7493  134.4063  157.5544 LP  0  0  0  0  0  0  0  0  0  0  0  0  # atno 17394 bound_to 11000
  139.8872  134.8889  156.2542 LP  0  0  0  0  0  0  0  0  0  0  0  0  # atno 17395 bound_to 11000

$$$$
