AV-unprocessed.smi:2157|AV-procd|sdf|8783|dock8
  -GOLD-   2272011563D 1   1.00000     0.00000
 Structure written by MMmdl.
 41 42  0  0  0  0  0  0  0  0  1 V2000
  145.7344  143.2621  153.8370 C   0  0  0  0  0  0  0  0  0  0  0  0
  146.9770  142.5643  154.4081 C   0  0  2  0  0  0  0  0  0  0  0  0
  147.4219  141.3905  153.5150 C   0  0  0  0  0  0  0  0  0  0  0  0
  148.6624  140.6857  154.0855 C   0  0  0  0  0  0  0  0  0  0  0  0
  148.4181  140.2052  155.5255 C   0  0  0  0  0  0  0  0  0  0  0  0
  147.9567  141.3517  156.4503 C   0  0  1  0  0  0  0  0  0  0  0  0
  149.0395  142.2989  156.7107 N   0  0  0  0  0  0  0  0  0  0  0  0
  150.2465  141.9863  157.2055 C   0  0  0  0  0  0  0  0  0  0  0  0
  150.5836  140.8354  157.4872 O   0  0  0  0  0  0  0  0  0  0  0  0
  151.2226  143.1572  157.3841 C   0  0  0  0  0  0  0  0  0  0  0  0
  151.6236  143.3643  158.7815 N   0  0  0  0  0  0  0  0  0  0  0  0
  151.2093  144.4999  159.4528 C   0  0  0  0  0  0  0  0  0  0  0  0
  151.5481  144.7745  160.7314 C   0  0  0  0  0  0  0  0  0  0  0  0
  152.3913  143.8632  161.4960 C   0  0  0  0  0  0  0  0  0  0  0  0
  152.7293  144.0817  162.6597 O   0  0  0  0  0  0  0  0  0  0  0  0
  152.7948  142.7059  160.7872 N   0  0  0  0  0  0  0  0  0  0  0  0
  153.6441  141.7351  161.4454 C   0  0  0  0  0  0  0  0  0  0  0  0
  152.4429  142.4285  159.4482 C   0  0  0  0  0  0  0  0  0  0  0  0
  152.8349  141.4108  158.8713 O   0  0  0  0  0  0  0  0  0  0  0  0
  146.7372  142.0841  155.8553 C   0  0  0  0  0  0  0  0  0  0  0  0
  144.8836  142.5817  153.7904 H   0  0  0  0  0  0  0  0  0  0  0  0
  145.9202  143.6318  152.8284 H   0  0  0  0  0  0  0  0  0  0  0  0
  145.4454  144.1149  154.4518 H   0  0  0  0  0  0  0  0  0  0  0  0
  147.7829  143.2992  154.4224 H   0  0  0  0  0  0  0  0  0  0  0  0
  146.6078  140.6705  153.4192 H   0  0  0  0  0  0  0  0  0  0  0  0
  147.6371  141.7481  152.5076 H   0  0  0  0  0  0  0  0  0  0  0  0
  148.9296  139.8377  153.4545 H   0  0  0  0  0  0  0  0  0  0  0  0
  149.5142  141.3661  154.0628 H   0  0  0  0  0  0  0  0  0  0  0  0
  147.6521  139.4289  155.5135 H   0  0  0  0  0  0  0  0  0  0  0  0
  149.3179  139.7319  155.9197 H   0  0  0  0  0  0  0  0  0  0  0  0
  147.6498  140.9232  157.4060 H   0  0  0  0  0  0  0  0  0  0  0  0
  148.8522  143.2689  156.5021 H   0  0  0  0  0  0  0  0  0  0  0  0
  152.1026  142.9620  156.7702 H   0  0  0  0  0  0  0  0  0  0  0  0
  150.7803  144.0707  156.9825 H   0  0  0  0  0  0  0  0  0  0  0  0
  150.5865  145.2096  158.9281 H   0  0  0  0  0  0  0  0  0  0  0  0
  151.1924  145.6829  161.1947 H   0  0  0  0  0  0  0  0  0  0  0  0
  153.1672  140.7583  161.3460 H   0  0  0  0  0  0  0  0  0  0  0  0
  153.7652  141.9666  162.5031 H   0  0  0  0  0  0  0  0  0  0  0  0
  154.6099  141.7609  160.9382 H   0  0  0  0  0  0  0  0  0  0  0  0
  146.4652  142.9282  156.4909 H   0  0  0  0  0  0  0  0  0  0  0  0
  145.8804  141.4090  155.8698 H   0  0  0  0  0  0  0  0  0  0  0  0
  1  2  1  0  0  0  0
  1 21  1  0  0  0  0
  1 22  1  0  0  0  0
  1 23  1  0  0  0  0
  2 20  1  0  0  0  0
  2  3  1  0  0  0  0
  2 24  1  0  0  0  0
  3  4  1  0  0  0  0
  3 25  1  0  0  0  0
  3 26  1  0  0  0  0
  4  5  1  0  0  0  0
  4 27  1  0  0  0  0
  4 28  1  0  0  0  0
  5  6  1  0  0  0  0
  5 29  1  0  0  0  0
  5 30  1  0  0  0  0
  6  7  1  0  0  0  0
  6 20  1  0  0  0  0
  6 31  1  0  0  0  0
  7  8  1  0  0  0  0
  7 32  1  0  0  0  0
  8  9  2  0  0  0  0
  8 10  1  0  0  0  0
 10 11  1  0  0  0  0
 10 33  1  0  0  0  0
 10 34  1  0  0  0  0
 11 18  1  0  0  0  0
 11 12  1  0  0  0  0
 12 13  2  0  0  0  0
 12 35  1  0  0  0  0
 13 14  1  0  0  0  0
 13 36  1  0  0  0  0
 14 15  2  0  0  0  0
 14 16  1  0  0  0  0
 16 17  1  0  0  0  0
 16 18  1  0  0  0  0
 17 37  1  0  0  0  0
 17 38  1  0  0  0  0
 17 39  1  0  0  0  0
 18 19  2  0  0  0  0
 20 40  1  0  0  0  0
 20 41  1  0  0  0  0
M  END
> <s_m_source_file>
AV-unprocessed.smi

> <i_m_source_file_index>
2157

> <i_lp_mmshare_version>
43012

> <i_f3d_flags>
0

> <s_epik_input>
W0NIM11bQ0BASF0xW0NIMl1bQ0gyXVtDSDJdW0NASF0oW0NIMl0xKVtOSF1DKD1PKVtDSDJdbjJbY0hdW2NIXWMoPU8pbihbQ0gzXSljMj1P

> <s_epik_cmdline>
J2VwaWtfcHl0aG9uJywgJy1waCcsICc3LjAnLCAnLXRuJywgJzgnLCAnLW1hJywgJzIwMCcsICctbWV0YWxfYmluZGluZycsICctaW1hZScsICc8aW5maWxlLm1hZT4nLCAnLW9tYWUnLCAnPG91dGZpbGUubWFlPic=

> <r_lp_tautomer_probability>
1

> <r_epik_Ionization_Penalty>
3.1838e-08

> <r_epik_Ionization_Penalty_Charging>
1.27911e-08

> <r_epik_Ionization_Penalty_Neutral>
1.90469e-08

> <r_epik_State_Penalty>
-0

> <r_epik_Charging_Adjusted_Penalty>
1.27911e-08

> <i_epik_Tot_Q>
0

> <i_epik_Tot_abs_Q>
0

> <r_epik_Metal_State_Penalty>
-0

> <b_epik_Metal_Only>
0

> <s_lp_Force_Field>
OPLS_2005

> <r_lp_Energy>
16.0352

> <b_lp_Chiralities_Consistent>
1

> <s_lp_Variant>
AV-unprocessed.smi:2157-1

> <Gold.Version>
5.8.1

> <Gold.Id.Protein>
6NUR|6NUR_protein|mol2

> <Gold.PLP.Fitness>
47.9000

> <Gold.PLP.PLP>
-45.0695

> <Gold.PLP.part.hbond>
-1.0000

> <Gold.PLP.part.metal>
0.0000

> <Gold.PLP.part.buried>
-3.5149

> <Gold.PLP.part.nonpolar>
-39.8892

> <Gold.PLP.part.repulsive>
0.2013

> <Gold.PLP.ligand.clash>
0.0000

> <Gold.PLP.ligand.torsion>
0.0892

> <Gold.PLP.Chemscore.Hbond>
1.0000

> <Gold.PLP.Chemscore.CHOScore>
0.0000

> <Gold.PLP.Chemscore.Metal>
0.0000

> <Gold.Chemscore.Hbonds>
donor molecule, donor type, donor heavy atom, donor atom, acceptor molecule, acceptor atom, score
      L1  H     7    32       P1  8028  1.00

> <Gold.PLP.Chemscore.Internal.Correction>
0.0089

> <Gold.Rescore>
     Score         DG    S(hbond)    S(metal)    S(lipo)     H(rot)  DE(clash)    DE(int)     intcor
     12.43     -14.23       1.00        0.00      79.73       1.52       0.26       1.54       ----

> <Gold.Chemscore.Fitness>
12.4317

> <Gold.Chemscore.DG>
-14.2309

> <Gold.Chemscore.ZeroCoef>
-5.4800

> <Gold.Chemscore.Hbond>
0.9954

> <Gold.Chemscore.Metal>
0.0000

> <Gold.Chemscore.Lipo>
79.7272

> <Gold.Chemscore.Internal_Hbond>
0.0000

> <Gold.Chemscore.DEClash>
0.2556

> <Gold.Chemscore.DEInternal>
1.5436

> <Gold.Chemscore.Rot>
1.5242

> <Gold.Chemscore.Internal.Correction>
   9.000000E+99

> <Gold.Chemscore.Hbonds>
donor molecule, donor type, donor heavy atom, donor atom, acceptor molecule, acceptor atom, score
      L1  H     7    32       P1  8028  0.94

> <Gold.Chemscore.Hbond.Weighted>
-3.3247

> <Gold.Chemscore.Metal.Weighted>
-0.0000

> <Gold.Chemscore.Lipo.Weighted>
-9.3281

> <Gold.Chemscore.Internal_Hbond.Weighted>
0.0000

> <Gold.Chemscore.DEClash.Weighted>
0.2556

> <Gold.Chemscore.DEInternal.Weighted>
1.5436

> <Gold.Chemscore.Rot.Weighted>
3.9019

> <Gold.Chemscore.Internal.Correction.Weighted>
   9.000000E+99

> <Gold.Protein.RotatedTorsions>
[ 6907 6896 6895 6894 ] final  -68.98 input  -60.11 | X-H torsion
[ 7974 7965 7964 7962 ] final  -87.23 input  175.53 | X-H torsion
[ 8008 7997 7996 7995 ] final   19.59 input   59.86 | X-H torsion
[ 10167 10162 10161 10158 ] final  101.20 input  -65.29 | X-H torsion
[ 10718 10713 10712 10709 ] final -158.35 input   66.30 | X-H torsion
[ 10763 10752 10751 10750 ] final   14.25 input  -60.55 | X-H torsion
[ 11005 11000 10999 10996 ] final -165.48 input  -57.11 | X-H torsion

> <Gold.Protein.ActiveResidues>
 VAL166  LYS551  ARG553  GLY616  TRP617  ASP618  TYR619  PRO620  LYS621  CYS622 
 ASP623  PHE694  ASN695  SER759  ASP760  ASP761  ALA762  ILE779  LEU786  VAL792 
 PHE793  MET794  SER795  GLU796  ALA797  LYS798  CYS799  TRP800  GLU811  SER814 

> <Gold.Protein.RotatedAtoms>
  150.7328  134.5662  159.5867 H   0  0  0  0  0  0  0  0  0  0  0  0  # atno 6907 bound_to 6896
  152.3113  134.7491  160.0345 H   0  0  0  0  0  0  0  0  0  0  0  0  # atno 6908 bound_to 6896
  151.8038  133.3337  159.3571 H   0  0  0  0  0  0  0  0  0  0  0  0  # atno 6909 bound_to 6896
  145.4692  140.9560  143.1926 H   0  0  0  0  0  0  0  0  0  0  0  0  # atno 7974 bound_to 7965
  154.9231  140.3030  155.5206 H   0  0  0  0  0  0  0  0  0  0  0  0  # atno 8008 bound_to 7997
  156.3008  140.2368  156.4219 H   0  0  0  0  0  0  0  0  0  0  0  0  # atno 8009 bound_to 7997
  154.8311  140.0418  157.1466 H   0  0  0  0  0  0  0  0  0  0  0  0  # atno 8010 bound_to 7997
  139.7459  144.6998  151.0505 H   0  0  0  0  0  0  0  0  0  0  0  0  # atno 10167 bound_to 10162
  156.5530  130.8613  151.2786 H   0  0  0  0  0  0  0  0  0  0  0  0  # atno 10718 bound_to 10713
  153.1641  135.6801  153.8701 H   0  0  0  0  0  0  0  0  0  0  0  0  # atno 10763 bound_to 10752
  153.8087  135.3146  155.3399 H   0  0  0  0  0  0  0  0  0  0  0  0  # atno 10764 bound_to 10752
  154.7953  135.4811  154.0236 H   0  0  0  0  0  0  0  0  0  0  0  0  # atno 10765 bound_to 10752
  140.5752  134.5197  157.5169 H   0  0  0  0  0  0  0  0  0  0  0  0  # atno 11005 bound_to 11000
  144.7955  139.6242  143.7094 LP  0  0  0  0  0  0  0  0  0  0  0  0  # atno 17320 bound_to 7965
  146.2406  139.5994  142.9494 LP  0  0  0  0  0  0  0  0  0  0  0  0  # atno 17321 bound_to 7965
  140.7792  143.4868  150.9946 LP  0  0  0  0  0  0  0  0  0  0  0  0  # atno 17342 bound_to 10162
  139.8556  143.7381  152.3176 LP  0  0  0  0  0  0  0  0  0  0  0  0  # atno 17343 bound_to 10162
  157.7384  130.9812  150.2249 LP  0  0  0  0  0  0  0  0  0  0  0  0  # atno 17370 bound_to 10713
  156.2868  130.3740  149.7881 LP  0  0  0  0  0  0  0  0  0  0  0  0  # atno 17371 bound_to 10713
  139.9343  134.7905  156.0846 LP  0  0  0  0  0  0  0  0  0  0  0  0  # atno 17394 bound_to 11000
  141.1031  133.6670  156.2800 LP  0  0  0  0  0  0  0  0  0  0  0  0  # atno 17395 bound_to 11000

$$$$
