AV-unprocessed.smi:2697|AV-procd|sdf|10415|dock10
  -GOLD-   2272014453D 1   1.00000     0.00000
 Structure written by MMmdl.
 32 33  0  0  0  0  0  0  0  0  2 V2000
  154.1625  141.3622  160.5016 C   0  0  0  0  0  0  0  0  0  0  0  0
  153.1023  142.2122  160.0038 N   0  0  0  0  0  0  0  0  0  0  0  0
  152.7936  143.5034  160.3754 C   0  0  0  0  0  0  0  0  0  0  0  0
  151.7200  143.8597  159.6125 C   0  0  0  0  0  0  0  0  0  0  0  0
  151.0486  145.2006  159.6058 C   0  0  0  0  0  0  0  0  0  0  0  0
  149.8894  145.2620  158.9453 N   0  0  0  0  0  0  0  0  0  0  0  0
  151.5586  146.1805  160.1445 O   0  0  0  0  0  0  0  0  0  0  0  0
  151.4239  142.7350  158.7863 C   0  0  0  0  0  0  0  0  0  0  0  0
  150.3549  142.5471  157.7334 C   0  0  2  0  0  0  0  0  0  0  0  0
  149.2910  141.5169  158.1608 C   0  0  0  0  0  0  0  0  0  0  0  0
  148.2316  141.3541  157.0595 C   0  0  0  0  0  0  0  0  0  0  0  0
  148.8871  141.0079  155.7116 C   0  0  0  0  0  0  0  0  0  0  0  0
  149.8996  142.0222  155.3444 N   0  3  0  0  0  0  0  0  0  0  0  0
  150.9601  142.1778  156.3642 C   0  0  0  0  0  0  0  0  0  0  0  0
  152.2768  141.7470  159.0364 N   0  0  0  0  0  0  0  0  0  0  0  0
  154.6226  141.8138  161.3810 H   0  0  0  0  0  0  0  0  0  0  0  0
  154.9224  141.2336  159.7304 H   0  0  0  0  0  0  0  0  0  0  0  0
  153.7600  140.3863  160.7752 H   0  0  0  0  0  0  0  0  0  0  0  0
  153.3562  144.0438  161.1227 H   0  0  0  0  0  0  0  0  0  0  0  0
  149.3792  146.1319  158.8993 H   0  0  0  0  0  0  0  0  0  0  0  0
  149.5254  144.4350  158.4942 H   0  0  0  0  0  0  0  0  0  0  0  0
  149.8248  143.4892  157.6018 H   0  0  0  0  0  0  0  0  0  0  0  0
  149.7582  140.5508  158.3565 H   0  0  0  0  0  0  0  0  0  0  0  0
  148.8157  141.8284  159.0916 H   0  0  0  0  0  0  0  0  0  0  0  0
  147.5197  140.5768  157.3391 H   0  0  0  0  0  0  0  0  0  0  0  0
  147.6589  142.2775  156.9626 H   0  0  0  0  0  0  0  0  0  0  0  0
  149.3625  140.0275  155.7603 H   0  0  0  0  0  0  0  0  0  0  0  0
  148.1329  140.9586  154.9262 H   0  0  0  0  0  0  0  0  0  0  0  0
  150.3253  141.7598  154.4668 H   0  0  0  0  0  0  0  0  0  0  0  0
  151.6530  142.9524  156.0347 H   0  0  0  0  0  0  0  0  0  0  0  0
  151.5274  141.2483  156.4302 H   0  0  0  0  0  0  0  0  0  0  0  0
  149.4351  142.9118  155.2283 H   0  0  0  0  0  0  0  0  0  0  0  0
  1  2  1  0  0  0  0
  1 16  1  0  0  0  0
  1 17  1  0  0  0  0
  1 18  1  0  0  0  0
  2 15  1  0  0  0  0
  2  3  1  0  0  0  0
  3  4  2  0  0  0  0
  3 19  1  0  0  0  0
  4  5  1  0  0  0  0
  4  8  1  0  0  0  0
  5  6  1  0  0  0  0
  5  7  2  0  0  0  0
  6 20  1  0  0  0  0
  6 21  1  0  0  0  0
  8  9  1  0  0  0  0
  8 15  2  0  0  0  0
  9 14  1  0  0  0  0
  9 10  1  0  0  0  0
  9 22  1  0  0  0  0
 10 11  1  0  0  0  0
 10 23  1  0  0  0  0
 10 24  1  0  0  0  0
 11 12  1  0  0  0  0
 11 25  1  0  0  0  0
 11 26  1  0  0  0  0
 12 13  1  0  0  0  0
 12 27  1  0  0  0  0
 12 28  1  0  0  0  0
 13 14  1  0  0  0  0
 13 29  1  0  0  0  0
 13 32  1  0  0  0  0
 14 30  1  0  0  0  0
 14 31  1  0  0  0  0
M  CHG  1  13   1
M  END
> <s_m_source_file>
AV-unprocessed.smi

> <i_m_source_file_index>
2697

> <i_lp_mmshare_version>
43012

> <i_f3d_flags>
0

> <s_epik_input>
W0NIM11uMVtjSF1jKEMoPU8pW05IMl0pYyhuMSlbQ0BASF0yW0NIMl1bQ0gyXVtDSDJdW05IXVtDSDJdMg==

> <s_epik_cmdline>
J2VwaWtfcHl0aG9uJywgJy1waCcsICc3LjAnLCAnLXRuJywgJzgnLCAnLW1hJywgJzIwMCcsICctbWV0YWxfYmluZGluZycsICctaW1hZScsICc8aW5maWxlLm1hZT4nLCAnLW9tYWUnLCAnPG91dGZpbGUubWFlPic=

> <r_lp_tautomer_probability>
1

> <r_epik_Ionization_Penalty>
0.000158942

> <r_epik_Ionization_Penalty_Charging>
0.000157527

> <r_epik_Ionization_Penalty_Neutral>
1.41498e-06

> <r_epik_State_Penalty>
-0

> <r_epik_Charging_Adjusted_Penalty>
0.000157527

> <i_epik_Tot_Q>
1

> <i_epik_Tot_abs_Q>
1

> <r_epik_Metal_State_Penalty>
-0

> <b_epik_Metal_Only>
0

> <s_lp_Force_Field>
OPLS_2005

> <r_lp_Energy>
9.94433

> <b_lp_Chiralities_Consistent>
1

> <s_lp_Variant>
AV-unprocessed.smi:2697-1

> <Gold.Version>
5.8.1

> <Gold.Id.Protein>
6NUR|6NUR_protein|mol2

> <Gold.PLP.Fitness>
39.2165

> <Gold.PLP.PLP>
-33.1703

> <Gold.PLP.part.hbond>
-4.0000

> <Gold.PLP.part.metal>
0.0000

> <Gold.PLP.part.buried>
-4.6733

> <Gold.PLP.part.nonpolar>
-24.0836

> <Gold.PLP.part.repulsive>
0.6842

> <Gold.PLP.ligand.clash>
0.0000

> <Gold.PLP.ligand.torsion>
0.1567

> <Gold.PLP.Chemscore.Hbond>
2.1087

> <Gold.PLP.Chemscore.CHOScore>
0.0000

> <Gold.PLP.Chemscore.Metal>
0.0000

> <Gold.Chemscore.Hbonds>
donor molecule, donor type, donor heavy atom, donor atom, acceptor molecule, acceptor atom, score
      L1  H     6    20       P1  8029  0.10
      L1  H    13    32       P1  8028  2.00

> <Gold.PLP.Chemscore.Internal.Correction>
0.0335

> <Gold.Rescore>
     Score         DG    S(hbond)    S(metal)    S(lipo)     H(rot)  DE(clash)    DE(int)     intcor
     13.18     -14.34       1.00        0.00      69.15       1.00       0.04       1.12       ----

> <Gold.Chemscore.Fitness>
13.1817

> <Gold.Chemscore.DG>
-14.3441

> <Gold.Chemscore.ZeroCoef>
-5.4800

> <Gold.Chemscore.Hbond>
0.9982

> <Gold.Chemscore.Metal>
0.0000

> <Gold.Chemscore.Lipo>
69.1459

> <Gold.Chemscore.Internal_Hbond>
0.0000

> <Gold.Chemscore.DEClash>
0.0412

> <Gold.Chemscore.DEInternal>
1.1212

> <Gold.Chemscore.Rot>
1.0000

> <Gold.Chemscore.Internal.Correction>
   9.000000E+99

> <Gold.Chemscore.Hbonds>
donor molecule, donor type, donor heavy atom, donor atom, acceptor molecule, acceptor atom, score
      L1  H     6    20       P1  8029  0.10
      L1  H    13    32       P1  8028  0.99

> <Gold.Chemscore.Hbond.Weighted>
-3.3340

> <Gold.Chemscore.Metal.Weighted>
-0.0000

> <Gold.Chemscore.Lipo.Weighted>
-8.0901

> <Gold.Chemscore.Internal_Hbond.Weighted>
0.0000

> <Gold.Chemscore.DEClash.Weighted>
0.0412

> <Gold.Chemscore.DEInternal.Weighted>
1.1212

> <Gold.Chemscore.Rot.Weighted>
2.5600

> <Gold.Chemscore.Internal.Correction.Weighted>
   9.000000E+99

> <Gold.Protein.RotatedTorsions>
[ 6907 6896 6895 6894 ] final   71.21 input  -60.11 | X-H torsion
[ 7974 7965 7964 7962 ] final  -20.97 input  175.53 | X-H torsion
[ 8008 7997 7996 7995 ] final  111.42 input   59.86 | X-H torsion
[ 10167 10162 10161 10158 ] final  -76.67 input  -65.29 | X-H torsion
[ 10718 10713 10712 10709 ] final  111.59 input   66.30 | X-H torsion
[ 10763 10752 10751 10750 ] final   77.69 input  -60.55 | X-H torsion
[ 11005 11000 10999 10996 ] final  157.57 input  -57.11 | X-H torsion

> <Gold.Protein.ActiveResidues>
 VAL166  LYS551  ARG553  GLY616  TRP617  ASP618  TYR619  PRO620  LYS621  CYS622 
 ASP623  PHE694  ASN695  SER759  ASP760  ASP761  ALA762  ILE779  LEU786  VAL792 
 PHE793  MET794  SER795  GLU796  ALA797  LYS798  CYS799  TRP800  GLU811  SER814 

> <Gold.Protein.RotatedAtoms>
  152.4796  134.4754  159.9648 H   0  0  0  0  0  0  0  0  0  0  0  0  # atno 6907 bound_to 6896
  151.4763  133.3551  159.2839 H   0  0  0  0  0  0  0  0  0  0  0  0  # atno 6908 bound_to 6896
  150.8859  134.8282  159.7319 H   0  0  0  0  0  0  0  0  0  0  0  0  # atno 6909 bound_to 6896
  146.1759  140.4275  142.8514 H   0  0  0  0  0  0  0  0  0  0  0  0  # atno 7974 bound_to 7965
  156.2122  140.3019  155.9759 H   0  0  0  0  0  0  0  0  0  0  0  0  # atno 8008 bound_to 7997
  155.2694  140.0433  157.3022 H   0  0  0  0  0  0  0  0  0  0  0  0  # atno 8009 bound_to 7997
  154.5716  140.2350  155.8191 H   0  0  0  0  0  0  0  0  0  0  0  0  # atno 8010 bound_to 7997
  140.4837  143.2396  151.8018 H   0  0  0  0  0  0  0  0  0  0  0  0  # atno 10167 bound_to 10162
  157.6437  131.0953  150.6771 H   0  0  0  0  0  0  0  0  0  0  0  0  # atno 10718 bound_to 10713
  153.0817  135.4905  154.8517 H   0  0  0  0  0  0  0  0  0  0  0  0  # atno 10763 bound_to 10752
  154.7160  135.3029  154.9126 H   0  0  0  0  0  0  0  0  0  0  0  0  # atno 10764 bound_to 10752
  153.9805  135.6790  153.4803 H   0  0  0  0  0  0  0  0  0  0  0  0  # atno 10765 bound_to 10752
  140.1782  134.8495  157.2771 H   0  0  0  0  0  0  0  0  0  0  0  0  # atno 11005 bound_to 11000
  144.8236  140.6590  143.6337 LP  0  0  0  0  0  0  0  0  0  0  0  0  # atno 17320 bound_to 7965
  145.4213  139.1563  143.4073 LP  0  0  0  0  0  0  0  0  0  0  0  0  # atno 17321 bound_to 7965
  139.4838  144.4740  151.9390 LP  0  0  0  0  0  0  0  0  0  0  0  0  # atno 17342 bound_to 10162
  140.3826  144.2717  150.5907 LP  0  0  0  0  0  0  0  0  0  0  0  0  # atno 17343 bound_to 10162
  156.7091  130.4646  149.5552 LP  0  0  0  0  0  0  0  0  0  0  0  0  # atno 17370 bound_to 10713
  156.1742  130.6457  151.0874 LP  0  0  0  0  0  0  0  0  0  0  0  0  # atno 17371 bound_to 10713
  140.2298  134.3923  155.7527 LP  0  0  0  0  0  0  0  0  0  0  0  0  # atno 17394 bound_to 11000
  141.2221  133.7209  156.8622 LP  0  0  0  0  0  0  0  0  0  0  0  0  # atno 17395 bound_to 11000

$$$$
