AV-unprocessed.smi:767|AV-procd|sdf|3664|dock4
  -GOLD-   22720 1 73D 1   1.00000     0.00000
 Structure written by MMmdl.
 47 49  0  0  0  0  0  0  0  0  1 V2000
  152.5158  139.0468  156.3763 C   0  0  0  0  0  0  0  0  0  0  0  0
  151.2666  139.3872  155.5912 C   0  0  0  0  0  0  0  0  0  0  0  0
  150.6970  140.6751  155.6682 C   0  0  0  0  0  0  0  0  0  0  0  0
  149.5465  140.9462  154.9033 C   0  0  0  0  0  0  0  0  0  0  0  0
  149.0071  139.9218  154.0981 C   0  0  0  0  0  0  0  0  0  0  0  0
  147.7864  140.1725  153.2281 C   0  0  0  0  0  0  0  0  0  0  0  0
  146.5993  139.2364  153.5303 C   0  0  0  0  0  0  0  0  0  0  0  0
  146.8123  137.8843  153.0173 N   0  0  0  0  0  0  0  0  0  0  0  0
  145.9092  136.8933  153.0513 C   0  0  0  0  0  0  0  0  0  0  0  0
  144.7640  137.0159  153.4869 O   0  0  0  0  0  0  0  0  0  0  0  0
  146.4063  135.7438  152.5772 N   0  0  0  0  0  0  0  0  0  0  0  0
  145.6709  134.4849  152.5787 C   0  0  1  0  0  0  0  0  0  0  0  0
  145.5614  133.8538  151.1916 C   0  0  2  0  0  0  0  0  0  0  0  0
  144.4395  133.5793  150.2549 C   0  0  0  0  0  0  0  0  0  0  0  0
  144.8063  132.1120  149.9055 C   0  0  0  0  0  0  0  0  0  0  0  0
  145.8452  131.7284  150.8392 O   0  0  0  0  0  0  0  0  0  0  0  0
  145.6039  132.5478  151.9644 C   0  0  1  0  0  0  0  0  0  0  0  0
  146.5639  133.2415  152.9515 C   0  0  0  0  0  0  0  0  0  0  0  0
  148.0664  133.2459  152.6043 C   0  0  0  0  0  0  0  0  0  0  0  0
  146.4647  132.7879  154.4085 C   0  0  0  0  0  0  0  0  0  0  0  0
  149.6443  138.6624  154.1067 C   0  0  0  0  0  0  0  0  0  0  0  0
  150.7513  138.3953  154.8323 N   0  0  0  0  0  0  0  0  0  0  0  0
  153.0856  139.9467  156.6102 H   0  0  0  0  0  0  0  0  0  0  0  0
  153.1627  138.3778  155.8075 H   0  0  0  0  0  0  0  0  0  0  0  0
  152.2492  138.5560  157.3126 H   0  0  0  0  0  0  0  0  0  0  0  0
  151.1367  141.4425  156.2881 H   0  0  0  0  0  0  0  0  0  0  0  0
  149.0957  141.9273  154.9287 H   0  0  0  0  0  0  0  0  0  0  0  0
  147.4758  141.2100  153.3552 H   0  0  0  0  0  0  0  0  0  0  0  0
  148.0704  140.0686  152.1802 H   0  0  0  0  0  0  0  0  0  0  0  0
  146.4101  139.2126  154.6047 H   0  0  0  0  0  0  0  0  0  0  0  0
  145.6932  139.6377  153.0761 H   0  0  0  0  0  0  0  0  0  0  0  0
  147.7254  137.6814  152.6375 H   0  0  0  0  0  0  0  0  0  0  0  0
  147.3564  135.7270  152.2369 H   0  0  0  0  0  0  0  0  0  0  0  0
  144.7130  134.5252  153.1058 H   0  0  0  0  0  0  0  0  0  0  0  0
  146.4694  134.0442  150.6150 H   0  0  0  0  0  0  0  0  0  0  0  0
  143.4688  133.6528  150.7474 H   0  0  0  0  0  0  0  0  0  0  0  0
  144.4471  134.2320  149.3819 H   0  0  0  0  0  0  0  0  0  0  0  0
  143.9385  131.4599  150.0119 H   0  0  0  0  0  0  0  0  0  0  0  0
  145.1792  132.0164  148.8855 H   0  0  0  0  0  0  0  0  0  0  0  0
  144.6522  132.2811  152.4385 H   0  0  0  0  0  0  0  0  0  0  0  0
  148.5167  132.2707  152.7917 H   0  0  0  0  0  0  0  0  0  0  0  0
  148.6070  133.9720  153.2098 H   0  0  0  0  0  0  0  0  0  0  0  0
  148.2776  133.4857  151.5639 H   0  0  0  0  0  0  0  0  0  0  0  0
  146.8619  131.7816  154.5446 H   0  0  0  0  0  0  0  0  0  0  0  0
  145.4311  132.7764  154.7548 H   0  0  0  0  0  0  0  0  0  0  0  0
  147.0171  133.4536  155.0726 H   0  0  0  0  0  0  0  0  0  0  0  0
  149.2660  137.8521  153.5012 H   0  0  0  0  0  0  0  0  0  0  0  0
  1  2  1  0  0  0  0
  1 23  1  0  0  0  0
  1 24  1  0  0  0  0
  1 25  1  0  0  0  0
  2 22  1  0  0  0  0
  2  3  2  0  0  0  0
  3  4  1  0  0  0  0
  3 26  1  0  0  0  0
  4  5  2  0  0  0  0
  4 27  1  0  0  0  0
  5  6  1  0  0  0  0
  5 21  1  0  0  0  0
  6  7  1  0  0  0  0
  6 28  1  0  0  0  0
  6 29  1  0  0  0  0
  7  8  1  0  0  0  0
  7 30  1  0  0  0  0
  7 31  1  0  0  0  0
  8  9  1  0  0  0  0
  8 32  1  0  0  0  0
  9 10  2  0  0  0  0
  9 11  1  0  0  0  0
 11 12  1  0  0  0  0
 11 33  1  0  0  0  0
 12 18  1  0  0  0  0
 12 13  1  0  0  0  0
 12 34  1  0  0  0  0
 13 17  1  0  0  0  0
 13 14  1  0  0  0  0
 13 35  1  0  0  0  0
 14 15  1  0  0  0  0
 14 36  1  0  0  0  0
 14 37  1  0  0  0  0
 15 16  1  0  0  0  0
 15 38  1  0  0  0  0
 15 39  1  0  0  0  0
 16 17  1  0  0  0  0
 17 18  1  0  0  0  0
 17 40  1  0  0  0  0
 18 19  1  0  0  0  0
 18 20  1  0  0  0  0
 19 41  1  0  0  0  0
 19 42  1  0  0  0  0
 19 43  1  0  0  0  0
 20 44  1  0  0  0  0
 20 45  1  0  0  0  0
 20 46  1  0  0  0  0
 21 22  2  0  0  0  0
 21 47  1  0  0  0  0
M  END
> <s_m_source_file>
AV-unprocessed.smi

> <i_m_source_file_index>
767

> <i_lp_mmshare_version>
43012

> <i_f3d_flags>
0

> <s_epik_input>
W0NIM11jMVtjSF1bY0hdYyhbY0hdbjEpW0NIMl1bQ0gyXVtOSF1DKD1PKVtOSF1bQ0BIXTJDKFtDSDNdKShbQ0gzXSlbQ0BIXShbQ0BASF0yMylPW0NIMl1bQ0gyXTM=

> <s_epik_cmdline>
J2VwaWtfcHl0aG9uJywgJy1waCcsICc3LjAnLCAnLXRuJywgJzgnLCAnLW1hJywgJzIwMCcsICctbWV0YWxfYmluZGluZycsICctaW1hZScsICc8aW5maWxlLm1hZT4nLCAnLW9tYWUnLCAnPG91dGZpbGUubWFlPic=

> <r_epik_Ionization_Penalty>
0.0567523

> <r_epik_Ionization_Penalty_Charging>
0

> <r_epik_Ionization_Penalty_Neutral>
0.0567523

> <r_epik_State_Penalty>
0.0489186

> <r_epik_Charging_Adjusted_Penalty>
0.0489186

> <i_epik_Tot_Q>
0

> <i_epik_Tot_abs_Q>
0

> <r_epik_Metal_State_Penalty>
0.044622

> <b_epik_Metal_Only>
0

> <s_lp_Force_Field>
OPLS_2005

> <r_lp_Energy>
55.1366

> <b_lp_Chiralities_Consistent>
1

> <s_lp_Variant>
AV-unprocessed.smi:767-8

> <Gold.Version>
5.8.1

> <Gold.Id.Protein>
6NUR|6NUR_protein|mol2

> <Gold.PLP.Fitness>
43.0309

> <Gold.PLP.PLP>
-34.4274

> <Gold.PLP.part.hbond>
-2.0000

> <Gold.PLP.part.metal>
0.0000

> <Gold.PLP.part.buried>
1.3080

> <Gold.PLP.part.nonpolar>
-33.4038

> <Gold.PLP.part.repulsive>
0.4278

> <Gold.PLP.ligand.clash>
0.0000

> <Gold.PLP.ligand.torsion>
0.2175

> <Gold.PLP.Chemscore.Hbond>
1.9199

> <Gold.PLP.Chemscore.CHOScore>
1.0000

> <Gold.PLP.Chemscore.Metal>
0.0000

> <Gold.Chemscore.Hbonds>
donor molecule, donor type, donor heavy atom, donor atom, acceptor molecule, acceptor atom, score
      L1  H     8    32       P1  7948  0.90
      L1  H    11    33       P1  7948  1.00
      L1  C    21    47       P1  7948  1.00

> <Gold.PLP.Chemscore.Internal.Correction>
0.2788

> <Gold.Rescore>
     Score         DG    S(hbond)    S(metal)    S(lipo)     H(rot)  DE(clash)    DE(int)     intcor
     18.63     -18.99       1.89        0.00      93.32       1.45       0.10       0.26       ----

> <Gold.Chemscore.Fitness>
18.6349

> <Gold.Chemscore.DG>
-18.9860

> <Gold.Chemscore.ZeroCoef>
-5.4800

> <Gold.Chemscore.Hbond>
1.8858

> <Gold.Chemscore.Metal>
0.0000

> <Gold.Chemscore.Lipo>
93.3216

> <Gold.Chemscore.Internal_Hbond>
0.0000

> <Gold.Chemscore.DEClash>
0.0959

> <Gold.Chemscore.DEInternal>
0.2553

> <Gold.Chemscore.Rot>
1.4497

> <Gold.Chemscore.Internal.Correction>
   9.000000E+99

> <Gold.Chemscore.Hbonds>
donor molecule, donor type, donor heavy atom, donor atom, acceptor molecule, acceptor atom, score
      L1  H     8    32       P1  7948  0.83
      L1  H    11    33       P1  7948  1.00

> <Gold.Chemscore.Hbond.Weighted>
-6.2986

> <Gold.Chemscore.Metal.Weighted>
-0.0000

> <Gold.Chemscore.Lipo.Weighted>
-10.9186

> <Gold.Chemscore.Internal_Hbond.Weighted>
0.0000

> <Gold.Chemscore.DEClash.Weighted>
0.0959

> <Gold.Chemscore.DEInternal.Weighted>
0.2553

> <Gold.Chemscore.Rot.Weighted>
3.7112

> <Gold.Chemscore.Internal.Correction.Weighted>
   9.000000E+99

> <Gold.Protein.RotatedTorsions>
[ 6907 6896 6895 6894 ] final   47.38 input  -60.11 | X-H torsion
[ 7974 7965 7964 7962 ] final -129.55 input  175.53 | X-H torsion
[ 8008 7997 7996 7995 ] final   76.61 input   59.86 | X-H torsion
[ 10167 10162 10161 10158 ] final   85.30 input  -65.29 | X-H torsion
[ 10718 10713 10712 10709 ] final   55.84 input   66.30 | X-H torsion
[ 10763 10752 10751 10750 ] final  100.10 input  -60.55 | X-H torsion
[ 11005 11000 10999 10996 ] final   -6.14 input  -57.11 | X-H torsion

> <Gold.Protein.ActiveResidues>
 VAL166  LYS551  ARG553  GLY616  TRP617  ASP618  TYR619  PRO620  LYS621  CYS622 
 ASP623  PHE694  ASN695  SER759  ASP760  ASP761  ALA762  ILE779  LEU786  VAL792 
 PHE793  MET794  SER795  GLU796  ALA797  LYS798  CYS799  TRP800  GLU811  SER814 

> <Gold.Protein.RotatedAtoms>
  152.2673  134.7970  160.0420 H   0  0  0  0  0  0  0  0  0  0  0  0  # atno 6907 bound_to 6896
  151.8595  133.3449  159.3707 H   0  0  0  0  0  0  0  0  0  0  0  0  # atno 6908 bound_to 6896
  150.7138  134.5147  159.5669 H   0  0  0  0  0  0  0  0  0  0  0  0  # atno 6909 bound_to 6896
  144.9560  140.7396  143.4758 H   0  0  0  0  0  0  0  0  0  0  0  0  # atno 7974 bound_to 7965
  155.8297  140.3466  155.5565 H   0  0  0  0  0  0  0  0  0  0  0  0  # atno 8008 bound_to 7997
  155.8255  140.0919  157.1844 H   0  0  0  0  0  0  0  0  0  0  0  0  # atno 8009 bound_to 7997
  154.4004  140.1422  156.3538 H   0  0  0  0  0  0  0  0  0  0  0  0  # atno 8010 bound_to 7997
  139.8992  144.6340  150.8655 H   0  0  0  0  0  0  0  0  0  0  0  0  # atno 10167 bound_to 10162
  157.5380  130.8677  149.8781 H   0  0  0  0  0  0  0  0  0  0  0  0  # atno 10718 bound_to 10713
  153.3096  135.4090  155.1324 H   0  0  0  0  0  0  0  0  0  0  0  0  # atno 10763 bound_to 10752
  154.8572  135.3561  154.5741 H   0  0  0  0  0  0  0  0  0  0  0  0  # atno 10764 bound_to 10752
  153.6169  135.7066  153.5384 H   0  0  0  0  0  0  0  0  0  0  0  0  # atno 10765 bound_to 10752
  140.6988  133.9007  155.8669 H   0  0  0  0  0  0  0  0  0  0  0  0  # atno 11005 bound_to 11000
  145.2771  139.1932  143.4811 LP  0  0  0  0  0  0  0  0  0  0  0  0  # atno 17320 bound_to 7965
  146.3337  140.2727  142.8606 LP  0  0  0  0  0  0  0  0  0  0  0  0  # atno 17321 bound_to 7965
  140.7710  143.3450  151.2130 LP  0  0  0  0  0  0  0  0  0  0  0  0  # atno 17342 bound_to 10162
  139.7041  143.9485  152.2918 LP  0  0  0  0  0  0  0  0  0  0  0  0  # atno 17343 bound_to 10162
  156.0474  130.3725  150.1285 LP  0  0  0  0  0  0  0  0  0  0  0  0  # atno 17370 bound_to 10713
  156.9466  130.9761  151.3506 LP  0  0  0  0  0  0  0  0  0  0  0  0  # atno 17371 bound_to 10713
  141.0181  134.0928  157.4150 LP  0  0  0  0  0  0  0  0  0  0  0  0  # atno 17394 bound_to 11000
  139.8902  135.0111  156.6725 LP  0  0  0  0  0  0  0  0  0  0  0  0  # atno 17395 bound_to 11000

$$$$
