AV-unprocessed.smi:546|AV-procd|sdf|2887|dock9
  -GOLD-   2262023383D 1   1.00000     0.00000
 Structure written by MMmdl.
 51 53  0  0  0  0  0  0  0  0  2 V2000
  148.7812  134.3291  154.7902 C   0  0  0  0  0  0  0  0  0  0  0  0
  147.6527  135.3499  154.9490 C   0  0  0  0  0  0  0  0  0  0  0  0
  147.5667  135.7153  156.3141 O   0  0  0  0  0  0  0  0  0  0  0  0
  146.8349  136.9099  156.5266 C   0  0  0  0  0  0  0  0  0  0  0  0
  147.0007  137.3826  157.9788 C   0  0  0  0  0  0  0  0  0  0  0  0
  148.3982  137.3633  158.3983 N   0  0  0  0  0  0  0  0  0  0  0  0
  148.9173  136.7654  159.5003 C   0  0  0  0  0  0  0  0  0  0  0  0
  148.1040  136.1073  160.4191 N   0  0  0  0  0  0  0  0  0  0  0  0
  147.9397  134.6562  160.3786 C   0  0  0  0  0  0  0  0  0  0  0  0
  147.7486  134.0407  161.7759 C   0  0  2  0  0  0  0  0  0  0  0  0
  147.6178  132.5135  161.7002 C   0  0  0  0  0  0  0  0  0  0  0  0
  146.5252  134.6762  162.4551 C   0  0  0  0  0  0  0  0  0  0  0  0
  146.6333  136.2101  162.4638 C   0  0  1  0  0  0  0  0  0  0  0  0
  147.6135  136.7242  163.5306 C   0  0  0  0  0  0  0  0  0  0  0  0
  146.9441  136.7425  161.0460 C   0  0  0  0  0  0  0  0  0  0  0  0
  150.2385  136.8865  159.6380 N   0  0  0  0  0  0  0  0  0  0  0  0
  150.5912  137.6336  158.5237 C   0  0  0  0  0  0  0  0  0  0  0  0
  149.5046  137.9389  157.7650 C   0  0  0  0  0  0  0  0  0  0  0  0
  149.5710  138.7335  156.5186 C   0  0  0  0  0  0  0  0  0  0  0  0
  148.5566  138.9981  155.8764 O   0  0  0  0  0  0  0  0  0  0  0  0
  150.8540  139.1071  156.2132 N   0  5  0  0  0  0  0  0  0  0  0  0
  151.9821  138.8175  156.9508 C   0  0  0  0  0  0  0  0  0  0  0  0
  153.0983  139.1964  156.5953 O   0  0  0  0  0  0  0  0  0  0  0  0
  151.8698  138.0911  158.1092 N   0  0  0  0  0  0  0  0  0  0  0  0
  153.0187  137.7472  158.9526 C   0  0  0  0  0  0  0  0  0  0  0  0
  148.8814  134.0158  153.7511 H   0  0  0  0  0  0  0  0  0  0  0  0
  148.5903  133.4402  155.3920 H   0  0  0  0  0  0  0  0  0  0  0  0
  149.7354  134.7494  155.1083 H   0  0  0  0  0  0  0  0  0  0  0  0
  147.8522  136.2295  154.3354 H   0  0  0  0  0  0  0  0  0  0  0  0
  146.7097  134.9162  154.6133 H   0  0  0  0  0  0  0  0  0  0  0  0
  147.1754  137.6859  155.8400 H   0  0  0  0  0  0  0  0  0  0  0  0
  145.7817  136.7251  156.3187 H   0  0  0  0  0  0  0  0  0  0  0  0
  146.5954  138.3847  158.1070 H   0  0  0  0  0  0  0  0  0  0  0  0
  146.4182  136.7493  158.6477 H   0  0  0  0  0  0  0  0  0  0  0  0
  147.0902  134.4152  159.7380 H   0  0  0  0  0  0  0  0  0  0  0  0
  148.8185  134.2179  159.9038 H   0  0  0  0  0  0  0  0  0  0  0  0
  148.6354  134.2622  162.3709 H   0  0  0  0  0  0  0  0  0  0  0  0
  146.7492  132.2181  161.1107 H   0  0  0  0  0  0  0  0  0  0  0  0
  147.5095  132.0790  162.6944 H   0  0  0  0  0  0  0  0  0  0  0  0
  148.5001  132.0675  161.2402 H   0  0  0  0  0  0  0  0  0  0  0  0
  145.6233  134.3869  161.9136 H   0  0  0  0  0  0  0  0  0  0  0  0
  146.4066  134.2956  163.4703 H   0  0  0  0  0  0  0  0  0  0  0  0
  145.6543  136.6001  162.7453 H   0  0  0  0  0  0  0  0  0  0  0  0
  148.6372  136.4125  163.3280 H   0  0  0  0  0  0  0  0  0  0  0  0
  147.3457  136.3504  164.5191 H   0  0  0  0  0  0  0  0  0  0  0  0
  147.5983  137.8128  163.5819 H   0  0  0  0  0  0  0  0  0  0  0  0
  147.0996  137.8215  161.0802 H   0  0  0  0  0  0  0  0  0  0  0  0
  146.0814  136.5808  160.3985 H   0  0  0  0  0  0  0  0  0  0  0  0
  153.9661  138.1715  158.6192 H   0  0  0  0  0  0  0  0  0  0  0  0
  153.1395  136.6643  158.9888 H   0  0  0  0  0  0  0  0  0  0  0  0
  152.8498  138.0989  159.9708 H   0  0  0  0  0  0  0  0  0  0  0  0
  1  2  1  0  0  0  0
  1 26  1  0  0  0  0
  1 27  1  0  0  0  0
  1 28  1  0  0  0  0
  2  3  1  0  0  0  0
  2 29  1  0  0  0  0
  2 30  1  0  0  0  0
  3  4  1  0  0  0  0
  4  5  1  0  0  0  0
  4 31  1  0  0  0  0
  4 32  1  0  0  0  0
  5  6  1  0  0  0  0
  5 33  1  0  0  0  0
  5 34  1  0  0  0  0
  6 18  1  0  0  0  0
  6  7  1  0  0  0  0
  7  8  1  0  0  0  0
  7 16  2  0  0  0  0
  8 15  1  0  0  0  0
  8  9  1  0  0  0  0
  9 10  1  0  0  0  0
  9 35  1  0  0  0  0
  9 36  1  0  0  0  0
 10 11  1  0  0  0  0
 10 12  1  0  0  0  0
 10 37  1  0  0  0  0
 11 38  1  0  0  0  0
 11 39  1  0  0  0  0
 11 40  1  0  0  0  0
 12 13  1  0  0  0  0
 12 41  1  0  0  0  0
 12 42  1  0  0  0  0
 13 14  1  0  0  0  0
 13 15  1  0  0  0  0
 13 43  1  0  0  0  0
 14 44  1  0  0  0  0
 14 45  1  0  0  0  0
 14 46  1  0  0  0  0
 15 47  1  0  0  0  0
 15 48  1  0  0  0  0
 16 17  1  0  0  0  0
 17 24  1  0  0  0  0
 17 18  2  0  0  0  0
 18 19  1  0  0  0  0
 19 20  2  0  0  0  0
 19 21  1  0  0  0  0
 21 22  1  0  0  0  0
 22 23  2  0  0  0  0
 22 24  1  0  0  0  0
 24 25  1  0  0  0  0
 25 49  1  0  0  0  0
 25 50  1  0  0  0  0
 25 51  1  0  0  0  0
M  CHG  1  21  -1
M  END
> <s_m_source_file>
AV-unprocessed.smi

> <i_m_source_file_index>
546

> <i_lp_mmshare_version>
43012

> <i_f3d_flags>
0

> <s_epik_input>
W0NIM11uMWMoPU8pW25IXWMoPU8pYyhjMTIpbihbQ0gyXVtDSDJdT1tDSDJdW0NIM10pYyhuMilOM1tDSDJdW0NAQEhdKFtDSDNdKVtDSDJdW0NAQEhdKFtDSDNdKVtDSDJdMw==

> <s_epik_cmdline>
J2VwaWtfcHl0aG9uJywgJy1waCcsICc3LjAnLCAnLXRuJywgJzgnLCAnLW1hJywgJzIwMCcsICctbWV0YWxfYmluZGluZycsICctaW1hZScsICc8aW5maWxlLm1hZT4nLCAnLW9tYWUnLCAnPG91dGZpbGUubWFlPic=

> <r_lp_tautomer_probability>
1

> <r_epik_Ionization_Penalty>
5.12825

> <r_epik_Ionization_Penalty_Charging>
0.0743105

> <r_epik_Ionization_Penalty_Neutral>
5.05394

> <r_epik_State_Penalty>
5.04406

> <r_epik_Charging_Adjusted_Penalty>
5.11837

> <i_epik_Tot_Q>
-1

> <i_epik_Tot_abs_Q>
1

> <r_epik_Metal_State_Penalty>
1.15122

> <b_epik_Metal_Only>
1

> <s_lp_Force_Field>
OPLS_2005

> <r_lp_Energy>
46.3243

> <b_lp_Chiralities_Consistent>
1

> <s_lp_Variant>
AV-unprocessed.smi:546-5

> <Gold.Version>
5.8.1

> <Gold.Id.Protein>
6NUR|6NUR_protein|mol2

> <Gold.PLP.Fitness>
37.6553

> <Gold.PLP.PLP>
-33.6063

> <Gold.PLP.part.hbond>
-1.9882

> <Gold.PLP.part.metal>
0.0000

> <Gold.PLP.part.buried>
-5.4148

> <Gold.PLP.part.nonpolar>
-27.0272

> <Gold.PLP.part.repulsive>
0.0124

> <Gold.PLP.ligand.clash>
0.0000

> <Gold.PLP.ligand.torsion>
1.4242

> <Gold.PLP.Chemscore.Hbond>
2.0000

> <Gold.PLP.Chemscore.CHOScore>
0.0000

> <Gold.PLP.Chemscore.Metal>
0.0000

> <Gold.Chemscore.Hbonds>
donor molecule, donor type, donor heavy atom, donor atom, acceptor molecule, acceptor atom, score
      P1  H  6896  6907       L1    16  0.98
      P1  H  7997  8010       L1    23  1.00

> <Gold.PLP.Chemscore.Internal.Correction>
0.8974

> <Gold.Rescore>
     Score         DG    S(hbond)    S(metal)    S(lipo)     H(rot)  DE(clash)    DE(int)     intcor
     14.58     -16.09       1.94        0.00      68.61       1.52       0.03       1.48       ----

> <Gold.Chemscore.Fitness>
14.5816

> <Gold.Chemscore.DG>
-16.0901

> <Gold.Chemscore.ZeroCoef>
-5.4800

> <Gold.Chemscore.Hbond>
1.9389

> <Gold.Chemscore.Metal>
0.0000

> <Gold.Chemscore.Lipo>
68.6056

> <Gold.Chemscore.Internal_Hbond>
0.0000

> <Gold.Chemscore.DEClash>
0.0303

> <Gold.Chemscore.DEInternal>
1.4781

> <Gold.Chemscore.Rot>
1.5206

> <Gold.Chemscore.Internal.Correction>
   9.000000E+99

> <Gold.Chemscore.Hbonds>
donor molecule, donor type, donor heavy atom, donor atom, acceptor molecule, acceptor atom, score
      P1  H  6896  6907       L1    16  0.77
      P1  H  7997  8010       L1    23  0.94

> <Gold.Chemscore.Hbond.Weighted>
-6.4759

> <Gold.Chemscore.Metal.Weighted>
-0.0000

> <Gold.Chemscore.Lipo.Weighted>
-8.0269

> <Gold.Chemscore.Internal_Hbond.Weighted>
0.0000

> <Gold.Chemscore.DEClash.Weighted>
0.0303

> <Gold.Chemscore.DEInternal.Weighted>
1.4781

> <Gold.Chemscore.Rot.Weighted>
3.8926

> <Gold.Chemscore.Internal.Correction.Weighted>
   9.000000E+99

> <Gold.Protein.RotatedTorsions>
[ 6907 6896 6895 6894 ] final  -18.67 input  -60.11 | X-H torsion
[ 7974 7965 7964 7962 ] final  135.15 input  175.53 | X-H torsion
[ 8008 7997 7996 7995 ] final   70.95 input   59.86 | X-H torsion
[ 10167 10162 10161 10158 ] final -112.90 input  -65.29 | X-H torsion
[ 10718 10713 10712 10709 ] final  146.86 input   66.30 | X-H torsion
[ 10763 10752 10751 10750 ] final    4.03 input  -60.55 | X-H torsion
[ 11005 11000 10999 10996 ] final  -51.93 input  -57.11 | X-H torsion

> <Gold.Protein.ActiveResidues>
 VAL166  LYS551  ARG553  GLY616  TRP617  ASP618  TYR619  PRO620  LYS621  CYS622 
 ASP623  PHE694  ASN695  SER759  ASP760  ASP761  ALA762  ILE779  LEU786  VAL792 
 PHE793  MET794  SER795  GLU796  ALA797  LYS798  CYS799  TRP800  GLU811  SER814 

> <Gold.Protein.RotatedAtoms>
  151.2747  135.0695  159.9147 H   0  0  0  0  0  0  0  0  0  0  0  0  # atno 6907 bound_to 6896
  152.5344  134.0093  159.7941 H   0  0  0  0  0  0  0  0  0  0  0  0  # atno 6908 bound_to 6896
  151.0337  133.5717  159.2689 H   0  0  0  0  0  0  0  0  0  0  0  0  # atno 6909 bound_to 6896
  144.9692  139.4625  143.5441 H   0  0  0  0  0  0  0  0  0  0  0  0  # atno 7974 bound_to 7965
  155.7466  140.3489  155.5130 H   0  0  0  0  0  0  0  0  0  0  0  0  # atno 8008 bound_to 7997
  155.9044  140.1039  157.1347 H   0  0  0  0  0  0  0  0  0  0  0  0  # atno 8009 bound_to 7997
  154.4048  140.1280  156.4464 H   0  0  0  0  0  0  0  0  0  0  0  0  # atno 8010 bound_to 7997
  140.1177  143.4471  152.1712 H   0  0  0  0  0  0  0  0  0  0  0  0  # atno 10167 bound_to 10162
  157.3281  131.0915  151.1186 H   0  0  0  0  0  0  0  0  0  0  0  0  # atno 10718 bound_to 10713
  153.2761  135.6936  153.7431 H   0  0  0  0  0  0  0  0  0  0  0  0  # atno 10763 bound_to 10752
  153.6436  135.3389  155.3080 H   0  0  0  0  0  0  0  0  0  0  0  0  # atno 10764 bound_to 10752
  154.8480  135.4437  154.1800 H   0  0  0  0  0  0  0  0  0  0  0  0  # atno 10765 bound_to 10752
  141.0898  133.6635  156.3950 H   0  0  0  0  0  0  0  0  0  0  0  0  # atno 11005 bound_to 11000
  146.3377  139.8892  142.8812 LP  0  0  0  0  0  0  0  0  0  0  0  0  # atno 17320 bound_to 7965
  145.2585  141.0069  143.3840 LP  0  0  0  0  0  0  0  0  0  0  0  0  # atno 17321 bound_to 7965
  139.5585  144.7390  151.4223 LP  0  0  0  0  0  0  0  0  0  0  0  0  # atno 17342 bound_to 10162
  140.6890  143.7906  150.7227 LP  0  0  0  0  0  0  0  0  0  0  0  0  # atno 17343 bound_to 10162
  157.2445  130.6585  149.5904 LP  0  0  0  0  0  0  0  0  0  0  0  0  # atno 17370 bound_to 10713
  155.9692  130.4558  150.5901 LP  0  0  0  0  0  0  0  0  0  0  0  0  # atno 17371 bound_to 10713
  140.5279  134.6240  157.5340 LP  0  0  0  0  0  0  0  0  0  0  0  0  # atno 17394 bound_to 11000
  139.9721  134.7275  156.0020 LP  0  0  0  0  0  0  0  0  0  0  0  0  # atno 17395 bound_to 11000

$$$$
