AV-unprocessed.smi:212|AV-procd|sdf|1622|dock9
  -GOLD-   2262019563D 1   1.00000     0.00000
 Structure written by MMmdl.
 65 68  0  0  0  0  0  0  0  0  2 V2000
  147.7508  133.0051  153.6818 C   0  0  0  0  0  0  0  0  0  0  0  0
  147.3019  134.3925  153.1927 C   0  0  1  0  0  0  0  0  0  0  0  0
  146.5406  134.3199  151.8512 C   0  0  0  0  0  0  0  0  0  0  0  0
  145.1776  133.7512  152.0205 N   0  3  2  0  0  0  0  0  0  0  0  0
  144.4598  133.5590  150.7325 C   0  0  0  0  0  0  0  0  0  0  0  0
  144.5847  132.1164  150.1881 C   0  0  0  0  0  0  0  0  0  0  0  0
  145.8503  131.9871  149.3241 C   0  0  0  0  0  0  0  0  0  0  0  0
  144.5984  131.0662  151.3144 C   0  0  0  0  0  0  0  0  0  0  0  0
  143.4893  131.8420  149.3377 O   0  0  0  0  0  0  0  0  0  0  0  0
  144.3824  134.4955  153.0308 C   0  0  0  0  0  0  0  0  0  0  0  0
  145.1295  134.5721  154.3746 C   0  0  0  0  0  0  0  0  0  0  0  0
  146.4901  135.0819  154.1981 N   0  0  0  0  0  0  0  0  0  0  0  0
  146.7101  136.4168  154.3270 C   0  0  0  0  0  0  0  0  0  0  0  0
  145.6880  137.2945  154.1422 N   0  0  0  0  0  0  0  0  0  0  0  0
  145.8965  138.6092  154.2566 C   0  0  0  0  0  0  0  0  0  0  0  0
  147.0282  139.2511  154.5502 N   0  0  0  0  0  0  0  0  0  0  0  0
  148.0560  138.3774  154.7481 C   0  0  0  0  0  0  0  0  0  0  0  0
  147.9858  136.9587  154.6529 C   0  0  0  0  0  0  0  0  0  0  0  0
  149.2317  136.4047  154.9241 N   0  0  0  0  0  0  0  0  0  0  0  0
  149.9948  137.4363  155.1639 C   0  0  0  0  0  0  0  0  0  0  0  0
  149.3667  138.6590  155.0916 N   0  0  0  0  0  0  0  0  0  0  0  0
  149.9716  139.9596  155.3239 C   0  0  0  0  0  0  0  0  0  0  0  0
  150.8820  139.9999  156.5766 C   0  0  1  0  0  0  0  0  0  0  0  0
  152.2066  139.2467  156.3072 C   0  0  0  0  0  0  0  0  0  0  0  0
  152.7587  139.6391  155.0677 O   0  0  0  0  0  0  0  0  0  0  0  0
  151.0872  141.4400  157.1285 C   0  0  2  0  0  0  0  0  0  0  0  0
  152.0585  141.5706  158.2995 C   0  0  0  0  0  0  0  0  0  0  0  0
  151.4720  142.7270  159.0970 C   0  0  0  0  0  0  0  0  0  0  0  0
  150.0776  142.5028  158.9814 O   0  0  0  0  0  0  0  0  0  0  0  0
  149.8110  142.1379  157.6331 C   0  0  0  0  0  0  0  0  0  0  0  0
  148.4048  132.5280  152.9516 H   0  0  0  0  0  0  0  0  0  0  0  0
  146.9071  132.3361  153.8518 H   0  0  0  0  0  0  0  0  0  0  0  0
  148.3073  133.0843  154.6162 H   0  0  0  0  0  0  0  0  0  0  0  0
  148.2125  134.9610  153.0041 H   0  0  0  0  0  0  0  0  0  0  0  0
  146.4528  135.3204  151.4244 H   0  0  0  0  0  0  0  0  0  0  0  0
  147.1088  133.7223  151.1371 H   0  0  0  0  0  0  0  0  0  0  0  0
  143.4111  133.8423  150.8389 H   0  0  0  0  0  0  0  0  0  0  0  0
  144.8658  134.2397  149.9825 H   0  0  0  0  0  0  0  0  0  0  0  0
  146.7497  132.1776  149.9107 H   0  0  0  0  0  0  0  0  0  0  0  0
  145.8429  132.6968  148.4957 H   0  0  0  0  0  0  0  0  0  0  0  0
  145.9434  130.9873  148.8982 H   0  0  0  0  0  0  0  0  0  0  0  0
  145.4200  131.2457  152.0088 H   0  0  0  0  0  0  0  0  0  0  0  0
  144.7211  130.0587  150.9148 H   0  0  0  0  0  0  0  0  0  0  0  0
  143.6722  131.0740  151.8902 H   0  0  0  0  0  0  0  0  0  0  0  0
  142.7067  132.2033  149.7267 H   0  0  0  0  0  0  0  0  0  0  0  0
  144.1752  135.4991  152.6569 H   0  0  0  0  0  0  0  0  0  0  0  0
  143.4170  134.0129  153.1814 H   0  0  0  0  0  0  0  0  0  0  0  0
  144.5728  135.1800  155.0890 H   0  0  0  0  0  0  0  0  0  0  0  0
  145.1893  133.5780  154.8177 H   0  0  0  0  0  0  0  0  0  0  0  0
  145.0333  139.2366  154.0901 H   0  0  0  0  0  0  0  0  0  0  0  0
  151.0415  137.3337  155.4118 H   0  0  0  0  0  0  0  0  0  0  0  0
  150.5397  140.2241  154.4314 H   0  0  0  0  0  0  0  0  0  0  0  0
  149.1788  140.7032  155.4128 H   0  0  0  0  0  0  0  0  0  0  0  0
  150.3623  139.4545  157.3662 H   0  0  0  0  0  0  0  0  0  0  0  0
  152.9390  139.4421  157.0906 H   0  0  0  0  0  0  0  0  0  0  0  0
  152.0577  138.1683  156.2747 H   0  0  0  0  0  0  0  0  0  0  0  0
  152.9927  138.8617  154.5836 H   0  0  0  0  0  0  0  0  0  0  0  0
  151.4638  142.0708  156.3227 H   0  0  0  0  0  0  0  0  0  0  0  0
  152.0634  140.6761  158.9208 H   0  0  0  0  0  0  0  0  0  0  0  0
  153.0834  141.7611  157.9820 H   0  0  0  0  0  0  0  0  0  0  0  0
  151.7970  142.7312  160.1375 H   0  0  0  0  0  0  0  0  0  0  0  0
  151.7314  143.6870  158.6472 H   0  0  0  0  0  0  0  0  0  0  0  0
  149.6200  143.0418  157.0526 H   0  0  0  0  0  0  0  0  0  0  0  0
  148.9157  141.5198  157.5716 H   0  0  0  0  0  0  0  0  0  0  0  0
  145.3153  132.8240  152.3967 H   0  0  0  0  0  0  0  0  0  0  0  0
  1  2  1  0  0  0  0
  1 31  1  0  0  0  0
  1 32  1  0  0  0  0
  1 33  1  0  0  0  0
  2 12  1  0  0  0  0
  2  3  1  0  0  0  0
  2 34  1  0  0  0  0
  3  4  1  0  0  0  0
  3 35  1  0  0  0  0
  3 36  1  0  0  0  0
  4  5  1  0  0  0  0
  4 10  1  0  0  0  0
  4 65  1  0  0  0  0
  5  6  1  0  0  0  0
  5 37  1  0  0  0  0
  5 38  1  0  0  0  0
  6  7  1  0  0  0  0
  6  8  1  0  0  0  0
  6  9  1  0  0  0  0
  7 39  1  0  0  0  0
  7 40  1  0  0  0  0
  7 41  1  0  0  0  0
  8 42  1  0  0  0  0
  8 43  1  0  0  0  0
  8 44  1  0  0  0  0
  9 45  1  0  0  0  0
 10 11  1  0  0  0  0
 10 46  1  0  0  0  0
 10 47  1  0  0  0  0
 11 12  1  0  0  0  0
 11 48  1  0  0  0  0
 11 49  1  0  0  0  0
 12 13  1  0  0  0  0
 13 18  1  0  0  0  0
 13 14  2  0  0  0  0
 14 15  1  0  0  0  0
 15 16  2  0  0  0  0
 15 50  1  0  0  0  0
 16 17  1  0  0  0  0
 17 21  1  0  0  0  0
 17 18  2  0  0  0  0
 18 19  1  0  0  0  0
 19 20  2  0  0  0  0
 20 21  1  0  0  0  0
 20 51  1  0  0  0  0
 21 22  1  0  0  0  0
 22 23  1  0  0  0  0
 22 52  1  0  0  0  0
 22 53  1  0  0  0  0
 23 24  1  0  0  0  0
 23 26  1  0  0  0  0
 23 54  1  0  0  0  0
 24 25  1  0  0  0  0
 24 55  1  0  0  0  0
 24 56  1  0  0  0  0
 25 57  1  0  0  0  0
 26 30  1  0  0  0  0
 26 27  1  0  0  0  0
 26 58  1  0  0  0  0
 27 28  1  0  0  0  0
 27 59  1  0  0  0  0
 27 60  1  0  0  0  0
 28 29  1  0  0  0  0
 28 61  1  0  0  0  0
 28 62  1  0  0  0  0
 29 30  1  0  0  0  0
 30 63  1  0  0  0  0
 30 64  1  0  0  0  0
M  CHG  1   4   1
M  END
> <s_m_source_file>
AV-unprocessed.smi

> <i_m_source_file_index>
212

> <i_lp_mmshare_version>
43012

> <i_f3d_flags>
0

> <s_epik_input>
W0NIM11bQ0BASF0xW0NIMl1OKFtDSDJdQyhbQ0gzXSkoW0NIM10pW09IXSlbQ0gyXVtDSDJdTjFjKG5bY0hdbjIpYyhjMjMpbltjSF1uM1tDSDJdW0NASF0oW0NIMl1bT0hdKVtDQEBIXTRbQ0gyXVtDSDJdT1tDSDJdNA==

> <s_epik_cmdline>
J2VwaWtfcHl0aG9uJywgJy1waCcsICc3LjAnLCAnLXRuJywgJzgnLCAnLW1hJywgJzIwMCcsICctbWV0YWxfYmluZGluZycsICctaW1hZScsICc8aW5maWxlLm1hZT4nLCAnLW9tYWUnLCAnPG91dGZpbGUubWFlPic=

> <r_lp_tautomer_probability>
1

> <r_epik_Ionization_Penalty>
0.00182193

> <r_epik_Ionization_Penalty_Charging>
0.00173996

> <r_epik_Ionization_Penalty_Neutral>
8.19718e-05

> <r_epik_State_Penalty>
-0

> <r_epik_Charging_Adjusted_Penalty>
0.00173996

> <i_epik_Tot_Q>
1

> <i_epik_Tot_abs_Q>
1

> <r_epik_Metal_State_Penalty>
-0

> <b_epik_Metal_Only>
0

> <s_lp_Force_Field>
OPLS_2005

> <r_lp_Energy>
60.7413

> <b_lp_Chiralities_Consistent>
1

> <s_lp_Variant>
AV-unprocessed.smi:212-6

> <Gold.Version>
5.8.1

> <Gold.Id.Protein>
6NUR|6NUR_protein|mol2

> <Gold.PLP.Fitness>
43.4846

> <Gold.PLP.PLP>
-37.2297

> <Gold.PLP.part.hbond>
-4.7347

> <Gold.PLP.part.metal>
0.0000

> <Gold.PLP.part.buried>
-2.1871

> <Gold.PLP.part.nonpolar>
-31.9362

> <Gold.PLP.part.repulsive>
0.8697

> <Gold.PLP.ligand.clash>
0.0000

> <Gold.PLP.ligand.torsion>
2.2155

> <Gold.PLP.Chemscore.Hbond>
2.2147

> <Gold.PLP.Chemscore.CHOScore>
1.0000

> <Gold.PLP.Chemscore.Metal>
0.0000

> <Gold.Chemscore.Hbonds>
donor molecule, donor type, donor heavy atom, donor atom, acceptor molecule, acceptor atom, score
      P1  H  7989  7998       L1    25  0.23
      P1  H  7997  8010       L1    25  0.98
      P1  H 10785 10796       L1     9  0.99
      L1  C    15    50       P1 10175  1.00

> <Gold.PLP.Chemscore.Internal.Correction>
1.0418

> <Gold.Rescore>
     Score         DG    S(hbond)    S(metal)    S(lipo)     H(rot)  DE(clash)    DE(int)     intcor
      9.62     -12.84       1.21        0.00     102.71       3.40       0.78       2.45       ----

> <Gold.Chemscore.Fitness>
9.6195

> <Gold.Chemscore.DG>
-12.8438

> <Gold.Chemscore.ZeroCoef>
-5.4800

> <Gold.Chemscore.Hbond>
1.2117

> <Gold.Chemscore.Metal>
0.0000

> <Gold.Chemscore.Lipo>
102.7111

> <Gold.Chemscore.Internal_Hbond>
0.0000

> <Gold.Chemscore.DEClash>
0.7792

> <Gold.Chemscore.DEInternal>
2.4451

> <Gold.Chemscore.Rot>
3.3986

> <Gold.Chemscore.Internal.Correction>
   9.000000E+99

> <Gold.Chemscore.Hbonds>
donor molecule, donor type, donor heavy atom, donor atom, acceptor molecule, acceptor atom, score
      P1  H  7989  7998       L1    25  0.08
      P1  H  7997  8010       L1    25  0.06
      P1  H 10785 10796       L1     9  0.72

> <Gold.Chemscore.Hbond.Weighted>
-4.0471

> <Gold.Chemscore.Metal.Weighted>
-0.0000

> <Gold.Chemscore.Lipo.Weighted>
-12.0172

> <Gold.Chemscore.Internal_Hbond.Weighted>
0.0000

> <Gold.Chemscore.DEClash.Weighted>
0.7792

> <Gold.Chemscore.DEInternal.Weighted>
2.4451

> <Gold.Chemscore.Rot.Weighted>
8.7005

> <Gold.Chemscore.Internal.Correction.Weighted>
   9.000000E+99

> <Gold.Protein.RotatedTorsions>
[ 6907 6896 6895 6894 ] final  141.08 input  -60.11 | X-H torsion
[ 7974 7965 7964 7962 ] final  -53.28 input  175.53 | X-H torsion
[ 8008 7997 7996 7995 ] final  120.71 input   59.86 | X-H torsion
[ 10167 10162 10161 10158 ] final  179.82 input  -65.29 | X-H torsion
[ 10718 10713 10712 10709 ] final -131.95 input   66.30 | X-H torsion
[ 10763 10752 10751 10750 ] final  -44.11 input  -60.55 | X-H torsion
[ 11005 11000 10999 10996 ] final  109.62 input  -57.11 | X-H torsion

> <Gold.Protein.ActiveResidues>
 VAL166  LYS551  ARG553  GLY616  TRP617  ASP618  TYR619  PRO620  LYS621  CYS622 
 ASP623  PHE694  ASN695  SER759  ASP760  ASP761  ALA762  ILE779  LEU786  VAL792 
 PHE793  MET794  SER795  GLU796  ALA797  LYS798  CYS799  TRP800  GLU811  SER814 

> <Gold.Protein.RotatedAtoms>
  152.2353  133.5091  159.5238 H   0  0  0  0  0  0  0  0  0  0  0  0  # atno 6907 bound_to 6896
  150.7049  134.1162  159.4027 H   0  0  0  0  0  0  0  0  0  0  0  0  # atno 6908 bound_to 6896
  151.9083  135.0349  160.0563 H   0  0  0  0  0  0  0  0  0  0  0  0  # atno 6909 bound_to 6896
  145.8985  140.8013  142.9755 H   0  0  0  0  0  0  0  0  0  0  0  0  # atno 7974 bound_to 7965
  156.2655  140.2824  156.1193 H   0  0  0  0  0  0  0  0  0  0  0  0  # atno 8008 bound_to 7997
  155.1173  140.0391  157.2758 H   0  0  0  0  0  0  0  0  0  0  0  0  # atno 8009 bound_to 7997
  154.6697  140.2585  155.7026 H   0  0  0  0  0  0  0  0  0  0  0  0  # atno 8010 bound_to 7997
  139.5353  144.2515  152.0780 H   0  0  0  0  0  0  0  0  0  0  0  0  # atno 10167 bound_to 10162
  156.2296  130.7029  151.0844 H   0  0  0  0  0  0  0  0  0  0  0  0  # atno 10718 bound_to 10713
  154.0066  135.6687  153.4762 H   0  0  0  0  0  0  0  0  0  0  0  0  # atno 10763 bound_to 10752
  153.0639  135.5012  154.8152 H   0  0  0  0  0  0  0  0  0  0  0  0  # atno 10764 bound_to 10752
  154.7021  135.3081  154.9289 H   0  0  0  0  0  0  0  0  0  0  0  0  # atno 10765 bound_to 10752
  139.8865  134.9463  156.6154 H   0  0  0  0  0  0  0  0  0  0  0  0  # atno 11005 bound_to 11000
  144.6734  140.1640  143.7420 LP  0  0  0  0  0  0  0  0  0  0  0  0  # atno 17320 bound_to 7965
  145.8820  139.2328  143.1600 LP  0  0  0  0  0  0  0  0  0  0  0  0  # atno 17321 bound_to 7965
  140.1985  144.4681  150.6443 LP  0  0  0  0  0  0  0  0  0  0  0  0  # atno 17342 bound_to 10162
  140.6556  143.2236  151.5977 LP  0  0  0  0  0  0  0  0  0  0  0  0  # atno 17343 bound_to 10162
  157.7127  131.0726  150.6443 LP  0  0  0  0  0  0  0  0  0  0  0  0  # atno 17370 bound_to 10713
  156.6510  130.4485  149.5719 LP  0  0  0  0  0  0  0  0  0  0  0  0  # atno 17371 bound_to 10713
  140.7780  133.8684  155.8544 LP  0  0  0  0  0  0  0  0  0  0  0  0  # atno 17394 bound_to 11000
  140.9785  134.1437  157.4515 LP  0  0  0  0  0  0  0  0  0  0  0  0  # atno 17395 bound_to 11000

$$$$
