AV-unprocessed.smi:486|AV-procd|sdf|2695|dock10
  -GOLD-   2262023133D 1   1.00000     0.00000
 Structure written by MMmdl.
 43 45  0  0  0  0  0  0  0  0  1 V2000
  143.6404  144.4749  154.5585 C   0  0  0  0  0  0  0  0  0  0  0  0
  143.6797  143.5068  155.5968 O   0  0  0  0  0  0  0  0  0  0  0  0
  144.7743  142.6715  155.6637 C   0  0  0  0  0  0  0  0  0  0  0  0
  144.8548  141.8071  156.7729 C   0  0  0  0  0  0  0  0  0  0  0  0
  145.9384  140.9205  156.9185 C   0  0  0  0  0  0  0  0  0  0  0  0
  146.9698  140.8783  155.9601 C   0  0  0  0  0  0  0  0  0  0  0  0
  147.9944  139.9829  156.1807 O   0  0  0  0  0  0  0  0  0  0  0  0
  149.1117  140.0065  155.3016 C   0  0  0  0  0  0  0  0  0  0  0  0
  150.3293  140.5527  156.0636 C   0  0  2  0  0  0  0  0  0  0  0  0
  151.4735  140.3950  155.2478 O   0  0  0  0  0  0  0  0  0  0  0  0
  150.5540  139.8107  157.3972 C   0  0  0  0  0  0  0  0  0  0  0  0
  151.4333  140.5351  158.3056 N   0  0  0  0  0  0  0  0  0  0  0  0
  152.4081  140.0296  159.1008 C   0  0  0  0  0  0  0  0  0  0  0  0
  152.7197  138.5670  159.1351 C   0  0  0  0  0  0  0  0  0  0  0  0
  153.0725  140.9158  159.8425 N   0  0  0  0  0  0  0  0  0  0  0  0
  152.4736  142.1112  159.4943 C   0  0  0  0  0  0  0  0  0  0  0  0
  152.7299  143.4291  159.9358 C   0  0  0  0  0  0  0  0  0  0  0  0
  151.9786  144.5103  159.4299 C   0  0  0  0  0  0  0  0  0  0  0  0
  150.9620  144.2896  158.4781 C   0  0  0  0  0  0  0  0  0  0  0  0
  150.6900  142.9842  158.0251 C   0  0  0  0  0  0  0  0  0  0  0  0
  151.4433  141.9084  158.5323 C   0  0  0  0  0  0  0  0  0  0  0  0
  146.8934  141.7454  154.8424 C   0  0  0  0  0  0  0  0  0  0  0  0
  145.8081  142.6315  154.6959 C   0  0  0  0  0  0  0  0  0  0  0  0
  142.7168  145.0483  154.6357 H   0  0  0  0  0  0  0  0  0  0  0  0
  143.6542  144.0043  153.5747 H   0  0  0  0  0  0  0  0  0  0  0  0
  144.4718  145.1770  154.6356 H   0  0  0  0  0  0  0  0  0  0  0  0
  144.0763  141.8230  157.5216 H   0  0  0  0  0  0  0  0  0  0  0  0
  145.9783  140.2659  157.7768 H   0  0  0  0  0  0  0  0  0  0  0  0
  149.3161  138.9840  154.9801 H   0  0  0  0  0  0  0  0  0  0  0  0
  148.9133  140.6041  154.4099 H   0  0  0  0  0  0  0  0  0  0  0  0
  150.1853  141.6146  156.2642 H   0  0  0  0  0  0  0  0  0  0  0  0
  151.8137  139.5225  155.3762 H   0  0  0  0  0  0  0  0  0  0  0  0
  149.6018  139.6371  157.8993 H   0  0  0  0  0  0  0  0  0  0  0  0
  150.9806  138.8238  157.2135 H   0  0  0  0  0  0  0  0  0  0  0  0
  153.4844  138.3567  159.8837 H   0  0  0  0  0  0  0  0  0  0  0  0
  153.0904  138.2384  158.1642 H   0  0  0  0  0  0  0  0  0  0  0  0
  151.8289  137.9925  159.3873 H   0  0  0  0  0  0  0  0  0  0  0  0
  153.5060  143.6084  160.6650 H   0  0  0  0  0  0  0  0  0  0  0  0
  152.1833  145.5133  159.7743 H   0  0  0  0  0  0  0  0  0  0  0  0
  150.3901  145.1228  158.0969 H   0  0  0  0  0  0  0  0  0  0  0  0
  149.9094  142.8113  157.2992 H   0  0  0  0  0  0  0  0  0  0  0  0
  147.6563  141.7505  154.0790 H   0  0  0  0  0  0  0  0  0  0  0  0
  145.7925  143.2726  153.8278 H   0  0  0  0  0  0  0  0  0  0  0  0
  1  2  1  0  0  0  0
  1 24  1  0  0  0  0
  1 25  1  0  0  0  0
  1 26  1  0  0  0  0
  2  3  1  0  0  0  0
  3 23  1  0  0  0  0
  3  4  2  0  0  0  0
  4  5  1  0  0  0  0
  4 27  1  0  0  0  0
  5  6  2  0  0  0  0
  5 28  1  0  0  0  0
  6  7  1  0  0  0  0
  6 22  1  0  0  0  0
  7  8  1  0  0  0  0
  8  9  1  0  0  0  0
  8 29  1  0  0  0  0
  8 30  1  0  0  0  0
  9 10  1  0  0  0  0
  9 11  1  0  0  0  0
  9 31  1  0  0  0  0
 10 32  1  0  0  0  0
 11 12  1  0  0  0  0
 11 33  1  0  0  0  0
 11 34  1  0  0  0  0
 12 21  1  0  0  0  0
 12 13  1  0  0  0  0
 13 14  1  0  0  0  0
 13 15  2  0  0  0  0
 14 35  1  0  0  0  0
 14 36  1  0  0  0  0
 14 37  1  0  0  0  0
 15 16  1  0  0  0  0
 16 21  2  0  0  0  0
 16 17  1  0  0  0  0
 17 18  2  0  0  0  0
 17 38  1  0  0  0  0
 18 19  1  0  0  0  0
 18 39  1  0  0  0  0
 19 20  2  0  0  0  0
 19 40  1  0  0  0  0
 20 21  1  0  0  0  0
 20 41  1  0  0  0  0
 22 23  2  0  0  0  0
 22 42  1  0  0  0  0
 23 43  1  0  0  0  0
M  END
> <s_m_source_file>
AV-unprocessed.smi

> <i_m_source_file_index>
486

> <i_lp_mmshare_version>
43012

> <i_f3d_flags>
0

> <s_epik_input>
W0NIM11PYzFbY0hdW2NIXWMoW2NIXVtjSF0xKU9bQ0gyXVtDQEhdKFtPSF0pW0NIMl1uKGMobjIpW0NIM10pYyhjMjMpW2NIXVtjSF1bY0hdW2NIXTM=

> <s_epik_cmdline>
J2VwaWtfcHl0aG9uJywgJy1waCcsICc3LjAnLCAnLXRuJywgJzgnLCAnLW1hJywgJzIwMCcsICctbWV0YWxfYmluZGluZycsICctaW1hZScsICc8aW5maWxlLm1hZT4nLCAnLW9tYWUnLCAnPG91dGZpbGUubWFlPic=

> <r_lp_tautomer_probability>
1

> <r_epik_Ionization_Penalty>
0.114052

> <r_epik_Ionization_Penalty_Charging>
0

> <r_epik_Ionization_Penalty_Neutral>
0.114052

> <r_epik_State_Penalty>
0.103717

> <r_epik_Charging_Adjusted_Penalty>
0.103717

> <i_epik_Tot_Q>
0

> <i_epik_Tot_abs_Q>
0

> <r_epik_Metal_State_Penalty>
0.000113338

> <b_epik_Metal_Only>
0

> <s_lp_Force_Field>
OPLS_2005

> <r_lp_Energy>
19.9985

> <b_lp_Chiralities_Consistent>
1

> <s_lp_Variant>
AV-unprocessed.smi:486-1

> <Gold.Version>
5.8.1

> <Gold.Id.Protein>
6NUR|6NUR_protein|mol2

> <Gold.PLP.Fitness>
52.3496

> <Gold.PLP.PLP>
-50.9586

> <Gold.PLP.part.hbond>
-1.0000

> <Gold.PLP.part.metal>
0.0000

> <Gold.PLP.part.buried>
-7.9300

> <Gold.PLP.part.nonpolar>
-43.0192

> <Gold.PLP.part.repulsive>
0.1870

> <Gold.PLP.ligand.clash>
0.0000

> <Gold.PLP.ligand.torsion>
0.8638

> <Gold.PLP.Chemscore.Hbond>
1.0000

> <Gold.PLP.Chemscore.CHOScore>
0.0000

> <Gold.PLP.Chemscore.Metal>
0.0000

> <Gold.Chemscore.Hbonds>
donor molecule, donor type, donor heavy atom, donor atom, acceptor molecule, acceptor atom, score
      P1  H  7989  7998       L1    10  0.91

> <Gold.PLP.Chemscore.Internal.Correction>
0.1187

> <Gold.Rescore>
     Score         DG    S(hbond)    S(metal)    S(lipo)     H(rot)  DE(clash)    DE(int)     intcor
     16.54     -17.09       0.94        0.00     122.79       2.30       0.04       0.51       ----

> <Gold.Chemscore.Fitness>
16.5386

> <Gold.Chemscore.DG>
-17.0910

> <Gold.Chemscore.ZeroCoef>
-5.4800

> <Gold.Chemscore.Hbond>
0.9396

> <Gold.Chemscore.Metal>
0.0000

> <Gold.Chemscore.Lipo>
122.7923

> <Gold.Chemscore.Internal_Hbond>
0.0000

> <Gold.Chemscore.DEClash>
0.0412

> <Gold.Chemscore.DEInternal>
0.5111

> <Gold.Chemscore.Rot>
2.3023

> <Gold.Chemscore.Internal.Correction>
   9.000000E+99

> <Gold.Chemscore.Hbonds>
donor molecule, donor type, donor heavy atom, donor atom, acceptor molecule, acceptor atom, score
      P1  H  7989  7998       L1    10  0.67

> <Gold.Chemscore.Hbond.Weighted>
-3.1383

> <Gold.Chemscore.Metal.Weighted>
-0.0000

> <Gold.Chemscore.Lipo.Weighted>
-14.3667

> <Gold.Chemscore.Internal_Hbond.Weighted>
0.0000

> <Gold.Chemscore.DEClash.Weighted>
0.0412

> <Gold.Chemscore.DEInternal.Weighted>
0.5111

> <Gold.Chemscore.Rot.Weighted>
5.8940

> <Gold.Chemscore.Internal.Correction.Weighted>
   9.000000E+99

> <Gold.Protein.RotatedTorsions>
[ 6907 6896 6895 6894 ] final   33.70 input  -60.11 | X-H torsion
[ 7974 7965 7964 7962 ] final   54.38 input  175.53 | X-H torsion
[ 8008 7997 7996 7995 ] final   68.61 input   59.86 | X-H torsion
[ 10167 10162 10161 10158 ] final  -82.46 input  -65.29 | X-H torsion
[ 10718 10713 10712 10709 ] final   26.28 input   66.30 | X-H torsion
[ 10763 10752 10751 10750 ] final  169.39 input  -60.55 | X-H torsion
[ 11005 11000 10999 10996 ] final -142.07 input  -57.11 | X-H torsion

> <Gold.Protein.ActiveResidues>
 VAL166  LYS551  ARG553  GLY616  TRP617  ASP618  TYR619  PRO620  LYS621  CYS622 
 ASP623  PHE694  ASN695  SER759  ASP760  ASP761  ALA762  ILE779  LEU786  VAL792 
 PHE793  MET794  SER795  GLU796  ALA797  LYS798  CYS799  TRP800  GLU811  SER814 

> <Gold.Protein.RotatedAtoms>
  152.0921  134.9400  160.0571 H   0  0  0  0  0  0  0  0  0  0  0  0  # atno 6907 bound_to 6896
  152.0647  133.4073  159.4441 H   0  0  0  0  0  0  0  0  0  0  0  0  # atno 6908 bound_to 6896
  150.6837  134.3080  159.4778 H   0  0  0  0  0  0  0  0  0  0  0  0  # atno 6909 bound_to 6896
  145.9614  139.4063  143.0246 H   0  0  0  0  0  0  0  0  0  0  0  0  # atno 7974 bound_to 7965
  155.7109  140.3494  155.4973 H   0  0  0  0  0  0  0  0  0  0  0  0  # atno 8008 bound_to 7997
  155.9356  140.1092  157.1119 H   0  0  0  0  0  0  0  0  0  0  0  0  # atno 8009 bound_to 7997
  154.4093  140.1222  156.4847 H   0  0  0  0  0  0  0  0  0  0  0  0  # atno 8010 bound_to 7997
  140.4318  143.2546  151.8749 H   0  0  0  0  0  0  0  0  0  0  0  0  # atno 10167 bound_to 10162
  157.2047  130.6906  149.6203 H   0  0  0  0  0  0  0  0  0  0  0  0  # atno 10718 bound_to 10713
  154.3824  135.2753  155.2203 H   0  0  0  0  0  0  0  0  0  0  0  0  # atno 10763 bound_to 10752
  154.4304  135.5978  153.6069 H   0  0  0  0  0  0  0  0  0  0  0  0  # atno 10764 bound_to 10752
  152.9834  135.5994  154.4068 H   0  0  0  0  0  0  0  0  0  0  0  0  # atno 10765 bound_to 10752
  140.8262  134.2572  157.4878 H   0  0  0  0  0  0  0  0  0  0  0  0  # atno 11005 bound_to 11000
  145.8034  140.9760  143.0987 LP  0  0  0  0  0  0  0  0  0  0  0  0  # atno 17320 bound_to 7965
  144.6816  139.9830  143.7483 LP  0  0  0  0  0  0  0  0  0  0  0  0  # atno 17321 bound_to 7965
  139.4785  144.5326  151.8644 LP  0  0  0  0  0  0  0  0  0  0  0  0  # atno 17342 bound_to 10162
  140.4419  144.1975  150.5892 LP  0  0  0  0  0  0  0  0  0  0  0  0  # atno 17343 bound_to 10162
  155.9696  130.4571  150.5949 LP  0  0  0  0  0  0  0  0  0  0  0  0  # atno 17370 bound_to 10713
  157.3732  131.0769  151.1540 LP  0  0  0  0  0  0  0  0  0  0  0  0  # atno 17371 bound_to 10713
  139.8706  134.9561  156.4229 LP  0  0  0  0  0  0  0  0  0  0  0  0  # atno 17394 bound_to 11000
  140.9047  133.7754  155.9721 LP  0  0  0  0  0  0  0  0  0  0  0  0  # atno 17395 bound_to 11000

$$$$
