AV-unprocessed.smi:3241|AV-procd|sdf|12386|dock6
  -GOLD-   2272018253D 1   1.00000     0.00000
 Structure written by MMmdl.
 44 45  0  0  0  0  0  0  0  0  2 V2000
  146.7649  142.2995  154.1071 C   0  0  0  0  0  0  0  0  0  0  0  0
  148.0997  141.6737  154.5398 C   0  0  1  0  0  0  0  0  0  0  0  0
  148.2624  141.6863  156.0727 C   0  0  0  0  0  0  0  0  0  0  0  0
  149.6239  141.1160  156.4993 C   0  0  0  0  0  0  0  0  0  0  0  0
  149.8368  139.7017  155.9395 C   0  0  0  0  0  0  0  0  0  0  0  0
  149.6660  139.6725  154.4109 C   0  0  0  0  0  0  0  0  0  0  0  0
  148.3073  140.2494  153.9711 C   0  0  1  0  0  0  0  0  0  0  0  0
  147.2875  139.3853  154.4581 O   0  0  0  0  0  0  0  0  0  0  0  0
  147.0888  138.2076  153.6915 C   0  0  0  0  0  0  0  0  0  0  0  0
  146.2633  138.5861  152.4588 C   0  0  0  0  0  0  0  0  0  0  0  0
  146.2931  137.4898  151.4724 N   0  3  0  0  0  0  0  0  0  0  0  0
  145.5517  136.2778  151.8710 C   0  0  0  0  0  0  0  0  0  0  0  0
  144.9399  135.5717  150.6500 C   0  0  0  0  0  0  0  0  0  0  0  0
  145.0824  134.1279  150.7239 N   0  0  0  0  0  0  0  0  0  0  0  0
  144.1225  133.1603  150.5141 C   0  0  0  0  0  0  0  0  0  0  0  0
  144.7265  131.9468  150.6794 C   0  0  0  0  0  0  0  0  0  0  0  0
  146.0738  132.2787  150.9942 C   0  0  0  0  0  0  0  0  0  0  0  0
  146.2844  133.5850  151.0184 N   0  0  0  0  0  0  0  0  0  0  0  0
  145.9150  141.7560  154.5196 H   0  0  0  0  0  0  0  0  0  0  0  0
  146.6662  142.3047  153.0214 H   0  0  0  0  0  0  0  0  0  0  0  0
  146.6896  143.3322  154.4487 H   0  0  0  0  0  0  0  0  0  0  0  0
  148.8885  142.3033  154.1247 H   0  0  0  0  0  0  0  0  0  0  0  0
  148.1594  142.7040  156.4510 H   0  0  0  0  0  0  0  0  0  0  0  0
  147.4641  141.1042  156.5348 H   0  0  0  0  0  0  0  0  0  0  0  0
  150.4208  141.7720  156.1470 H   0  0  0  0  0  0  0  0  0  0  0  0
  149.6958  141.1001  157.5872 H   0  0  0  0  0  0  0  0  0  0  0  0
  150.8307  139.3427  156.2082 H   0  0  0  0  0  0  0  0  0  0  0  0
  149.1268  139.0150  156.4020 H   0  0  0  0  0  0  0  0  0  0  0  0
  150.4681  140.2498  153.9497 H   0  0  0  0  0  0  0  0  0  0  0  0
  149.7752  138.6516  154.0438 H   0  0  0  0  0  0  0  0  0  0  0  0
  148.2960  140.2892  152.8798 H   0  0  0  0  0  0  0  0  0  0  0  0
  148.0386  137.7663  153.3854 H   0  0  0  0  0  0  0  0  0  0  0  0
  146.5606  137.4678  154.2945 H   0  0  0  0  0  0  0  0  0  0  0  0
  145.2286  138.7818  152.7426 H   0  0  0  0  0  0  0  0  0  0  0  0
  146.6571  139.5008  152.0137 H   0  0  0  0  0  0  0  0  0  0  0  0
  145.8827  137.8332  150.6150 H   0  0  0  0  0  0  0  0  0  0  0  0
  146.2320  135.6009  152.3889 H   0  0  0  0  0  0  0  0  0  0  0  0
  144.7648  136.5452  152.5777 H   0  0  0  0  0  0  0  0  0  0  0  0
  143.8826  135.8222  150.5484 H   0  0  0  0  0  0  0  0  0  0  0  0
  145.4306  135.9162  149.7390 H   0  0  0  0  0  0  0  0  0  0  0  0
  143.1020  133.4124  150.2649 H   0  0  0  0  0  0  0  0  0  0  0  0
  144.2743  130.9703  150.5892 H   0  0  0  0  0  0  0  0  0  0  0  0
  146.8999  131.6139  151.2003 H   0  0  0  0  0  0  0  0  0  0  0  0
  147.2540  137.2405  151.2867 H   0  0  0  0  0  0  0  0  0  0  0  0
  1  2  1  0  0  0  0
  1 19  1  0  0  0  0
  1 20  1  0  0  0  0
  1 21  1  0  0  0  0
  2  7  1  0  0  0  0
  2  3  1  0  0  0  0
  2 22  1  0  0  0  0
  3  4  1  0  0  0  0
  3 23  1  0  0  0  0
  3 24  1  0  0  0  0
  4  5  1  0  0  0  0
  4 25  1  0  0  0  0
  4 26  1  0  0  0  0
  5  6  1  0  0  0  0
  5 27  1  0  0  0  0
  5 28  1  0  0  0  0
  6  7  1  0  0  0  0
  6 29  1  0  0  0  0
  6 30  1  0  0  0  0
  7  8  1  0  0  0  0
  7 31  1  0  0  0  0
  8  9  1  0  0  0  0
  9 10  1  0  0  0  0
  9 32  1  0  0  0  0
  9 33  1  0  0  0  0
 10 11  1  0  0  0  0
 10 34  1  0  0  0  0
 10 35  1  0  0  0  0
 11 12  1  0  0  0  0
 11 36  1  0  0  0  0
 11 44  1  0  0  0  0
 12 13  1  0  0  0  0
 12 37  1  0  0  0  0
 12 38  1  0  0  0  0
 13 14  1  0  0  0  0
 13 39  1  0  0  0  0
 13 40  1  0  0  0  0
 14 18  1  0  0  0  0
 14 15  1  0  0  0  0
 15 16  2  0  0  0  0
 15 41  1  0  0  0  0
 16 17  1  0  0  0  0
 16 42  1  0  0  0  0
 17 18  2  0  0  0  0
 17 43  1  0  0  0  0
M  CHG  1  11   1
M  END
> <s_m_source_file>
AV-unprocessed.smi

> <i_m_source_file_index>
3241

> <i_lp_mmshare_version>
43012

> <i_f3d_flags>
0

> <s_epik_input>
W0NIM11bQ0BASF0xW0NIMl1bQ0gyXVtDSDJdW0NIMl1bQ0BIXTFPW0NIMl1bQ0gyXVtOSF1bQ0gyXVtDSDJdbjJbY0hdW2NIXVtjSF1uMg==

> <s_epik_cmdline>
J2VwaWtfcHl0aG9uJywgJy1waCcsICc3LjAnLCAnLXRuJywgJzgnLCAnLW1hJywgJzIwMCcsICctbWV0YWxfYmluZGluZycsICctaW1hZScsICc8aW5maWxlLm1hZT4nLCAnLW9tYWUnLCAnPG91dGZpbGUubWFlPic=

> <r_lp_tautomer_probability>
1

> <r_epik_Ionization_Penalty>
0.00924946

> <r_epik_Ionization_Penalty_Charging>
0.00924645

> <r_epik_Ionization_Penalty_Neutral>
3.00629e-06

> <r_epik_State_Penalty>
0.0070118

> <r_epik_Charging_Adjusted_Penalty>
0.0162583

> <i_epik_Tot_Q>
1

> <i_epik_Tot_abs_Q>
1

> <r_epik_Metal_State_Penalty>
0.00702523

> <b_epik_Metal_Only>
0

> <s_lp_Force_Field>
OPLS_2005

> <r_lp_Energy>
14.1188

> <b_lp_Chiralities_Consistent>
1

> <s_lp_Variant>
AV-unprocessed.smi:3241-2

> <Gold.Version>
5.8.1

> <Gold.Id.Protein>
6NUR|6NUR_protein|mol2

> <Gold.PLP.Fitness>
46.0615

> <Gold.PLP.PLP>
-34.7910

> <Gold.PLP.part.hbond>
-1.6950

> <Gold.PLP.part.metal>
0.0000

> <Gold.PLP.part.buried>
-3.3912

> <Gold.PLP.part.nonpolar>
-31.1523

> <Gold.PLP.part.repulsive>
0.3871

> <Gold.PLP.ligand.clash>
0.0000

> <Gold.PLP.ligand.torsion>
0.9659

> <Gold.PLP.Chemscore.Hbond>
2.3380

> <Gold.PLP.Chemscore.CHOScore>
2.0000

> <Gold.PLP.Chemscore.Metal>
0.0000

> <Gold.Chemscore.Hbonds>
donor molecule, donor type, donor heavy atom, donor atom, acceptor molecule, acceptor atom, score
      L1  H    11    36       P1 10171  0.30
      L1  H    11    44       P1  7948  2.00
      L1  C    15    41       P1 10186  1.00
      L1  C    17    43       P1 10747  1.00

> <Gold.PLP.Chemscore.Internal.Correction>
0.1882

> <Gold.Rescore>
     Score         DG    S(hbond)    S(metal)    S(lipo)     H(rot)  DE(clash)    DE(int)     intcor
     14.46     -15.80       1.31        0.00      92.27       1.89       0.35       0.99       ----

> <Gold.Chemscore.Fitness>
14.4610

> <Gold.Chemscore.DG>
-15.8008

> <Gold.Chemscore.ZeroCoef>
-5.4800

> <Gold.Chemscore.Hbond>
1.3071

> <Gold.Chemscore.Metal>
0.0000

> <Gold.Chemscore.Lipo>
92.2659

> <Gold.Chemscore.Internal_Hbond>
0.0000

> <Gold.Chemscore.DEClash>
0.3493

> <Gold.Chemscore.DEInternal>
0.9905

> <Gold.Chemscore.Rot>
1.8906

> <Gold.Chemscore.Internal.Correction>
   9.000000E+99

> <Gold.Chemscore.Hbonds>
donor molecule, donor type, donor heavy atom, donor atom, acceptor molecule, acceptor atom, score
      L1  H    11    36       P1 10171  0.30
      L1  H    11    44       P1  7948  0.89

> <Gold.Chemscore.Hbond.Weighted>
-4.3658

> <Gold.Chemscore.Metal.Weighted>
-0.0000

> <Gold.Chemscore.Lipo.Weighted>
-10.7951

> <Gold.Chemscore.Internal_Hbond.Weighted>
0.0000

> <Gold.Chemscore.DEClash.Weighted>
0.3493

> <Gold.Chemscore.DEInternal.Weighted>
0.9905

> <Gold.Chemscore.Rot.Weighted>
4.8400

> <Gold.Chemscore.Internal.Correction.Weighted>
   9.000000E+99

> <Gold.Protein.RotatedTorsions>
[ 6907 6896 6895 6894 ] final  109.98 input  -60.11 | X-H torsion
[ 7974 7965 7964 7962 ] final  -20.26 input  175.53 | X-H torsion
[ 8008 7997 7996 7995 ] final  -91.38 input   59.86 | X-H torsion
[ 10167 10162 10161 10158 ] final  173.18 input  -65.29 | X-H torsion
[ 10718 10713 10712 10709 ] final  -91.45 input   66.30 | X-H torsion
[ 10763 10752 10751 10750 ] final  -61.66 input  -60.55 | X-H torsion
[ 11005 11000 10999 10996 ] final -144.89 input  -57.11 | X-H torsion

> <Gold.Protein.ActiveResidues>
 VAL166  LYS551  ARG553  GLY616  TRP617  ASP618  TYR619  PRO620  LYS621  CYS622 
 ASP623  PHE694  ASN695  SER759  ASP760  ASP761  ALA762  ILE779  LEU786  VAL792 
 PHE793  MET794  SER795  GLU796  ALA797  LYS798  CYS799  TRP800  GLU811  SER814 

> <Gold.Protein.RotatedAtoms>
  152.5041  133.8865  159.7372 H   0  0  0  0  0  0  0  0  0  0  0  0  # atno 6907 bound_to 6896
  150.9315  133.6753  159.2816 H   0  0  0  0  0  0  0  0  0  0  0  0  # atno 6908 bound_to 6896
  151.4096  135.0988  159.9633 H   0  0  0  0  0  0  0  0  0  0  0  0  # atno 6909 bound_to 6896
  146.1797  140.4177  142.8499 H   0  0  0  0  0  0  0  0  0  0  0  0  # atno 7974 bound_to 7965
  154.7101  140.0520  157.0541 H   0  0  0  0  0  0  0  0  0  0  0  0  # atno 8008 bound_to 7997
  155.0567  140.3185  155.4655 H   0  0  0  0  0  0  0  0  0  0  0  0  # atno 8009 bound_to 7997
  156.2786  140.2106  156.5693 H   0  0  0  0  0  0  0  0  0  0  0  0  # atno 8010 bound_to 7997
  139.5100  144.3290  152.0129 H   0  0  0  0  0  0  0  0  0  0  0  0  # atno 10167 bound_to 10162
  155.9994  130.4948  150.5477 H   0  0  0  0  0  0  0  0  0  0  0  0  # atno 10718 bound_to 10713
  154.2879  135.6259  153.5373 H   0  0  0  0  0  0  0  0  0  0  0  0  # atno 10763 bound_to 10752
  152.9856  135.5648  154.5422 H   0  0  0  0  0  0  0  0  0  0  0  0  # atno 10764 bound_to 10752
  154.5027  135.2873  155.1383 H   0  0  0  0  0  0  0  0  0  0  0  0  # atno 10765 bound_to 10752
  140.7978  134.2893  157.4990 H   0  0  0  0  0  0  0  0  0  0  0  0  # atno 11005 bound_to 11000
  144.8295  140.6684  143.6300 LP  0  0  0  0  0  0  0  0  0  0  0  0  # atno 17320 bound_to 7965
  145.4110  139.1580  143.4126 LP  0  0  0  0  0  0  0  0  0  0  0  0  # atno 17321 bound_to 7965
  140.2730  144.3943  150.6144 LP  0  0  0  0  0  0  0  0  0  0  0  0  # atno 17342 bound_to 10162
  140.6074  143.2168  151.6954 LP  0  0  0  0  0  0  0  0  0  0  0  0  # atno 17343 bound_to 10162
  157.3404  131.0716  151.1792 LP  0  0  0  0  0  0  0  0  0  0  0  0  # atno 17370 bound_to 10713
  157.2642  130.6673  149.5989 LP  0  0  0  0  0  0  0  0  0  0  0  0  # atno 17371 bound_to 10713
  139.8724  134.9412  156.3790 LP  0  0  0  0  0  0  0  0  0  0  0  0  # atno 17394 bound_to 11000
  140.9325  133.7569  156.0043 LP  0  0  0  0  0  0  0  0  0  0  0  0  # atno 17395 bound_to 11000

$$$$
