AV-unprocessed.smi:1155|AV-procd|sdf|4904|dock8
  -GOLD-   22720 3483D 1   1.00000     0.00000
 Structure written by MMmdl.
 38 40  0  0  0  0  0  0  0  0  1 V2000
  152.2329  144.7577  160.8515 C   0  0  0  0  0  0  0  0  0  0  0  0
  151.9370  143.5631  160.0563 N   0  0  0  0  0  0  0  0  0  0  0  0
  150.9630  143.6720  159.0446 C   0  0  0  0  0  0  0  0  0  0  0  0
  150.6181  142.6277  158.2593 C   0  0  0  0  0  0  0  0  0  0  0  0
  149.6715  142.6662  157.2246 N   0  0  0  0  0  0  0  0  0  0  0  0
  148.8963  141.6764  156.7431 C   0  0  0  0  0  0  0  0  0  0  0  0
  148.9200  140.5016  157.1092 O   0  0  0  0  0  0  0  0  0  0  0  0
  148.0845  142.1350  155.7777 N   0  0  0  0  0  0  0  0  0  0  0  0
  147.1209  141.3568  155.0013 C   0  0  0  0  0  0  0  0  0  0  0  0
  147.7259  140.6440  153.8005 C   0  0  0  0  0  0  0  0  0  0  0  0
  147.0849  139.4060  153.2198 C   0  0  0  0  0  0  0  0  0  0  0  0
  148.4069  139.3050  153.9476 C   0  0  0  0  0  0  0  0  0  0  0  0
  145.8825  142.1436  154.5991 C   0  0  0  0  0  0  0  0  0  0  0  0
  145.9953  143.4349  153.8260 C   0  0  0  0  0  0  0  0  0  0  0  0
  145.5348  143.4530  155.2666 C   0  0  0  0  0  0  0  0  0  0  0  0
  151.3076  141.3768  158.4945 C   0  0  0  0  0  0  0  0  0  0  0  0
  152.2438  141.2656  159.4568 C   0  0  0  0  0  0  0  0  0  0  0  0
  152.6082  142.4018  160.3062 C   0  0  0  0  0  0  0  0  0  0  0  0
  153.4645  142.3158  161.1868 O   0  0  0  0  0  0  0  0  0  0  0  0
  151.5899  145.6025  160.6024 H   0  0  0  0  0  0  0  0  0  0  0  0
  153.2649  145.0742  160.6931 H   0  0  0  0  0  0  0  0  0  0  0  0
  152.0992  144.5553  161.9151 H   0  0  0  0  0  0  0  0  0  0  0  0
  150.5423  144.6609  158.9569 H   0  0  0  0  0  0  0  0  0  0  0  0
  149.5677  143.5676  156.7822 H   0  0  0  0  0  0  0  0  0  0  0  0
  148.1448  143.1166  155.5497 H   0  0  0  0  0  0  0  0  0  0  0  0
  146.7871  140.5790  155.6897 H   0  0  0  0  0  0  0  0  0  0  0  0
  148.1680  141.3183  153.0694 H   0  0  0  0  0  0  0  0  0  0  0  0
  146.2070  139.0026  153.7200 H   0  0  0  0  0  0  0  0  0  0  0  0
  147.0961  139.2971  152.1372 H   0  0  0  0  0  0  0  0  0  0  0  0
  149.2990  139.1282  153.3502 H   0  0  0  0  0  0  0  0  0  0  0  0
  148.4039  138.8392  154.9309 H   0  0  0  0  0  0  0  0  0  0  0  0
  145.0321  141.5156  154.3397 H   0  0  0  0  0  0  0  0  0  0  0  0
  146.9933  143.8123  153.6123 H   0  0  0  0  0  0  0  0  0  0  0  0
  145.2503  143.6232  153.0558 H   0  0  0  0  0  0  0  0  0  0  0  0
  144.4828  143.6561  155.4562 H   0  0  0  0  0  0  0  0  0  0  0  0
  146.2272  143.8490  156.0068 H   0  0  0  0  0  0  0  0  0  0  0  0
  151.0681  140.5129  157.8919 H   0  0  0  0  0  0  0  0  0  0  0  0
  152.7379  140.3172  159.6078 H   0  0  0  0  0  0  0  0  0  0  0  0
  1  2  1  0  0  0  0
  1 20  1  0  0  0  0
  1 21  1  0  0  0  0
  1 22  1  0  0  0  0
  2 18  1  0  0  0  0
  2  3  1  0  0  0  0
  3  4  2  0  0  0  0
  3 23  1  0  0  0  0
  4  5  1  0  0  0  0
  4 16  1  0  0  0  0
  5  6  1  0  0  0  0
  5 24  1  0  0  0  0
  6  7  2  0  0  0  0
  6  8  1  0  0  0  0
  8  9  1  0  0  0  0
  8 25  1  0  0  0  0
  9 10  1  0  0  0  0
  9 13  1  0  0  0  0
  9 26  1  0  0  0  0
 10 12  1  0  0  0  0
 10 11  1  0  0  0  0
 10 27  1  0  0  0  0
 11 12  1  0  0  0  0
 11 28  1  0  0  0  0
 11 29  1  0  0  0  0
 12 30  1  0  0  0  0
 12 31  1  0  0  0  0
 13 15  1  0  0  0  0
 13 14  1  0  0  0  0
 13 32  1  0  0  0  0
 14 15  1  0  0  0  0
 14 33  1  0  0  0  0
 14 34  1  0  0  0  0
 15 35  1  0  0  0  0
 15 36  1  0  0  0  0
 16 17  2  0  0  0  0
 16 37  1  0  0  0  0
 17 18  1  0  0  0  0
 17 38  1  0  0  0  0
 18 19  2  0  0  0  0
M  END
> <s_m_source_file>
AV-unprocessed.smi

> <i_m_source_file_index>
1155

> <i_lp_mmshare_version>
43012

> <i_f3d_flags>
0

> <s_epik_input>
Tz1jMVtjSF1bY0hdYyhbY0hdbjFbQ0gzXSlbTkhdQyg9TylbTkhdW0NIXShbQ0hdMltDSDJdW0NIMl0yKVtDSF0zW0NIMl1bQ0gyXTM=

> <s_epik_cmdline>
J2VwaWtfcHl0aG9uJywgJy1waCcsICc3LjAnLCAnLXRuJywgJzgnLCAnLW1hJywgJzIwMCcsICctbWV0YWxfYmluZGluZycsICctaW1hZScsICc8aW5maWxlLm1hZT4nLCAnLW9tYWUnLCAnPG91dGZpbGUubWFlPic=

> <r_lp_tautomer_probability>
1

> <r_epik_Ionization_Penalty>
2.79104e-05

> <r_epik_Ionization_Penalty_Charging>
6.05378e-06

> <r_epik_Ionization_Penalty_Neutral>
2.18566e-05

> <r_epik_State_Penalty>
-0

> <r_epik_Charging_Adjusted_Penalty>
6.05378e-06

> <i_epik_Tot_Q>
0

> <i_epik_Tot_abs_Q>
0

> <r_epik_Metal_State_Penalty>
-0

> <b_epik_Metal_Only>
0

> <s_lp_Force_Field>
OPLS_2005

> <r_lp_Energy>
36.9075

> <b_lp_Chiralities_Consistent>
1

> <s_lp_Variant>
AV-unprocessed.smi:1155-1

> <Gold.Version>
5.8.1

> <Gold.Id.Protein>
6NUR|6NUR_protein|mol2

> <Gold.PLP.Fitness>
42.8610

> <Gold.PLP.PLP>
-38.0162

> <Gold.PLP.part.hbond>
-2.0000

> <Gold.PLP.part.metal>
0.0000

> <Gold.PLP.part.buried>
-4.9863

> <Gold.PLP.part.nonpolar>
-30.6856

> <Gold.PLP.part.repulsive>
0.1169

> <Gold.PLP.ligand.clash>
0.0000

> <Gold.PLP.ligand.torsion>
1.6606

> <Gold.PLP.Chemscore.Hbond>
2.0000

> <Gold.PLP.Chemscore.CHOScore>
0.0000

> <Gold.PLP.Chemscore.Metal>
0.0000

> <Gold.Chemscore.Hbonds>
donor molecule, donor type, donor heavy atom, donor atom, acceptor molecule, acceptor atom, score
      L1  H     5    24       P1  8028  1.00
      L1  H     8    25       P1  8028  1.00

> <Gold.PLP.Chemscore.Internal.Correction>
2.1660

> <Gold.Rescore>
     Score         DG    S(hbond)    S(metal)    S(lipo)     H(rot)  DE(clash)    DE(int)     intcor
     15.28     -18.25       1.90        0.00      84.41       1.35       0.05       2.92       ----

> <Gold.Chemscore.Fitness>
15.2755

> <Gold.Chemscore.DG>
-18.2451

> <Gold.Chemscore.ZeroCoef>
-5.4800

> <Gold.Chemscore.Hbond>
1.8998

> <Gold.Chemscore.Metal>
0.0000

> <Gold.Chemscore.Lipo>
84.4090

> <Gold.Chemscore.Internal_Hbond>
0.0000

> <Gold.Chemscore.DEClash>
0.0526

> <Gold.Chemscore.DEInternal>
2.9170

> <Gold.Chemscore.Rot>
1.3500

> <Gold.Chemscore.Internal.Correction>
   9.000000E+99

> <Gold.Chemscore.Hbonds>
donor molecule, donor type, donor heavy atom, donor atom, acceptor molecule, acceptor atom, score
      L1  H     5    24       P1  8028  0.97
      L1  H     8    25       P1  8028  0.86

> <Gold.Chemscore.Hbond.Weighted>
-6.3452

> <Gold.Chemscore.Metal.Weighted>
-0.0000

> <Gold.Chemscore.Lipo.Weighted>
-9.8759

> <Gold.Chemscore.Internal_Hbond.Weighted>
0.0000

> <Gold.Chemscore.DEClash.Weighted>
0.0526

> <Gold.Chemscore.DEInternal.Weighted>
2.9170

> <Gold.Chemscore.Rot.Weighted>
3.4560

> <Gold.Chemscore.Internal.Correction.Weighted>
   9.000000E+99

> <Gold.Protein.RotatedTorsions>
[ 6907 6896 6895 6894 ] final   -4.24 input  -60.11 | X-H torsion
[ 7974 7965 7964 7962 ] final  148.97 input  175.53 | X-H torsion
[ 8008 7997 7996 7995 ] final  -72.00 input   59.86 | X-H torsion
[ 10167 10162 10161 10158 ] final -157.27 input  -65.29 | X-H torsion
[ 10718 10713 10712 10709 ] final -160.71 input   66.30 | X-H torsion
[ 10763 10752 10751 10750 ] final  163.73 input  -60.55 | X-H torsion
[ 11005 11000 10999 10996 ] final  106.44 input  -57.11 | X-H torsion

> <Gold.Protein.ActiveResidues>
 VAL166  LYS551  ARG553  GLY616  TRP617  ASP618  TYR619  PRO620  LYS621  CYS622 
 ASP623  PHE694  ASN695  SER759  ASP760  ASP761  ALA762  ILE779  LEU786  VAL792 
 PHE793  MET794  SER795  GLU796  ALA797  LYS798  CYS799  TRP800  GLU811  SER814 

> <Gold.Protein.RotatedAtoms>
  151.5008  135.1061  159.9828 H   0  0  0  0  0  0  0  0  0  0  0  0  # atno 6907 bound_to 6896
  152.4702  133.8009  159.6963 H   0  0  0  0  0  0  0  0  0  0  0  0  # atno 6908 bound_to 6896
  150.8707  133.7446  159.2988 H   0  0  0  0  0  0  0  0  0  0  0  0  # atno 6909 bound_to 6896
  144.8474  139.6221  143.5989 H   0  0  0  0  0  0  0  0  0  0  0  0  # atno 7974 bound_to 7965
  154.5132  140.0805  156.8030 H   0  0  0  0  0  0  0  0  0  0  0  0  # atno 8008 bound_to 7997
  155.3739  140.3424  155.4226 H   0  0  0  0  0  0  0  0  0  0  0  0  # atno 8009 bound_to 7997
  156.1597  140.1584  156.8620 H   0  0  0  0  0  0  0  0  0  0  0  0  # atno 8010 bound_to 7997
  139.6784  143.9624  152.2323 H   0  0  0  0  0  0  0  0  0  0  0  0  # atno 10167 bound_to 10162
  156.5860  130.8750  151.2877 H   0  0  0  0  0  0  0  0  0  0  0  0  # atno 10718 bound_to 10713
  154.2982  135.2759  155.2623 H   0  0  0  0  0  0  0  0  0  0  0  0  # atno 10763 bound_to 10752
  154.5072  135.5792  153.6580 H   0  0  0  0  0  0  0  0  0  0  0  0  # atno 10764 bound_to 10752
  152.9904  135.6172  154.3151 H   0  0  0  0  0  0  0  0  0  0  0  0  # atno 10765 bound_to 10752
  139.8814  134.9369  156.5667 H   0  0  0  0  0  0  0  0  0  0  0  0  # atno 11005 bound_to 11000
  146.2755  139.6743  142.9266 LP  0  0  0  0  0  0  0  0  0  0  0  0  # atno 17320 bound_to 7965
  145.4570  141.0431  143.2773 LP  0  0  0  0  0  0  0  0  0  0  0  0  # atno 17321 bound_to 7965
  139.9407  144.6683  150.8269 LP  0  0  0  0  0  0  0  0  0  0  0  0  # atno 17342 bound_to 10162
  140.7643  143.3246  151.2544 LP  0  0  0  0  0  0  0  0  0  0  0  0  # atno 17343 bound_to 10162
  157.7315  130.9701  150.1883 LP  0  0  0  0  0  0  0  0  0  0  0  0  # atno 17370 bound_to 10713
  156.2590  130.3709  149.8150 LP  0  0  0  0  0  0  0  0  0  0  0  0  # atno 17371 bound_to 10713
  140.8129  133.8415  155.8826 LP  0  0  0  0  0  0  0  0  0  0  0  0  # atno 17394 bound_to 11000
  140.9490  134.1803  157.4742 LP  0  0  0  0  0  0  0  0  0  0  0  0  # atno 17395 bound_to 11000

$$$$
