AV-unprocessed.smi:506|AV-procd|sdf|2750|dock7
  -GOLD-   2262023213D 1   1.00000     0.00000
 Structure written by MMmdl.
 40 42  0  0  0  0  0  0  0  0  1 V2000
  143.5378  145.3484  154.5465 C   0  0  0  0  0  0  0  0  0  0  0  0
  144.1322  144.5865  155.5871 O   0  0  0  0  0  0  0  0  0  0  0  0
  145.1218  143.6885  155.2495 C   0  0  0  0  0  0  0  0  0  0  0  0
  145.6971  142.9438  156.2977 C   0  0  0  0  0  0  0  0  0  0  0  0
  146.7136  142.0049  156.0409 C   0  0  0  0  0  0  0  0  0  0  0  0
  147.1808  141.7893  154.7299 C   0  0  0  0  0  0  0  0  0  0  0  0
  148.1788  140.8537  154.5679 O   0  0  0  0  0  0  0  0  0  0  0  0
  149.0461  140.5922  155.6634 C   0  0  0  0  0  0  0  0  0  0  0  0
  150.1065  141.6996  155.7449 C   0  0  0  0  0  0  0  0  0  0  0  0
  151.1198  141.4140  156.7507 N   0  0  0  0  0  0  0  0  0  0  0  0
  151.8535  140.2831  156.9050 C   0  0  0  0  0  0  0  0  0  0  0  0
  151.6983  139.1001  155.9996 C   0  0  0  0  0  0  0  0  0  0  0  0
  151.8774  139.4287  154.6385 O   0  0  0  0  0  0  0  0  0  0  0  0
  152.7226  140.2887  157.9165 N   0  0  0  0  0  0  0  0  0  0  0  0
  152.5386  141.5416  158.4682 C   0  0  0  0  0  0  0  0  0  0  0  0
  153.1692  142.1608  159.5710 C   0  0  0  0  0  0  0  0  0  0  0  0
  152.8147  143.4714  159.9528 C   0  0  0  0  0  0  0  0  0  0  0  0
  151.8265  144.1800  159.2394 C   0  0  0  0  0  0  0  0  0  0  0  0
  151.1843  143.5808  158.1388 C   0  0  0  0  0  0  0  0  0  0  0  0
  151.5419  142.2723  157.7614 C   0  0  0  0  0  0  0  0  0  0  0  0
  146.6052  142.5342  153.6718 C   0  0  0  0  0  0  0  0  0  0  0  0
  145.5871  143.4734  153.9288 C   0  0  0  0  0  0  0  0  0  0  0  0
  142.7792  146.0062  154.9707 H   0  0  0  0  0  0  0  0  0  0  0  0
  143.0459  144.7070  153.8139 H   0  0  0  0  0  0  0  0  0  0  0  0
  144.2734  145.9761  154.0415 H   0  0  0  0  0  0  0  0  0  0  0  0
  145.3554  143.0936  157.3113 H   0  0  0  0  0  0  0  0  0  0  0  0
  147.1411  141.4450  156.8600 H   0  0  0  0  0  0  0  0  0  0  0  0
  148.4787  140.5636  156.5946 H   0  0  0  0  0  0  0  0  0  0  0  0
  149.5336  139.6247  155.5355 H   0  0  0  0  0  0  0  0  0  0  0  0
  150.5997  141.8140  154.7792 H   0  0  0  0  0  0  0  0  0  0  0  0
  149.6390  142.6596  155.9626 H   0  0  0  0  0  0  0  0  0  0  0  0
  152.4067  138.3215  156.2812 H   0  0  0  0  0  0  0  0  0  0  0  0
  150.7014  138.6767  156.1274 H   0  0  0  0  0  0  0  0  0  0  0  0
  152.4178  138.7650  154.2384 H   0  0  0  0  0  0  0  0  0  0  0  0
  153.9282  141.6270  160.1234 H   0  0  0  0  0  0  0  0  0  0  0  0
  153.3043  143.9354  160.7963 H   0  0  0  0  0  0  0  0  0  0  0  0
  151.5623  145.1844  159.5366 H   0  0  0  0  0  0  0  0  0  0  0  0
  150.4297  144.1223  157.5878 H   0  0  0  0  0  0  0  0  0  0  0  0
  146.9264  142.4028  152.6498 H   0  0  0  0  0  0  0  0  0  0  0  0
  145.1783  144.0179  153.0913 H   0  0  0  0  0  0  0  0  0  0  0  0
  1  2  1  0  0  0  0
  1 23  1  0  0  0  0
  1 24  1  0  0  0  0
  1 25  1  0  0  0  0
  2  3  1  0  0  0  0
  3 22  1  0  0  0  0
  3  4  2  0  0  0  0
  4  5  1  0  0  0  0
  4 26  1  0  0  0  0
  5  6  2  0  0  0  0
  5 27  1  0  0  0  0
  6  7  1  0  0  0  0
  6 21  1  0  0  0  0
  7  8  1  0  0  0  0
  8  9  1  0  0  0  0
  8 28  1  0  0  0  0
  8 29  1  0  0  0  0
  9 10  1  0  0  0  0
  9 30  1  0  0  0  0
  9 31  1  0  0  0  0
 10 20  1  0  0  0  0
 10 11  1  0  0  0  0
 11 12  1  0  0  0  0
 11 14  2  0  0  0  0
 12 13  1  0  0  0  0
 12 32  1  0  0  0  0
 12 33  1  0  0  0  0
 13 34  1  0  0  0  0
 14 15  1  0  0  0  0
 15 20  2  0  0  0  0
 15 16  1  0  0  0  0
 16 17  2  0  0  0  0
 16 35  1  0  0  0  0
 17 18  1  0  0  0  0
 17 36  1  0  0  0  0
 18 19  2  0  0  0  0
 18 37  1  0  0  0  0
 19 20  1  0  0  0  0
 19 38  1  0  0  0  0
 21 22  2  0  0  0  0
 21 39  1  0  0  0  0
 22 40  1  0  0  0  0
M  END
> <s_m_source_file>
AV-unprocessed.smi

> <i_m_source_file_index>
506

> <i_lp_mmshare_version>
43012

> <i_f3d_flags>
0

> <s_epik_input>
W0NIM11PYzFbY0hdW2NIXWMoW2NIXVtjSF0xKU9bQ0gyXVtDSDJdbihjKG4yKVtDSDJdW09IXSljKGMyMylbY0hdW2NIXVtjSF1bY0hdMw==

> <s_epik_cmdline>
J2VwaWtfcHl0aG9uJywgJy1waCcsICc3LjAnLCAnLXRuJywgJzgnLCAnLW1hJywgJzIwMCcsICctbWV0YWxfYmluZGluZycsICctaW1hZScsICc8aW5maWxlLm1hZT4nLCAnLW9tYWUnLCAnPG91dGZpbGUubWFlPic=

> <r_lp_tautomer_probability>
1

> <r_epik_Ionization_Penalty>
0.0483634

> <r_epik_Ionization_Penalty_Charging>
0

> <r_epik_Ionization_Penalty_Neutral>
0.0483634

> <r_epik_State_Penalty>
0.0411758

> <r_epik_Charging_Adjusted_Penalty>
0.0411758

> <i_epik_Tot_Q>
0

> <i_epik_Tot_abs_Q>
0

> <r_epik_Metal_State_Penalty>
4.26388e-05

> <b_epik_Metal_Only>
0

> <s_lp_Force_Field>
OPLS_2005

> <r_lp_Energy>
17.7354

> <b_lp_Chiralities_Consistent>
1

> <s_lp_Variant>
AV-unprocessed.smi:506-1

> <Gold.Version>
5.8.1

> <Gold.Id.Protein>
6NUR|6NUR_protein|mol2

> <Gold.PLP.Fitness>
50.4641

> <Gold.PLP.PLP>
-45.9380

> <Gold.PLP.part.hbond>
-2.0000

> <Gold.PLP.part.metal>
0.0000

> <Gold.PLP.part.buried>
-7.2601

> <Gold.PLP.part.nonpolar>
-36.0871

> <Gold.PLP.part.repulsive>
0.2113

> <Gold.PLP.ligand.clash>
0.0000

> <Gold.PLP.ligand.torsion>
0.5533

> <Gold.PLP.Chemscore.Hbond>
1.8496

> <Gold.PLP.Chemscore.CHOScore>
0.0000

> <Gold.PLP.Chemscore.Metal>
0.0000

> <Gold.Chemscore.Hbonds>
donor molecule, donor type, donor heavy atom, donor atom, acceptor molecule, acceptor atom, score
      P1  H  7989  7998       L1    13  0.98
      P1  H  7997  8008       L1    14  0.89

> <Gold.PLP.Chemscore.Internal.Correction>
0.0838

> <Gold.Rescore>
     Score         DG    S(hbond)    S(metal)    S(lipo)     H(rot)  DE(clash)    DE(int)     intcor
     16.51     -17.12       1.22        0.00     118.35       2.46       0.22       0.40       ----

> <Gold.Chemscore.Fitness>
16.5079

> <Gold.Chemscore.DG>
-17.1213

> <Gold.Chemscore.ZeroCoef>
-5.4800

> <Gold.Chemscore.Hbond>
1.2224

> <Gold.Chemscore.Metal>
0.0000

> <Gold.Chemscore.Lipo>
118.3452

> <Gold.Chemscore.Internal_Hbond>
0.0000

> <Gold.Chemscore.DEClash>
0.2160

> <Gold.Chemscore.DEInternal>
0.3974

> <Gold.Chemscore.Rot>
2.4562

> <Gold.Chemscore.Internal.Correction>
   9.000000E+99

> <Gold.Chemscore.Hbonds>
donor molecule, donor type, donor heavy atom, donor atom, acceptor molecule, acceptor atom, score
      P1  H  7989  7998       L1    13  0.69
      P1  H  7997  8008       L1    14  0.22

> <Gold.Chemscore.Hbond.Weighted>
-4.0830

> <Gold.Chemscore.Metal.Weighted>
-0.0000

> <Gold.Chemscore.Lipo.Weighted>
-13.8464

> <Gold.Chemscore.Internal_Hbond.Weighted>
0.0000

> <Gold.Chemscore.DEClash.Weighted>
0.2160

> <Gold.Chemscore.DEInternal.Weighted>
0.3974

> <Gold.Chemscore.Rot.Weighted>
6.2880

> <Gold.Chemscore.Internal.Correction.Weighted>
   9.000000E+99

> <Gold.Protein.RotatedTorsions>
[ 6907 6896 6895 6894 ] final   21.10 input  -60.11 | X-H torsion
[ 7974 7965 7964 7962 ] final   13.38 input  175.53 | X-H torsion
[ 8008 7997 7996 7995 ] final  -77.00 input   59.86 | X-H torsion
[ 10167 10162 10161 10158 ] final -135.76 input  -65.29 | X-H torsion
[ 10718 10713 10712 10709 ] final   19.81 input   66.30 | X-H torsion
[ 10763 10752 10751 10750 ] final -120.58 input  -60.55 | X-H torsion
[ 11005 11000 10999 10996 ] final    9.84 input  -57.11 | X-H torsion

> <Gold.Protein.ActiveResidues>
 VAL166  LYS551  ARG553  GLY616  TRP617  ASP618  TYR619  PRO620  LYS621  CYS622 
 ASP623  PHE694  ASN695  SER759  ASP760  ASP761  ALA762  ILE779  LEU786  VAL792 
 PHE793  MET794  SER795  GLU796  ALA797  LYS798  CYS799  TRP800  GLU811  SER814 

> <Gold.Protein.RotatedAtoms>
  151.9066  135.0356  160.0510 H   0  0  0  0  0  0  0  0  0  0  0  0  # atno 6907 bound_to 6896
  152.2314  133.5057  159.5226 H   0  0  0  0  0  0  0  0  0  0  0  0  # atno 6908 bound_to 6896
  150.7026  134.1128  159.4049 H   0  0  0  0  0  0  0  0  0  0  0  0  # atno 6909 bound_to 6896
  146.2330  139.9197  142.8512 H   0  0  0  0  0  0  0  0  0  0  0  0  # atno 7974 bound_to 7965
  154.5556  140.0718  156.8737 H   0  0  0  0  0  0  0  0  0  0  0  0  # atno 8008 bound_to 7997
  155.2909  140.3378  155.4234 H   0  0  0  0  0  0  0  0  0  0  0  0  # atno 8009 bound_to 7997
  156.1999  140.1717  156.7907 H   0  0  0  0  0  0  0  0  0  0  0  0  # atno 8010 bound_to 7997
  139.8746  143.6915  152.2635 H   0  0  0  0  0  0  0  0  0  0  0  0  # atno 10167 bound_to 10162
  157.1157  130.6528  149.5909 H   0  0  0  0  0  0  0  0  0  0  0  0  # atno 10718 bound_to 10713
  154.8647  135.4198  154.2482 H   0  0  0  0  0  0  0  0  0  0  0  0  # atno 10763 bound_to 10752
  153.3434  135.6995  153.6854 H   0  0  0  0  0  0  0  0  0  0  0  0  # atno 10764 bound_to 10752
  153.5823  135.3570  155.2852 H   0  0  0  0  0  0  0  0  0  0  0  0  # atno 10765 bound_to 10752
  140.5212  134.0557  155.7845 H   0  0  0  0  0  0  0  0  0  0  0  0  # atno 11005 bound_to 11000
  145.2149  140.9911  143.4079 LP  0  0  0  0  0  0  0  0  0  0  0  0  # atno 17320 bound_to 7965
  144.9660  139.3930  143.6332 LP  0  0  0  0  0  0  0  0  0  0  0  0  # atno 17321 bound_to 7965
  139.7252  144.7594  151.0890 LP  0  0  0  0  0  0  0  0  0  0  0  0  # atno 17342 bound_to 10162
  140.7755  143.5157  150.9598 LP  0  0  0  0  0  0  0  0  0  0  0  0  # atno 17343 bound_to 10162
  155.9840  130.4862  150.6961 LP  0  0  0  0  0  0  0  0  0  0  0  0  # atno 17370 bound_to 10713
  157.4521  131.0873  151.0835 LP  0  0  0  0  0  0  0  0  0  0  0  0  # atno 17371 bound_to 10713
  141.1333  133.9264  157.2488 LP  0  0  0  0  0  0  0  0  0  0  0  0  # atno 17394 bound_to 11000
  139.9605  135.0155  156.9247 LP  0  0  0  0  0  0  0  0  0  0  0  0  # atno 17395 bound_to 11000

$$$$
