AV-unprocessed.smi:2067|AV-procd|sdf|8425|dock8
  -GOLD-   2272011123D 1   1.00000     0.00000
 Structure written by MMmdl.
 47 48  0  0  0  0  0  0  0  0  1 V2000
  153.2735  141.6010  161.0569 C   0  0  0  0  0  0  0  0  0  0  0  0
  152.9268  142.9021  160.3186 C   0  0  2  0  0  0  0  0  0  0  0  0
  152.1070  143.8673  161.1978 C   0  0  0  0  0  0  0  0  0  0  0  0
  151.8172  145.1850  160.4606 C   0  0  0  0  0  0  0  0  0  0  0  0
  151.1207  144.9338  159.1138 C   0  0  0  0  0  0  0  0  0  0  0  0
  151.9276  143.9594  158.2379 C   0  0  0  0  0  0  0  0  0  0  0  0
  152.2125  142.6347  158.9757 C   0  0  2  0  0  0  0  0  0  0  0  0
  150.9824  141.9662  159.2320 O   0  0  0  0  0  0  0  0  0  0  0  0
  150.1088  141.8947  158.1157 C   0  0  0  0  0  0  0  0  0  0  0  0
  150.5171  140.6995  157.2503 C   0  0  0  0  0  0  0  0  0  0  0  0
  150.0523  139.4435  157.8183 N   0  0  0  0  0  0  0  0  0  0  0  0
  150.2365  138.1789  157.2674 C   0  0  0  0  0  0  0  0  0  0  0  0
  150.9100  138.0029  156.0950 C   0  0  0  0  0  0  0  0  0  0  0  0
  151.5170  139.0747  155.3691 C   0  0  0  0  0  0  0  0  0  0  0  0
  151.9910  139.9530  154.7817 N   0  0  0  0  0  0  0  0  0  0  0  0
  151.1012  136.6824  155.4967 C   0  0  0  0  0  0  0  0  0  0  0  0
  151.7146  136.4971  154.4435 O   0  0  0  0  0  0  0  0  0  0  0  0
  150.5278  135.6189  156.2272 N   0  0  0  0  0  0  0  0  0  0  0  0
  150.6527  134.2660  155.7217 C   0  0  0  0  0  0  0  0  0  0  0  0
  149.8448  135.7721  157.4489 C   0  0  0  0  0  0  0  0  0  0  0  0
  149.3825  134.7952  158.0474 O   0  0  0  0  0  0  0  0  0  0  0  0
  149.7151  137.0845  157.9629 N   0  0  0  0  0  0  0  0  0  0  0  0
  149.0111  137.1668  159.2253 C   0  0  0  0  0  0  0  0  0  0  0  0
  152.3758  141.0481  161.3284 H   0  0  0  0  0  0  0  0  0  0  0  0
  153.8276  141.8053  161.9734 H   0  0  0  0  0  0  0  0  0  0  0  0
  153.8897  140.9496  160.4368 H   0  0  0  0  0  0  0  0  0  0  0  0
  153.8737  143.3943  160.0913 H   0  0  0  0  0  0  0  0  0  0  0  0
  151.1673  143.3967  161.4910 H   0  0  0  0  0  0  0  0  0  0  0  0
  152.6453  144.0784  162.1223 H   0  0  0  0  0  0  0  0  0  0  0  0
  151.1988  145.8313  161.0839 H   0  0  0  0  0  0  0  0  0  0  0  0
  152.7518  145.7215  160.2921 H   0  0  0  0  0  0  0  0  0  0  0  0
  150.1230  144.5291  159.2892 H   0  0  0  0  0  0  0  0  0  0  0  0
  150.9808  145.8780  158.5869 H   0  0  0  0  0  0  0  0  0  0  0  0
  151.3962  143.7744  157.3046 H   0  0  0  0  0  0  0  0  0  0  0  0
  152.8732  144.4261  157.9591 H   0  0  0  0  0  0  0  0  0  0  0  0
  152.8600  142.0056  158.3615 H   0  0  0  0  0  0  0  0  0  0  0  0
  149.0787  141.7566  158.4449 H   0  0  0  0  0  0  0  0  0  0  0  0
  150.1476  142.8243  157.5460 H   0  0  0  0  0  0  0  0  0  0  0  0
  150.1172  140.8380  156.2460 H   0  0  0  0  0  0  0  0  0  0  0  0
  151.6028  140.6567  157.1622 H   0  0  0  0  0  0  0  0  0  0  0  0
  149.1869  139.5520  158.3278 H   0  0  0  0  0  0  0  0  0  0  0  0
  149.6532  133.8281  155.6978 H   0  0  0  0  0  0  0  0  0  0  0  0
  151.3073  133.7275  156.4088 H   0  0  0  0  0  0  0  0  0  0  0  0
  151.0663  134.2537  154.7139 H   0  0  0  0  0  0  0  0  0  0  0  0
  147.9982  136.7964  159.0580 H   0  0  0  0  0  0  0  0  0  0  0  0
  148.9784  138.1940  159.5811 H   0  0  0  0  0  0  0  0  0  0  0  0
  149.5523  136.5499  159.9453 H   0  0  0  0  0  0  0  0  0  0  0  0
  1  2  1  0  0  0  0
  1 24  1  0  0  0  0
  1 25  1  0  0  0  0
  1 26  1  0  0  0  0
  2  7  1  0  0  0  0
  2  3  1  0  0  0  0
  2 27  1  0  0  0  0
  3  4  1  0  0  0  0
  3 28  1  0  0  0  0
  3 29  1  0  0  0  0
  4  5  1  0  0  0  0
  4 30  1  0  0  0  0
  4 31  1  0  0  0  0
  5  6  1  0  0  0  0
  5 32  1  0  0  0  0
  5 33  1  0  0  0  0
  6  7  1  0  0  0  0
  6 34  1  0  0  0  0
  6 35  1  0  0  0  0
  7  8  1  0  0  0  0
  7 36  1  0  0  0  0
  8  9  1  0  0  0  0
  9 10  1  0  0  0  0
  9 37  1  0  0  0  0
  9 38  1  0  0  0  0
 10 11  1  0  0  0  0
 10 39  1  0  0  0  0
 10 40  1  0  0  0  0
 11 12  1  0  0  0  0
 11 41  1  0  0  0  0
 12 22  1  0  0  0  0
 12 13  2  0  0  0  0
 13 14  1  0  0  0  0
 13 16  1  0  0  0  0
 14 15  3  0  0  0  0
 16 17  2  0  0  0  0
 16 18  1  0  0  0  0
 18 19  1  0  0  0  0
 18 20  1  0  0  0  0
 19 42  1  0  0  0  0
 19 43  1  0  0  0  0
 19 44  1  0  0  0  0
 20 21  2  0  0  0  0
 20 22  1  0  0  0  0
 22 23  1  0  0  0  0
 23 45  1  0  0  0  0
 23 46  1  0  0  0  0
 23 47  1  0  0  0  0
M  END
> <s_m_source_file>
AV-unprocessed.smi

> <i_m_source_file_index>
2067

> <i_lp_mmshare_version>
43012

> <i_f3d_flags>
0

> <s_epik_input>
W0NIM11bQ0BASF0xW0NIMl1bQ0gyXVtDSDJdW0NIMl1bQ0BIXTFPW0NIMl1bQ0gyXVtOSF1jMmMoQyNOKWMoPU8pbihbQ0gzXSljKD1PKW4yW0NIM10=

> <s_epik_cmdline>
J2VwaWtfcHl0aG9uJywgJy1waCcsICc3LjAnLCAnLXRuJywgJzgnLCAnLW1hJywgJzIwMCcsICctbWV0YWxfYmluZGluZycsICctaW1hZScsICc8aW5maWxlLm1hZT4nLCAnLW9tYWUnLCAnPG91dGZpbGUubWFlPic=

> <r_epik_Ionization_Penalty>
0.00056529

> <r_epik_Ionization_Penalty_Charging>
3.94678e-10

> <r_epik_Ionization_Penalty_Neutral>
0.000565289

> <r_epik_State_Penalty>
0.000354611

> <r_epik_Charging_Adjusted_Penalty>
0.000354611

> <i_epik_Tot_Q>
0

> <i_epik_Tot_abs_Q>
0

> <r_epik_Metal_State_Penalty>
-0

> <b_epik_Metal_Only>
0

> <s_lp_Force_Field>
OPLS_2005

> <r_lp_Energy>
32.9241

> <b_lp_Chiralities_Consistent>
1

> <s_lp_Variant>
AV-unprocessed.smi:2067-3

> <Gold.Version>
5.8.1

> <Gold.Id.Protein>
6NUR|6NUR_protein|mol2

> <Gold.PLP.Fitness>
54.2179

> <Gold.PLP.PLP>
-45.9848

> <Gold.PLP.part.hbond>
-3.2437

> <Gold.PLP.part.metal>
0.0000

> <Gold.PLP.part.buried>
-7.6214

> <Gold.PLP.part.nonpolar>
-36.7775

> <Gold.PLP.part.repulsive>
1.0941

> <Gold.PLP.ligand.clash>
10.1185

> <Gold.PLP.ligand.torsion>
0.2770

> <Gold.PLP.Chemscore.Hbond>
2.9280

> <Gold.PLP.Chemscore.CHOScore>
0.0000

> <Gold.PLP.Chemscore.Metal>
0.0000

> <Gold.Chemscore.Hbonds>
donor molecule, donor type, donor heavy atom, donor atom, acceptor molecule, acceptor atom, score
      P1  H  6896  6908       L1    21  1.00
      P1  H  7989  7998       L1    15  0.86
      P1  H 10752 10765       L1    17  1.00

> <Gold.PLP.Chemscore.Internal.Correction>
10.1216

> <Gold.Rescore>
     Score         DG    S(hbond)    S(metal)    S(lipo)     H(rot)  DE(clash)    DE(int)     intcor
     19.47     -22.51       2.72        0.00     106.49       1.76       0.06       2.99       ----

> <Gold.Chemscore.Fitness>
19.4660

> <Gold.Chemscore.DG>
-22.5139

> <Gold.Chemscore.ZeroCoef>
-5.4800

> <Gold.Chemscore.Hbond>
2.7172

> <Gold.Chemscore.Metal>
0.0000

> <Gold.Chemscore.Lipo>
106.4937

> <Gold.Chemscore.Internal_Hbond>
0.0000

> <Gold.Chemscore.DEClash>
0.0589

> <Gold.Chemscore.DEInternal>
2.9890

> <Gold.Chemscore.Rot>
1.7583

> <Gold.Chemscore.Internal.Correction>
   9.000000E+99

> <Gold.Chemscore.Hbonds>
donor molecule, donor type, donor heavy atom, donor atom, acceptor molecule, acceptor atom, score
      P1  H  6896  6908       L1    21  0.70
      P1  H  7989  7998       L1    15  0.84
      P1  H 10752 10765       L1    17  0.78

> <Gold.Chemscore.Hbond.Weighted>
-9.0753

> <Gold.Chemscore.Metal.Weighted>
-0.0000

> <Gold.Chemscore.Lipo.Weighted>
-12.4598

> <Gold.Chemscore.Internal_Hbond.Weighted>
0.0000

> <Gold.Chemscore.DEClash.Weighted>
0.0589

> <Gold.Chemscore.DEInternal.Weighted>
2.9890

> <Gold.Chemscore.Rot.Weighted>
4.5012

> <Gold.Chemscore.Internal.Correction.Weighted>
   9.000000E+99

> <Gold.Protein.RotatedTorsions>
[ 6907 6896 6895 6894 ] final  147.09 input  -60.11 | X-H torsion
[ 7974 7965 7964 7962 ] final  -62.47 input  175.53 | X-H torsion
[ 8008 7997 7996 7995 ] final -118.29 input   59.86 | X-H torsion
[ 10167 10162 10161 10158 ] final  100.25 input  -65.29 | X-H torsion
[ 10718 10713 10712 10709 ] final  136.64 input   66.30 | X-H torsion
[ 10763 10752 10751 10750 ] final -176.40 input  -60.55 | X-H torsion
[ 11005 11000 10999 10996 ] final   50.26 input  -57.11 | X-H torsion

> <Gold.Protein.ActiveResidues>
 VAL166  LYS551  ARG553  GLY616  TRP617  ASP618  TYR619  PRO620  LYS621  CYS622 
 ASP623  PHE694  ASN695  SER759  ASP760  ASP761  ALA762  ILE779  LEU786  VAL792 
 PHE793  MET794  SER795  GLU796  ALA797  LYS798  CYS799  TRP800  GLU811  SER814 

> <Gold.Protein.RotatedAtoms>
  152.1593  133.4571  159.4852 H   0  0  0  0  0  0  0  0  0  0  0  0  # atno 6907 bound_to 6896
  150.6905  134.2091  159.4361 H   0  0  0  0  0  0  0  0  0  0  0  0  # atno 6908 bound_to 6896
  151.9992  134.9937  160.0615 H   0  0  0  0  0  0  0  0  0  0  0  0  # atno 6909 bound_to 6896
  145.7909  140.8710  143.0281 H   0  0  0  0  0  0  0  0  0  0  0  0  # atno 7974 bound_to 7965
  155.0973  140.0395  157.2686 H   0  0  0  0  0  0  0  0  0  0  0  0  # atno 8008 bound_to 7997
  154.6785  140.2628  155.6907 H   0  0  0  0  0  0  0  0  0  0  0  0  # atno 8009 bound_to 7997
  156.2686  140.2783  156.1321 H   0  0  0  0  0  0  0  0  0  0  0  0  # atno 8010 bound_to 7997
  139.7544  144.6974  151.0384 H   0  0  0  0  0  0  0  0  0  0  0  0  # atno 10167 bound_to 10162
  157.4445  131.1060  151.0105 H   0  0  0  0  0  0  0  0  0  0  0  0  # atno 10718 bound_to 10713
  154.5728  135.2829  155.0811 H   0  0  0  0  0  0  0  0  0  0  0  0  # atno 10763 bound_to 10752
  154.2177  135.6397  153.5138 H   0  0  0  0  0  0  0  0  0  0  0  0  # atno 10764 bound_to 10752
  153.0063  135.5507  154.6356 H   0  0  0  0  0  0  0  0  0  0  0  0  # atno 10765 bound_to 10752
  140.1033  134.5052  155.8743 H   0  0  0  0  0  0  0  0  0  0  0  0  # atno 11005 bound_to 11000
  144.6782  140.0122  143.7484 LP  0  0  0  0  0  0  0  0  0  0  0  0  # atno 17320 bound_to 7965
  145.9978  139.3066  143.0946 LP  0  0  0  0  0  0  0  0  0  0  0  0  # atno 17321 bound_to 7965
  140.7801  143.4770  151.0069 LP  0  0  0  0  0  0  0  0  0  0  0  0  # atno 17342 bound_to 10162
  139.8457  143.7504  152.3179 LP  0  0  0  0  0  0  0  0  0  0  0  0  # atno 17343 bound_to 10162
  157.0957  130.5961  149.5449 LP  0  0  0  0  0  0  0  0  0  0  0  0  # atno 17370 bound_to 10713
  155.9962  130.5030  150.7486 LP  0  0  0  0  0  0  0  0  0  0  0  0  # atno 17371 bound_to 10713
  141.2111  133.6703  156.6561 LP  0  0  0  0  0  0  0  0  0  0  0  0  # atno 17394 bound_to 11000
  140.3190  134.8023  157.4237 LP  0  0  0  0  0  0  0  0  0  0  0  0  # atno 17395 bound_to 11000

$$$$
