AV-unprocessed.smi:2439|AV-procd|sdf|9613|dock4
  -GOLD-   2272013243D 1   1.00000     0.00000
 Structure written by MMmdl.
 40 42  0  0  0  0  0  0  0  0  1 V2000
  151.7835  140.0806  155.2111 N   0  0  0  0  0  0  0  0  0  0  0  0
  150.6562  140.2161  154.9895 C   0  0  0  0  0  0  0  0  0  0  0  0
  149.2354  140.3866  154.7101 C   0  0  0  0  0  0  0  0  0  0  0  0
  148.6018  139.4905  153.8241 C   0  0  0  0  0  0  0  0  0  0  0  0
  147.2308  139.6491  153.5513 C   0  0  0  0  0  0  0  0  0  0  0  0
  146.5446  140.7040  154.1800 C   0  0  0  0  0  0  0  0  0  0  0  0
  147.1378  141.5683  155.0294 N   0  0  0  0  0  0  0  0  0  0  0  0
  148.4594  141.4232  155.2956 C   0  0  0  0  0  0  0  0  0  0  0  0
  149.0486  142.3404  156.1838 N   0  0  0  0  0  0  0  0  0  0  0  0
  149.8146  141.8861  157.3359 C   0  0  0  0  0  0  0  0  0  0  0  0
  151.3007  142.2718  157.2121 C   0  0  2  0  0  0  0  0  0  0  0  0
  152.1600  141.7291  158.3702 C   0  0  0  0  0  0  0  0  0  0  0  0
  151.9118  142.4208  159.6297 N   0  0  0  0  0  0  0  0  0  0  0  0
  152.7618  141.8929  160.6959 C   0  0  0  0  0  0  0  0  0  0  0  0
  152.4994  142.5737  162.0481 C   0  0  0  0  0  0  0  0  0  0  0  0
  152.6881  144.0921  161.9241 C   0  0  0  0  0  0  0  0  0  0  0  0
  151.8359  144.6360  160.7674 C   0  0  0  0  0  0  0  0  0  0  0  0
  152.1135  143.8627  159.4610 C   0  0  2  0  0  0  0  0  0  0  0  0
  151.2407  144.4125  158.3155 C   0  0  0  0  0  0  0  0  0  0  0  0
  151.4810  143.6860  157.1126 O   0  0  0  0  0  0  0  0  0  0  0  0
  149.1553  138.6888  153.3560 H   0  0  0  0  0  0  0  0  0  0  0  0
  146.7181  138.9785  152.8777 H   0  0  0  0  0  0  0  0  0  0  0  0
  145.4916  140.8583  153.9968 H   0  0  0  0  0  0  0  0  0  0  0  0
  148.8107  143.3200  156.1203 H   0  0  0  0  0  0  0  0  0  0  0  0
  149.3824  142.2871  158.2525 H   0  0  0  0  0  0  0  0  0  0  0  0
  149.7272  140.8009  157.3978 H   0  0  0  0  0  0  0  0  0  0  0  0
  151.6802  141.8371  156.2864 H   0  0  0  0  0  0  0  0  0  0  0  0
  151.9785  140.6602  158.4906 H   0  0  0  0  0  0  0  0  0  0  0  0
  153.2127  141.8326  158.1025 H   0  0  0  0  0  0  0  0  0  0  0  0
  152.5948  140.8201  160.7998 H   0  0  0  0  0  0  0  0  0  0  0  0
  153.8122  142.0165  160.4273 H   0  0  0  0  0  0  0  0  0  0  0  0
  151.4836  142.3530  162.3787 H   0  0  0  0  0  0  0  0  0  0  0  0
  153.1699  142.1721  162.8082 H   0  0  0  0  0  0  0  0  0  0  0  0
  152.4195  144.5854  162.8585 H   0  0  0  0  0  0  0  0  0  0  0  0
  153.7396  144.3165  161.7411 H   0  0  0  0  0  0  0  0  0  0  0  0
  150.7790  144.5549  161.0264 H   0  0  0  0  0  0  0  0  0  0  0  0
  152.0403  145.6981  160.6279 H   0  0  0  0  0  0  0  0  0  0  0  0
  153.1563  144.0345  159.1887 H   0  0  0  0  0  0  0  0  0  0  0  0
  150.1824  144.3713  158.5748 H   0  0  0  0  0  0  0  0  0  0  0  0
  151.4739  145.4619  158.1346 H   0  0  0  0  0  0  0  0  0  0  0  0
  1  2  3  0  0  0  0
  2  3  1  0  0  0  0
  3  8  1  0  0  0  0
  3  4  2  0  0  0  0
  4  5  1  0  0  0  0
  4 21  1  0  0  0  0
  5  6  2  0  0  0  0
  5 22  1  0  0  0  0
  6  7  1  0  0  0  0
  6 23  1  0  0  0  0
  7  8  2  0  0  0  0
  8  9  1  0  0  0  0
  9 10  1  0  0  0  0
  9 24  1  0  0  0  0
 10 11  1  0  0  0  0
 10 25  1  0  0  0  0
 10 26  1  0  0  0  0
 11 20  1  0  0  0  0
 11 12  1  0  0  0  0
 11 27  1  0  0  0  0
 12 13  1  0  0  0  0
 12 28  1  0  0  0  0
 12 29  1  0  0  0  0
 13 18  1  0  0  0  0
 13 14  1  0  0  0  0
 14 15  1  0  0  0  0
 14 30  1  0  0  0  0
 14 31  1  0  0  0  0
 15 16  1  0  0  0  0
 15 32  1  0  0  0  0
 15 33  1  0  0  0  0
 16 17  1  0  0  0  0
 16 34  1  0  0  0  0
 16 35  1  0  0  0  0
 17 18  1  0  0  0  0
 17 36  1  0  0  0  0
 17 37  1  0  0  0  0
 18 19  1  0  0  0  0
 18 38  1  0  0  0  0
 19 20  1  0  0  0  0
 19 39  1  0  0  0  0
 19 40  1  0  0  0  0
M  END
> <s_m_source_file>
AV-unprocessed.smi

> <i_m_source_file_index>
2439

> <i_lp_mmshare_version>
43012

> <i_f3d_flags>
0

> <s_epik_input>
TiNDYzFbY0hdW2NIXVtjSF1uYzFbTkhdW0NIMl1bQ0BIXShbQ0gyXTIpT1tDSDJdW0NAQEhdKE4yMylbQ0gyXVtDSDJdW0NIMl1bQ0gyXTM=

> <s_epik_cmdline>
J2VwaWtfcHl0aG9uJywgJy1waCcsICc3LjAnLCAnLXRuJywgJzgnLCAnLW1hJywgJzIwMCcsICctbWV0YWxfYmluZGluZycsICctaW1hZScsICc8aW5maWxlLm1hZT4nLCAnLW9tYWUnLCAnPG91dGZpbGUubWFlPic=

> <r_epik_Ionization_Penalty>
1.22355

> <r_epik_Ionization_Penalty_Charging>
0

> <r_epik_Ionization_Penalty_Neutral>
1.22355

> <r_epik_State_Penalty>
1.29103

> <r_epik_Charging_Adjusted_Penalty>
1.29103

> <i_epik_Tot_Q>
0

> <i_epik_Tot_abs_Q>
0

> <r_epik_Metal_State_Penalty>
1.29103

> <b_epik_Metal_Only>
0

> <s_lp_Force_Field>
OPLS_2005

> <r_lp_Energy>
40.6055

> <b_lp_Chiralities_Consistent>
1

> <s_lp_Variant>
AV-unprocessed.smi:2439-11

> <Gold.Version>
5.8.1

> <Gold.Id.Protein>
6NUR|6NUR_protein|mol2

> <Gold.PLP.Fitness>
44.8900

> <Gold.PLP.PLP>
-39.8629

> <Gold.PLP.part.hbond>
-1.8873

> <Gold.PLP.part.metal>
0.0000

> <Gold.PLP.part.buried>
-3.5545

> <Gold.PLP.part.nonpolar>
-34.4901

> <Gold.PLP.part.repulsive>
0.4048

> <Gold.PLP.ligand.clash>
0.0000

> <Gold.PLP.ligand.torsion>
0.4895

> <Gold.PLP.Chemscore.Hbond>
1.0000

> <Gold.PLP.Chemscore.CHOScore>
1.0000

> <Gold.PLP.Chemscore.Metal>
0.0000

> <Gold.Chemscore.Hbonds>
donor molecule, donor type, donor heavy atom, donor atom, acceptor molecule, acceptor atom, score
      L1  H     9    24       P1  8028  0.84
      L1  C     6    23       P1 10175  1.00

> <Gold.PLP.Chemscore.Internal.Correction>
0.0061

> <Gold.Rescore>
     Score         DG    S(hbond)    S(metal)    S(lipo)     H(rot)  DE(clash)    DE(int)     intcor
     17.16     -18.73       0.99        0.00     112.21       1.25       0.24       1.33       ----

> <Gold.Chemscore.Fitness>
17.1596

> <Gold.Chemscore.DG>
-18.7250

> <Gold.Chemscore.ZeroCoef>
-5.4800

> <Gold.Chemscore.Hbond>
0.9917

> <Gold.Chemscore.Metal>
0.0000

> <Gold.Chemscore.Lipo>
112.2136

> <Gold.Chemscore.Internal_Hbond>
0.0000

> <Gold.Chemscore.DEClash>
0.2369

> <Gold.Chemscore.DEInternal>
1.3284

> <Gold.Chemscore.Rot>
1.2485

> <Gold.Chemscore.Internal.Correction>
   9.000000E+99

> <Gold.Chemscore.Hbonds>
donor molecule, donor type, donor heavy atom, donor atom, acceptor molecule, acceptor atom, score
      L1  H     9    24       P1  8028  0.83

> <Gold.Chemscore.Hbond.Weighted>
-3.3122

> <Gold.Chemscore.Metal.Weighted>
-0.0000

> <Gold.Chemscore.Lipo.Weighted>
-13.1290

> <Gold.Chemscore.Internal_Hbond.Weighted>
0.0000

> <Gold.Chemscore.DEClash.Weighted>
0.2369

> <Gold.Chemscore.DEInternal.Weighted>
1.3284

> <Gold.Chemscore.Rot.Weighted>
3.1961

> <Gold.Chemscore.Internal.Correction.Weighted>
   9.000000E+99

> <Gold.Protein.RotatedTorsions>
[ 6907 6896 6895 6894 ] final  -97.37 input  -60.11 | X-H torsion
[ 7974 7965 7964 7962 ] final  -84.21 input  175.53 | X-H torsion
[ 8008 7997 7996 7995 ] final  143.17 input   59.86 | X-H torsion
[ 10167 10162 10161 10158 ] final  146.59 input  -65.29 | X-H torsion
[ 10718 10713 10712 10709 ] final   65.37 input   66.30 | X-H torsion
[ 10763 10752 10751 10750 ] final   29.05 input  -60.55 | X-H torsion
[ 11005 11000 10999 10996 ] final   45.04 input  -57.11 | X-H torsion

> <Gold.Protein.ActiveResidues>
 VAL166  LYS551  ARG553  GLY616  TRP617  ASP618  TYR619  PRO620  LYS621  CYS622 
 ASP623  PHE694  ASN695  SER759  ASP760  ASP761  ALA762  ILE779  LEU786  VAL792 
 PHE793  MET794  SER795  GLU796  ALA797  LYS798  CYS799  TRP800  GLU811  SER814 

> <Gold.Protein.RotatedAtoms>
  150.7014  134.1359  159.4086 H   0  0  0  0  0  0  0  0  0  0  0  0  # atno 6907 bound_to 6896
  151.9344  135.0239  160.0541 H   0  0  0  0  0  0  0  0  0  0  0  0  # atno 6908 bound_to 6896
  152.2147  133.4903  159.5166 H   0  0  0  0  0  0  0  0  0  0  0  0  # atno 6909 bound_to 6896
  145.5097  140.9541  143.1714 H   0  0  0  0  0  0  0  0  0  0  0  0  # atno 7974 bound_to 7965
  156.2935  140.2269  156.4847 H   0  0  0  0  0  0  0  0  0  0  0  0  # atno 8008 bound_to 7997
  154.7823  140.0459  157.1158 H   0  0  0  0  0  0  0  0  0  0  0  0  # atno 8009 bound_to 7997
  154.9744  140.3070  155.4977 H   0  0  0  0  0  0  0  0  0  0  0  0  # atno 8010 bound_to 7997
  139.4904  144.5818  151.6857 H   0  0  0  0  0  0  0  0  0  0  0  0  # atno 10167 bound_to 10162
  157.6101  130.9210  149.9968 H   0  0  0  0  0  0  0  0  0  0  0  0  # atno 10718 bound_to 10713
  153.0454  135.6498  154.0832 H   0  0  0  0  0  0  0  0  0  0  0  0  # atno 10763 bound_to 10752
  154.0531  135.2894  155.3339 H   0  0  0  0  0  0  0  0  0  0  0  0  # atno 10764 bound_to 10752
  154.6707  135.5357  153.8200 H   0  0  0  0  0  0  0  0  0  0  0  0  # atno 10765 bound_to 10752
  140.1496  134.4478  155.8391 H   0  0  0  0  0  0  0  0  0  0  0  0  # atno 11005 bound_to 11000
  144.7734  139.6684  143.7185 LP  0  0  0  0  0  0  0  0  0  0  0  0  # atno 17320 bound_to 7965
  146.2174  139.5574  142.9641 LP  0  0  0  0  0  0  0  0  0  0  0  0  # atno 17321 bound_to 7965
  140.5425  144.0556  150.6094 LP  0  0  0  0  0  0  0  0  0  0  0  0  # atno 17342 bound_to 10162
  140.3583  143.2923  152.0412 LP  0  0  0  0  0  0  0  0  0  0  0  0  # atno 17343 bound_to 10162
  156.1201  130.3646  149.9902 LP  0  0  0  0  0  0  0  0  0  0  0  0  # atno 17370 bound_to 10713
  156.7983  130.9281  151.3646 LP  0  0  0  0  0  0  0  0  0  0  0  0  # atno 17371 bound_to 10713
  141.2197  133.6867  156.7397 LP  0  0  0  0  0  0  0  0  0  0  0  0  # atno 17394 bound_to 11000
  140.2621  134.8459  157.3768 LP  0  0  0  0  0  0  0  0  0  0  0  0  # atno 17395 bound_to 11000

$$$$
