AV-unprocessed.smi:180|AV-procd|sdf|1452|dock6
  -GOLD-   2262019253D 1   1.00000     0.00000
 Structure written by MMmdl.
 54 57  0  0  0  0  0  0  0  0  1 V2000
  150.8857  130.3478  158.3441 C   0  0  0  0  0  0  0  0  0  0  0  0
  150.9361  131.5372  157.3911 C   0  0  0  0  0  0  0  0  0  0  0  0
  151.5456  132.5575  157.7104 O   0  0  0  0  0  0  0  0  0  0  0  0
  150.2862  131.3951  156.2264 N   0  0  0  0  0  0  0  0  0  0  0  0
  150.2012  132.4139  155.1857 C   0  0  0  0  0  0  0  0  0  0  0  0
  149.5929  133.7224  155.7185 C   0  0  1  0  0  0  0  0  0  0  0  0
  150.4189  134.9506  155.2923 C   0  0  0  0  0  0  0  0  0  0  0  0
  149.7611  136.1715  155.7396 N   0  0  0  0  0  0  0  0  0  0  0  0
  150.4848  137.2929  155.5438 C   0  0  0  0  0  0  0  0  0  0  0  0
  151.6613  137.1593  154.8847 N   0  0  0  0  0  0  0  0  0  0  0  0
  152.4257  138.2323  154.6600 C   0  0  0  0  0  0  0  0  0  0  0  0
  152.2026  139.5035  155.0015 N   0  0  0  0  0  0  0  0  0  0  0  0
  151.0175  139.6393  155.6635 C   0  0  0  0  0  0  0  0  0  0  0  0
  150.1050  138.5940  155.9792 C   0  0  0  0  0  0  0  0  0  0  0  0
  149.0136  139.1091  156.6684 N   0  0  0  0  0  0  0  0  0  0  0  0
  149.2650  140.3871  156.7510 C   0  0  0  0  0  0  0  0  0  0  0  0
  150.4404  140.7949  156.1607 N   0  0  0  0  0  0  0  0  0  0  0  0
  150.9618  142.1518  156.1032 C   0  0  0  0  0  0  0  0  0  0  0  0
  151.1261  142.8365  157.4844 C   0  0  0  0  0  0  0  0  0  0  0  0
  149.8112  143.1570  157.9017 O   0  0  0  0  0  0  0  0  0  0  0  0
  151.7608  141.9119  158.5457 C   0  0  0  0  0  0  0  0  0  0  0  0
  151.9972  142.6445  159.8787 C   0  0  0  0  0  0  0  0  0  0  0  0
  152.7940  143.8037  159.6631 O   0  0  0  0  0  0  0  0  0  0  0  0
  152.1683  144.7551  158.8099 C   0  0  0  0  0  0  0  0  0  0  0  0
  151.9446  144.1440  157.4148 C   0  0  0  0  0  0  0  0  0  0  0  0
  148.3834  136.2736  155.2785 C   0  0  0  0  0  0  0  0  0  0  0  0
  147.6040  135.0138  155.6892 C   0  0  0  0  0  0  0  0  0  0  0  0
  148.2726  133.8577  155.1930 O   0  0  0  0  0  0  0  0  0  0  0  0
  150.9733  129.4080  157.7979 H   0  0  0  0  0  0  0  0  0  0  0  0
  149.9430  130.3429  158.8917 H   0  0  0  0  0  0  0  0  0  0  0  0
  151.7014  130.3980  159.0662 H   0  0  0  0  0  0  0  0  0  0  0  0
  149.8065  130.5239  156.0520 H   0  0  0  0  0  0  0  0  0  0  0  0
  151.1935  132.5986  154.7704 H   0  0  0  0  0  0  0  0  0  0  0  0
  149.5934  132.0236  154.3691 H   0  0  0  0  0  0  0  0  0  0  0  0
  149.5470  133.6829  156.8087 H   0  0  0  0  0  0  0  0  0  0  0  0
  151.4210  134.8958  155.7199 H   0  0  0  0  0  0  0  0  0  0  0  0
  150.5305  134.9630  154.2076 H   0  0  0  0  0  0  0  0  0  0  0  0
  153.3476  138.0458  154.1295 H   0  0  0  0  0  0  0  0  0  0  0  0
  148.5912  141.0746  157.2413 H   0  0  0  0  0  0  0  0  0  0  0  0
  151.9217  142.1186  155.5857 H   0  0  0  0  0  0  0  0  0  0  0  0
  150.2983  142.7417  155.4686 H   0  0  0  0  0  0  0  0  0  0  0  0
  149.4390  143.7633  157.2796 H   0  0  0  0  0  0  0  0  0  0  0  0
  151.1409  141.0287  158.7054 H   0  0  0  0  0  0  0  0  0  0  0  0
  152.7258  141.5500  158.1916 H   0  0  0  0  0  0  0  0  0  0  0  0
  151.0535  142.9201  160.3518 H   0  0  0  0  0  0  0  0  0  0  0  0
  152.5175  141.9877  160.5759 H   0  0  0  0  0  0  0  0  0  0  0  0
  151.2288  145.0931  159.2495 H   0  0  0  0  0  0  0  0  0  0  0  0
  152.8118  145.6315  158.7328 H   0  0  0  0  0  0  0  0  0  0  0  0
  152.9236  143.9461  156.9791 H   0  0  0  0  0  0  0  0  0  0  0  0
  151.4576  144.8677  156.7600 H   0  0  0  0  0  0  0  0  0  0  0  0
  147.9124  137.1609  155.7038 H   0  0  0  0  0  0  0  0  0  0  0  0
  148.3629  136.3838  154.1935 H   0  0  0  0  0  0  0  0  0  0  0  0
  147.5057  134.9528  156.7742 H   0  0  0  0  0  0  0  0  0  0  0  0
  146.5950  135.0451  155.2783 H   0  0  0  0  0  0  0  0  0  0  0  0
  1  2  1  0  0  0  0
  1 29  1  0  0  0  0
  1 30  1  0  0  0  0
  1 31  1  0  0  0  0
  2  3  2  0  0  0  0
  2  4  1  0  0  0  0
  4  5  1  0  0  0  0
  4 32  1  0  0  0  0
  5  6  1  0  0  0  0
  5 33  1  0  0  0  0
  5 34  1  0  0  0  0
  6 28  1  0  0  0  0
  6  7  1  0  0  0  0
  6 35  1  0  0  0  0
  7  8  1  0  0  0  0
  7 36  1  0  0  0  0
  7 37  1  0  0  0  0
  8  9  1  0  0  0  0
  8 26  1  0  0  0  0
  9 14  1  0  0  0  0
  9 10  2  0  0  0  0
 10 11  1  0  0  0  0
 11 12  2  0  0  0  0
 11 38  1  0  0  0  0
 12 13  1  0  0  0  0
 13 17  1  0  0  0  0
 13 14  2  0  0  0  0
 14 15  1  0  0  0  0
 15 16  2  0  0  0  0
 16 17  1  0  0  0  0
 16 39  1  0  0  0  0
 17 18  1  0  0  0  0
 18 19  1  0  0  0  0
 18 40  1  0  0  0  0
 18 41  1  0  0  0  0
 19 25  1  0  0  0  0
 19 20  1  0  0  0  0
 19 21  1  0  0  0  0
 20 42  1  0  0  0  0
 21 22  1  0  0  0  0
 21 43  1  0  0  0  0
 21 44  1  0  0  0  0
 22 23  1  0  0  0  0
 22 45  1  0  0  0  0
 22 46  1  0  0  0  0
 23 24  1  0  0  0  0
 24 25  1  0  0  0  0
 24 47  1  0  0  0  0
 24 48  1  0  0  0  0
 25 49  1  0  0  0  0
 25 50  1  0  0  0  0
 26 27  1  0  0  0  0
 26 51  1  0  0  0  0
 26 52  1  0  0  0  0
 27 28  1  0  0  0  0
 27 53  1  0  0  0  0
 27 54  1  0  0  0  0
M  END
> <s_m_source_file>
AV-unprocessed.smi

> <i_m_source_file_index>
180

> <i_lp_mmshare_version>
43012

> <i_f3d_flags>
0

> <s_epik_input>
W0NIM11DKD1PKVtOSF1bQ0gyXVtDQEBIXTFbQ0gyXU4oW0NIMl1bQ0gyXU8xKWMobltjSF1uMiljKGMyMyluW2NIXW4zW0NIMl1DNChbT0hdKVtDSDJdW0NIMl1PW0NIMl1bQ0gyXTQ=

> <s_epik_cmdline>
J2VwaWtfcHl0aG9uJywgJy1waCcsICc3LjAnLCAnLXRuJywgJzgnLCAnLW1hJywgJzIwMCcsICctbWV0YWxfYmluZGluZycsICctaW1hZScsICc8aW5maWxlLm1hZT4nLCAnLW9tYWUnLCAnPG91dGZpbGUubWFlPic=

> <r_lp_tautomer_probability>
1

> <r_epik_Ionization_Penalty>
7.38871e-05

> <r_epik_Ionization_Penalty_Charging>
0

> <r_epik_Ionization_Penalty_Neutral>
7.38871e-05

> <r_epik_State_Penalty>
-0

> <r_epik_Charging_Adjusted_Penalty>
0

> <i_epik_Tot_Q>
0

> <i_epik_Tot_abs_Q>
0

> <r_epik_Metal_State_Penalty>
-0

> <b_epik_Metal_Only>
0

> <s_lp_Force_Field>
OPLS_2005

> <r_lp_Energy>
30.2573

> <b_lp_Chiralities_Consistent>
1

> <s_lp_Variant>
AV-unprocessed.smi:180-2

> <Gold.Version>
5.8.1

> <Gold.Id.Protein>
6NUR|6NUR_protein|mol2

> <Gold.PLP.Fitness>
52.7076

> <Gold.PLP.PLP>
-43.4070

> <Gold.PLP.part.hbond>
-4.0000

> <Gold.PLP.part.metal>
0.0000

> <Gold.PLP.part.buried>
-8.9042

> <Gold.PLP.part.nonpolar>
-31.2954

> <Gold.PLP.part.repulsive>
0.3078

> <Gold.PLP.ligand.clash>
0.0000

> <Gold.PLP.ligand.torsion>
0.9007

> <Gold.PLP.Chemscore.Hbond>
3.6361

> <Gold.PLP.Chemscore.CHOScore>
0.0000

> <Gold.PLP.Chemscore.Metal>
0.0000

> <Gold.Chemscore.Hbonds>
donor molecule, donor type, donor heavy atom, donor atom, acceptor molecule, acceptor atom, score
      L1  H    20    42       P1  8028  1.00
      P1  H  6896  6907       L1     3  1.00
      P1  H  7989  7998       L1    12  0.49
      P1  H 10752 10763       L1    10  0.96

> <Gold.PLP.Chemscore.Internal.Correction>
0.1937

> <Gold.Rescore>
     Score         DG    S(hbond)    S(metal)    S(lipo)     H(rot)  DE(clash)    DE(int)     intcor
     15.27     -19.36       3.14        0.00      94.43       2.99       2.39       1.70       ----

> <Gold.Chemscore.Fitness>
15.2686

> <Gold.Chemscore.DG>
-19.3585

> <Gold.Chemscore.ZeroCoef>
-5.4800

> <Gold.Chemscore.Hbond>
3.1381

> <Gold.Chemscore.Metal>
0.0000

> <Gold.Chemscore.Lipo>
94.4254

> <Gold.Chemscore.Internal_Hbond>
0.0000

> <Gold.Chemscore.DEClash>
2.3922

> <Gold.Chemscore.DEInternal>
1.6978

> <Gold.Chemscore.Rot>
2.9885

> <Gold.Chemscore.Internal.Correction>
   9.000000E+99

> <Gold.Chemscore.Hbonds>
donor molecule, donor type, donor heavy atom, donor atom, acceptor molecule, acceptor atom, score
      L1  H    20    42       P1  8028  0.60
      P1  H  6896  6907       L1     3  0.99
      P1  H  7989  7998       L1    12  0.05
      P1  H 10752 10763       L1    10  0.26

> <Gold.Chemscore.Hbond.Weighted>
-10.4813

> <Gold.Chemscore.Metal.Weighted>
-0.0000

> <Gold.Chemscore.Lipo.Weighted>
-11.0478

> <Gold.Chemscore.Internal_Hbond.Weighted>
0.0000

> <Gold.Chemscore.DEClash.Weighted>
2.3922

> <Gold.Chemscore.DEInternal.Weighted>
1.6978

> <Gold.Chemscore.Rot.Weighted>
7.6506

> <Gold.Chemscore.Internal.Correction.Weighted>
   9.000000E+99

> <Gold.Protein.RotatedTorsions>
[ 6907 6896 6895 6894 ] final -169.86 input  -60.11 | X-H torsion
[ 7974 7965 7964 7962 ] final  -45.83 input  175.53 | X-H torsion
[ 8008 7997 7996 7995 ] final -156.68 input   59.86 | X-H torsion
[ 10167 10162 10161 10158 ] final -163.86 input  -65.29 | X-H torsion
[ 10718 10713 10712 10709 ] final  -75.63 input   66.30 | X-H torsion
[ 10763 10752 10751 10750 ] final   44.48 input  -60.55 | X-H torsion
[ 11005 11000 10999 10996 ] final  133.55 input  -57.11 | X-H torsion

> <Gold.Protein.ActiveResidues>
 VAL166  LYS551  ARG553  GLY616  TRP617  ASP618  TYR619  PRO620  LYS621  CYS622 
 ASP623  PHE694  ASN695  SER759  ASP760  ASP761  ALA762  ILE779  LEU786  VAL792 
 PHE793  MET794  SER795  GLU796  ALA797  LYS798  CYS799  TRP800  GLU811  SER814 

> <Gold.Protein.RotatedAtoms>
  151.4984  133.3509  159.2864 H   0  0  0  0  0  0  0  0  0  0  0  0  # atno 6907 bound_to 6896
  150.8789  134.8178  159.7221 H   0  0  0  0  0  0  0  0  0  0  0  0  # atno 6908 bound_to 6896
  152.4749  134.4879  159.9738 H   0  0  0  0  0  0  0  0  0  0  0  0  # atno 6909 bound_to 6896
  145.9780  140.7313  142.9377 H   0  0  0  0  0  0  0  0  0  0  0  0  # atno 7974 bound_to 7965
  155.7208  140.0790  157.2331 H   0  0  0  0  0  0  0  0  0  0  0  0  # atno 8008 bound_to 7997
  154.4045  140.1613  156.2454 H   0  0  0  0  0  0  0  0  0  0  0  0  # atno 8009 bound_to 7997
  155.9198  140.3398  155.6166 H   0  0  0  0  0  0  0  0  0  0  0  0  # atno 8010 bound_to 7997
  139.6291  144.0474  152.2000 H   0  0  0  0  0  0  0  0  0  0  0  0  # atno 10167 bound_to 10162
  156.0201  130.4445  150.3072 H   0  0  0  0  0  0  0  0  0  0  0  0  # atno 10718 bound_to 10713
  152.9840  135.6069  154.3281 H   0  0  0  0  0  0  0  0  0  0  0  0  # atno 10763 bound_to 10752
  154.2986  135.2773  155.2623 H   0  0  0  0  0  0  0  0  0  0  0  0  # atno 10764 bound_to 10752
  154.4886  135.5898  153.6498 H   0  0  0  0  0  0  0  0  0  0  0  0  # atno 10765 bound_to 10752
  139.9859  134.9532  156.9741 H   0  0  0  0  0  0  0  0  0  0  0  0  # atno 11005 bound_to 11000
  144.6854  140.2861  143.7285 LP  0  0  0  0  0  0  0  0  0  0  0  0  # atno 17320 bound_to 7965
  145.7810  139.1891  143.2158 LP  0  0  0  0  0  0  0  0  0  0  0  0  # atno 17321 bound_to 7965
  140.0135  144.6206  150.7627 LP  0  0  0  0  0  0  0  0  0  0  0  0  # atno 17342 bound_to 10162
  140.7428  143.2838  151.3523 LP  0  0  0  0  0  0  0  0  0  0  0  0  # atno 17343 bound_to 10162
  157.1175  131.0238  151.3023 LP  0  0  0  0  0  0  0  0  0  0  0  0  # atno 17370 bound_to 10713
  157.4655  130.7678  149.7275 LP  0  0  0  0  0  0  0  0  0  0  0  0  # atno 17371 bound_to 10713
  140.5004  134.1103  155.7249 LP  0  0  0  0  0  0  0  0  0  0  0  0  # atno 17394 bound_to 11000
  141.1524  133.8945  157.2064 LP  0  0  0  0  0  0  0  0  0  0  0  0  # atno 17395 bound_to 11000

$$$$
