AV-unprocessed.smi:196|AV-procd|sdf|1541|dock2
  -GOLD-   2262019403D 1   1.00000     0.00000
 Structure written by MMmdl.
 47 50  0  0  0  0  0  0  0  0  1 V2000
  146.6295  138.4824  151.7785 C   0  0  0  0  0  0  0  0  0  0  0  0
  146.4787  138.9498  153.2355 C   0  0  1  0  0  0  0  0  0  0  0  0
  145.6700  138.0437  153.9717 O   0  0  0  0  0  0  0  0  0  0  0  0
  145.8946  138.3105  155.3441 C   0  0  0  0  0  0  0  0  0  0  0  0
  147.4093  138.4620  155.4132 C   0  0  0  0  0  0  0  0  0  0  0  0
  147.7795  139.0976  154.0694 C   0  0  1  0  0  0  0  0  0  0  0  0
  148.8505  138.3539  153.5111 O   0  0  0  0  0  0  0  0  0  0  0  0
  148.2410  140.5676  154.2282 C   0  0  0  0  0  0  0  0  0  0  0  0
  149.2786  140.7454  155.2330 N   0  0  0  0  0  0  0  0  0  0  0  0
  150.5184  140.1485  155.2529 C   0  0  0  0  0  0  0  0  0  0  0  0
  151.2759  140.4733  156.2641 N   0  0  0  0  0  0  0  0  0  0  0  0
  150.5004  141.3591  157.0038 C   0  0  0  0  0  0  0  0  0  0  0  0
  150.6994  142.0863  158.2135 C   0  0  0  0  0  0  0  0  0  0  0  0
  151.8509  142.0360  158.9364 N   0  0  0  0  0  0  0  0  0  0  0  0
  152.5529  143.2773  159.2444 C   0  0  0  0  0  0  0  0  0  0  0  0
  153.1780  143.0678  160.6236 C   0  0  1  0  0  0  0  0  0  0  0  0
  152.3312  143.4909  161.5639 F   0  0  0  0  0  0  0  0  0  0  0  0
  153.3239  141.5522  160.7170 C   0  0  0  0  0  0  0  0  0  0  0  0
  152.0935  141.0191  159.9655 C   0  0  2  0  0  0  0  0  0  0  0  0
  152.3616  139.6244  159.3770 C   0  0  0  0  0  0  0  0  0  0  0  0
  151.3986  138.7127  159.5297 N   0  0  0  0  0  0  0  0  0  0  0  0
  153.4209  139.3680  158.8068 O   0  0  0  0  0  0  0  0  0  0  0  0
  149.6681  142.8571  158.6509 N   0  0  0  0  0  0  0  0  0  0  0  0
  148.5287  142.9247  157.9573 C   0  0  0  0  0  0  0  0  0  0  0  0
  148.2093  142.3109  156.8175 N   0  0  0  0  0  0  0  0  0  0  0  0
  149.2346  141.5298  156.3730 C   0  0  0  0  0  0  0  0  0  0  0  0
  154.1167  143.6057  160.7592 H   0  0  0  0  0  0  0  0  0  0  0  0
  151.2417  140.9865  160.6479 H   0  0  0  0  0  0  0  0  0  0  0  0
  147.2618  139.1645  151.2097 H   0  0  0  0  0  0  0  0  0  0  0  0
  145.6588  138.4431  151.2844 H   0  0  0  0  0  0  0  0  0  0  0  0
  147.0676  137.4859  151.7197 H   0  0  0  0  0  0  0  0  0  0  0  0
  145.9390  139.8976  153.2381 H   0  0  0  0  0  0  0  0  0  0  0  0
  145.3938  139.2378  155.6276 H   0  0  0  0  0  0  0  0  0  0  0  0
  145.5212  137.5068  155.9789 H   0  0  0  0  0  0  0  0  0  0  0  0
  147.7253  139.0503  156.2755 H   0  0  0  0  0  0  0  0  0  0  0  0
  147.8557  137.4711  155.5154 H   0  0  0  0  0  0  0  0  0  0  0  0
  149.0435  138.7029  152.6545 H   0  0  0  0  0  0  0  0  0  0  0  0
  148.6188  140.9442  153.2768 H   0  0  0  0  0  0  0  0  0  0  0  0
  147.3969  141.2062  154.4920 H   0  0  0  0  0  0  0  0  0  0  0  0
  150.8487  139.4633  154.4859 H   0  0  0  0  0  0  0  0  0  0  0  0
  153.3301  143.4282  158.4944 H   0  0  0  0  0  0  0  0  0  0  0  0
  151.8995  144.1514  159.2354 H   0  0  0  0  0  0  0  0  0  0  0  0
  154.2469  141.2507  160.2181 H   0  0  0  0  0  0  0  0  0  0  0  0
  153.3738  141.1988  161.7474 H   0  0  0  0  0  0  0  0  0  0  0  0
  151.5258  137.7788  159.1680 H   0  0  0  0  0  0  0  0  0  0  0  0
  150.5477  138.9606  160.0134 H   0  0  0  0  0  0  0  0  0  0  0  0
  147.7642  143.5626  158.3754 H   0  0  0  0  0  0  0  0  0  0  0  0
  1  2  1  0  0  0  0
  1 29  1  0  0  0  0
  1 30  1  0  0  0  0
  1 31  1  0  0  0  0
  2  6  1  0  0  0  0
  2  3  1  0  0  0  0
  2 32  1  0  0  0  0
  3  4  1  0  0  0  0
  4  5  1  0  0  0  0
  4 33  1  0  0  0  0
  4 34  1  0  0  0  0
  5  6  1  0  0  0  0
  5 35  1  0  0  0  0
  5 36  1  0  0  0  0
  6  7  1  0  0  0  0
  6  8  1  0  0  0  0
  7 37  1  0  0  0  0
  8  9  1  0  0  0  0
  8 38  1  0  0  0  0
  8 39  1  0  0  0  0
  9 26  1  0  0  0  0
  9 10  1  0  0  0  0
 10 11  2  0  0  0  0
 10 40  1  0  0  0  0
 11 12  1  0  0  0  0
 12 26  2  0  0  0  0
 12 13  1  0  0  0  0
 13 14  1  0  0  0  0
 13 23  2  0  0  0  0
 14 19  1  0  0  0  0
 14 15  1  0  0  0  0
 15 16  1  0  0  0  0
 15 41  1  0  0  0  0
 15 42  1  0  0  0  0
 16 27  1  0  0  0  0
 16 17  1  0  0  0  0
 16 18  1  0  0  0  0
 18 19  1  0  0  0  0
 18 43  1  0  0  0  0
 18 44  1  0  0  0  0
 19 28  1  0  0  0  0
 19 20  1  0  0  0  0
 20 21  1  0  0  0  0
 20 22  2  0  0  0  0
 21 45  1  0  0  0  0
 21 46  1  0  0  0  0
 23 24  1  0  0  0  0
 24 25  2  0  0  0  0
 24 47  1  0  0  0  0
 25 26  1  0  0  0  0
M  END
> <s_m_source_file>
AV-unprocessed.smi

> <i_m_source_file_index>
196

> <i_lp_mmshare_version>
43012

> <i_f3d_flags>
0

> <s_epik_input>
W0NIMl0xW0NIMl1PW0NAQEhdKFtDSDNdKVtDQEBdMShbT0hdKVtDSDJdbihbY0hdbjIpYyhjMjMpbltjSF1uYzNONFtDSDJdW0NASF0oRilbQ0gyXVtDQEhdNEMoPU8pW05IMl0=

> <s_epik_cmdline>
J2VwaWtfcHl0aG9uJywgJy1waCcsICc3LjAnLCAnLXRuJywgJzgnLCAnLW1hJywgJzIwMCcsICctbWV0YWxfYmluZGluZycsICctaW1hZScsICc8aW5maWxlLm1hZT4nLCAnLW9tYWUnLCAnPG91dGZpbGUubWFlPic=

> <r_lp_tautomer_probability>
1

> <r_epik_Ionization_Penalty>
0.000857933

> <r_epik_Ionization_Penalty_Charging>
0

> <r_epik_Ionization_Penalty_Neutral>
0.000857933

> <r_epik_State_Penalty>
0.000462053

> <r_epik_Charging_Adjusted_Penalty>
0.000462053

> <i_epik_Tot_Q>
0

> <i_epik_Tot_abs_Q>
0

> <r_epik_Metal_State_Penalty>
-0

> <b_epik_Metal_Only>
0

> <s_lp_Force_Field>
OPLS_2005

> <r_lp_Energy>
42.8122

> <b_lp_Chiralities_Consistent>
1

> <s_lp_Variant>
AV-unprocessed.smi:196-14

> <Gold.Version>
5.8.1

> <Gold.Id.Protein>
6NUR|6NUR_protein|mol2

> <Gold.PLP.Fitness>
48.5056

> <Gold.PLP.PLP>
-45.5657

> <Gold.PLP.part.hbond>
-3.4183

> <Gold.PLP.part.metal>
0.0000

> <Gold.PLP.part.buried>
-1.8011

> <Gold.PLP.part.nonpolar>
-40.8764

> <Gold.PLP.part.repulsive>
1.2356

> <Gold.PLP.ligand.clash>
0.0000

> <Gold.PLP.ligand.torsion>
1.6718

> <Gold.PLP.Chemscore.Hbond>
2.0000

> <Gold.PLP.Chemscore.CHOScore>
0.0000

> <Gold.PLP.Chemscore.Metal>
0.0000

> <Gold.Chemscore.Hbonds>
donor molecule, donor type, donor heavy atom, donor atom, acceptor molecule, acceptor atom, score
      L1  H     7    37       P1  7957  0.91
      P1  H  7997  8009       L1    22  0.57
      L1  C    24    47       P1  8029  0.47

> <Gold.PLP.Chemscore.Internal.Correction>
0.2835

> <Gold.Rescore>
     Score         DG    S(hbond)    S(metal)    S(lipo)     H(rot)  DE(clash)    DE(int)     intcor
     11.85     -14.79       1.99        0.00      79.61       2.60       1.37       1.57       ----

> <Gold.Chemscore.Fitness>
11.8507

> <Gold.Chemscore.DG>
-14.7880

> <Gold.Chemscore.ZeroCoef>
-5.4800

> <Gold.Chemscore.Hbond>
1.9886

> <Gold.Chemscore.Metal>
0.0000

> <Gold.Chemscore.Lipo>
79.6063

> <Gold.Chemscore.Internal_Hbond>
0.0000

> <Gold.Chemscore.DEClash>
1.3682

> <Gold.Chemscore.DEInternal>
1.5691

> <Gold.Chemscore.Rot>
2.5968

> <Gold.Chemscore.Internal.Correction>
   9.000000E+99

> <Gold.Chemscore.Hbonds>
donor molecule, donor type, donor heavy atom, donor atom, acceptor molecule, acceptor atom, score
      L1  H     7    37       P1  7957  0.82
      P1  H  7997  8009       L1    22  0.56

> <Gold.Chemscore.Hbond.Weighted>
-6.6418

> <Gold.Chemscore.Metal.Weighted>
-0.0000

> <Gold.Chemscore.Lipo.Weighted>
-9.3139

> <Gold.Chemscore.Internal_Hbond.Weighted>
0.0000

> <Gold.Chemscore.DEClash.Weighted>
1.3682

> <Gold.Chemscore.DEInternal.Weighted>
1.5691

> <Gold.Chemscore.Rot.Weighted>
6.6477

> <Gold.Chemscore.Internal.Correction.Weighted>
   9.000000E+99

> <Gold.Protein.RotatedTorsions>
[ 6907 6896 6895 6894 ] final  107.90 input  -60.11 | X-H torsion
[ 7974 7965 7964 7962 ] final    3.63 input  175.53 | X-H torsion
[ 8008 7997 7996 7995 ] final  145.83 input   59.86 | X-H torsion
[ 10167 10162 10161 10158 ] final  -52.38 input  -65.29 | X-H torsion
[ 10718 10713 10712 10709 ] final   71.53 input   66.30 | X-H torsion
[ 10763 10752 10751 10750 ] final   24.09 input  -60.55 | X-H torsion
[ 11005 11000 10999 10996 ] final   39.97 input  -57.11 | X-H torsion

> <Gold.Protein.ActiveResidues>
 VAL166  LYS551  ARG553  GLY616  TRP617  ASP618  TYR619  PRO620  LYS621  CYS622 
 ASP623  PHE694  ASN695  SER759  ASP760  ASP761  ALA762  ILE779  LEU786  VAL792 
 PHE793  MET794  SER795  GLU796  ALA797  LYS798  CYS799  TRP800  GLU811  SER814 

> <Gold.Protein.RotatedAtoms>
  152.5135  133.9168  159.7514 H   0  0  0  0  0  0  0  0  0  0  0  0  # atno 6907 bound_to 6896
  150.9548  133.6500  159.2772 H   0  0  0  0  0  0  0  0  0  0  0  0  # atno 6908 bound_to 6896
  151.3766  135.0937  159.9535 H   0  0  0  0  0  0  0  0  0  0  0  0  # atno 6909 bound_to 6896
  146.2445  140.0656  142.8365 H   0  0  0  0  0  0  0  0  0  0  0  0  # atno 7974 bound_to 7965
  156.2872  140.2198  156.5279 H   0  0  0  0  0  0  0  0  0  0  0  0  # atno 8008 bound_to 7997
  154.7473  140.0483  157.0885 H   0  0  0  0  0  0  0  0  0  0  0  0  # atno 8009 bound_to 7997
  155.0154  140.3118  155.4817 H   0  0  0  0  0  0  0  0  0  0  0  0  # atno 8010 bound_to 7997
  140.6540  143.2586  151.4640 H   0  0  0  0  0  0  0  0  0  0  0  0  # atno 10167 bound_to 10162
  157.6456  130.9533  150.0802 H   0  0  0  0  0  0  0  0  0  0  0  0  # atno 10718 bound_to 10713
  153.0790  135.6613  154.0086 H   0  0  0  0  0  0  0  0  0  0  0  0  # atno 10763 bound_to 10752
  153.9712  135.2964  155.3428 H   0  0  0  0  0  0  0  0  0  0  0  0  # atno 10764 bound_to 10752
  154.7185  135.5175  153.8845 H   0  0  0  0  0  0  0  0  0  0  0  0  # atno 10765 bound_to 10752
  140.1976  134.3909  155.8113 H   0  0  0  0  0  0  0  0  0  0  0  0  # atno 11005 bound_to 11000
  145.0861  140.9253  143.4796 LP  0  0  0  0  0  0  0  0  0  0  0  0  # atno 17320 bound_to 7965
  145.0819  139.2953  143.5779 LP  0  0  0  0  0  0  0  0  0  0  0  0  # atno 17321 bound_to 7965
  139.5759  144.1819  152.1903 LP  0  0  0  0  0  0  0  0  0  0  0  0  # atno 17342 bound_to 10162
  140.1130  144.5440  150.6912 LP  0  0  0  0  0  0  0  0  0  0  0  0  # atno 17343 bound_to 10162
  156.1780  130.3649  149.9073 LP  0  0  0  0  0  0  0  0  0  0  0  0  # atno 17370 bound_to 10713
  156.7033  130.8941  151.3602 LP  0  0  0  0  0  0  0  0  0  0  0  0  # atno 17371 bound_to 10713
  141.2227  133.7078  156.8203 LP  0  0  0  0  0  0  0  0  0  0  0  0  # atno 17394 bound_to 11000
  140.2089  134.8842  157.3253 LP  0  0  0  0  0  0  0  0  0  0  0  0  # atno 17395 bound_to 11000

$$$$
