AV-unprocessed.smi:922|AV-procd|sdf|4175|dock1
  -GOLD-   22720 2 83D 1   1.00000     0.00000
 Structure written by MMmdl.
 33 34  0  0  0  0  0  0  0  0  1 V2000
  153.2782  138.3614  155.5273 C   0  0  0  0  0  0  0  0  0  0  0  0
  152.0219  139.1441  155.9218 C   0  0  2  0  0  0  0  0  0  0  0  0
  151.4021  139.8775  154.7177 C   0  0  0  0  0  0  0  0  0  0  0  0
  150.2809  140.7031  155.1473 N   0  0  0  0  0  0  0  0  0  0  0  0
  148.9955  140.6610  154.6049 C   0  0  0  0  0  0  0  0  0  0  0  0
  148.2358  141.8971  154.4477 C   0  0  0  0  0  0  0  0  0  0  0  0
  147.0462  141.9384  153.9545 N   0  0  0  0  0  0  0  0  0  0  0  0
  146.4662  140.7614  153.5557 N   0  0  0  0  0  0  0  0  0  0  0  0
  147.0149  139.5270  153.6299 C   0  0  0  0  0  0  0  0  0  0  0  0
  146.4024  138.5323  153.2461 O   0  0  0  0  0  0  0  0  0  0  0  0
  148.3703  139.5133  154.2006 C   0  0  0  0  0  0  0  0  0  0  0  0
  149.1052  137.9553  154.3826 Cl  0  0  0  0  0  0  0  0  0  0  0  0
  150.7047  141.6686  156.1555 C   0  0  0  0  0  0  0  0  0  0  0  0
  151.3386  140.9585  157.3739 C   0  0  0  0  0  0  0  0  0  0  0  0
  152.0206  141.9942  158.2810 C   0  0  0  0  0  0  0  0  0  0  0  0
  150.2934  140.1740  158.1957 C   0  0  0  0  0  0  0  0  0  0  0  0
  152.3899  140.0978  156.9192 O   0  0  0  0  0  0  0  0  0  0  0  0
  145.5362  140.8659  153.1760 H   0  0  0  0  0  0  0  0  0  0  0  0
  153.0493  137.6067  154.7744 H   0  0  0  0  0  0  0  0  0  0  0  0
  153.7054  137.8505  156.3905 H   0  0  0  0  0  0  0  0  0  0  0  0
  154.0432  139.0221  155.1184 H   0  0  0  0  0  0  0  0  0  0  0  0
  151.3065  138.4378  156.3408 H   0  0  0  0  0  0  0  0  0  0  0  0
  152.1471  140.5231  154.2510 H   0  0  0  0  0  0  0  0  0  0  0  0
  151.0906  139.1694  153.9500 H   0  0  0  0  0  0  0  0  0  0  0  0
  148.7424  142.8060  154.7728 H   0  0  0  0  0  0  0  0  0  0  0  0
  151.4233  142.3496  155.6976 H   0  0  0  0  0  0  0  0  0  0  0  0
  149.8626  142.2783  156.4848 H   0  0  0  0  0  0  0  0  0  0  0  0
  151.3018  142.7160  158.6704 H   0  0  0  0  0  0  0  0  0  0  0  0
  152.7872  142.5499  157.7397 H   0  0  0  0  0  0  0  0  0  0  0  0
  152.5043  141.5152  159.1330 H   0  0  0  0  0  0  0  0  0  0  0  0
  149.5567  140.8485  158.6327 H   0  0  0  0  0  0  0  0  0  0  0  0
  150.7659  139.6279  159.0125 H   0  0  0  0  0  0  0  0  0  0  0  0
  149.7418  139.4537  157.5928 H   0  0  0  0  0  0  0  0  0  0  0  0
  1  2  1  0  0  0  0
  1 19  1  0  0  0  0
  1 20  1  0  0  0  0
  1 21  1  0  0  0  0
  2 17  1  0  0  0  0
  2  3  1  0  0  0  0
  2 22  1  0  0  0  0
  3  4  1  0  0  0  0
  3 23  1  0  0  0  0
  3 24  1  0  0  0  0
  4  5  1  0  0  0  0
  4 13  1  0  0  0  0
  5 11  2  0  0  0  0
  5  6  1  0  0  0  0
  6  7  2  0  0  0  0
  6 25  1  0  0  0  0
  7  8  1  0  0  0  0
  8 18  1  0  0  0  0
  8  9  1  0  0  0  0
  9 10  2  0  0  0  0
  9 11  1  0  0  0  0
 11 12  1  0  0  0  0
 13 14  1  0  0  0  0
 13 26  1  0  0  0  0
 13 27  1  0  0  0  0
 14 15  1  0  0  0  0
 14 16  1  0  0  0  0
 14 17  1  0  0  0  0
 15 28  1  0  0  0  0
 15 29  1  0  0  0  0
 15 30  1  0  0  0  0
 16 31  1  0  0  0  0
 16 32  1  0  0  0  0
 16 33  1  0  0  0  0
M  END
> <s_m_source_file>
AV-unprocessed.smi

> <i_m_source_file_index>
922

> <i_lp_mmshare_version>
43012

> <i_f3d_flags>
0

> <s_epik_input>
W0NIM11bQ0BASF0oTzEpW0NIMl1OKFtDSDJdQzEoW0NIM10pW0NIM10pYzJbY0hdbltuSF1jKD1PKWMyQ2w=

> <s_epik_cmdline>
J2VwaWtfcHl0aG9uJywgJy1waCcsICc3LjAnLCAnLXRuJywgJzgnLCAnLW1hJywgJzIwMCcsICctbWV0YWxfYmluZGluZycsICctaW1hZScsICc8aW5maWxlLm1hZT4nLCAnLW9tYWUnLCAnPG91dGZpbGUubWFlPic=

> <r_lp_tautomer_probability>
0.986175

> <r_epik_Ionization_Penalty>
0.00909695

> <r_epik_Ionization_Penalty_Charging>
0.00909694

> <r_epik_Ionization_Penalty_Neutral>
4.87729e-09

> <r_epik_State_Penalty>
1.54226

> <r_epik_Charging_Adjusted_Penalty>
1.55136

> <i_epik_Tot_Q>
0

> <i_epik_Tot_abs_Q>
0

> <r_epik_Metal_State_Penalty>
3.93934

> <b_epik_Metal_Only>
0

> <s_lp_Force_Field>
OPLS_2005

> <r_lp_Energy>
35.5656

> <b_lp_Chiralities_Consistent>
1

> <s_lp_Variant>
AV-unprocessed.smi:922-3

> <Gold.Version>
5.8.1

> <Gold.Id.Protein>
6NUR|6NUR_protein|mol2

> <Gold.PLP.Fitness>
33.8741

> <Gold.PLP.PLP>
-24.9441

> <Gold.PLP.part.hbond>
-2.0000

> <Gold.PLP.part.metal>
0.0000

> <Gold.PLP.part.buried>
4.6668

> <Gold.PLP.part.nonpolar>
-27.1368

> <Gold.PLP.part.repulsive>
0.4201

> <Gold.PLP.ligand.clash>
0.0000

> <Gold.PLP.ligand.torsion>
0.4923

> <Gold.PLP.Chemscore.Hbond>
1.9913

> <Gold.PLP.Chemscore.CHOScore>
1.0000

> <Gold.PLP.Chemscore.Metal>
0.0000

> <Gold.Chemscore.Hbonds>
donor molecule, donor type, donor heavy atom, donor atom, acceptor molecule, acceptor atom, score
      L1  H     8    18       P1 10175  1.00
      P1  H  7997  8010       L1    17  1.00
      L1  C     6    25       P1  8028  1.00

> <Gold.PLP.Chemscore.Internal.Correction>
0.9408

> <Gold.Rescore>
     Score         DG    S(hbond)    S(metal)    S(lipo)     H(rot)  DE(clash)    DE(int)     intcor
     17.24     -19.69       1.81        0.00      69.70       0.00       1.74       0.72       ----

> <Gold.Chemscore.Fitness>
17.2380

> <Gold.Chemscore.DG>
-19.6931

> <Gold.Chemscore.ZeroCoef>
-5.4800

> <Gold.Chemscore.Hbond>
1.8138

> <Gold.Chemscore.Metal>
0.0000

> <Gold.Chemscore.Lipo>
69.7017

> <Gold.Chemscore.Internal_Hbond>
0.0000

> <Gold.Chemscore.DEClash>
1.7388

> <Gold.Chemscore.DEInternal>
0.7163

> <Gold.Chemscore.Rot>
0.0000

> <Gold.Chemscore.Internal.Correction>
   9.000000E+99

> <Gold.Chemscore.Hbonds>
donor molecule, donor type, donor heavy atom, donor atom, acceptor molecule, acceptor atom, score
      L1  H     8    18       P1 10175  0.57
      P1  H  7997  8010       L1    17  0.24

> <Gold.Chemscore.Hbond.Weighted>
-6.0580

> <Gold.Chemscore.Metal.Weighted>
-0.0000

> <Gold.Chemscore.Lipo.Weighted>
-8.1551

> <Gold.Chemscore.Internal_Hbond.Weighted>
0.0000

> <Gold.Chemscore.DEClash.Weighted>
1.7388

> <Gold.Chemscore.DEInternal.Weighted>
0.7163

> <Gold.Chemscore.Rot.Weighted>
0.0000

> <Gold.Chemscore.Internal.Correction.Weighted>
   9.000000E+99

> <Gold.Protein.RotatedTorsions>
[ 6907 6896 6895 6894 ] final   97.60 input  -60.11 | X-H torsion
[ 7974 7965 7964 7962 ] final  -79.57 input  175.53 | X-H torsion
[ 8008 7997 7996 7995 ] final   56.50 input   59.86 | X-H torsion
[ 10167 10162 10161 10158 ] final -160.87 input  -65.29 | X-H torsion
[ 10718 10713 10712 10709 ] final  -40.37 input   66.30 | X-H torsion
[ 10763 10752 10751 10750 ] final  121.64 input  -60.55 | X-H torsion
[ 11005 11000 10999 10996 ] final  -11.24 input  -57.11 | X-H torsion

> <Gold.Protein.ActiveResidues>
 VAL166  LYS551  ARG553  GLY616  TRP617  ASP618  TYR619  PRO620  LYS621  CYS622 
 ASP623  PHE694  ASN695  SER759  ASP760  ASP761  ALA762  ILE779  LEU786  VAL792 
 PHE793  MET794  SER795  GLU796  ALA797  LYS798  CYS799  TRP800  GLU811  SER814 

> <Gold.Protein.RotatedAtoms>
  152.5421  134.0709  159.8193 H   0  0  0  0  0  0  0  0  0  0  0  0  # atno 6907 bound_to 6896
  151.0824  133.5372  159.2627 H   0  0  0  0  0  0  0  0  0  0  0  0  # atno 6908 bound_to 6896
  151.2195  135.0521  159.8998 H   0  0  0  0  0  0  0  0  0  0  0  0  # atno 6909 bound_to 6896
  145.5714  140.9465  143.1393 H   0  0  0  0  0  0  0  0  0  0  0  0  # atno 7974 bound_to 7965
  155.5185  140.3479  155.4402 H   0  0  0  0  0  0  0  0  0  0  0  0  # atno 8008 bound_to 7997
  156.0801  140.1384  156.9750 H   0  0  0  0  0  0  0  0  0  0  0  0  # atno 8009 bound_to 7997
  154.4575  140.0948  156.6775 H   0  0  0  0  0  0  0  0  0  0  0  0  # atno 8010 bound_to 7997
  139.6507  144.0089  152.2159 H   0  0  0  0  0  0  0  0  0  0  0  0  # atno 10167 bound_to 10162
  156.2821  130.4218  149.8326 H   0  0  0  0  0  0  0  0  0  0  0  0  # atno 10718 bound_to 10713
  153.6172  135.3419  155.2999 H   0  0  0  0  0  0  0  0  0  0  0  0  # atno 10763 bound_to 10752
  154.8607  135.4264  154.2246 H   0  0  0  0  0  0  0  0  0  0  0  0  # atno 10764 bound_to 10752
  153.3110  135.7031  153.7188 H   0  0  0  0  0  0  0  0  0  0  0  0  # atno 10765 bound_to 10752
  140.7532  133.8575  155.9062 H   0  0  0  0  0  0  0  0  0  0  0  0  # atno 11005 bound_to 11000
  144.7436  139.7381  143.7301 LP  0  0  0  0  0  0  0  0  0  0  0  0  # atno 17320 bound_to 7965
  146.1781  139.4961  142.9884 LP  0  0  0  0  0  0  0  0  0  0  0  0  # atno 17321 bound_to 7965
  139.9802  144.6433  150.7907 LP  0  0  0  0  0  0  0  0  0  0  0  0  # atno 17342 bound_to 10162
  140.7536  143.3012  151.3076 LP  0  0  0  0  0  0  0  0  0  0  0  0  # atno 17343 bound_to 10162
  156.5769  130.8449  151.3372 LP  0  0  0  0  0  0  0  0  0  0  0  0  # atno 17370 bound_to 10713
  157.7317  130.9705  150.1895 LP  0  0  0  0  0  0  0  0  0  0  0  0  # atno 17371 bound_to 10713
  140.9732  134.1504  157.4559 LP  0  0  0  0  0  0  0  0  0  0  0  0  # atno 17394 bound_to 11000
  139.8784  134.9985  156.5906 LP  0  0  0  0  0  0  0  0  0  0  0  0  # atno 17395 bound_to 11000

$$$$
