AV-unprocessed.smi:709|AV-procd|sdf|3459|dock9
  -GOLD-   22720 0443D 1   1.00000     0.00000
 Structure written by MMmdl.
 48 50  0  0  0  0  0  0  0  0  1 V2000
  145.6914  129.3389  151.8341 C   0  0  0  0  0  0  0  0  0  0  0  0
  146.3855  130.4585  152.6127 C   0  0  0  0  0  0  0  0  0  0  0  0
  145.8621  131.7039  152.1840 O   0  0  0  0  0  0  0  0  0  0  0  0
  145.7406  132.6448  153.2384 C   0  0  1  0  0  0  0  0  0  0  0  0
  147.0746  133.1256  153.8200 C   0  0  0  0  0  0  0  0  0  0  0  0
  146.3947  134.4896  153.9481 C   0  0  1  0  0  0  0  0  0  0  0  0
  147.3026  135.6023  153.6924 N   0  0  0  0  0  0  0  0  0  0  0  0
  147.3077  136.7482  154.3860 C   0  0  0  0  0  0  0  0  0  0  0  0
  146.5610  136.9606  155.3411 O   0  0  0  0  0  0  0  0  0  0  0  0
  148.2271  137.6011  153.8990 N   0  0  0  0  0  0  0  0  0  0  0  0
  148.5186  138.9166  154.2996 C   0  0  0  0  0  0  0  0  0  0  0  0
  149.7308  139.3345  154.7438 C   0  0  0  0  0  0  0  0  0  0  0  0
  149.9415  140.7040  155.1473 C   0  0  0  0  0  0  0  0  0  0  0  0
  148.9062  141.5528  155.0851 C   0  0  0  0  0  0  0  0  0  0  0  0
  147.6386  141.1388  154.6412 N   0  0  0  0  0  0  0  0  0  0  0  0
  146.5701  142.1409  154.6117 C   0  0  0  0  0  0  0  0  0  0  0  0
  147.3825  139.8570  154.2430 C   0  0  0  0  0  0  0  0  0  0  0  0
  146.2592  139.5207  153.8594 O   0  0  0  0  0  0  0  0  0  0  0  0
  145.4882  134.0919  152.7503 C   0  0  0  0  0  0  0  0  0  0  0  0
  144.0526  134.6070  152.7615 C   0  0  0  0  0  0  0  0  0  0  0  0
  143.9965  135.8421  151.8557 C   0  0  0  0  0  0  0  0  0  0  0  0
  145.2275  135.7612  150.9483 C   0  0  0  0  0  0  0  0  0  0  0  0
  145.9384  134.4601  151.3281 C   0  0  0  0  0  0  0  0  0  0  0  0
  146.0631  128.3615  152.1419 H   0  0  0  0  0  0  0  0  0  0  0  0
  145.8661  129.4419  150.7630 H   0  0  0  0  0  0  0  0  0  0  0  0
  144.6142  129.3555  152.0013 H   0  0  0  0  0  0  0  0  0  0  0  0
  146.2163  130.3280  153.6826 H   0  0  0  0  0  0  0  0  0  0  0  0
  147.4620  130.4189  152.4409 H   0  0  0  0  0  0  0  0  0  0  0  0
  145.0257  132.3410  154.0072 H   0  0  0  0  0  0  0  0  0  0  0  0
  147.3540  132.6621  154.7663 H   0  0  0  0  0  0  0  0  0  0  0  0
  147.8921  133.1028  153.0967 H   0  0  0  0  0  0  0  0  0  0  0  0
  145.8433  134.5712  154.8884 H   0  0  0  0  0  0  0  0  0  0  0  0
  147.9509  135.5004  152.9254 H   0  0  0  0  0  0  0  0  0  0  0  0
  148.8158  137.2497  153.1577 H   0  0  0  0  0  0  0  0  0  0  0  0
  150.5689  138.6617  154.8276 H   0  0  0  0  0  0  0  0  0  0  0  0
  150.9103  141.0366  155.4896 H   0  0  0  0  0  0  0  0  0  0  0  0
  148.9837  142.5925  155.3680 H   0  0  0  0  0  0  0  0  0  0  0  0
  145.7358  141.8320  155.2436 H   0  0  0  0  0  0  0  0  0  0  0  0
  146.1967  142.2718  153.5949 H   0  0  0  0  0  0  0  0  0  0  0  0
  146.8992  143.1187  154.9651 H   0  0  0  0  0  0  0  0  0  0  0  0
  143.3832  133.8405  152.3690 H   0  0  0  0  0  0  0  0  0  0  0  0
  143.7038  134.8416  153.7678 H   0  0  0  0  0  0  0  0  0  0  0  0
  143.0698  135.8690  151.2817 H   0  0  0  0  0  0  0  0  0  0  0  0
  144.0359  136.7536  152.4531 H   0  0  0  0  0  0  0  0  0  0  0  0
  144.9591  135.7765  149.8915 H   0  0  0  0  0  0  0  0  0  0  0  0
  145.8796  136.6158  151.1308 H   0  0  0  0  0  0  0  0  0  0  0  0
  147.0201  134.5513  151.2286 H   0  0  0  0  0  0  0  0  0  0  0  0
  145.6314  133.6840  150.6263 H   0  0  0  0  0  0  0  0  0  0  0  0
  1  2  1  0  0  0  0
  1 24  1  0  0  0  0
  1 25  1  0  0  0  0
  1 26  1  0  0  0  0
  2  3  1  0  0  0  0
  2 27  1  0  0  0  0
  2 28  1  0  0  0  0
  3  4  1  0  0  0  0
  4 19  1  0  0  0  0
  4  5  1  0  0  0  0
  4 29  1  0  0  0  0
  5  6  1  0  0  0  0
  5 30  1  0  0  0  0
  5 31  1  0  0  0  0
  6  7  1  0  0  0  0
  6 19  1  0  0  0  0
  6 32  1  0  0  0  0
  7  8  1  0  0  0  0
  7 33  1  0  0  0  0
  8  9  2  0  0  0  0
  8 10  1  0  0  0  0
 10 11  1  0  0  0  0
 10 34  1  0  0  0  0
 11 17  1  0  0  0  0
 11 12  2  0  0  0  0
 12 13  1  0  0  0  0
 12 35  1  0  0  0  0
 13 14  2  0  0  0  0
 13 36  1  0  0  0  0
 14 15  1  0  0  0  0
 14 37  1  0  0  0  0
 15 16  1  0  0  0  0
 15 17  1  0  0  0  0
 16 38  1  0  0  0  0
 16 39  1  0  0  0  0
 16 40  1  0  0  0  0
 17 18  2  0  0  0  0
 19 23  1  0  0  0  0
 19 20  1  0  0  0  0
 20 21  1  0  0  0  0
 20 41  1  0  0  0  0
 20 42  1  0  0  0  0
 21 22  1  0  0  0  0
 21 43  1  0  0  0  0
 21 44  1  0  0  0  0
 22 23  1  0  0  0  0
 22 45  1  0  0  0  0
 22 46  1  0  0  0  0
 23 47  1  0  0  0  0
 23 48  1  0  0  0  0
M  END
> <s_m_source_file>
AV-unprocessed.smi

> <i_m_source_file_index>
709

> <i_lp_mmshare_version>
43012

> <i_f3d_flags>
0

> <s_epik_input>
W0NIMl0xW0NIMl1bQ0gyXVtDSDJdQzEyW0NASF0oT1tDSDJdW0NIM10pW0NIMl1bQ0BIXTJbTkhdQyg9TylbTkhdYzNbY0hdW2NIXVtjSF1uKFtDSDNdKWMzPU8=

> <s_epik_cmdline>
J2VwaWtfcHl0aG9uJywgJy1waCcsICc3LjAnLCAnLXRuJywgJzgnLCAnLW1hJywgJzIwMCcsICctbWV0YWxfYmluZGluZycsICctaW1hZScsICc8aW5maWxlLm1hZT4nLCAnLW9tYWUnLCAnPG91dGZpbGUubWFlPic=

> <r_lp_tautomer_probability>
1

> <r_epik_Ionization_Penalty>
2.50859e-05

> <r_epik_Ionization_Penalty_Charging>
5.10493e-06

> <r_epik_Ionization_Penalty_Neutral>
1.9981e-05

> <r_epik_State_Penalty>
-0

> <r_epik_Charging_Adjusted_Penalty>
5.10493e-06

> <i_epik_Tot_Q>
0

> <i_epik_Tot_abs_Q>
0

> <r_epik_Metal_State_Penalty>
-0

> <b_epik_Metal_Only>
0

> <s_lp_Force_Field>
OPLS_2005

> <r_lp_Energy>
49.4881

> <b_lp_Chiralities_Consistent>
1

> <s_lp_Variant>
AV-unprocessed.smi:709-2

> <Gold.Version>
5.8.1

> <Gold.Id.Protein>
6NUR|6NUR_protein|mol2

> <Gold.PLP.Fitness>
41.6154

> <Gold.PLP.PLP>
-34.5057

> <Gold.PLP.part.hbond>
-1.7578

> <Gold.PLP.part.metal>
0.0000

> <Gold.PLP.part.buried>
-3.6626

> <Gold.PLP.part.nonpolar>
-31.8179

> <Gold.PLP.part.repulsive>
1.8055

> <Gold.PLP.ligand.clash>
0.0000

> <Gold.PLP.ligand.torsion>
0.9950

> <Gold.PLP.Chemscore.Hbond>
1.9200

> <Gold.PLP.Chemscore.CHOScore>
1.0000

> <Gold.PLP.Chemscore.Metal>
0.0000

> <Gold.Chemscore.Hbonds>
donor molecule, donor type, donor heavy atom, donor atom, acceptor molecule, acceptor atom, score
      L1  H     7    33       P1  7948  0.98
      L1  H    10    34       P1  7948  0.96
      L1  C    14    37       P1  8028  1.00

> <Gold.PLP.Chemscore.Internal.Correction>
0.3397

> <Gold.Rescore>
     Score         DG    S(hbond)    S(metal)    S(lipo)     H(rot)  DE(clash)    DE(int)     intcor
     16.21     -17.28       1.92        0.00      75.72       1.36       0.04       1.03       ----

> <Gold.Chemscore.Fitness>
16.2057

> <Gold.Chemscore.DG>
-17.2798

> <Gold.Chemscore.ZeroCoef>
-5.4800

> <Gold.Chemscore.Hbond>
1.9226

> <Gold.Chemscore.Metal>
0.0000

> <Gold.Chemscore.Lipo>
75.7236

> <Gold.Chemscore.Internal_Hbond>
0.0000

> <Gold.Chemscore.DEClash>
0.0437

> <Gold.Chemscore.DEInternal>
1.0304

> <Gold.Chemscore.Rot>
1.3599

> <Gold.Chemscore.Internal.Correction>
   9.000000E+99

> <Gold.Chemscore.Hbonds>
donor molecule, donor type, donor heavy atom, donor atom, acceptor molecule, acceptor atom, score
      L1  H     7    33       P1  7948  0.93
      L1  H    10    34       P1  7948  0.92

> <Gold.Chemscore.Hbond.Weighted>
-6.4214

> <Gold.Chemscore.Metal.Weighted>
-0.0000

> <Gold.Chemscore.Lipo.Weighted>
-8.8597

> <Gold.Chemscore.Internal_Hbond.Weighted>
0.0000

> <Gold.Chemscore.DEClash.Weighted>
0.0437

> <Gold.Chemscore.DEInternal.Weighted>
1.0304

> <Gold.Chemscore.Rot.Weighted>
3.4813

> <Gold.Chemscore.Internal.Correction.Weighted>
   9.000000E+99

> <Gold.Protein.RotatedTorsions>
[ 6907 6896 6895 6894 ] final   -1.26 input  -60.11 | X-H torsion
[ 7974 7965 7964 7962 ] final  130.87 input  175.53 | X-H torsion
[ 8008 7997 7996 7995 ] final   70.23 input   59.86 | X-H torsion
[ 10167 10162 10161 10158 ] final  -54.94 input  -65.29 | X-H torsion
[ 10718 10713 10712 10709 ] final    3.38 input   66.30 | X-H torsion
[ 10763 10752 10751 10750 ] final -133.51 input  -60.55 | X-H torsion
[ 11005 11000 10999 10996 ] final  164.28 input  -57.11 | X-H torsion

> <Gold.Protein.ActiveResidues>
 VAL166  LYS551  ARG553  GLY616  TRP617  ASP618  TYR619  PRO620  LYS621  CYS622 
 ASP623  PHE694  ASN695  SER759  ASP760  ASP761  ALA762  ILE779  LEU786  VAL792 
 PHE793  MET794  SER795  GLU796  ALA797  LYS798  CYS799  TRP800  GLU811  SER814 

> <Gold.Protein.RotatedAtoms>
  151.5489  135.1067  159.9944 H   0  0  0  0  0  0  0  0  0  0  0  0  # atno 6907 bound_to 6896
  152.4501  133.7608  159.6756 H   0  0  0  0  0  0  0  0  0  0  0  0  # atno 6908 bound_to 6896
  150.8427  133.7844  159.3079 H   0  0  0  0  0  0  0  0  0  0  0  0  # atno 6909 bound_to 6896
  145.0133  139.4199  143.5234 H   0  0  0  0  0  0  0  0  0  0  0  0  # atno 7974 bound_to 7965
  155.7356  140.3491  155.5080 H   0  0  0  0  0  0  0  0  0  0  0  0  # atno 8008 bound_to 7997
  155.9142  140.1056  157.1278 H   0  0  0  0  0  0  0  0  0  0  0  0  # atno 8009 bound_to 7997
  154.4060  140.1262  156.4583 H   0  0  0  0  0  0  0  0  0  0  0  0  # atno 8010 bound_to 7997
  140.6402  143.2504  151.5009 H   0  0  0  0  0  0  0  0  0  0  0  0  # atno 10167 bound_to 10162
  156.8770  130.5640  149.5654 H   0  0  0  0  0  0  0  0  0  0  0  0  # atno 10718 bound_to 10713
  154.8731  135.3764  154.4584 H   0  0  0  0  0  0  0  0  0  0  0  0  # atno 10763 bound_to 10752
  153.5255  135.7028  153.5715 H   0  0  0  0  0  0  0  0  0  0  0  0  # atno 10764 bound_to 10752
  153.3943  135.3964  155.1910 H   0  0  0  0  0  0  0  0  0  0  0  0  # atno 10765 bound_to 10752
  140.2443  134.8026  157.3441 H   0  0  0  0  0  0  0  0  0  0  0  0  # atno 11005 bound_to 11000
  146.3473  139.9590  142.8719 LP  0  0  0  0  0  0  0  0  0  0  0  0  # atno 17320 bound_to 7965
  145.1993  140.9847  143.4165 LP  0  0  0  0  0  0  0  0  0  0  0  0  # atno 17321 bound_to 7965
  139.5612  144.2153  152.1693 LP  0  0  0  0  0  0  0  0  0  0  0  0  # atno 17342 bound_to 10162
  140.1421  144.5192  150.6738 LP  0  0  0  0  0  0  0  0  0  0  0  0  # atno 17343 bound_to 10162
  156.0697  130.5732  150.9358 LP  0  0  0  0  0  0  0  0  0  0  0  0  # atno 17370 bound_to 10713
  157.6162  131.0933  150.8705 LP  0  0  0  0  0  0  0  0  0  0  0  0  # atno 17371 bound_to 10713
  140.1622  134.4715  155.7887 LP  0  0  0  0  0  0  0  0  0  0  0  0  # atno 17394 bound_to 11000
  141.2207  133.6906  156.7563 LP  0  0  0  0  0  0  0  0  0  0  0  0  # atno 17395 bound_to 11000

$$$$
