AV-unprocessed.smi:3032|AV-procd|sdf|11569|dock2
  -GOLD-   2272016533D 1   1.00000     0.00000
 Structure written by MMmdl.
 36 37  0  0  0  0  0  0  0  0  2 V2000
  151.2833  145.5316  159.9603 C   0  0  0  0  0  0  0  0  0  0  0  0
  151.7331  144.0789  160.1703 C   0  0  2  0  0  0  0  0  0  0  0  0
  152.2425  143.8491  161.6052 C   0  0  0  0  0  0  0  0  0  0  0  0
  152.6786  142.3924  161.8237 C   0  0  0  0  0  0  0  0  0  0  0  0
  153.7340  141.9549  160.7895 C   0  0  0  0  0  0  0  0  0  0  0  0
  153.3195  142.2241  159.3226 C   0  0  1  0  0  0  0  0  0  0  0  0
  152.3139  141.1967  158.7697 C   0  0  0  0  0  0  0  0  0  0  0  0
  151.4660  141.5198  157.9374 O   0  0  0  0  0  0  0  0  0  0  0  0
  152.4270  139.9474  159.2452 N   0  0  0  0  0  0  0  0  0  0  0  0
  151.6406  138.8033  158.7960 C   0  0  0  0  0  0  0  0  0  0  0  0
  152.4406  137.8599  157.8775 C   0  0  0  0  0  0  0  0  0  0  0  0
  152.3479  138.2280  156.4095 C   0  0  0  0  0  0  0  0  0  0  0  0
  152.4537  139.4745  155.9047 N   0  5  0  0  0  0  0  0  0  0  0  0
  152.2871  139.4503  154.5967 N   0  0  0  0  0  0  0  0  0  0  0  0
  152.0699  138.1595  154.3181 C   0  0  0  0  0  0  0  0  0  0  0  0
  152.0963  137.3868  155.4089 N   0  0  0  0  0  0  0  0  0  0  0  0
  152.8178  143.6760  159.1495 C   0  0  0  0  0  0  0  0  0  0  0  0
  152.1105  146.2280  160.1004 H   0  0  0  0  0  0  0  0  0  0  0  0
  150.4951  145.8035  160.6631 H   0  0  0  0  0  0  0  0  0  0  0  0
  150.8910  145.6778  158.9533 H   0  0  0  0  0  0  0  0  0  0  0  0
  150.8578  143.4472  160.0154 H   0  0  0  0  0  0  0  0  0  0  0  0
  153.0831  144.5140  161.8090 H   0  0  0  0  0  0  0  0  0  0  0  0
  151.4641  144.1070  162.3239 H   0  0  0  0  0  0  0  0  0  0  0  0
  153.0836  142.2781  162.8296 H   0  0  0  0  0  0  0  0  0  0  0  0
  151.8074  141.7399  161.7784 H   0  0  0  0  0  0  0  0  0  0  0  0
  154.6619  142.4912  160.9914 H   0  0  0  0  0  0  0  0  0  0  0  0
  153.9676  140.8984  160.9286 H   0  0  0  0  0  0  0  0  0  0  0  0
  154.2230  142.1219  158.7186 H   0  0  0  0  0  0  0  0  0  0  0  0
  153.1564  139.7600  159.9179 H   0  0  0  0  0  0  0  0  0  0  0  0
  151.3222  138.2570  159.6840 H   0  0  0  0  0  0  0  0  0  0  0  0
  150.7300  139.1392  158.2978 H   0  0  0  0  0  0  0  0  0  0  0  0
  153.4900  137.8586  158.1729 H   0  0  0  0  0  0  0  0  0  0  0  0
  152.0870  136.8353  157.9982 H   0  0  0  0  0  0  0  0  0  0  0  0
  151.8894  137.7826  153.3191 H   0  0  0  0  0  0  0  0  0  0  0  0
  152.4401  143.8194  158.1357 H   0  0  0  0  0  0  0  0  0  0  0  0
  153.6677  144.3532  159.2446 H   0  0  0  0  0  0  0  0  0  0  0  0
  1  2  1  0  0  0  0
  1 18  1  0  0  0  0
  1 19  1  0  0  0  0
  1 20  1  0  0  0  0
  2 17  1  0  0  0  0
  2  3  1  0  0  0  0
  2 21  1  0  0  0  0
  3  4  1  0  0  0  0
  3 22  1  0  0  0  0
  3 23  1  0  0  0  0
  4  5  1  0  0  0  0
  4 24  1  0  0  0  0
  4 25  1  0  0  0  0
  5  6  1  0  0  0  0
  5 26  1  0  0  0  0
  5 27  1  0  0  0  0
  6  7  1  0  0  0  0
  6 17  1  0  0  0  0
  6 28  1  0  0  0  0
  7  8  2  0  0  0  0
  7  9  1  0  0  0  0
  9 10  1  0  0  0  0
  9 29  1  0  0  0  0
 10 11  1  0  0  0  0
 10 30  1  0  0  0  0
 10 31  1  0  0  0  0
 11 32  1  0  0  0  0
 11 33  1  0  0  0  0
 11 12  1  0  0  0  0
 12 16  2  0  0  0  0
 12 13  1  0  0  0  0
 13 14  1  0  0  0  0
 14 15  2  0  0  0  0
 15 16  1  0  0  0  0
 15 34  1  0  0  0  0
 17 35  1  0  0  0  0
 17 36  1  0  0  0  0
M  CHG  1  13  -1
M  END
> <s_m_source_file>
AV-unprocessed.smi

> <i_m_source_file_index>
3032

> <i_lp_mmshare_version>
43012

> <i_f3d_flags>
0

> <s_epik_input>
W0NIM11bQ0BASF0xW0NIMl1bQ0gyXVtDSDJdW0NASF0oW0NIMl0xKUMoPU8pW05IXVtDSDJdW0NIMl1jMm5uW2NIXVtuSF0y

> <s_epik_cmdline>
J2VwaWtfcHl0aG9uJywgJy1waCcsICc3LjAnLCAnLXRuJywgJzgnLCAnLW1hJywgJzIwMCcsICctbWV0YWxfYmluZGluZycsICctaW1hZScsICc8aW5maWxlLm1hZT4nLCAnLW9tYWUnLCAnPG91dGZpbGUubWFlPic=

> <r_lp_tautomer_probability>
0.948284

> <r_epik_Ionization_Penalty>
12.042

> <r_epik_Ionization_Penalty_Charging>
12.042

> <r_epik_Ionization_Penalty_Neutral>
4.36781e-08

> <r_epik_State_Penalty>
4.67286

> <r_epik_Charging_Adjusted_Penalty>
16.7149

> <i_epik_Tot_Q>
-1

> <i_epik_Tot_abs_Q>
1

> <r_epik_Metal_State_Penalty>
0.981637

> <b_epik_Metal_Only>
1

> <s_lp_Force_Field>
OPLS_2005

> <r_lp_Energy>
8.77891

> <b_lp_Chiralities_Consistent>
1

> <s_lp_Variant>
AV-unprocessed.smi:3032-13

> <Gold.Version>
5.8.1

> <Gold.Id.Protein>
6NUR|6NUR_protein|mol2

> <Gold.PLP.Fitness>
50.2753

> <Gold.PLP.PLP>
-40.0239

> <Gold.PLP.part.hbond>
-3.0000

> <Gold.PLP.part.metal>
0.0000

> <Gold.PLP.part.buried>
-5.6721

> <Gold.PLP.part.nonpolar>
-31.1839

> <Gold.PLP.part.repulsive>
0.2321

> <Gold.PLP.ligand.clash>
0.0000

> <Gold.PLP.ligand.torsion>
1.1284

> <Gold.PLP.Chemscore.Hbond>
3.4531

> <Gold.PLP.Chemscore.CHOScore>
0.6957

> <Gold.PLP.Chemscore.Metal>
0.0000

> <Gold.Chemscore.Hbonds>
donor molecule, donor type, donor heavy atom, donor atom, acceptor molecule, acceptor atom, score
      P1  H  7989  7998       L1    14  0.74
      P1  H  7997  8010       L1    13  1.89
      P1  H 10752 10763       L1    16  0.64
      L1  C    15    34       P1  7949  0.69

> <Gold.PLP.Chemscore.Internal.Correction>
0.0619

> <Gold.Rescore>
     Score         DG    S(hbond)    S(metal)    S(lipo)     H(rot)  DE(clash)    DE(int)     intcor
     15.21     -16.28       1.81        0.00      89.13       2.21       0.10       0.97       ----

> <Gold.Chemscore.Fitness>
15.2119

> <Gold.Chemscore.DG>
-16.2840

> <Gold.Chemscore.ZeroCoef>
-5.4800

> <Gold.Chemscore.Hbond>
1.8102

> <Gold.Chemscore.Metal>
0.0000

> <Gold.Chemscore.Lipo>
89.1289

> <Gold.Chemscore.Internal_Hbond>
0.0000

> <Gold.Chemscore.DEClash>
0.0997

> <Gold.Chemscore.DEInternal>
0.9725

> <Gold.Chemscore.Rot>
2.2149

> <Gold.Chemscore.Internal.Correction>
   9.000000E+99

> <Gold.Chemscore.Hbonds>
donor molecule, donor type, donor heavy atom, donor atom, acceptor molecule, acceptor atom, score
      P1  H  7989  7998       L1    14  0.73
      P1  H  7997  8010       L1    13  0.37
      P1  H 10752 10763       L1    16  0.28

> <Gold.Chemscore.Hbond.Weighted>
-6.0462

> <Gold.Chemscore.Metal.Weighted>
-0.0000

> <Gold.Chemscore.Lipo.Weighted>
-10.4281

> <Gold.Chemscore.Internal_Hbond.Weighted>
0.0000

> <Gold.Chemscore.DEClash.Weighted>
0.0997

> <Gold.Chemscore.DEInternal.Weighted>
0.9725

> <Gold.Chemscore.Rot.Weighted>
5.6702

> <Gold.Chemscore.Internal.Correction.Weighted>
   9.000000E+99

> <Gold.Protein.RotatedTorsions>
[ 6907 6896 6895 6894 ] final -113.40 input  -60.11 | X-H torsion
[ 7974 7965 7964 7962 ] final -104.97 input  175.53 | X-H torsion
[ 8008 7997 7996 7995 ] final   71.88 input   59.86 | X-H torsion
[ 10167 10162 10161 10158 ] final -148.05 input  -65.29 | X-H torsion
[ 10718 10713 10712 10709 ] final -100.74 input   66.30 | X-H torsion
[ 10763 10752 10751 10750 ] final   69.61 input  -60.55 | X-H torsion
[ 11005 11000 10999 10996 ] final  -47.13 input  -57.11 | X-H torsion

> <Gold.Protein.ActiveResidues>
 VAL166  LYS551  ARG553  GLY616  TRP617  ASP618  TYR619  PRO620  LYS621  CYS622 
 ASP623  PHE694  ASN695  SER759  ASP760  ASP761  ALA762  ILE779  LEU786  VAL792 
 PHE793  MET794  SER795  GLU796  ALA797  LYS798  CYS799  TRP800  GLU811  SER814 

> <Gold.Protein.RotatedAtoms>
  150.7827  133.8950  159.3324 H   0  0  0  0  0  0  0  0  0  0  0  0  # atno 6907 bound_to 6896
  151.6808  135.0960  160.0225 H   0  0  0  0  0  0  0  0  0  0  0  0  # atno 6908 bound_to 6896
  152.3882  133.6603  159.6251 H   0  0  0  0  0  0  0  0  0  0  0  0  # atno 6909 bound_to 6896
  145.2364  140.9189  143.3175 H   0  0  0  0  0  0  0  0  0  0  0  0  # atno 7974 bound_to 7965
  155.7606  140.3486  155.5196 H   0  0  0  0  0  0  0  0  0  0  0  0  # atno 8008 bound_to 7997
  155.8918  140.1019  157.1434 H   0  0  0  0  0  0  0  0  0  0  0  0  # atno 8009 bound_to 7997
  154.4034  140.1303  156.4312 H   0  0  0  0  0  0  0  0  0  0  0  0  # atno 8010 bound_to 7997
  139.7566  143.8439  152.2598 H   0  0  0  0  0  0  0  0  0  0  0  0  # atno 10167 bound_to 10162
  156.0172  130.5341  150.6861 H   0  0  0  0  0  0  0  0  0  0  0  0  # atno 10718 bound_to 10713
  153.0296  135.5204  154.7315 H   0  0  0  0  0  0  0  0  0  0  0  0  # atno 10763 bound_to 10752
  154.6341  135.2904  155.0184 H   0  0  0  0  0  0  0  0  0  0  0  0  # atno 10764 bound_to 10752
  154.1125  135.6620  153.4940 H   0  0  0  0  0  0  0  0  0  0  0  0  # atno 10765 bound_to 10752
  141.0621  133.6705  156.3253 H   0  0  0  0  0  0  0  0  0  0  0  0  # atno 11005 bound_to 11000
  144.9629  139.3960  143.6347 LP  0  0  0  0  0  0  0  0  0  0  0  0  # atno 17320 bound_to 7965
  146.3340  139.8691  142.8843 LP  0  0  0  0  0  0  0  0  0  0  0  0  # atno 17321 bound_to 7965
  139.8432  144.7200  150.9304 LP  0  0  0  0  0  0  0  0  0  0  0  0  # atno 17342 bound_to 10162
  140.7803  143.3964  151.1222 LP  0  0  0  0  0  0  0  0  0  0  0  0  # atno 17343 bound_to 10162
  157.4553  131.0877  151.0803 LP  0  0  0  0  0  0  0  0  0  0  0  0  # atno 17370 bound_to 10713
  157.1307  130.6101  149.5529 LP  0  0  0  0  0  0  0  0  0  0  0  0  # atno 17371 bound_to 10713
  140.5847  134.5711  157.5487 LP  0  0  0  0  0  0  0  0  0  0  0  0  # atno 17394 bound_to 11000
  139.9442  134.7731  156.0602 LP  0  0  0  0  0  0  0  0  0  0  0  0  # atno 17395 bound_to 11000

$$$$
