AV-unprocessed.smi:243|AV-procd|sdf|1852|dock7
  -GOLD-   2262020473D 1   1.00000     0.00000
 Structure written by MMmdl.
 58 61  0  0  0  0  0  0  0  0  2 V2000
  153.0858  142.4235  159.1188 C   0  0  0  0  0  0  0  0  0  0  0  0
  152.8288  140.9234  158.8923 C   0  0  0  0  0  0  0  0  0  0  0  0
  151.9846  140.6186  157.7084 N   0  3  2  0  0  0  0  0  0  0  0  0
  151.1070  141.7380  157.2846 C   0  0  0  0  0  0  0  0  0  0  0  0
  150.4915  141.4433  155.9093 C   0  0  0  0  0  0  0  0  0  0  0  0
  149.7243  140.1001  155.9339 C   0  0  1  0  0  0  0  0  0  0  0  0
  148.9506  139.7905  154.7204 N   0  0  0  0  0  0  0  0  0  0  0  0
  149.1330  140.6093  153.5271 C   0  0  0  0  0  0  0  0  0  0  0  0
  147.9175  138.9079  154.6846 C   0  0  0  0  0  0  0  0  0  0  0  0
  147.4340  138.3847  155.8405 N   0  0  0  0  0  0  0  0  0  0  0  0
  146.4107  137.5263  155.8225 C   0  0  0  0  0  0  0  0  0  0  0  0
  145.7320  137.0611  154.7732 N   0  0  0  0  0  0  0  0  0  0  0  0
  146.2095  137.5808  153.6067 C   0  0  0  0  0  0  0  0  0  0  0  0
  147.2833  138.5068  153.4736 C   0  0  0  0  0  0  0  0  0  0  0  0
  147.4821  138.8056  152.1306 N   0  0  0  0  0  0  0  0  0  0  0  0
  146.5774  138.1013  151.5078 C   0  0  0  0  0  0  0  0  0  0  0  0
  145.7771  137.3272  152.3168 N   0  0  0  0  0  0  0  0  0  0  0  0
  144.7064  136.4391  151.8917 C   0  0  0  0  0  0  0  0  0  0  0  0
  145.1863  135.3032  150.9576 C   0  0  2  0  0  0  0  0  0  0  0  0
  145.6333  135.8655  149.7362 O   0  0  0  0  0  0  0  0  0  0  0  0
  144.1183  134.2578  150.6450 C   0  0  0  0  0  0  0  0  0  0  0  0
  144.9277  132.9771  150.4976 C   0  0  0  0  0  0  0  0  0  0  0  0
  145.8972  133.1090  151.5225 O   0  0  0  0  0  0  0  0  0  0  0  0
  146.3328  134.4641  151.5568 C   0  0  0  0  0  0  0  0  0  0  0  0
  150.6218  138.9396  156.4465 C   0  0  1  0  0  0  0  0  0  0  0  0
  151.6971  138.4572  155.4564 C   0  0  0  0  0  0  0  0  0  0  0  0
  151.2495  139.3305  157.8019 C   0  0  0  0  0  0  0  0  0  0  0  0
  153.7110  142.5711  159.9995 H   0  0  0  0  0  0  0  0  0  0  0  0
  152.1605  142.9745  159.2858 H   0  0  0  0  0  0  0  0  0  0  0  0
  153.6059  142.8794  158.2765 H   0  0  0  0  0  0  0  0  0  0  0  0
  153.7817  140.4043  158.7838 H   0  0  0  0  0  0  0  0  0  0  0  0
  152.3551  140.4985  159.7779 H   0  0  0  0  0  0  0  0  0  0  0  0
  150.3162  141.8950  158.0188 H   0  0  0  0  0  0  0  0  0  0  0  0
  151.6853  142.6614  157.2341 H   0  0  0  0  0  0  0  0  0  0  0  0
  149.8190  142.2545  155.6280 H   0  0  0  0  0  0  0  0  0  0  0  0
  151.2950  141.4357  155.1748 H   0  0  0  0  0  0  0  0  0  0  0  0
  148.9533  140.2320  156.6948 H   0  0  0  0  0  0  0  0  0  0  0  0
  148.1717  140.9214  153.1174 H   0  0  0  0  0  0  0  0  0  0  0  0
  149.6716  140.0538  152.7598 H   0  0  0  0  0  0  0  0  0  0  0  0
  149.7103  141.5074  153.7441 H   0  0  0  0  0  0  0  0  0  0  0  0
  146.0898  137.1593  156.7862 H   0  0  0  0  0  0  0  0  0  0  0  0
  146.4751  138.1209  150.4324 H   0  0  0  0  0  0  0  0  0  0  0  0
  144.2275  136.0233  152.7794 H   0  0  0  0  0  0  0  0  0  0  0  0
  143.9479  137.0412  151.3897 H   0  0  0  0  0  0  0  0  0  0  0  0
  145.0725  136.5937  149.5177 H   0  0  0  0  0  0  0  0  0  0  0  0
  143.4412  134.1447  151.4926 H   0  0  0  0  0  0  0  0  0  0  0  0
  143.5147  134.4905  149.7666 H   0  0  0  0  0  0  0  0  0  0  0  0
  144.3249  132.0780  150.6251 H   0  0  0  0  0  0  0  0  0  0  0  0
  145.4203  132.9313  149.5250 H   0  0  0  0  0  0  0  0  0  0  0  0
  147.2570  134.5628  150.9845 H   0  0  0  0  0  0  0  0  0  0  0  0
  146.5576  134.7414  152.5872 H   0  0  0  0  0  0  0  0  0  0  0  0
  149.9820  138.0787  156.6411 H   0  0  0  0  0  0  0  0  0  0  0  0
  152.3674  139.2626  155.1566 H   0  0  0  0  0  0  0  0  0  0  0  0
  151.2445  138.0394  154.5574 H   0  0  0  0  0  0  0  0  0  0  0  0
  152.3078  137.6687  155.8964 H   0  0  0  0  0  0  0  0  0  0  0  0
  151.9227  138.5422  158.1418 H   0  0  0  0  0  0  0  0  0  0  0  0
  150.4642  139.4146  158.5539 H   0  0  0  0  0  0  0  0  0  0  0  0
  152.6402  140.4942  156.9499 H   0  0  0  0  0  0  0  0  0  0  0  0
  1  2  1  0  0  0  0
  1 28  1  0  0  0  0
  1 29  1  0  0  0  0
  1 30  1  0  0  0  0
  2  3  1  0  0  0  0
  2 31  1  0  0  0  0
  2 32  1  0  0  0  0
  3 27  1  0  0  0  0
  3  4  1  0  0  0  0
  3 58  1  0  0  0  0
  4  5  1  0  0  0  0
  4 33  1  0  0  0  0
  4 34  1  0  0  0  0
  5  6  1  0  0  0  0
  5 35  1  0  0  0  0
  5 36  1  0  0  0  0
  6  7  1  0  0  0  0
  6 25  1  0  0  0  0
  6 37  1  0  0  0  0
  7  8  1  0  0  0  0
  7  9  1  0  0  0  0
  8 38  1  0  0  0  0
  8 39  1  0  0  0  0
  8 40  1  0  0  0  0
  9 14  1  0  0  0  0
  9 10  2  0  0  0  0
 10 11  1  0  0  0  0
 11 12  2  0  0  0  0
 11 41  1  0  0  0  0
 12 13  1  0  0  0  0
 13 17  1  0  0  0  0
 13 14  2  0  0  0  0
 14 15  1  0  0  0  0
 15 16  2  0  0  0  0
 16 17  1  0  0  0  0
 16 42  1  0  0  0  0
 17 18  1  0  0  0  0
 18 19  1  0  0  0  0
 18 43  1  0  0  0  0
 18 44  1  0  0  0  0
 19 24  1  0  0  0  0
 19 20  1  0  0  0  0
 19 21  1  0  0  0  0
 20 45  1  0  0  0  0
 21 22  1  0  0  0  0
 21 46  1  0  0  0  0
 21 47  1  0  0  0  0
 22 23  1  0  0  0  0
 22 48  1  0  0  0  0
 22 49  1  0  0  0  0
 23 24  1  0  0  0  0
 24 50  1  0  0  0  0
 24 51  1  0  0  0  0
 25 26  1  0  0  0  0
 25 27  1  0  0  0  0
 25 52  1  0  0  0  0
 26 53  1  0  0  0  0
 26 54  1  0  0  0  0
 26 55  1  0  0  0  0
 27 56  1  0  0  0  0
 27 57  1  0  0  0  0
M  CHG  1   3   1
M  END
> <s_m_source_file>
AV-unprocessed.smi

> <i_m_source_file_index>
243

> <i_lp_mmshare_version>
43012

> <i_f3d_flags>
0

> <s_epik_input>
W0NIM11bQ0gyXU4xW0NIMl1bQ0gyXVtDQEhdKFtDQEBIXShbQ0gzXSlbQ0gyXTEpTihbQ0gzXSljKG5bY0hdbjIpYyhjMjMpbltjSF1uM1tDSDJdW0NAQF00KFtPSF0pW0NIMl1bQ0gyXU9bQ0gyXTQ=

> <s_epik_cmdline>
J2VwaWtfcHl0aG9uJywgJy1waCcsICc3LjAnLCAnLXRuJywgJzgnLCAnLW1hJywgJzIwMCcsICctbWV0YWxfYmluZGluZycsICctaW1hZScsICc8aW5maWxlLm1hZT4nLCAnLW9tYWUnLCAnPG91dGZpbGUubWFlPic=

> <r_lp_tautomer_probability>
1

> <r_epik_Ionization_Penalty>
0.00253099

> <r_epik_Ionization_Penalty_Charging>
0.00137877

> <r_epik_Ionization_Penalty_Neutral>
0.00115221

> <r_epik_State_Penalty>
-0

> <r_epik_Charging_Adjusted_Penalty>
0.00137877

> <i_epik_Tot_Q>
1

> <i_epik_Tot_abs_Q>
1

> <r_epik_Metal_State_Penalty>
-0

> <b_epik_Metal_Only>
0

> <s_lp_Force_Field>
OPLS_2005

> <r_lp_Energy>
49.3868

> <b_lp_Chiralities_Consistent>
1

> <s_lp_Variant>
AV-unprocessed.smi:243-5

> <Gold.Version>
5.8.1

> <Gold.Id.Protein>
6NUR|6NUR_protein|mol2

> <Gold.PLP.Fitness>
42.3738

> <Gold.PLP.PLP>
-37.7953

> <Gold.PLP.part.hbond>
-2.0000

> <Gold.PLP.part.metal>
0.0000

> <Gold.PLP.part.buried>
-3.5551

> <Gold.PLP.part.nonpolar>
-34.6133

> <Gold.PLP.part.repulsive>
1.5382

> <Gold.PLP.ligand.clash>
0.0000

> <Gold.PLP.ligand.torsion>
0.7542

> <Gold.PLP.Chemscore.Hbond>
1.0000

> <Gold.PLP.Chemscore.CHOScore>
0.9295

> <Gold.PLP.Chemscore.Metal>
0.0000

> <Gold.Chemscore.Hbonds>
donor molecule, donor type, donor heavy atom, donor atom, acceptor molecule, acceptor atom, score
      L1  H    20    45       P1 10171  0.28
      L1  C    16    42       P1 10171  0.34

> <Gold.PLP.Chemscore.Internal.Correction>
0.2986

> <Gold.Rescore>
     Score         DG    S(hbond)    S(metal)    S(lipo)     H(rot)  DE(clash)    DE(int)     intcor
     10.25     -13.52       0.97        0.00      89.93       2.24       0.30       2.98       ----

> <Gold.Chemscore.Fitness>
10.2504

> <Gold.Chemscore.DG>
-13.5233

> <Gold.Chemscore.ZeroCoef>
-5.4800

> <Gold.Chemscore.Hbond>
0.9733

> <Gold.Chemscore.Metal>
0.0000

> <Gold.Chemscore.Lipo>
89.9274

> <Gold.Chemscore.Internal_Hbond>
0.0000

> <Gold.Chemscore.DEClash>
0.2967

> <Gold.Chemscore.DEInternal>
2.9762

> <Gold.Chemscore.Rot>
2.2379

> <Gold.Chemscore.Internal.Correction>
   9.000000E+99

> <Gold.Chemscore.Hbonds>
donor molecule, donor type, donor heavy atom, donor atom, acceptor molecule, acceptor atom, score
      L1  H    20    45       P1 10171  0.29

> <Gold.Chemscore.Hbond.Weighted>
-3.2509

> <Gold.Chemscore.Metal.Weighted>
-0.0000

> <Gold.Chemscore.Lipo.Weighted>
-10.5215

> <Gold.Chemscore.Internal_Hbond.Weighted>
0.0000

> <Gold.Chemscore.DEClash.Weighted>
0.2967

> <Gold.Chemscore.DEInternal.Weighted>
2.9762

> <Gold.Chemscore.Rot.Weighted>
5.7291

> <Gold.Chemscore.Internal.Correction.Weighted>
   9.000000E+99

> <Gold.Protein.RotatedTorsions>
[ 6907 6896 6895 6894 ] final -164.36 input  -60.11 | X-H torsion
[ 7974 7965 7964 7962 ] final  -38.65 input  175.53 | X-H torsion
[ 8008 7997 7996 7995 ] final  -28.08 input   59.86 | X-H torsion
[ 10167 10162 10161 10158 ] final  169.10 input  -65.29 | X-H torsion
[ 10718 10713 10712 10709 ] final -172.62 input   66.30 | X-H torsion
[ 10763 10752 10751 10750 ] final   68.07 input  -60.55 | X-H torsion
[ 11005 11000 10999 10996 ] final    8.22 input  -57.11 | X-H torsion

> <Gold.Protein.ActiveResidues>
 VAL166  LYS551  ARG553  GLY616  TRP617  ASP618  TYR619  PRO620  LYS621  CYS622 
 ASP623  PHE694  ASN695  SER759  ASP760  ASP761  ALA762  ILE779  LEU786  VAL792 
 PHE793  MET794  SER795  GLU796  ALA797  LYS798  CYS799  TRP800  GLU811  SER814 

> <Gold.Protein.RotatedAtoms>
  151.4107  133.3728  159.2743 H   0  0  0  0  0  0  0  0  0  0  0  0  # atno 6907 bound_to 6896
  150.9365  134.8779  159.7596 H   0  0  0  0  0  0  0  0  0  0  0  0  # atno 6908 bound_to 6896
  152.5052  134.4055  159.9483 H   0  0  0  0  0  0  0  0  0  0  0  0  # atno 6909 bound_to 6896
  146.0467  140.6536  142.9061 H   0  0  0  0  0  0  0  0  0  0  0  0  # atno 7974 bound_to 7965
  154.4348  140.1855  156.1033 H   0  0  0  0  0  0  0  0  0  0  0  0  # atno 8008 bound_to 7997
  156.0275  140.3334  155.7078 H   0  0  0  0  0  0  0  0  0  0  0  0  # atno 8009 bound_to 7997
  155.5887  140.0629  157.2755 H   0  0  0  0  0  0  0  0  0  0  0  0  # atno 8010 bound_to 7997
  139.4984  144.3743  151.9691 H   0  0  0  0  0  0  0  0  0  0  0  0  # atno 10167 bound_to 10162
  156.7583  130.9404  151.3117 H   0  0  0  0  0  0  0  0  0  0  0  0  # atno 10718 bound_to 10713
  153.0217  135.5261  154.7077 H   0  0  0  0  0  0  0  0  0  0  0  0  # atno 10763 bound_to 10752
  154.6168  135.2884  155.0373 H   0  0  0  0  0  0  0  0  0  0  0  0  # atno 10764 bound_to 10752
  154.1374  135.6583  153.4987 H   0  0  0  0  0  0  0  0  0  0  0  0  # atno 10765 bound_to 10752
  140.5394  134.0389  155.7899 H   0  0  0  0  0  0  0  0  0  0  0  0  # atno 11005 bound_to 11000
  144.7101  140.4007  143.7087 LP  0  0  0  0  0  0  0  0  0  0  0  0  # atno 17320 bound_to 7965
  145.6794  139.1615  143.2709 LP  0  0  0  0  0  0  0  0  0  0  0  0  # atno 17321 bound_to 7965
  140.3179  144.3462  150.6017 LP  0  0  0  0  0  0  0  0  0  0  0  0  # atno 17342 bound_to 10162
  140.5746  143.2177  151.7538 LP  0  0  0  0  0  0  0  0  0  0  0  0  # atno 17343 bound_to 10162
  157.6746  130.9083  150.0120 LP  0  0  0  0  0  0  0  0  0  0  0  0  # atno 17370 bound_to 10713
  156.1356  130.3643  149.9662 LP  0  0  0  0  0  0  0  0  0  0  0  0  # atno 17371 bound_to 10713
  141.1236  133.9420  157.2681 LP  0  0  0  0  0  0  0  0  0  0  0  0  # atno 17394 bound_to 11000
  139.9512  135.0175  156.8999 LP  0  0  0  0  0  0  0  0  0  0  0  0  # atno 17395 bound_to 11000

$$$$
