AV-unprocessed.smi:1|AV-procd|sdf|17|dock9
  -GOLD-   2262015113D 1   1.00000     0.00000
 Structure written by MMmdl.
 56 61  0  0  0  0  0  0  0  0  2 V2000
  143.8229  133.8296  154.8741 O   0  0  0  0  0  0  0  0  0  0  0  0
  144.9841  133.6572  154.4972 C   0  0  0  0  0  0  0  0  0  0  0  0
  146.1072  134.2699  154.9508 N   0  5  0  0  0  0  0  0  0  0  0  0
  146.4385  135.4831  154.4838 C   0  0  0  0  0  0  0  0  0  0  0  0
  145.6530  136.1058  153.5677 N   0  0  0  0  0  0  0  0  0  0  0  0
  145.9818  137.3185  153.1067 C   0  0  0  0  0  0  0  0  0  0  0  0
  147.0375  138.0783  153.4162 N   0  0  0  0  0  0  0  0  0  0  0  0
  147.8401  137.4552  154.3271 C   0  0  0  0  0  0  0  0  0  0  0  0
  147.6124  136.1701  154.8977 C   0  0  0  0  0  0  0  0  0  0  0  0
  148.6269  135.8412  155.7846 N   0  0  0  0  0  0  0  0  0  0  0  0
  149.4035  136.9211  155.7187 C   0  0  0  0  0  0  0  0  0  0  0  0
  149.0118  137.9183  154.8971 N   0  0  0  0  0  0  0  0  0  0  0  0
  149.6533  139.2452  154.6290 C   0  0  2  0  0  0  0  0  0  0  0  0
  150.9238  139.2553  155.2073 O   0  0  0  0  0  0  0  0  0  0  0  0
  150.8860  139.9451  156.4505 C   0  0  1  0  0  0  0  0  0  0  0  0
  152.2842  140.4477  156.8212 C   0  0  0  0  0  0  0  0  0  0  0  0
  152.1789  141.3761  157.8878 O   0  0  0  0  0  0  0  0  0  0  0  0
  153.1128  141.3934  158.8581 C   0  0  0  0  0  0  0  0  0  0  0  0
  154.0461  140.5904  158.9202 O   0  0  0  0  0  0  0  0  0  0  0  0
  152.8993  142.4845  159.8522 C   0  0  0  0  0  0  0  0  0  0  0  0
  153.5639  142.4236  161.0994 C   0  0  0  0  0  0  0  0  0  0  0  0
  153.3811  143.4371  162.0601 C   0  0  0  0  0  0  0  0  0  0  0  0
  152.5310  144.5240  161.7854 C   0  0  0  0  0  0  0  0  0  0  0  0
  151.8642  144.5964  160.5484 C   0  0  0  0  0  0  0  0  0  0  0  0
  152.0461  143.5841  159.5858 C   0  0  0  0  0  0  0  0  0  0  0  0
  149.8885  141.0714  156.1806 C   0  0  2  0  0  0  0  0  0  0  0  0
  149.2497  141.5066  157.3677 O   0  0  0  0  0  0  0  0  0  0  0  0
  147.8219  140.6595  157.5544 S   0  0  0  0  0  0  0  0  0  0  0  0
  148.0341  139.6178  158.5710 O   0  0  0  0  0  0  0  0  0  0  0  0
  146.7190  141.6293  157.6316 O   0  0  0  0  0  0  0  0  0  0  0  0
  147.7711  139.9228  156.0578 O   0  0  0  0  0  0  0  0  0  0  0  0
  148.8525  140.3983  155.2682 C   0  0  2  0  0  0  0  0  0  0  0  0
  145.2418  132.7113  153.3550 C   0  0  0  0  0  0  0  0  0  0  0  0
  144.2268  131.8177  152.9433 C   0  0  0  0  0  0  0  0  0  0  0  0
  144.4579  130.9048  151.8958 C   0  0  0  0  0  0  0  0  0  0  0  0
  145.7104  130.8694  151.2546 C   0  0  0  0  0  0  0  0  0  0  0  0
  146.7328  131.7456  151.6641 C   0  0  0  0  0  0  0  0  0  0  0  0
  146.5024  132.6590  152.7113 C   0  0  0  0  0  0  0  0  0  0  0  0
  145.2992  137.7421  152.3851 H   0  0  0  0  0  0  0  0  0  0  0  0
  150.3060  136.9861  156.3075 H   0  0  0  0  0  0  0  0  0  0  0  0
  149.7248  139.3033  153.5421 H   0  0  0  0  0  0  0  0  0  0  0  0
  150.4983  139.2816  157.2251 H   0  0  0  0  0  0  0  0  0  0  0  0
  152.9292  139.6121  157.0971 H   0  0  0  0  0  0  0  0  0  0  0  0
  152.7378  140.9464  155.9637 H   0  0  0  0  0  0  0  0  0  0  0  0
  154.2207  141.5981  161.3335 H   0  0  0  0  0  0  0  0  0  0  0  0
  153.8936  143.3795  163.0089 H   0  0  0  0  0  0  0  0  0  0  0  0
  152.3904  145.3007  162.5227 H   0  0  0  0  0  0  0  0  0  0  0  0
  151.2112  145.4304  160.3371 H   0  0  0  0  0  0  0  0  0  0  0  0
  151.5197  143.6709  158.6465 H   0  0  0  0  0  0  0  0  0  0  0  0
  150.3674  141.9037  155.6632 H   0  0  0  0  0  0  0  0  0  0  0  0
  148.4804  141.0756  154.4990 H   0  0  0  0  0  0  0  0  0  0  0  0
  143.2605  131.8307  153.4268 H   0  0  0  0  0  0  0  0  0  0  0  0
  143.6734  130.2303  151.5863 H   0  0  0  0  0  0  0  0  0  0  0  0
  145.8880  130.1690  150.4522 H   0  0  0  0  0  0  0  0  0  0  0  0
  147.6964  131.7159  151.1774 H   0  0  0  0  0  0  0  0  0  0  0  0
  147.3041  133.3153  153.0180 H   0  0  0  0  0  0  0  0  0  0  0  0
  1  2  2  0  0  0  0
  2  3  1  0  0  0  0
  2 33  1  0  0  0  0
  3  4  1  0  0  0  0
  4  9  1  0  0  0  0
  4  5  2  0  0  0  0
  5  6  1  0  0  0  0
  6  7  2  0  0  0  0
  6 39  1  0  0  0  0
  7  8  1  0  0  0  0
  8 12  1  0  0  0  0
  8  9  2  0  0  0  0
  9 10  1  0  0  0  0
 10 11  2  0  0  0  0
 11 12  1  0  0  0  0
 11 40  1  0  0  0  0
 12 13  1  0  0  0  0
 13 32  1  0  0  0  0
 13 14  1  0  0  0  0
 13 41  1  0  0  0  0
 14 15  1  0  0  0  0
 15 16  1  0  0  0  0
 15 26  1  0  0  0  0
 15 42  1  0  0  0  0
 16 17  1  0  0  0  0
 16 43  1  0  0  0  0
 16 44  1  0  0  0  0
 17 18  1  0  0  0  0
 18 19  2  0  0  0  0
 18 20  1  0  0  0  0
 20 25  1  0  0  0  0
 20 21  2  0  0  0  0
 21 22  1  0  0  0  0
 21 45  1  0  0  0  0
 22 23  2  0  0  0  0
 22 46  1  0  0  0  0
 23 24  1  0  0  0  0
 23 47  1  0  0  0  0
 24 25  2  0  0  0  0
 24 48  1  0  0  0  0
 25 49  1  0  0  0  0
 26 32  1  0  0  0  0
 26 27  1  0  0  0  0
 26 50  1  0  0  0  0
 27 28  1  0  0  0  0
 28 29  2  0  0  0  0
 28 30  2  0  0  0  0
 28 31  1  0  0  0  0
 31 32  1  0  0  0  0
 32 51  1  0  0  0  0
 33 38  1  0  0  0  0
 33 34  2  0  0  0  0
 34 35  1  0  0  0  0
 34 52  1  0  0  0  0
 35 36  2  0  0  0  0
 35 53  1  0  0  0  0
 36 37  1  0  0  0  0
 36 54  1  0  0  0  0
 37 38  2  0  0  0  0
 37 55  1  0  0  0  0
 38 56  1  0  0  0  0
M  CHG  1   3  -1
M  END
> <s_m_source_file>
AV-unprocessed.smi

> <i_m_source_file_index>
1

> <i_lp_mmshare_version>
43012

> <i_f3d_flags>
0

> <s_epik_input>
W2NIXTFbY0hdW2NIXVtjSF1bY0hdYzFDKD1PKVtOSF1jKG5bY0hdbjIpYyhjMjMpbltjSF1uM1tDQEBIXShbQ0BIXShbQ0BIXTQ1KU9TKE81KSg9Tyk9TylPW0NASF00W0NIMl1PQyg9TyljNltjSF1bY0hdW2NIXVtjSF1bY0hdNg==

> <s_epik_cmdline>
J2VwaWtfcHl0aG9uJywgJy1waCcsICc3LjAnLCAnLXRuJywgJzgnLCAnLW1hJywgJzIwMCcsICctbWV0YWxfYmluZGluZycsICctaW1hZScsICc8aW5maWxlLm1hZT4nLCAnLW9tYWUnLCAnPG91dGZpbGUubWFlPic=

> <r_lp_tautomer_probability>
1

> <r_epik_Ionization_Penalty>
4.39121

> <r_epik_Ionization_Penalty_Charging>
3.39398

> <r_epik_Ionization_Penalty_Neutral>
0.997232

> <r_epik_State_Penalty>
3.39839

> <r_epik_Charging_Adjusted_Penalty>
6.79237

> <i_epik_Tot_Q>
-1

> <i_epik_Tot_abs_Q>
1

> <r_epik_Metal_State_Penalty>
0.497663

> <b_epik_Metal_Only>
1

> <s_epik_Chemistry_Notes>
This compound has an ester and may undergo hydrolysis at high or low pH. This compound contains an acetal/aminal-like group ( X-CH(R)-Y where X, Y are N, S, or O) that may be acid/base labile, releasing an aldehyde.

> <s_lp_Force_Field>
OPLS_2005

> <r_lp_Energy>
42.9132

> <b_lp_Chiralities_Consistent>
1

> <s_lp_Variant>
AV-unprocessed.smi:1-17

> <Gold.Version>
5.8.1

> <Gold.Id.Protein>
6NUR|6NUR_protein|mol2

> <Gold.PLP.Fitness>
59.4863

> <Gold.PLP.PLP>
-57.0373

> <Gold.PLP.part.hbond>
-1.1283

> <Gold.PLP.part.metal>
0.0000

> <Gold.PLP.part.buried>
-5.8142

> <Gold.PLP.part.nonpolar>
-51.2739

> <Gold.PLP.part.repulsive>
1.0819

> <Gold.PLP.ligand.clash>
0.0000

> <Gold.PLP.ligand.torsion>
1.4920

> <Gold.PLP.Chemscore.Hbond>
0.0000

> <Gold.PLP.Chemscore.CHOScore>
1.6550

> <Gold.PLP.Chemscore.Metal>
0.0000

> <Gold.Chemscore.Hbonds>
donor molecule, donor type, donor heavy atom, donor atom, acceptor molecule, acceptor atom, score
      P1  H  7997  8010       L1    19  0.04

> <Gold.PLP.Chemscore.Internal.Correction>
0.4679

> <Gold.Rescore>
     Score         DG    S(hbond)    S(metal)    S(lipo)     H(rot)  DE(clash)    DE(int)     intcor
     11.26     -16.03       0.00        0.00     136.42       2.11       0.49       4.28       ----

> <Gold.Chemscore.Fitness>
11.2590

> <Gold.Chemscore.DG>
-16.0299

> <Gold.Chemscore.ZeroCoef>
-5.4800

> <Gold.Chemscore.Hbond>
0.0000

> <Gold.Chemscore.Metal>
0.0000

> <Gold.Chemscore.Lipo>
136.4158

> <Gold.Chemscore.Internal_Hbond>
0.0000

> <Gold.Chemscore.DEClash>
0.4881

> <Gold.Chemscore.DEInternal>
4.2828

> <Gold.Chemscore.Rot>
2.1136

> <Gold.Chemscore.Internal.Correction>
   9.000000E+99

> <Gold.Chemscore.Hbonds>
donor molecule, donor type, donor heavy atom, donor atom, acceptor molecule, acceptor atom, score
      P1  H  7997  8010       L1    19  0.04

> <Gold.Chemscore.Hbond.Weighted>
-0.0000

> <Gold.Chemscore.Metal.Weighted>
-0.0000

> <Gold.Chemscore.Lipo.Weighted>
-15.9606

> <Gold.Chemscore.Internal_Hbond.Weighted>
0.0000

> <Gold.Chemscore.DEClash.Weighted>
0.4881

> <Gold.Chemscore.DEInternal.Weighted>
4.2828

> <Gold.Chemscore.Rot.Weighted>
5.4107

> <Gold.Chemscore.Internal.Correction.Weighted>
   9.000000E+99

> <Gold.Protein.RotatedTorsions>
[ 6907 6896 6895 6894 ] final   97.90 input  -60.11 | X-H torsion
[ 7974 7965 7964 7962 ] final -161.36 input  175.53 | X-H torsion
[ 8008 7997 7996 7995 ] final  -32.26 input   59.86 | X-H torsion
[ 10167 10162 10161 10158 ] final  -95.14 input  -65.29 | X-H torsion
[ 10718 10713 10712 10709 ] final   -3.01 input   66.30 | X-H torsion
[ 10763 10752 10751 10750 ] final  111.95 input  -60.55 | X-H torsion
[ 11005 11000 10999 10996 ] final  147.55 input  -57.11 | X-H torsion

> <Gold.Protein.ActiveResidues>
 VAL166  LYS551  ARG553  GLY616  TRP617  ASP618  TYR619  PRO620  LYS621  CYS622 
 ASP623  PHE694  ASN695  SER759  ASP760  ASP761  ALA762  ILE779  LEU786  VAL792 
 PHE793  MET794  SER795  GLU796  ALA797  LYS798  CYS799  TRP800  GLU811  SER814 

> <Gold.Protein.RotatedAtoms>
  152.5417  134.0663  159.8173 H   0  0  0  0  0  0  0  0  0  0  0  0  # atno 6907 bound_to 6896
  151.0784  133.5402  159.2629 H   0  0  0  0  0  0  0  0  0  0  0  0  # atno 6908 bound_to 6896
  151.2239  135.0537  159.9015 H   0  0  0  0  0  0  0  0  0  0  0  0  # atno 6909 bound_to 6896
  144.7394  140.3409  143.6135 H   0  0  0  0  0  0  0  0  0  0  0  0  # atno 7974 bound_to 7965
  154.4186  140.1742  156.1698 H   0  0  0  0  0  0  0  0  0  0  0  0  # atno 8008 bound_to 7997
  155.9769  140.3381  155.6603 H   0  0  0  0  0  0  0  0  0  0  0  0  # atno 8009 bound_to 7997
  155.6551  140.0694  157.2564 H   0  0  0  0  0  0  0  0  0  0  0  0  # atno 8010 bound_to 7997
  140.3072  143.3127  152.0187 H   0  0  0  0  0  0  0  0  0  0  0  0  # atno 10167 bound_to 10162
  156.7824  130.5335  149.5749 H   0  0  0  0  0  0  0  0  0  0  0  0  # atno 10718 bound_to 10713
  153.4707  135.3701  155.2389 H   0  0  0  0  0  0  0  0  0  0  0  0  # atno 10763 bound_to 10752
  154.8757  135.3931  154.3815 H   0  0  0  0  0  0  0  0  0  0  0  0  # atno 10764 bound_to 10752
  153.4403  135.7084  153.6238 H   0  0  0  0  0  0  0  0  0  0  0  0  # atno 10765 bound_to 10752
  140.0885  134.9055  157.1613 H   0  0  0  0  0  0  0  0  0  0  0  0  # atno 11005 bound_to 11000
  145.7375  139.1754  143.2395 LP  0  0  0  0  0  0  0  0  0  0  0  0  # atno 17320 bound_to 7965
  146.1159  140.7370  142.9480 LP  0  0  0  0  0  0  0  0  0  0  0  0  # atno 17321 bound_to 7965
  139.4902  144.6412  151.6873 LP  0  0  0  0  0  0  0  0  0  0  0  0  # atno 17342 bound_to 10162
  140.5600  144.0284  150.6165 LP  0  0  0  0  0  0  0  0  0  0  0  0  # atno 17343 bound_to 10162
  156.1210  130.6109  151.0193 LP  0  0  0  0  0  0  0  0  0  0  0  0  # atno 17370 bound_to 10713
  157.6640  131.0875  150.7772 LP  0  0  0  0  0  0  0  0  0  0  0  0  # atno 17371 bound_to 10713
  140.3386  134.2729  155.7216 LP  0  0  0  0  0  0  0  0  0  0  0  0  # atno 17394 bound_to 11000
  141.2070  133.7817  157.0143 LP  0  0  0  0  0  0  0  0  0  0  0  0  # atno 17395 bound_to 11000

$$$$
