AV-unprocessed.smi:2942|AV-procd|sdf|11266|dock2
  -GOLD-   2272016153D 1   1.00000     0.00000
 Structure written by MMmdl.
 45 48  0  0  0  0  0  0  0  0  1 V2000
  148.6514  141.5669  157.6937 O   0  0  0  0  0  0  0  0  0  0  0  0
  149.6530  142.1224  157.2404 C   0  0  0  0  0  0  0  0  0  0  0  0
  149.9255  142.1472  155.9257 N   0  0  0  0  0  0  0  0  0  0  0  0
  149.0780  141.5954  154.8738 C   0  0  0  0  0  0  0  0  0  0  0  0
  148.9830  140.0553  154.9119 C   0  0  0  0  0  0  0  0  0  0  0  0
  150.3316  139.3535  154.8753 C   0  0  0  0  0  0  0  0  0  0  0  0
  150.4179  137.9811  154.5591 C   0  0  0  0  0  0  0  0  0  0  0  0
  151.6861  137.3685  154.5688 C   0  0  0  0  0  0  0  0  0  0  0  0
  152.8140  138.1470  154.8925 C   0  0  0  0  0  0  0  0  0  0  0  0
  152.6228  139.5103  155.1929 C   0  0  0  0  0  0  0  0  0  0  0  0
  151.4114  140.1063  155.1875 N   0  0  0  0  0  0  0  0  0  0  0  0
  150.6390  142.8587  158.1772 C   0  0  0  0  0  0  0  0  0  0  0  0
  151.4600  141.8102  158.9744 C   0  0  0  0  0  0  0  0  0  0  0  0
  152.4637  142.5156  159.9116 C   0  0  1  0  0  0  0  0  0  0  0  0
  153.4366  143.3735  159.0765 C   0  0  0  0  0  0  0  0  0  0  0  0
  152.6351  144.4354  158.2951 C   0  0  2  0  0  0  0  0  0  0  0  0
  151.8733  145.3433  159.2819 C   0  0  0  0  0  0  0  0  0  0  0  0
  150.9044  144.4824  160.1175 C   0  0  2  0  0  0  0  0  0  0  0  0
  151.6998  143.4183  160.9035 C   0  0  0  0  0  0  0  0  0  0  0  0
  149.8934  143.7838  159.1836 C   0  0  0  0  0  0  0  0  0  0  0  0
  151.6304  143.7342  157.3564 C   0  0  0  0  0  0  0  0  0  0  0  0
  150.7652  142.6231  155.6292 H   0  0  0  0  0  0  0  0  0  0  0  0
  148.0826  142.0177  155.0132 H   0  0  0  0  0  0  0  0  0  0  0  0
  149.4199  141.9333  153.8945 H   0  0  0  0  0  0  0  0  0  0  0  0
  148.4466  139.7443  155.8089 H   0  0  0  0  0  0  0  0  0  0  0  0
  148.3820  139.7065  154.0706 H   0  0  0  0  0  0  0  0  0  0  0  0
  149.5333  137.4087  154.3221 H   0  0  0  0  0  0  0  0  0  0  0  0
  151.7913  136.3194  154.3351 H   0  0  0  0  0  0  0  0  0  0  0  0
  153.8015  137.7103  154.9107 H   0  0  0  0  0  0  0  0  0  0  0  0
  153.4641  140.1377  155.4476 H   0  0  0  0  0  0  0  0  0  0  0  0
  150.7966  141.1773  159.5658 H   0  0  0  0  0  0  0  0  0  0  0  0
  151.9928  141.1426  158.2951 H   0  0  0  0  0  0  0  0  0  0  0  0
  153.0277  141.7649  160.4662 H   0  0  0  0  0  0  0  0  0  0  0  0
  154.1690  143.8544  159.7260 H   0  0  0  0  0  0  0  0  0  0  0  0
  154.0009  142.7429  158.3884 H   0  0  0  0  0  0  0  0  0  0  0  0
  153.3209  145.0416  157.7025 H   0  0  0  0  0  0  0  0  0  0  0  0
  152.5742  145.8655  159.9342 H   0  0  0  0  0  0  0  0  0  0  0  0
  151.3232  146.1134  158.7396 H   0  0  0  0  0  0  0  0  0  0  0  0
  150.3662  145.1218  160.8178 H   0  0  0  0  0  0  0  0  0  0  0  0
  151.0265  142.8195  161.5180 H   0  0  0  0  0  0  0  0  0  0  0  0
  152.3974  143.8993  161.5902 H   0  0  0  0  0  0  0  0  0  0  0  0
  149.3038  144.5304  158.6494 H   0  0  0  0  0  0  0  0  0  0  0  0
  149.1900  143.2163  159.7945 H   0  0  0  0  0  0  0  0  0  0  0  0
  152.1815  143.1261  156.6370 H   0  0  0  0  0  0  0  0  0  0  0  0
  151.0874  144.4804  156.7742 H   0  0  0  0  0  0  0  0  0  0  0  0
  1  2  2  0  0  0  0
  2  3  1  0  0  0  0
  2 12  1  0  0  0  0
  3  4  1  0  0  0  0
  3 22  1  0  0  0  0
  4  5  1  0  0  0  0
  4 23  1  0  0  0  0
  4 24  1  0  0  0  0
  5  6  1  0  0  0  0
  5 25  1  0  0  0  0
  5 26  1  0  0  0  0
  6 11  1  0  0  0  0
  6  7  2  0  0  0  0
  7  8  1  0  0  0  0
  7 27  1  0  0  0  0
  8  9  2  0  0  0  0
  8 28  1  0  0  0  0
  9 10  1  0  0  0  0
  9 29  1  0  0  0  0
 10 11  2  0  0  0  0
 10 30  1  0  0  0  0
 12 20  1  0  0  0  0
 12 21  1  0  0  0  0
 12 13  1  0  0  0  0
 13 14  1  0  0  0  0
 13 31  1  0  0  0  0
 13 32  1  0  0  0  0
 14 19  1  0  0  0  0
 14 15  1  0  0  0  0
 14 33  1  0  0  0  0
 15 16  1  0  0  0  0
 15 34  1  0  0  0  0
 15 35  1  0  0  0  0
 16 17  1  0  0  0  0
 16 21  1  0  0  0  0
 16 36  1  0  0  0  0
 17 18  1  0  0  0  0
 17 37  1  0  0  0  0
 17 38  1  0  0  0  0
 18 19  1  0  0  0  0
 18 20  1  0  0  0  0
 18 39  1  0  0  0  0
 19 40  1  0  0  0  0
 19 41  1  0  0  0  0
 20 42  1  0  0  0  0
 20 43  1  0  0  0  0
 21 44  1  0  0  0  0
 21 45  1  0  0  0  0
M  END
> <s_m_source_file>
AV-unprocessed.smi

> <i_m_source_file_index>
2942

> <i_lp_mmshare_version>
43012

> <i_f3d_flags>
0

> <s_epik_input>
W0NIMl0xW0NASF0oW0NIMl0yKVtDSDJdW0NASF0oW0NIMl0zKVtDSDJdW0NAQEhdMVtDSDJdQzIzQyg9TylbTkhdW0NIMl1bQ0gyXWM0W2NIXVtjSF1bY0hdW2NIXW40

> <s_epik_cmdline>
J2VwaWtfcHl0aG9uJywgJy1waCcsICc3LjAnLCAnLXRuJywgJzgnLCAnLW1hJywgJzIwMCcsICctbWV0YWxfYmluZGluZycsICctaW1hZScsICc8aW5maWxlLm1hZT4nLCAnLW9tYWUnLCAnPG91dGZpbGUubWFlPic=

> <r_epik_Ionization_Penalty>
0.0283659

> <r_epik_Ionization_Penalty_Charging>
0

> <r_epik_Ionization_Penalty_Neutral>
0.0283659

> <r_epik_State_Penalty>
0.0232723

> <r_epik_Charging_Adjusted_Penalty>
0.0232723

> <i_epik_Tot_Q>
0

> <i_epik_Tot_abs_Q>
0

> <r_epik_Metal_State_Penalty>
0.0222054

> <b_epik_Metal_Only>
0

> <s_lp_Force_Field>
OPLS_2005

> <r_lp_Energy>
35.5919

> <b_lp_Chiralities_Consistent>
1

> <s_lp_Variant>
AV-unprocessed.smi:2942-1

> <Gold.Version>
5.8.1

> <Gold.Id.Protein>
6NUR|6NUR_protein|mol2

> <Gold.PLP.Fitness>
48.7839

> <Gold.PLP.PLP>
-49.4233

> <Gold.PLP.part.hbond>
-2.0000

> <Gold.PLP.part.metal>
0.0000

> <Gold.PLP.part.buried>
-0.5885

> <Gold.PLP.part.nonpolar>
-48.8746

> <Gold.PLP.part.repulsive>
0.2807

> <Gold.PLP.ligand.clash>
0.5968

> <Gold.PLP.ligand.torsion>
0.6741

> <Gold.PLP.Chemscore.Hbond>
0.4275

> <Gold.PLP.Chemscore.CHOScore>
0.0000

> <Gold.PLP.Chemscore.Metal>
0.0000

> <Gold.Chemscore.Hbonds>
donor molecule, donor type, donor heavy atom, donor atom, acceptor molecule, acceptor atom, score
      P1  H  7989  7998       L1    11  0.60

> <Gold.PLP.Chemscore.Internal.Correction>
0.0232

> <Gold.Rescore>
     Score         DG    S(hbond)    S(metal)    S(lipo)     H(rot)  DE(clash)    DE(int)     intcor
     17.78     -21.03       0.01        0.00     161.49       1.32       0.69       2.56       ----

> <Gold.Chemscore.Fitness>
17.7783

> <Gold.Chemscore.DG>
-21.0299

> <Gold.Chemscore.ZeroCoef>
-5.4800

> <Gold.Chemscore.Hbond>
0.0144

> <Gold.Chemscore.Metal>
0.0000

> <Gold.Chemscore.Lipo>
161.4859

> <Gold.Chemscore.Internal_Hbond>
0.0000

> <Gold.Chemscore.DEClash>
0.6928

> <Gold.Chemscore.DEInternal>
2.5587

> <Gold.Chemscore.Rot>
1.3250

> <Gold.Chemscore.Internal.Correction>
   9.000000E+99

> <Gold.Chemscore.Hbonds>
donor molecule, donor type, donor heavy atom, donor atom, acceptor molecule, acceptor atom, score
      P1  H  7989  7998       L1    11  0.01

> <Gold.Chemscore.Hbond.Weighted>
-0.0480

> <Gold.Chemscore.Metal.Weighted>
-0.0000

> <Gold.Chemscore.Lipo.Weighted>
-18.8938

> <Gold.Chemscore.Internal_Hbond.Weighted>
0.0000

> <Gold.Chemscore.DEClash.Weighted>
0.6928

> <Gold.Chemscore.DEInternal.Weighted>
2.5587

> <Gold.Chemscore.Rot.Weighted>
3.3920

> <Gold.Chemscore.Internal.Correction.Weighted>
   9.000000E+99

> <Gold.Protein.RotatedTorsions>
[ 6907 6896 6895 6894 ] final -136.88 input  -60.11 | X-H torsion
[ 7974 7965 7964 7962 ] final   13.08 input  175.53 | X-H torsion
[ 8008 7997 7996 7995 ] final   42.02 input   59.86 | X-H torsion
[ 10167 10162 10161 10158 ] final  -18.11 input  -65.29 | X-H torsion
[ 10718 10713 10712 10709 ] final   34.62 input   66.30 | X-H torsion
[ 10763 10752 10751 10750 ] final -101.63 input  -60.55 | X-H torsion
[ 11005 11000 10999 10996 ] final  -53.40 input  -57.11 | X-H torsion

> <Gold.Protein.ActiveResidues>
 VAL166  LYS551  ARG553  GLY616  TRP617  ASP618  TYR619  PRO620  LYS621  CYS622 
 ASP623  PHE694  ASN695  SER759  ASP760  ASP761  ALA762  ILE779  LEU786  VAL792 
 PHE793  MET794  SER795  GLU796  ALA797  LYS798  CYS799  TRP800  GLU811  SER814 

> <Gold.Protein.RotatedAtoms>
  151.0156  133.5924  159.2677 H   0  0  0  0  0  0  0  0  0  0  0  0  # atno 6907 bound_to 6896
  151.3060  135.0780  159.9265 H   0  0  0  0  0  0  0  0  0  0  0  0  # atno 6908 bound_to 6896
  152.5310  133.9829  159.7869 H   0  0  0  0  0  0  0  0  0  0  0  0  # atno 6909 bound_to 6896
  146.2337  139.9242  142.8505 H   0  0  0  0  0  0  0  0  0  0  0  0  # atno 7974 bound_to 7965
  155.2793  140.3371  155.4259 H   0  0  0  0  0  0  0  0  0  0  0  0  # atno 8008 bound_to 7997
  156.2097  140.1765  156.7763 H   0  0  0  0  0  0  0  0  0  0  0  0  # atno 8009 bound_to 7997
  154.5669  140.0677  156.8890 H   0  0  0  0  0  0  0  0  0  0  0  0  # atno 8010 bound_to 7997
  140.7255  143.4949  150.9944 H   0  0  0  0  0  0  0  0  0  0  0  0  # atno 10167 bound_to 10162
  157.3126  130.7407  149.6734 H   0  0  0  0  0  0  0  0  0  0  0  0  # atno 10718 bound_to 10713
  154.7672  135.4891  153.9577 H   0  0  0  0  0  0  0  0  0  0  0  0  # atno 10763 bound_to 10752
  153.1322  135.6755  153.9167 H   0  0  0  0  0  0  0  0  0  0  0  0  # atno 10764 bound_to 10752
  153.8867  135.3126  155.3425 H   0  0  0  0  0  0  0  0  0  0  0  0  # atno 10765 bound_to 10752
  141.0974  133.6622  156.4167 H   0  0  0  0  0  0  0  0  0  0  0  0  # atno 11005 bound_to 11000
  145.2107  140.9894  143.4102 LP  0  0  0  0  0  0  0  0  0  0  0  0  # atno 17320 bound_to 7965
  144.9694  139.3896  143.6316 LP  0  0  0  0  0  0  0  0  0  0  0  0  # atno 17321 bound_to 7965
  139.8655  143.7259  152.3170 LP  0  0  0  0  0  0  0  0  0  0  0  0  # atno 17342 bound_to 10162
  139.7490  144.7539  151.0536 LP  0  0  0  0  0  0  0  0  0  0  0  0  # atno 17343 bound_to 10162
  155.9679  130.4247  150.4619 LP  0  0  0  0  0  0  0  0  0  0  0  0  # atno 17370 bound_to 10713
  157.2620  131.0569  151.2314 LP  0  0  0  0  0  0  0  0  0  0  0  0  # atno 17371 bound_to 10713
  140.5106  134.6398  157.5283 LP  0  0  0  0  0  0  0  0  0  0  0  0  # atno 17394 bound_to 11000
  139.9815  134.7130  155.9852 LP  0  0  0  0  0  0  0  0  0  0  0  0  # atno 17395 bound_to 11000

$$$$
