AV-unprocessed.smi:3059|AV-procd|sdf|11677|dock2
  -GOLD-   2272017 83D 1   1.00000     0.00000
 Structure written by MMmdl.
 42 43  0  0  0  0  0  0  0  0  1 V2000
  145.7701  137.7758  152.8148 C   0  0  0  0  0  0  0  0  0  0  0  0
  146.8010  138.7151  152.1795 C   0  0  0  0  0  0  0  0  0  0  0  0
  147.4315  139.6449  153.1628 C   0  0  0  0  0  0  0  0  0  0  0  0
  146.8209  140.6421  153.8819 C   0  0  0  0  0  0  0  0  0  0  0  0
  147.6877  141.3426  154.7226 N   0  0  0  0  0  0  0  0  0  0  0  0
  148.9406  140.8863  154.6607 C   0  0  0  0  0  0  0  0  0  0  0  0
  150.0765  141.4847  155.4265 C   0  0  0  0  0  0  0  0  0  0  0  0
  149.9387  141.3515  156.9556 C   0  0  0  0  0  0  0  0  0  0  0  0
  150.9799  142.0648  157.6885 N   0  0  0  0  0  0  0  0  0  0  0  0
  151.7889  141.5275  158.6174 C   0  0  0  0  0  0  0  0  0  0  0  0
  151.7283  140.3382  158.9323 O   0  0  0  0  0  0  0  0  0  0  0  0
  152.6779  142.3981  159.1604 N   0  0  0  0  0  0  0  0  0  0  0  0
  152.8409  143.8038  158.7536 C   0  0  0  0  0  0  0  0  0  0  0  0
  151.7697  144.7197  159.3799 C   0  0  0  0  0  0  0  0  0  0  0  0
  151.3397  144.3642  160.8203 C   0  0  0  0  0  0  0  0  0  0  0  0
  152.4766  143.9210  161.7613 C   0  0  0  0  0  0  0  0  0  0  0  0
  152.8305  142.4229  161.6414 C   0  0  0  0  0  0  0  0  0  0  0  0
  153.5071  142.0297  160.3158 C   0  0  0  0  0  0  0  0  0  0  0  0
  149.1355  139.5530  153.5301 S   0  0  0  0  0  0  0  0  0  0  0  0
  145.3278  137.1197  152.0652 H   0  0  0  0  0  0  0  0  0  0  0  0
  144.9622  138.3390  153.2831 H   0  0  0  0  0  0  0  0  0  0  0  0
  146.2269  137.1467  153.5794 H   0  0  0  0  0  0  0  0  0  0  0  0
  147.5772  138.1234  151.6933 H   0  0  0  0  0  0  0  0  0  0  0  0
  146.3222  139.2925  151.3879 H   0  0  0  0  0  0  0  0  0  0  0  0
  145.7791  140.9251  153.8536 H   0  0  0  0  0  0  0  0  0  0  0  0
  151.0020  141.0088  155.0992 H   0  0  0  0  0  0  0  0  0  0  0  0
  150.1631  142.5370  155.1545 H   0  0  0  0  0  0  0  0  0  0  0  0
  148.9505  141.6812  157.2794 H   0  0  0  0  0  0  0  0  0  0  0  0
  150.0163  140.2998  157.2323 H   0  0  0  0  0  0  0  0  0  0  0  0
  151.0901  143.0469  157.4824 H   0  0  0  0  0  0  0  0  0  0  0  0
  153.8225  144.1685  159.0574 H   0  0  0  0  0  0  0  0  0  0  0  0
  152.8434  143.9093  157.6678 H   0  0  0  0  0  0  0  0  0  0  0  0
  152.1422  145.7442  159.3588 H   0  0  0  0  0  0  0  0  0  0  0  0
  150.8813  144.7197  158.7476 H   0  0  0  0  0  0  0  0  0  0  0  0
  150.8416  145.2352  161.2470 H   0  0  0  0  0  0  0  0  0  0  0  0
  150.5803  143.5829  160.7958 H   0  0  0  0  0  0  0  0  0  0  0  0
  153.3608  144.5421  161.6148 H   0  0  0  0  0  0  0  0  0  0  0  0
  152.1537  144.1014  162.7870 H   0  0  0  0  0  0  0  0  0  0  0  0
  153.4988  142.1549  162.4602 H   0  0  0  0  0  0  0  0  0  0  0  0
  151.9313  141.8227  161.7860 H   0  0  0  0  0  0  0  0  0  0  0  0
  153.7183  140.9592  160.3188 H   0  0  0  0  0  0  0  0  0  0  0  0
  154.4882  142.5008  160.2504 H   0  0  0  0  0  0  0  0  0  0  0  0
  1  2  1  0  0  0  0
  1 20  1  0  0  0  0
  1 21  1  0  0  0  0
  1 22  1  0  0  0  0
  2  3  1  0  0  0  0
  2 23  1  0  0  0  0
  2 24  1  0  0  0  0
  3 19  1  0  0  0  0
  3  4  2  0  0  0  0
  4  5  1  0  0  0  0
  4 25  1  0  0  0  0
  5  6  2  0  0  0  0
  6  7  1  0  0  0  0
  6 19  1  0  0  0  0
  7  8  1  0  0  0  0
  7 26  1  0  0  0  0
  7 27  1  0  0  0  0
  8  9  1  0  0  0  0
  8 28  1  0  0  0  0
  8 29  1  0  0  0  0
  9 10  1  0  0  0  0
  9 30  1  0  0  0  0
 10 11  2  0  0  0  0
 10 12  1  0  0  0  0
 12 18  1  0  0  0  0
 12 13  1  0  0  0  0
 13 14  1  0  0  0  0
 13 31  1  0  0  0  0
 13 32  1  0  0  0  0
 14 15  1  0  0  0  0
 14 33  1  0  0  0  0
 14 34  1  0  0  0  0
 15 16  1  0  0  0  0
 15 35  1  0  0  0  0
 15 36  1  0  0  0  0
 16 17  1  0  0  0  0
 16 37  1  0  0  0  0
 16 38  1  0  0  0  0
 17 18  1  0  0  0  0
 17 39  1  0  0  0  0
 17 40  1  0  0  0  0
 18 41  1  0  0  0  0
 18 42  1  0  0  0  0
M  END
> <s_m_source_file>
AV-unprocessed.smi

> <i_m_source_file_index>
3059

> <i_lp_mmshare_version>
43012

> <i_f3d_flags>
0

> <s_epik_input>
W0NIM11bQ0gyXWMxW2NIXW5jKHMxKVtDSDJdW0NIMl1bTkhdQyg9TylOMltDSDJdW0NIMl1bQ0gyXVtDSDJdW0NIMl1bQ0gyXTI=

> <s_epik_cmdline>
J2VwaWtfcHl0aG9uJywgJy1waCcsICc3LjAnLCAnLXRuJywgJzgnLCAnLW1hJywgJzIwMCcsICctbWV0YWxfYmluZGluZycsICctaW1hZScsICc8aW5maWxlLm1hZT4nLCAnLW9tYWUnLCAnPG91dGZpbGUubWFlPic=

> <r_epik_Ionization_Penalty>
0.000969859

> <r_epik_Ionization_Penalty_Charging>
0

> <r_epik_Ionization_Penalty_Neutral>
0.000969859

> <r_epik_State_Penalty>
0.000588571

> <r_epik_Charging_Adjusted_Penalty>
0.000588571

> <i_epik_Tot_Q>
0

> <i_epik_Tot_abs_Q>
0

> <r_epik_Metal_State_Penalty>
-0

> <b_epik_Metal_Only>
0

> <s_lp_Force_Field>
OPLS_2005

> <r_lp_Energy>
18.9175

> <b_lp_Chiralities_Consistent>
1

> <s_lp_Variant>
AV-unprocessed.smi:3059-1

> <Gold.Version>
5.8.1

> <Gold.Id.Protein>
6NUR|6NUR_protein|mol2

> <Gold.PLP.Fitness>
47.6432

> <Gold.PLP.PLP>
-44.7919

> <Gold.PLP.part.hbond>
0.0000

> <Gold.PLP.part.metal>
0.0000

> <Gold.PLP.part.buried>
0.8428

> <Gold.PLP.part.nonpolar>
-45.0986

> <Gold.PLP.part.repulsive>
0.1617

> <Gold.PLP.ligand.clash>
0.0000

> <Gold.PLP.ligand.torsion>
0.0845

> <Gold.PLP.Chemscore.Hbond>
0.0000

> <Gold.PLP.Chemscore.CHOScore>
0.9988

> <Gold.PLP.Chemscore.Metal>
0.0000

> <Gold.Chemscore.Hbonds>
donor molecule, donor type, donor heavy atom, donor atom, acceptor molecule, acceptor atom, score
      L1  C     4    25       P1 10175  0.97

> <Gold.PLP.Chemscore.Internal.Correction>
0.0240

> <Gold.Rescore>
     Score         DG    S(hbond)    S(metal)    S(lipo)     H(rot)  DE(clash)    DE(int)     intcor
     15.00     -16.64       0.00        0.00     124.98       1.35       1.58       0.05       ----

> <Gold.Chemscore.Fitness>
15.0015

> <Gold.Chemscore.DG>
-16.6353

> <Gold.Chemscore.ZeroCoef>
-5.4800

> <Gold.Chemscore.Hbond>
0.0000

> <Gold.Chemscore.Metal>
0.0000

> <Gold.Chemscore.Lipo>
124.9832

> <Gold.Chemscore.Internal_Hbond>
0.0000

> <Gold.Chemscore.DEClash>
1.5847

> <Gold.Chemscore.DEInternal>
0.0490

> <Gold.Chemscore.Rot>
1.3546

> <Gold.Chemscore.Internal.Correction>
   9.000000E+99

> <Gold.Chemscore.Hbond.Weighted>
-0.0000

> <Gold.Chemscore.Metal.Weighted>
-0.0000

> <Gold.Chemscore.Lipo.Weighted>
-14.6230

> <Gold.Chemscore.Internal_Hbond.Weighted>
0.0000

> <Gold.Chemscore.DEClash.Weighted>
1.5847

> <Gold.Chemscore.DEInternal.Weighted>
0.0490

> <Gold.Chemscore.Rot.Weighted>
3.4678

> <Gold.Chemscore.Internal.Correction.Weighted>
   9.000000E+99

> <Gold.Protein.RotatedTorsions>
[ 6907 6896 6895 6894 ] final  -81.39 input  -60.11 | X-H torsion
[ 7974 7965 7964 7962 ] final -120.96 input  175.53 | X-H torsion
[ 8008 7997 7996 7995 ] final  166.68 input   59.86 | X-H torsion
[ 10167 10162 10161 10158 ] final  145.35 input  -65.29 | X-H torsion
[ 10718 10713 10712 10709 ] final  151.86 input   66.30 | X-H torsion
[ 10763 10752 10751 10750 ] final -152.58 input  -60.55 | X-H torsion
[ 11005 11000 10999 10996 ] final   82.57 input  -57.11 | X-H torsion

> <Gold.Protein.ActiveResidues>
 VAL166  LYS551  ARG553  GLY616  TRP617  ASP618  TYR619  PRO620  LYS621  CYS622 
 ASP623  PHE694  ASN695  SER759  ASP760  ASP761  ALA762  ILE779  LEU786  VAL792 
 PHE793  MET794  SER795  GLU796  ALA797  LYS798  CYS799  TRP800  GLU811  SER814 

> <Gold.Protein.RotatedAtoms>
  150.6913  134.3824  159.5039 H   0  0  0  0  0  0  0  0  0  0  0  0  # atno 6907 bound_to 6896
  152.1624  134.8898  160.0550 H   0  0  0  0  0  0  0  0  0  0  0  0  # atno 6908 bound_to 6896
  151.9955  133.3771  159.4198 H   0  0  0  0  0  0  0  0  0  0  0  0  # atno 6909 bound_to 6896
  145.0456  140.8178  143.4240 H   0  0  0  0  0  0  0  0  0  0  0  0  # atno 7974 bound_to 7965
  156.1698  140.1637  156.8467 H   0  0  0  0  0  0  0  0  0  0  0  0  # atno 8008 bound_to 7997
  154.5245  140.0770  156.8268 H   0  0  0  0  0  0  0  0  0  0  0  0  # atno 8009 bound_to 7997
  155.3535  140.3391  155.4242 H   0  0  0  0  0  0  0  0  0  0  0  0  # atno 8010 bound_to 7997
  139.4928  144.5908  151.6685 H   0  0  0  0  0  0  0  0  0  0  0  0  # atno 10167 bound_to 10162
  157.2653  131.0806  151.1637 H   0  0  0  0  0  0  0  0  0  0  0  0  # atno 10718 bound_to 10713
  154.7985  135.3233  154.7609 H   0  0  0  0  0  0  0  0  0  0  0  0  # atno 10763 bound_to 10752
  153.8282  135.6881  153.4822 H   0  0  0  0  0  0  0  0  0  0  0  0  # atno 10764 bound_to 10752
  153.1688  135.4631  154.9817 H   0  0  0  0  0  0  0  0  0  0  0  0  # atno 10765 bound_to 10752
  139.9059  134.8081  156.2193 H   0  0  0  0  0  0  0  0  0  0  0  0  # atno 11005 bound_to 11000
  145.1593  139.2468  143.5400 LP  0  0  0  0  0  0  0  0  0  0  0  0  # atno 17320 bound_to 7965
  146.3513  140.1315  142.8597 LP  0  0  0  0  0  0  0  0  0  0  0  0  # atno 17321 bound_to 7965
  140.5534  144.0387  150.6137 LP  0  0  0  0  0  0  0  0  0  0  0  0  # atno 17342 bound_to 10162
  140.3449  143.2997  152.0549 LP  0  0  0  0  0  0  0  0  0  0  0  0  # atno 17343 bound_to 10162
  157.3131  130.6899  149.6227 LP  0  0  0  0  0  0  0  0  0  0  0  0  # atno 17370 bound_to 10713
  155.9663  130.4357  150.5105 LP  0  0  0  0  0  0  0  0  0  0  0  0  # atno 17371 bound_to 10713
  141.0416  133.6935  156.1608 LP  0  0  0  0  0  0  0  0  0  0  0  0  # atno 17394 bound_to 11000
  140.6947  134.4628  157.5588 LP  0  0  0  0  0  0  0  0  0  0  0  0  # atno 17395 bound_to 11000

$$$$
