AV-unprocessed.smi:1824|AV-procd|sdf|7410|dock10
  -GOLD-   22720 9 83D 1   1.00000     0.00000
 Structure written by MMmdl.
 45 47  0  0  0  0  0  0  0  0  2 V2000
  150.7248  133.6679  155.7828 C   0  0  0  0  0  0  0  0  0  0  0  0
  149.8354  134.8607  156.1499 C   0  0  2  0  0  0  0  0  0  0  0  0
  150.4442  136.2024  155.7000 C   0  0  0  0  0  0  0  0  0  0  0  0
  149.6319  137.3392  156.1180 N   0  0  0  0  0  0  0  0  0  0  0  0
  150.2212  138.5997  155.6644 C   0  0  0  0  0  0  0  0  0  0  0  0
  151.7480  138.7126  155.8405 C   0  0  1  0  0  0  0  0  0  0  0  0
  152.2678  139.4205  154.7337 O   0  0  0  0  0  0  0  0  0  0  0  0
  152.1404  139.4489  157.1375 C   0  0  0  0  0  0  0  0  0  0  0  0
  151.5490  140.7892  157.2306 N   0  0  0  0  0  0  0  0  0  0  0  0
  150.7800  141.4739  156.3407 C   0  0  0  0  0  0  0  0  0  0  0  0
  150.4827  142.6802  156.8995 N   0  3  0  0  0  0  0  0  0  0  0  0
  151.0668  142.7648  158.1660 C   0  0  0  0  0  0  0  0  0  0  0  0
  151.0495  143.7826  159.1142 C   0  0  0  0  0  0  0  0  0  0  0  0
  151.7518  143.5451  160.3145 C   0  0  0  0  0  0  0  0  0  0  0  0
  151.7666  144.5026  161.2717 F   0  0  0  0  0  0  0  0  0  0  0  0
  152.4371  142.3315  160.5367 C   0  0  0  0  0  0  0  0  0  0  0  0
  153.0981  142.1436  161.7034 F   0  0  0  0  0  0  0  0  0  0  0  0
  152.4482  141.3070  159.5673 C   0  0  0  0  0  0  0  0  0  0  0  0
  151.7516  141.5516  158.3850 C   0  0  0  0  0  0  0  0  0  0  0  0
  149.4566  137.2848  157.5674 C   0  0  0  0  0  0  0  0  0  0  0  0
  148.8448  135.9462  158.0226 C   0  0  2  0  0  0  0  0  0  0  0  0
  148.7301  135.8499  159.5474 C   0  0  0  0  0  0  0  0  0  0  0  0
  149.6685  134.8776  157.5651 O   0  0  0  0  0  0  0  0  0  0  0  0
  150.8720  133.6056  154.7042 H   0  0  0  0  0  0  0  0  0  0  0  0
  150.2743  132.7312  156.1114 H   0  0  0  0  0  0  0  0  0  0  0  0
  151.7063  133.7482  156.2510 H   0  0  0  0  0  0  0  0  0  0  0  0
  148.8592  134.7270  155.6807 H   0  0  0  0  0  0  0  0  0  0  0  0
  151.4514  136.2995  156.1089 H   0  0  0  0  0  0  0  0  0  0  0  0
  150.5480  136.2033  154.6142 H   0  0  0  0  0  0  0  0  0  0  0  0
  149.9650  138.7593  154.6155 H   0  0  0  0  0  0  0  0  0  0  0  0
  149.7603  139.4240  156.2109 H   0  0  0  0  0  0  0  0  0  0  0  0
  152.2029  137.7230  155.8189 H   0  0  0  0  0  0  0  0  0  0  0  0
  153.0412  138.9723  154.4278 H   0  0  0  0  0  0  0  0  0  0  0  0
  151.8154  138.8822  158.0113 H   0  0  0  0  0  0  0  0  0  0  0  0
  153.2232  139.5494  157.2217 H   0  0  0  0  0  0  0  0  0  0  0  0
  150.4653  141.1245  155.3676 H   0  0  0  0  0  0  0  0  0  0  0  0
  150.5259  144.7125  158.9492 H   0  0  0  0  0  0  0  0  0  0  0  0
  152.9753  140.3817  159.7462 H   0  0  0  0  0  0  0  0  0  0  0  0
  150.4186  137.4333  158.0608 H   0  0  0  0  0  0  0  0  0  0  0  0
  148.8061  138.0917  157.9018 H   0  0  0  0  0  0  0  0  0  0  0  0
  147.8491  135.8350  157.5895 H   0  0  0  0  0  0  0  0  0  0  0  0
  148.0968  136.6437  159.9440 H   0  0  0  0  0  0  0  0  0  0  0  0
  149.7080  135.9321  160.0226 H   0  0  0  0  0  0  0  0  0  0  0  0
  148.2938  134.8966  159.8458 H   0  0  0  0  0  0  0  0  0  0  0  0
  149.9207  143.3905  156.4476 H   0  0  0  0  0  0  0  0  0  0  0  0
  1  2  1  0  0  0  0
  1 24  1  0  0  0  0
  1 25  1  0  0  0  0
  1 26  1  0  0  0  0
  2 23  1  0  0  0  0
  2  3  1  0  0  0  0
  2 27  1  0  0  0  0
  3  4  1  0  0  0  0
  3 28  1  0  0  0  0
  3 29  1  0  0  0  0
  4  5  1  0  0  0  0
  4 20  1  0  0  0  0
  5  6  1  0  0  0  0
  5 30  1  0  0  0  0
  5 31  1  0  0  0  0
  6  7  1  0  0  0  0
  6  8  1  0  0  0  0
  6 32  1  0  0  0  0
  7 33  1  0  0  0  0
  8  9  1  0  0  0  0
  8 34  1  0  0  0  0
  8 35  1  0  0  0  0
  9 19  1  0  0  0  0
  9 10  1  0  0  0  0
 10 11  2  0  0  0  0
 10 36  1  0  0  0  0
 11 12  1  0  0  0  0
 11 45  1  0  0  0  0
 12 19  2  0  0  0  0
 12 13  1  0  0  0  0
 13 14  2  0  0  0  0
 13 37  1  0  0  0  0
 14 15  1  0  0  0  0
 14 16  1  0  0  0  0
 16 17  1  0  0  0  0
 16 18  2  0  0  0  0
 18 19  1  0  0  0  0
 18 38  1  0  0  0  0
 20 21  1  0  0  0  0
 20 39  1  0  0  0  0
 20 40  1  0  0  0  0
 21 22  1  0  0  0  0
 21 23  1  0  0  0  0
 21 41  1  0  0  0  0
 22 42  1  0  0  0  0
 22 43  1  0  0  0  0
 22 44  1  0  0  0  0
M  CHG  1  11   1
M  END
> <s_m_source_file>
AV-unprocessed.smi

> <i_m_source_file_index>
1824

> <i_lp_mmshare_version>
43012

> <i_f3d_flags>
0

> <s_epik_input>
W0NIM11bQ0BASF0xW0NIMl1OKFtDSDJdW0NASF0oTzEpW0NIM10pW0NIMl1bQ0BIXShbT0hdKVtDSDJdbihbY0hdbjIpYyhjMjMpW2NIXWMoRiljKEYpW2NIXTM=

> <s_epik_cmdline>
J2VwaWtfcHl0aG9uJywgJy1waCcsICc3LjAnLCAnLXRuJywgJzgnLCAnLW1hJywgJzIwMCcsICctbWV0YWxfYmluZGluZycsICctaW1hZScsICc8aW5maWxlLm1hZT4nLCAnLW9tYWUnLCAnPG91dGZpbGUubWFlPic=

> <r_epik_Ionization_Penalty>
2.58709

> <r_epik_Ionization_Penalty_Charging>
2.37273

> <r_epik_Ionization_Penalty_Neutral>
0.214359

> <r_epik_State_Penalty>
2.71799

> <r_epik_Charging_Adjusted_Penalty>
5.09071

> <i_epik_Tot_Q>
1

> <i_epik_Tot_abs_Q>
1

> <r_epik_Metal_State_Penalty>
6.80217

> <b_epik_Metal_Only>
0

> <s_lp_Force_Field>
OPLS_2005

> <r_lp_Energy>
28.8683

> <b_lp_Chiralities_Consistent>
1

> <s_lp_Variant>
AV-unprocessed.smi:1824-18

> <Gold.Version>
5.8.1

> <Gold.Id.Protein>
6NUR|6NUR_protein|mol2

> <Gold.PLP.Fitness>
54.5692

> <Gold.PLP.PLP>
-44.5617

> <Gold.PLP.part.hbond>
-3.0000

> <Gold.PLP.part.metal>
0.0000

> <Gold.PLP.part.buried>
-6.7167

> <Gold.PLP.part.nonpolar>
-35.2315

> <Gold.PLP.part.repulsive>
0.0881

> <Gold.PLP.ligand.clash>
0.0000

> <Gold.PLP.ligand.torsion>
0.6743

> <Gold.PLP.Chemscore.Hbond>
3.7840

> <Gold.PLP.Chemscore.CHOScore>
0.0000

> <Gold.PLP.Chemscore.Metal>
0.0000

> <Gold.Chemscore.Hbonds>
donor molecule, donor type, donor heavy atom, donor atom, acceptor molecule, acceptor atom, score
      L1  H    11    45       P1  8028  2.00
      P1  H  6896  6909       L1    23  0.65
      P1  H  7989  7998       L1     7  0.77

> <Gold.PLP.Chemscore.Internal.Correction>
0.0042

> <Gold.Rescore>
     Score         DG    S(hbond)    S(metal)    S(lipo)     H(rot)  DE(clash)    DE(int)     intcor
     17.18     -20.10       2.71        0.00      98.28       2.32       0.03       2.89       ----

> <Gold.Chemscore.Fitness>
17.1767

> <Gold.Chemscore.DG>
-20.0964

> <Gold.Chemscore.ZeroCoef>
-5.4800

> <Gold.Chemscore.Hbond>
2.7123

> <Gold.Chemscore.Metal>
0.0000

> <Gold.Chemscore.Lipo>
98.2826

> <Gold.Chemscore.Internal_Hbond>
0.0000

> <Gold.Chemscore.DEClash>
0.0324

> <Gold.Chemscore.DEInternal>
2.8873

> <Gold.Chemscore.Rot>
2.3210

> <Gold.Chemscore.Internal.Correction>
   9.000000E+99

> <Gold.Chemscore.Hbonds>
donor molecule, donor type, donor heavy atom, donor atom, acceptor molecule, acceptor atom, score
      L1  H    11    45       P1  8028  1.00
      P1  H  6896  6909       L1    23  0.22
      P1  H  7989  7998       L1     7  0.62

> <Gold.Chemscore.Hbond.Weighted>
-9.0589

> <Gold.Chemscore.Metal.Weighted>
-0.0000

> <Gold.Chemscore.Lipo.Weighted>
-11.4991

> <Gold.Chemscore.Internal_Hbond.Weighted>
0.0000

> <Gold.Chemscore.DEClash.Weighted>
0.0324

> <Gold.Chemscore.DEInternal.Weighted>
2.8873

> <Gold.Chemscore.Rot.Weighted>
5.9416

> <Gold.Chemscore.Internal.Correction.Weighted>
   9.000000E+99

> <Gold.Protein.RotatedTorsions>
[ 6907 6896 6895 6894 ] final   28.78 input  -60.11 | X-H torsion
[ 7974 7965 7964 7962 ] final  -18.22 input  175.53 | X-H torsion
[ 8008 7997 7996 7995 ] final   54.89 input   59.86 | X-H torsion
[ 10167 10162 10161 10158 ] final   21.37 input  -65.29 | X-H torsion
[ 10718 10713 10712 10709 ] final -125.94 input   66.30 | X-H torsion
[ 10763 10752 10751 10750 ] final   38.59 input  -60.55 | X-H torsion
[ 11005 11000 10999 10996 ] final  -72.82 input  -57.11 | X-H torsion

> <Gold.Protein.ActiveResidues>
 VAL166  LYS551  ARG553  GLY616  TRP617  ASP618  TYR619  PRO620  LYS621  CYS622 
 ASP623  PHE694  ASN695  SER759  ASP760  ASP761  ALA762  ILE779  LEU786  VAL792 
 PHE793  MET794  SER795  GLU796  ALA797  LYS798  CYS799  TRP800  GLU811  SER814 

> <Gold.Protein.RotatedAtoms>
  152.0219  134.9818  160.0570 H   0  0  0  0  0  0  0  0  0  0  0  0  # atno 6907 bound_to 6896
  152.1329  133.4413  159.4738 H   0  0  0  0  0  0  0  0  0  0  0  0  # atno 6908 bound_to 6896
  150.6858  134.2317  159.4480 H   0  0  0  0  0  0  0  0  0  0  0  0  # atno 6909 bound_to 6896
  146.1903  140.3889  142.8460 H   0  0  0  0  0  0  0  0  0  0  0  0  # atno 7974 bound_to 7965
  155.4921  140.3472  155.4357 H   0  0  0  0  0  0  0  0  0  0  0  0  # atno 8008 bound_to 7997
  156.0970  140.1425  156.9546 H   0  0  0  0  0  0  0  0  0  0  0  0  # atno 8009 bound_to 7997
  154.4669  140.0914  156.7022 H   0  0  0  0  0  0  0  0  0  0  0  0  # atno 8010 bound_to 7997
  140.5432  143.9640  150.6532 H   0  0  0  0  0  0  0  0  0  0  0  0  # atno 10167 bound_to 10162
  156.1720  130.6674  151.0193 H   0  0  0  0  0  0  0  0  0  0  0  0  # atno 10718 bound_to 10713
  152.9996  135.6245  154.2329 H   0  0  0  0  0  0  0  0  0  0  0  0  # atno 10763 bound_to 10752
  154.2070  135.2801  155.2973 H   0  0  0  0  0  0  0  0  0  0  0  0  # atno 10764 bound_to 10752
  154.5637  135.5697  153.7090 H   0  0  0  0  0  0  0  0  0  0  0  0  # atno 10765 bound_to 10752
  141.1614  133.6859  156.7118 H   0  0  0  0  0  0  0  0  0  0  0  0  # atno 11005 bound_to 11000
  144.8474  140.6950  143.6190 LP  0  0  0  0  0  0  0  0  0  0  0  0  # atno 17320 bound_to 7965
  145.3813  139.1636  143.4279 LP  0  0  0  0  0  0  0  0  0  0  0  0  # atno 17321 bound_to 7965
  140.3046  143.3237  152.0938 LP  0  0  0  0  0  0  0  0  0  0  0  0  # atno 17342 bound_to 10162
  139.4997  144.6675  151.6322 LP  0  0  0  0  0  0  0  0  0  0  0  0  # atno 17343 bound_to 10162
  157.6810  131.0838  150.7371 LP  0  0  0  0  0  0  0  0  0  0  0  0  # atno 17370 bound_to 10713
  156.7429  130.4745  149.5473 LP  0  0  0  0  0  0  0  0  0  0  0  0  # atno 17371 bound_to 10713
  140.2881  134.8262  157.3993 LP  0  0  0  0  0  0  0  0  0  0  0  0  # atno 17394 bound_to 11000
  140.1371  134.5019  155.8060 LP  0  0  0  0  0  0  0  0  0  0  0  0  # atno 17395 bound_to 11000

$$$$
