AV-unprocessed.smi:1221|AV-procd|sdf|5119|dock4
  -GOLD-   22720 4173D 1   1.00000     0.00000
 Structure written by MMmdl.
 39 40  0  0  0  0  0  0  0  0  2 V2000
  153.9089  136.7772  164.4273 C   0  0  0  0  0  0  0  0  0  0  0  0
  154.2447  136.7810  162.9751 C   0  0  0  0  0  0  0  0  0  0  0  0
  154.1323  137.7301  161.9991 C   0  0  0  0  0  0  0  0  0  0  0  0
  154.6376  137.0711  160.8449 C   0  0  0  0  0  0  0  0  0  0  0  0
  154.7184  137.5890  159.6097 N   0  5  0  0  0  0  0  0  0  0  0  0
  154.4309  138.8938  159.3945 C   0  0  0  0  0  0  0  0  0  0  0  0
  155.2396  139.7898  159.1417 O   0  0  0  0  0  0  0  0  0  0  0  0
  153.1235  139.1773  159.4811 N   0  0  0  0  0  0  0  0  0  0  0  0
  152.5187  140.4924  159.3050 C   0  0  0  0  0  0  0  0  0  0  0  0
  153.0599  141.5041  160.3318 C   0  0  0  0  0  0  0  0  0  0  0  0
  152.7287  142.8817  159.9499 N   0  0  0  0  0  0  0  0  0  0  0  0
  152.8409  143.1986  158.5172 C   0  0  0  0  0  0  0  0  0  0  0  0
  151.4823  143.4468  157.8217 C   0  0  0  0  0  0  0  0  0  0  0  0
  150.3576  144.0213  158.7059 C   0  0  0  0  0  0  0  0  0  0  0  0
  150.7297  145.2956  159.4926 C   0  0  0  0  0  0  0  0  0  0  0  0
  151.9999  145.2176  160.3727 C   0  0  0  0  0  0  0  0  0  0  0  0
  152.3436  143.8028  160.8670 C   0  0  0  0  0  0  0  0  0  0  0  0
  152.2570  143.5586  162.0707 O   0  0  0  0  0  0  0  0  0  0  0  0
  155.0087  135.8268  161.0957 N   0  0  0  0  0  0  0  0  0  0  0  0
  154.7653  135.6346  162.4608 O   0  0  0  0  0  0  0  0  0  0  0  0
  152.8306  136.7146  164.5722 H   0  0  0  0  0  0  0  0  0  0  0  0
  154.2630  137.6890  164.9082 H   0  0  0  0  0  0  0  0  0  0  0  0
  154.3683  135.9284  164.9346 H   0  0  0  0  0  0  0  0  0  0  0  0
  153.7518  138.7360  162.0939 H   0  0  0  0  0  0  0  0  0  0  0  0
  152.4985  138.4122  159.6881 H   0  0  0  0  0  0  0  0  0  0  0  0
  152.6739  140.8484  158.2852 H   0  0  0  0  0  0  0  0  0  0  0  0
  151.4422  140.3765  159.4316 H   0  0  0  0  0  0  0  0  0  0  0  0
  152.6539  141.2840  161.3202 H   0  0  0  0  0  0  0  0  0  0  0  0
  154.1405  141.3917  160.4374 H   0  0  0  0  0  0  0  0  0  0  0  0
  153.4814  144.0722  158.3952 H   0  0  0  0  0  0  0  0  0  0  0  0
  153.3749  142.4103  157.9850 H   0  0  0  0  0  0  0  0  0  0  0  0
  151.6418  144.0995  156.9626 H   0  0  0  0  0  0  0  0  0  0  0  0
  151.1281  142.5015  157.4092 H   0  0  0  0  0  0  0  0  0  0  0  0
  149.4923  144.2356  158.0781 H   0  0  0  0  0  0  0  0  0  0  0  0
  150.0171  143.2520  159.4005 H   0  0  0  0  0  0  0  0  0  0  0  0
  150.8446  146.1229  158.7914 H   0  0  0  0  0  0  0  0  0  0  0  0
  149.8827  145.5653  160.1245 H   0  0  0  0  0  0  0  0  0  0  0  0
  152.8560  145.6199  159.8317 H   0  0  0  0  0  0  0  0  0  0  0  0
  151.8806  145.8781  161.2325 H   0  0  0  0  0  0  0  0  0  0  0  0
  1  2  1  0  0  0  0
  1 21  1  0  0  0  0
  1 22  1  0  0  0  0
  1 23  1  0  0  0  0
  2 20  1  0  0  0  0
  2  3  2  0  0  0  0
  3  4  1  0  0  0  0
  3 24  1  0  0  0  0
  4  5  1  0  0  0  0
  4 19  2  0  0  0  0
  5  6  1  0  0  0  0
  6  7  2  0  0  0  0
  6  8  1  0  0  0  0
  8  9  1  0  0  0  0
  8 25  1  0  0  0  0
  9 10  1  0  0  0  0
  9 26  1  0  0  0  0
  9 27  1  0  0  0  0
 10 11  1  0  0  0  0
 10 28  1  0  0  0  0
 10 29  1  0  0  0  0
 11 17  1  0  0  0  0
 11 12  1  0  0  0  0
 12 13  1  0  0  0  0
 12 30  1  0  0  0  0
 12 31  1  0  0  0  0
 13 14  1  0  0  0  0
 13 32  1  0  0  0  0
 13 33  1  0  0  0  0
 14 15  1  0  0  0  0
 14 34  1  0  0  0  0
 14 35  1  0  0  0  0
 15 16  1  0  0  0  0
 15 36  1  0  0  0  0
 15 37  1  0  0  0  0
 16 17  1  0  0  0  0
 16 38  1  0  0  0  0
 16 39  1  0  0  0  0
 17 18  2  0  0  0  0
 19 20  1  0  0  0  0
M  CHG  1   5  -1
M  END
> <s_m_source_file>
AV-unprocessed.smi

> <i_m_source_file_index>
1221

> <i_lp_mmshare_version>
43012

> <i_f3d_flags>
0

> <s_epik_input>
W0NIM11jMVtjSF1jKG5vMSlbTkhdQyg9TylbTkhdW0NIMl1bQ0gyXU4yW0NIMl1bQ0gyXVtDSDJdW0NIMl1bQ0gyXUMyPU8=

> <s_epik_cmdline>
J2VwaWtfcHl0aG9uJywgJy1waCcsICc3LjAnLCAnLXRuJywgJzgnLCAnLW1hJywgJzIwMCcsICctbWV0YWxfYmluZGluZycsICctaW1hZScsICc8aW5maWxlLm1hZT4nLCAnLW9tYWUnLCAnPG91dGZpbGUubWFlPic=

> <r_lp_tautomer_probability>
1

> <r_epik_Ionization_Penalty>
6.46803

> <r_epik_Ionization_Penalty_Charging>
6.46791

> <r_epik_Ionization_Penalty_Neutral>
0.00012322

> <r_epik_State_Penalty>
6.4679

> <r_epik_Charging_Adjusted_Penalty>
12.9358

> <i_epik_Tot_Q>
-1

> <i_epik_Tot_abs_Q>
1

> <r_epik_Metal_State_Penalty>
2.39627

> <b_epik_Metal_Only>
1

> <s_lp_Force_Field>
OPLS_2005

> <r_lp_Energy>
15.4009

> <b_lp_Chiralities_Consistent>
1

> <s_lp_Variant>
AV-unprocessed.smi:1221-2

> <Gold.Version>
5.8.1

> <Gold.Id.Protein>
6NUR|6NUR_protein|mol2

> <Gold.PLP.Fitness>
43.7176

> <Gold.PLP.PLP>
-42.7413

> <Gold.PLP.part.hbond>
-1.0000

> <Gold.PLP.part.metal>
0.0000

> <Gold.PLP.part.buried>
-6.8503

> <Gold.PLP.part.nonpolar>
-36.2296

> <Gold.PLP.part.repulsive>
0.5667

> <Gold.PLP.ligand.clash>
0.0000

> <Gold.PLP.ligand.torsion>
1.0213

> <Gold.PLP.Chemscore.Hbond>
1.0000

> <Gold.PLP.Chemscore.CHOScore>
0.0000

> <Gold.PLP.Chemscore.Metal>
0.0000

> <Gold.Chemscore.Hbonds>
donor molecule, donor type, donor heavy atom, donor atom, acceptor molecule, acceptor atom, score
      P1  H  7997  8009       L1     7  1.00

> <Gold.PLP.Chemscore.Internal.Correction>
0.0189

> <Gold.Rescore>
     Score         DG    S(hbond)    S(metal)    S(lipo)     H(rot)  DE(clash)    DE(int)     intcor
     14.86     -15.81       1.00        0.00      94.79       1.60       0.10       0.86       ----

> <Gold.Chemscore.Fitness>
14.8557

> <Gold.Chemscore.DG>
-15.8124

> <Gold.Chemscore.ZeroCoef>
-5.4800

> <Gold.Chemscore.Hbond>
0.9977

> <Gold.Chemscore.Metal>
0.0000

> <Gold.Chemscore.Lipo>
94.7897

> <Gold.Chemscore.Internal_Hbond>
0.0000

> <Gold.Chemscore.DEClash>
0.0979

> <Gold.Chemscore.DEInternal>
0.8588

> <Gold.Chemscore.Rot>
1.5978

> <Gold.Chemscore.Internal.Correction>
   9.000000E+99

> <Gold.Chemscore.Hbonds>
donor molecule, donor type, donor heavy atom, donor atom, acceptor molecule, acceptor atom, score
      P1  H  7997  8009       L1     7  0.83

> <Gold.Chemscore.Hbond.Weighted>
-3.3323

> <Gold.Chemscore.Metal.Weighted>
-0.0000

> <Gold.Chemscore.Lipo.Weighted>
-11.0904

> <Gold.Chemscore.Internal_Hbond.Weighted>
0.0000

> <Gold.Chemscore.DEClash.Weighted>
0.0979

> <Gold.Chemscore.DEInternal.Weighted>
0.8588

> <Gold.Chemscore.Rot.Weighted>
4.0902

> <Gold.Chemscore.Internal.Correction.Weighted>
   9.000000E+99

> <Gold.Protein.RotatedTorsions>
[ 6907 6896 6895 6894 ] final  -51.34 input  -60.11 | X-H torsion
[ 7974 7965 7964 7962 ] final  117.56 input  175.53 | X-H torsion
[ 8008 7997 7996 7995 ] final   97.30 input   59.86 | X-H torsion
[ 10167 10162 10161 10158 ] final -165.56 input  -65.29 | X-H torsion
[ 10718 10713 10712 10709 ] final  158.23 input   66.30 | X-H torsion
[ 10763 10752 10751 10750 ] final  119.07 input  -60.55 | X-H torsion
[ 11005 11000 10999 10996 ] final -150.82 input  -57.11 | X-H torsion

> <Gold.Protein.ActiveResidues>
 VAL166  LYS551  ARG553  GLY616  TRP617  ASP618  TYR619  PRO620  LYS621  CYS622 
 ASP623  PHE694  ASN695  SER759  ASP760  ASP761  ALA762  ILE779  LEU786  VAL792 
 PHE793  MET794  SER795  GLU796  ALA797  LYS798  CYS799  TRP800  GLU811  SER814 

> <Gold.Protein.RotatedAtoms>
  150.8620  134.7974  159.7089 H   0  0  0  0  0  0  0  0  0  0  0  0  # atno 6907 bound_to 6896
  152.4654  134.5084  159.9756 H   0  0  0  0  0  0  0  0  0  0  0  0  # atno 6908 bound_to 6896
  151.5187  133.3432  159.2933 H   0  0  0  0  0  0  0  0  0  0  0  0  # atno 6909 bound_to 6896
  145.1658  139.3129  143.4493 H   0  0  0  0  0  0  0  0  0  0  0  0  # atno 7974 bound_to 7965
  156.0887  140.3260  155.7787 H   0  0  0  0  0  0  0  0  0  0  0  0  # atno 8008 bound_to 7997
  155.5033  140.0571  157.2953 H   0  0  0  0  0  0  0  0  0  0  0  0  # atno 8009 bound_to 7997
  154.4624  140.1973  156.0224 H   0  0  0  0  0  0  0  0  0  0  0  0  # atno 8010 bound_to 7997
  139.6174  144.0693  152.1900 H   0  0  0  0  0  0  0  0  0  0  0  0  # atno 10167 bound_to 10162
  157.1808  131.0632  151.2133 H   0  0  0  0  0  0  0  0  0  0  0  0  # atno 10718 bound_to 10713
  153.5774  135.3490  155.2861 H   0  0  0  0  0  0  0  0  0  0  0  0  # atno 10763 bound_to 10752
  154.8673  135.4174  154.2658 H   0  0  0  0  0  0  0  0  0  0  0  0  # atno 10764 bound_to 10752
  153.3437  135.7051  153.6916 H   0  0  0  0  0  0  0  0  0  0  0  0  # atno 10765 bound_to 10752
  140.7362  134.3566  157.5157 H   0  0  0  0  0  0  0  0  0  0  0  0  # atno 11005 bound_to 11000
  146.3476  140.1786  142.8589 LP  0  0  0  0  0  0  0  0  0  0  0  0  # atno 17320 bound_to 7965
  145.0283  140.8850  143.5125 LP  0  0  0  0  0  0  0  0  0  0  0  0  # atno 17321 bound_to 7965
  140.0326  144.6069  150.7475 LP  0  0  0  0  0  0  0  0  0  0  0  0  # atno 17342 bound_to 10162
  140.7360  143.2747  151.3778 LP  0  0  0  0  0  0  0  0  0  0  0  0  # atno 17343 bound_to 10162
  157.3955  130.7305  149.6728 LP  0  0  0  0  0  0  0  0  0  0  0  0  # atno 17370 bound_to 10713
  155.9725  130.4135  150.4085 LP  0  0  0  0  0  0  0  0  0  0  0  0  # atno 17371 bound_to 10713
  139.8816  134.9051  156.2891 LP  0  0  0  0  0  0  0  0  0  0  0  0  # atno 17394 bound_to 11000
  140.9878  133.7227  156.0767 LP  0  0  0  0  0  0  0  0  0  0  0  0  # atno 17395 bound_to 11000

$$$$
