AV-unprocessed.smi:1824|AV-procd|sdf|7393|dock4
  -GOLD-   22720 9 63D 1   1.00000     0.00000
 Structure written by MMmdl.
 44 46  0  0  0  0  0  0  0  0  1 V2000
  148.9626  137.6727  155.9524 C   0  0  0  0  0  0  0  0  0  0  0  0
  149.5663  138.3061  154.6874 C   0  0  2  0  0  0  0  0  0  0  0  0
  150.5132  139.4856  154.9861 C   0  0  0  0  0  0  0  0  0  0  0  0
  149.8029  140.6906  155.4012 N   0  0  0  0  0  0  0  0  0  0  0  0
  150.7380  141.7823  155.6721 C   0  0  0  0  0  0  0  0  0  0  0  0
  150.7077  142.3310  157.1145 C   0  0  2  0  0  0  0  0  0  0  0  0
  149.3616  142.4813  157.5257 O   0  0  0  0  0  0  0  0  0  0  0  0
  151.4113  143.6981  157.2249 C   0  0  0  0  0  0  0  0  0  0  0  0
  151.5056  144.1667  158.5963 N   0  0  0  0  0  0  0  0  0  0  0  0
  150.9678  145.2883  159.1131 C   0  0  0  0  0  0  0  0  0  0  0  0
  151.1813  145.5274  160.4041 N   0  0  0  0  0  0  0  0  0  0  0  0
  151.9481  144.4336  160.7681 C   0  0  0  0  0  0  0  0  0  0  0  0
  152.5093  144.0808  162.0161 C   0  0  0  0  0  0  0  0  0  0  0  0
  153.2665  142.8984  162.1509 C   0  0  0  0  0  0  0  0  0  0  0  0
  153.7971  142.5751  163.3541 F   0  0  0  0  0  0  0  0  0  0  0  0
  153.4736  142.0522  161.0411 C   0  0  0  0  0  0  0  0  0  0  0  0
  154.2012  140.9185  161.1793 F   0  0  0  0  0  0  0  0  0  0  0  0
  152.9248  142.3834  159.7874 C   0  0  0  0  0  0  0  0  0  0  0  0
  152.1700  143.5636  159.6583 C   0  0  0  0  0  0  0  0  0  0  0  0
  148.8167  141.0350  154.3822 C   0  0  0  0  0  0  0  0  0  0  0  0
  147.8314  139.8812  154.1214 C   0  0  1  0  0  0  0  0  0  0  0  0
  146.8537  140.2053  152.9871 C   0  0  0  0  0  0  0  0  0  0  0  0
  148.5564  138.7071  153.7602 O   0  0  0  0  0  0  0  0  0  0  0  0
  149.7456  137.2732  156.5972 H   0  0  0  0  0  0  0  0  0  0  0  0
  148.2955  136.8500  155.6944 H   0  0  0  0  0  0  0  0  0  0  0  0
  148.3933  138.3926  156.5403 H   0  0  0  0  0  0  0  0  0  0  0  0
  150.1470  137.5288  154.1898 H   0  0  0  0  0  0  0  0  0  0  0  0
  151.2302  139.1909  155.7533 H   0  0  0  0  0  0  0  0  0  0  0  0
  151.0964  139.7018  154.0893 H   0  0  0  0  0  0  0  0  0  0  0  0
  151.7439  141.4009  155.4907 H   0  0  0  0  0  0  0  0  0  0  0  0
  150.6034  142.5902  154.9510 H   0  0  0  0  0  0  0  0  0  0  0  0
  151.2018  141.6282  157.7872 H   0  0  0  0  0  0  0  0  0  0  0  0
  148.9581  143.1512  156.9953 H   0  0  0  0  0  0  0  0  0  0  0  0
  152.4229  143.6350  156.8222 H   0  0  0  0  0  0  0  0  0  0  0  0
  150.8857  144.4486  156.6322 H   0  0  0  0  0  0  0  0  0  0  0  0
  150.3844  145.9668  158.5076 H   0  0  0  0  0  0  0  0  0  0  0  0
  152.3574  144.7210  162.8725 H   0  0  0  0  0  0  0  0  0  0  0  0
  153.0805  141.7374  158.9362 H   0  0  0  0  0  0  0  0  0  0  0  0
  148.2483  141.9119  154.6914 H   0  0  0  0  0  0  0  0  0  0  0  0
  149.3239  141.3018  153.4536 H   0  0  0  0  0  0  0  0  0  0  0  0
  147.2535  139.6855  155.0253 H   0  0  0  0  0  0  0  0  0  0  0  0
  146.2634  141.0918  153.2195 H   0  0  0  0  0  0  0  0  0  0  0  0
  146.1617  139.3791  152.8219 H   0  0  0  0  0  0  0  0  0  0  0  0
  147.3814  140.3900  152.0511 H   0  0  0  0  0  0  0  0  0  0  0  0
  1  2  1  0  0  0  0
  1 24  1  0  0  0  0
  1 25  1  0  0  0  0
  1 26  1  0  0  0  0
  2 23  1  0  0  0  0
  2  3  1  0  0  0  0
  2 27  1  0  0  0  0
  3  4  1  0  0  0  0
  3 28  1  0  0  0  0
  3 29  1  0  0  0  0
  4  5  1  0  0  0  0
  4 20  1  0  0  0  0
  5  6  1  0  0  0  0
  5 30  1  0  0  0  0
  5 31  1  0  0  0  0
  6  7  1  0  0  0  0
  6  8  1  0  0  0  0
  6 32  1  0  0  0  0
  7 33  1  0  0  0  0
  8  9  1  0  0  0  0
  8 34  1  0  0  0  0
  8 35  1  0  0  0  0
  9 19  1  0  0  0  0
  9 10  1  0  0  0  0
 10 11  2  0  0  0  0
 10 36  1  0  0  0  0
 11 12  1  0  0  0  0
 12 19  2  0  0  0  0
 12 13  1  0  0  0  0
 13 14  2  0  0  0  0
 13 37  1  0  0  0  0
 14 15  1  0  0  0  0
 14 16  1  0  0  0  0
 16 17  1  0  0  0  0
 16 18  2  0  0  0  0
 18 19  1  0  0  0  0
 18 38  1  0  0  0  0
 20 21  1  0  0  0  0
 20 39  1  0  0  0  0
 20 40  1  0  0  0  0
 21 22  1  0  0  0  0
 21 23  1  0  0  0  0
 21 41  1  0  0  0  0
 22 42  1  0  0  0  0
 22 43  1  0  0  0  0
 22 44  1  0  0  0  0
M  END
> <s_m_source_file>
AV-unprocessed.smi

> <i_m_source_file_index>
1824

> <i_lp_mmshare_version>
43012

> <i_f3d_flags>
0

> <s_epik_input>
W0NIM11bQ0BASF0xW0NIMl1OKFtDSDJdW0NASF0oTzEpW0NIM10pW0NIMl1bQ0BIXShbT0hdKVtDSDJdbihbY0hdbjIpYyhjMjMpW2NIXWMoRiljKEYpW2NIXTM=

> <s_epik_cmdline>
J2VwaWtfcHl0aG9uJywgJy1waCcsICc3LjAnLCAnLXRuJywgJzgnLCAnLW1hJywgJzIwMCcsICctbWV0YWxfYmluZGluZycsICctaW1hZScsICc8aW5maWxlLm1hZT4nLCAnLW9tYWUnLCAnPG91dGZpbGUubWFlPic=

> <r_epik_Ionization_Penalty>
0.273778

> <r_epik_Ionization_Penalty_Charging>
0

> <r_epik_Ionization_Penalty_Neutral>
0.273778

> <r_epik_State_Penalty>
0.246794

> <r_epik_Charging_Adjusted_Penalty>
0.246794

> <i_epik_Tot_Q>
0

> <i_epik_Tot_abs_Q>
0

> <r_epik_Metal_State_Penalty>
0.238234

> <b_epik_Metal_Only>
0

> <s_lp_Force_Field>
OPLS_2005

> <r_lp_Energy>
29.8683

> <b_lp_Chiralities_Consistent>
1

> <s_lp_Variant>
AV-unprocessed.smi:1824-1

> <Gold.Version>
5.8.1

> <Gold.Id.Protein>
6NUR|6NUR_protein|mol2

> <Gold.PLP.Fitness>
56.9871

> <Gold.PLP.PLP>
-54.2457

> <Gold.PLP.part.hbond>
-1.1497

> <Gold.PLP.part.metal>
0.0000

> <Gold.PLP.part.buried>
-5.1146

> <Gold.PLP.part.nonpolar>
-50.0209

> <Gold.PLP.part.repulsive>
1.1085

> <Gold.PLP.ligand.clash>
0.0000

> <Gold.PLP.ligand.torsion>
0.8859

> <Gold.PLP.Chemscore.Hbond>
1.0000

> <Gold.PLP.Chemscore.CHOScore>
0.4969

> <Gold.PLP.Chemscore.Metal>
0.0000

> <Gold.Chemscore.Hbonds>
donor molecule, donor type, donor heavy atom, donor atom, acceptor molecule, acceptor atom, score
      L1  H     7    33       P1  8028  0.94
      L1  C    10    36       P1  8029  0.45

> <Gold.PLP.Chemscore.Internal.Correction>
0.0224

> <Gold.Rescore>
     Score         DG    S(hbond)    S(metal)    S(lipo)     H(rot)  DE(clash)    DE(int)     intcor
     14.89     -18.72       0.92        0.00     136.46       2.26       2.92       0.91       ----

> <Gold.Chemscore.Fitness>
14.8949

> <Gold.Chemscore.DG>
-18.7229

> <Gold.Chemscore.ZeroCoef>
-5.4800

> <Gold.Chemscore.Hbond>
0.9183

> <Gold.Chemscore.Metal>
0.0000

> <Gold.Chemscore.Lipo>
136.4635

> <Gold.Chemscore.Internal_Hbond>
0.0000

> <Gold.Chemscore.DEClash>
2.9214

> <Gold.Chemscore.DEInternal>
0.9066

> <Gold.Chemscore.Rot>
2.2619

> <Gold.Chemscore.Internal.Correction>
   9.000000E+99

> <Gold.Chemscore.Hbonds>
donor molecule, donor type, donor heavy atom, donor atom, acceptor molecule, acceptor atom, score
      L1  H     7    33       P1  8028  0.73

> <Gold.Chemscore.Hbond.Weighted>
-3.0671

> <Gold.Chemscore.Metal.Weighted>
-0.0000

> <Gold.Chemscore.Lipo.Weighted>
-15.9662

> <Gold.Chemscore.Internal_Hbond.Weighted>
0.0000

> <Gold.Chemscore.DEClash.Weighted>
2.9214

> <Gold.Chemscore.DEInternal.Weighted>
0.9066

> <Gold.Chemscore.Rot.Weighted>
5.7904

> <Gold.Chemscore.Internal.Correction.Weighted>
   9.000000E+99

> <Gold.Protein.RotatedTorsions>
[ 6907 6896 6895 6894 ] final  -98.48 input  -60.11 | X-H torsion
[ 7974 7965 7964 7962 ] final   28.57 input  175.53 | X-H torsion
[ 8008 7997 7996 7995 ] final   29.72 input   59.86 | X-H torsion
[ 10167 10162 10161 10158 ] final  -65.60 input  -65.29 | X-H torsion
[ 10718 10713 10712 10709 ] final   31.68 input   66.30 | X-H torsion
[ 10763 10752 10751 10750 ] final  164.77 input  -60.55 | X-H torsion
[ 11005 11000 10999 10996 ] final -166.40 input  -57.11 | X-H torsion

> <Gold.Protein.ActiveResidues>
 VAL166  LYS551  ARG553  GLY616  TRP617  ASP618  TYR619  PRO620  LYS621  CYS622 
 ASP623  PHE694  ASN695  SER759  ASP760  ASP761  ALA762  ILE779  LEU786  VAL792 
 PHE793  MET794  SER795  GLU796  ALA797  LYS798  CYS799  TRP800  GLU811  SER814 

> <Gold.Protein.RotatedAtoms>
  150.7048  134.1188  159.4026 H   0  0  0  0  0  0  0  0  0  0  0  0  # atno 6907 bound_to 6896
  151.9174  135.0311  160.0528 H   0  0  0  0  0  0  0  0  0  0  0  0  # atno 6908 bound_to 6896
  152.2285  133.5004  159.5239 H   0  0  0  0  0  0  0  0  0  0  0  0  # atno 6909 bound_to 6896
  146.1721  139.7038  142.8960 H   0  0  0  0  0  0  0  0  0  0  0  0  # atno 7974 bound_to 7965
  155.0790  140.3208  155.4607 H   0  0  0  0  0  0  0  0  0  0  0  0  # atno 8008 bound_to 7997
  156.2772  140.2098  156.5863 H   0  0  0  0  0  0  0  0  0  0  0  0  # atno 8009 bound_to 7997
  154.6994  140.0508  157.0430 H   0  0  0  0  0  0  0  0  0  0  0  0  # atno 8010 bound_to 7997
  140.5718  143.2318  151.6523 H   0  0  0  0  0  0  0  0  0  0  0  0  # atno 10167 bound_to 10162
  157.2756  130.7229  149.6528 H   0  0  0  0  0  0  0  0  0  0  0  0  # atno 10718 bound_to 10713
  154.3139  135.2757  155.2552 H   0  0  0  0  0  0  0  0  0  0  0  0  # atno 10763 bound_to 10752
  154.4935  135.5827  153.6481 H   0  0  0  0  0  0  0  0  0  0  0  0  # atno 10764 bound_to 10752
  152.9884  135.6140  154.3319 H   0  0  0  0  0  0  0  0  0  0  0  0  # atno 10765 bound_to 10752
  140.5649  134.5296  157.5150 H   0  0  0  0  0  0  0  0  0  0  0  0  # atno 11005 bound_to 11000
  145.4311  141.0415  143.2910 LP  0  0  0  0  0  0  0  0  0  0  0  0  # atno 17320 bound_to 7965
  144.8179  139.5843  143.7000 LP  0  0  0  0  0  0  0  0  0  0  0  0  # atno 17321 bound_to 7965
  139.5121  144.3486  152.0673 LP  0  0  0  0  0  0  0  0  0  0  0  0  # atno 17342 bound_to 10162
  140.2625  144.4052  150.6180 LP  0  0  0  0  0  0  0  0  0  0  0  0  # atno 17343 bound_to 10162
  155.9663  130.4354  150.5090 LP  0  0  0  0  0  0  0  0  0  0  0  0  # atno 17370 bound_to 10713
  157.3023  131.0647  151.2059 LP  0  0  0  0  0  0  0  0  0  0  0  0  # atno 17371 bound_to 10713
  139.9389  134.7823  156.0729 LP  0  0  0  0  0  0  0  0  0  0  0  0  # atno 17394 bound_to 11000
  141.1092  133.6649  156.2936 LP  0  0  0  0  0  0  0  0  0  0  0  0  # atno 17395 bound_to 11000

$$$$
