AV-unprocessed.smi:229|AV-procd|sdf|1747|dock7
  -GOLD-   2262020263D 1   1.00000     0.00000
 Structure written by MMmdl.
 58 62  0  0  0  0  0  0  0  0  1 V2000
  146.3348  142.1420  154.9647 C   0  0  0  0  0  0  0  0  0  0  0  0
  147.0581  141.5524  153.7466 C   0  0  0  0  0  0  0  0  0  0  0  0
  147.7762  140.2240  154.0359 C   0  0  2  0  0  0  0  0  0  0  0  0
  146.8027  139.0596  154.2956 C   0  0  0  0  0  0  0  0  0  0  0  0
  147.5452  137.8662  154.6802 N   0  0  0  0  0  0  0  0  0  0  0  0
  146.8443  136.7060  154.6119 C   0  0  0  0  0  0  0  0  0  0  0  0
  146.9353  135.7957  155.6186 N   0  0  0  0  0  0  0  0  0  0  0  0
  146.2411  134.6552  155.5634 C   0  0  0  0  0  0  0  0  0  0  0  0
  145.4127  134.2281  154.6088 N   0  0  0  0  0  0  0  0  0  0  0  0
  145.3227  135.1321  153.5921 C   0  0  0  0  0  0  0  0  0  0  0  0
  145.9982  136.3830  153.5132 C   0  0  0  0  0  0  0  0  0  0  0  0
  145.6696  137.0226  152.3230 N   0  0  0  0  0  0  0  0  0  0  0  0
  144.8385  136.2034  151.7389 C   0  0  0  0  0  0  0  0  0  0  0  0
  144.5727  135.0452  152.4324 N   0  0  0  0  0  0  0  0  0  0  0  0
  143.6889  133.9702  152.0171 C   0  0  0  0  0  0  0  0  0  0  0  0
  144.2212  133.2166  150.7825 C   0  0  2  0  0  0  0  0  0  0  0  0
  143.1754  132.5199  150.1316 O   0  0  0  0  0  0  0  0  0  0  0  0
  145.3849  132.2623  151.1213 C   0  0  2  0  0  0  0  0  0  0  0  0
  145.0258  131.0000  151.9107 C   0  0  0  0  0  0  0  0  0  0  0  0
  146.3570  130.6599  152.5432 C   0  0  0  0  0  0  0  0  0  0  0  0
  146.9049  132.0451  152.8776 C   0  0  0  0  0  0  0  0  0  0  0  0
  146.4162  132.9139  151.8594 O   0  0  0  0  0  0  0  0  0  0  0  0
  148.4064  138.0845  155.8380 C   0  0  0  0  0  0  0  0  0  0  0  0
  149.3541  139.2822  155.5980 C   0  0  1  0  0  0  0  0  0  0  0  0
  150.1014  139.6526  156.8750 C   0  0  0  0  0  0  0  0  0  0  0  0
  151.4188  138.9051  156.7369 C   0  0  0  0  0  0  0  0  0  0  0  0
  151.7205  139.0767  155.3650 O   0  0  0  0  0  0  0  0  0  0  0  0
  150.5112  138.9561  154.6242 C   0  0  0  0  0  0  0  0  0  0  0  0
  148.5889  140.4220  155.1946 O   0  0  0  0  0  0  0  0  0  0  0  0
  145.7920  143.0464  154.6899 H   0  0  0  0  0  0  0  0  0  0  0  0
  147.0339  142.4087  155.7574 H   0  0  0  0  0  0  0  0  0  0  0  0
  145.6140  141.4345  155.3752 H   0  0  0  0  0  0  0  0  0  0  0  0
  146.3234  141.3899  152.9571 H   0  0  0  0  0  0  0  0  0  0  0  0
  147.7688  142.2803  153.3532 H   0  0  0  0  0  0  0  0  0  0  0  0
  148.4093  139.9813  153.1820 H   0  0  0  0  0  0  0  0  0  0  0  0
  146.1113  139.3186  155.0987 H   0  0  0  0  0  0  0  0  0  0  0  0
  146.1996  138.8774  153.4077 H   0  0  0  0  0  0  0  0  0  0  0  0
  146.3672  133.9896  156.4044 H   0  0  0  0  0  0  0  0  0  0  0  0
  144.3921  136.4233  150.7800 H   0  0  0  0  0  0  0  0  0  0  0  0
  143.5721  133.2831  152.8559 H   0  0  0  0  0  0  0  0  0  0  0  0
  142.7010  134.3870  151.8172 H   0  0  0  0  0  0  0  0  0  0  0  0
  144.5929  133.9502  150.0662 H   0  0  0  0  0  0  0  0  0  0  0  0
  142.4805  133.1310  149.9412 H   0  0  0  0  0  0  0  0  0  0  0  0
  145.8480  131.9456  150.1854 H   0  0  0  0  0  0  0  0  0  0  0  0
  144.2942  131.2058  152.6927 H   0  0  0  0  0  0  0  0  0  0  0  0
  144.6348  130.2014  151.2796 H   0  0  0  0  0  0  0  0  0  0  0  0
  146.2665  130.0146  153.4175 H   0  0  0  0  0  0  0  0  0  0  0  0
  147.0027  130.1649  151.8165 H   0  0  0  0  0  0  0  0  0  0  0  0
  146.5144  132.3851  153.8377 H   0  0  0  0  0  0  0  0  0  0  0  0
  147.9937  132.0628  152.9293 H   0  0  0  0  0  0  0  0  0  0  0  0
  147.7754  138.2790  156.7067 H   0  0  0  0  0  0  0  0  0  0  0  0
  148.9853  137.1859  156.0567 H   0  0  0  0  0  0  0  0  0  0  0  0
  150.3036  140.7247  156.8948 H   0  0  0  0  0  0  0  0  0  0  0  0
  149.5624  139.4020  157.7892 H   0  0  0  0  0  0  0  0  0  0  0  0
  152.2042  139.3090  157.3761 H   0  0  0  0  0  0  0  0  0  0  0  0
  151.2970  137.8442  156.9609 H   0  0  0  0  0  0  0  0  0  0  0  0
  150.4290  137.9420  154.2311 H   0  0  0  0  0  0  0  0  0  0  0  0
  150.5564  139.6369  153.7748 H   0  0  0  0  0  0  0  0  0  0  0  0
  1  2  1  0  0  0  0
  1 30  1  0  0  0  0
  1 31  1  0  0  0  0
  1 32  1  0  0  0  0
  2  3  1  0  0  0  0
  2 33  1  0  0  0  0
  2 34  1  0  0  0  0
  3 29  1  0  0  0  0
  3  4  1  0  0  0  0
  3 35  1  0  0  0  0
  4  5  1  0  0  0  0
  4 36  1  0  0  0  0
  4 37  1  0  0  0  0
  5  6  1  0  0  0  0
  5 23  1  0  0  0  0
  6 11  1  0  0  0  0
  6  7  2  0  0  0  0
  7  8  1  0  0  0  0
  8  9  2  0  0  0  0
  8 38  1  0  0  0  0
  9 10  1  0  0  0  0
 10 14  1  0  0  0  0
 10 11  2  0  0  0  0
 11 12  1  0  0  0  0
 12 13  2  0  0  0  0
 13 14  1  0  0  0  0
 13 39  1  0  0  0  0
 14 15  1  0  0  0  0
 15 16  1  0  0  0  0
 15 40  1  0  0  0  0
 15 41  1  0  0  0  0
 16 17  1  0  0  0  0
 16 18  1  0  0  0  0
 16 42  1  0  0  0  0
 17 43  1  0  0  0  0
 18 22  1  0  0  0  0
 18 19  1  0  0  0  0
 18 44  1  0  0  0  0
 19 20  1  0  0  0  0
 19 45  1  0  0  0  0
 19 46  1  0  0  0  0
 20 21  1  0  0  0  0
 20 47  1  0  0  0  0
 20 48  1  0  0  0  0
 21 22  1  0  0  0  0
 21 49  1  0  0  0  0
 21 50  1  0  0  0  0
 23 24  1  0  0  0  0
 23 51  1  0  0  0  0
 23 52  1  0  0  0  0
 24 28  1  0  0  0  0
 24 25  1  0  0  0  0
 24 29  1  0  0  0  0
 25 26  1  0  0  0  0
 25 53  1  0  0  0  0
 25 54  1  0  0  0  0
 26 27  1  0  0  0  0
 26 55  1  0  0  0  0
 26 56  1  0  0  0  0
 27 28  1  0  0  0  0
 28 57  1  0  0  0  0
 28 58  1  0  0  0  0
M  END
> <s_m_source_file>
AV-unprocessed.smi

> <i_m_source_file_index>
229

> <i_lp_mmshare_version>
43012

> <i_f3d_flags>
0

> <s_epik_input>
W0NIMl0xT1tDSDJdW0NIMl1bQ0BdMTJbQ0gyXU4oW0NIMl1bQ0BIXShPMilbQ0gyXVtDSDNdKWMobltjSF1uMyljKGMzNCluW2NIXW40W0NIMl1bQ0BIXShbT0hdKVtDQEBIXTVbQ0gyXVtDSDJdW0NIMl1PNQ==

> <s_epik_cmdline>
J2VwaWtfcHl0aG9uJywgJy1waCcsICc3LjAnLCAnLXRuJywgJzgnLCAnLW1hJywgJzIwMCcsICctbWV0YWxfYmluZGluZycsICctaW1hZScsICc8aW5maWxlLm1hZT4nLCAnLW9tYWUnLCAnPG91dGZpbGUubWFlPic=

> <r_lp_tautomer_probability>
1

> <r_epik_Ionization_Penalty>
0.00318402

> <r_epik_Ionization_Penalty_Charging>
0

> <r_epik_Ionization_Penalty_Neutral>
0.00318402

> <r_epik_State_Penalty>
0.00215642

> <r_epik_Charging_Adjusted_Penalty>
0.00215642

> <i_epik_Tot_Q>
0

> <i_epik_Tot_abs_Q>
0

> <r_epik_Metal_State_Penalty>
-0

> <b_epik_Metal_Only>
0

> <s_lp_Force_Field>
OPLS_2005

> <r_lp_Energy>
57.781

> <b_lp_Chiralities_Consistent>
1

> <s_lp_Variant>
AV-unprocessed.smi:229-1

> <Gold.Version>
5.8.1

> <Gold.Id.Protein>
6NUR|6NUR_protein|mol2

> <Gold.PLP.Fitness>
41.4677

> <Gold.PLP.PLP>
-36.1995

> <Gold.PLP.part.hbond>
-2.4272

> <Gold.PLP.part.metal>
0.0000

> <Gold.PLP.part.buried>
-3.9671

> <Gold.PLP.part.nonpolar>
-28.2724

> <Gold.PLP.part.repulsive>
0.7922

> <Gold.PLP.ligand.clash>
0.0000

> <Gold.PLP.ligand.torsion>
0.5268

> <Gold.PLP.Chemscore.Hbond>
1.0000

> <Gold.PLP.Chemscore.CHOScore>
0.9893

> <Gold.PLP.Chemscore.Metal>
0.0000

> <Gold.Chemscore.Hbonds>
donor molecule, donor type, donor heavy atom, donor atom, acceptor molecule, acceptor atom, score
      L1  H    17    43       P1 10186  1.00
      L1  C    13    39       P1 10171  0.99

> <Gold.PLP.Chemscore.Internal.Correction>
0.3538

> <Gold.Rescore>
     Score         DG    S(hbond)    S(metal)    S(lipo)     H(rot)  DE(clash)    DE(int)     intcor
     12.52     -13.50       0.99        0.00      94.16       2.46       0.32       0.65       ----

> <Gold.Chemscore.Fitness>
12.5239

> <Gold.Chemscore.DG>
-13.4953

> <Gold.Chemscore.ZeroCoef>
-5.4800

> <Gold.Chemscore.Hbond>
0.9862

> <Gold.Chemscore.Metal>
0.0000

> <Gold.Chemscore.Lipo>
94.1615

> <Gold.Chemscore.Internal_Hbond>
0.0000

> <Gold.Chemscore.DEClash>
0.3249

> <Gold.Chemscore.DEInternal>
0.6465

> <Gold.Chemscore.Rot>
2.4591

> <Gold.Chemscore.Internal.Correction>
   9.000000E+99

> <Gold.Chemscore.Hbonds>
donor molecule, donor type, donor heavy atom, donor atom, acceptor molecule, acceptor atom, score
      L1  H    17    43       P1 10186  0.97

> <Gold.Chemscore.Hbond.Weighted>
-3.2938

> <Gold.Chemscore.Metal.Weighted>
-0.0000

> <Gold.Chemscore.Lipo.Weighted>
-11.0169

> <Gold.Chemscore.Internal_Hbond.Weighted>
0.0000

> <Gold.Chemscore.DEClash.Weighted>
0.3249

> <Gold.Chemscore.DEInternal.Weighted>
0.6465

> <Gold.Chemscore.Rot.Weighted>
6.2953

> <Gold.Chemscore.Internal.Correction.Weighted>
   9.000000E+99

> <Gold.Protein.RotatedTorsions>
[ 6907 6896 6895 6894 ] final -134.73 input  -60.11 | X-H torsion
[ 7974 7965 7964 7962 ] final -179.31 input  175.53 | X-H torsion
[ 8008 7997 7996 7995 ] final   65.54 input   59.86 | X-H torsion
[ 10167 10162 10161 10158 ] final  -42.56 input  -65.29 | X-H torsion
[ 10718 10713 10712 10709 ] final -161.22 input   66.30 | X-H torsion
[ 10763 10752 10751 10750 ] final  172.73 input  -60.55 | X-H torsion
[ 11005 11000 10999 10996 ] final   94.92 input  -57.11 | X-H torsion

> <Gold.Protein.ActiveResidues>
 VAL166  LYS551  ARG553  GLY616  TRP617  ASP618  TYR619  PRO620  LYS621  CYS622 
 ASP623  PHE694  ASN695  SER759  ASP760  ASP761  ALA762  ILE779  LEU786  VAL792 
 PHE793  MET794  SER795  GLU796  ALA797  LYS798  CYS799  TRP800  GLU811  SER814 

> <Gold.Protein.RotatedAtoms>
  150.9893  133.6166  159.2710 H   0  0  0  0  0  0  0  0  0  0  0  0  # atno 6907 bound_to 6896
  151.3392  135.0859  159.9375 H   0  0  0  0  0  0  0  0  0  0  0  0  # atno 6908 bound_to 6896
  152.5241  133.9508  159.7725 H   0  0  0  0  0  0  0  0  0  0  0  0  # atno 6909 bound_to 6896
  144.7136  140.0736  143.6428 H   0  0  0  0  0  0  0  0  0  0  0  0  # atno 7974 bound_to 7965
  155.6634  140.3497  155.4791 H   0  0  0  0  0  0  0  0  0  0  0  0  # atno 8008 bound_to 7997
  155.9750  140.1163  157.0801 H   0  0  0  0  0  0  0  0  0  0  0  0  # atno 8009 bound_to 7997
  154.4176  140.1149  156.5343 H   0  0  0  0  0  0  0  0  0  0  0  0  # atno 8010 bound_to 7997
  140.6965  143.3031  151.3227 H   0  0  0  0  0  0  0  0  0  0  0  0  # atno 10167 bound_to 10162
  156.5931  130.8778  151.2895 H   0  0  0  0  0  0  0  0  0  0  0  0  # atno 10718 bound_to 10713
  154.4302  135.2759  155.1917 H   0  0  0  0  0  0  0  0  0  0  0  0  # atno 10763 bound_to 10752
  154.3827  135.6084  153.5803 H   0  0  0  0  0  0  0  0  0  0  0  0  # atno 10764 bound_to 10752
  152.9836  135.5884  154.4612 H   0  0  0  0  0  0  0  0  0  0  0  0  # atno 10765 bound_to 10752
  139.8794  134.8871  156.3934 H   0  0  0  0  0  0  0  0  0  0  0  0  # atno 11005 bound_to 11000
  145.9762  139.2906  143.1069 LP  0  0  0  0  0  0  0  0  0  0  0  0  # atno 17320 bound_to 7965
  145.9062  140.9210  143.0477 LP  0  0  0  0  0  0  0  0  0  0  0  0  # atno 17321 bound_to 7965
  139.6426  144.0511  152.2566 LP  0  0  0  0  0  0  0  0  0  0  0  0  # atno 17342 bound_to 10162
  140.0021  144.6286  150.7721 LP  0  0  0  0  0  0  0  0  0  0  0  0  # atno 17343 bound_to 10162
  157.7298  130.9677  150.1806 LP  0  0  0  0  0  0  0  0  0  0  0  0  # atno 17370 bound_to 10713
  156.2533  130.3703  149.8209 LP  0  0  0  0  0  0  0  0  0  0  0  0  # atno 17371 bound_to 10713
  140.9317  133.7575  156.0033 LP  0  0  0  0  0  0  0  0  0  0  0  0  # atno 17394 bound_to 11000
  140.8323  134.3164  157.5344 LP  0  0  0  0  0  0  0  0  0  0  0  0  # atno 17395 bound_to 11000

$$$$
