AV-unprocessed.smi:1766|AV-procd|sdf|7137|dock10
  -GOLD-   22720 8373D 1   1.00000     0.00000
 Structure written by MMmdl.
 40 42  0  0  0  0  0  0  0  0  2 V2000
  149.5735  135.7647  154.8056 N   0  0  0  0  0  0  0  0  0  0  0  0
  150.7833  136.2327  155.1234 C   0  0  0  0  0  0  0  0  0  0  0  0
  151.4628  135.7410  156.0221 O   0  0  0  0  0  0  0  0  0  0  0  0
  151.3086  137.4259  154.3218 C   0  0  0  0  0  0  0  0  0  0  0  0
  150.2940  138.5296  154.2753 C   0  0  0  0  0  0  0  0  0  0  0  0
  149.1625  138.5367  153.5120 N   0  3  0  0  0  0  0  0  0  0  0  0
  148.4569  139.7218  153.7160 C   0  0  0  0  0  0  0  0  0  0  0  0
  147.2659  140.1803  153.1615 C   0  0  0  0  0  0  0  0  0  0  0  0
  146.8172  141.4481  153.5863 C   0  0  0  0  0  0  0  0  0  0  0  0
  147.5442  142.2067  154.5267 C   0  0  0  0  0  0  0  0  0  0  0  0
  148.7493  141.7294  155.0836 C   0  0  0  0  0  0  0  0  0  0  0  0
  149.1858  140.4748  154.6581 C   0  0  0  0  0  0  0  0  0  0  0  0
  150.3046  139.6990  154.9835 N   0  0  0  0  0  0  0  0  0  0  0  0
  151.2613  140.2192  155.9747 C   0  0  0  0  0  0  0  0  0  0  0  0
  151.3320  139.3630  157.2545 C   0  0  2  0  0  0  0  0  0  0  0  0
  150.0602  138.8124  157.5363 O   0  0  0  0  0  0  0  0  0  0  0  0
  151.8837  140.1660  158.4218 C   0  0  0  0  0  0  0  0  0  0  0  0
  151.2853  141.3942  158.7766 C   0  0  0  0  0  0  0  0  0  0  0  0
  151.7843  142.1395  159.8627 C   0  0  0  0  0  0  0  0  0  0  0  0
  152.8830  141.6601  160.6015 C   0  0  0  0  0  0  0  0  0  0  0  0
  153.3626  142.3768  161.6453 F   0  0  0  0  0  0  0  0  0  0  0  0
  153.4817  140.4338  160.2549 C   0  0  0  0  0  0  0  0  0  0  0  0
  152.9828  139.6877  159.1694 C   0  0  0  0  0  0  0  0  0  0  0  0
  149.1895  134.9820  155.3153 H   0  0  0  0  0  0  0  0  0  0  0  0
  149.0431  136.1963  154.0621 H   0  0  0  0  0  0  0  0  0  0  0  0
  152.2209  137.8009  154.7867 H   0  0  0  0  0  0  0  0  0  0  0  0
  151.5766  137.1054  153.3155 H   0  0  0  0  0  0  0  0  0  0  0  0
  146.7079  139.6005  152.4405 H   0  0  0  0  0  0  0  0  0  0  0  0
  145.8978  141.8467  153.1822 H   0  0  0  0  0  0  0  0  0  0  0  0
  147.1697  143.1745  154.8272 H   0  0  0  0  0  0  0  0  0  0  0  0
  149.2984  142.3196  155.8024 H   0  0  0  0  0  0  0  0  0  0  0  0
  152.2418  140.2854  155.5015 H   0  0  0  0  0  0  0  0  0  0  0  0
  150.9794  141.2444  156.2136 H   0  0  0  0  0  0  0  0  0  0  0  0
  152.0000  138.5192  157.0779 H   0  0  0  0  0  0  0  0  0  0  0  0
  149.9492  138.7844  158.4747 H   0  0  0  0  0  0  0  0  0  0  0  0
  150.4404  141.7698  158.2183 H   0  0  0  0  0  0  0  0  0  0  0  0
  151.3238  143.0792  160.1297 H   0  0  0  0  0  0  0  0  0  0  0  0
  154.3234  140.0649  160.8226 H   0  0  0  0  0  0  0  0  0  0  0  0
  153.4458  138.7457  158.9141 H   0  0  0  0  0  0  0  0  0  0  0  0
  148.9012  137.7831  152.8888 H   0  0  0  0  0  0  0  0  0  0  0  0
  1  2  1  0  0  0  0
  1 24  1  0  0  0  0
  1 25  1  0  0  0  0
  2  3  2  0  0  0  0
  2  4  1  0  0  0  0
  4  5  1  0  0  0  0
  4 26  1  0  0  0  0
  4 27  1  0  0  0  0
  5 13  1  0  0  0  0
  5  6  2  0  0  0  0
  6  7  1  0  0  0  0
  6 40  1  0  0  0  0
  7 12  2  0  0  0  0
  7  8  1  0  0  0  0
  8  9  2  0  0  0  0
  8 28  1  0  0  0  0
  9 10  1  0  0  0  0
  9 29  1  0  0  0  0
 10 11  2  0  0  0  0
 10 30  1  0  0  0  0
 11 12  1  0  0  0  0
 11 31  1  0  0  0  0
 12 13  1  0  0  0  0
 13 14  1  0  0  0  0
 14 15  1  0  0  0  0
 14 32  1  0  0  0  0
 14 33  1  0  0  0  0
 15 16  1  0  0  0  0
 15 17  1  0  0  0  0
 15 34  1  0  0  0  0
 16 35  1  0  0  0  0
 17 23  1  0  0  0  0
 17 18  2  0  0  0  0
 18 19  1  0  0  0  0
 18 36  1  0  0  0  0
 19 20  2  0  0  0  0
 19 37  1  0  0  0  0
 20 21  1  0  0  0  0
 20 22  1  0  0  0  0
 22 23  2  0  0  0  0
 22 38  1  0  0  0  0
 23 39  1  0  0  0  0
M  CHG  1   6   1
M  END
> <s_m_source_file>
AV-unprocessed.smi

> <i_m_source_file_index>
1766

> <i_lp_mmshare_version>
43012

> <i_f3d_flags>
0

> <s_epik_input>
W2NIXTFbY0hdW2NIXVtjSF1jKGMxMiluKGMobjIpW0NIMl1DKD1PKVtOSDJdKVtDSDJdW0NASF0oW09IXSljM1tjSF1bY0hdYyhGKVtjSF1bY0hdMw==

> <s_epik_cmdline>
J2VwaWtfcHl0aG9uJywgJy1waCcsICc3LjAnLCAnLXRuJywgJzgnLCAnLW1hJywgJzIwMCcsICctbWV0YWxfYmluZGluZycsICctaW1hZScsICc8aW5maWxlLm1hZT4nLCAnLW9tYWUnLCAnPG91dGZpbGUubWFlPic=

> <r_epik_Ionization_Penalty>
1.66646

> <r_epik_Ionization_Penalty_Charging>
1.66645

> <r_epik_Ionization_Penalty_Neutral>
2.12833e-06

> <r_epik_State_Penalty>
1.76975

> <r_epik_Charging_Adjusted_Penalty>
3.43621

> <i_epik_Tot_Q>
1

> <i_epik_Tot_abs_Q>
1

> <r_epik_Metal_State_Penalty>
1.80493

> <b_epik_Metal_Only>
0

> <s_lp_Force_Field>
OPLS_2005

> <r_lp_Energy>
14.4919

> <b_lp_Chiralities_Consistent>
1

> <s_lp_Variant>
AV-unprocessed.smi:1766-3

> <Gold.Version>
5.8.1

> <Gold.Id.Protein>
6NUR|6NUR_protein|mol2

> <Gold.PLP.Fitness>
55.9248

> <Gold.PLP.PLP>
-46.0386

> <Gold.PLP.part.hbond>
-4.0000

> <Gold.PLP.part.metal>
0.0000

> <Gold.PLP.part.buried>
3.6127

> <Gold.PLP.part.nonpolar>
-45.7534

> <Gold.PLP.part.repulsive>
0.1620

> <Gold.PLP.ligand.clash>
0.0000

> <Gold.PLP.ligand.torsion>
0.6869

> <Gold.PLP.Chemscore.Hbond>
3.7360

> <Gold.PLP.Chemscore.CHOScore>
0.0000

> <Gold.PLP.Chemscore.Metal>
0.0000

> <Gold.Chemscore.Hbonds>
donor molecule, donor type, donor heavy atom, donor atom, acceptor molecule, acceptor atom, score
      L1  H     1    25       P1  7948  0.47
      L1  H     6    40       P1  7948  2.00
      P1  H 10752 10763       L1     3  0.65

> <Gold.PLP.Chemscore.Internal.Correction>
0.0519

> <Gold.Rescore>
     Score         DG    S(hbond)    S(metal)    S(lipo)     H(rot)  DE(clash)    DE(int)     intcor
     14.32     -15.35       1.79        0.00     100.02       3.05       0.50       0.53       ----

> <Gold.Chemscore.Fitness>
14.3162

> <Gold.Chemscore.DG>
-15.3524

> <Gold.Chemscore.ZeroCoef>
-5.4800

> <Gold.Chemscore.Hbond>
1.7874

> <Gold.Chemscore.Metal>
0.0000

> <Gold.Chemscore.Lipo>
100.0242

> <Gold.Chemscore.Internal_Hbond>
0.0000

> <Gold.Chemscore.DEClash>
0.5026

> <Gold.Chemscore.DEInternal>
0.5336

> <Gold.Chemscore.Rot>
3.0470

> <Gold.Chemscore.Internal.Correction>
   9.000000E+99

> <Gold.Chemscore.Hbonds>
donor molecule, donor type, donor heavy atom, donor atom, acceptor molecule, acceptor atom, score
      L1  H     1    25       P1  7948  0.47
      L1  H     6    40       P1  7948  1.00
      P1  H 10752 10763       L1     3  0.06

> <Gold.Chemscore.Hbond.Weighted>
-5.9700

> <Gold.Chemscore.Metal.Weighted>
-0.0000

> <Gold.Chemscore.Lipo.Weighted>
-11.7028

> <Gold.Chemscore.Internal_Hbond.Weighted>
0.0000

> <Gold.Chemscore.DEClash.Weighted>
0.5026

> <Gold.Chemscore.DEInternal.Weighted>
0.5336

> <Gold.Chemscore.Rot.Weighted>
7.8004

> <Gold.Chemscore.Internal.Correction.Weighted>
   9.000000E+99

> <Gold.Protein.RotatedTorsions>
[ 6907 6896 6895 6894 ] final -172.98 input  -60.11 | X-H torsion
[ 7974 7965 7964 7962 ] final  -64.33 input  175.53 | X-H torsion
[ 8008 7997 7996 7995 ] final   96.21 input   59.86 | X-H torsion
[ 10167 10162 10161 10158 ] final  -73.51 input  -65.29 | X-H torsion
[ 10718 10713 10712 10709 ] final   -8.00 input   66.30 | X-H torsion
[ 10763 10752 10751 10750 ] final   74.73 input  -60.55 | X-H torsion
[ 11005 11000 10999 10996 ] final  114.32 input  -57.11 | X-H torsion

> <Gold.Protein.ActiveResidues>
 VAL166  LYS551  ARG553  GLY616  TRP617  ASP618  TYR619  PRO620  LYS621  CYS622 
 ASP623  PHE694  ASN695  SER759  ASP760  ASP761  ALA762  ILE779  LEU786  VAL792 
 PHE793  MET794  SER795  GLU796  ALA797  LYS798  CYS799  TRP800  GLU811  SER814 

> <Gold.Protein.RotatedAtoms>
  151.5487  133.3421  159.2948 H   0  0  0  0  0  0  0  0  0  0  0  0  # atno 6907 bound_to 6896
  150.8492  134.7813  159.7006 H   0  0  0  0  0  0  0  0  0  0  0  0  # atno 6908 bound_to 6896
  152.4542  134.5336  159.9870 H   0  0  0  0  0  0  0  0  0  0  0  0  # atno 6909 bound_to 6896
  145.7680  140.8827  143.0395 H   0  0  0  0  0  0  0  0  0  0  0  0  # atno 7974 bound_to 7965
  156.0772  140.3276  155.7648 H   0  0  0  0  0  0  0  0  0  0  0  0  # atno 8008 bound_to 7997
  155.5211  140.0585  157.2924 H   0  0  0  0  0  0  0  0  0  0  0  0  # atno 8009 bound_to 7997
  154.4562  140.1944  156.0391 H   0  0  0  0  0  0  0  0  0  0  0  0  # atno 8010 bound_to 7997
  140.5104  143.2346  151.7602 H   0  0  0  0  0  0  0  0  0  0  0  0  # atno 10167 bound_to 10162
  156.7090  130.5116  149.5897 H   0  0  0  0  0  0  0  0  0  0  0  0  # atno 10718 bound_to 10713
  153.0606  135.5015  154.8085 H   0  0  0  0  0  0  0  0  0  0  0  0  # atno 10763 bound_to 10752
  154.6877  135.2979  154.9527 H   0  0  0  0  0  0  0  0  0  0  0  0  # atno 10764 bound_to 10752
  154.0292  135.6732  153.4832 H   0  0  0  0  0  0  0  0  0  0  0  0  # atno 10765 bound_to 10752
  139.8977  134.9566  156.6874 H   0  0  0  0  0  0  0  0  0  0  0  0  # atno 11005 bound_to 11000
  144.6818  139.9815  143.7483 LP  0  0  0  0  0  0  0  0  0  0  0  0  # atno 17320 bound_to 7965
  146.0198  139.3241  143.0819 LP  0  0  0  0  0  0  0  0  0  0  0  0  # atno 17321 bound_to 7965
  139.4895  144.4398  151.9778 LP  0  0  0  0  0  0  0  0  0  0  0  0  # atno 17342 bound_to 10162
  140.3490  144.3112  150.5953 LP  0  0  0  0  0  0  0  0  0  0  0  0  # atno 17343 bound_to 10162
  156.1674  130.6414  151.0795 LP  0  0  0  0  0  0  0  0  0  0  0  0  # atno 17370 bound_to 10713
  157.6943  131.0799  150.7015 LP  0  0  0  0  0  0  0  0  0  0  0  0  # atno 17371 bound_to 10713
  140.7251  133.9107  155.8173 LP  0  0  0  0  0  0  0  0  0  0  0  0  # atno 17394 bound_to 11000
  141.0197  134.0906  157.4134 LP  0  0  0  0  0  0  0  0  0  0  0  0  # atno 17395 bound_to 11000

$$$$
