AV-unprocessed.smi:1963|AV-procd|sdf|7927|dock8
  -GOLD-   2272010 93D 1   1.00000     0.00000
 Structure written by MMmdl.
 47 48  0  0  0  0  0  0  0  0  1 V2000
  145.6887  135.0010  153.1845 C   0  0  0  0  0  0  0  0  0  0  0  0
  146.8391  134.5622  154.0836 C   0  0  0  0  0  0  0  0  0  0  0  0
  146.6430  134.3472  155.2794 O   0  0  0  0  0  0  0  0  0  0  0  0
  148.0375  134.4344  153.4930 N   0  0  0  0  0  0  0  0  0  0  0  0
  149.2734  134.0160  154.1587 C   0  0  1  0  0  0  0  0  0  0  0  0
  149.7273  135.1361  155.1158 C   0  0  0  0  0  0  0  0  0  0  0  0
  149.9739  134.8755  156.2942 O   0  0  0  0  0  0  0  0  0  0  0  0
  149.8632  136.3545  154.5603 N   0  0  0  0  0  0  0  0  0  0  0  0
  150.2816  137.5652  155.1741 C   0  0  0  0  0  0  0  0  0  0  0  0
  150.6519  137.5261  156.5320 C   0  0  0  0  0  0  0  0  0  0  0  0
  151.0822  138.7084  157.1630 C   0  0  0  0  0  0  0  0  0  0  0  0
  151.1406  139.9079  156.4152 C   0  0  0  0  0  0  0  0  0  0  0  0
  151.5624  141.1079  157.0285 N   0  0  0  0  0  0  0  0  0  0  0  0
  151.8773  141.0155  158.4522 C   0  0  0  0  0  0  0  0  0  0  0  0
  152.6081  142.2846  158.9236 C   0  0  0  0  0  0  0  0  0  0  0  0
  151.8348  143.4359  158.6016 O   0  0  0  0  0  0  0  0  0  0  0  0
  151.6376  143.5648  157.1977 C   0  0  0  0  0  0  0  0  0  0  0  0
  150.8680  142.3431  156.6685 C   0  0  0  0  0  0  0  0  0  0  0  0
  150.8076  139.9390  155.1013 N   0  0  0  0  0  0  0  0  0  0  0  0
  150.3932  138.8038  154.5000 C   0  0  0  0  0  0  0  0  0  0  0  0
  148.9957  132.7089  154.9595 C   0  0  0  0  0  0  0  0  0  0  0  0
  150.2445  132.1646  155.6846 C   0  0  0  0  0  0  0  0  0  0  0  0
  148.4135  131.5993  154.0616 C   0  0  0  0  0  0  0  0  0  0  0  0
  145.5394  134.2808  152.3796 H   0  0  0  0  0  0  0  0  0  0  0  0
  145.9007  135.9751  152.7432 H   0  0  0  0  0  0  0  0  0  0  0  0
  144.7601  135.0776  153.7513 H   0  0  0  0  0  0  0  0  0  0  0  0
  148.0997  134.6258  152.5035 H   0  0  0  0  0  0  0  0  0  0  0  0
  150.0471  133.8259  153.4113 H   0  0  0  0  0  0  0  0  0  0  0  0
  149.7097  136.4038  153.5635 H   0  0  0  0  0  0  0  0  0  0  0  0
  150.6048  136.6019  157.0893 H   0  0  0  0  0  0  0  0  0  0  0  0
  151.3743  138.6777  158.2020 H   0  0  0  0  0  0  0  0  0  0  0  0
  150.9479  140.8924  159.0100 H   0  0  0  0  0  0  0  0  0  0  0  0
  152.4968  140.1479  158.6746 H   0  0  0  0  0  0  0  0  0  0  0  0
  152.7601  142.2505  160.0025 H   0  0  0  0  0  0  0  0  0  0  0  0
  153.5959  142.3566  158.4653 H   0  0  0  0  0  0  0  0  0  0  0  0
  151.0744  144.4769  157.0004 H   0  0  0  0  0  0  0  0  0  0  0  0
  152.5990  143.6683  156.6919 H   0  0  0  0  0  0  0  0  0  0  0  0
  150.7701  142.4202  155.5848 H   0  0  0  0  0  0  0  0  0  0  0  0
  149.8610  142.3263  157.0877 H   0  0  0  0  0  0  0  0  0  0  0  0
  150.1688  138.9055  153.4497 H   0  0  0  0  0  0  0  0  0  0  0  0
  148.2476  132.9244  155.7246 H   0  0  0  0  0  0  0  0  0  0  0  0
  151.0595  131.9816  154.9837 H   0  0  0  0  0  0  0  0  0  0  0  0
  150.0255  131.2231  156.1891 H   0  0  0  0  0  0  0  0  0  0  0  0
  150.6088  132.8509  156.4491 H   0  0  0  0  0  0  0  0  0  0  0  0
  149.0957  131.3522  153.2474 H   0  0  0  0  0  0  0  0  0  0  0  0
  147.4592  131.8880  153.6203 H   0  0  0  0  0  0  0  0  0  0  0  0
  148.2344  130.6871  154.6314 H   0  0  0  0  0  0  0  0  0  0  0  0
  1  2  1  0  0  0  0
  1 24  1  0  0  0  0
  1 25  1  0  0  0  0
  1 26  1  0  0  0  0
  2  3  2  0  0  0  0
  2  4  1  0  0  0  0
  4  5  1  0  0  0  0
  4 27  1  0  0  0  0
  5  6  1  0  0  0  0
  5 21  1  0  0  0  0
  5 28  1  0  0  0  0
  6  7  2  0  0  0  0
  6  8  1  0  0  0  0
  8  9  1  0  0  0  0
  8 29  1  0  0  0  0
  9 20  1  0  0  0  0
  9 10  2  0  0  0  0
 10 11  1  0  0  0  0
 10 30  1  0  0  0  0
 11 12  2  0  0  0  0
 11 31  1  0  0  0  0
 12 13  1  0  0  0  0
 12 19  1  0  0  0  0
 13 18  1  0  0  0  0
 13 14  1  0  0  0  0
 14 15  1  0  0  0  0
 14 32  1  0  0  0  0
 14 33  1  0  0  0  0
 15 16  1  0  0  0  0
 15 34  1  0  0  0  0
 15 35  1  0  0  0  0
 16 17  1  0  0  0  0
 17 18  1  0  0  0  0
 17 36  1  0  0  0  0
 17 37  1  0  0  0  0
 18 38  1  0  0  0  0
 18 39  1  0  0  0  0
 19 20  2  0  0  0  0
 20 40  1  0  0  0  0
 21 22  1  0  0  0  0
 21 23  1  0  0  0  0
 21 41  1  0  0  0  0
 22 42  1  0  0  0  0
 22 43  1  0  0  0  0
 22 44  1  0  0  0  0
 23 45  1  0  0  0  0
 23 46  1  0  0  0  0
 23 47  1  0  0  0  0
M  END
> <s_m_source_file>
AV-unprocessed.smi

> <i_m_source_file_index>
1963

> <i_lp_mmshare_version>
43012

> <i_f3d_flags>
0

> <s_epik_input>
W0NIM11DKD1PKVtOSF1bQ0BASF0oW0NIXShbQ0gzXSlbQ0gzXSlDKD1PKVtOSF1jMVtjSF1bY0hdYyhuW2NIXTEpTjJbQ0gyXVtDSDJdT1tDSDJdW0NIMl0y

> <s_epik_cmdline>
J2VwaWtfcHl0aG9uJywgJy1waCcsICc3LjAnLCAnLXRuJywgJzgnLCAnLW1hJywgJzIwMCcsICctbWV0YWxfYmluZGluZycsICctaW1hZScsICc8aW5maWxlLm1hZT4nLCAnLW9tYWUnLCAnPG91dGZpbGUubWFlPic=

> <r_lp_tautomer_probability>
1

> <r_epik_Ionization_Penalty>
0.00051446

> <r_epik_Ionization_Penalty_Charging>
0

> <r_epik_Ionization_Penalty_Neutral>
0.00051446

> <r_epik_State_Penalty>
0.00031949

> <r_epik_Charging_Adjusted_Penalty>
0.00031949

> <i_epik_Tot_Q>
0

> <i_epik_Tot_abs_Q>
0

> <r_epik_Metal_State_Penalty>
-0

> <b_epik_Metal_Only>
0

> <s_lp_Force_Field>
OPLS_2005

> <r_lp_Energy>
25.5716

> <b_lp_Chiralities_Consistent>
1

> <s_lp_Variant>
AV-unprocessed.smi:1963-2

> <Gold.Version>
5.8.1

> <Gold.Id.Protein>
6NUR|6NUR_protein|mol2

> <Gold.PLP.Fitness>
41.8513

> <Gold.PLP.PLP>
-32.9540

> <Gold.PLP.part.hbond>
-3.2992

> <Gold.PLP.part.metal>
0.0000

> <Gold.PLP.part.buried>
-3.7174

> <Gold.PLP.part.nonpolar>
-25.9144

> <Gold.PLP.part.repulsive>
0.1818

> <Gold.PLP.ligand.clash>
0.1336

> <Gold.PLP.ligand.torsion>
0.5006

> <Gold.PLP.Chemscore.Hbond>
2.3980

> <Gold.PLP.Chemscore.CHOScore>
0.8192

> <Gold.PLP.Chemscore.Metal>
0.0000

> <Gold.Chemscore.Hbonds>
donor molecule, donor type, donor heavy atom, donor atom, acceptor molecule, acceptor atom, score
      L1  H     4    27       P1  7948  0.45
      L1  H     8    29       P1  7948  1.00
      P1  H  7989  7998       L1    19  0.95
      L1  C    20    40       P1  7957  0.82

> <Gold.PLP.Chemscore.Internal.Correction>
0.3803

> <Gold.Rescore>
     Score         DG    S(hbond)    S(metal)    S(lipo)     H(rot)  DE(clash)    DE(int)     intcor
      9.58     -14.23       1.27        0.00      76.57       1.74       0.01       4.65       ----

> <Gold.Chemscore.Fitness>
9.5774

> <Gold.Chemscore.DG>
-14.2289

> <Gold.Chemscore.ZeroCoef>
-5.4800

> <Gold.Chemscore.Hbond>
1.2702

> <Gold.Chemscore.Metal>
0.0000

> <Gold.Chemscore.Lipo>
76.5750

> <Gold.Chemscore.Internal_Hbond>
0.0000

> <Gold.Chemscore.DEClash>
0.0060

> <Gold.Chemscore.DEInternal>
4.6455

> <Gold.Chemscore.Rot>
1.7394

> <Gold.Chemscore.Internal.Correction>
   9.000000E+99

> <Gold.Chemscore.Hbonds>
donor molecule, donor type, donor heavy atom, donor atom, acceptor molecule, acceptor atom, score
      L1  H     4    27       P1  7948  0.20
      L1  H     8    29       P1  7948  0.40
      P1  H  7989  7998       L1    19  0.20

> <Gold.Chemscore.Hbond.Weighted>
-4.2424

> <Gold.Chemscore.Metal.Weighted>
-0.0000

> <Gold.Chemscore.Lipo.Weighted>
-8.9593

> <Gold.Chemscore.Internal_Hbond.Weighted>
0.0000

> <Gold.Chemscore.DEClash.Weighted>
0.0060

> <Gold.Chemscore.DEInternal.Weighted>
4.6455

> <Gold.Chemscore.Rot.Weighted>
4.4528

> <Gold.Chemscore.Internal.Correction.Weighted>
   9.000000E+99

> <Gold.Protein.RotatedTorsions>
[ 6907 6896 6895 6894 ] final  129.41 input  -60.11 | X-H torsion
[ 7974 7965 7964 7962 ] final  -62.70 input  175.53 | X-H torsion
[ 8008 7997 7996 7995 ] final -176.12 input   59.86 | X-H torsion
[ 10167 10162 10161 10158 ] final   98.83 input  -65.29 | X-H torsion
[ 10718 10713 10712 10709 ] final -139.64 input   66.30 | X-H torsion
[ 10763 10752 10751 10750 ] final   23.49 input  -60.55 | X-H torsion
[ 11005 11000 10999 10996 ] final  133.29 input  -57.11 | X-H torsion

> <Gold.Protein.ActiveResidues>
 VAL166  LYS551  ARG553  GLY616  TRP617  ASP618  TYR619  PRO620  LYS621  CYS622 
 ASP623  PHE694  ASN695  SER759  ASP760  ASP761  ALA762  ILE779  LEU786  VAL792 
 PHE793  MET794  SER795  GLU796  ALA797  LYS798  CYS799  TRP800  GLU811  SER814 

> <Gold.Protein.RotatedAtoms>
  152.3627  133.6317  159.6026 H   0  0  0  0  0  0  0  0  0  0  0  0  # atno 6907 bound_to 6896
  150.7612  133.9398  159.3461 H   0  0  0  0  0  0  0  0  0  0  0  0  # atno 6908 bound_to 6896
  151.7234  135.0891  160.0339 H   0  0  0  0  0  0  0  0  0  0  0  0  # atno 6909 bound_to 6896
  145.7881  140.8725  143.0295 H   0  0  0  0  0  0  0  0  0  0  0  0  # atno 7974 bound_to 7965
  155.9910  140.1201  157.0638 H   0  0  0  0  0  0  0  0  0  0  0  0  # atno 8008 bound_to 7997
  154.4211  140.1125  156.5633 H   0  0  0  0  0  0  0  0  0  0  0  0  # atno 8009 bound_to 7997
  155.6343  140.3473  155.4695 H   0  0  0  0  0  0  0  0  0  0  0  0  # atno 8010 bound_to 7997
  139.7673  144.6934  151.0206 H   0  0  0  0  0  0  0  0  0  0  0  0  # atno 10167 bound_to 10162
  156.3131  130.7493  151.1573 H   0  0  0  0  0  0  0  0  0  0  0  0  # atno 10718 bound_to 10713
  153.0835  135.6626  153.9997 H   0  0  0  0  0  0  0  0  0  0  0  0  # atno 10763 bound_to 10752
  153.9613  135.2974  155.3434 H   0  0  0  0  0  0  0  0  0  0  0  0  # atno 10764 bound_to 10752
  154.7238  135.5153  153.8926 H   0  0  0  0  0  0  0  0  0  0  0  0  # atno 10765 bound_to 10752
  139.9842  134.9538  156.9704 H   0  0  0  0  0  0  0  0  0  0  0  0  # atno 11005 bound_to 11000
  144.6786  140.0084  143.7484 LP  0  0  0  0  0  0  0  0  0  0  0  0  # atno 17320 bound_to 7965
  146.0005  139.3087  143.0930 LP  0  0  0  0  0  0  0  0  0  0  0  0  # atno 17321 bound_to 7965
  140.7811  143.4629  151.0253 LP  0  0  0  0  0  0  0  0  0  0  0  0  # atno 17342 bound_to 10162
  139.8313  143.7687  152.3180 LP  0  0  0  0  0  0  0  0  0  0  0  0  # atno 17343 bound_to 10162
  157.7395  131.0528  150.5224 LP  0  0  0  0  0  0  0  0  0  0  0  0  # atno 17370 bound_to 10713
  156.5367  130.4198  149.6174 LP  0  0  0  0  0  0  0  0  0  0  0  0  # atno 17371 bound_to 10713
  140.5035  134.1074  155.7255 LP  0  0  0  0  0  0  0  0  0  0  0  0  # atno 17394 bound_to 11000
  141.1510  133.8969  157.2098 LP  0  0  0  0  0  0  0  0  0  0  0  0  # atno 17395 bound_to 11000

$$$$
