AV-unprocessed.smi:2671|AV-procd|sdf|10349|dock8
  -GOLD-   2272014373D 1   1.00000     0.00000
 Structure written by MMmdl.
 29 30  0  0  0  0  0  0  0  0  1 V2000
  151.4824  136.8162  159.8242 O   0  0  0  0  0  0  0  0  0  0  0  0
  152.4220  137.4868  159.4031 C   0  0  0  0  0  0  0  0  0  0  0  0
  153.8008  137.0063  159.3230 C   0  0  0  0  0  0  0  0  0  0  0  0
  154.7826  137.8099  158.8463 C   0  0  0  0  0  0  0  0  0  0  0  0
  156.2213  137.3273  158.7552 C   0  0  0  0  0  0  0  0  0  0  0  0
  156.3030  136.2747  157.9420 F   0  0  0  0  0  0  0  0  0  0  0  0
  157.0010  138.2910  158.2655 F   0  0  0  0  0  0  0  0  0  0  0  0
  156.6976  136.9708  159.9493 F   0  0  0  0  0  0  0  0  0  0  0  0
  154.4940  139.1150  158.4194 N   0  0  0  0  0  0  0  0  0  0  0  0
  153.2790  139.5637  158.4812 C   0  0  0  0  0  0  0  0  0  0  0  0
  152.6317  141.1918  158.0050 S   0  0  0  0  0  0  0  0  0  0  0  0
  153.2921  142.2389  159.3335 C   0  0  0  0  0  0  0  0  0  0  0  0
  152.1944  143.0827  159.9959 C   0  0  1  0  0  0  0  0  0  0  0  0
  151.3213  143.8751  159.0206 C   0  0  0  0  0  0  0  0  0  0  0  0
  149.9830  143.9896  159.7371 C   0  0  0  0  0  0  0  0  0  0  0  0
  150.1147  143.0454  160.9345 C   0  0  0  0  0  0  0  0  0  0  0  0
  151.2498  142.2445  160.6412 O   0  0  0  0  0  0  0  0  0  0  0  0
  152.2462  138.7562  158.9701 N   0  0  0  0  0  0  0  0  0  0  0  0
  151.3117  139.1371  159.0038 H   0  0  0  0  0  0  0  0  0  0  0  0
  154.0344  136.0027  159.6476 H   0  0  0  0  0  0  0  0  0  0  0  0
  154.0528  142.8952  158.9098 H   0  0  0  0  0  0  0  0  0  0  0  0
  153.7886  141.6124  160.0755 H   0  0  0  0  0  0  0  0  0  0  0  0
  152.6290  143.7517  160.7412 H   0  0  0  0  0  0  0  0  0  0  0  0
  151.7521  144.8455  158.7722 H   0  0  0  0  0  0  0  0  0  0  0  0
  151.1889  143.3206  158.0905 H   0  0  0  0  0  0  0  0  0  0  0  0
  149.7817  145.0100  160.0649 H   0  0  0  0  0  0  0  0  0  0  0  0
  149.1703  143.6824  159.0779 H   0  0  0  0  0  0  0  0  0  0  0  0
  150.3018  143.6098  161.8493 H   0  0  0  0  0  0  0  0  0  0  0  0
  149.2259  142.4330  161.0881 H   0  0  0  0  0  0  0  0  0  0  0  0
  1  2  2  0  0  0  0
  2 18  1  0  0  0  0
  2  3  1  0  0  0  0
  3 20  1  0  0  0  0
  3  4  2  0  0  0  0
  4  5  1  0  0  0  0
  4  9  1  0  0  0  0
  5  6  1  0  0  0  0
  5  7  1  0  0  0  0
  5  8  1  0  0  0  0
  9 10  2  0  0  0  0
 10 11  1  0  0  0  0
 10 18  1  0  0  0  0
 11 12  1  0  0  0  0
 12 13  1  0  0  0  0
 12 21  1  0  0  0  0
 12 22  1  0  0  0  0
 13 17  1  0  0  0  0
 13 14  1  0  0  0  0
 13 23  1  0  0  0  0
 14 15  1  0  0  0  0
 14 24  1  0  0  0  0
 14 25  1  0  0  0  0
 15 16  1  0  0  0  0
 15 26  1  0  0  0  0
 15 27  1  0  0  0  0
 16 17  1  0  0  0  0
 16 28  1  0  0  0  0
 16 29  1  0  0  0  0
 18 19  1  0  0  0  0
M  END
> <s_m_source_file>
AV-unprocessed.smi

> <i_m_source_file_index>
2671

> <i_lp_mmshare_version>
43012

> <i_f3d_flags>
0

> <s_epik_input>
W09IXWMxW2NIXWMoQyhGKShGKUYpbmMobjEpU1tDSDJdW0NAQEhdMltDSDJdW0NIMl1bQ0gyXU8y

> <s_epik_cmdline>
J2VwaWtfcHl0aG9uJywgJy1waCcsICc3LjAnLCAnLXRuJywgJzgnLCAnLW1hJywgJzIwMCcsICctbWV0YWxfYmluZGluZycsICctaW1hZScsICc8aW5maWxlLm1hZT4nLCAnLW9tYWUnLCAnPG91dGZpbGUubWFlPic=

> <r_lp_tautomer_probability>
0.660323

> <r_epik_Ionization_Penalty>
0.14469

> <r_epik_Ionization_Penalty_Charging>
0.14469

> <r_epik_Ionization_Penalty_Neutral>
3.1007e-10

> <r_epik_State_Penalty>
0.804349

> <r_epik_Charging_Adjusted_Penalty>
0.949039

> <i_epik_Tot_Q>
0

> <i_epik_Tot_abs_Q>
0

> <r_epik_Metal_State_Penalty>
1.52783

> <b_epik_Metal_Only>
0

> <s_lp_Force_Field>
OPLS_2005

> <r_lp_Energy>
21.2292

> <b_lp_Chiralities_Consistent>
1

> <s_lp_Variant>
AV-unprocessed.smi:2671-4

> <Gold.Version>
5.8.1

> <Gold.Id.Protein>
6NUR|6NUR_protein|mol2

> <Gold.PLP.Fitness>
43.9546

> <Gold.PLP.PLP>
-41.9809

> <Gold.PLP.part.hbond>
-1.4018

> <Gold.PLP.part.metal>
0.0000

> <Gold.PLP.part.buried>
-4.7851

> <Gold.PLP.part.nonpolar>
-35.9106

> <Gold.PLP.part.repulsive>
0.0684

> <Gold.PLP.ligand.clash>
0.0000

> <Gold.PLP.ligand.torsion>
0.5216

> <Gold.PLP.Chemscore.Hbond>
1.0000

> <Gold.PLP.Chemscore.CHOScore>
0.0000

> <Gold.PLP.Chemscore.Metal>
0.0000

> <Gold.Chemscore.Hbonds>
donor molecule, donor type, donor heavy atom, donor atom, acceptor molecule, acceptor atom, score
      P1  H  6896  6909       L1     1  1.00
      P1  H  7997  8009       L1     9  0.40

> <Gold.PLP.Chemscore.Internal.Correction>
0.0168

> <Gold.Rescore>
     Score         DG    S(hbond)    S(metal)    S(lipo)     H(rot)  DE(clash)    DE(int)     intcor
     14.49     -14.94       1.00        0.00      89.49       1.69       0.00       0.45       ----

> <Gold.Chemscore.Fitness>
14.4945

> <Gold.Chemscore.DG>
-14.9421

> <Gold.Chemscore.ZeroCoef>
-5.4800

> <Gold.Chemscore.Hbond>
0.9951

> <Gold.Chemscore.Metal>
0.0000

> <Gold.Chemscore.Lipo>
89.4941

> <Gold.Chemscore.Internal_Hbond>
0.0000

> <Gold.Chemscore.DEClash>
0.0000

> <Gold.Chemscore.DEInternal>
0.4476

> <Gold.Chemscore.Rot>
1.6924

> <Gold.Chemscore.Internal.Correction>
   9.000000E+99

> <Gold.Chemscore.Hbonds>
donor molecule, donor type, donor heavy atom, donor atom, acceptor molecule, acceptor atom, score
      P1  H  6896  6909       L1     1  0.93
      P1  H  7997  8009       L1     9  0.01

> <Gold.Chemscore.Hbond.Weighted>
-3.3238

> <Gold.Chemscore.Metal.Weighted>
-0.0000

> <Gold.Chemscore.Lipo.Weighted>
-10.4708

> <Gold.Chemscore.Internal_Hbond.Weighted>
0.0000

> <Gold.Chemscore.DEClash.Weighted>
0.0000

> <Gold.Chemscore.DEInternal.Weighted>
0.4476

> <Gold.Chemscore.Rot.Weighted>
4.3324

> <Gold.Chemscore.Internal.Correction.Weighted>
   9.000000E+99

> <Gold.Protein.RotatedTorsions>
[ 6907 6896 6895 6894 ] final  132.55 input  -60.11 | X-H torsion
[ 7974 7965 7964 7962 ] final  162.34 input  175.53 | X-H torsion
[ 8008 7997 7996 7995 ] final  148.62 input   59.86 | X-H torsion
[ 10167 10162 10161 10158 ] final  169.01 input  -65.29 | X-H torsion
[ 10718 10713 10712 10709 ] final  -73.53 input   66.30 | X-H torsion
[ 10763 10752 10751 10750 ] final   -6.74 input  -60.55 | X-H torsion
[ 11005 11000 10999 10996 ] final   79.89 input  -57.11 | X-H torsion

> <Gold.Protein.ActiveResidues>
 VAL166  LYS551  ARG553  GLY616  TRP617  ASP618  TYR619  PRO620  LYS621  CYS622 
 ASP623  PHE694  ASN695  SER759  ASP760  ASP761  ALA762  ILE779  LEU786  VAL792 
 PHE793  MET794  SER795  GLU796  ALA797  LYS798  CYS799  TRP800  GLU811  SER814 

> <Gold.Protein.RotatedAtoms>
  152.3312  133.5960  159.5810 H   0  0  0  0  0  0  0  0  0  0  0  0  # atno 6907 bound_to 6896
  150.7424  133.9865  159.3602 H   0  0  0  0  0  0  0  0  0  0  0  0  # atno 6908 bound_to 6896
  151.7739  135.0780  160.0415 H   0  0  0  0  0  0  0  0  0  0  0  0  # atno 6909 bound_to 6896
  144.7641  139.8026  143.6321 H   0  0  0  0  0  0  0  0  0  0  0  0  # atno 7974 bound_to 7965
  156.2784  140.2123  156.5728 H   0  0  0  0  0  0  0  0  0  0  0  0  # atno 8008 bound_to 7997
  154.7122  140.0511  157.0583 H   0  0  0  0  0  0  0  0  0  0  0  0  # atno 8009 bound_to 7997
  155.0591  140.3164  155.4669 H   0  0  0  0  0  0  0  0  0  0  0  0  # atno 8010 bound_to 7997
  139.4982  144.3752  151.9681 H   0  0  0  0  0  0  0  0  0  0  0  0  # atno 10167 bound_to 10162
  156.0277  130.4396  150.2756 H   0  0  0  0  0  0  0  0  0  0  0  0  # atno 10718 bound_to 10713
  153.4165  135.7009  153.6323 H   0  0  0  0  0  0  0  0  0  0  0  0  # atno 10763 bound_to 10752
  153.4795  135.3697  155.2435 H   0  0  0  0  0  0  0  0  0  0  0  0  # atno 10764 bound_to 10752
  154.8720  135.4062  154.3526 H   0  0  0  0  0  0  0  0  0  0  0  0  # atno 10765 bound_to 10752
  139.9155  134.7878  156.1838 H   0  0  0  0  0  0  0  0  0  0  0  0  # atno 11005 bound_to 11000
  146.1733  139.4892  142.9914 LP  0  0  0  0  0  0  0  0  0  0  0  0  # atno 17320 bound_to 7965
  145.6525  141.0260  143.1753 LP  0  0  0  0  0  0  0  0  0  0  0  0  # atno 17321 bound_to 7965
  140.3189  144.3451  150.6014 LP  0  0  0  0  0  0  0  0  0  0  0  0  # atno 17342 bound_to 10162
  140.5739  143.2178  151.7550 LP  0  0  0  0  0  0  0  0  0  0  0  0  # atno 17343 bound_to 10162
  157.0859  131.0156  151.3139 LP  0  0  0  0  0  0  0  0  0  0  0  0  # atno 17370 bound_to 10713
  157.4891  130.7811  149.7490 LP  0  0  0  0  0  0  0  0  0  0  0  0  # atno 17371 bound_to 10713
  141.0626  133.6834  156.1982 LP  0  0  0  0  0  0  0  0  0  0  0  0  # atno 17394 bound_to 11000
  140.6637  134.4941  157.5584 LP  0  0  0  0  0  0  0  0  0  0  0  0  # atno 17395 bound_to 11000

$$$$
