AV-unprocessed.smi:3101|AV-procd|sdf|11809|dock6
  -GOLD-   2272017183D 1   1.00000     0.00000
 Structure written by MMmdl.
 28 29  0  0  0  0  0  0  0  0  1 V2000
  152.9496  141.8188  160.5245 C   0  0  0  0  0  0  0  0  0  0  0  0
  152.2081  142.8598  159.6676 C   0  0  1  0  0  0  0  0  0  0  0  0
  153.1113  143.8262  158.9183 C   0  0  0  0  0  0  0  0  0  0  0  0
  152.2433  144.2825  157.7408 C   0  0  0  0  0  0  0  0  0  0  0  0
  151.0770  143.4573  157.7454 O   0  0  0  0  0  0  0  0  0  0  0  0
  151.2773  142.3141  158.5702 C   0  0  1  0  0  0  0  0  0  0  0  0
  151.8315  141.1609  157.7080 C   0  0  0  0  0  0  0  0  0  0  0  0
  152.9354  140.6715  157.9511 O   0  0  0  0  0  0  0  0  0  0  0  0
  151.0364  140.7672  156.6960 N   0  0  0  0  0  0  0  0  0  0  0  0
  151.2623  139.7282  155.7553 C   0  0  0  0  0  0  0  0  0  0  0  0
  152.1878  138.7330  156.1492 C   0  0  0  0  0  0  0  0  0  0  0  0
  152.5109  137.6836  155.3608 N   0  0  0  0  0  0  0  0  0  0  0  0
  151.9026  137.6232  154.1572 C   0  0  0  0  0  0  0  0  0  0  0  0
  150.9787  138.6053  153.7473 C   0  0  0  0  0  0  0  0  0  0  0  0
  150.6602  139.6513  154.5406 N   0  0  0  0  0  0  0  0  0  0  0  0
  153.6500  141.2259  159.9365 H   0  0  0  0  0  0  0  0  0  0  0  0
  152.2470  141.1335  160.9986 H   0  0  0  0  0  0  0  0  0  0  0  0
  153.5202  142.3063  161.3151 H   0  0  0  0  0  0  0  0  0  0  0  0
  151.5857  143.4511  160.3411 H   0  0  0  0  0  0  0  0  0  0  0  0
  153.4360  144.6580  159.5443 H   0  0  0  0  0  0  0  0  0  0  0  0
  154.0051  143.3210  158.5505 H   0  0  0  0  0  0  0  0  0  0  0  0
  151.9461  145.3266  157.8421 H   0  0  0  0  0  0  0  0  0  0  0  0
  152.7773  144.1751  156.7961 H   0  0  0  0  0  0  0  0  0  0  0  0
  150.3222  142.0123  159.0031 H   0  0  0  0  0  0  0  0  0  0  0  0
  150.1664  141.2686  156.5907 H   0  0  0  0  0  0  0  0  0  0  0  0
  152.6777  138.7770  157.1111 H   0  0  0  0  0  0  0  0  0  0  0  0
  152.1535  136.7893  153.5184 H   0  0  0  0  0  0  0  0  0  0  0  0
  150.4950  138.5522  152.7832 H   0  0  0  0  0  0  0  0  0  0  0  0
  1  2  1  0  0  0  0
  1 16  1  0  0  0  0
  1 17  1  0  0  0  0
  1 18  1  0  0  0  0
  2  6  1  0  0  0  0
  2  3  1  0  0  0  0
  2 19  1  0  0  0  0
  3  4  1  0  0  0  0
  3 20  1  0  0  0  0
  3 21  1  0  0  0  0
  4  5  1  0  0  0  0
  4 22  1  0  0  0  0
  4 23  1  0  0  0  0
  5  6  1  0  0  0  0
  6  7  1  0  0  0  0
  6 24  1  0  0  0  0
  7  8  2  0  0  0  0
  7  9  1  0  0  0  0
  9 10  1  0  0  0  0
  9 25  1  0  0  0  0
 10 15  1  0  0  0  0
 10 11  2  0  0  0  0
 11 12  1  0  0  0  0
 11 26  1  0  0  0  0
 12 13  2  0  0  0  0
 13 14  1  0  0  0  0
 13 27  1  0  0  0  0
 14 15  2  0  0  0  0
 14 28  1  0  0  0  0
M  END
> <s_m_source_file>
AV-unprocessed.smi

> <i_m_source_file_index>
3101

> <i_lp_mmshare_version>
43012

> <i_f3d_flags>
0

> <s_epik_input>
W0NIM11bQ0BASF0xW0NIMl1bQ0gyXU9bQ0BIXTFDKD1PKVtOSF1jMltjSF1uW2NIXVtjSF1uMg==

> <s_epik_cmdline>
J2VwaWtfcHl0aG9uJywgJy1waCcsICc3LjAnLCAnLXRuJywgJzgnLCAnLW1hJywgJzIwMCcsICctbWV0YWxfYmluZGluZycsICctaW1hZScsICc8aW5maWxlLm1hZT4nLCAnLW9tYWUnLCAnPG91dGZpbGUubWFlPic=

> <r_lp_tautomer_probability>
1

> <r_epik_Ionization_Penalty>
2.83174e-06

> <r_epik_Ionization_Penalty_Charging>
0

> <r_epik_Ionization_Penalty_Neutral>
2.83174e-06

> <r_epik_State_Penalty>
-0

> <r_epik_Charging_Adjusted_Penalty>
0

> <i_epik_Tot_Q>
0

> <i_epik_Tot_abs_Q>
0

> <r_epik_Metal_State_Penalty>
-0

> <b_epik_Metal_Only>
0

> <s_lp_Force_Field>
OPLS_2005

> <r_lp_Energy>
27.517

> <b_lp_Chiralities_Consistent>
1

> <s_lp_Variant>
AV-unprocessed.smi:3101-2

> <Gold.Version>
5.8.1

> <Gold.Id.Protein>
6NUR|6NUR_protein|mol2

> <Gold.PLP.Fitness>
41.2953

> <Gold.PLP.PLP>
-29.6262

> <Gold.PLP.part.hbond>
-2.5035

> <Gold.PLP.part.metal>
0.0000

> <Gold.PLP.part.buried>
-1.5995

> <Gold.PLP.part.nonpolar>
-25.6394

> <Gold.PLP.part.repulsive>
0.3414

> <Gold.PLP.ligand.clash>
0.0000

> <Gold.PLP.ligand.torsion>
0.1201

> <Gold.PLP.Chemscore.Hbond>
1.2755

> <Gold.PLP.Chemscore.CHOScore>
2.6859

> <Gold.PLP.Chemscore.Metal>
0.0000

> <Gold.Chemscore.Hbonds>
donor molecule, donor type, donor heavy atom, donor atom, acceptor molecule, acceptor atom, score
      P1  H  7989  7998       L1    15  0.65
      P1  H  7997  8009       L1     8  0.70
      P1  H 10752 10765       L1    12  0.07
      L1  C    13    27       P1  7949  1.00
      L1  C    14    28       P1  7948  0.09
      L1  C    14    28       P1  7957  0.85

> <Gold.PLP.Chemscore.Internal.Correction>
0.0249

> <Gold.Rescore>
     Score         DG    S(hbond)    S(metal)    S(lipo)     H(rot)  DE(clash)    DE(int)     intcor
     11.94     -14.96       0.83        0.00      79.12       1.00       0.08       2.94       ----

> <Gold.Chemscore.Fitness>
11.9415

> <Gold.Chemscore.DG>
-14.9570

> <Gold.Chemscore.ZeroCoef>
-5.4800

> <Gold.Chemscore.Hbond>
0.8323

> <Gold.Chemscore.Metal>
0.0000

> <Gold.Chemscore.Lipo>
79.1204

> <Gold.Chemscore.Internal_Hbond>
0.0000

> <Gold.Chemscore.DEClash>
0.0765

> <Gold.Chemscore.DEInternal>
2.9390

> <Gold.Chemscore.Rot>
1.0000

> <Gold.Chemscore.Internal.Correction>
   9.000000E+99

> <Gold.Chemscore.Hbonds>
donor molecule, donor type, donor heavy atom, donor atom, acceptor molecule, acceptor atom, score
      P1  H  7989  7998       L1    15  0.03
      P1  H  7997  8009       L1     8  0.69

> <Gold.Chemscore.Hbond.Weighted>
-2.7800

> <Gold.Chemscore.Metal.Weighted>
-0.0000

> <Gold.Chemscore.Lipo.Weighted>
-9.2571

> <Gold.Chemscore.Internal_Hbond.Weighted>
0.0000

> <Gold.Chemscore.DEClash.Weighted>
0.0765

> <Gold.Chemscore.DEInternal.Weighted>
2.9390

> <Gold.Chemscore.Rot.Weighted>
2.5600

> <Gold.Chemscore.Internal.Correction.Weighted>
   9.000000E+99

> <Gold.Protein.RotatedTorsions>
[ 6907 6896 6895 6894 ] final -141.15 input  -60.11 | X-H torsion
[ 7974 7965 7964 7962 ] final  -29.66 input  175.53 | X-H torsion
[ 8008 7997 7996 7995 ] final  158.94 input   59.86 | X-H torsion
[ 10167 10162 10161 10158 ] final  -51.38 input  -65.29 | X-H torsion
[ 10718 10713 10712 10709 ] final   90.97 input   66.30 | X-H torsion
[ 10763 10752 10751 10750 ] final -147.03 input  -60.55 | X-H torsion
[ 11005 11000 10999 10996 ] final  128.96 input  -57.11 | X-H torsion

> <Gold.Protein.ActiveResidues>
 VAL166  LYS551  ARG553  GLY616  TRP617  ASP618  TYR619  PRO620  LYS621  CYS622 
 ASP623  PHE694  ASN695  SER759  ASP760  ASP761  ALA762  ILE779  LEU786  VAL792 
 PHE793  MET794  SER795  GLU796  ALA797  LYS798  CYS799  TRP800  GLU811  SER814 

> <Gold.Protein.RotatedAtoms>
  151.0700  133.5474  159.2627 H   0  0  0  0  0  0  0  0  0  0  0  0  # atno 6907 bound_to 6896
  151.2417  135.0590  159.9037 H   0  0  0  0  0  0  0  0  0  0  0  0  # atno 6908 bound_to 6896
  152.5410  134.0474  159.8148 H   0  0  0  0  0  0  0  0  0  0  0  0  # atno 6909 bound_to 6896
  146.1200  140.5441  142.8740 H   0  0  0  0  0  0  0  0  0  0  0  0  # atno 7974 bound_to 7965
  156.2271  140.1845  156.7336 H   0  0  0  0  0  0  0  0  0  0  0  0  # atno 8008 bound_to 7997
  154.5959  140.0643  156.9331 H   0  0  0  0  0  0  0  0  0  0  0  0  # atno 8009 bound_to 7997
  155.2256  140.3311  155.4312 H   0  0  0  0  0  0  0  0  0  0  0  0  # atno 8010 bound_to 7997
  140.6591  143.2622  151.4495 H   0  0  0  0  0  0  0  0  0  0  0  0  # atno 10167 bound_to 10162
  157.6960  131.0390  150.3658 H   0  0  0  0  0  0  0  0  0  0  0  0  # atno 10718 bound_to 10713
  154.8306  135.3371  154.6754 H   0  0  0  0  0  0  0  0  0  0  0  0  # atno 10763 bound_to 10752
  153.7375  135.6948  153.4979 H   0  0  0  0  0  0  0  0  0  0  0  0  # atno 10764 bound_to 10752
  153.2268  135.4430  155.0502 H   0  0  0  0  0  0  0  0  0  0  0  0  # atno 10765 bound_to 10752
  139.9589  134.9607  156.9078 H   0  0  0  0  0  0  0  0  0  0  0  0  # atno 11005 bound_to 11000
  144.7588  140.5372  143.6750 LP  0  0  0  0  0  0  0  0  0  0  0  0  # atno 17320 bound_to 7965
  145.5486  139.1476  143.3407 LP  0  0  0  0  0  0  0  0  0  0  0  0  # atno 17321 bound_to 7965
  139.5820  144.1687  152.1981 LP  0  0  0  0  0  0  0  0  0  0  0  0  # atno 17342 bound_to 10162
  140.1016  144.5535  150.6985 LP  0  0  0  0  0  0  0  0  0  0  0  0  # atno 17343 bound_to 10162
  156.4089  130.3930  149.6906 LP  0  0  0  0  0  0  0  0  0  0  0  0  # atno 17370 bound_to 10713
  156.4197  130.7762  151.2779 LP  0  0  0  0  0  0  0  0  0  0  0  0  # atno 17371 bound_to 10713
  140.5546  134.0594  155.7379 LP  0  0  0  0  0  0  0  0  0  0  0  0  # atno 17394 bound_to 11000
  141.1264  133.9376  157.2627 LP  0  0  0  0  0  0  0  0  0  0  0  0  # atno 17395 bound_to 11000

$$$$
