AV-unprocessed.smi:760|AV-procd|sdf|3629|dock7
  -GOLD-   22720 1 23D 1   1.00000     0.00000
 Structure written by MMmdl.
 43 44  0  0  0  0  0  0  0  0  1 V2000
  151.5475  140.4790  156.1128 C   0  0  0  0  0  0  0  0  0  0  0  0
  150.9930  141.3407  156.9812 C   0  0  0  0  0  0  0  0  0  0  0  0
  151.8213  142.0901  158.0095 C   0  0  0  0  0  0  0  0  0  0  0  0
  149.4931  141.5962  157.0037 C   0  0  0  0  0  0  0  0  0  0  0  0
  148.7371  140.8336  156.0070 N   0  0  0  0  0  0  0  0  0  0  0  0
  149.0475  141.2274  154.6290 C   0  0  0  0  0  0  0  0  0  0  0  0
  148.2651  140.3617  153.6254 C   0  0  0  0  0  0  0  0  0  0  0  0
  146.7517  140.4529  153.8659 C   0  0  0  0  0  0  0  0  0  0  0  0
  146.0544  139.5217  152.9842 N   0  0  0  0  0  0  0  0  0  0  0  0
  146.2442  138.1952  152.9528 C   0  0  0  0  0  0  0  0  0  0  0  0
  147.0410  137.6028  153.6809 O   0  0  0  0  0  0  0  0  0  0  0  0
  145.4596  137.6129  152.0312 N   0  0  0  0  0  0  0  0  0  0  0  0
  145.3876  136.2344  151.7079 C   0  0  0  0  0  0  0  0  0  0  0  0
  144.4290  135.6571  150.8350 C   0  0  0  0  0  0  0  0  0  0  0  0
  144.6074  134.3494  150.7245 N   0  0  0  0  0  0  0  0  0  0  0  0
  145.6728  134.0731  151.5153 N   0  0  0  0  0  0  0  0  0  0  0  0
  146.1397  132.7075  151.6228 C   0  0  0  0  0  0  0  0  0  0  0  0
  146.1750  135.2015  152.1324 C   0  0  0  0  0  0  0  0  0  0  0  0
  146.4616  140.1346  155.3418 C   0  0  0  0  0  0  0  0  0  0  0  0
  147.3084  141.0184  156.2729 C   0  0  0  0  0  0  0  0  0  0  0  0
  152.6115  140.2926  156.1068 H   0  0  0  0  0  0  0  0  0  0  0  0
  150.9424  139.9472  155.3930 H   0  0  0  0  0  0  0  0  0  0  0  0
  151.5206  141.7962  159.0153 H   0  0  0  0  0  0  0  0  0  0  0  0
  151.6895  143.1676  157.9193 H   0  0  0  0  0  0  0  0  0  0  0  0
  152.8837  141.8706  157.8981 H   0  0  0  0  0  0  0  0  0  0  0  0
  149.1255  141.3286  157.9955 H   0  0  0  0  0  0  0  0  0  0  0  0
  149.3103  142.6652  156.8825 H   0  0  0  0  0  0  0  0  0  0  0  0
  148.8206  142.2843  154.4810 H   0  0  0  0  0  0  0  0  0  0  0  0
  150.1097  141.0913  154.4304 H   0  0  0  0  0  0  0  0  0  0  0  0
  148.5008  140.6758  152.6079 H   0  0  0  0  0  0  0  0  0  0  0  0
  148.5951  139.3252  153.7127 H   0  0  0  0  0  0  0  0  0  0  0  0
  146.4276  141.4724  153.6473 H   0  0  0  0  0  0  0  0  0  0  0  0
  145.3778  139.9197  152.3495 H   0  0  0  0  0  0  0  0  0  0  0  0
  144.8504  138.2202  151.5030 H   0  0  0  0  0  0  0  0  0  0  0  0
  143.6268  136.1322  150.2898 H   0  0  0  0  0  0  0  0  0  0  0  0
  147.0463  132.6685  152.2275 H   0  0  0  0  0  0  0  0  0  0  0  0
  146.3590  132.3119  150.6304 H   0  0  0  0  0  0  0  0  0  0  0  0
  145.3725  132.0919  152.0932 H   0  0  0  0  0  0  0  0  0  0  0  0
  147.0243  135.1625  152.7984 H   0  0  0  0  0  0  0  0  0  0  0  0
  145.4036  140.2844  155.5590 H   0  0  0  0  0  0  0  0  0  0  0  0
  146.6740  139.0841  155.5473 H   0  0  0  0  0  0  0  0  0  0  0  0
  147.0909  140.7538  157.3086 H   0  0  0  0  0  0  0  0  0  0  0  0
  147.0360  142.0677  156.1475 H   0  0  0  0  0  0  0  0  0  0  0  0
  1  2  2  0  0  0  0
  1 21  1  0  0  0  0
  1 22  1  0  0  0  0
  2  3  1  0  0  0  0
  2  4  1  0  0  0  0
  3 23  1  0  0  0  0
  3 24  1  0  0  0  0
  3 25  1  0  0  0  0
  4  5  1  0  0  0  0
  4 26  1  0  0  0  0
  4 27  1  0  0  0  0
  5 20  1  0  0  0  0
  5  6  1  0  0  0  0
  6  7  1  0  0  0  0
  6 28  1  0  0  0  0
  6 29  1  0  0  0  0
  7  8  1  0  0  0  0
  7 30  1  0  0  0  0
  7 31  1  0  0  0  0
  8  9  1  0  0  0  0
  8 19  1  0  0  0  0
  8 32  1  0  0  0  0
  9 10  1  0  0  0  0
  9 33  1  0  0  0  0
 10 11  2  0  0  0  0
 10 12  1  0  0  0  0
 12 13  1  0  0  0  0
 12 34  1  0  0  0  0
 13 18  2  0  0  0  0
 13 14  1  0  0  0  0
 14 15  2  0  0  0  0
 14 35  1  0  0  0  0
 15 16  1  0  0  0  0
 16 17  1  0  0  0  0
 16 18  1  0  0  0  0
 17 36  1  0  0  0  0
 17 37  1  0  0  0  0
 17 38  1  0  0  0  0
 18 39  1  0  0  0  0
 19 20  1  0  0  0  0
 19 40  1  0  0  0  0
 19 41  1  0  0  0  0
 20 42  1  0  0  0  0
 20 43  1  0  0  0  0
M  END
> <s_m_source_file>
AV-unprocessed.smi

> <i_m_source_file_index>
760

> <i_lp_mmshare_version>
43012

> <i_f3d_flags>
0

> <s_epik_input>
W0NIMl09QyhbQ0gzXSlbQ0gyXU4xW0NIMl1bQ0gyXVtDSF0oW0NIMl1bQ0gyXTEpW05IXUMoPU8pW05IXWMyW2NIXW5uKFtDSDNdKVtjSF0y

> <s_epik_cmdline>
J2VwaWtfcHl0aG9uJywgJy1waCcsICc3LjAnLCAnLXRuJywgJzgnLCAnLW1hJywgJzIwMCcsICctbWV0YWxfYmluZGluZycsICctaW1hZScsICc8aW5maWxlLm1hZT4nLCAnLW9tYWUnLCAnPG91dGZpbGUubWFlPic=

> <r_lp_tautomer_probability>
1

> <r_epik_Ionization_Penalty>
2.03709

> <r_epik_Ionization_Penalty_Charging>
0

> <r_epik_Ionization_Penalty_Neutral>
2.03709

> <r_epik_State_Penalty>
2.16834

> <r_epik_Charging_Adjusted_Penalty>
2.16834

> <i_epik_Tot_Q>
0

> <i_epik_Tot_abs_Q>
0

> <r_epik_Metal_State_Penalty>
2.16831

> <b_epik_Metal_Only>
0

> <s_lp_Force_Field>
OPLS_2005

> <r_lp_Energy>
20.5491

> <b_lp_Chiralities_Consistent>
1

> <s_lp_Variant>
AV-unprocessed.smi:760-3

> <Gold.Version>
5.8.1

> <Gold.Id.Protein>
6NUR|6NUR_protein|mol2

> <Gold.PLP.Fitness>
36.8225

> <Gold.PLP.PLP>
-27.4910

> <Gold.PLP.part.hbond>
-2.0000

> <Gold.PLP.part.metal>
0.0000

> <Gold.PLP.part.buried>
-0.8717

> <Gold.PLP.part.nonpolar>
-25.9444

> <Gold.PLP.part.repulsive>
1.5749

> <Gold.PLP.ligand.clash>
0.0000

> <Gold.PLP.ligand.torsion>
0.0438

> <Gold.PLP.Chemscore.Hbond>
1.7280

> <Gold.PLP.Chemscore.CHOScore>
1.4046

> <Gold.PLP.Chemscore.Metal>
0.0000

> <Gold.Chemscore.Hbonds>
donor molecule, donor type, donor heavy atom, donor atom, acceptor molecule, acceptor atom, score
      L1  H     9    33       P1 10175  0.74
      L1  H    12    34       P1 10171  0.98
      L1  C    14    35       P1 10171  0.76
      L1  C    18    39       P1  7948  0.63

> <Gold.PLP.Chemscore.Internal.Correction>
0.0213

> <Gold.Rescore>
     Score         DG    S(hbond)    S(metal)    S(lipo)     H(rot)  DE(clash)    DE(int)     intcor
     11.81     -14.65       1.63        0.00      61.43       1.35       0.04       2.80       ----

> <Gold.Chemscore.Fitness>
11.8135

> <Gold.Chemscore.DG>
-14.6511

> <Gold.Chemscore.ZeroCoef>
-5.4800

> <Gold.Chemscore.Hbond>
1.6280

> <Gold.Chemscore.Metal>
0.0000

> <Gold.Chemscore.Lipo>
61.4321

> <Gold.Chemscore.Internal_Hbond>
0.0000

> <Gold.Chemscore.DEClash>
0.0376

> <Gold.Chemscore.DEInternal>
2.7999

> <Gold.Chemscore.Rot>
1.3491

> <Gold.Chemscore.Internal.Correction>
   9.000000E+99

> <Gold.Chemscore.Hbonds>
donor molecule, donor type, donor heavy atom, donor atom, acceptor molecule, acceptor atom, score
      L1  H     9    33       P1 10175  0.68
      L1  H    12    34       P1 10171  0.91

> <Gold.Chemscore.Hbond.Weighted>
-5.4374

> <Gold.Chemscore.Metal.Weighted>
-0.0000

> <Gold.Chemscore.Lipo.Weighted>
-7.1876

> <Gold.Chemscore.Internal_Hbond.Weighted>
0.0000

> <Gold.Chemscore.DEClash.Weighted>
0.0376

> <Gold.Chemscore.DEInternal.Weighted>
2.7999

> <Gold.Chemscore.Rot.Weighted>
3.4538

> <Gold.Chemscore.Internal.Correction.Weighted>
   9.000000E+99

> <Gold.Protein.RotatedTorsions>
[ 6907 6896 6895 6894 ] final  -31.04 input  -60.11 | X-H torsion
[ 7974 7965 7964 7962 ] final -157.16 input  175.53 | X-H torsion
[ 8008 7997 7996 7995 ] final  104.35 input   59.86 | X-H torsion
[ 10167 10162 10161 10158 ] final  121.18 input  -65.29 | X-H torsion
[ 10718 10713 10712 10709 ] final  137.11 input   66.30 | X-H torsion
[ 10763 10752 10751 10750 ] final   -4.16 input  -60.55 | X-H torsion
[ 11005 11000 10999 10996 ] final  -36.07 input  -57.11 | X-H torsion

> <Gold.Protein.ActiveResidues>
 VAL166  LYS551  ARG553  GLY616  TRP617  ASP618  TYR619  PRO620  LYS621  CYS622 
 ASP623  PHE694  ASN695  SER759  ASP760  ASP761  ALA762  ILE779  LEU786  VAL792 
 PHE793  MET794  SER795  GLU796  ALA797  LYS798  CYS799  TRP800  GLU811  SER814 

> <Gold.Protein.RotatedAtoms>
  151.0974  134.9952  159.8431 H   0  0  0  0  0  0  0  0  0  0  0  0  # atno 6907 bound_to 6896
  152.5434  134.1992  159.8715 H   0  0  0  0  0  0  0  0  0  0  0  0  # atno 6908 bound_to 6896
  151.2032  133.4554  159.2630 H   0  0  0  0  0  0  0  0  0  0  0  0  # atno 6909 bound_to 6896
  144.7560  140.4008  143.6012 H   0  0  0  0  0  0  0  0  0  0  0  0  # atno 7974 bound_to 7965
  156.1565  140.3149  155.8734 H   0  0  0  0  0  0  0  0  0  0  0  0  # atno 8008 bound_to 7997
  155.3868  140.0491  157.3059 H   0  0  0  0  0  0  0  0  0  0  0  0  # atno 8009 bound_to 7997
  154.5106  140.2163  155.9175 H   0  0  0  0  0  0  0  0  0  0  0  0  # atno 8010 bound_to 7997
  139.5936  144.7034  151.3231 H   0  0  0  0  0  0  0  0  0  0  0  0  # atno 10167 bound_to 10162
  157.4396  131.1056  151.0158 H   0  0  0  0  0  0  0  0  0  0  0  0  # atno 10718 bound_to 10713
  153.3812  135.6998  153.6564 H   0  0  0  0  0  0  0  0  0  0  0  0  # atno 10763 bound_to 10752
  153.5175  135.3619  155.2616 H   0  0  0  0  0  0  0  0  0  0  0  0  # atno 10764 bound_to 10752
  154.8693  135.4150  154.3110 H   0  0  0  0  0  0  0  0  0  0  0  0  # atno 10765 bound_to 10752
  140.9846  133.7037  156.1743 H   0  0  0  0  0  0  0  0  0  0  0  0  # atno 11005 bound_to 11000
  145.6777  139.1612  143.2718 LP  0  0  0  0  0  0  0  0  0  0  0  0  # atno 17320 bound_to 7965
  146.1571  140.6842  142.9295 LP  0  0  0  0  0  0  0  0  0  0  0  0  # atno 17321 bound_to 7965
  140.7193  143.7179  150.7718 LP  0  0  0  0  0  0  0  0  0  0  0  0  # atno 17342 bound_to 10162
  140.0741  143.5033  152.2565 LP  0  0  0  0  0  0  0  0  0  0  0  0  # atno 17343 bound_to 10162
  157.1026  130.5988  149.5463 LP  0  0  0  0  0  0  0  0  0  0  0  0  # atno 17370 bound_to 10713
  155.9943  130.5007  150.7416 LP  0  0  0  0  0  0  0  0  0  0  0  0  # atno 17371 bound_to 10713
  140.7134  134.4437  157.5580 LP  0  0  0  0  0  0  0  0  0  0  0  0  # atno 17394 bound_to 11000
  139.8965  134.8658  156.2085 LP  0  0  0  0  0  0  0  0  0  0  0  0  # atno 17395 bound_to 11000

$$$$
