AV-unprocessed.smi:1304|AV-procd|sdf|5431|dock1
  -GOLD-   22720 4593D 1   1.00000     0.00000
 Structure written by MMmdl.
 48 49  0  0  0  0  0  0  0  0  2 V2000
  145.3330  143.5196  154.4865 C   0  0  0  0  0  0  0  0  0  0  0  0
  146.3152  142.5118  153.8624 C   0  0  0  0  0  0  0  0  0  0  0  0
  146.5900  141.2306  154.7081 C   0  0  1  0  0  0  0  0  0  0  0  0
  147.7130  140.4333  153.9927 C   0  0  0  0  0  0  0  0  0  0  0  0
  147.0917  141.6451  156.1232 C   0  0  0  0  0  0  0  0  0  0  0  0
  148.4618  142.1498  156.1161 N   0  0  0  0  0  0  0  0  0  0  0  0
  149.5064  141.5150  156.6656 C   0  0  0  0  0  0  0  0  0  0  0  0
  149.4057  140.4254  157.2312 O   0  0  0  0  0  0  0  0  0  0  0  0
  150.8631  142.2236  156.5396 C   0  0  0  0  0  0  0  0  0  0  0  0
  151.5356  142.4419  157.8314 N   0  0  0  0  0  0  0  0  0  0  0  0
  151.8790  141.2954  158.5753 C   0  0  0  0  0  0  0  0  0  0  0  0
  152.4877  141.3792  159.7687 C   0  0  0  0  0  0  0  0  0  0  0  0
  152.7917  142.6912  160.2891 C   0  0  0  0  0  0  0  0  0  0  0  0
  152.4647  143.7946  159.5873 C   0  0  0  0  0  0  0  0  0  0  0  0
  151.7976  143.7076  158.2828 C   0  0  0  0  0  0  0  0  0  0  0  0
  151.4917  144.7101  157.6363 O   0  0  0  0  0  0  0  0  0  0  0  0
  145.3356  140.3977  154.8088 N   0  3  0  0  0  0  0  0  0  0  0  0
  145.5271  138.9628  155.1651 C   0  0  0  0  0  0  0  0  0  0  0  0
  144.1993  138.1948  155.0472 C   0  0  0  0  0  0  0  0  0  0  0  0
  143.2154  138.7986  155.8751 O   0  0  0  0  0  0  0  0  0  0  0  0
  142.9567  140.1410  155.4897 C   0  0  0  0  0  0  0  0  0  0  0  0
  144.2402  140.9728  155.6401 C   0  0  0  0  0  0  0  0  0  0  0  0
  145.1983  144.3770  153.8270 H   0  0  0  0  0  0  0  0  0  0  0  0
  145.6933  143.9011  155.4419 H   0  0  0  0  0  0  0  0  0  0  0  0
  144.3488  143.0803  154.6481 H   0  0  0  0  0  0  0  0  0  0  0  0
  145.9178  142.2286  152.8871 H   0  0  0  0  0  0  0  0  0  0  0  0
  147.2483  143.0254  153.6324 H   0  0  0  0  0  0  0  0  0  0  0  0
  148.5442  141.0768  153.7022 H   0  0  0  0  0  0  0  0  0  0  0  0
  147.3519  139.9477  153.0859 H   0  0  0  0  0  0  0  0  0  0  0  0
  148.1372  139.6603  154.6341 H   0  0  0  0  0  0  0  0  0  0  0  0
  146.4642  142.4297  156.5466 H   0  0  0  0  0  0  0  0  0  0  0  0
  147.0381  140.7973  156.8071 H   0  0  0  0  0  0  0  0  0  0  0  0
  148.6245  143.0404  155.6693 H   0  0  0  0  0  0  0  0  0  0  0  0
  151.4975  141.6320  155.8780 H   0  0  0  0  0  0  0  0  0  0  0  0
  150.7210  143.1744  156.0224 H   0  0  0  0  0  0  0  0  0  0  0  0
  151.6106  140.3534  158.1197 H   0  0  0  0  0  0  0  0  0  0  0  0
  152.7391  140.4892  160.3268 H   0  0  0  0  0  0  0  0  0  0  0  0
  153.2815  142.7885  161.2469 H   0  0  0  0  0  0  0  0  0  0  0  0
  152.6979  144.7678  159.9941 H   0  0  0  0  0  0  0  0  0  0  0  0
  146.2441  138.4761  154.5066 H   0  0  0  0  0  0  0  0  0  0  0  0
  145.9104  138.8745  156.1819 H   0  0  0  0  0  0  0  0  0  0  0  0
  143.8551  138.1696  154.0118 H   0  0  0  0  0  0  0  0  0  0  0  0
  144.3358  137.1598  155.3611 H   0  0  0  0  0  0  0  0  0  0  0  0
  142.5843  140.1770  154.4645 H   0  0  0  0  0  0  0  0  0  0  0  0
  142.1711  140.5446  156.1286 H   0  0  0  0  0  0  0  0  0  0  0  0
  144.5301  140.9882  156.6909 H   0  0  0  0  0  0  0  0  0  0  0  0
  144.0146  141.9980  155.3534 H   0  0  0  0  0  0  0  0  0  0  0  0
  144.9710  140.3825  153.8669 H   0  0  0  0  0  0  0  0  0  0  0  0
  1  2  1  0  0  0  0
  1 23  1  0  0  0  0
  1 24  1  0  0  0  0
  1 25  1  0  0  0  0
  2  3  1  0  0  0  0
  2 26  1  0  0  0  0
  2 27  1  0  0  0  0
  3  4  1  0  0  0  0
  3  5  1  0  0  0  0
  3 17  1  0  0  0  0
  4 28  1  0  0  0  0
  4 29  1  0  0  0  0
  4 30  1  0  0  0  0
  5  6  1  0  0  0  0
  5 31  1  0  0  0  0
  5 32  1  0  0  0  0
  6  7  1  0  0  0  0
  6 33  1  0  0  0  0
  7  8  2  0  0  0  0
  7  9  1  0  0  0  0
  9 10  1  0  0  0  0
  9 34  1  0  0  0  0
  9 35  1  0  0  0  0
 10 15  1  0  0  0  0
 10 11  1  0  0  0  0
 11 12  2  0  0  0  0
 11 36  1  0  0  0  0
 12 13  1  0  0  0  0
 12 37  1  0  0  0  0
 13 14  2  0  0  0  0
 13 38  1  0  0  0  0
 14 15  1  0  0  0  0
 14 39  1  0  0  0  0
 15 16  2  0  0  0  0
 17 22  1  0  0  0  0
 17 18  1  0  0  0  0
 17 48  1  0  0  0  0
 18 19  1  0  0  0  0
 18 40  1  0  0  0  0
 18 41  1  0  0  0  0
 19 20  1  0  0  0  0
 19 42  1  0  0  0  0
 19 43  1  0  0  0  0
 20 21  1  0  0  0  0
 21 22  1  0  0  0  0
 21 44  1  0  0  0  0
 21 45  1  0  0  0  0
 22 46  1  0  0  0  0
 22 47  1  0  0  0  0
M  CHG  1  17   1
M  END
> <s_m_source_file>
AV-unprocessed.smi

> <i_m_source_file_index>
1304

> <i_lp_mmshare_version>
43012

> <i_f3d_flags>
0

> <s_epik_input>
W0NIMl0xW0NIMl1PW0NIMl1bQ0gyXU4xW0NAQF0oW0NIM10pKFtDSDJdW0NIM10pW0NIMl1bTkhdQyg9TylbQ0gyXW4yW2NIXVtjSF1bY0hdW2NIXWMyPU8=

> <s_epik_cmdline>
J2VwaWtfcHl0aG9uJywgJy1waCcsICc3LjAnLCAnLXRuJywgJzgnLCAnLW1hJywgJzIwMCcsICctbWV0YWxfYmluZGluZycsICctaW1hZScsICc8aW5maWxlLm1hZT4nLCAnLW9tYWUnLCAnPG91dGZpbGUubWFlPic=

> <r_lp_tautomer_probability>
1

> <r_epik_Ionization_Penalty>
0.519658

> <r_epik_Ionization_Penalty_Charging>
0.519658

> <r_epik_Ionization_Penalty_Neutral>
8.70177e-08

> <r_epik_State_Penalty>
0.527569

> <r_epik_Charging_Adjusted_Penalty>
1.04723

> <i_epik_Tot_Q>
1

> <i_epik_Tot_abs_Q>
1

> <r_epik_Metal_State_Penalty>
0.527613

> <b_epik_Metal_Only>
0

> <s_lp_Force_Field>
OPLS_2005

> <r_lp_Energy>
38.623

> <b_lp_Chiralities_Consistent>
1

> <s_lp_Variant>
AV-unprocessed.smi:1304-3

> <Gold.Version>
5.8.1

> <Gold.Id.Protein>
6NUR|6NUR_protein|mol2

> <Gold.PLP.Fitness>
44.9402

> <Gold.PLP.PLP>
-36.8871

> <Gold.PLP.part.hbond>
-2.0000

> <Gold.PLP.part.metal>
0.0000

> <Gold.PLP.part.buried>
-5.6297

> <Gold.PLP.part.nonpolar>
-29.5751

> <Gold.PLP.part.repulsive>
0.2529

> <Gold.PLP.ligand.clash>
0.0000

> <Gold.PLP.ligand.torsion>
0.5691

> <Gold.PLP.Chemscore.Hbond>
3.0000

> <Gold.PLP.Chemscore.CHOScore>
0.0000

> <Gold.PLP.Chemscore.Metal>
0.0000

> <Gold.Chemscore.Hbonds>
donor molecule, donor type, donor heavy atom, donor atom, acceptor molecule, acceptor atom, score
      L1  H     6    33       P1  8028  1.00
      L1  H    17    48       P1 10175  2.00

> <Gold.PLP.Chemscore.Internal.Correction>
0.1913

> <Gold.Rescore>
     Score         DG    S(hbond)    S(metal)    S(lipo)     H(rot)  DE(clash)    DE(int)     intcor
     13.75     -15.55       1.95        0.00      74.67       2.03       0.06       1.74       ----

> <Gold.Chemscore.Fitness>
13.7534

> <Gold.Chemscore.DG>
-15.5485

> <Gold.Chemscore.ZeroCoef>
-5.4800

> <Gold.Chemscore.Hbond>
1.9544

> <Gold.Chemscore.Metal>
0.0000

> <Gold.Chemscore.Lipo>
74.6741

> <Gold.Chemscore.Internal_Hbond>
0.0000

> <Gold.Chemscore.DEClash>
0.0560

> <Gold.Chemscore.DEInternal>
1.7391

> <Gold.Chemscore.Rot>
2.0298

> <Gold.Chemscore.Internal.Correction>
   9.000000E+99

> <Gold.Chemscore.Hbonds>
donor molecule, donor type, donor heavy atom, donor atom, acceptor molecule, acceptor atom, score
      L1  H     6    33       P1  8028  0.97
      L1  H    17    48       P1 10175  0.99

> <Gold.Chemscore.Hbond.Weighted>
-6.5278

> <Gold.Chemscore.Metal.Weighted>
-0.0000

> <Gold.Chemscore.Lipo.Weighted>
-8.7369

> <Gold.Chemscore.Internal_Hbond.Weighted>
0.0000

> <Gold.Chemscore.DEClash.Weighted>
0.0560

> <Gold.Chemscore.DEInternal.Weighted>
1.7391

> <Gold.Chemscore.Rot.Weighted>
5.1962

> <Gold.Chemscore.Internal.Correction.Weighted>
   9.000000E+99

> <Gold.Protein.RotatedTorsions>
[ 6907 6896 6895 6894 ] final -147.49 input  -60.11 | X-H torsion
[ 7974 7965 7964 7962 ] final  -22.91 input  175.53 | X-H torsion
[ 8008 7997 7996 7995 ] final -105.89 input   59.86 | X-H torsion
[ 10167 10162 10161 10158 ] final   49.43 input  -65.29 | X-H torsion
[ 10718 10713 10712 10709 ] final  -51.26 input   66.30 | X-H torsion
[ 10763 10752 10751 10750 ] final  146.11 input  -60.55 | X-H torsion
[ 11005 11000 10999 10996 ] final  -58.77 input  -57.11 | X-H torsion

> <Gold.Protein.ActiveResidues>
 VAL166  LYS551  ARG553  GLY616  TRP617  ASP618  TYR619  PRO620  LYS621  CYS622 
 ASP623  PHE694  ASN695  SER759  ASP760  ASP761  ALA762  ILE779  LEU786  VAL792 
 PHE793  MET794  SER795  GLU796  ALA797  LYS798  CYS799  TRP800  GLU811  SER814 

> <Gold.Protein.RotatedAtoms>
  151.1564  133.4874  159.2594 H   0  0  0  0  0  0  0  0  0  0  0  0  # atno 6907 bound_to 6896
  151.1500  135.0222  159.8674 H   0  0  0  0  0  0  0  0  0  0  0  0  # atno 6908 bound_to 6896
  152.5463  134.1449  159.8547 H   0  0  0  0  0  0  0  0  0  0  0  0  # atno 6909 bound_to 6896
  146.1648  140.4543  142.8556 H   0  0  0  0  0  0  0  0  0  0  0  0  # atno 7974 bound_to 7965
  154.9064  140.0411  157.1922 H   0  0  0  0  0  0  0  0  0  0  0  0  # atno 8008 bound_to 7997
  154.8392  140.2911  155.5649 H   0  0  0  0  0  0  0  0  0  0  0  0  # atno 8009 bound_to 7997
  156.2991  140.2486  156.3331 H   0  0  0  0  0  0  0  0  0  0  0  0  # atno 8010 bound_to 7997
  140.2830  144.3135  150.6259 H   0  0  0  0  0  0  0  0  0  0  0  0  # atno 10167 bound_to 10162
  156.1726  130.4149  149.9624 H   0  0  0  0  0  0  0  0  0  0  0  0  # atno 10718 bound_to 10713
  154.0164  135.2910  155.3386 H   0  0  0  0  0  0  0  0  0  0  0  0  # atno 10763 bound_to 10752
  154.7072  135.5164  153.8616 H   0  0  0  0  0  0  0  0  0  0  0  0  # atno 10764 bound_to 10752
  153.0700  135.6644  154.0391 H   0  0  0  0  0  0  0  0  0  0  0  0  # atno 10765 bound_to 10752
  141.1221  133.6613  156.4970 H   0  0  0  0  0  0  0  0  0  0  0  0  # atno 11005 bound_to 11000
  144.8077  140.6329  143.6436 LP  0  0  0  0  0  0  0  0  0  0  0  0  # atno 17320 bound_to 7965
  145.4496  139.1525  143.3925 LP  0  0  0  0  0  0  0  0  0  0  0  0  # atno 17321 bound_to 7965
  140.5796  143.2174  151.7452 LP  0  0  0  0  0  0  0  0  0  0  0  0  # atno 17342 bound_to 10162
  139.4957  144.4099  152.0091 LP  0  0  0  0  0  0  0  0  0  0  0  0  # atno 17343 bound_to 10162
  156.7419  130.9083  151.3632 LP  0  0  0  0  0  0  0  0  0  0  0  0  # atno 17370 bound_to 10713
  157.6814  130.9143  150.0276 LP  0  0  0  0  0  0  0  0  0  0  0  0  # atno 17371 bound_to 10713
  140.4477  134.6957  157.5024 LP  0  0  0  0  0  0  0  0  0  0  0  0  # atno 17394 bound_to 11000
  140.0187  134.6581  155.9272 LP  0  0  0  0  0  0  0  0  0  0  0  0  # atno 17395 bound_to 11000

$$$$
