AV-unprocessed.smi:981|AV-procd|sdf|4313|dock9
  -GOLD-   22720 2223D 1   1.00000     0.00000
 Structure written by MMmdl.
 36 37  0  0  0  0  0  0  0  0  1 V2000
  153.5404  141.4427  160.5059 C   0  0  0  0  0  0  0  0  0  0  0  0
  152.9452  142.5746  159.6560 C   0  0  0  0  0  0  0  0  0  0  0  0
  152.0459  143.5242  160.4609 C   0  0  0  0  0  0  0  0  0  0  0  0
  152.2626  142.0580  158.4284 C   0  0  0  0  0  0  0  0  0  0  0  0
  152.1924  140.7625  158.1068 N   0  0  0  0  0  0  0  0  0  0  0  0
  151.5020  140.5384  156.9118 C   0  0  0  0  0  0  0  0  0  0  0  0
  151.3326  139.1416  156.3963 C   0  0  0  0  0  0  0  0  0  0  0  0
  151.4049  139.0750  154.8646 C   0  0  0  0  0  0  0  0  0  0  0  0
  150.7009  137.9009  154.3684 N   0  0  0  0  0  0  0  0  0  0  0  0
  150.8391  136.6631  154.8692 C   0  0  0  0  0  0  0  0  0  0  0  0
  151.5947  136.3938  155.8013 O   0  0  0  0  0  0  0  0  0  0  0  0
  150.0989  135.7179  154.2621 N   0  0  0  0  0  0  0  0  0  0  0  0
  150.0290  134.3190  154.5636 C   0  0  0  0  0  0  0  0  0  0  0  0
  149.3073  133.4330  153.5710 C   0  0  0  0  0  0  0  0  0  0  0  0
  148.6732  133.7365  154.9002 C   0  0  0  0  0  0  0  0  0  0  0  0
  151.0459  141.6927  156.3260 C   0  0  0  0  0  0  0  0  0  0  0  0
  151.4673  143.1037  157.2564 S   0  0  0  0  0  0  0  0  0  0  0  0
  154.2363  140.8391  159.9225 H   0  0  0  0  0  0  0  0  0  0  0  0
  152.7621  140.7801  160.8858 H   0  0  0  0  0  0  0  0  0  0  0  0
  154.0857  141.8399  161.3623 H   0  0  0  0  0  0  0  0  0  0  0  0
  153.7886  143.1726  159.3087 H   0  0  0  0  0  0  0  0  0  0  0  0
  151.7085  144.3595  159.8465 H   0  0  0  0  0  0  0  0  0  0  0  0
  152.5786  143.9383  161.3173 H   0  0  0  0  0  0  0  0  0  0  0  0
  151.1616  143.0089  160.8374 H   0  0  0  0  0  0  0  0  0  0  0  0
  152.0981  138.4939  156.8259 H   0  0  0  0  0  0  0  0  0  0  0  0
  150.3767  138.7369  156.7317 H   0  0  0  0  0  0  0  0  0  0  0  0
  150.9643  139.9740  154.4302 H   0  0  0  0  0  0  0  0  0  0  0  0
  152.4452  139.0341  154.5376 H   0  0  0  0  0  0  0  0  0  0  0  0
  150.0637  138.0369  153.5971 H   0  0  0  0  0  0  0  0  0  0  0  0
  149.5488  136.0212  153.4714 H   0  0  0  0  0  0  0  0  0  0  0  0
  150.8854  133.8579  155.0529 H   0  0  0  0  0  0  0  0  0  0  0  0
  148.8729  133.9011  152.6896 H   0  0  0  0  0  0  0  0  0  0  0  0
  149.6978  132.4289  153.4192 H   0  0  0  0  0  0  0  0  0  0  0  0
  148.6405  132.9353  155.6358 H   0  0  0  0  0  0  0  0  0  0  0  0
  147.8179  134.4096  154.9072 H   0  0  0  0  0  0  0  0  0  0  0  0
  150.4908  141.7980  155.4058 H   0  0  0  0  0  0  0  0  0  0  0  0
  1  2  1  0  0  0  0
  1 18  1  0  0  0  0
  1 19  1  0  0  0  0
  1 20  1  0  0  0  0
  2  3  1  0  0  0  0
  2  4  1  0  0  0  0
  2 21  1  0  0  0  0
  3 22  1  0  0  0  0
  3 23  1  0  0  0  0
  3 24  1  0  0  0  0
  4 17  1  0  0  0  0
  4  5  2  0  0  0  0
  5  6  1  0  0  0  0
  6  7  1  0  0  0  0
  6 16  2  0  0  0  0
  7  8  1  0  0  0  0
  7 25  1  0  0  0  0
  7 26  1  0  0  0  0
  8  9  1  0  0  0  0
  8 27  1  0  0  0  0
  8 28  1  0  0  0  0
  9 10  1  0  0  0  0
  9 29  1  0  0  0  0
 10 11  2  0  0  0  0
 10 12  1  0  0  0  0
 12 13  1  0  0  0  0
 12 30  1  0  0  0  0
 13 15  1  0  0  0  0
 13 14  1  0  0  0  0
 13 31  1  0  0  0  0
 14 15  1  0  0  0  0
 14 32  1  0  0  0  0
 14 33  1  0  0  0  0
 15 34  1  0  0  0  0
 15 35  1  0  0  0  0
 16 17  1  0  0  0  0
 16 36  1  0  0  0  0
M  END
> <s_m_source_file>
AV-unprocessed.smi

> <i_m_source_file_index>
981

> <i_lp_mmshare_version>
43012

> <i_f3d_flags>
0

> <s_epik_input>
W0NIM11bQ0hdKFtDSDNdKWMxbmMoW2NIXXMxKVtDSDJdW0NIMl1bTkhdQyg9TylbTkhdW0NIXTJbQ0gyXVtDSDJdMg==

> <s_epik_cmdline>
J2VwaWtfcHl0aG9uJywgJy1waCcsICc3LjAnLCAnLXRuJywgJzgnLCAnLW1hJywgJzIwMCcsICctbWV0YWxfYmluZGluZycsICctaW1hZScsICc8aW5maWxlLm1hZT4nLCAnLW9tYWUnLCAnPG91dGZpbGUubWFlPic=

> <r_epik_Ionization_Penalty>
0.00156572

> <r_epik_Ionization_Penalty_Charging>
0

> <r_epik_Ionization_Penalty_Neutral>
0.00156572

> <r_epik_State_Penalty>
0.0010059

> <r_epik_Charging_Adjusted_Penalty>
0.0010059

> <i_epik_Tot_Q>
0

> <i_epik_Tot_abs_Q>
0

> <r_epik_Metal_State_Penalty>
-0

> <b_epik_Metal_Only>
0

> <s_lp_Force_Field>
OPLS_2005

> <r_lp_Energy>
12.4684

> <b_lp_Chiralities_Consistent>
1

> <s_lp_Variant>
AV-unprocessed.smi:981-1

> <Gold.Version>
5.8.1

> <Gold.Id.Protein>
6NUR|6NUR_protein|mol2

> <Gold.PLP.Fitness>
40.5930

> <Gold.PLP.PLP>
-35.8302

> <Gold.PLP.part.hbond>
-2.6886

> <Gold.PLP.part.metal>
0.0000

> <Gold.PLP.part.buried>
-4.5465

> <Gold.PLP.part.nonpolar>
-29.7240

> <Gold.PLP.part.repulsive>
0.1794

> <Gold.PLP.ligand.clash>
0.0000

> <Gold.PLP.ligand.torsion>
0.6778

> <Gold.PLP.Chemscore.Hbond>
2.0000

> <Gold.PLP.Chemscore.CHOScore>
0.0000

> <Gold.PLP.Chemscore.Metal>
0.0000

> <Gold.Chemscore.Hbonds>
donor molecule, donor type, donor heavy atom, donor atom, acceptor molecule, acceptor atom, score
      L1  H    12    30       P1  7948  1.00
      P1  H 10752 10765       L1    11  1.00

> <Gold.PLP.Chemscore.Internal.Correction>
0.1184

> <Gold.Rescore>
     Score         DG    S(hbond)    S(metal)    S(lipo)     H(rot)  DE(clash)    DE(int)     intcor
     15.64     -17.88       1.64        0.00      96.48       1.70       0.03       2.21       ----

> <Gold.Chemscore.Fitness>
15.6377

> <Gold.Chemscore.DG>
-17.8819

> <Gold.Chemscore.ZeroCoef>
-5.4800

> <Gold.Chemscore.Hbond>
1.6400

> <Gold.Chemscore.Metal>
0.0000

> <Gold.Chemscore.Lipo>
96.4774

> <Gold.Chemscore.Internal_Hbond>
0.0000

> <Gold.Chemscore.DEClash>
0.0321

> <Gold.Chemscore.DEInternal>
2.2121

> <Gold.Chemscore.Rot>
1.7045

> <Gold.Chemscore.Internal.Correction>
   9.000000E+99

> <Gold.Chemscore.Hbonds>
donor molecule, donor type, donor heavy atom, donor atom, acceptor molecule, acceptor atom, score
      L1  H    12    30       P1  7948  0.35
      P1  H 10752 10765       L1    11  0.25

> <Gold.Chemscore.Hbond.Weighted>
-5.4776

> <Gold.Chemscore.Metal.Weighted>
-0.0000

> <Gold.Chemscore.Lipo.Weighted>
-11.2879

> <Gold.Chemscore.Internal_Hbond.Weighted>
0.0000

> <Gold.Chemscore.DEClash.Weighted>
0.0321

> <Gold.Chemscore.DEInternal.Weighted>
2.2121

> <Gold.Chemscore.Rot.Weighted>
4.3636

> <Gold.Chemscore.Internal.Correction.Weighted>
   9.000000E+99

> <Gold.Protein.RotatedTorsions>
[ 6907 6896 6895 6894 ] final   18.17 input  -60.11 | X-H torsion
[ 7974 7965 7964 7962 ] final -122.36 input  175.53 | X-H torsion
[ 8008 7997 7996 7995 ] final  -40.32 input   59.86 | X-H torsion
[ 10167 10162 10161 10158 ] final  -61.32 input  -65.29 | X-H torsion
[ 10718 10713 10712 10709 ] final   51.31 input   66.30 | X-H torsion
[ 10763 10752 10751 10750 ] final -164.38 input  -60.55 | X-H torsion
[ 11005 11000 10999 10996 ] final  -51.62 input  -57.11 | X-H torsion

> <Gold.Protein.ActiveResidues>
 VAL166  LYS551  ARG553  GLY616  TRP617  ASP618  TYR619  PRO620  LYS621  CYS622 
 ASP623  PHE694  ASN695  SER759  ASP760  ASP761  ALA762  ILE779  LEU786  VAL792 
 PHE793  MET794  SER795  GLU796  ALA797  LYS798  CYS799  TRP800  GLU811  SER814 

> <Gold.Protein.RotatedAtoms>
  151.8612  135.0523  160.0469 H   0  0  0  0  0  0  0  0  0  0  0  0  # atno 6907 bound_to 6896
  152.2661  133.5336  159.5419 H   0  0  0  0  0  0  0  0  0  0  0  0  # atno 6908 bound_to 6896
  150.7134  134.0678  159.3896 H   0  0  0  0  0  0  0  0  0  0  0  0  # atno 6909 bound_to 6896
  145.0303  140.8062  143.4328 H   0  0  0  0  0  0  0  0  0  0  0  0  # atno 7974 bound_to 7965
  154.4013  140.1528  156.3007 H   0  0  0  0  0  0  0  0  0  0  0  0  # atno 8008 bound_to 7997
  155.8703  140.3449  155.5795 H   0  0  0  0  0  0  0  0  0  0  0  0  # atno 8009 bound_to 7997
  155.7782  140.0839  157.2063 H   0  0  0  0  0  0  0  0  0  0  0  0  # atno 8010 bound_to 7997
  140.6013  143.2362  151.5922 H   0  0  0  0  0  0  0  0  0  0  0  0  # atno 10167 bound_to 10162
  157.4968  130.8412  149.8268 H   0  0  0  0  0  0  0  0  0  0  0  0  # atno 10718 bound_to 10713
  154.7034  135.2992  154.9307 H   0  0  0  0  0  0  0  0  0  0  0  0  # atno 10763 bound_to 10752
  154.0232  135.6680  153.4778 H   0  0  0  0  0  0  0  0  0  0  0  0  # atno 10764 bound_to 10752
  153.0698  135.5067  154.8190 H   0  0  0  0  0  0  0  0  0  0  0  0  # atno 10765 bound_to 10752
  141.0880  133.6638  156.3903 H   0  0  0  0  0  0  0  0  0  0  0  0  # atno 11005 bound_to 11000
  145.1780  139.2367  143.5307 LP  0  0  0  0  0  0  0  0  0  0  0  0  # atno 17320 bound_to 7965
  146.3497  140.1546  142.8592 LP  0  0  0  0  0  0  0  0  0  0  0  0  # atno 17321 bound_to 7965
  139.5293  144.2963  152.1110 LP  0  0  0  0  0  0  0  0  0  0  0  0  # atno 17342 bound_to 10162
  140.2145  144.4529  150.6370 LP  0  0  0  0  0  0  0  0  0  0  0  0  # atno 17343 bound_to 10162
  156.0205  130.3797  150.1976 LP  0  0  0  0  0  0  0  0  0  0  0  0  # atno 17370 bound_to 10713
  157.0166  130.9967  151.3351 LP  0  0  0  0  0  0  0  0  0  0  0  0  # atno 17371 bound_to 10713
  140.5317  134.6206  157.5352 LP  0  0  0  0  0  0  0  0  0  0  0  0  # atno 17394 bound_to 11000
  139.9702  134.7306  156.0057 LP  0  0  0  0  0  0  0  0  0  0  0  0  # atno 17395 bound_to 11000

$$$$
