AV-unprocessed.smi:3291|AV-procd|sdf|12620|dock6
  -GOLD-   2272018553D 1   1.00000     0.00000
 Structure written by MMmdl.
 43 45  0  0  0  0  0  0  0  0  2 V2000
  150.7678  139.7232  156.4286 C   0  0  0  0  0  0  0  0  0  0  0  0
  149.9357  140.4087  155.3828 C   0  0  0  0  0  0  0  0  0  0  0  0
  150.2900  140.3253  154.1127 N   0  0  0  0  0  0  0  0  0  0  0  0
  149.3349  141.0551  153.4012 O   0  0  0  0  0  0  0  0  0  0  0  0
  148.4303  141.5559  154.2799 C   0  0  0  0  0  0  0  0  0  0  0  0
  147.3247  142.3657  153.6884 C   0  0  0  0  0  0  0  0  0  0  0  0
  148.7483  141.1777  155.5593 C   0  0  0  0  0  0  0  0  0  0  0  0
  148.0442  141.4751  156.8666 C   0  0  1  0  0  0  0  0  0  0  0  0
  147.2599  140.2489  157.3567 C   0  0  0  0  0  0  0  0  0  0  0  0
  149.0179  141.9880  157.9436 C   0  0  0  0  0  0  0  0  0  0  0  0
  150.1772  142.6759  157.3358 N   0  3  0  0  0  0  0  0  0  0  0  0
  151.2969  142.9626  158.2572 C   0  0  0  0  0  0  0  0  0  0  0  0
  151.6440  141.6938  159.0147 C   0  0  0  0  0  0  0  0  0  0  0  0
  152.8457  141.6309  159.9289 C   0  0  0  0  0  0  0  0  0  0  0  0
  152.8442  140.8605  158.6301 C   0  0  0  0  0  0  0  0  0  0  0  0
  150.9278  144.0844  159.2168 C   0  0  0  0  0  0  0  0  0  0  0  0
  151.2415  145.5298  158.9007 C   0  0  0  0  0  0  0  0  0  0  0  0
  151.9904  144.8208  160.0014 C   0  0  0  0  0  0  0  0  0  0  0  0
  151.1823  140.4467  157.1308 H   0  0  0  0  0  0  0  0  0  0  0  0
  151.6014  139.1749  155.9884 H   0  0  0  0  0  0  0  0  0  0  0  0
  150.1700  139.0116  156.9981 H   0  0  0  0  0  0  0  0  0  0  0  0
  147.0988  143.2341  154.3061 H   0  0  0  0  0  0  0  0  0  0  0  0
  146.4175  141.7695  153.5958 H   0  0  0  0  0  0  0  0  0  0  0  0
  147.5919  142.7256  152.6947 H   0  0  0  0  0  0  0  0  0  0  0  0
  147.3091  142.2650  156.7075 H   0  0  0  0  0  0  0  0  0  0  0  0
  146.5312  139.9282  156.6116 H   0  0  0  0  0  0  0  0  0  0  0  0
  146.7135  140.4730  158.2731 H   0  0  0  0  0  0  0  0  0  0  0  0
  147.9171  139.4042  157.5632 H   0  0  0  0  0  0  0  0  0  0  0  0
  148.5049  142.6860  158.6065 H   0  0  0  0  0  0  0  0  0  0  0  0
  149.3572  141.1600  158.5638 H   0  0  0  0  0  0  0  0  0  0  0  0
  150.5250  142.1168  156.5698 H   0  0  0  0  0  0  0  0  0  0  0  0
  152.1698  143.2623  157.6743 H   0  0  0  0  0  0  0  0  0  0  0  0
  150.7718  141.1378  159.3549 H   0  0  0  0  0  0  0  0  0  0  0  0
  153.4940  142.5028  159.9870 H   0  0  0  0  0  0  0  0  0  0  0  0
  152.7449  141.0630  160.8517 H   0  0  0  0  0  0  0  0  0  0  0  0
  152.7439  139.7784  158.6876 H   0  0  0  0  0  0  0  0  0  0  0  0
  153.4846  141.2277  157.8305 H   0  0  0  0  0  0  0  0  0  0  0  0
  149.9998  143.9050  159.7576 H   0  0  0  0  0  0  0  0  0  0  0  0
  151.7868  145.7445  157.9837 H   0  0  0  0  0  0  0  0  0  0  0  0
  150.5058  146.2770  159.1910 H   0  0  0  0  0  0  0  0  0  0  0  0
  151.7561  145.0967  161.0275 H   0  0  0  0  0  0  0  0  0  0  0  0
  153.0334  144.5760  159.8121 H   0  0  0  0  0  0  0  0  0  0  0  0
  149.8475  143.5555  156.9645 H   0  0  0  0  0  0  0  0  0  0  0  0
  1  2  1  0  0  0  0
  1 19  1  0  0  0  0
  1 20  1  0  0  0  0
  1 21  1  0  0  0  0
  2  7  1  0  0  0  0
  2  3  2  0  0  0  0
  3  4  1  0  0  0  0
  4  5  1  0  0  0  0
  5  6  1  0  0  0  0
  5  7  2  0  0  0  0
  6 22  1  0  0  0  0
  6 23  1  0  0  0  0
  6 24  1  0  0  0  0
  7  8  1  0  0  0  0
  8  9  1  0  0  0  0
  8 10  1  0  0  0  0
  8 25  1  0  0  0  0
  9 26  1  0  0  0  0
  9 27  1  0  0  0  0
  9 28  1  0  0  0  0
 10 11  1  0  0  0  0
 10 29  1  0  0  0  0
 10 30  1  0  0  0  0
 11 12  1  0  0  0  0
 11 31  1  0  0  0  0
 11 43  1  0  0  0  0
 12 13  1  0  0  0  0
 12 16  1  0  0  0  0
 12 32  1  0  0  0  0
 13 15  1  0  0  0  0
 13 14  1  0  0  0  0
 13 33  1  0  0  0  0
 14 15  1  0  0  0  0
 14 34  1  0  0  0  0
 14 35  1  0  0  0  0
 15 36  1  0  0  0  0
 15 37  1  0  0  0  0
 16 18  1  0  0  0  0
 16 17  1  0  0  0  0
 16 38  1  0  0  0  0
 17 18  1  0  0  0  0
 17 39  1  0  0  0  0
 17 40  1  0  0  0  0
 18 41  1  0  0  0  0
 18 42  1  0  0  0  0
M  CHG  1  11   1
M  END
> <s_m_source_file>
AV-unprocessed.smi

> <i_m_source_file_index>
3291

> <i_lp_mmshare_version>
43012

> <i_f3d_flags>
0

> <s_epik_input>
W0NIM11jMW5vYyhbQ0gzXSljMVtDQEhdKFtDSDNdKVtDSDJdW05IXVtDSF0oW0NIXTJbQ0gyXVtDSDJdMilbQ0hdM1tDSDJdW0NIMl0z

> <s_epik_cmdline>
J2VwaWtfcHl0aG9uJywgJy1waCcsICc3LjAnLCAnLXRuJywgJzgnLCAnLW1hJywgJzIwMCcsICctbWV0YWxfYmluZGluZycsICctaW1hZScsICc8aW5maWxlLm1hZT4nLCAnLW9tYWUnLCAnPG91dGZpbGUubWFlPic=

> <r_lp_tautomer_probability>
1

> <r_epik_Ionization_Penalty>
0.000158108

> <r_epik_Ionization_Penalty_Charging>
0.000158108

> <r_epik_Ionization_Penalty_Neutral>
1.14678e-10

> <r_epik_State_Penalty>
-0

> <r_epik_Charging_Adjusted_Penalty>
0.000158108

> <i_epik_Tot_Q>
1

> <i_epik_Tot_abs_Q>
1

> <r_epik_Metal_State_Penalty>
-0

> <b_epik_Metal_Only>
0

> <s_lp_Force_Field>
OPLS_2005

> <r_lp_Energy>
24.4944

> <b_lp_Chiralities_Consistent>
1

> <s_lp_Variant>
AV-unprocessed.smi:3291-2

> <Gold.Version>
5.8.1

> <Gold.Id.Protein>
6NUR|6NUR_protein|mol2

> <Gold.PLP.Fitness>
42.0789

> <Gold.PLP.PLP>
-33.1003

> <Gold.PLP.part.hbond>
-4.0000

> <Gold.PLP.part.metal>
0.0000

> <Gold.PLP.part.buried>
-5.9311

> <Gold.PLP.part.nonpolar>
-26.5719

> <Gold.PLP.part.repulsive>
4.3124

> <Gold.PLP.ligand.clash>
0.7969

> <Gold.PLP.ligand.torsion>
1.9629

> <Gold.PLP.Chemscore.Hbond>
3.8320

> <Gold.PLP.Chemscore.CHOScore>
0.0000

> <Gold.PLP.Chemscore.Metal>
0.0000

> <Gold.Chemscore.Hbonds>
donor molecule, donor type, donor heavy atom, donor atom, acceptor molecule, acceptor atom, score
      L1  H    11    43       P1  8028  2.00
      P1  H  7989  7998       L1     3  0.93
      P1  H  8011  8017       L1     4  1.00

> <Gold.PLP.Chemscore.Internal.Correction>
2.2054

> <Gold.Rescore>
     Score         DG    S(hbond)    S(metal)    S(lipo)     H(rot)  DE(clash)    DE(int)     intcor
     16.26     -20.43       2.02        0.00     102.90       1.50       1.74       2.43       ----

> <Gold.Chemscore.Fitness>
16.2586

> <Gold.Chemscore.DG>
-20.4261

> <Gold.Chemscore.ZeroCoef>
-5.4800

> <Gold.Chemscore.Hbond>
2.0210

> <Gold.Chemscore.Metal>
0.0000

> <Gold.Chemscore.Lipo>
102.9033

> <Gold.Chemscore.Internal_Hbond>
0.0000

> <Gold.Chemscore.DEClash>
1.7356

> <Gold.Chemscore.DEInternal>
2.4319

> <Gold.Chemscore.Rot>
1.5015

> <Gold.Chemscore.Internal.Correction>
   9.000000E+99

> <Gold.Chemscore.Hbonds>
donor molecule, donor type, donor heavy atom, donor atom, acceptor molecule, acceptor atom, score
      L1  H    11    43       P1  8028  0.95
      P1  H  7989  7998       L1     3  0.26
      P1  H  8011  8017       L1     4  0.54

> <Gold.Chemscore.Hbond.Weighted>
-6.7502

> <Gold.Chemscore.Metal.Weighted>
-0.0000

> <Gold.Chemscore.Lipo.Weighted>
-12.0397

> <Gold.Chemscore.Internal_Hbond.Weighted>
0.0000

> <Gold.Chemscore.DEClash.Weighted>
1.7356

> <Gold.Chemscore.DEInternal.Weighted>
2.4319

> <Gold.Chemscore.Rot.Weighted>
3.8438

> <Gold.Chemscore.Internal.Correction.Weighted>
   9.000000E+99

> <Gold.Protein.RotatedTorsions>
[ 6907 6896 6895 6894 ] final -169.16 input  -60.11 | X-H torsion
[ 7974 7965 7964 7962 ] final -140.34 input  175.53 | X-H torsion
[ 8008 7997 7996 7995 ] final  -42.16 input   59.86 | X-H torsion
[ 10167 10162 10161 10158 ] final  -95.59 input  -65.29 | X-H torsion
[ 10718 10713 10712 10709 ] final   26.24 input   66.30 | X-H torsion
[ 10763 10752 10751 10750 ] final -120.04 input  -60.55 | X-H torsion
[ 11005 11000 10999 10996 ] final -108.99 input  -57.11 | X-H torsion

> <Gold.Protein.ActiveResidues>
 VAL166  LYS551  ARG553  GLY616  TRP617  ASP618  TYR619  PRO620  LYS621  CYS622 
 ASP623  PHE694  ASN695  SER759  ASP760  ASP761  ALA762  ILE779  LEU786  VAL792 
 PHE793  MET794  SER795  GLU796  ALA797  LYS798  CYS799  TRP800  GLU811  SER814 

> <Gold.Protein.RotatedAtoms>
  151.4872  133.3533  159.2847 H   0  0  0  0  0  0  0  0  0  0  0  0  # atno 6907 bound_to 6896
  150.8858  134.8258  159.7269 H   0  0  0  0  0  0  0  0  0  0  0  0  # atno 6908 bound_to 6896
  152.4792  134.4775  159.9707 H   0  0  0  0  0  0  0  0  0  0  0  0  # atno 6909 bound_to 6896
  144.8605  140.6212  143.5331 H   0  0  0  0  0  0  0  0  0  0  0  0  # atno 7974 bound_to 7965
  154.4000  140.1480  156.3310 H   0  0  0  0  0  0  0  0  0  0  0  0  # atno 8008 bound_to 7997
  155.8443  140.3460  155.5631 H   0  0  0  0  0  0  0  0  0  0  0  0  # atno 8009 bound_to 7997
  155.8053  140.0876  157.1925 H   0  0  0  0  0  0  0  0  0  0  0  0  # atno 8010 bound_to 7997
  140.3026  143.3153  152.0232 H   0  0  0  0  0  0  0  0  0  0  0  0  # atno 10167 bound_to 10162
  157.2042  130.6904  149.6201 H   0  0  0  0  0  0  0  0  0  0  0  0  # atno 10718 bound_to 10713
  154.8634  135.4217  154.2396 H   0  0  0  0  0  0  0  0  0  0  0  0  # atno 10763 bound_to 10752
  153.3364  135.6991  153.6909 H   0  0  0  0  0  0  0  0  0  0  0  0  # atno 10764 bound_to 10752
  153.5905  135.3555  155.2882 H   0  0  0  0  0  0  0  0  0  0  0  0  # atno 10765 bound_to 10752
  141.0872  133.9119  157.2159 H   0  0  0  0  0  0  0  0  0  0  0  0  # atno 11005 bound_to 11000
  145.4321  139.1547  143.4016 LP  0  0  0  0  0  0  0  0  0  0  0  0  # atno 17320 bound_to 7965
  146.2857  140.4438  142.8759 LP  0  0  0  0  0  0  0  0  0  0  0  0  # atno 17321 bound_to 7965
  139.4911  144.6444  151.6809 LP  0  0  0  0  0  0  0  0  0  0  0  0  # atno 17342 bound_to 10162
  140.5638  144.0225  150.6182 LP  0  0  0  0  0  0  0  0  0  0  0  0  # atno 17343 bound_to 10162
  155.9697  130.4572  150.5955 LP  0  0  0  0  0  0  0  0  0  0  0  0  # atno 17370 bound_to 10713
  157.3737  131.0769  151.1536 LP  0  0  0  0  0  0  0  0  0  0  0  0  # atno 17371 bound_to 10713
  139.9692  135.0133  156.9467 LP  0  0  0  0  0  0  0  0  0  0  0  0  # atno 17394 bound_to 11000
  140.5336  134.0789  155.7322 LP  0  0  0  0  0  0  0  0  0  0  0  0  # atno 17395 bound_to 11000

$$$$
