AV-unprocessed.smi:101|AV-procd|sdf|917|dock6
  -GOLD-   2262017423D 1   1.00000     0.00000
 Structure written by MMmdl.
 44 46  0  0  0  0  0  0  0  0  1 V2000
  149.0462  135.3277  157.7207 C   0  0  0  0  0  0  0  0  0  0  0  0
  148.3339  136.0158  156.5671 C   0  0  0  0  0  0  0  0  0  0  0  0
  148.8921  137.0436  155.8780 C   0  0  0  0  0  0  0  0  0  0  0  0
  148.2667  137.6990  154.8211 N   0  0  0  0  0  0  0  0  0  0  0  0
  148.9329  138.8226  154.0412 C   0  0  2  0  0  0  0  0  0  0  0  0
  150.2159  139.0424  154.5392 O   0  0  0  0  0  0  0  0  0  0  0  0
  150.1516  140.0434  155.5444 C   0  0  1  0  0  0  0  0  0  0  0  0
  151.5588  140.5668  155.8421 C   0  0  0  0  0  0  0  0  0  0  0  0
  151.5440  141.1100  157.1515 O   0  0  0  0  0  0  0  0  0  0  0  0
  152.4318  140.6978  158.0729 C   0  0  0  0  0  0  0  0  0  0  0  0
  153.0942  139.6638  157.9690 O   0  0  0  0  0  0  0  0  0  0  0  0
  152.5260  141.6272  159.2360 C   0  0  0  0  0  0  0  0  0  0  0  0
  153.1404  141.1838  160.4303 C   0  0  0  0  0  0  0  0  0  0  0  0
  153.2419  142.0390  161.5447 C   0  0  0  0  0  0  0  0  0  0  0  0
  152.7305  143.3482  161.4786 C   0  0  0  0  0  0  0  0  0  0  0  0
  152.1168  143.8014  160.2963 C   0  0  0  0  0  0  0  0  0  0  0  0
  152.0140  142.9478  159.1808 C   0  0  0  0  0  0  0  0  0  0  0  0
  149.2052  141.0586  154.9097 C   0  0  2  0  0  0  0  0  0  0  0  0
  148.5897  141.8479  155.9078 O   0  0  0  0  0  0  0  0  0  0  0  0
  148.1796  140.1666  154.2089 C   0  0  1  0  0  0  0  0  0  0  0  0
  147.8168  140.7240  152.9621 O   0  0  0  0  0  0  0  0  0  0  0  0
  147.0067  137.2384  154.3838 C   0  0  0  0  0  0  0  0  0  0  0  0
  146.4199  137.7228  153.4167 O   0  0  0  0  0  0  0  0  0  0  0  0
  146.4297  136.1883  155.0951 N   0  0  0  0  0  0  0  0  0  0  0  0
  147.0042  135.5332  156.1863 C   0  0  0  0  0  0  0  0  0  0  0  0
  146.3917  134.6209  156.7386 O   0  0  0  0  0  0  0  0  0  0  0  0
  145.5220  135.8675  154.7906 H   0  0  0  0  0  0  0  0  0  0  0  0
  150.0258  135.7665  157.9144 H   0  0  0  0  0  0  0  0  0  0  0  0
  149.1921  134.2695  157.5014 H   0  0  0  0  0  0  0  0  0  0  0  0
  148.4579  135.4106  158.6354 H   0  0  0  0  0  0  0  0  0  0  0  0
  149.8817  137.3480  156.1833 H   0  0  0  0  0  0  0  0  0  0  0  0
  148.9891  138.4531  153.0151 H   0  0  0  0  0  0  0  0  0  0  0  0
  149.7002  139.6343  156.4507 H   0  0  0  0  0  0  0  0  0  0  0  0
  152.2961  139.7674  155.7552 H   0  0  0  0  0  0  0  0  0  0  0  0
  151.8280  141.3508  155.1334 H   0  0  0  0  0  0  0  0  0  0  0  0
  153.5399  140.1824  160.5049 H   0  0  0  0  0  0  0  0  0  0  0  0
  153.7131  141.6891  162.4515 H   0  0  0  0  0  0  0  0  0  0  0  0
  152.8091  144.0037  162.3332 H   0  0  0  0  0  0  0  0  0  0  0  0
  151.7239  144.8061  160.2438 H   0  0  0  0  0  0  0  0  0  0  0  0
  151.5368  143.3282  158.2892 H   0  0  0  0  0  0  0  0  0  0  0  0
  149.7441  141.6845  154.1962 H   0  0  0  0  0  0  0  0  0  0  0  0
  149.0852  142.6472  156.0037 H   0  0  0  0  0  0  0  0  0  0  0  0
  147.2910  140.0283  154.8266 H   0  0  0  0  0  0  0  0  0  0  0  0
  148.5029  140.5325  152.3404 H   0  0  0  0  0  0  0  0  0  0  0  0
  1  2  1  0  0  0  0
  1 28  1  0  0  0  0
  1 29  1  0  0  0  0
  1 30  1  0  0  0  0
  2 25  1  0  0  0  0
  2  3  2  0  0  0  0
  3  4  1  0  0  0  0
  3 31  1  0  0  0  0
  4  5  1  0  0  0  0
  4 22  1  0  0  0  0
  5 20  1  0  0  0  0
  5  6  1  0  0  0  0
  5 32  1  0  0  0  0
  6  7  1  0  0  0  0
  7  8  1  0  0  0  0
  7 18  1  0  0  0  0
  7 33  1  0  0  0  0
  8  9  1  0  0  0  0
  8 34  1  0  0  0  0
  8 35  1  0  0  0  0
  9 10  1  0  0  0  0
 10 11  2  0  0  0  0
 10 12  1  0  0  0  0
 12 17  1  0  0  0  0
 12 13  2  0  0  0  0
 13 14  1  0  0  0  0
 13 36  1  0  0  0  0
 14 15  2  0  0  0  0
 14 37  1  0  0  0  0
 15 16  1  0  0  0  0
 15 38  1  0  0  0  0
 16 17  2  0  0  0  0
 16 39  1  0  0  0  0
 17 40  1  0  0  0  0
 18 19  1  0  0  0  0
 18 20  1  0  0  0  0
 18 41  1  0  0  0  0
 19 42  1  0  0  0  0
 20 21  1  0  0  0  0
 20 43  1  0  0  0  0
 21 44  1  0  0  0  0
 22 23  2  0  0  0  0
 22 24  1  0  0  0  0
 24 27  1  0  0  0  0
 24 25  1  0  0  0  0
 25 26  2  0  0  0  0
M  END
> <s_m_source_file>
AV-unprocessed.smi

> <i_m_source_file_index>
101

> <i_lp_mmshare_version>
43012

> <i_f3d_flags>
0

> <s_epik_input>
Tz1jMVtuSF1jKD1PKW4oW2NIXWMxW0NIM10pW0NAQEhdMk9bQ0BIXShbQ0BASF0oW09IXSlbQ0BIXTJbT0hdKVtDSDJdT0MoPU8pYzNbY0hdW2NIXVtjSF1bY0hdW2NIXTM=

> <s_epik_cmdline>
J2VwaWtfcHl0aG9uJywgJy1waCcsICc3LjAnLCAnLXRuJywgJzgnLCAnLW1hJywgJzIwMCcsICctbWV0YWxfYmluZGluZycsICctaW1hZScsICc8aW5maWxlLm1hZT4nLCAnLW9tYWUnLCAnPG91dGZpbGUubWFlPic=

> <r_lp_tautomer_probability>
0.999537

> <r_epik_Ionization_Penalty>
0.00263537

> <r_epik_Ionization_Penalty_Charging>
0.00263428

> <r_epik_Ionization_Penalty_Neutral>
1.09111e-06

> <r_epik_State_Penalty>
0.00183335

> <r_epik_Charging_Adjusted_Penalty>
0.00446763

> <i_epik_Tot_Q>
0

> <i_epik_Tot_abs_Q>
0

> <r_epik_Metal_State_Penalty>
1.00528

> <b_epik_Metal_Only>
0

> <s_epik_Chemistry_Notes>
This compound has an ester and may undergo hydrolysis at high or low pH. This compound contains an acetal/aminal-like group ( X-CH(R)-Y where X, Y are N, S, or O) that may be acid/base labile, releasing an aldehyde.

> <s_lp_Force_Field>
OPLS_2005

> <r_lp_Energy>
27.5612

> <b_lp_Chiralities_Consistent>
1

> <s_lp_Variant>
AV-unprocessed.smi:101-5

> <Gold.Version>
5.8.1

> <Gold.Id.Protein>
6NUR|6NUR_protein|mol2

> <Gold.PLP.Fitness>
46.3556

> <Gold.PLP.PLP>
-39.4566

> <Gold.PLP.part.hbond>
-3.0000

> <Gold.PLP.part.metal>
0.0000

> <Gold.PLP.part.buried>
-5.1451

> <Gold.PLP.part.nonpolar>
-31.1290

> <Gold.PLP.part.repulsive>
0.3438

> <Gold.PLP.ligand.clash>
0.0000

> <Gold.PLP.ligand.torsion>
1.0702

> <Gold.PLP.Chemscore.Hbond>
2.9920

> <Gold.PLP.Chemscore.CHOScore>
0.0000

> <Gold.PLP.Chemscore.Metal>
0.0000

> <Gold.Chemscore.Hbonds>
donor molecule, donor type, donor heavy atom, donor atom, acceptor molecule, acceptor atom, score
      L1  H    19    42       P1  8028  0.62
      L1  H    21    44       P1  7957  1.00
      P1  H  7997  8010       L1    11  1.00

> <Gold.PLP.Chemscore.Internal.Correction>
0.0635

> <Gold.Rescore>
     Score         DG    S(hbond)    S(metal)    S(lipo)     H(rot)  DE(clash)    DE(int)     intcor
     16.87     -18.32       2.93        0.00      98.63       3.32       0.15       1.30       ----

> <Gold.Chemscore.Fitness>
16.8704

> <Gold.Chemscore.DG>
-18.3242

> <Gold.Chemscore.ZeroCoef>
-5.4800

> <Gold.Chemscore.Hbond>
2.9332

> <Gold.Chemscore.Metal>
0.0000

> <Gold.Chemscore.Lipo>
98.6275

> <Gold.Chemscore.Internal_Hbond>
0.0000

> <Gold.Chemscore.DEClash>
0.1536

> <Gold.Chemscore.DEInternal>
1.3001

> <Gold.Chemscore.Rot>
3.3172

> <Gold.Chemscore.Internal.Correction>
   9.000000E+99

> <Gold.Chemscore.Hbonds>
donor molecule, donor type, donor heavy atom, donor atom, acceptor molecule, acceptor atom, score
      L1  H    19    42       P1  8028  0.61
      L1  H    21    44       P1  7957  1.00
      P1  H  7997  8010       L1    11  0.60

> <Gold.Chemscore.Hbond.Weighted>
-9.7968

> <Gold.Chemscore.Metal.Weighted>
-0.0000

> <Gold.Chemscore.Lipo.Weighted>
-11.5394

> <Gold.Chemscore.Internal_Hbond.Weighted>
0.0000

> <Gold.Chemscore.DEClash.Weighted>
0.1536

> <Gold.Chemscore.DEInternal.Weighted>
1.3001

> <Gold.Chemscore.Rot.Weighted>
8.4920

> <Gold.Chemscore.Internal.Correction.Weighted>
   9.000000E+99

> <Gold.Protein.RotatedTorsions>
[ 6907 6896 6895 6894 ] final   28.48 input  -60.11 | X-H torsion
[ 7974 7965 7964 7962 ] final -154.11 input  175.53 | X-H torsion
[ 8008 7997 7996 7995 ] final   42.20 input   59.86 | X-H torsion
[ 10167 10162 10161 10158 ] final  -84.47 input  -65.29 | X-H torsion
[ 10718 10713 10712 10709 ] final   52.85 input   66.30 | X-H torsion
[ 10763 10752 10751 10750 ] final -141.86 input  -60.55 | X-H torsion
[ 11005 11000 10999 10996 ] final   84.18 input  -57.11 | X-H torsion

> <Gold.Protein.ActiveResidues>
 VAL166  LYS551  ARG553  GLY616  TRP617  ASP618  TYR619  PRO620  LYS621  CYS622 
 ASP623  PHE694  ASN695  SER759  ASP760  ASP761  ALA762  ILE779  LEU786  VAL792 
 PHE793  MET794  SER795  GLU796  ALA797  LYS798  CYS799  TRP800  GLU811  SER814 

> <Gold.Protein.RotatedAtoms>
  152.0176  134.9841  160.0569 H   0  0  0  0  0  0  0  0  0  0  0  0  # atno 6907 bound_to 6896
  152.1368  133.4435  159.4756 H   0  0  0  0  0  0  0  0  0  0  0  0  # atno 6908 bound_to 6896
  150.6861  134.2272  159.4463 H   0  0  0  0  0  0  0  0  0  0  0  0  # atno 6909 bound_to 6896
  144.7706  140.4433  143.5910 H   0  0  0  0  0  0  0  0  0  0  0  0  # atno 7974 bound_to 7965
  155.2822  140.3373  155.4257 H   0  0  0  0  0  0  0  0  0  0  0  0  # atno 8008 bound_to 7997
  156.2084  140.1760  156.7789 H   0  0  0  0  0  0  0  0  0  0  0  0  # atno 8009 bound_to 7997
  154.5653  140.0680  156.8866 H   0  0  0  0  0  0  0  0  0  0  0  0  # atno 8010 bound_to 7997
  140.4130  143.2615  151.8993 H   0  0  0  0  0  0  0  0  0  0  0  0  # atno 10167 bound_to 10162
  157.5113  130.8502  149.8438 H   0  0  0  0  0  0  0  0  0  0  0  0  # atno 10718 bound_to 10713
  154.8530  135.3512  154.5936 H   0  0  0  0  0  0  0  0  0  0  0  0  # atno 10763 bound_to 10752
  153.6545  135.6992  153.5202 H   0  0  0  0  0  0  0  0  0  0  0  0  # atno 10764 bound_to 10752
  153.2867  135.4247  155.1087 H   0  0  0  0  0  0  0  0  0  0  0  0  # atno 10765 bound_to 10752
  139.9008  134.8198  156.2409 H   0  0  0  0  0  0  0  0  0  0  0  0  # atno 11005 bound_to 11000
  145.6336  139.1540  143.2955 LP  0  0  0  0  0  0  0  0  0  0  0  0  # atno 17320 bound_to 7965
  146.1849  140.6437  142.9172 LP  0  0  0  0  0  0  0  0  0  0  0  0  # atno 17321 bound_to 7965
  139.4782  144.5517  151.8375 LP  0  0  0  0  0  0  0  0  0  0  0  0  # atno 17342 bound_to 10162
  140.4617  144.1712  150.5907 LP  0  0  0  0  0  0  0  0  0  0  0  0  # atno 17343 bound_to 10162
  156.0291  130.3770  150.1739 LP  0  0  0  0  0  0  0  0  0  0  0  0  # atno 17370 bound_to 10713
  156.9929  130.9899  151.3410 LP  0  0  0  0  0  0  0  0  0  0  0  0  # atno 17371 bound_to 10713
  141.0285  133.7002  156.1389 LP  0  0  0  0  0  0  0  0  0  0  0  0  # atno 17394 bound_to 11000
  140.7131  134.4440  157.5580 LP  0  0  0  0  0  0  0  0  0  0  0  0  # atno 17395 bound_to 11000

$$$$
