AV-unprocessed.smi:1057|AV-procd|sdf|4650|dock3
  -GOLD-   22720 3153D 1   1.00000     0.00000
 Structure written by MMmdl.
 44 45  0  0  0  0  0  0  0  0  1 V2000
  147.1862  141.1933  153.4131 C   0  0  0  0  0  0  0  0  0  0  0  0
  148.2574  140.9865  153.9617 C   0  0  0  0  0  0  0  0  0  0  0  0
  149.5452  140.7533  154.6371 C   0  0  0  0  0  0  0  0  0  0  0  0
  149.7067  139.3726  155.0778 N   0  0  0  0  0  0  0  0  0  0  0  0
  150.8068  138.6181  154.9049 C   0  0  0  0  0  0  0  0  0  0  0  0
  151.8168  139.0340  154.3387 O   0  0  0  0  0  0  0  0  0  0  0  0
  150.7898  137.1735  155.4309 C   0  0  0  0  0  0  0  0  0  0  0  0
  150.0845  136.2211  154.5731 N   0  0  0  0  0  0  0  0  0  0  0  0
  150.0169  134.8975  154.7772 C   0  0  0  0  0  0  0  0  0  0  0  0
  150.5799  134.3212  155.7078 O   0  0  0  0  0  0  0  0  0  0  0  0
  149.2360  134.3061  153.8592 N   0  0  0  0  0  0  0  0  0  0  0  0
  148.8589  132.9365  153.7863 C   0  0  0  0  0  0  0  0  0  0  0  0
  149.6142  131.9024  154.3893 C   0  0  0  0  0  0  0  0  0  0  0  0
  149.1842  130.5702  154.2476 C   0  0  0  0  0  0  0  0  0  0  0  0
  148.0188  130.3184  153.5008 C   0  0  0  0  0  0  0  0  0  0  0  0
  147.2957  131.2913  152.9088 N   0  0  0  0  0  0  0  0  0  0  0  0
  147.7069  132.5750  153.0432 C   0  0  0  0  0  0  0  0  0  0  0  0
  146.9351  133.5683  152.4185 N   0  0  0  0  0  0  0  0  0  0  0  0
  146.0700  133.0570  151.3596 C   0  0  0  0  0  0  0  0  0  0  0  0
  145.4528  134.2160  150.5579 C   0  0  0  0  0  0  0  0  0  0  0  0
  144.7279  135.2028  151.4881 C   0  0  0  0  0  0  0  0  0  0  0  0
  145.6742  135.6793  152.6027 C   0  0  0  0  0  0  0  0  0  0  0  0
  146.2846  134.4830  153.3529 C   0  0  0  0  0  0  0  0  0  0  0  0
  146.2484  141.3779  152.9390 H   0  0  0  0  0  0  0  0  0  0  0  0
  150.3519  141.0521  153.9664 H   0  0  0  0  0  0  0  0  0  0  0  0
  149.5917  141.4081  155.5074 H   0  0  0  0  0  0  0  0  0  0  0  0
  148.9220  138.9549  155.5563 H   0  0  0  0  0  0  0  0  0  0  0  0
  151.8213  136.8351  155.5299 H   0  0  0  0  0  0  0  0  0  0  0  0
  150.3663  137.1647  156.4367 H   0  0  0  0  0  0  0  0  0  0  0  0
  149.5891  136.6060  153.7823 H   0  0  0  0  0  0  0  0  0  0  0  0
  148.7616  134.9199  153.2132 H   0  0  0  0  0  0  0  0  0  0  0  0
  150.5183  132.1083  154.9418 H   0  0  0  0  0  0  0  0  0  0  0  0
  149.7382  129.7595  154.6969 H   0  0  0  0  0  0  0  0  0  0  0  0
  147.6601  129.3082  153.3708 H   0  0  0  0  0  0  0  0  0  0  0  0
  146.6435  132.4084  150.6957 H   0  0  0  0  0  0  0  0  0  0  0  0
  145.2797  132.4471  151.7993 H   0  0  0  0  0  0  0  0  0  0  0  0
  146.2387  134.7399  150.0120 H   0  0  0  0  0  0  0  0  0  0  0  0
  144.7615  133.8271  149.8099 H   0  0  0  0  0  0  0  0  0  0  0  0
  144.3555  136.0549  150.9188 H   0  0  0  0  0  0  0  0  0  0  0  0
  143.8572  134.7169  151.9300 H   0  0  0  0  0  0  0  0  0  0  0  0
  146.4727  136.2838  152.1704 H   0  0  0  0  0  0  0  0  0  0  0  0
  145.1393  136.3244  153.2999 H   0  0  0  0  0  0  0  0  0  0  0  0
  145.5046  133.9512  153.8996 H   0  0  0  0  0  0  0  0  0  0  0  0
  147.0088  134.8352  154.0889 H   0  0  0  0  0  0  0  0  0  0  0  0
  1  2  3  0  0  0  0
  1 24  1  0  0  0  0
  2  3  1  0  0  0  0
  3  4  1  0  0  0  0
  3 25  1  0  0  0  0
  3 26  1  0  0  0  0
  4  5  1  0  0  0  0
  4 27  1  0  0  0  0
  5  6  2  0  0  0  0
  5  7  1  0  0  0  0
  7  8  1  0  0  0  0
  7 28  1  0  0  0  0
  7 29  1  0  0  0  0
  8  9  1  0  0  0  0
  8 30  1  0  0  0  0
  9 10  2  0  0  0  0
  9 11  1  0  0  0  0
 11 12  1  0  0  0  0
 11 31  1  0  0  0  0
 12 17  1  0  0  0  0
 12 13  2  0  0  0  0
 13 14  1  0  0  0  0
 13 32  1  0  0  0  0
 14 15  2  0  0  0  0
 14 33  1  0  0  0  0
 15 16  1  0  0  0  0
 15 34  1  0  0  0  0
 16 17  2  0  0  0  0
 17 18  1  0  0  0  0
 18 23  1  0  0  0  0
 18 19  1  0  0  0  0
 19 20  1  0  0  0  0
 19 35  1  0  0  0  0
 19 36  1  0  0  0  0
 20 21  1  0  0  0  0
 20 37  1  0  0  0  0
 20 38  1  0  0  0  0
 21 22  1  0  0  0  0
 21 39  1  0  0  0  0
 21 40  1  0  0  0  0
 22 23  1  0  0  0  0
 22 41  1  0  0  0  0
 22 42  1  0  0  0  0
 23 43  1  0  0  0  0
 23 44  1  0  0  0  0
M  END
> <s_m_source_file>
AV-unprocessed.smi

> <i_m_source_file_index>
1057

> <i_lp_mmshare_version>
43012

> <i_f3d_flags>
0

> <s_epik_input>
W0NIXSNDW0NIMl1bTkhdQyg9TylbQ0gyXVtOSF1DKD1PKVtOSF1jMVtjSF1bY0hdW2NIXW5jMU4yW0NIMl1bQ0gyXVtDSDJdW0NIMl1bQ0gyXTI=

> <s_epik_cmdline>
J2VwaWtfcHl0aG9uJywgJy1waCcsICc3LjAnLCAnLXRuJywgJzgnLCAnLW1hJywgJzIwMCcsICctbWV0YWxfYmluZGluZycsICctaW1hZScsICc8aW5maWxlLm1hZT4nLCAnLW9tYWUnLCAnPG91dGZpbGUubWFlPic=

> <r_lp_tautomer_probability>
1

> <r_epik_Ionization_Penalty>
0.251144

> <r_epik_Ionization_Penalty_Charging>
0

> <r_epik_Ionization_Penalty_Neutral>
0.251144

> <r_epik_State_Penalty>
0.236346

> <r_epik_Charging_Adjusted_Penalty>
0.236346

> <i_epik_Tot_Q>
0

> <i_epik_Tot_abs_Q>
0

> <r_epik_Metal_State_Penalty>
0.166327

> <b_epik_Metal_Only>
0

> <s_lp_Force_Field>
OPLS_2005

> <r_lp_Energy>
16.5817

> <b_lp_Chiralities_Consistent>
1

> <s_lp_Variant>
AV-unprocessed.smi:1057-1

> <Gold.Version>
5.8.1

> <Gold.Id.Protein>
6NUR|6NUR_protein|mol2

> <Gold.PLP.Fitness>
44.1836

> <Gold.PLP.PLP>
-37.4207

> <Gold.PLP.part.hbond>
-3.1643

> <Gold.PLP.part.metal>
0.0000

> <Gold.PLP.part.buried>
-2.9716

> <Gold.PLP.part.nonpolar>
-32.2216

> <Gold.PLP.part.repulsive>
0.6426

> <Gold.PLP.ligand.clash>
0.0092

> <Gold.PLP.ligand.torsion>
0.7651

> <Gold.PLP.Chemscore.Hbond>
2.6964

> <Gold.PLP.Chemscore.CHOScore>
0.0000

> <Gold.PLP.Chemscore.Metal>
0.0000

> <Gold.Chemscore.Hbonds>
donor molecule, donor type, donor heavy atom, donor atom, acceptor molecule, acceptor atom, score
      L1  H     8    30       P1  7948  0.88
      L1  H    11    31       P1  7948  0.90
      P1  H  7989  7998       L1     6  0.93

> <Gold.PLP.Chemscore.Internal.Correction>
0.2130

> <Gold.Rescore>
     Score         DG    S(hbond)    S(metal)    S(lipo)     H(rot)  DE(clash)    DE(int)     intcor
     13.72     -16.75       2.25        0.00      71.19       1.79       0.13       2.90       ----

> <Gold.Chemscore.Fitness>
13.7215

> <Gold.Chemscore.DG>
-16.7517

> <Gold.Chemscore.ZeroCoef>
-5.4800

> <Gold.Chemscore.Hbond>
2.2498

> <Gold.Chemscore.Metal>
0.0000

> <Gold.Chemscore.Lipo>
71.1921

> <Gold.Chemscore.Internal_Hbond>
0.0000

> <Gold.Chemscore.DEClash>
0.1301

> <Gold.Chemscore.DEInternal>
2.9001

> <Gold.Chemscore.Rot>
1.7860

> <Gold.Chemscore.Internal.Correction>
   9.000000E+99

> <Gold.Chemscore.Hbonds>
donor molecule, donor type, donor heavy atom, donor atom, acceptor molecule, acceptor atom, score
      L1  H     8    30       P1  7948  0.60
      L1  H    11    31       P1  7948  0.35
      P1  H  7989  7998       L1     6  0.80

> <Gold.Chemscore.Hbond.Weighted>
-7.5143

> <Gold.Chemscore.Metal.Weighted>
-0.0000

> <Gold.Chemscore.Lipo.Weighted>
-8.3295

> <Gold.Chemscore.Internal_Hbond.Weighted>
0.0000

> <Gold.Chemscore.DEClash.Weighted>
0.1301

> <Gold.Chemscore.DEInternal.Weighted>
2.9001

> <Gold.Chemscore.Rot.Weighted>
4.5721

> <Gold.Chemscore.Internal.Correction.Weighted>
   9.000000E+99

> <Gold.Protein.RotatedTorsions>
[ 6907 6896 6895 6894 ] final -145.30 input  -60.11 | X-H torsion
[ 7974 7965 7964 7962 ] final  -38.99 input  175.53 | X-H torsion
[ 8008 7997 7996 7995 ] final  132.45 input   59.86 | X-H torsion
[ 10167 10162 10161 10158 ] final  162.83 input  -65.29 | X-H torsion
[ 10718 10713 10712 10709 ] final  -82.56 input   66.30 | X-H torsion
[ 10763 10752 10751 10750 ] final  158.47 input  -60.55 | X-H torsion
[ 11005 11000 10999 10996 ] final -106.73 input  -57.11 | X-H torsion

> <Gold.Protein.ActiveResidues>
 VAL166  LYS551  ARG553  GLY616  TRP617  ASP618  TYR619  PRO620  LYS621  CYS622 
 ASP623  PHE694  ASN695  SER759  ASP760  ASP761  ALA762  ILE779  LEU786  VAL792 
 PHE793  MET794  SER795  GLU796  ALA797  LYS798  CYS799  TRP800  GLU811  SER814 

> <Gold.Protein.RotatedAtoms>
  151.1259  133.5071  159.2600 H   0  0  0  0  0  0  0  0  0  0  0  0  # atno 6907 bound_to 6896
  151.1811  135.0361  159.8802 H   0  0  0  0  0  0  0  0  0  0  0  0  # atno 6908 bound_to 6896
  152.5458  134.1111  159.8412 H   0  0  0  0  0  0  0  0  0  0  0  0  # atno 6909 bound_to 6896
  146.0437  140.6575  142.9075 H   0  0  0  0  0  0  0  0  0  0  0  0  # atno 7974 bound_to 7965
  156.2982  140.2546  156.3091 H   0  0  0  0  0  0  0  0  0  0  0  0  # atno 8008 bound_to 7997
  154.9343  140.0397  157.2083 H   0  0  0  0  0  0  0  0  0  0  0  0  # atno 8009 bound_to 7997
  154.8188  140.2856  155.5806 H   0  0  0  0  0  0  0  0  0  0  0  0  # atno 8010 bound_to 7997
  139.4865  144.4398  151.8966 H   0  0  0  0  0  0  0  0  0  0  0  0  # atno 10167 bound_to 10162
  156.0031  130.4638  150.4124 H   0  0  0  0  0  0  0  0  0  0  0  0  # atno 10718 bound_to 10713
  154.2165  135.2784  155.2940 H   0  0  0  0  0  0  0  0  0  0  0  0  # atno 10763 bound_to 10752
  154.5736  135.5611  153.7122 H   0  0  0  0  0  0  0  0  0  0  0  0  # atno 10764 bound_to 10752
  153.0052  135.6327  154.2305 H   0  0  0  0  0  0  0  0  0  0  0  0  # atno 10765 bound_to 10752
  141.0990  133.8919  157.1891 H   0  0  0  0  0  0  0  0  0  0  0  0  # atno 11005 bound_to 11000
  144.7087  140.3954  143.7098 LP  0  0  0  0  0  0  0  0  0  0  0  0  # atno 17320 bound_to 7965
  145.6842  139.1625  143.2683 LP  0  0  0  0  0  0  0  0  0  0  0  0  # atno 17321 bound_to 7965
  140.3850  144.2688  150.5905 LP  0  0  0  0  0  0  0  0  0  0  0  0  # atno 17342 bound_to 10162
  140.5199  143.2268  151.8405 LP  0  0  0  0  0  0  0  0  0  0  0  0  # atno 17343 bound_to 10162
  157.2186  131.0477  151.2559 LP  0  0  0  0  0  0  0  0  0  0  0  0  # atno 17370 bound_to 10713
  157.3822  130.7237  149.6638 LP  0  0  0  0  0  0  0  0  0  0  0  0  # atno 17371 bound_to 10713
  139.9835  135.0090  156.9807 LP  0  0  0  0  0  0  0  0  0  0  0  0  # atno 17394 bound_to 11000
  140.5069  134.1041  155.7262 LP  0  0  0  0  0  0  0  0  0  0  0  0  # atno 17395 bound_to 11000

$$$$
