AV-unprocessed.smi:3136|AV-procd|sdf|11948|dock7
  -GOLD-   2272017343D 1   1.00000     0.00000
 Structure written by MMmdl.
 40 40  0  0  0  0  0  0  0  0  2 V2000
  153.1825  142.4398  160.8047 C   0  0  0  0  0  0  0  0  0  0  0  0
  152.9539  143.2770  159.5392 C   0  0  0  0  0  0  0  0  0  0  0  0
  151.8877  142.7220  158.7130 N   0  0  0  0  0  0  0  0  0  0  0  0
  151.9293  141.5320  158.0946 C   0  0  0  0  0  0  0  0  0  0  0  0
  152.8939  140.7697  158.1629 O   0  0  0  0  0  0  0  0  0  0  0  0
  150.6885  141.1601  157.2756 C   0  0  0  0  0  0  0  0  0  0  0  0
  150.5346  141.9815  155.9830 C   0  0  0  0  0  0  0  0  0  0  0  0
  149.1080  142.1622  155.6404 N   0  3  0  0  0  0  0  0  0  0  0  0
  148.5956  141.2809  154.5653 C   0  0  2  0  0  0  0  0  0  0  0  0
  147.2395  141.8056  154.0472 C   0  0  0  0  0  0  0  0  0  0  0  0
  148.5174  139.8179  155.0796 C   0  0  2  0  0  0  0  0  0  0  0  0
  147.7767  139.7034  156.4263 C   0  0  0  0  0  0  0  0  0  0  0  0
  149.8319  139.1960  155.1817 N   0  0  0  0  0  0  0  0  0  0  0  0
  150.8135  139.1083  154.2158 C   0  0  0  0  0  0  0  0  0  0  0  0
  151.8689  138.4384  154.7649 C   0  0  0  0  0  0  0  0  0  0  0  0
  151.4339  138.1473  156.0877 C   0  0  0  0  0  0  0  0  0  0  0  0
  150.2153  138.6002  156.3338 N   0  0  0  0  0  0  0  0  0  0  0  0
  154.0103  142.8412  161.3895 H   0  0  0  0  0  0  0  0  0  0  0  0
  153.4233  141.4057  160.5558 H   0  0  0  0  0  0  0  0  0  0  0  0
  152.2990  142.4352  161.4438 H   0  0  0  0  0  0  0  0  0  0  0  0
  152.7306  144.3120  159.8030 H   0  0  0  0  0  0  0  0  0  0  0  0
  153.8671  143.2993  158.9443 H   0  0  0  0  0  0  0  0  0  0  0  0
  151.0578  143.2869  158.6043 H   0  0  0  0  0  0  0  0  0  0  0  0
  150.7415  140.0980  157.0322 H   0  0  0  0  0  0  0  0  0  0  0  0
  149.8086  141.2960  157.9060 H   0  0  0  0  0  0  0  0  0  0  0  0
  151.0097  142.9550  156.1040 H   0  0  0  0  0  0  0  0  0  0  0  0
  151.0364  141.4758  155.1565 H   0  0  0  0  0  0  0  0  0  0  0  0
  148.5755  141.9612  156.4749 H   0  0  0  0  0  0  0  0  0  0  0  0
  149.3077  141.3058  153.7387 H   0  0  0  0  0  0  0  0  0  0  0  0
  146.8683  141.2139  153.2104 H   0  0  0  0  0  0  0  0  0  0  0  0
  147.3112  142.8319  153.6890 H   0  0  0  0  0  0  0  0  0  0  0  0
  146.4820  141.7807  154.8315 H   0  0  0  0  0  0  0  0  0  0  0  0
  147.9562  139.2356  154.3466 H   0  0  0  0  0  0  0  0  0  0  0  0
  146.7428  140.0395  156.3471 H   0  0  0  0  0  0  0  0  0  0  0  0
  148.2595  140.3000  157.2011 H   0  0  0  0  0  0  0  0  0  0  0  0
  147.7534  138.6694  156.7722 H   0  0  0  0  0  0  0  0  0  0  0  0
  150.6829  139.5260  153.2282 H   0  0  0  0  0  0  0  0  0  0  0  0
  152.8085  138.1916  154.2933 H   0  0  0  0  0  0  0  0  0  0  0  0
  151.9635  137.6243  156.8703 H   0  0  0  0  0  0  0  0  0  0  0  0
  148.9436  143.1243  155.3806 H   0  0  0  0  0  0  0  0  0  0  0  0
  1  2  1  0  0  0  0
  1 18  1  0  0  0  0
  1 19  1  0  0  0  0
  1 20  1  0  0  0  0
  2  3  1  0  0  0  0
  2 21  1  0  0  0  0
  2 22  1  0  0  0  0
  3  4  1  0  0  0  0
  3 23  1  0  0  0  0
  4  5  2  0  0  0  0
  4  6  1  0  0  0  0
  6  7  1  0  0  0  0
  6 24  1  0  0  0  0
  6 25  1  0  0  0  0
  7  8  1  0  0  0  0
  7 26  1  0  0  0  0
  7 27  1  0  0  0  0
  8  9  1  0  0  0  0
  8 28  1  0  0  0  0
  8 40  1  0  0  0  0
  9 10  1  0  0  0  0
  9 11  1  0  0  0  0
  9 29  1  0  0  0  0
 10 30  1  0  0  0  0
 10 31  1  0  0  0  0
 10 32  1  0  0  0  0
 11 12  1  0  0  0  0
 11 13  1  0  0  0  0
 11 33  1  0  0  0  0
 12 34  1  0  0  0  0
 12 35  1  0  0  0  0
 12 36  1  0  0  0  0
 13 17  1  0  0  0  0
 13 14  1  0  0  0  0
 14 15  2  0  0  0  0
 14 37  1  0  0  0  0
 15 16  1  0  0  0  0
 15 38  1  0  0  0  0
 16 17  2  0  0  0  0
 16 39  1  0  0  0  0
M  CHG  1   8   1
M  END
> <s_m_source_file>
AV-unprocessed.smi

> <i_m_source_file_index>
3136

> <i_lp_mmshare_version>
43012

> <i_f3d_flags>
0

> <s_epik_input>
W0NIM11bQ0gyXVtOSF1DKD1PKVtDSDJdW0NIMl1bTkhdW0NASF0oW0NIM10pW0NASF0oW0NIM10pbjFbY0hdW2NIXVtjSF1uMQ==

> <s_epik_cmdline>
J2VwaWtfcHl0aG9uJywgJy1waCcsICc3LjAnLCAnLXRuJywgJzgnLCAnLW1hJywgJzIwMCcsICctbWV0YWxfYmluZGluZycsICctaW1hZScsICc8aW5maWxlLm1hZT4nLCAnLW9tYWUnLCAnPG91dGZpbGUubWFlPic=

> <r_lp_tautomer_probability>
1

> <r_epik_Ionization_Penalty>
0.00463447

> <r_epik_Ionization_Penalty_Charging>
0.00462393

> <r_epik_Ionization_Penalty_Neutral>
1.05394e-05

> <r_epik_State_Penalty>
-0

> <r_epik_Charging_Adjusted_Penalty>
0.00462393

> <i_epik_Tot_Q>
1

> <i_epik_Tot_abs_Q>
1

> <r_epik_Metal_State_Penalty>
-0

> <b_epik_Metal_Only>
0

> <s_lp_Force_Field>
OPLS_2005

> <r_lp_Energy>
10.4266

> <b_lp_Chiralities_Consistent>
1

> <s_lp_Variant>
AV-unprocessed.smi:3136-1

> <Gold.Version>
5.8.1

> <Gold.Id.Protein>
6NUR|6NUR_protein|mol2

> <Gold.PLP.Fitness>
42.3758

> <Gold.PLP.PLP>
-32.1131

> <Gold.PLP.part.hbond>
-2.0000

> <Gold.PLP.part.metal>
0.0000

> <Gold.PLP.part.buried>
-5.1242

> <Gold.PLP.part.nonpolar>
-25.2237

> <Gold.PLP.part.repulsive>
0.2131

> <Gold.PLP.ligand.clash>
0.0000

> <Gold.PLP.ligand.torsion>
0.9561

> <Gold.PLP.Chemscore.Hbond>
3.0000

> <Gold.PLP.Chemscore.CHOScore>
1.0000

> <Gold.PLP.Chemscore.Metal>
0.0000

> <Gold.Chemscore.Hbonds>
donor molecule, donor type, donor heavy atom, donor atom, acceptor molecule, acceptor atom, score
      L1  H     8    40       P1  8028  2.00
      P1  H  7997  8008       L1     5  0.49
      L1  C    14    37       P1  7957  1.00

> <Gold.PLP.Chemscore.Internal.Correction>
0.1749

> <Gold.Rescore>
     Score         DG    S(hbond)    S(metal)    S(lipo)     H(rot)  DE(clash)    DE(int)     intcor
     12.29     -14.84       1.92        0.00      76.01       2.32       0.16       2.39       ----

> <Gold.Chemscore.Fitness>
12.2944

> <Gold.Chemscore.DG>
-14.8431

> <Gold.Chemscore.ZeroCoef>
-5.4800

> <Gold.Chemscore.Hbond>
1.9157

> <Gold.Chemscore.Metal>
0.0000

> <Gold.Chemscore.Lipo>
76.0105

> <Gold.Chemscore.Internal_Hbond>
0.0000

> <Gold.Chemscore.DEClash>
0.1620

> <Gold.Chemscore.DEInternal>
2.3867

> <Gold.Chemscore.Rot>
2.3159

> <Gold.Chemscore.Internal.Correction>
   9.000000E+99

> <Gold.Chemscore.Hbonds>
donor molecule, donor type, donor heavy atom, donor atom, acceptor molecule, acceptor atom, score
      L1  H     8    40       P1  8028  0.97
      P1  H  7997  8008       L1     5  0.48

> <Gold.Chemscore.Hbond.Weighted>
-6.3984

> <Gold.Chemscore.Metal.Weighted>
-0.0000

> <Gold.Chemscore.Lipo.Weighted>
-8.8932

> <Gold.Chemscore.Internal_Hbond.Weighted>
0.0000

> <Gold.Chemscore.DEClash.Weighted>
0.1620

> <Gold.Chemscore.DEInternal.Weighted>
2.3867

> <Gold.Chemscore.Rot.Weighted>
5.9286

> <Gold.Chemscore.Internal.Correction.Weighted>
   9.000000E+99

> <Gold.Protein.RotatedTorsions>
[ 6907 6896 6895 6894 ] final   22.98 input  -60.11 | X-H torsion
[ 7974 7965 7964 7962 ] final   44.94 input  175.53 | X-H torsion
[ 8008 7997 7996 7995 ] final  -77.45 input   59.86 | X-H torsion
[ 10167 10162 10161 10158 ] final   20.17 input  -65.29 | X-H torsion
[ 10718 10713 10712 10709 ] final  139.29 input   66.30 | X-H torsion
[ 10763 10752 10751 10750 ] final  -73.94 input  -60.55 | X-H torsion
[ 11005 11000 10999 10996 ] final  -81.78 input  -57.11 | X-H torsion

> <Gold.Protein.ActiveResidues>
 VAL166  LYS551  ARG553  GLY616  TRP617  ASP618  TYR619  PRO620  LYS621  CYS622 
 ASP623  PHE694  ASN695  SER759  ASP760  ASP761  ALA762  ILE779  LEU786  VAL792 
 PHE793  MET794  SER795  GLU796  ALA797  LYS798  CYS799  TRP800  GLU811  SER814 

> <Gold.Protein.RotatedAtoms>
  151.9354  135.0238  160.0531 H   0  0  0  0  0  0  0  0  0  0  0  0  # atno 6907 bound_to 6896
  152.2083  133.4887  159.5104 H   0  0  0  0  0  0  0  0  0  0  0  0  # atno 6908 bound_to 6896
  150.6970  134.1418  159.4150 H   0  0  0  0  0  0  0  0  0  0  0  0  # atno 6909 bound_to 6896
  146.0524  139.5019  142.9710 H   0  0  0  0  0  0  0  0  0  0  0  0  # atno 7974 bound_to 7965
  154.5597  140.0710  156.8799 H   0  0  0  0  0  0  0  0  0  0  0  0  # atno 8008 bound_to 7997
  155.2835  140.3373  155.4238 H   0  0  0  0  0  0  0  0  0  0  0  0  # atno 8009 bound_to 7997
  156.2032  140.1730  156.7841 H   0  0  0  0  0  0  0  0  0  0  0  0  # atno 8010 bound_to 7997
  140.5524  143.9485  150.6587 H   0  0  0  0  0  0  0  0  0  0  0  0  # atno 10167 bound_to 10162
  157.4160  131.1033  151.0404 H   0  0  0  0  0  0  0  0  0  0  0  0  # atno 10718 bound_to 10713
  154.4663  135.5881  153.6290 H   0  0  0  0  0  0  0  0  0  0  0  0  # atno 10763 bound_to 10752
  152.9829  135.6056  154.3423 H   0  0  0  0  0  0  0  0  0  0  0  0  # atno 10764 bound_to 10752
  154.3300  135.2842  155.2455 H   0  0  0  0  0  0  0  0  0  0  0  0  # atno 10765 bound_to 10752
  141.1665  133.7213  156.8474 H   0  0  0  0  0  0  0  0  0  0  0  0  # atno 11005 bound_to 11000
  145.6701  141.0218  143.1662 LP  0  0  0  0  0  0  0  0  0  0  0  0  # atno 17320 bound_to 7965
  144.7130  139.8301  143.7408 LP  0  0  0  0  0  0  0  0  0  0  0  0  # atno 17321 bound_to 7965
  140.2915  143.3321  152.1058 LP  0  0  0  0  0  0  0  0  0  0  0  0  # atno 17342 bound_to 10162
  139.5033  144.6752  151.6145 LP  0  0  0  0  0  0  0  0  0  0  0  0  # atno 17343 bound_to 10162
  157.1351  130.6119  149.5540 LP  0  0  0  0  0  0  0  0  0  0  0  0  # atno 17370 bound_to 10713
  155.9865  130.4900  150.7084 LP  0  0  0  0  0  0  0  0  0  0  0  0  # atno 17371 bound_to 10713
  140.1940  134.8945  157.3093 LP  0  0  0  0  0  0  0  0  0  0  0  0  # atno 17394 bound_to 11000
  140.2259  134.3967  155.7544 LP  0  0  0  0  0  0  0  0  0  0  0  0  # atno 17395 bound_to 11000

$$$$
