AV-unprocessed.smi:2212|AV-procd|sdf|8954|dock8
  -GOLD-   2272012173D 1   1.00000     0.00000
 Structure written by MMmdl.
 31 32  0  0  0  0  0  0  0  0  1 V2000
  146.0818  141.5017  156.5496 C   0  0  0  0  0  0  0  0  0  0  0  0
  147.4983  141.4609  156.4371 O   0  0  0  0  0  0  0  0  0  0  0  0
  148.0179  141.3216  155.1142 C   0  0  0  0  0  0  0  0  0  0  0  0
  149.5517  141.3767  155.0899 C   0  0  0  0  0  0  0  0  0  0  0  0
  150.0469  142.3839  156.0190 N   0  0  0  0  0  0  0  0  0  0  0  0
  150.9884  142.1743  156.9490 C   0  0  0  0  0  0  0  0  0  0  0  0
  151.5080  141.0647  157.1052 O   0  0  0  0  0  0  0  0  0  0  0  0
  151.2243  143.3395  157.6632 N   0  0  0  0  0  0  0  0  0  0  0  0
  151.6967  143.2669  158.8699 C   0  0  0  0  0  0  0  0  0  0  0  0
  152.0264  142.1953  159.6957 N   0  0  0  0  0  0  0  0  0  0  0  0
  152.4782  142.6970  160.8842 C   0  0  0  0  0  0  0  0  0  0  0  0
  152.4350  144.0241  160.8139 C   0  0  0  0  0  0  0  0  0  0  0  0
  151.9603  144.4020  159.5939 O   0  0  0  0  0  0  0  0  0  0  0  0
  147.3366  140.1033  154.4624 C   0  0  0  0  0  0  0  0  0  0  0  0
  147.1069  140.9504  153.2095 C   0  0  0  0  0  0  0  0  0  0  0  0
  147.2291  142.1826  154.1074 C   0  0  0  0  0  0  0  0  0  0  0  0
  145.8076  141.5078  157.6044 H   0  0  0  0  0  0  0  0  0  0  0  0
  145.6111  140.6324  156.0900 H   0  0  0  0  0  0  0  0  0  0  0  0
  145.6660  142.4042  156.1024 H   0  0  0  0  0  0  0  0  0  0  0  0
  149.9644  140.4047  155.3647 H   0  0  0  0  0  0  0  0  0  0  0  0
  149.9268  141.5900  154.0887 H   0  0  0  0  0  0  0  0  0  0  0  0
  149.6507  143.3099  155.9416 H   0  0  0  0  0  0  0  0  0  0  0  0
  151.9593  141.2078  159.4946 H   0  0  0  0  0  0  0  0  0  0  0  0
  152.7912  142.0318  161.6754 H   0  0  0  0  0  0  0  0  0  0  0  0
  152.6958  144.8045  161.5136 H   0  0  0  0  0  0  0  0  0  0  0  0
  147.9848  139.2398  154.3102 H   0  0  0  0  0  0  0  0  0  0  0  0
  146.4027  139.8191  154.9510 H   0  0  0  0  0  0  0  0  0  0  0  0
  147.9201  140.8687  152.4864 H   0  0  0  0  0  0  0  0  0  0  0  0
  146.1311  140.8198  152.7412 H   0  0  0  0  0  0  0  0  0  0  0  0
  146.2615  142.5164  154.4868 H   0  0  0  0  0  0  0  0  0  0  0  0
  147.7928  143.0067  153.6692 H   0  0  0  0  0  0  0  0  0  0  0  0
  1  2  1  0  0  0  0
  1 17  1  0  0  0  0
  1 18  1  0  0  0  0
  1 19  1  0  0  0  0
  2  3  1  0  0  0  0
  3 16  1  0  0  0  0
  3  4  1  0  0  0  0
  3 14  1  0  0  0  0
  4  5  1  0  0  0  0
  4 20  1  0  0  0  0
  4 21  1  0  0  0  0
  5 22  1  0  0  0  0
  5  6  1  0  0  0  0
  6  8  1  0  0  0  0
  6  7  2  0  0  0  0
  8  9  2  0  0  0  0
  9 13  1  0  0  0  0
  9 10  1  0  0  0  0
 10 23  1  0  0  0  0
 10 11  1  0  0  0  0
 11 24  1  0  0  0  0
 11 12  2  0  0  0  0
 12 25  1  0  0  0  0
 12 13  1  0  0  0  0
 14 15  1  0  0  0  0
 14 26  1  0  0  0  0
 14 27  1  0  0  0  0
 15 16  1  0  0  0  0
 15 28  1  0  0  0  0
 15 29  1  0  0  0  0
 16 30  1  0  0  0  0
 16 31  1  0  0  0  0
M  END
> <s_m_source_file>
AV-unprocessed.smi

> <i_m_source_file_index>
2212

> <i_lp_mmshare_version>
43012

> <i_f3d_flags>
0

> <s_epik_input>
W0NIMl0xW0NIMl1bQ0gyXUMxKE9bQ0gzXSlbQ0gyXVtOSF1DKD1PKVtOSF1jMm5bY0hdW2NIXW8y

> <s_epik_cmdline>
J2VwaWtfcHl0aG9uJywgJy1waCcsICc3LjAnLCAnLXRuJywgJzgnLCAnLW1hJywgJzIwMCcsICctbWV0YWxfYmluZGluZycsICctaW1hZScsICc8aW5maWxlLm1hZT4nLCAnLW9tYWUnLCAnPG91dGZpbGUubWFlPic=

> <r_lp_tautomer_probability>
0.107061

> <r_epik_Ionization_Penalty>
1.29244

> <r_epik_Ionization_Penalty_Charging>
1.29208

> <r_epik_Ionization_Penalty_Neutral>
0.000357989

> <r_epik_State_Penalty>
2.59896

> <r_epik_Charging_Adjusted_Penalty>
3.89105

> <i_epik_Tot_Q>
0

> <i_epik_Tot_abs_Q>
0

> <r_epik_Metal_State_Penalty>
3.62496

> <b_epik_Metal_Only>
0

> <s_lp_Force_Field>
OPLS_2005

> <r_lp_Energy>
41.2438

> <b_lp_Chiralities_Consistent>
1

> <s_lp_Variant>
AV-unprocessed.smi:2212-4

> <Gold.Version>
5.8.1

> <Gold.Id.Protein>
6NUR|6NUR_protein|mol2

> <Gold.PLP.Fitness>
30.7725

> <Gold.PLP.PLP>
-28.7637

> <Gold.PLP.part.hbond>
-1.0000

> <Gold.PLP.part.metal>
0.0000

> <Gold.PLP.part.buried>
-7.3874

> <Gold.PLP.part.nonpolar>
-20.7683

> <Gold.PLP.part.repulsive>
0.4932

> <Gold.PLP.ligand.clash>
0.0000

> <Gold.PLP.ligand.torsion>
0.6303

> <Gold.PLP.Chemscore.Hbond>
1.0000

> <Gold.PLP.Chemscore.CHOScore>
0.0000

> <Gold.PLP.Chemscore.Metal>
0.0000

> <Gold.Chemscore.Hbonds>
donor molecule, donor type, donor heavy atom, donor atom, acceptor molecule, acceptor atom, score
      L1  H     5    22       P1  8028  1.00

> <Gold.PLP.Chemscore.Internal.Correction>
0.2695

> <Gold.Rescore>
     Score         DG    S(hbond)    S(metal)    S(lipo)     H(rot)  DE(clash)    DE(int)     intcor
     10.95     -11.52       1.00        0.00      59.10       1.64       0.03       0.54       ----

> <Gold.Chemscore.Fitness>
10.9487

> <Gold.Chemscore.DG>
-11.5221

> <Gold.Chemscore.ZeroCoef>
-5.4800

> <Gold.Chemscore.Hbond>
0.9966

> <Gold.Chemscore.Metal>
0.0000

> <Gold.Chemscore.Lipo>
59.0994

> <Gold.Chemscore.Internal_Hbond>
0.0000

> <Gold.Chemscore.DEClash>
0.0318

> <Gold.Chemscore.DEInternal>
0.5416

> <Gold.Chemscore.Rot>
1.6411

> <Gold.Chemscore.Internal.Correction>
   9.000000E+99

> <Gold.Chemscore.Hbonds>
donor molecule, donor type, donor heavy atom, donor atom, acceptor molecule, acceptor atom, score
      L1  H     5    22       P1  8028  0.99

> <Gold.Chemscore.Hbond.Weighted>
-3.3286

> <Gold.Chemscore.Metal.Weighted>
-0.0000

> <Gold.Chemscore.Lipo.Weighted>
-6.9146

> <Gold.Chemscore.Internal_Hbond.Weighted>
0.0000

> <Gold.Chemscore.DEClash.Weighted>
0.0318

> <Gold.Chemscore.DEInternal.Weighted>
0.5416

> <Gold.Chemscore.Rot.Weighted>
4.2011

> <Gold.Chemscore.Internal.Correction.Weighted>
   9.000000E+99

> <Gold.Protein.RotatedTorsions>
[ 6907 6896 6895 6894 ] final   11.16 input  -60.11 | X-H torsion
[ 7974 7965 7964 7962 ] final  -44.47 input  175.53 | X-H torsion
[ 8008 7997 7996 7995 ] final  -82.97 input   59.86 | X-H torsion
[ 10167 10162 10161 10158 ] final -130.90 input  -65.29 | X-H torsion
[ 10718 10713 10712 10709 ] final  158.00 input   66.30 | X-H torsion
[ 10763 10752 10751 10750 ] final   94.53 input  -60.55 | X-H torsion
[ 11005 11000 10999 10996 ] final   25.56 input  -57.11 | X-H torsion

> <Gold.Protein.ActiveResidues>
 VAL166  LYS551  ARG553  GLY616  TRP617  ASP618  TYR619  PRO620  LYS621  CYS622 
 ASP623  PHE694  ASN695  SER759  ASP760  ASP761  ALA762  ILE779  LEU786  VAL792 
 PHE793  MET794  SER795  GLU796  ALA797  LYS798  CYS799  TRP800  GLU811  SER814 

> <Gold.Protein.RotatedAtoms>
  151.7499  135.0835  160.0328 H   0  0  0  0  0  0  0  0  0  0  0  0  # atno 6907 bound_to 6896
  152.3424  133.6078  159.5894 H   0  0  0  0  0  0  0  0  0  0  0  0  # atno 6908 bound_to 6896
  150.7487  133.9618  159.3559 H   0  0  0  0  0  0  0  0  0  0  0  0  # atno 6909 bound_to 6896
  145.9917  140.7173  142.9314 H   0  0  0  0  0  0  0  0  0  0  0  0  # atno 7974 bound_to 7965
  154.6141  140.0625  156.9532 H   0  0  0  0  0  0  0  0  0  0  0  0  # atno 8008 bound_to 7997
  155.1924  140.3308  155.4338 H   0  0  0  0  0  0  0  0  0  0  0  0  # atno 8009 bound_to 7997
  156.2394  140.1878  156.7013 H   0  0  0  0  0  0  0  0  0  0  0  0  # atno 8010 bound_to 7997
  139.9245  143.6344  152.2545 H   0  0  0  0  0  0  0  0  0  0  0  0  # atno 10167 bound_to 10162
  157.1838  131.0638  151.2117 H   0  0  0  0  0  0  0  0  0  0  0  0  # atno 10718 bound_to 10713
  153.2427  135.4286  155.0715 H   0  0  0  0  0  0  0  0  0  0  0  0  # atno 10763 bound_to 10752
  154.8347  135.3406  154.6626 H   0  0  0  0  0  0  0  0  0  0  0  0  # atno 10764 bound_to 10752
  153.7049  135.7026  153.5109 H   0  0  0  0  0  0  0  0  0  0  0  0  # atno 10765 bound_to 10752
  140.3465  134.2276  155.7684 H   0  0  0  0  0  0  0  0  0  0  0  0  # atno 11005 bound_to 11000
  144.6891  140.3081  143.7252 LP  0  0  0  0  0  0  0  0  0  0  0  0  # atno 17320 bound_to 7965
  145.7620  139.1828  143.2261 LP  0  0  0  0  0  0  0  0  0  0  0  0  # atno 17321 bound_to 7965
  139.6834  144.7653  151.1568 LP  0  0  0  0  0  0  0  0  0  0  0  0  # atno 17342 bound_to 10162
  140.7654  143.5692  150.9014 LP  0  0  0  0  0  0  0  0  0  0  0  0  # atno 17343 bound_to 10162
  157.3927  130.7290  149.6709 LP  0  0  0  0  0  0  0  0  0  0  0  0  # atno 17370 bound_to 10713
  155.9721  130.4142  150.4120 LP  0  0  0  0  0  0  0  0  0  0  0  0  # atno 17371 bound_to 10713
  141.2024  133.7938  157.0392 LP  0  0  0  0  0  0  0  0  0  0  0  0  # atno 17394 bound_to 11000
  140.0738  134.9687  157.1512 LP  0  0  0  0  0  0  0  0  0  0  0  0  # atno 17395 bound_to 11000

$$$$
