AV-unprocessed.smi:1158|AV-procd|sdf|4911|dock7
  -GOLD-   22720 3493D 1   1.00000     0.00000
 Structure written by MMmdl.
 42 43  0  0  0  0  0  0  0  0  1 V2000
  147.1682  132.6549  152.7585 C   0  0  0  0  0  0  0  0  0  0  0  0
  148.0018  133.6208  153.3898 O   0  0  0  0  0  0  0  0  0  0  0  0
  148.8075  133.2143  154.4364 C   0  0  0  0  0  0  0  0  0  0  0  0
  148.7086  131.9305  154.8641 N   0  0  0  0  0  0  0  0  0  0  0  0
  149.4970  131.5294  155.8821 C   0  0  0  0  0  0  0  0  0  0  0  0
  150.4235  132.3754  156.5178 C   0  0  0  0  0  0  0  0  0  0  0  0
  150.5292  133.7070  156.0756 C   0  0  0  0  0  0  0  0  0  0  0  0
  149.6967  134.1488  155.0180 C   0  0  0  0  0  0  0  0  0  0  0  0
  149.7255  135.4665  154.4813 N   0  0  0  0  0  0  0  0  0  0  0  0
  150.0106  136.6263  155.0977 C   0  0  0  0  0  0  0  0  0  0  0  0
  150.3089  136.7512  156.2852 O   0  0  0  0  0  0  0  0  0  0  0  0
  149.9156  137.6585  154.2477 N   0  0  0  0  0  0  0  0  0  0  0  0
  150.1564  139.0572  154.5902 C   0  0  0  0  0  0  0  0  0  0  0  0
  151.3883  139.1692  155.4992 C   0  0  0  0  0  0  0  0  0  0  0  0
  151.5859  140.6158  155.9843 C   0  0  0  0  0  0  0  0  0  0  0  0
  150.4036  141.0801  156.7144 N   0  0  0  0  0  0  0  0  0  0  0  0
  150.6678  142.4230  157.2306 C   0  0  0  0  0  0  0  0  0  0  0  0
  151.9230  142.4768  158.1184 C   0  0  0  0  0  0  0  0  0  0  0  0
  152.1900  143.7313  158.4813 F   0  0  0  0  0  0  0  0  0  0  0  0
  151.7231  141.7437  159.2127 F   0  0  0  0  0  0  0  0  0  0  0  0
  149.2442  141.0839  155.8161 C   0  0  0  0  0  0  0  0  0  0  0  0
  148.9427  139.6595  155.3173 C   0  0  0  0  0  0  0  0  0  0  0  0
  146.6059  133.1330  151.9566 H   0  0  0  0  0  0  0  0  0  0  0  0
  146.4479  132.2298  153.4590 H   0  0  0  0  0  0  0  0  0  0  0  0
  147.7561  131.8499  152.3153 H   0  0  0  0  0  0  0  0  0  0  0  0
  149.3900  130.5014  156.1953 H   0  0  0  0  0  0  0  0  0  0  0  0
  151.0424  132.0102  157.3240 H   0  0  0  0  0  0  0  0  0  0  0  0
  151.2533  134.3515  156.5481 H   0  0  0  0  0  0  0  0  0  0  0  0
  149.4331  135.5405  153.5178 H   0  0  0  0  0  0  0  0  0  0  0  0
  149.6609  137.4635  153.2906 H   0  0  0  0  0  0  0  0  0  0  0  0
  150.3487  139.6288  153.6800 H   0  0  0  0  0  0  0  0  0  0  0  0
  151.2793  138.5103  156.3622 H   0  0  0  0  0  0  0  0  0  0  0  0
  152.2784  138.8354  154.9647 H   0  0  0  0  0  0  0  0  0  0  0  0
  152.4588  140.6544  156.6372 H   0  0  0  0  0  0  0  0  0  0  0  0
  151.7896  141.2752  155.1388 H   0  0  0  0  0  0  0  0  0  0  0  0
  150.8239  143.1018  156.3909 H   0  0  0  0  0  0  0  0  0  0  0  0
  149.7978  142.7952  157.7742 H   0  0  0  0  0  0  0  0  0  0  0  0
  152.8108  142.0733  157.6335 H   0  0  0  0  0  0  0  0  0  0  0  0
  148.3636  141.4591  156.3352 H   0  0  0  0  0  0  0  0  0  0  0  0
  149.4243  141.7500  154.9706 H   0  0  0  0  0  0  0  0  0  0  0  0
  148.0781  139.6798  154.6527 H   0  0  0  0  0  0  0  0  0  0  0  0
  148.6658  139.0313  156.1656 H   0  0  0  0  0  0  0  0  0  0  0  0
  1  2  1  0  0  0  0
  1 23  1  0  0  0  0
  1 24  1  0  0  0  0
  1 25  1  0  0  0  0
  2  3  1  0  0  0  0
  3  8  1  0  0  0  0
  3  4  2  0  0  0  0
  4  5  1  0  0  0  0
  5  6  2  0  0  0  0
  5 26  1  0  0  0  0
  6  7  1  0  0  0  0
  6 27  1  0  0  0  0
  7  8  2  0  0  0  0
  7 28  1  0  0  0  0
  8  9  1  0  0  0  0
  9 10  1  0  0  0  0
  9 29  1  0  0  0  0
 10 11  2  0  0  0  0
 10 12  1  0  0  0  0
 12 13  1  0  0  0  0
 12 30  1  0  0  0  0
 13 22  1  0  0  0  0
 13 14  1  0  0  0  0
 13 31  1  0  0  0  0
 14 15  1  0  0  0  0
 14 32  1  0  0  0  0
 14 33  1  0  0  0  0
 15 16  1  0  0  0  0
 15 34  1  0  0  0  0
 15 35  1  0  0  0  0
 16 17  1  0  0  0  0
 16 21  1  0  0  0  0
 17 18  1  0  0  0  0
 17 36  1  0  0  0  0
 17 37  1  0  0  0  0
 18 19  1  0  0  0  0
 18 20  1  0  0  0  0
 18 38  1  0  0  0  0
 21 22  1  0  0  0  0
 21 39  1  0  0  0  0
 21 40  1  0  0  0  0
 22 41  1  0  0  0  0
 22 42  1  0  0  0  0
M  END
> <s_m_source_file>
AV-unprocessed.smi

> <i_m_source_file_index>
1158

> <i_lp_mmshare_version>
43012

> <i_f3d_flags>
0

> <s_epik_input>
W0NIM11PYzFuW2NIXVtjSF1bY0hdYzFbTkhdQyg9TylbTkhdW0NIXTJbQ0gyXVtDSDJdTihbQ0gyXVtDSF0oRilGKVtDSDJdW0NIMl0y

> <s_epik_cmdline>
J2VwaWtfcHl0aG9uJywgJy1waCcsICc3LjAnLCAnLXRuJywgJzgnLCAnLW1hJywgJzIwMCcsICctbWV0YWxfYmluZGluZycsICctaW1hZScsICc8aW5maWxlLm1hZT4nLCAnLW9tYWUnLCAnPG91dGZpbGUubWFlPic=

> <r_lp_tautomer_probability>
1

> <r_epik_Ionization_Penalty>
0.177131

> <r_epik_Ionization_Penalty_Charging>
0

> <r_epik_Ionization_Penalty_Neutral>
0.177131

> <r_epik_State_Penalty>
0.166485

> <r_epik_Charging_Adjusted_Penalty>
0.166485

> <i_epik_Tot_Q>
0

> <i_epik_Tot_abs_Q>
0

> <r_epik_Metal_State_Penalty>
0.166483

> <b_epik_Metal_Only>
0

> <s_lp_Force_Field>
OPLS_2005

> <r_lp_Energy>
18.3974

> <b_lp_Chiralities_Consistent>
1

> <s_lp_Variant>
AV-unprocessed.smi:1158-1

> <Gold.Version>
5.8.1

> <Gold.Id.Protein>
6NUR|6NUR_protein|mol2

> <Gold.PLP.Fitness>
41.1384

> <Gold.PLP.PLP>
-36.6783

> <Gold.PLP.part.hbond>
-2.4889

> <Gold.PLP.part.metal>
0.0000

> <Gold.PLP.part.buried>
-5.4370

> <Gold.PLP.part.nonpolar>
-30.0235

> <Gold.PLP.part.repulsive>
0.8555

> <Gold.PLP.ligand.clash>
0.0000

> <Gold.PLP.ligand.torsion>
0.4800

> <Gold.PLP.Chemscore.Hbond>
1.8000

> <Gold.PLP.Chemscore.CHOScore>
0.0000

> <Gold.PLP.Chemscore.Metal>
0.0000

> <Gold.Chemscore.Hbonds>
donor molecule, donor type, donor heavy atom, donor atom, acceptor molecule, acceptor atom, score
      L1  H     9    29       P1  7948  0.95
      L1  H    12    30       P1  7948  1.00

> <Gold.PLP.Chemscore.Internal.Correction>
0.0200

> <Gold.Rescore>
     Score         DG    S(hbond)    S(metal)    S(lipo)     H(rot)  DE(clash)    DE(int)     intcor
     12.72     -15.35       1.74        0.00      68.76       1.55       0.00       2.63       ----

> <Gold.Chemscore.Fitness>
12.7199

> <Gold.Chemscore.DG>
-15.3491

> <Gold.Chemscore.ZeroCoef>
-5.4800

> <Gold.Chemscore.Hbond>
1.7356

> <Gold.Chemscore.Metal>
0.0000

> <Gold.Chemscore.Lipo>
68.7568

> <Gold.Chemscore.Internal_Hbond>
0.0000

> <Gold.Chemscore.DEClash>
0.0013

> <Gold.Chemscore.DEInternal>
2.6280

> <Gold.Chemscore.Rot>
1.5517

> <Gold.Chemscore.Internal.Correction>
   9.000000E+99

> <Gold.Chemscore.Hbonds>
donor molecule, donor type, donor heavy atom, donor atom, acceptor molecule, acceptor atom, score
      L1  H     9    29       P1  7948  0.22
      L1  H    12    30       P1  7948  0.70

> <Gold.Chemscore.Hbond.Weighted>
-5.7969

> <Gold.Chemscore.Metal.Weighted>
-0.0000

> <Gold.Chemscore.Lipo.Weighted>
-8.0445

> <Gold.Chemscore.Internal_Hbond.Weighted>
0.0000

> <Gold.Chemscore.DEClash.Weighted>
0.0013

> <Gold.Chemscore.DEInternal.Weighted>
2.6280

> <Gold.Chemscore.Rot.Weighted>
3.9723

> <Gold.Chemscore.Internal.Correction.Weighted>
   9.000000E+99

> <Gold.Protein.RotatedTorsions>
[ 6907 6896 6895 6894 ] final   -8.15 input  -60.11 | X-H torsion
[ 7974 7965 7964 7962 ] final -114.09 input  175.53 | X-H torsion
[ 8008 7997 7996 7995 ] final  123.54 input   59.86 | X-H torsion
[ 10167 10162 10161 10158 ] final   -0.40 input  -65.29 | X-H torsion
[ 10718 10713 10712 10709 ] final  -83.23 input   66.30 | X-H torsion
[ 10763 10752 10751 10750 ] final -120.06 input  -60.55 | X-H torsion
[ 11005 11000 10999 10996 ] final  118.34 input  -57.11 | X-H torsion

> <Gold.Protein.ActiveResidues>
 VAL166  LYS551  ARG553  GLY616  TRP617  ASP618  TYR619  PRO620  LYS621  CYS622 
 ASP623  PHE694  ASN695  SER759  ASP760  ASP761  ALA762  ILE779  LEU786  VAL792 
 PHE793  MET794  SER795  GLU796  ALA797  LYS798  CYS799  TRP800  GLU811  SER814 

> <Gold.Protein.RotatedAtoms>
  151.4383  135.1017  159.9662 H   0  0  0  0  0  0  0  0  0  0  0  0  # atno 6907 bound_to 6896
  152.4932  133.8552  159.7233 H   0  0  0  0  0  0  0  0  0  0  0  0  # atno 6908 bound_to 6896
  150.9106  133.6944  159.2883 H   0  0  0  0  0  0  0  0  0  0  0  0  # atno 6909 bound_to 6896
  145.1242  140.8687  143.3796 H   0  0  0  0  0  0  0  0  0  0  0  0  # atno 7974 bound_to 7965
  156.2769  140.2760  156.1644 H   0  0  0  0  0  0  0  0  0  0  0  0  # atno 8008 bound_to 7997
  155.0720  140.0387  157.2629 H   0  0  0  0  0  0  0  0  0  0  0  0  # atno 8009 bound_to 7997
  154.7032  140.2653  155.6705 H   0  0  0  0  0  0  0  0  0  0  0  0  # atno 8010 bound_to 7997
  140.6766  143.6899  150.8036 H   0  0  0  0  0  0  0  0  0  0  0  0  # atno 10167 bound_to 10162
  156.0021  130.4659  150.4226 H   0  0  0  0  0  0  0  0  0  0  0  0  # atno 10718 bound_to 10713
  154.8634  135.4216  154.2399 H   0  0  0  0  0  0  0  0  0  0  0  0  # atno 10763 bound_to 10752
  153.3366  135.6991  153.6908 H   0  0  0  0  0  0  0  0  0  0  0  0  # atno 10764 bound_to 10752
  153.5903  135.3556  155.2881 H   0  0  0  0  0  0  0  0  0  0  0  0  # atno 10765 bound_to 10752
  139.9106  134.9619  156.7489 H   0  0  0  0  0  0  0  0  0  0  0  0  # atno 11005 bound_to 11000
  145.0706  139.3034  143.5834 LP  0  0  0  0  0  0  0  0  0  0  0  0  # atno 17320 bound_to 7965
  146.3519  140.0180  142.8661 LP  0  0  0  0  0  0  0  0  0  0  0  0  # atno 17321 bound_to 7965
  140.0592  143.5171  152.2636 LP  0  0  0  0  0  0  0  0  0  0  0  0  # atno 17342 bound_to 10162
  139.6062  144.7597  151.3057 LP  0  0  0  0  0  0  0  0  0  0  0  0  # atno 17343 bound_to 10162
  157.2281  131.0498  151.2508 LP  0  0  0  0  0  0  0  0  0  0  0  0  # atno 17370 bound_to 10713
  157.3737  130.7194  149.6582 LP  0  0  0  0  0  0  0  0  0  0  0  0  # atno 17371 bound_to 10713
  140.6789  133.9492  155.7899 LP  0  0  0  0  0  0  0  0  0  0  0  0  # atno 17394 bound_to 11000
  141.0524  134.0465  157.3766 LP  0  0  0  0  0  0  0  0  0  0  0  0  # atno 17395 bound_to 11000

$$$$
