AV-unprocessed.smi:218|AV-procd|sdf|1670|dock1
  -GOLD-   2262020 83D 1   1.00000     0.00000
 Structure written by MMmdl.
 54 57  0  0  0  0  0  0  0  0  1 V2000
  153.1134  140.8732  159.2906 C   0  0  0  0  0  0  0  0  0  0  0  0
  152.1825  140.8015  158.0742 C   0  0  0  0  0  0  0  0  0  0  0  0
  150.7192  140.6001  158.5042 C   0  0  0  0  0  0  0  0  0  0  0  0
  152.6244  139.6992  157.2795 O   0  0  0  0  0  0  0  0  0  0  0  0
  151.7914  139.1554  156.3208 C   0  0  0  0  0  0  0  0  0  0  0  0
  151.5569  137.7657  156.3513 C   0  0  0  0  0  0  0  0  0  0  0  0
  150.7150  137.1938  155.3752 C   0  0  0  0  0  0  0  0  0  0  0  0
  150.4420  135.7037  155.3682 C   0  0  0  0  0  0  0  0  0  0  0  0
  149.0351  135.3799  155.5613 N   0  0  0  0  0  0  0  0  0  0  0  0
  148.3358  134.7857  154.5715 C   0  0  0  0  0  0  0  0  0  0  0  0
  148.8670  133.7580  153.8585 N   0  0  0  0  0  0  0  0  0  0  0  0
  148.1544  133.1813  152.8860 C   0  0  0  0  0  0  0  0  0  0  0  0
  146.9203  133.4743  152.4701 N   0  0  0  0  0  0  0  0  0  0  0  0
  146.3837  134.5071  153.1830 C   0  0  0  0  0  0  0  0  0  0  0  0
  147.0229  135.2103  154.2413 C   0  0  0  0  0  0  0  0  0  0  0  0
  146.1763  136.1974  154.7292 N   0  0  0  0  0  0  0  0  0  0  0  0
  145.1012  136.0825  153.9959 C   0  0  0  0  0  0  0  0  0  0  0  0
  145.1434  135.0946  153.0371 N   0  0  0  0  0  0  0  0  0  0  0  0
  144.0747  134.7184  152.0576 C   0  0  2  0  0  0  0  0  0  0  0  0
  143.8925  133.3414  152.1487 O   0  0  0  0  0  0  0  0  0  0  0  0
  143.6436  132.8101  150.8557 C   0  0  2  0  0  0  0  0  0  0  0  0
  144.0031  131.3168  150.8314 C   0  0  0  0  0  0  0  0  0  0  0  0
  145.3686  131.1414  151.1442 O   0  0  0  0  0  0  0  0  0  0  0  0
  144.5362  133.6684  149.9543 C   0  0  1  0  0  0  0  0  0  0  0  0
  144.0303  133.6927  148.6344 O   0  0  0  0  0  0  0  0  0  0  0  0
  144.4416  135.0492  150.5924 C   0  0  2  0  0  0  0  0  0  0  0  0
  145.6518  135.7680  150.4318 O   0  0  0  0  0  0  0  0  0  0  0  0
  150.1402  138.0362  154.4028 C   0  0  0  0  0  0  0  0  0  0  0  0
  150.4326  139.4130  154.4531 C   0  0  0  0  0  0  0  0  0  0  0  0
  151.2379  139.9661  155.3847 N   0  0  0  0  0  0  0  0  0  0  0  0
  143.1831  135.2458  152.3993 H   0  0  0  0  0  0  0  0  0  0  0  0
  142.5936  132.9717  150.6010 H   0  0  0  0  0  0  0  0  0  0  0  0
  145.5621  133.2967  149.9680 H   0  0  0  0  0  0  0  0  0  0  0  0
  143.6158  135.6220  150.1674 H   0  0  0  0  0  0  0  0  0  0  0  0
  152.8443  141.7039  159.9436 H   0  0  0  0  0  0  0  0  0  0  0  0
  154.1487  141.0178  158.9807 H   0  0  0  0  0  0  0  0  0  0  0  0
  153.0678  139.9564  159.8792 H   0  0  0  0  0  0  0  0  0  0  0  0
  152.2863  141.7435  157.5335 H   0  0  0  0  0  0  0  0  0  0  0  0
  150.3871  141.4135  159.1498 H   0  0  0  0  0  0  0  0  0  0  0  0
  150.5967  139.6670  159.0547 H   0  0  0  0  0  0  0  0  0  0  0  0
  150.0458  140.5687  157.6481 H   0  0  0  0  0  0  0  0  0  0  0  0
  152.0201  137.1509  157.1092 H   0  0  0  0  0  0  0  0  0  0  0  0
  150.7826  135.2755  154.4246 H   0  0  0  0  0  0  0  0  0  0  0  0
  151.0340  135.2470  156.1623 H   0  0  0  0  0  0  0  0  0  0  0  0
  148.6362  135.6357  156.4533 H   0  0  0  0  0  0  0  0  0  0  0  0
  148.6427  132.3700  152.3665 H   0  0  0  0  0  0  0  0  0  0  0  0
  144.2424  136.7230  154.1338 H   0  0  0  0  0  0  0  0  0  0  0  0
  143.4251  130.7790  151.5834 H   0  0  0  0  0  0  0  0  0  0  0  0
  143.7719  130.8693  149.8642 H   0  0  0  0  0  0  0  0  0  0  0  0
  145.8862  131.5823  150.4877 H   0  0  0  0  0  0  0  0  0  0  0  0
  144.6147  134.2104  148.1016 H   0  0  0  0  0  0  0  0  0  0  0  0
  145.9719  135.6175  149.5549 H   0  0  0  0  0  0  0  0  0  0  0  0
  149.4902  137.6416  153.6358 H   0  0  0  0  0  0  0  0  0  0  0  0
  150.0088  140.0881  153.7246 H   0  0  0  0  0  0  0  0  0  0  0  0
  1  2  1  0  0  0  0
  1 35  1  0  0  0  0
  1 36  1  0  0  0  0
  1 37  1  0  0  0  0
  2  3  1  0  0  0  0
  2  4  1  0  0  0  0
  2 38  1  0  0  0  0
  3 39  1  0  0  0  0
  3 40  1  0  0  0  0
  3 41  1  0  0  0  0
  4  5  1  0  0  0  0
  5 30  1  0  0  0  0
  5  6  2  0  0  0  0
  6  7  1  0  0  0  0
  6 42  1  0  0  0  0
  7  8  1  0  0  0  0
  7 28  2  0  0  0  0
  8  9  1  0  0  0  0
  8 43  1  0  0  0  0
  8 44  1  0  0  0  0
  9 10  1  0  0  0  0
  9 45  1  0  0  0  0
 10 15  1  0  0  0  0
 10 11  2  0  0  0  0
 11 12  1  0  0  0  0
 12 13  2  0  0  0  0
 12 46  1  0  0  0  0
 13 14  1  0  0  0  0
 14 18  1  0  0  0  0
 14 15  2  0  0  0  0
 15 16  1  0  0  0  0
 16 17  2  0  0  0  0
 17 18  1  0  0  0  0
 17 47  1  0  0  0  0
 18 19  1  0  0  0  0
 19 31  1  0  0  0  0
 19 26  1  0  0  0  0
 19 20  1  0  0  0  0
 20 21  1  0  0  0  0
 21 32  1  0  0  0  0
 21 22  1  0  0  0  0
 21 24  1  0  0  0  0
 22 23  1  0  0  0  0
 22 48  1  0  0  0  0
 22 49  1  0  0  0  0
 23 50  1  0  0  0  0
 24 33  1  0  0  0  0
 24 25  1  0  0  0  0
 24 26  1  0  0  0  0
 25 51  1  0  0  0  0
 26 34  1  0  0  0  0
 26 27  1  0  0  0  0
 27 52  1  0  0  0  0
 28 29  1  0  0  0  0
 28 53  1  0  0  0  0
 29 30  2  0  0  0  0
 29 54  1  0  0  0  0
M  END
> <s_m_source_file>
AV-unprocessed.smi

> <i_m_source_file_index>
218

> <i_lp_mmshare_version>
43012

> <i_f3d_flags>
0

> <s_epik_input>
W0NIM11bQ0hdKFtDSDNdKU9jMVtjSF1jKFtjSF1bY0hdbjEpW0NIMl1bTkhdYyhuW2NIXW4yKWMoYzIzKW5bY0hdbjNbQ0BASF00T1tDQEhdKFtDSDJdW09IXSlbQ0BASF0oW09IXSlbQ0BIXTRbT0hd

> <s_epik_cmdline>
J2VwaWtfcHl0aG9uJywgJy1waCcsICc3LjAnLCAnLXRuJywgJzgnLCAnLW1hJywgJzIwMCcsICctbWV0YWxfYmluZGluZycsICctaW1hZScsICc8aW5maWxlLm1hZT4nLCAnLW9tYWUnLCAnPG91dGZpbGUubWFlPic=

> <r_lp_tautomer_probability>
1

> <r_epik_Ionization_Penalty>
0.00457014

> <r_epik_Ionization_Penalty_Charging>
0

> <r_epik_Ionization_Penalty_Neutral>
0.00457014

> <r_epik_State_Penalty>
-0

> <r_epik_Charging_Adjusted_Penalty>
0

> <i_epik_Tot_Q>
0

> <i_epik_Tot_abs_Q>
0

> <r_epik_Metal_State_Penalty>
-0

> <b_epik_Metal_Only>
0

> <s_epik_Chemistry_Notes>
This compound contains an acetal/aminal-like group ( X-CH(R)-Y where X, Y are N, S, or O) that may be acid/base labile, releasing an aldehyde.

> <s_lp_Force_Field>
OPLS_2005

> <r_lp_Energy>
38.9245

> <b_lp_Chiralities_Consistent>
1

> <s_lp_Variant>
AV-unprocessed.smi:218-9

> <Gold.Version>
5.8.1

> <Gold.Id.Protein>
6NUR|6NUR_protein|mol2

> <Gold.PLP.Fitness>
52.3305

> <Gold.PLP.PLP>
-38.7949

> <Gold.PLP.part.hbond>
-4.4986

> <Gold.PLP.part.metal>
0.0000

> <Gold.PLP.part.buried>
-2.1854

> <Gold.PLP.part.nonpolar>
-31.9052

> <Gold.PLP.part.repulsive>
1.3198

> <Gold.PLP.ligand.clash>
0.0000

> <Gold.PLP.ligand.torsion>
0.7402

> <Gold.PLP.Chemscore.Hbond>
2.9263

> <Gold.PLP.Chemscore.CHOScore>
1.9280

> <Gold.PLP.Chemscore.Metal>
0.0000

> <Gold.Chemscore.Hbonds>
donor molecule, donor type, donor heavy atom, donor atom, acceptor molecule, acceptor atom, score
      L1  H    25    51       P1  7921  1.00
      L1  H    27    52       P1  7921  0.89
      P1  H  7997  8009       L1     4  1.00
      L1  C    12    46       P1 10747  0.87
      L1  C    29    54       P1  7957  0.85

> <Gold.PLP.Chemscore.Internal.Correction>
0.4532

> <Gold.Rescore>
     Score         DG    S(hbond)    S(metal)    S(lipo)     H(rot)  DE(clash)    DE(int)     intcor
      9.73     -11.85       2.70        0.00      84.63       4.90       0.59       1.53       ----

> <Gold.Chemscore.Fitness>
9.7309

> <Gold.Chemscore.DG>
-11.8496

> <Gold.Chemscore.ZeroCoef>
-5.4800

> <Gold.Chemscore.Hbond>
2.7005

> <Gold.Chemscore.Metal>
0.0000

> <Gold.Chemscore.Lipo>
84.6269

> <Gold.Chemscore.Internal_Hbond>
0.0000

> <Gold.Chemscore.DEClash>
0.5871

> <Gold.Chemscore.DEInternal>
1.5315

> <Gold.Chemscore.Rot>
4.9029

> <Gold.Chemscore.Internal.Correction>
   9.000000E+99

> <Gold.Chemscore.Hbonds>
donor molecule, donor type, donor heavy atom, donor atom, acceptor molecule, acceptor atom, score
      L1  H    25    51       P1  7921  0.98
      L1  H    27    52       P1  7921  0.84
      P1  H  7997  8009       L1     4  0.57

> <Gold.Chemscore.Hbond.Weighted>
-9.0198

> <Gold.Chemscore.Metal.Weighted>
-0.0000

> <Gold.Chemscore.Lipo.Weighted>
-9.9013

> <Gold.Chemscore.Internal_Hbond.Weighted>
0.0000

> <Gold.Chemscore.DEClash.Weighted>
0.5871

> <Gold.Chemscore.DEInternal.Weighted>
1.5315

> <Gold.Chemscore.Rot.Weighted>
12.5515

> <Gold.Chemscore.Internal.Correction.Weighted>
   9.000000E+99

> <Gold.Protein.RotatedTorsions>
[ 6907 6896 6895 6894 ] final  -71.54 input  -60.11 | X-H torsion
[ 7974 7965 7964 7962 ] final   43.77 input  175.53 | X-H torsion
[ 8008 7997 7996 7995 ] final -176.37 input   59.86 | X-H torsion
[ 10167 10162 10161 10158 ] final -147.17 input  -65.29 | X-H torsion
[ 10718 10713 10712 10709 ] final -178.80 input   66.30 | X-H torsion
[ 10763 10752 10751 10750 ] final  -70.14 input  -60.55 | X-H torsion
[ 11005 11000 10999 10996 ] final   75.44 input  -57.11 | X-H torsion

> <Gold.Protein.ActiveResidues>
 VAL166  LYS551  ARG553  GLY616  TRP617  ASP618  TYR619  PRO620  LYS621  CYS622 
 ASP623  PHE694  ASN695  SER759  ASP760  ASP761  ALA762  ILE779  LEU786  VAL792 
 PHE793  MET794  SER795  GLU796  ALA797  LYS798  CYS799  TRP800  GLU811  SER814 

> <Gold.Protein.RotatedAtoms>
  150.7208  134.5293  159.5691 H   0  0  0  0  0  0  0  0  0  0  0  0  # atno 6907 bound_to 6896
  152.2830  134.7804  160.0402 H   0  0  0  0  0  0  0  0  0  0  0  0  # atno 6908 bound_to 6896
  151.8444  133.3394  159.3690 H   0  0  0  0  0  0  0  0  0  0  0  0  # atno 6909 bound_to 6896
  146.0626  139.5149  142.9648 H   0  0  0  0  0  0  0  0  0  0  0  0  # atno 7974 bound_to 7965
  155.9940  140.1207  157.0611 H   0  0  0  0  0  0  0  0  0  0  0  0  # atno 8008 bound_to 7997
  154.4220  140.1120  156.5673 H   0  0  0  0  0  0  0  0  0  0  0  0  # atno 8009 bound_to 7997
  155.6304  140.3473  155.4683 H   0  0  0  0  0  0  0  0  0  0  0  0  # atno 8010 bound_to 7997
  139.7646  143.8326  152.2614 H   0  0  0  0  0  0  0  0  0  0  0  0  # atno 10167 bound_to 10162
  156.8496  130.9714  151.3093 H   0  0  0  0  0  0  0  0  0  0  0  0  # atno 10718 bound_to 10713
  154.4134  135.6003  153.5966 H   0  0  0  0  0  0  0  0  0  0  0  0  # atno 10763 bound_to 10752
  152.9791  135.5935  154.4043 H   0  0  0  0  0  0  0  0  0  0  0  0  # atno 10764 bound_to 10752
  154.3858  135.2841  155.2162 H   0  0  0  0  0  0  0  0  0  0  0  0  # atno 10765 bound_to 10752
  139.9343  134.7518  156.1272 H   0  0  0  0  0  0  0  0  0  0  0  0  # atno 11005 bound_to 11000
  145.6533  141.0258  143.1748 LP  0  0  0  0  0  0  0  0  0  0  0  0  # atno 17320 bound_to 7965
  144.7184  139.8116  143.7390 LP  0  0  0  0  0  0  0  0  0  0  0  0  # atno 17321 bound_to 7965
  139.8342  144.7240  150.9412 LP  0  0  0  0  0  0  0  0  0  0  0  0  # atno 17342 bound_to 10162
  140.7810  143.4042  151.1099 LP  0  0  0  0  0  0  0  0  0  0  0  0  # atno 17343 bound_to 10162
  157.6311  130.8729  149.9275 LP  0  0  0  0  0  0  0  0  0  0  0  0  # atno 17370 bound_to 10713
  156.0835  130.3670  150.0533 LP  0  0  0  0  0  0  0  0  0  0  0  0  # atno 17371 bound_to 10713
  141.0949  133.6699  156.2623 LP  0  0  0  0  0  0  0  0  0  0  0  0  # atno 17394 bound_to 11000
  140.6116  134.5452  157.5534 LP  0  0  0  0  0  0  0  0  0  0  0  0  # atno 17395 bound_to 11000

$$$$
