AV-unprocessed.smi:1381|AV-procd|sdf|5619|dock1
  -GOLD-   22720 5233D 1   1.00000     0.00000
 Structure written by MMmdl.
 42 43  0  0  0  0  0  0  0  0  3 V2000
  146.5475  134.1953  162.7345 C   0  0  0  0  0  0  0  0  0  0  0  0
  147.0822  135.2303  161.8054 C   0  0  0  0  0  0  0  0  0  0  0  0
  147.6867  135.1596  160.5819 C   0  0  0  0  0  0  0  0  0  0  0  0
  147.9403  136.5220  160.2697 C   0  0  0  0  0  0  0  0  0  0  0  0
  148.5733  136.8786  159.0497 N   0  0  0  0  0  0  0  0  0  0  0  0
  149.2633  136.0981  158.1977 C   0  0  0  0  0  0  0  0  0  0  0  0
  149.4097  134.8929  158.4330 O   0  0  0  0  0  0  0  0  0  0  0  0
  149.7322  136.7963  157.1275 N   0  5  0  0  0  0  0  0  0  0  0  0
  148.9779  137.8240  156.4083 C   0  0  0  0  0  0  0  0  0  0  0  0
  148.5895  137.3039  155.0122 C   0  0  0  0  0  0  0  0  0  0  0  0
  149.2092  138.1193  153.9302 N   0  3  1  0  0  0  0  0  0  0  0  0
  148.7237  139.5213  153.8545 C   0  0  0  0  0  0  0  0  0  0  0  0
  149.3855  140.4037  154.9353 C   0  0  2  0  0  0  0  0  0  0  0  0
  148.9887  141.8777  154.7974 C   0  0  0  0  0  0  0  0  0  0  0  0
  150.8016  140.3116  154.8144 O   0  0  0  0  0  0  0  0  0  0  0  0
  151.2872  138.9861  155.0028 C   0  0  2  0  0  0  0  0  0  0  0  0
  152.8184  139.0259  154.9470 C   0  0  0  0  0  0  0  0  0  0  0  0
  150.6915  138.0776  153.9093 C   0  0  0  0  0  0  0  0  0  0  0  0
  147.5238  137.3494  161.2169 N   0  0  0  0  0  0  0  0  0  0  0  0
  146.9728  136.5260  162.2059 O   0  0  0  0  0  0  0  0  0  0  0  0
  146.6488  133.1975  162.3073 H   0  0  0  0  0  0  0  0  0  0  0  0
  145.4912  134.3696  162.9397 H   0  0  0  0  0  0  0  0  0  0  0  0
  147.0851  134.2134  163.6825 H   0  0  0  0  0  0  0  0  0  0  0  0
  147.9123  134.2749  160.0055 H   0  0  0  0  0  0  0  0  0  0  0  0
  148.4870  137.8478  158.7829 H   0  0  0  0  0  0  0  0  0  0  0  0
  148.0699  138.1189  156.9357 H   0  0  0  0  0  0  0  0  0  0  0  0
  149.5640  138.7356  156.2913 H   0  0  0  0  0  0  0  0  0  0  0  0
  148.8836  136.2583  154.9195 H   0  0  0  0  0  0  0  0  0  0  0  0
  147.5017  137.3104  154.9242 H   0  0  0  0  0  0  0  0  0  0  0  0
  148.9673  139.9108  152.8651 H   0  0  0  0  0  0  0  0  0  0  0  0
  147.6364  139.5517  153.9381 H   0  0  0  0  0  0  0  0  0  0  0  0
  149.0921  140.0649  155.9300 H   0  0  0  0  0  0  0  0  0  0  0  0
  147.9099  142.0043  154.8932 H   0  0  0  0  0  0  0  0  0  0  0  0
  149.2883  142.2795  153.8288 H   0  0  0  0  0  0  0  0  0  0  0  0
  149.4635  142.4830  155.5702 H   0  0  0  0  0  0  0  0  0  0  0  0
  150.9879  138.6297  155.9899 H   0  0  0  0  0  0  0  0  0  0  0  0
  153.2423  138.0325  155.0963 H   0  0  0  0  0  0  0  0  0  0  0  0
  153.2202  139.6783  155.7228 H   0  0  0  0  0  0  0  0  0  0  0  0
  153.1695  139.3989  153.9843 H   0  0  0  0  0  0  0  0  0  0  0  0
  151.0426  137.0500  154.0144 H   0  0  0  0  0  0  0  0  0  0  0  0
  151.0274  138.4162  152.9283 H   0  0  0  0  0  0  0  0  0  0  0  0
  148.9096  137.6594  153.0810 H   0  0  0  0  0  0  0  0  0  0  0  0
  1  2  1  0  0  0  0
  1 21  1  0  0  0  0
  1 22  1  0  0  0  0
  1 23  1  0  0  0  0
  2 20  1  0  0  0  0
  2  3  2  0  0  0  0
  3  4  1  0  0  0  0
  3 24  1  0  0  0  0
  4  5  1  0  0  0  0
  4 19  2  0  0  0  0
  5  6  1  0  0  0  0
  5 25  1  0  0  0  0
  6  7  2  0  0  0  0
  6  8  1  0  0  0  0
  8  9  1  0  0  0  0
  9 10  1  0  0  0  0
  9 26  1  0  0  0  0
  9 27  1  0  0  0  0
 10 11  1  0  0  0  0
 10 28  1  0  0  0  0
 10 29  1  0  0  0  0
 11 18  1  0  0  0  0
 11 12  1  0  0  0  0
 11 42  1  0  0  0  0
 12 13  1  0  0  0  0
 12 30  1  0  0  0  0
 12 31  1  0  0  0  0
 13 14  1  0  0  0  0
 13 15  1  0  0  0  0
 13 32  1  0  0  0  0
 14 33  1  0  0  0  0
 14 34  1  0  0  0  0
 14 35  1  0  0  0  0
 15 16  1  0  0  0  0
 16 17  1  0  0  0  0
 16 18  1  0  0  0  0
 16 36  1  0  0  0  0
 17 37  1  0  0  0  0
 17 38  1  0  0  0  0
 17 39  1  0  0  0  0
 18 40  1  0  0  0  0
 18 41  1  0  0  0  0
 19 20  1  0  0  0  0
M  CHG  1   8  -1
M  CHG  1  11   1
M  END
> <s_m_source_file>
AV-unprocessed.smi

> <i_m_source_file_index>
1381

> <i_lp_mmshare_version>
43012

> <i_f3d_flags>
0

> <s_epik_input>
W0NIM11jMVtjSF1jKG5vMSlbTkhdQyg9TylbTkhdW0NIMl1bQ0gyXU4yW0NIMl1bQ0BASF0oW0NIM10pT1tDQEBIXShbQ0gzXSlbQ0gyXTI=

> <s_epik_cmdline>
J2VwaWtfcHl0aG9uJywgJy1waCcsICc3LjAnLCAnLXRuJywgJzgnLCAnLW1hJywgJzIwMCcsICctbWV0YWxfYmluZGluZycsICctaW1hZScsICc8aW5maWxlLm1hZT4nLCAnLW9tYWUnLCAnPG91dGZpbGUubWFlPic=

> <r_epik_Ionization_Penalty>
6.8073

> <r_epik_Ionization_Penalty_Charging>
6.80729

> <r_epik_Ionization_Penalty_Neutral>
5.65391e-06

> <r_epik_State_Penalty>
7.47323

> <r_epik_Charging_Adjusted_Penalty>
14.2805

> <i_epik_Tot_Q>
0

> <i_epik_Tot_abs_Q>
2

> <r_epik_Metal_State_Penalty>
3.40035

> <b_epik_Metal_Only>
1

> <s_lp_Force_Field>
OPLS_2005

> <r_lp_Energy>
13.1386

> <b_lp_Chiralities_Consistent>
1

> <s_lp_Variant>
AV-unprocessed.smi:1381-18

> <Gold.Version>
5.8.1

> <Gold.Id.Protein>
6NUR|6NUR_protein|mol2

> <Gold.PLP.Fitness>
44.8601

> <Gold.PLP.PLP>
-30.8239

> <Gold.PLP.part.hbond>
-5.0000

> <Gold.PLP.part.metal>
0.0000

> <Gold.PLP.part.buried>
0.7087

> <Gold.PLP.part.nonpolar>
-27.2753

> <Gold.PLP.part.repulsive>
0.2519

> <Gold.PLP.ligand.clash>
1.9451

> <Gold.PLP.ligand.torsion>
0.8123

> <Gold.PLP.Chemscore.Hbond>
5.8560

> <Gold.PLP.Chemscore.CHOScore>
0.0000

> <Gold.PLP.Chemscore.Metal>
0.0000

> <Gold.Chemscore.Hbonds>
donor molecule, donor type, donor heavy atom, donor atom, acceptor molecule, acceptor atom, score
      L1  H    11    42       P1  7948  2.00
      P1  H  6896  6908       L1     7  1.00
      P1  H  6931  6943       L1    19  0.83
      P1  H  6934  6947       L1    19  0.91
      P1  H  7989  7998       L1    15  1.00

> <Gold.PLP.Chemscore.Internal.Correction>
0.0379

> <Gold.Rescore>
     Score         DG    S(hbond)    S(metal)    S(lipo)     H(rot)  DE(clash)    DE(int)     intcor
     19.16     -24.05       4.25        0.00      71.81       1.58       0.43       4.45       ----

> <Gold.Chemscore.Fitness>
19.1642

> <Gold.Chemscore.DG>
-24.0489

> <Gold.Chemscore.ZeroCoef>
-5.4800

> <Gold.Chemscore.Hbond>
4.2544

> <Gold.Chemscore.Metal>
0.0000

> <Gold.Chemscore.Lipo>
71.8126

> <Gold.Chemscore.Internal_Hbond>
0.0000

> <Gold.Chemscore.DEClash>
0.4346

> <Gold.Chemscore.DEInternal>
4.4501

> <Gold.Chemscore.Rot>
1.5792

> <Gold.Chemscore.Internal.Correction>
   9.000000E+99

> <Gold.Chemscore.Hbonds>
donor molecule, donor type, donor heavy atom, donor atom, acceptor molecule, acceptor atom, score
      L1  H    11    42       P1  7948  0.96
      P1  H  6896  6908       L1     7  0.99
      P1  H  6931  6943       L1    19  0.40
      P1  H  6934  6947       L1    19  0.89
      P1  H  7989  7998       L1    15  0.49

> <Gold.Chemscore.Hbond.Weighted>
-14.2097

> <Gold.Chemscore.Metal.Weighted>
-0.0000

> <Gold.Chemscore.Lipo.Weighted>
-8.4021

> <Gold.Chemscore.Internal_Hbond.Weighted>
0.0000

> <Gold.Chemscore.DEClash.Weighted>
0.4346

> <Gold.Chemscore.DEInternal.Weighted>
4.4501

> <Gold.Chemscore.Rot.Weighted>
4.0428

> <Gold.Chemscore.Internal.Correction.Weighted>
   9.000000E+99

> <Gold.Protein.RotatedTorsions>
[ 6907 6896 6895 6894 ] final  144.30 input  -60.11 | X-H torsion
[ 7974 7965 7964 7962 ] final   30.92 input  175.53 | X-H torsion
[ 8008 7997 7996 7995 ] final  -73.89 input   59.86 | X-H torsion
[ 10167 10162 10161 10158 ] final -139.90 input  -65.29 | X-H torsion
[ 10718 10713 10712 10709 ] final   50.30 input   66.30 | X-H torsion
[ 10763 10752 10751 10750 ] final -177.54 input  -60.55 | X-H torsion
[ 11005 11000 10999 10996 ] final  152.09 input  -57.11 | X-H torsion

> <Gold.Protein.ActiveResidues>
 VAL166  LYS551  ARG553  GLY616  TRP617  ASP618  TYR619  PRO620  LYS621  CYS622 
 ASP623  PHE694  ASN695  SER759  ASP760  ASP761  ALA762  ILE779  LEU786  VAL792 
 PHE793  MET794  SER795  GLU796  ALA797  LYS798  CYS799  TRP800  GLU811  SER814 

> <Gold.Protein.RotatedAtoms>
  152.1954  133.4803  159.5030 H   0  0  0  0  0  0  0  0  0  0  0  0  # atno 6907 bound_to 6896
  150.6959  134.1658  159.4202 H   0  0  0  0  0  0  0  0  0  0  0  0  # atno 6908 bound_to 6896
  151.9574  135.0140  160.0596 H   0  0  0  0  0  0  0  0  0  0  0  0  # atno 6909 bound_to 6896
  146.1582  139.6725  142.9052 H   0  0  0  0  0  0  0  0  0  0  0  0  # atno 7974 bound_to 7965
  154.5285  140.0771  156.8302 H   0  0  0  0  0  0  0  0  0  0  0  0  # atno 8008 bound_to 7997
  155.3425  140.3408  155.4221 H   0  0  0  0  0  0  0  0  0  0  0  0  # atno 8009 bound_to 7997
  156.1756  140.1634  156.8355 H   0  0  0  0  0  0  0  0  0  0  0  0  # atno 8010 bound_to 7997
  139.8335  143.7416  152.2665 H   0  0  0  0  0  0  0  0  0  0  0  0  # atno 10167 bound_to 10162
  157.4871  130.8352  149.8160 H   0  0  0  0  0  0  0  0  0  0  0  0  # atno 10718 bound_to 10713
  154.5589  135.2818  155.0938 H   0  0  0  0  0  0  0  0  0  0  0  0  # atno 10763 bound_to 10752
  154.2355  135.6366  153.5193 H   0  0  0  0  0  0  0  0  0  0  0  0  # atno 10764 bound_to 10752
  153.0023  135.5547  154.6177 H   0  0  0  0  0  0  0  0  0  0  0  0  # atno 10765 bound_to 10752
  140.1276  134.8823  157.2160 H   0  0  0  0  0  0  0  0  0  0  0  0  # atno 11005 bound_to 11000
  145.4655  141.0434  143.2728 LP  0  0  0  0  0  0  0  0  0  0  0  0  # atno 17320 bound_to 7965
  144.7991  139.6175  143.7079 LP  0  0  0  0  0  0  0  0  0  0  0  0  # atno 17321 bound_to 7965
  139.7631  144.7500  151.0335 LP  0  0  0  0  0  0  0  0  0  0  0  0  # atno 17342 bound_to 10162
  140.7804  143.4729  151.0122 LP  0  0  0  0  0  0  0  0  0  0  0  0  # atno 17343 bound_to 10162
  156.0153  130.3816  150.2132 LP  0  0  0  0  0  0  0  0  0  0  0  0  # atno 17370 bound_to 10713
  157.0319  131.0010  151.3309 LP  0  0  0  0  0  0  0  0  0  0  0  0  # atno 17371 bound_to 10713
  140.2883  134.3270  155.7322 LP  0  0  0  0  0  0  0  0  0  0  0  0  # atno 17394 bound_to 11000
  141.2164  133.7519  156.9466 LP  0  0  0  0  0  0  0  0  0  0  0  0  # atno 17395 bound_to 11000

$$$$
