AV-unprocessed.smi:1887|AV-procd|sdf|7656|dock8
  -GOLD-   22720 9393D 1   1.00000     0.00000
 Structure written by MMmdl.
 43 45  0  0  0  0  0  0  0  0  2 V2000
  147.2218  141.4137  157.4163 C   0  0  0  0  0  0  0  0  0  0  0  0
  148.3198  141.1056  158.2553 O   0  0  0  0  0  0  0  0  0  0  0  0
  149.1976  142.2047  158.4336 C   0  0  0  0  0  0  0  0  0  0  0  0
  150.0621  142.3810  157.1778 C   0  0  0  0  0  0  0  0  0  0  0  0
  151.0819  141.3410  157.0621 N   0  0  0  0  0  0  0  0  0  0  0  0
  152.1152  141.0863  157.9059 C   0  0  0  0  0  0  0  0  0  0  0  0
  152.3226  141.8503  159.0732 N   0  0  0  0  0  0  0  0  0  0  0  0
  151.8309  143.1039  159.1573 N   0  0  0  0  0  0  0  0  0  0  0  0
  152.2045  143.5361  160.3496 C   0  0  0  0  0  0  0  0  0  0  0  0
  151.8001  144.9161  160.7817 C   0  0  0  0  0  0  0  0  0  0  0  0
  152.9681  142.5673  161.0647 C   0  0  0  0  0  0  0  0  0  0  0  0
  153.5621  142.7031  162.4399 C   0  0  0  0  0  0  0  0  0  0  0  0
  153.0285  141.4998  160.2097 C   0  0  0  0  0  0  0  0  0  0  0  0
  153.6961  140.1698  160.3672 C   0  0  0  0  0  0  0  0  0  0  0  0
  152.8834  140.0509  157.5618 N   0  0  0  0  0  0  0  0  0  0  0  0
  152.2877  139.6081  156.3895 C   0  0  0  0  0  0  0  0  0  0  0  0
  151.2000  140.3617  156.0722 C   0  0  0  0  0  0  0  0  0  0  0  0
  150.3437  140.1177  154.8914 C   0  0  0  0  0  0  0  0  0  0  0  0
  149.3660  140.8261  154.6593 O   0  0  0  0  0  0  0  0  0  0  0  0
  150.7771  139.0481  154.1517 N   0  5  0  0  0  0  0  0  0  0  0  0
  151.8711  138.2582  154.4338 C   0  0  0  0  0  0  0  0  0  0  0  0
  152.1886  137.3079  153.7172 O   0  0  0  0  0  0  0  0  0  0  0  0
  152.6361  138.5230  155.5397 N   0  0  0  0  0  0  0  0  0  0  0  0
  153.8035  137.6986  155.8652 C   0  0  0  0  0  0  0  0  0  0  0  0
  146.5809  140.5376  157.3187 H   0  0  0  0  0  0  0  0  0  0  0  0
  147.5572  141.6984  156.4183 H   0  0  0  0  0  0  0  0  0  0  0  0
  146.6233  142.2254  157.8314 H   0  0  0  0  0  0  0  0  0  0  0  0
  148.6260  143.1135  158.6270 H   0  0  0  0  0  0  0  0  0  0  0  0
  149.8364  142.0313  159.3005 H   0  0  0  0  0  0  0  0  0  0  0  0
  149.4429  142.3740  156.2818 H   0  0  0  0  0  0  0  0  0  0  0  0
  150.5338  143.3621  157.1926 H   0  0  0  0  0  0  0  0  0  0  0  0
  152.3692  145.2458  161.6508 H   0  0  0  0  0  0  0  0  0  0  0  0
  150.7433  144.9473  161.0469 H   0  0  0  0  0  0  0  0  0  0  0  0
  151.9660  145.6430  159.9861 H   0  0  0  0  0  0  0  0  0  0  0  0
  154.3196  141.9447  162.6376 H   0  0  0  0  0  0  0  0  0  0  0  0
  152.8015  142.6072  163.2147 H   0  0  0  0  0  0  0  0  0  0  0  0
  154.0429  143.6714  162.5782 H   0  0  0  0  0  0  0  0  0  0  0  0
  153.7463  139.8796  161.4163 H   0  0  0  0  0  0  0  0  0  0  0  0
  154.7127  140.2025  159.9757 H   0  0  0  0  0  0  0  0  0  0  0  0
  153.1574  139.3846  159.8366 H   0  0  0  0  0  0  0  0  0  0  0  0
  154.5030  137.6744  155.0284 H   0  0  0  0  0  0  0  0  0  0  0  0
  153.4958  136.6751  156.0830 H   0  0  0  0  0  0  0  0  0  0  0  0
  154.3511  138.0684  156.7319 H   0  0  0  0  0  0  0  0  0  0  0  0
  1  2  1  0  0  0  0
  1 25  1  0  0  0  0
  1 26  1  0  0  0  0
  1 27  1  0  0  0  0
  2  3  1  0  0  0  0
  3  4  1  0  0  0  0
  3 28  1  0  0  0  0
  3 29  1  0  0  0  0
  4  5  1  0  0  0  0
  4 30  1  0  0  0  0
  4 31  1  0  0  0  0
  5 17  1  0  0  0  0
  5  6  1  0  0  0  0
  6  7  1  0  0  0  0
  6 15  2  0  0  0  0
  7 13  1  0  0  0  0
  7  8  1  0  0  0  0
  8  9  2  0  0  0  0
  9 10  1  0  0  0  0
  9 11  1  0  0  0  0
 10 32  1  0  0  0  0
 10 33  1  0  0  0  0
 10 34  1  0  0  0  0
 11 12  1  0  0  0  0
 11 13  2  0  0  0  0
 12 35  1  0  0  0  0
 12 36  1  0  0  0  0
 12 37  1  0  0  0  0
 13 14  1  0  0  0  0
 14 38  1  0  0  0  0
 14 39  1  0  0  0  0
 14 40  1  0  0  0  0
 15 16  1  0  0  0  0
 16 23  1  0  0  0  0
 16 17  2  0  0  0  0
 17 18  1  0  0  0  0
 18 19  2  0  0  0  0
 18 20  1  0  0  0  0
 20 21  1  0  0  0  0
 21 22  2  0  0  0  0
 21 23  1  0  0  0  0
 23 24  1  0  0  0  0
 24 41  1  0  0  0  0
 24 42  1  0  0  0  0
 24 43  1  0  0  0  0
M  CHG  1  20  -1
M  END
> <s_m_source_file>
AV-unprocessed.smi

> <i_m_source_file_index>
1887

> <i_lp_mmshare_version>
43012

> <i_f3d_flags>
0

> <s_epik_input>
W0NIM11uMWMoPU8pW25IXWMoPU8pYyhjMTIpbihbQ0gyXVtDSDJdT1tDSDNdKWMobjIpLW4zbmMoW0NIM10pYyhbQ0gzXSljM1tDSDNd

> <s_epik_cmdline>
J2VwaWtfcHl0aG9uJywgJy1waCcsICc3LjAnLCAnLXRuJywgJzgnLCAnLW1hJywgJzIwMCcsICctbWV0YWxfYmluZGluZycsICctaW1hZScsICc8aW5maWxlLm1hZT4nLCAnLW9tYWUnLCAnPG91dGZpbGUubWFlPic=

> <r_lp_tautomer_probability>
1

> <r_epik_Ionization_Penalty>
3.98818

> <r_epik_Ionization_Penalty_Charging>
0.0180637

> <r_epik_Ionization_Penalty_Neutral>
3.97012

> <r_epik_State_Penalty>
3.96767

> <r_epik_Charging_Adjusted_Penalty>
3.98573

> <i_epik_Tot_Q>
-1

> <i_epik_Tot_abs_Q>
1

> <r_epik_Metal_State_Penalty>
0.612715

> <b_epik_Metal_Only>
1

> <s_lp_Force_Field>
OPLS_2005

> <r_lp_Energy>
28.3599

> <b_lp_Chiralities_Consistent>
1

> <s_lp_Variant>
AV-unprocessed.smi:1887-2

> <Gold.Version>
5.8.1

> <Gold.Id.Protein>
6NUR|6NUR_protein|mol2

> <Gold.PLP.Fitness>
47.6667

> <Gold.PLP.PLP>
-42.5318

> <Gold.PLP.part.hbond>
-3.6625

> <Gold.PLP.part.metal>
0.0000

> <Gold.PLP.part.buried>
0.1315

> <Gold.PLP.part.nonpolar>
-41.5901

> <Gold.PLP.part.repulsive>
2.8204

> <Gold.PLP.ligand.clash>
0.0000

> <Gold.PLP.ligand.torsion>
0.3281

> <Gold.PLP.Chemscore.Hbond>
1.7920

> <Gold.PLP.Chemscore.CHOScore>
0.0000

> <Gold.PLP.Chemscore.Metal>
0.0000

> <Gold.Chemscore.Hbonds>
donor molecule, donor type, donor heavy atom, donor atom, acceptor molecule, acceptor atom, score
      P1  H  7997  8010       L1    15  0.85
      P1  H 10752 10763       L1    22  0.93

> <Gold.PLP.Chemscore.Internal.Correction>
0.4152

> <Gold.Rescore>
     Score         DG    S(hbond)    S(metal)    S(lipo)     H(rot)  DE(clash)    DE(int)     intcor
      9.20     -13.80       0.61        0.00      86.02       1.48       0.34       4.26       ----

> <Gold.Chemscore.Fitness>
9.1972

> <Gold.Chemscore.DG>
-13.7974

> <Gold.Chemscore.ZeroCoef>
-5.4800

> <Gold.Chemscore.Hbond>
0.6137

> <Gold.Chemscore.Metal>
0.0000

> <Gold.Chemscore.Lipo>
86.0230

> <Gold.Chemscore.Internal_Hbond>
0.0000

> <Gold.Chemscore.DEClash>
0.3431

> <Gold.Chemscore.DEInternal>
4.2572

> <Gold.Chemscore.Rot>
1.4832

> <Gold.Chemscore.Internal.Correction>
   9.000000E+99

> <Gold.Chemscore.Hbonds>
donor molecule, donor type, donor heavy atom, donor atom, acceptor molecule, acceptor atom, score
      P1  H  7997  8010       L1    15  0.19
      P1  H 10752 10763       L1    22  0.90

> <Gold.Chemscore.Hbond.Weighted>
-2.0497

> <Gold.Chemscore.Metal.Weighted>
-0.0000

> <Gold.Chemscore.Lipo.Weighted>
-10.0647

> <Gold.Chemscore.Internal_Hbond.Weighted>
0.0000

> <Gold.Chemscore.DEClash.Weighted>
0.3431

> <Gold.Chemscore.DEInternal.Weighted>
4.2572

> <Gold.Chemscore.Rot.Weighted>
3.7970

> <Gold.Chemscore.Internal.Correction.Weighted>
   9.000000E+99

> <Gold.Protein.RotatedTorsions>
[ 6907 6896 6895 6894 ] final -144.82 input  -60.11 | X-H torsion
[ 7974 7965 7964 7962 ] final -162.24 input  175.53 | X-H torsion
[ 8008 7997 7996 7995 ] final   33.66 input   59.86 | X-H torsion
[ 10167 10162 10161 10158 ] final  127.22 input  -65.29 | X-H torsion
[ 10718 10713 10712 10709 ] final   11.95 input   66.30 | X-H torsion
[ 10763 10752 10751 10750 ] final   11.56 input  -60.55 | X-H torsion
[ 11005 11000 10999 10996 ] final -163.82 input  -57.11 | X-H torsion

> <Gold.Protein.ActiveResidues>
 VAL166  LYS551  ARG553  GLY616  TRP617  ASP618  TYR619  PRO620  LYS621  CYS622 
 ASP623  PHE694  ASN695  SER759  ASP760  ASP761  ALA762  ILE779  LEU786  VAL792 
 PHE793  MET794  SER795  GLU796  ALA797  LYS798  CYS799  TRP800  GLU811  SER814 

> <Gold.Protein.RotatedAtoms>
  151.1192  133.5116  159.2602 H   0  0  0  0  0  0  0  0  0  0  0  0  # atno 6907 bound_to 6896
  151.1880  135.0389  159.8830 H   0  0  0  0  0  0  0  0  0  0  0  0  # atno 6908 bound_to 6896
  152.5455  134.1036  159.8382 H   0  0  0  0  0  0  0  0  0  0  0  0  # atno 6909 bound_to 6896
  144.7364  140.3281  143.6158 H   0  0  0  0  0  0  0  0  0  0  0  0  # atno 7974 bound_to 7965
  155.1423  140.3267  155.4449 H   0  0  0  0  0  0  0  0  0  0  0  0  # atno 8008 bound_to 7997
  156.2601  140.1991  156.6488 H   0  0  0  0  0  0  0  0  0  0  0  0  # atno 8009 bound_to 7997
  154.6533  140.0556  156.9967 H   0  0  0  0  0  0  0  0  0  0  0  0  # atno 8010 bound_to 7997
  139.5590  144.6868  151.4099 H   0  0  0  0  0  0  0  0  0  0  0  0  # atno 10167 bound_to 10162
  157.0031  130.6087  149.5698 H   0  0  0  0  0  0  0  0  0  0  0  0  # atno 10718 bound_to 10713
  153.1913  135.6843  153.8348 H   0  0  0  0  0  0  0  0  0  0  0  0  # atno 10763 bound_to 10752
  153.7646  135.3205  155.3343 H   0  0  0  0  0  0  0  0  0  0  0  0  # atno 10764 bound_to 10752
  154.8119  135.4711  154.0638 H   0  0  0  0  0  0  0  0  0  0  0  0  # atno 10765 bound_to 10752
  140.5938  134.5017  157.5196 H   0  0  0  0  0  0  0  0  0  0  0  0  # atno 11005 bound_to 11000
  145.7500  139.1790  143.2327 LP  0  0  0  0  0  0  0  0  0  0  0  0  # atno 17320 bound_to 7965
  146.1068  140.7477  142.9522 LP  0  0  0  0  0  0  0  0  0  0  0  0  # atno 17321 bound_to 7965
  140.6867  143.7958  150.7196 LP  0  0  0  0  0  0  0  0  0  0  0  0  # atno 17342 bound_to 10162
  140.1427  143.4426  152.2183 LP  0  0  0  0  0  0  0  0  0  0  0  0  # atno 17343 bound_to 10162
  156.0164  130.5258  150.8146 LP  0  0  0  0  0  0  0  0  0  0  0  0  # atno 17370 bound_to 10713
  157.5376  131.0939  150.9871 LP  0  0  0  0  0  0  0  0  0  0  0  0  # atno 17371 bound_to 10713
  139.9262  134.8051  156.1062 LP  0  0  0  0  0  0  0  0  0  0  0  0  # atno 17394 bound_to 11000
  141.0917  133.6711  156.2555 LP  0  0  0  0  0  0  0  0  0  0  0  0  # atno 17395 bound_to 11000

$$$$
