AV-unprocessed.smi:1260|AV-procd|sdf|5294|dock4
  -GOLD-   22720 4413D 1   1.00000     0.00000
 Structure written by MMmdl.
 37 39  0  0  0  0  0  0  0  0  2 V2000
  150.4685  140.1074  154.7784 O   0  0  0  0  0  0  0  0  0  0  0  0
  151.3522  139.9575  155.6215 C   0  0  0  0  0  0  0  0  0  0  0  0
  152.3772  138.8353  155.4682 C   0  0  0  0  0  0  0  0  0  0  0  0
  152.5601  138.1508  156.7341 N   0  0  0  0  0  0  0  0  0  0  0  0
  152.0766  136.9898  157.1806 C   0  0  0  0  0  0  0  0  0  0  0  0
  152.5281  136.7069  158.3930 N   0  0  0  0  0  0  0  0  0  0  0  0
  153.3413  137.7887  158.6869 N   0  0  0  0  0  0  0  0  0  0  0  0
  153.3647  138.6489  157.7063 N   0  0  0  0  0  0  0  0  0  0  0  0
  151.5080  140.7660  156.6809 N   0  0  0  0  0  0  0  0  0  0  0  0
  150.7398  141.9846  156.9166 C   0  0  1  0  0  0  0  0  0  0  0  0
  149.6265  141.8099  157.9582 C   0  0  0  0  0  0  0  0  0  0  0  0
  149.5087  143.1788  158.6530 C   0  0  0  0  0  0  0  0  0  0  0  0
  150.5492  144.0405  158.0484 N   0  3  1  0  0  0  0  0  0  0  0  0
  151.0504  145.1601  158.8864 C   0  0  0  0  0  0  0  0  0  0  0  0
  152.0724  144.7033  159.9409 C   0  0  0  0  0  0  0  0  0  0  0  0
  153.2113  143.9156  159.2860 C   0  0  0  0  0  0  0  0  0  0  0  0
  152.6351  142.7148  158.5299 C   0  0  0  0  0  0  0  0  0  0  0  0
  151.5803  143.1460  157.4765 C   0  0  1  0  0  0  0  0  0  0  0  0
  152.0535  138.1211  154.7094 H   0  0  0  0  0  0  0  0  0  0  0  0
  153.3359  139.2427  155.1449 H   0  0  0  0  0  0  0  0  0  0  0  0
  151.4104  136.3527  156.6177 H   0  0  0  0  0  0  0  0  0  0  0  0
  152.2591  140.5643  157.3255 H   0  0  0  0  0  0  0  0  0  0  0  0
  150.2766  142.3055  155.9810 H   0  0  0  0  0  0  0  0  0  0  0  0
  148.6883  141.5002  157.4964 H   0  0  0  0  0  0  0  0  0  0  0  0
  149.8960  141.0498  158.6932 H   0  0  0  0  0  0  0  0  0  0  0  0
  148.5253  143.6265  158.5071 H   0  0  0  0  0  0  0  0  0  0  0  0
  149.6676  143.0667  159.7261 H   0  0  0  0  0  0  0  0  0  0  0  0
  151.5222  145.8869  158.2240 H   0  0  0  0  0  0  0  0  0  0  0  0
  150.2110  145.6717  159.3587 H   0  0  0  0  0  0  0  0  0  0  0  0
  152.4750  145.5706  160.4650 H   0  0  0  0  0  0  0  0  0  0  0  0
  151.5846  144.0879  160.6976 H   0  0  0  0  0  0  0  0  0  0  0  0
  153.7667  144.5573  158.6007 H   0  0  0  0  0  0  0  0  0  0  0  0
  153.9193  143.5772  160.0433 H   0  0  0  0  0  0  0  0  0  0  0  0
  153.4479  142.1695  158.0491 H   0  0  0  0  0  0  0  0  0  0  0  0
  152.1909  142.0259  159.2495 H   0  0  0  0  0  0  0  0  0  0  0  0
  152.0894  143.6708  156.6667 H   0  0  0  0  0  0  0  0  0  0  0  0
  150.0966  144.4673  157.2526 H   0  0  0  0  0  0  0  0  0  0  0  0
  1  2  2  0  0  0  0
  2  3  1  0  0  0  0
  2  9  1  0  0  0  0
  3  4  1  0  0  0  0
  3 19  1  0  0  0  0
  3 20  1  0  0  0  0
  4  8  1  0  0  0  0
  4  5  1  0  0  0  0
  5  6  2  0  0  0  0
  5 21  1  0  0  0  0
  6  7  1  0  0  0  0
  7  8  2  0  0  0  0
  9 10  1  0  0  0  0
  9 22  1  0  0  0  0
 10 18  1  0  0  0  0
 10 11  1  0  0  0  0
 10 23  1  0  0  0  0
 11 12  1  0  0  0  0
 11 24  1  0  0  0  0
 11 25  1  0  0  0  0
 12 13  1  0  0  0  0
 12 26  1  0  0  0  0
 12 27  1  0  0  0  0
 13 18  1  0  0  0  0
 13 14  1  0  0  0  0
 13 37  1  0  0  0  0
 14 15  1  0  0  0  0
 14 28  1  0  0  0  0
 14 29  1  0  0  0  0
 15 16  1  0  0  0  0
 15 30  1  0  0  0  0
 15 31  1  0  0  0  0
 16 17  1  0  0  0  0
 16 32  1  0  0  0  0
 16 33  1  0  0  0  0
 17 18  1  0  0  0  0
 17 34  1  0  0  0  0
 17 35  1  0  0  0  0
 18 36  1  0  0  0  0
M  CHG  1  13   1
M  END
> <s_m_source_file>
AV-unprocessed.smi

> <i_m_source_file_index>
1260

> <i_lp_mmshare_version>
43012

> <i_f3d_flags>
0

> <s_epik_input>
bjFubltjSF1uMVtDSDJdQyg9TylbTkhdW0NASF0oW0NIMl1bQ0gyXTIpW0NAQEhdKE4yMylbQ0gyXVtDSDJdW0NIMl1bQ0gyXTM=

> <s_epik_cmdline>
J2VwaWtfcHl0aG9uJywgJy1waCcsICc3LjAnLCAnLXRuJywgJzgnLCAnLW1hJywgJzIwMCcsICctbWV0YWxfYmluZGluZycsICctaW1hZScsICc8aW5maWxlLm1hZT4nLCAnLW9tYWUnLCAnPG91dGZpbGUubWFlPic=

> <r_lp_tautomer_probability>
1

> <r_epik_Ionization_Penalty>
0.00234324

> <r_epik_Ionization_Penalty_Charging>
0.00233897

> <r_epik_Ionization_Penalty_Neutral>
4.26861e-06

> <r_epik_State_Penalty>
0.00161477

> <r_epik_Charging_Adjusted_Penalty>
0.00395374

> <i_epik_Tot_Q>
1

> <i_epik_Tot_abs_Q>
1

> <r_epik_Metal_State_Penalty>
-0

> <b_epik_Metal_Only>
0

> <s_lp_Force_Field>
OPLS_2005

> <r_lp_Energy>
37.4375

> <b_lp_Chiralities_Consistent>
1

> <s_lp_Variant>
AV-unprocessed.smi:1260-2

> <Gold.Version>
5.8.1

> <Gold.Id.Protein>
6NUR|6NUR_protein|mol2

> <Gold.PLP.Fitness>
44.2863

> <Gold.PLP.PLP>
-33.7242

> <Gold.PLP.part.hbond>
-3.8981

> <Gold.PLP.part.metal>
0.0000

> <Gold.PLP.part.buried>
-5.4006

> <Gold.PLP.part.nonpolar>
-24.6317

> <Gold.PLP.part.repulsive>
0.2399

> <Gold.PLP.ligand.clash>
0.0000

> <Gold.PLP.ligand.torsion>
0.7096

> <Gold.PLP.Chemscore.Hbond>
3.9913

> <Gold.PLP.Chemscore.CHOScore>
0.0000

> <Gold.PLP.Chemscore.Metal>
0.0000

> <Gold.Chemscore.Hbonds>
donor molecule, donor type, donor heavy atom, donor atom, acceptor molecule, acceptor atom, score
      L1  H    13    37       P1  8028  2.00
      P1  H  7989  7998       L1     1  0.70
      P1  H  7997  8010       L1     8  0.97

> <Gold.PLP.Chemscore.Internal.Correction>
0.0075

> <Gold.Rescore>
     Score         DG    S(hbond)    S(metal)    S(lipo)     H(rot)  DE(clash)    DE(int)     intcor
     16.58     -17.51       2.30        0.00      80.45       1.98       0.04       0.89       ----

> <Gold.Chemscore.Fitness>
16.5849

> <Gold.Chemscore.DG>
-17.5142

> <Gold.Chemscore.ZeroCoef>
-5.4800

> <Gold.Chemscore.Hbond>
2.2991

> <Gold.Chemscore.Metal>
0.0000

> <Gold.Chemscore.Lipo>
80.4516

> <Gold.Chemscore.Internal_Hbond>
0.0000

> <Gold.Chemscore.DEClash>
0.0377

> <Gold.Chemscore.DEInternal>
0.8915

> <Gold.Chemscore.Rot>
1.9757

> <Gold.Chemscore.Internal.Correction>
   9.000000E+99

> <Gold.Chemscore.Hbonds>
donor molecule, donor type, donor heavy atom, donor atom, acceptor molecule, acceptor atom, score
      L1  H    13    37       P1  8028  0.49
      P1  H  7989  7998       L1     1  0.07
      P1  H  7997  8010       L1     8  0.82

> <Gold.Chemscore.Hbond.Weighted>
-7.6791

> <Gold.Chemscore.Metal.Weighted>
-0.0000

> <Gold.Chemscore.Lipo.Weighted>
-9.4128

> <Gold.Chemscore.Internal_Hbond.Weighted>
0.0000

> <Gold.Chemscore.DEClash.Weighted>
0.0377

> <Gold.Chemscore.DEInternal.Weighted>
0.8915

> <Gold.Chemscore.Rot.Weighted>
5.0578

> <Gold.Chemscore.Internal.Correction.Weighted>
   9.000000E+99

> <Gold.Protein.RotatedTorsions>
[ 6907 6896 6895 6894 ] final  -51.75 input  -60.11 | X-H torsion
[ 7974 7965 7964 7962 ] final  -34.44 input  175.53 | X-H torsion
[ 8008 7997 7996 7995 ] final   18.94 input   59.86 | X-H torsion
[ 10167 10162 10161 10158 ] final   13.95 input  -65.29 | X-H torsion
[ 10718 10713 10712 10709 ] final  107.27 input   66.30 | X-H torsion
[ 10763 10752 10751 10750 ] final   36.31 input  -60.55 | X-H torsion
[ 11005 11000 10999 10996 ] final -110.25 input  -57.11 | X-H torsion

> <Gold.Protein.ActiveResidues>
 VAL166  LYS551  ARG553  GLY616  TRP617  ASP618  TYR619  PRO620  LYS621  CYS622 
 ASP623  PHE694  ASN695  SER759  ASP760  ASP761  ALA762  ILE779  LEU786  VAL792 
 PHE793  MET794  SER795  GLU796  ALA797  LYS798  CYS799  TRP800  GLU811  SER814 

> <Gold.Protein.RotatedAtoms>
  150.8582  134.7926  159.7061 H   0  0  0  0  0  0  0  0  0  0  0  0  # atno 6907 bound_to 6896
  152.4627  134.5144  159.9773 H   0  0  0  0  0  0  0  0  0  0  0  0  # atno 6908 bound_to 6896
  151.5252  133.3421  159.2944 H   0  0  0  0  0  0  0  0  0  0  0  0  # atno 6909 bound_to 6896
  146.0829  140.6038  142.8900 H   0  0  0  0  0  0  0  0  0  0  0  0  # atno 7974 bound_to 7965
  154.9134  140.3017  155.5254 H   0  0  0  0  0  0  0  0  0  0  0  0  # atno 8008 bound_to 7997
  156.3013  140.2385  156.4112 H   0  0  0  0  0  0  0  0  0  0  0  0  # atno 8009 bound_to 7997
  154.8402  140.0414  157.1525 H   0  0  0  0  0  0  0  0  0  0  0  0  # atno 8010 bound_to 7997
  140.5968  143.8685  150.6926 H   0  0  0  0  0  0  0  0  0  0  0  0  # atno 10167 bound_to 10162
  157.6635  131.0869  150.6131 H   0  0  0  0  0  0  0  0  0  0  0  0  # atno 10718 bound_to 10713
  153.0082  135.6309  154.1964 H   0  0  0  0  0  0  0  0  0  0  0  0  # atno 10763 bound_to 10752
  154.1707  135.2818  155.3083 H   0  0  0  0  0  0  0  0  0  0  0  0  # atno 10764 bound_to 10752
  154.5910  135.5617  153.7339 H   0  0  0  0  0  0  0  0  0  0  0  0  # atno 10765 bound_to 10752
  141.0802  133.9233  157.2305 H   0  0  0  0  0  0  0  0  0  0  0  0  # atno 11005 bound_to 11000
  144.7306  140.4659  143.6941 LP  0  0  0  0  0  0  0  0  0  0  0  0  # atno 17320 bound_to 7965
  145.6184  139.1521  143.3036 LP  0  0  0  0  0  0  0  0  0  0  0  0  # atno 17321 bound_to 7965
  140.2221  143.3801  152.1634 LP  0  0  0  0  0  0  0  0  0  0  0  0  # atno 17342 bound_to 10162
  139.5264  144.7107  151.5215 LP  0  0  0  0  0  0  0  0  0  0  0  0  # atno 17343 bound_to 10162
  156.6433  130.4464  149.5745 LP  0  0  0  0  0  0  0  0  0  0  0  0  # atno 17370 bound_to 10713
  156.2193  130.6727  151.1351 LP  0  0  0  0  0  0  0  0  0  0  0  0  # atno 17371 bound_to 10713
  139.9616  135.0153  156.9275 LP  0  0  0  0  0  0  0  0  0  0  0  0  # atno 17394 bound_to 11000
  140.5485  134.0650  155.7362 LP  0  0  0  0  0  0  0  0  0  0  0  0  # atno 17395 bound_to 11000

$$$$
