AV-unprocessed.smi:2440|AV-procd|sdf|9617|dock1
  -GOLD-   2272013253D 1   1.00000     0.00000
 Structure written by MMmdl.
 53 55  0  0  0  0  0  0  0  0  3 V2000
  145.5531  136.1630  152.0101 C   0  0  0  0  0  0  0  0  0  0  0  0
  145.5953  135.4619  153.3566 C   0  0  0  0  0  0  0  0  0  0  0  0
  144.5669  134.5587  153.7036 C   0  0  0  0  0  0  0  0  0  0  0  0
  144.5927  133.9266  154.8959 N   0  3  0  0  0  0  0  0  0  0  0  0
  145.5776  134.1120  155.7990 C   0  0  0  0  0  0  0  0  0  0  0  0
  146.6326  135.0015  155.5149 C   0  0  0  0  0  0  0  0  0  0  0  0
  146.6429  135.7026  154.2821 C   0  0  0  0  0  0  0  0  0  0  0  0
  147.6868  136.5990  153.9190 N   0  0  0  0  0  0  0  0  0  0  0  0
  148.3550  137.4561  154.7093 C   0  0  0  0  0  0  0  0  0  0  0  0
  148.1408  137.6281  155.9093 O   0  0  0  0  0  0  0  0  0  0  0  0
  149.2856  138.1319  154.0202 N   0  0  0  0  0  0  0  0  0  0  0  0
  150.1795  139.1392  154.5843 C   0  0  2  0  0  0  0  0  0  0  0  0
  150.9629  138.5734  155.7792 C   0  0  0  0  0  0  0  0  0  0  0  0
  151.8391  139.6592  156.4238 C   0  0  0  0  0  0  0  0  0  0  0  0
  151.0336  140.8337  156.8670 N   0  3  1  0  0  0  0  0  0  0  0  0
  151.8537  141.8084  157.6594 C   0  0  0  0  0  0  0  0  0  0  0  0
  152.1884  141.2181  159.0519 C   0  0  0  0  0  0  0  0  0  0  0  0
  153.0612  142.1639  159.8925 C   0  0  0  0  0  0  0  0  0  0  0  0
  152.3965  143.5361  160.0580 C   0  0  0  0  0  0  0  0  0  0  0  0
  152.0671  144.1470  158.6904 C   0  0  0  0  0  0  0  0  0  0  0  0
  151.1946  143.2010  157.8495 C   0  0  0  0  0  0  0  0  0  0  0  0
  150.2686  141.4085  155.7217 C   0  0  0  0  0  0  0  0  0  0  0  0
  149.3700  140.3563  155.0490 C   0  0  0  0  0  0  0  0  0  0  0  0
  144.6965  135.8364  151.4199 H   0  0  0  0  0  0  0  0  0  0  0  0
  146.4560  135.9487  151.4379 H   0  0  0  0  0  0  0  0  0  0  0  0
  145.4774  137.2422  152.1461 H   0  0  0  0  0  0  0  0  0  0  0  0
  143.7274  134.3216  153.0660 H   0  0  0  0  0  0  0  0  0  0  0  0
  145.4967  133.5426  156.7134 H   0  0  0  0  0  0  0  0  0  0  0  0
  147.4221  135.1207  156.2416 H   0  0  0  0  0  0  0  0  0  0  0  0
  147.8996  136.6410  152.9330 H   0  0  0  0  0  0  0  0  0  0  0  0
  149.3902  137.9296  153.0364 H   0  0  0  0  0  0  0  0  0  0  0  0
  150.8830  139.4670  153.8164 H   0  0  0  0  0  0  0  0  0  0  0  0
  150.2739  138.1707  156.5233 H   0  0  0  0  0  0  0  0  0  0  0  0
  151.5911  137.7417  155.4575 H   0  0  0  0  0  0  0  0  0  0  0  0
  152.3730  139.2155  157.2624 H   0  0  0  0  0  0  0  0  0  0  0  0
  152.5993  139.9891  155.7138 H   0  0  0  0  0  0  0  0  0  0  0  0
  152.7863  141.9738  157.1167 H   0  0  0  0  0  0  0  0  0  0  0  0
  151.2634  141.0080  159.5911 H   0  0  0  0  0  0  0  0  0  0  0  0
  152.7089  140.2656  158.9640 H   0  0  0  0  0  0  0  0  0  0  0  0
  153.2491  141.7236  160.8723 H   0  0  0  0  0  0  0  0  0  0  0  0
  154.0350  142.2832  159.4158 H   0  0  0  0  0  0  0  0  0  0  0  0
  151.4832  143.4352  160.6457 H   0  0  0  0  0  0  0  0  0  0  0  0
  153.0525  144.2043  160.6171 H   0  0  0  0  0  0  0  0  0  0  0  0
  151.5566  145.1011  158.8249 H   0  0  0  0  0  0  0  0  0  0  0  0
  152.9917  144.3649  158.1543 H   0  0  0  0  0  0  0  0  0  0  0  0
  151.0236  143.6840  156.8871 H   0  0  0  0  0  0  0  0  0  0  0  0
  150.2210  143.0913  158.3296 H   0  0  0  0  0  0  0  0  0  0  0  0
  149.6129  142.2111  156.0571 H   0  0  0  0  0  0  0  0  0  0  0  0
  150.9615  141.8353  154.9947 H   0  0  0  0  0  0  0  0  0  0  0  0
  148.8521  140.8061  154.2010 H   0  0  0  0  0  0  0  0  0  0  0  0
  148.5963  140.0416  155.7513 H   0  0  0  0  0  0  0  0  0  0  0  0
  150.3347  140.4824  157.5059 H   0  0  0  0  0  0  0  0  0  0  0  0
  143.8385  133.2774  155.1215 H   0  0  0  0  0  0  0  0  0  0  0  0
  1  2  1  0  0  0  0
  1 24  1  0  0  0  0
  1 25  1  0  0  0  0
  1 26  1  0  0  0  0
  2  7  1  0  0  0  0
  2  3  2  0  0  0  0
  3  4  1  0  0  0  0
  3 27  1  0  0  0  0
  4  5  2  0  0  0  0
  4 53  1  0  0  0  0
  5  6  1  0  0  0  0
  5 28  1  0  0  0  0
  6  7  2  0  0  0  0
  6 29  1  0  0  0  0
  7  8  1  0  0  0  0
  8  9  1  0  0  0  0
  8 30  1  0  0  0  0
  9 10  2  0  0  0  0
  9 11  1  0  0  0  0
 11 12  1  0  0  0  0
 11 31  1  0  0  0  0
 12 23  1  0  0  0  0
 12 13  1  0  0  0  0
 12 32  1  0  0  0  0
 13 14  1  0  0  0  0
 13 33  1  0  0  0  0
 13 34  1  0  0  0  0
 14 15  1  0  0  0  0
 14 35  1  0  0  0  0
 14 36  1  0  0  0  0
 15 16  1  0  0  0  0
 15 22  1  0  0  0  0
 15 52  1  0  0  0  0
 16 21  1  0  0  0  0
 16 17  1  0  0  0  0
 16 37  1  0  0  0  0
 17 18  1  0  0  0  0
 17 38  1  0  0  0  0
 17 39  1  0  0  0  0
 18 19  1  0  0  0  0
 18 40  1  0  0  0  0
 18 41  1  0  0  0  0
 19 20  1  0  0  0  0
 19 42  1  0  0  0  0
 19 43  1  0  0  0  0
 20 21  1  0  0  0  0
 20 44  1  0  0  0  0
 20 45  1  0  0  0  0
 21 46  1  0  0  0  0
 21 47  1  0  0  0  0
 22 23  1  0  0  0  0
 22 48  1  0  0  0  0
 22 49  1  0  0  0  0
 23 50  1  0  0  0  0
 23 51  1  0  0  0  0
M  CHG  1   4   1
M  CHG  1  15   1
M  END
> <s_m_source_file>
AV-unprocessed.smi

> <i_m_source_file_index>
2440

> <i_lp_mmshare_version>
43012

> <i_f3d_flags>
0

> <s_epik_input>
W0NIM11jMVtjSF1uW2NIXVtjSF1jMVtOSF1DKD1PKVtOSF1bQ0hdMltDSDJdW0NIMl1OKFtDSDJdW0NIMl0yKVtDSF0zW0NIMl1bQ0gyXVtDSDJdW0NIMl1bQ0gyXTM=

> <s_epik_cmdline>
J2VwaWtfcHl0aG9uJywgJy1waCcsICc3LjAnLCAnLXRuJywgJzgnLCAnLW1hJywgJzIwMCcsICctbWV0YWxfYmluZGluZycsICctaW1hZScsICc8aW5maWxlLm1hZT4nLCAnLW9tYWUnLCAnPG91dGZpbGUubWFlPic=

> <r_epik_Ionization_Penalty>
0.799454

> <r_epik_Ionization_Penalty_Charging>
0.799436

> <r_epik_Ionization_Penalty_Neutral>
1.84398e-05

> <r_epik_State_Penalty>
0.81805

> <r_epik_Charging_Adjusted_Penalty>
1.61749

> <i_epik_Tot_Q>
2

> <i_epik_Tot_abs_Q>
2

> <r_epik_Metal_State_Penalty>
0.955144

> <b_epik_Metal_Only>
0

> <s_lp_Force_Field>
OPLS_2005

> <r_lp_Energy>
40.0513

> <b_lp_Chiralities_Consistent>
1

> <s_lp_Variant>
AV-unprocessed.smi:2440-3

> <Gold.Version>
5.8.1

> <Gold.Id.Protein>
6NUR|6NUR_protein|mol2

> <Gold.PLP.Fitness>
46.1025

> <Gold.PLP.PLP>
-36.1519

> <Gold.PLP.part.hbond>
-2.7323

> <Gold.PLP.part.metal>
0.0000

> <Gold.PLP.part.buried>
-4.8227

> <Gold.PLP.part.nonpolar>
-28.6437

> <Gold.PLP.part.repulsive>
0.1339

> <Gold.PLP.ligand.clash>
0.0000

> <Gold.PLP.ligand.torsion>
0.5818

> <Gold.PLP.Chemscore.Hbond>
3.6896

> <Gold.PLP.Chemscore.CHOScore>
0.0000

> <Gold.PLP.Chemscore.Metal>
0.0000

> <Gold.Chemscore.Hbonds>
donor molecule, donor type, donor heavy atom, donor atom, acceptor molecule, acceptor atom, score
      L1  H     4    53       P1 10957  2.00
      L1  H     8    30       P1  7948  0.88
      L1  H    11    31       P1  7948  0.61

> <Gold.PLP.Chemscore.Internal.Correction>
0.0455

> <Gold.Rescore>
     Score         DG    S(hbond)    S(metal)    S(lipo)     H(rot)  DE(clash)    DE(int)     intcor
     20.89     -23.35       2.60        0.00     104.29       1.18       0.02       2.44       ----

> <Gold.Chemscore.Fitness>
20.8910

> <Gold.Chemscore.DG>
-23.3486

> <Gold.Chemscore.ZeroCoef>
-5.4800

> <Gold.Chemscore.Hbond>
2.6046

> <Gold.Chemscore.Metal>
0.0000

> <Gold.Chemscore.Lipo>
104.2893

> <Gold.Chemscore.Internal_Hbond>
0.0000

> <Gold.Chemscore.DEClash>
0.0159

> <Gold.Chemscore.DEInternal>
2.4416

> <Gold.Chemscore.Rot>
1.1846

> <Gold.Chemscore.Internal.Correction>
   9.000000E+99

> <Gold.Chemscore.Hbonds>
donor molecule, donor type, donor heavy atom, donor atom, acceptor molecule, acceptor atom, score
      L1  H     4    53       P1 10957  0.97
      L1  H     8    30       P1  7948  0.83
      L1  H    11    31       P1  7948  0.54

> <Gold.Chemscore.Hbond.Weighted>
-8.6993

> <Gold.Chemscore.Metal.Weighted>
-0.0000

> <Gold.Chemscore.Lipo.Weighted>
-12.2018

> <Gold.Chemscore.Internal_Hbond.Weighted>
0.0000

> <Gold.Chemscore.DEClash.Weighted>
0.0159

> <Gold.Chemscore.DEInternal.Weighted>
2.4416

> <Gold.Chemscore.Rot.Weighted>
3.0326

> <Gold.Chemscore.Internal.Correction.Weighted>
   9.000000E+99

> <Gold.Protein.RotatedTorsions>
[ 6907 6896 6895 6894 ] final   22.44 input  -60.11 | X-H torsion
[ 7974 7965 7964 7962 ] final -177.45 input  175.53 | X-H torsion
[ 8008 7997 7996 7995 ] final  -61.97 input   59.86 | X-H torsion
[ 10167 10162 10161 10158 ] final  169.83 input  -65.29 | X-H torsion
[ 10718 10713 10712 10709 ] final -154.14 input   66.30 | X-H torsion
[ 10763 10752 10751 10750 ] final   33.71 input  -60.55 | X-H torsion
[ 11005 11000 10999 10996 ] final  -27.24 input  -57.11 | X-H torsion

> <Gold.Protein.ActiveResidues>
 VAL166  LYS551  ARG553  GLY616  TRP617  ASP618  TYR619  PRO620  LYS621  CYS622 
 ASP623  PHE694  ASN695  SER759  ASP760  ASP761  ALA762  ILE779  LEU786  VAL792 
 PHE793  MET794  SER795  GLU796  ALA797  LYS798  CYS799  TRP800  GLU811  SER814 

> <Gold.Protein.RotatedAtoms>
  151.9272  135.0272  160.0526 H   0  0  0  0  0  0  0  0  0  0  0  0  # atno 6907 bound_to 6896
  152.2149  133.4934  159.5139 H   0  0  0  0  0  0  0  0  0  0  0  0  # atno 6908 bound_to 6896
  150.6985  134.1335  159.4121 H   0  0  0  0  0  0  0  0  0  0  0  0  # atno 6909 bound_to 6896
  144.7128  140.1017  143.6416 H   0  0  0  0  0  0  0  0  0  0  0  0  # atno 7974 bound_to 7965
  154.4475  140.1006  156.6514 H   0  0  0  0  0  0  0  0  0  0  0  0  # atno 8008 bound_to 7997
  155.5394  140.3483  155.4425 H   0  0  0  0  0  0  0  0  0  0  0  0  # atno 8009 bound_to 7997
  156.0608  140.1326  156.9932 H   0  0  0  0  0  0  0  0  0  0  0  0  # atno 8010 bound_to 7997
  139.5002  144.3663  151.9771 H   0  0  0  0  0  0  0  0  0  0  0  0  # atno 10167 bound_to 10162
  156.4953  130.8366  151.2587 H   0  0  0  0  0  0  0  0  0  0  0  0  # atno 10718 bound_to 10713
  153.0199  135.6380  154.1554 H   0  0  0  0  0  0  0  0  0  0  0  0  # atno 10763 bound_to 10752
  154.1290  135.2842  155.3191 H   0  0  0  0  0  0  0  0  0  0  0  0  # atno 10764 bound_to 10752
  154.6208  135.5525  153.7635 H   0  0  0  0  0  0  0  0  0  0  0  0  # atno 10765 bound_to 10752
  140.9102  133.7466  156.0660 H   0  0  0  0  0  0  0  0  0  0  0  0  # atno 11005 bound_to 11000
  145.9532  139.2748  143.1200 LP  0  0  0  0  0  0  0  0  0  0  0  0  # atno 17320 bound_to 7965
  145.9300  140.9055  143.0361 LP  0  0  0  0  0  0  0  0  0  0  0  0  # atno 17321 bound_to 7965
  140.3099  144.3549  150.6036 LP  0  0  0  0  0  0  0  0  0  0  0  0  # atno 17342 bound_to 10162
  140.5807  143.2173  151.7434 LP  0  0  0  0  0  0  0  0  0  0  0  0  # atno 17343 bound_to 10162
  157.7469  131.0000  150.2909 LP  0  0  0  0  0  0  0  0  0  0  0  0  # atno 17370 bound_to 10713
  156.3386  130.3811  149.7429 LP  0  0  0  0  0  0  0  0  0  0  0  0  # atno 17371 bound_to 10713
  140.8120  134.3388  157.5409 LP  0  0  0  0  0  0  0  0  0  0  0  0  # atno 17394 bound_to 11000
  139.8756  134.9260  156.3388 LP  0  0  0  0  0  0  0  0  0  0  0  0  # atno 17395 bound_to 11000

$$$$
