AV-unprocessed.smi:3017|AV-procd|sdf|11475|dock7
  -GOLD-   2272016413D 1   1.00000     0.00000
 Structure written by MMmdl.
 37 38  0  0  0  0  0  0  0  0  1 V2000
  151.6619  145.0490  159.1880 C   0  0  0  0  0  0  0  0  0  0  0  0
  151.9881  143.7262  159.8957 C   0  0  2  0  0  0  0  0  0  0  0  0
  152.2330  143.9374  161.4020 C   0  0  0  0  0  0  0  0  0  0  0  0
  152.5676  142.6152  162.1106 C   0  0  0  0  0  0  0  0  0  0  0  0
  153.7705  141.9192  161.4542 C   0  0  0  0  0  0  0  0  0  0  0  0
  153.5441  141.6941  159.9446 C   0  0  1  0  0  0  0  0  0  0  0  0
  152.4696  140.7918  159.7114 O   0  0  0  0  0  0  0  0  0  0  0  0
  152.8160  139.4156  159.7909 C   0  0  0  0  0  0  0  0  0  0  0  0
  152.3987  138.7203  158.4954 C   0  0  0  0  0  0  0  0  0  0  0  0
  152.5732  137.5074  158.3793 O   0  0  0  0  0  0  0  0  0  0  0  0
  151.8728  139.5124  157.5419 N   0  0  0  0  0  0  0  0  0  0  0  0
  151.3803  139.1403  156.2639 C   0  0  0  0  0  0  0  0  0  0  0  0
  150.8183  140.1858  155.4941 C   0  0  0  0  0  0  0  0  0  0  0  0
  150.3028  139.9875  154.2604 N   0  0  0  0  0  0  0  0  0  0  0  0
  150.3471  138.7253  153.7835 C   0  0  0  0  0  0  0  0  0  0  0  0
  150.9039  137.6717  154.5356 C   0  0  0  0  0  0  0  0  0  0  0  0
  151.4175  137.8768  155.7680 N   0  0  0  0  0  0  0  0  0  0  0  0
  153.1963  143.0211  159.2448 C   0  0  0  0  0  0  0  0  0  0  0  0
  152.4921  145.7527  159.2587 H   0  0  0  0  0  0  0  0  0  0  0  0
  150.7842  145.5234  159.6279 H   0  0  0  0  0  0  0  0  0  0  0  0
  151.4517  144.8862  158.1305 H   0  0  0  0  0  0  0  0  0  0  0  0
  151.1183  143.0769  159.7854 H   0  0  0  0  0  0  0  0  0  0  0  0
  153.0517  144.6434  161.5473 H   0  0  0  0  0  0  0  0  0  0  0  0
  151.3530  144.3861  161.8639 H   0  0  0  0  0  0  0  0  0  0  0  0
  152.7769  142.8024  163.1640 H   0  0  0  0  0  0  0  0  0  0  0  0
  151.7008  141.9538  162.0817 H   0  0  0  0  0  0  0  0  0  0  0  0
  154.6579  142.5381  161.5923 H   0  0  0  0  0  0  0  0  0  0  0  0
  153.9818  140.9798  161.9638 H   0  0  0  0  0  0  0  0  0  0  0  0
  154.4543  141.2983  159.4907 H   0  0  0  0  0  0  0  0  0  0  0  0
  153.8925  139.3005  159.9247 H   0  0  0  0  0  0  0  0  0  0  0  0
  152.3202  138.9337  160.6336 H   0  0  0  0  0  0  0  0  0  0  0  0
  151.8009  140.4934  157.7698 H   0  0  0  0  0  0  0  0  0  0  0  0
  150.7794  141.1974  155.8717 H   0  0  0  0  0  0  0  0  0  0  0  0
  149.9373  138.5548  152.7991 H   0  0  0  0  0  0  0  0  0  0  0  0
  150.9366  136.6639  154.1488 H   0  0  0  0  0  0  0  0  0  0  0  0
  152.9973  142.8361  158.1884 H   0  0  0  0  0  0  0  0  0  0  0  0
  154.0636  143.6818  159.2801 H   0  0  0  0  0  0  0  0  0  0  0  0
  1  2  1  0  0  0  0
  1 19  1  0  0  0  0
  1 20  1  0  0  0  0
  1 21  1  0  0  0  0
  2 18  1  0  0  0  0
  2  3  1  0  0  0  0
  2 22  1  0  0  0  0
  3  4  1  0  0  0  0
  3 23  1  0  0  0  0
  3 24  1  0  0  0  0
  4  5  1  0  0  0  0
  4 25  1  0  0  0  0
  4 26  1  0  0  0  0
  5  6  1  0  0  0  0
  5 27  1  0  0  0  0
  5 28  1  0  0  0  0
  6  7  1  0  0  0  0
  6 18  1  0  0  0  0
  6 29  1  0  0  0  0
  7  8  1  0  0  0  0
  8  9  1  0  0  0  0
  8 30  1  0  0  0  0
  8 31  1  0  0  0  0
  9 10  2  0  0  0  0
  9 11  1  0  0  0  0
 11 12  1  0  0  0  0
 11 32  1  0  0  0  0
 12 17  1  0  0  0  0
 12 13  2  0  0  0  0
 13 14  1  0  0  0  0
 13 33  1  0  0  0  0
 14 15  2  0  0  0  0
 15 16  1  0  0  0  0
 15 34  1  0  0  0  0
 16 17  2  0  0  0  0
 16 35  1  0  0  0  0
 18 36  1  0  0  0  0
 18 37  1  0  0  0  0
M  END
> <s_m_source_file>
AV-unprocessed.smi

> <i_m_source_file_index>
3017

> <i_lp_mmshare_version>
43012

> <i_f3d_flags>
0

> <s_epik_input>
W0NIM11bQ0BASF0xW0NIMl1bQ0gyXVtDSDJdW0NASF0oW0NIMl0xKU9bQ0gyXUMoPU8pW05IXWMyW2NIXW5bY0hdW2NIXW4y

> <s_epik_cmdline>
J2VwaWtfcHl0aG9uJywgJy1waCcsICc3LjAnLCAnLXRuJywgJzgnLCAnLW1hJywgJzIwMCcsICctbWV0YWxfYmluZGluZycsICctaW1hZScsICc8aW5maWxlLm1hZT4nLCAnLW9tYWUnLCAnPG91dGZpbGUubWFlPic=

> <r_lp_tautomer_probability>
1

> <r_epik_Ionization_Penalty>
2.89243e-06

> <r_epik_Ionization_Penalty_Charging>
0

> <r_epik_Ionization_Penalty_Neutral>
2.89243e-06

> <r_epik_State_Penalty>
-0

> <r_epik_Charging_Adjusted_Penalty>
0

> <i_epik_Tot_Q>
0

> <i_epik_Tot_abs_Q>
0

> <r_epik_Metal_State_Penalty>
-0

> <b_epik_Metal_Only>
0

> <s_lp_Force_Field>
OPLS_2005

> <r_lp_Energy>
20.5488

> <b_lp_Chiralities_Consistent>
1

> <s_lp_Variant>
AV-unprocessed.smi:3017-1

> <Gold.Version>
5.8.1

> <Gold.Id.Protein>
6NUR|6NUR_protein|mol2

> <Gold.PLP.Fitness>
47.7775

> <Gold.PLP.PLP>
-40.5788

> <Gold.PLP.part.hbond>
-1.0000

> <Gold.PLP.part.metal>
0.0000

> <Gold.PLP.part.buried>
-4.5018

> <Gold.PLP.part.nonpolar>
-35.9281

> <Gold.PLP.part.repulsive>
0.2243

> <Gold.PLP.ligand.clash>
0.0000

> <Gold.PLP.ligand.torsion>
0.6304

> <Gold.PLP.Chemscore.Hbond>
0.6500

> <Gold.PLP.Chemscore.CHOScore>
2.1668

> <Gold.PLP.Chemscore.Metal>
0.0000

> <Gold.Chemscore.Hbonds>
donor molecule, donor type, donor heavy atom, donor atom, acceptor molecule, acceptor atom, score
      P1  H  7989  7998       L1    14  0.65
      L1  C    15    34       P1  7948  0.68
      L1  C    15    34       P1  7957  0.98
      L1  C    16    35       P1  7949  0.40

> <Gold.PLP.Chemscore.Internal.Correction>
0.0089

> <Gold.Rescore>
     Score         DG    S(hbond)    S(metal)    S(lipo)     H(rot)  DE(clash)    DE(int)     intcor
     14.07     -16.04       0.31        0.00     114.44       1.51       0.05       1.93       ----

> <Gold.Chemscore.Fitness>
14.0654

> <Gold.Chemscore.DG>
-16.0442

> <Gold.Chemscore.ZeroCoef>
-5.4800

> <Gold.Chemscore.Hbond>
0.3130

> <Gold.Chemscore.Metal>
0.0000

> <Gold.Chemscore.Lipo>
114.4380

> <Gold.Chemscore.Internal_Hbond>
0.0000

> <Gold.Chemscore.DEClash>
0.0489

> <Gold.Chemscore.DEInternal>
1.9299

> <Gold.Chemscore.Rot>
1.5119

> <Gold.Chemscore.Internal.Correction>
   9.000000E+99

> <Gold.Chemscore.Hbonds>
donor molecule, donor type, donor heavy atom, donor atom, acceptor molecule, acceptor atom, score
      P1  H  7989  7998       L1    14  0.03

> <Gold.Chemscore.Hbond.Weighted>
-1.0456

> <Gold.Chemscore.Metal.Weighted>
-0.0000

> <Gold.Chemscore.Lipo.Weighted>
-13.3892

> <Gold.Chemscore.Internal_Hbond.Weighted>
0.0000

> <Gold.Chemscore.DEClash.Weighted>
0.0489

> <Gold.Chemscore.DEInternal.Weighted>
1.9299

> <Gold.Chemscore.Rot.Weighted>
3.8706

> <Gold.Chemscore.Internal.Correction.Weighted>
   9.000000E+99

> <Gold.Protein.RotatedTorsions>
[ 6907 6896 6895 6894 ] final -122.62 input  -60.11 | X-H torsion
[ 7974 7965 7964 7962 ] final   27.31 input  175.53 | X-H torsion
[ 8008 7997 7996 7995 ] final   58.39 input   59.86 | X-H torsion
[ 10167 10162 10161 10158 ] final   29.17 input  -65.29 | X-H torsion
[ 10718 10713 10712 10709 ] final  -48.16 input   66.30 | X-H torsion
[ 10763 10752 10751 10750 ] final  170.02 input  -60.55 | X-H torsion
[ 11005 11000 10999 10996 ] final  162.88 input  -57.11 | X-H torsion

> <Gold.Protein.ActiveResidues>
 VAL166  LYS551  ARG553  GLY616  TRP617  ASP618  TYR619  PRO620  LYS621  CYS622 
 ASP623  PHE694  ASN695  SER759  ASP760  ASP761  ALA762  ILE779  LEU786  VAL792 
 PHE793  MET794  SER795  GLU796  ALA797  LYS798  CYS799  TRP800  GLU811  SER814 

> <Gold.Protein.RotatedAtoms>
  150.8593  133.7668  159.2997 H   0  0  0  0  0  0  0  0  0  0  0  0  # atno 6907 bound_to 6896
  151.5316  135.1067  159.9913 H   0  0  0  0  0  0  0  0  0  0  0  0  # atno 6908 bound_to 6896
  152.4614  133.7786  159.6894 H   0  0  0  0  0  0  0  0  0  0  0  0  # atno 6909 bound_to 6896
  146.1791  139.7209  142.8913 H   0  0  0  0  0  0  0  0  0  0  0  0  # atno 7974 bound_to 7965
  155.5492  140.3486  155.4464 H   0  0  0  0  0  0  0  0  0  0  0  0  # atno 8008 bound_to 7997
  156.0595  140.1337  156.9983 H   0  0  0  0  0  0  0  0  0  0  0  0  # atno 8009 bound_to 7997
  154.4473  140.0988  156.6481 H   0  0  0  0  0  0  0  0  0  0  0  0  # atno 8010 bound_to 7997
  140.4789  144.0647  150.6259 H   0  0  0  0  0  0  0  0  0  0  0  0  # atno 10167 bound_to 10162
  156.2015  130.4156  149.9235 H   0  0  0  0  0  0  0  0  0  0  0  0  # atno 10718 bound_to 10713
  154.3916  135.2754  155.2151 H   0  0  0  0  0  0  0  0  0  0  0  0  # atno 10763 bound_to 10752
  154.4215  135.5999  153.6016 H   0  0  0  0  0  0  0  0  0  0  0  0  # atno 10764 bound_to 10752
  152.9832  135.5973  154.4172 H   0  0  0  0  0  0  0  0  0  0  0  0  # atno 10765 bound_to 10752
  140.2302  134.8130  157.3309 H   0  0  0  0  0  0  0  0  0  0  0  0  # atno 11005 bound_to 11000
  145.4128  141.0398  143.3008 LP  0  0  0  0  0  0  0  0  0  0  0  0  # atno 17320 bound_to 7965
  144.8285  139.5669  143.6954 LP  0  0  0  0  0  0  0  0  0  0  0  0  # atno 17321 bound_to 7965
  140.3883  143.2766  152.0090 LP  0  0  0  0  0  0  0  0  0  0  0  0  # atno 17342 bound_to 10162
  139.4830  144.6098  151.7454 LP  0  0  0  0  0  0  0  0  0  0  0  0  # atno 17343 bound_to 10162
  156.6943  130.8908  151.3592 LP  0  0  0  0  0  0  0  0  0  0  0  0  # atno 17370 bound_to 10713
  157.6988  130.9311  150.0723 LP  0  0  0  0  0  0  0  0  0  0  0  0  # atno 17371 bound_to 10713
  140.1758  134.4551  155.7802 LP  0  0  0  0  0  0  0  0  0  0  0  0  # atno 17394 bound_to 11000
  141.2218  133.6962  156.7786 LP  0  0  0  0  0  0  0  0  0  0  0  0  # atno 17395 bound_to 11000

$$$$
