AV-unprocessed.smi:1014|AV-procd|sdf|4431|dock7
  -GOLD-   22720 2383D 1   1.00000     0.00000
 Structure written by MMmdl.
 34 34  0  0  0  0  0  0  0  0  2 V2000
  147.9223  141.3906  155.1205 C   0  0  0  0  0  0  0  0  0  0  0  0
  147.6777  140.6601  153.7905 C   0  0  0  0  0  0  0  0  0  0  0  0
  148.1149  139.1786  153.7761 C   0  0  1  0  0  0  0  0  0  0  0  0
  147.8354  138.6028  152.4400 N   0  3  0  0  0  0  0  0  0  0  0  0
  146.4069  138.3703  152.1372 C   0  0  0  0  0  0  0  0  0  0  0  0
  145.8589  137.1933  152.9573 C   0  0  0  0  0  0  0  0  0  0  0  0
  145.3816  136.1170  152.1105 N   0  0  0  0  0  0  0  0  0  0  0  0
  146.0307  134.9556  151.7486 C   0  0  0  0  0  0  0  0  0  0  0  0
  145.1807  134.2404  150.9533 C   0  0  0  0  0  0  0  0  0  0  0  0
  145.4063  132.9072  150.3005 C   0  0  0  0  0  0  0  0  0  0  0  0
  144.0176  135.0597  150.8909 C   0  0  0  0  0  0  0  0  0  0  0  0
  144.1397  136.1792  151.5853 N   0  0  0  0  0  0  0  0  0  0  0  0
  149.6017  139.0297  154.1397 C   0  0  0  0  0  0  0  0  0  0  0  0
  150.1631  137.8337  153.9446 N   0  0  0  0  0  0  0  0  0  0  0  0
  150.2318  139.9805  154.5990 O   0  0  0  0  0  0  0  0  0  0  0  0
  147.5226  142.4041  155.0808 H   0  0  0  0  0  0  0  0  0  0  0  0
  148.9850  141.4709  155.3495 H   0  0  0  0  0  0  0  0  0  0  0  0
  147.4361  140.8760  155.9495 H   0  0  0  0  0  0  0  0  0  0  0  0
  146.6104  140.7138  153.5707 H   0  0  0  0  0  0  0  0  0  0  0  0
  148.1742  141.2044  152.9856 H   0  0  0  0  0  0  0  0  0  0  0  0
  147.5099  138.6382  154.5065 H   0  0  0  0  0  0  0  0  0  0  0  0
  148.1934  139.2425  151.7456 H   0  0  0  0  0  0  0  0  0  0  0  0
  145.8366  139.2739  152.3561 H   0  0  0  0  0  0  0  0  0  0  0  0
  146.2916  138.1659  151.0719 H   0  0  0  0  0  0  0  0  0  0  0  0
  146.6326  136.7983  153.6172 H   0  0  0  0  0  0  0  0  0  0  0  0
  145.0351  137.5204  153.5936 H   0  0  0  0  0  0  0  0  0  0  0  0
  147.0335  134.7345  152.0837 H   0  0  0  0  0  0  0  0  0  0  0  0
  144.5955  132.6463  149.6200 H   0  0  0  0  0  0  0  0  0  0  0  0
  145.4773  132.1064  151.0367 H   0  0  0  0  0  0  0  0  0  0  0  0
  146.3289  132.8940  149.7199 H   0  0  0  0  0  0  0  0  0  0  0  0
  143.0924  134.8737  150.3656 H   0  0  0  0  0  0  0  0  0  0  0  0
  151.1386  137.6877  154.1610 H   0  0  0  0  0  0  0  0  0  0  0  0
  149.6085  137.0761  153.5719 H   0  0  0  0  0  0  0  0  0  0  0  0
  148.3354  137.7284  152.3611 H   0  0  0  0  0  0  0  0  0  0  0  0
  1  2  1  0  0  0  0
  1 16  1  0  0  0  0
  1 17  1  0  0  0  0
  1 18  1  0  0  0  0
  2  3  1  0  0  0  0
  2 19  1  0  0  0  0
  2 20  1  0  0  0  0
  3  4  1  0  0  0  0
  3 13  1  0  0  0  0
  3 21  1  0  0  0  0
  4  5  1  0  0  0  0
  4 22  1  0  0  0  0
  4 34  1  0  0  0  0
  5  6  1  0  0  0  0
  5 23  1  0  0  0  0
  5 24  1  0  0  0  0
  6  7  1  0  0  0  0
  6 25  1  0  0  0  0
  6 26  1  0  0  0  0
  7 12  1  0  0  0  0
  7  8  1  0  0  0  0
  8  9  2  0  0  0  0
  8 27  1  0  0  0  0
  9 10  1  0  0  0  0
  9 11  1  0  0  0  0
 10 28  1  0  0  0  0
 10 29  1  0  0  0  0
 10 30  1  0  0  0  0
 11 12  2  0  0  0  0
 11 31  1  0  0  0  0
 13 14  1  0  0  0  0
 13 15  2  0  0  0  0
 14 32  1  0  0  0  0
 14 33  1  0  0  0  0
M  CHG  1   4   1
M  END
> <s_m_source_file>
AV-unprocessed.smi

> <i_m_source_file_index>
1014

> <i_lp_mmshare_version>
43012

> <i_f3d_flags>
0

> <s_epik_input>
W0NIM11bQ0gyXVtDQEBIXShDKD1PKVtOSDJdKVtOSF1bQ0gyXVtDSDJdbjFbY0hdYyhbQ0gzXSlbY0hdbjE=

> <s_epik_cmdline>
J2VwaWtfcHl0aG9uJywgJy1waCcsICc3LjAnLCAnLXRuJywgJzgnLCAnLW1hJywgJzIwMCcsICctbWV0YWxfYmluZGluZycsICctaW1hZScsICc8aW5maWxlLm1hZT4nLCAnLW9tYWUnLCAnPG91dGZpbGUubWFlPic=

> <r_lp_tautomer_probability>
1

> <r_epik_Ionization_Penalty>
0.19042

> <r_epik_Ionization_Penalty_Charging>
0.190412

> <r_epik_Ionization_Penalty_Neutral>
7.5834e-06

> <r_epik_State_Penalty>
0.180404

> <r_epik_Charging_Adjusted_Penalty>
0.370816

> <i_epik_Tot_Q>
1

> <i_epik_Tot_abs_Q>
1

> <r_epik_Metal_State_Penalty>
0.180563

> <b_epik_Metal_Only>
0

> <s_lp_Force_Field>
OPLS_2005

> <r_lp_Energy>
2.60817

> <b_lp_Chiralities_Consistent>
1

> <s_lp_Variant>
AV-unprocessed.smi:1014-2

> <Gold.Version>
5.8.1

> <Gold.Id.Protein>
6NUR|6NUR_protein|mol2

> <Gold.PLP.Fitness>
46.3858

> <Gold.PLP.PLP>
-28.1290

> <Gold.PLP.part.hbond>
-4.4540

> <Gold.PLP.part.metal>
0.0000

> <Gold.PLP.part.buried>
-0.9350

> <Gold.PLP.part.nonpolar>
-23.4962

> <Gold.PLP.part.repulsive>
1.6006

> <Gold.PLP.ligand.clash>
0.0000

> <Gold.PLP.ligand.torsion>
1.0866

> <Gold.PLP.Chemscore.Hbond>
4.8560

> <Gold.PLP.Chemscore.CHOScore>
1.9291

> <Gold.PLP.Chemscore.Metal>
0.0000

> <Gold.Chemscore.Hbonds>
donor molecule, donor type, donor heavy atom, donor atom, acceptor molecule, acceptor atom, score
      L1  H     4    22       P1  7957  0.93
      L1  H     4    34       P1  7948  2.00
      L1  H    14    33       P1  7948  0.85
      P1  H  7989  7998       L1    15  1.00
      L1  C     8    27       P1  7948  0.91
      L1  C    11    31       P1 10186  1.00

> <Gold.PLP.Chemscore.Internal.Correction>
0.0746

> <Gold.Rescore>
     Score         DG    S(hbond)    S(metal)    S(lipo)     H(rot)  DE(clash)    DE(int)     intcor
     14.43     -16.70       3.47        0.00      53.34       2.59       0.71       1.55       ----

> <Gold.Chemscore.Fitness>
14.4294

> <Gold.Chemscore.DG>
-16.6972

> <Gold.Chemscore.ZeroCoef>
-5.4800

> <Gold.Chemscore.Hbond>
3.4733

> <Gold.Chemscore.Metal>
0.0000

> <Gold.Chemscore.Lipo>
53.3412

> <Gold.Chemscore.Internal_Hbond>
0.0000

> <Gold.Chemscore.DEClash>
0.7130

> <Gold.Chemscore.DEInternal>
1.5547

> <Gold.Chemscore.Rot>
2.5878

> <Gold.Chemscore.Internal.Correction>
   9.000000E+99

> <Gold.Chemscore.Hbonds>
donor molecule, donor type, donor heavy atom, donor atom, acceptor molecule, acceptor atom, score
      L1  H     4    22       P1  7957  0.88
      L1  H     4    34       P1  7948  1.00
      L1  H    14    33       P1  7948  0.68
      P1  H  7989  7998       L1    15  0.95

> <Gold.Chemscore.Hbond.Weighted>
-11.6010

> <Gold.Chemscore.Metal.Weighted>
-0.0000

> <Gold.Chemscore.Lipo.Weighted>
-6.2409

> <Gold.Chemscore.Internal_Hbond.Weighted>
0.0000

> <Gold.Chemscore.DEClash.Weighted>
0.7130

> <Gold.Chemscore.DEInternal.Weighted>
1.5547

> <Gold.Chemscore.Rot.Weighted>
6.6247

> <Gold.Chemscore.Internal.Correction.Weighted>
   9.000000E+99

> <Gold.Protein.RotatedTorsions>
[ 6907 6896 6895 6894 ] final  175.96 input  -60.11 | X-H torsion
[ 7974 7965 7964 7962 ] final   63.41 input  175.53 | X-H torsion
[ 8008 7997 7996 7995 ] final   29.04 input   59.86 | X-H torsion
[ 10167 10162 10161 10158 ] final  155.73 input  -65.29 | X-H torsion
[ 10718 10713 10712 10709 ] final  -46.28 input   66.30 | X-H torsion
[ 10763 10752 10751 10750 ] final  -24.67 input  -60.55 | X-H torsion
[ 11005 11000 10999 10996 ] final -123.30 input  -57.11 | X-H torsion

> <Gold.Protein.ActiveResidues>
 VAL166  LYS551  ARG553  GLY616  TRP617  ASP618  TYR619  PRO620  LYS621  CYS622 
 ASP623  PHE694  ASN695  SER759  ASP760  ASP761  ALA762  ILE779  LEU786  VAL792 
 PHE793  MET794  SER795  GLU796  ALA797  LYS798  CYS799  TRP800  GLU811  SER814 

> <Gold.Protein.RotatedAtoms>
  151.7278  133.3316  159.3332 H   0  0  0  0  0  0  0  0  0  0  0  0  # atno 6907 bound_to 6896
  150.7625  134.6390  159.6236 H   0  0  0  0  0  0  0  0  0  0  0  0  # atno 6908 bound_to 6896
  152.3611  134.6873  160.0258 H   0  0  0  0  0  0  0  0  0  0  0  0  # atno 6909 bound_to 6896
  145.8621  139.3322  143.0813 H   0  0  0  0  0  0  0  0  0  0  0  0  # atno 7974 bound_to 7965
  155.0682  140.3197  155.4639 H   0  0  0  0  0  0  0  0  0  0  0  0  # atno 8008 bound_to 7997
  156.2797  140.2116  156.5754 H   0  0  0  0  0  0  0  0  0  0  0  0  # atno 8009 bound_to 7997
  154.7077  140.0501  157.0507 H   0  0  0  0  0  0  0  0  0  0  0  0  # atno 8010 bound_to 7997
  139.4821  144.5072  151.8079 H   0  0  0  0  0  0  0  0  0  0  0  0  # atno 10167 bound_to 10162
  156.2199  130.4165  149.9006 H   0  0  0  0  0  0  0  0  0  0  0  0  # atno 10718 bound_to 10713
  153.6875  135.6963  153.5099 H   0  0  0  0  0  0  0  0  0  0  0  0  # atno 10763 bound_to 10752
  153.2438  135.4297  155.0725 H   0  0  0  0  0  0  0  0  0  0  0  0  # atno 10764 bound_to 10752
  154.8382  135.3514  154.6417 H   0  0  0  0  0  0  0  0  0  0  0  0  # atno 10765 bound_to 10752
  140.9929  134.0512  157.3632 H   0  0  0  0  0  0  0  0  0  0  0  0  # atno 11005 bound_to 11000
  145.9236  140.9098  143.0392 LP  0  0  0  0  0  0  0  0  0  0  0  0  # atno 17320 bound_to 7965
  144.6726  140.1322  143.7443 LP  0  0  0  0  0  0  0  0  0  0  0  0  # atno 17321 bound_to 7965
  140.4572  144.1773  150.5902 LP  0  0  0  0  0  0  0  0  0  0  0  0  # atno 17342 bound_to 10162
  140.4523  143.2481  151.9331 LP  0  0  0  0  0  0  0  0  0  0  0  0  # atno 17343 bound_to 10162
  156.6656  130.8800  151.3554 LP  0  0  0  0  0  0  0  0  0  0  0  0  # atno 17370 bound_to 10713
  157.7082  130.9409  150.1000 LP  0  0  0  0  0  0  0  0  0  0  0  0  # atno 17371 bound_to 10713
  139.9001  135.0161  156.7226 LP  0  0  0  0  0  0  0  0  0  0  0  0  # atno 17394 bound_to 11000
  140.7011  133.9306  155.8025 LP  0  0  0  0  0  0  0  0  0  0  0  0  # atno 17395 bound_to 11000

$$$$
