AV-unprocessed.smi:2625|AV-procd|sdf|10235|dock6
  -GOLD-   2272014243D 1   1.00000     0.00000
 Structure written by MMmdl.
 24 24  0  0  0  0  0  0  0  0  1 V2000
  146.3715  142.9086  154.0287 C   0  0  0  0  0  0  0  0  0  0  0  0
  146.3703  141.8427  154.9615 O   0  0  0  0  0  0  0  0  0  0  0  0
  147.6643  141.5586  155.4667 C   0  0  0  0  0  0  0  0  0  0  0  0
  148.6128  141.2016  154.3105 C   0  0  0  0  0  0  0  0  0  0  0  0
  149.7687  140.4396  154.7396 N   0  0  0  0  0  0  0  0  0  0  0  0
  150.1094  139.1947  154.2046 C   0  0  0  0  0  0  0  0  0  0  0  0
  149.3154  138.6441  153.2139 N   0  0  0  0  0  0  0  0  0  0  0  0
  151.2069  138.5158  154.6248 C   0  0  0  0  0  0  0  0  0  0  0  0
  152.0886  139.0560  155.6532 C   0  0  0  0  0  0  0  0  0  0  0  0
  153.0949  138.5002  156.0880 O   0  0  0  0  0  0  0  0  0  0  0  0
  151.7101  140.3065  156.1413 N   0  0  0  0  0  0  0  0  0  0  0  0
  150.5941  141.0317  155.7287 C   0  0  0  0  0  0  0  0  0  0  0  0
  150.3750  142.1360  156.2278 O   0  0  0  0  0  0  0  0  0  0  0  0
  152.2968  140.7239  156.8490 H   0  0  0  0  0  0  0  0  0  0  0  0
  145.3568  143.0820  153.6702 H   0  0  0  0  0  0  0  0  0  0  0  0
  146.9984  142.6778  153.1665 H   0  0  0  0  0  0  0  0  0  0  0  0
  146.7289  143.8318  154.4863 H   0  0  0  0  0  0  0  0  0  0  0  0
  148.0478  142.4362  155.9888 H   0  0  0  0  0  0  0  0  0  0  0  0
  147.6217  140.7438  156.1914 H   0  0  0  0  0  0  0  0  0  0  0  0
  148.1055  140.6592  153.5112 H   0  0  0  0  0  0  0  0  0  0  0  0
  149.0042  142.1020  153.8371 H   0  0  0  0  0  0  0  0  0  0  0  0
  148.4939  139.1168  152.8648 H   0  0  0  0  0  0  0  0  0  0  0  0
  149.5218  137.7444  152.8043 H   0  0  0  0  0  0  0  0  0  0  0  0
  151.4464  137.5533  154.1939 H   0  0  0  0  0  0  0  0  0  0  0  0
  1  2  1  0  0  0  0
  1 15  1  0  0  0  0
  1 16  1  0  0  0  0
  1 17  1  0  0  0  0
  2  3  1  0  0  0  0
  3  4  1  0  0  0  0
  3 18  1  0  0  0  0
  3 19  1  0  0  0  0
  4  5  1  0  0  0  0
  4 20  1  0  0  0  0
  4 21  1  0  0  0  0
  5 12  1  0  0  0  0
  5  6  1  0  0  0  0
  6  7  1  0  0  0  0
  6  8  2  0  0  0  0
  7 22  1  0  0  0  0
  7 23  1  0  0  0  0
  8  9  1  0  0  0  0
  8 24  1  0  0  0  0
  9 10  2  0  0  0  0
  9 11  1  0  0  0  0
 11 14  1  0  0  0  0
 11 12  1  0  0  0  0
 12 13  2  0  0  0  0
M  END
> <s_m_source_file>
AV-unprocessed.smi

> <i_m_source_file_index>
2625

> <i_lp_mmshare_version>
43012

> <i_f3d_flags>
0

> <s_epik_input>
W0NIM11PW0NIMl1bQ0gyXW4xYyhbTkgyXSlbY0hdYyg9TylbbkhdYzE9Tw==

> <s_epik_cmdline>
J2VwaWtfcHl0aG9uJywgJy1waCcsICc3LjAnLCAnLXRuJywgJzgnLCAnLW1hJywgJzIwMCcsICctbWV0YWxfYmluZGluZycsICctaW1hZScsICc8aW5maWxlLm1hZT4nLCAnLW9tYWUnLCAnPG91dGZpbGUubWFlPic=

> <r_lp_tautomer_probability>
1

> <r_epik_Ionization_Penalty>
6.81436e-06

> <r_epik_Ionization_Penalty_Charging>
1.95411e-06

> <r_epik_Ionization_Penalty_Neutral>
4.86025e-06

> <r_epik_State_Penalty>
-0

> <r_epik_Charging_Adjusted_Penalty>
1.95411e-06

> <i_epik_Tot_Q>
0

> <i_epik_Tot_abs_Q>
0

> <r_epik_Metal_State_Penalty>
-0

> <b_epik_Metal_Only>
0

> <s_epik_Chemistry_Notes>
This compound has an imine and may undergo hydrolysis.

> <s_lp_Force_Field>
OPLS_2005

> <r_lp_Energy>
12.62

> <b_lp_Chiralities_Consistent>
1

> <s_lp_Variant>
AV-unprocessed.smi:2625-1

> <Gold.Version>
5.8.1

> <Gold.Id.Protein>
6NUR|6NUR_protein|mol2

> <Gold.PLP.Fitness>
32.3838

> <Gold.PLP.PLP>
-26.6195

> <Gold.PLP.part.hbond>
-2.8493

> <Gold.PLP.part.metal>
0.0000

> <Gold.PLP.part.buried>
-2.3913

> <Gold.PLP.part.nonpolar>
-21.5965

> <Gold.PLP.part.repulsive>
1.1993

> <Gold.PLP.ligand.clash>
0.0000

> <Gold.PLP.ligand.torsion>
0.1186

> <Gold.PLP.Chemscore.Hbond>
2.0000

> <Gold.PLP.Chemscore.CHOScore>
0.0000

> <Gold.PLP.Chemscore.Metal>
0.0000

> <Gold.Chemscore.Hbonds>
donor molecule, donor type, donor heavy atom, donor atom, acceptor molecule, acceptor atom, score
      L1  H     7    23       P1  7948  1.00
      P1  H  7997  8010       L1    10  0.96

> <Gold.PLP.Chemscore.Internal.Correction>
0.0015

> <Gold.Rescore>
     Score         DG    S(hbond)    S(metal)    S(lipo)     H(rot)  DE(clash)    DE(int)     intcor
      8.07      -9.23       1.71        0.00      23.55       1.84       0.96       0.20       ----

> <Gold.Chemscore.Fitness>
8.0682

> <Gold.Chemscore.DG>
-9.2324

> <Gold.Chemscore.ZeroCoef>
-5.4800

> <Gold.Chemscore.Hbond>
1.7110

> <Gold.Chemscore.Metal>
0.0000

> <Gold.Chemscore.Lipo>
23.5487

> <Gold.Chemscore.Internal_Hbond>
0.0000

> <Gold.Chemscore.DEClash>
0.9597

> <Gold.Chemscore.DEInternal>
0.2045

> <Gold.Chemscore.Rot>
1.8428

> <Gold.Chemscore.Internal.Correction>
   9.000000E+99

> <Gold.Chemscore.Hbonds>
donor molecule, donor type, donor heavy atom, donor atom, acceptor molecule, acceptor atom, score
      L1  H     7    22       P1  7957  0.01
      L1  H     7    23       P1  7948  0.75
      P1  H  7997  8010       L1    10  0.26

> <Gold.Chemscore.Hbond.Weighted>
-5.7148

> <Gold.Chemscore.Metal.Weighted>
-0.0000

> <Gold.Chemscore.Lipo.Weighted>
-2.7552

> <Gold.Chemscore.Internal_Hbond.Weighted>
0.0000

> <Gold.Chemscore.DEClash.Weighted>
0.9597

> <Gold.Chemscore.DEInternal.Weighted>
0.2045

> <Gold.Chemscore.Rot.Weighted>
4.7177

> <Gold.Chemscore.Internal.Correction.Weighted>
   9.000000E+99

> <Gold.Protein.RotatedTorsions>
[ 6907 6896 6895 6894 ] final  111.51 input  -60.11 | X-H torsion
[ 7974 7965 7964 7962 ] final  -90.55 input  175.53 | X-H torsion
[ 8008 7997 7996 7995 ] final   80.74 input   59.86 | X-H torsion
[ 10167 10162 10161 10158 ] final  -32.00 input  -65.29 | X-H torsion
[ 10718 10713 10712 10709 ] final   22.14 input   66.30 | X-H torsion
[ 10763 10752 10751 10750 ] final   58.65 input  -60.55 | X-H torsion
[ 11005 11000 10999 10996 ] final   32.16 input  -57.11 | X-H torsion

> <Gold.Protein.ActiveResidues>
 VAL166  LYS551  ARG553  GLY616  TRP617  ASP618  TYR619  PRO620  LYS621  CYS622 
 ASP623  PHE694  ASN695  SER759  ASP760  ASP761  ALA762  ILE779  LEU786  VAL792 
 PHE793  MET794  SER795  GLU796  ALA797  LYS798  CYS799  TRP800  GLU811  SER814 

> <Gold.Protein.RotatedAtoms>
  152.4965  133.8647  159.7267 H   0  0  0  0  0  0  0  0  0  0  0  0  # atno 6907 bound_to 6896
  150.9149  133.6942  159.2852 H   0  0  0  0  0  0  0  0  0  0  0  0  # atno 6908 bound_to 6896
  151.4339  135.1017  159.9703 H   0  0  0  0  0  0  0  0  0  0  0  0  # atno 6909 bound_to 6896
  145.4249  140.9553  143.2160 H   0  0  0  0  0  0  0  0  0  0  0  0  # atno 7974 bound_to 7965
  155.8876  140.3440  155.5932 H   0  0  0  0  0  0  0  0  0  0  0  0  # atno 8008 bound_to 7997
  155.7648  140.0837  157.2156 H   0  0  0  0  0  0  0  0  0  0  0  0  # atno 8009 bound_to 7997
  154.4030  140.1529  156.2862 H   0  0  0  0  0  0  0  0  0  0  0  0  # atno 8010 bound_to 7997
  140.7228  143.3728  151.1746 H   0  0  0  0  0  0  0  0  0  0  0  0  # atno 10167 bound_to 10162
  157.1482  130.6663  149.6003 H   0  0  0  0  0  0  0  0  0  0  0  0  # atno 10718 bound_to 10713
  152.9876  135.5599  154.5587 H   0  0  0  0  0  0  0  0  0  0  0  0  # atno 10763 bound_to 10752
  154.5010  135.2797  155.1423 H   0  0  0  0  0  0  0  0  0  0  0  0  # atno 10764 bound_to 10752
  154.2853  135.6337  153.5416 H   0  0  0  0  0  0  0  0  0  0  0  0  # atno 10765 bound_to 10752
  140.2764  134.3023  155.7813 H   0  0  0  0  0  0  0  0  0  0  0  0  # atno 11005 bound_to 11000
  144.8221  139.5774  143.6982 LP  0  0  0  0  0  0  0  0  0  0  0  0  # atno 17320 bound_to 7965
  146.2637  139.6470  142.9344 LP  0  0  0  0  0  0  0  0  0  0  0  0  # atno 17321 bound_to 7965
  139.7302  143.9084  152.3017 LP  0  0  0  0  0  0  0  0  0  0  0  0  # atno 17342 bound_to 10162
  139.8871  144.6986  150.8812 LP  0  0  0  0  0  0  0  0  0  0  0  0  # atno 17343 bound_to 10162
  155.9775  130.4754  150.6600 LP  0  0  0  0  0  0  0  0  0  0  0  0  # atno 17370 bound_to 10713
  157.4245  131.0841  151.1099 LP  0  0  0  0  0  0  0  0  0  0  0  0  # atno 17371 bound_to 10713
  141.2169  133.7498  156.9413 LP  0  0  0  0  0  0  0  0  0  0  0  0  # atno 17394 bound_to 11000
  140.1325  134.9347  157.2356 LP  0  0  0  0  0  0  0  0  0  0  0  0  # atno 17395 bound_to 11000

$$$$
