AV-unprocessed.smi:1809|AV-procd|sdf|7332|dock3
  -GOLD-   22720 8593D 1   1.00000     0.00000
 Structure written by MMmdl.
 38 40  0  0  0  0  0  0  0  0  2 V2000
  146.7416  142.5994  154.3179 C   0  0  0  0  0  0  0  0  0  0  0  0
  147.6768  141.4403  154.2597 C   0  0  0  0  0  0  0  0  0  0  0  0
  147.2961  140.2249  153.8590 N   0  0  0  0  0  0  0  0  0  0  0  0
  148.3412  139.3127  153.8909 N   0  0  0  0  0  0  0  0  0  0  0  0
  149.4972  139.8520  154.3040 C   0  0  0  0  0  0  0  0  0  0  0  0
  150.6292  139.1368  154.4110 N   0  5  0  0  0  0  0  0  0  0  0  0
  151.5205  139.4234  155.3872 C   0  0  0  0  0  0  0  0  0  0  0  0
  152.6623  139.8624  155.2293 O   0  0  0  0  0  0  0  0  0  0  0  0
  151.0619  139.1892  156.6235 N   0  0  0  0  0  0  0  0  0  0  0  0
  151.8120  139.4134  157.8527 C   0  0  0  0  0  0  0  0  0  0  0  0
  152.1328  140.9036  158.0316 C   0  0  1  0  0  0  0  0  0  0  0  0
  150.8538  141.7435  158.2553 C   0  0  0  0  0  0  0  0  0  0  0  0
  151.2093  143.1192  158.5473 N   0  0  0  0  0  0  0  0  0  0  0  0
  150.1268  144.0220  158.8626 C   0  0  0  0  0  0  0  0  0  0  0  0
  150.8206  145.2330  159.5113 C   0  0  0  0  0  0  0  0  0  0  0  0
  152.1897  144.6889  159.9776 C   0  0  0  0  0  0  0  0  0  0  0  0
  152.0705  143.1901  159.6967 C   0  0  2  0  0  0  0  0  0  0  0  0
  153.3664  142.4041  159.4533 C   0  0  0  0  0  0  0  0  0  0  0  0
  153.0093  141.0521  159.1570 O   0  0  0  0  0  0  0  0  0  0  0  0
  149.3689  141.5633  154.7106 S   0  0  0  0  0  0  0  0  0  0  0  0
  146.5570  142.9794  153.3130 H   0  0  0  0  0  0  0  0  0  0  0  0
  147.1679  143.4002  154.9223 H   0  0  0  0  0  0  0  0  0  0  0  0
  145.7923  142.2968  154.7604 H   0  0  0  0  0  0  0  0  0  0  0  0
  150.1213  138.8348  156.7166 H   0  0  0  0  0  0  0  0  0  0  0  0
  151.2181  139.0564  158.6953 H   0  0  0  0  0  0  0  0  0  0  0  0
  152.7334  138.8294  157.8360 H   0  0  0  0  0  0  0  0  0  0  0  0
  152.6457  141.2687  157.1399 H   0  0  0  0  0  0  0  0  0  0  0  0
  150.2177  141.7039  157.3705 H   0  0  0  0  0  0  0  0  0  0  0  0
  150.2761  141.3252  159.0810 H   0  0  0  0  0  0  0  0  0  0  0  0
  149.5541  144.2905  157.9747 H   0  0  0  0  0  0  0  0  0  0  0  0
  149.4457  143.5575  159.5777 H   0  0  0  0  0  0  0  0  0  0  0  0
  150.9592  146.0373  158.7880 H   0  0  0  0  0  0  0  0  0  0  0  0
  150.2316  145.6260  160.3406 H   0  0  0  0  0  0  0  0  0  0  0  0
  152.9920  145.1306  159.3848 H   0  0  0  0  0  0  0  0  0  0  0  0
  152.3904  144.8961  161.0291 H   0  0  0  0  0  0  0  0  0  0  0  0
  151.5588  142.7352  160.5477 H   0  0  0  0  0  0  0  0  0  0  0  0
  153.9383  142.8288  158.6266 H   0  0  0  0  0  0  0  0  0  0  0  0
  154.0036  142.4246  160.3375 H   0  0  0  0  0  0  0  0  0  0  0  0
  1  2  1  0  0  0  0
  1 21  1  0  0  0  0
  1 22  1  0  0  0  0
  1 23  1  0  0  0  0
  2 20  1  0  0  0  0
  2  3  2  0  0  0  0
  3  4  1  0  0  0  0
  4  5  2  0  0  0  0
  5  6  1  0  0  0  0
  5 20  1  0  0  0  0
  6  7  1  0  0  0  0
  7  8  2  0  0  0  0
  7  9  1  0  0  0  0
  9 10  1  0  0  0  0
  9 24  1  0  0  0  0
 10 11  1  0  0  0  0
 10 25  1  0  0  0  0
 10 26  1  0  0  0  0
 11 19  1  0  0  0  0
 11 12  1  0  0  0  0
 11 27  1  0  0  0  0
 12 13  1  0  0  0  0
 12 28  1  0  0  0  0
 12 29  1  0  0  0  0
 13 17  1  0  0  0  0
 13 14  1  0  0  0  0
 14 15  1  0  0  0  0
 14 30  1  0  0  0  0
 14 31  1  0  0  0  0
 15 16  1  0  0  0  0
 15 32  1  0  0  0  0
 15 33  1  0  0  0  0
 16 17  1  0  0  0  0
 16 34  1  0  0  0  0
 16 35  1  0  0  0  0
 17 18  1  0  0  0  0
 17 36  1  0  0  0  0
 18 19  1  0  0  0  0
 18 37  1  0  0  0  0
 18 38  1  0  0  0  0
M  CHG  1   6  -1
M  END
> <s_m_source_file>
AV-unprocessed.smi

> <i_m_source_file_index>
1809

> <i_lp_mmshare_version>
43012

> <i_f3d_flags>
0

> <s_epik_input>
W0NIM11jMW5uYyhzMSlbTkhdQyg9TylbTkhdW0NIMl1bQ0BIXShbQ0gyXTIpT1tDSDJdW0NAQEhdKE4yMylbQ0gyXVtDSDJdW0NIMl0z

> <s_epik_cmdline>
J2VwaWtfcHl0aG9uJywgJy1waCcsICc3LjAnLCAnLXRuJywgJzgnLCAnLW1hJywgJzIwMCcsICctbWV0YWxfYmluZGluZycsICctaW1hZScsICc8aW5maWxlLm1hZT4nLCAnLW9tYWUnLCAnPG91dGZpbGUubWFlPic=

> <r_lp_tautomer_probability>
1

> <r_epik_Ionization_Penalty>
4.48809

> <r_epik_Ionization_Penalty_Charging>
3.27284

> <r_epik_Ionization_Penalty_Neutral>
1.21525

> <r_epik_State_Penalty>
4.69427

> <r_epik_Charging_Adjusted_Penalty>
7.96711

> <i_epik_Tot_Q>
-1

> <i_epik_Tot_abs_Q>
1

> <r_epik_Metal_State_Penalty>
1.91976

> <b_epik_Metal_Only>
1

> <s_lp_Force_Field>
OPLS_2005

> <r_lp_Energy>
45.7242

> <b_lp_Chiralities_Consistent>
1

> <s_lp_Variant>
AV-unprocessed.smi:1809-24

> <Gold.Version>
5.8.1

> <Gold.Id.Protein>
6NUR|6NUR_protein|mol2

> <Gold.PLP.Fitness>
41.4775

> <Gold.PLP.PLP>
-40.0531

> <Gold.PLP.part.hbond>
-2.5382

> <Gold.PLP.part.metal>
0.0000

> <Gold.PLP.part.buried>
-4.6055

> <Gold.PLP.part.nonpolar>
-33.5876

> <Gold.PLP.part.repulsive>
0.6727

> <Gold.PLP.ligand.clash>
0.0000

> <Gold.PLP.ligand.torsion>
0.8822

> <Gold.PLP.Chemscore.Hbond>
1.0546

> <Gold.PLP.Chemscore.CHOScore>
0.0000

> <Gold.PLP.Chemscore.Metal>
0.0000

> <Gold.Chemscore.Hbonds>
donor molecule, donor type, donor heavy atom, donor atom, acceptor molecule, acceptor atom, score
      P1  H  7989  7998       L1     8  0.03
      P1  H  7997  8010       L1     8  1.00

> <Gold.PLP.Chemscore.Internal.Correction>
0.0250

> <Gold.Rescore>
     Score         DG    S(hbond)    S(metal)    S(lipo)     H(rot)  DE(clash)    DE(int)     intcor
     15.61     -16.60       1.00        0.00      95.08       1.31       0.15       0.84       ----

> <Gold.Chemscore.Fitness>
15.6067

> <Gold.Chemscore.DG>
-16.5953

> <Gold.Chemscore.ZeroCoef>
-5.4800

> <Gold.Chemscore.Hbond>
0.9978

> <Gold.Chemscore.Metal>
0.0000

> <Gold.Chemscore.Lipo>
95.0766

> <Gold.Chemscore.Internal_Hbond>
0.0000

> <Gold.Chemscore.DEClash>
0.1509

> <Gold.Chemscore.DEInternal>
0.8378

> <Gold.Chemscore.Rot>
1.3051

> <Gold.Chemscore.Internal.Correction>
   9.000000E+99

> <Gold.Chemscore.Hbonds>
donor molecule, donor type, donor heavy atom, donor atom, acceptor molecule, acceptor atom, score
      P1  H  7997  8010       L1     8  1.00

> <Gold.Chemscore.Hbond.Weighted>
-3.3325

> <Gold.Chemscore.Metal.Weighted>
-0.0000

> <Gold.Chemscore.Lipo.Weighted>
-11.1240

> <Gold.Chemscore.Internal_Hbond.Weighted>
0.0000

> <Gold.Chemscore.DEClash.Weighted>
0.1509

> <Gold.Chemscore.DEInternal.Weighted>
0.8378

> <Gold.Chemscore.Rot.Weighted>
3.3412

> <Gold.Chemscore.Internal.Correction.Weighted>
   9.000000E+99

> <Gold.Protein.RotatedTorsions>
[ 6907 6896 6895 6894 ] final -179.18 input  -60.11 | X-H torsion
[ 7974 7965 7964 7962 ] final  157.29 input  175.53 | X-H torsion
[ 8008 7997 7996 7995 ] final   97.44 input   59.86 | X-H torsion
[ 10167 10162 10161 10158 ] final -126.61 input  -65.29 | X-H torsion
[ 10718 10713 10712 10709 ] final   22.50 input   66.30 | X-H torsion
[ 10763 10752 10751 10750 ] final   18.32 input  -60.55 | X-H torsion
[ 11005 11000 10999 10996 ] final   38.62 input  -57.11 | X-H torsion

> <Gold.Protein.ActiveResidues>
 VAL166  LYS551  ARG553  GLY616  TRP617  ASP618  TYR619  PRO620  LYS621  CYS622 
 ASP623  PHE694  ASN695  SER759  ASP760  ASP761  ALA762  ILE779  LEU786  VAL792 
 PHE793  MET794  SER795  GLU796  ALA797  LYS798  CYS799  TRP800  GLU811  SER814 

> <Gold.Protein.RotatedAtoms>
  151.6492  133.3322  159.3147 H   0  0  0  0  0  0  0  0  0  0  0  0  # atno 6907 bound_to 6896
  150.7969  134.7038  159.6574 H   0  0  0  0  0  0  0  0  0  0  0  0  # atno 6908 bound_to 6896
  152.4057  134.6216  160.0103 H   0  0  0  0  0  0  0  0  0  0  0  0  # atno 6909 bound_to 6896
  144.7912  139.7320  143.6220 H   0  0  0  0  0  0  0  0  0  0  0  0  # atno 7974 bound_to 7965
  156.0901  140.3258  155.7805 H   0  0  0  0  0  0  0  0  0  0  0  0  # atno 8008 bound_to 7997
  155.5010  140.0569  157.2956 H   0  0  0  0  0  0  0  0  0  0  0  0  # atno 8009 bound_to 7997
  154.4632  140.1977  156.0203 H   0  0  0  0  0  0  0  0  0  0  0  0  # atno 8010 bound_to 7997
  139.9696  143.5860  152.2417 H   0  0  0  0  0  0  0  0  0  0  0  0  # atno 10167 bound_to 10162
  157.1532  130.6684  149.6019 H   0  0  0  0  0  0  0  0  0  0  0  0  # atno 10718 bound_to 10713
  153.1260  135.6730  153.9257 H   0  0  0  0  0  0  0  0  0  0  0  0  # atno 10763 bound_to 10752
  153.8758  135.3064  155.3445 H   0  0  0  0  0  0  0  0  0  0  0  0  # atno 10764 bound_to 10752
  154.7665  135.4961  153.9644 H   0  0  0  0  0  0  0  0  0  0  0  0  # atno 10765 bound_to 10752
  140.2108  134.3757  155.8050 H   0  0  0  0  0  0  0  0  0  0  0  0  # atno 11005 bound_to 11000
  146.2164  139.5557  142.9647 LP  0  0  0  0  0  0  0  0  0  0  0  0  # atno 17320 bound_to 7965
  145.5790  141.0385  143.2132 LP  0  0  0  0  0  0  0  0  0  0  0  0  # atno 17321 bound_to 7965
  139.6491  144.7660  151.2184 LP  0  0  0  0  0  0  0  0  0  0  0  0  # atno 17342 bound_to 10162
  140.7526  143.6190  150.8532 LP  0  0  0  0  0  0  0  0  0  0  0  0  # atno 17343 bound_to 10162
  155.9767  130.4737  150.6543 LP  0  0  0  0  0  0  0  0  0  0  0  0  # atno 17370 bound_to 10713
  157.4201  131.0835  151.1139 LP  0  0  0  0  0  0  0  0  0  0  0  0  # atno 17371 bound_to 10713
  141.2226  133.7142  156.8415 LP  0  0  0  0  0  0  0  0  0  0  0  0  # atno 17394 bound_to 11000
  140.1953  134.8936  157.3107 LP  0  0  0  0  0  0  0  0  0  0  0  0  # atno 17395 bound_to 11000

$$$$
