AV-unprocessed.smi:3222|AV-procd|sdf|12305|dock1
  -GOLD-   2272018143D 1   1.00000     0.00000
 Structure written by MMmdl.
 41 42  0  0  0  0  0  0  0  0  2 V2000
  148.3496  139.7835  155.5157 C   0  0  0  0  0  0  0  0  0  0  0  0
  148.7066  141.1368  154.8737 C   0  0  2  0  0  0  0  0  0  0  0  0
  149.0119  142.1065  155.9501 N   0  3  0  0  0  0  0  0  0  0  0  0
  150.3220  141.9174  156.6051 C   0  0  0  0  0  0  0  0  0  0  0  0
  150.1520  141.6748  158.1127 C   0  0  0  0  0  0  0  0  0  0  0  0
  151.3147  142.1353  158.8668 N   0  0  0  0  0  0  0  0  0  0  0  0
  152.1376  141.1973  159.6116 C   0  0  0  0  0  0  0  0  0  0  0  0
  153.1314  142.0693  160.3926 C   0  0  0  0  0  0  0  0  0  0  0  0
  153.0253  143.4723  159.7850 C   0  0  0  0  0  0  0  0  0  0  0  0
  151.7791  143.3891  158.9202 C   0  0  0  0  0  0  0  0  0  0  0  0
  151.2894  144.3665  158.3567 O   0  0  0  0  0  0  0  0  0  0  0  0
  147.5866  141.6841  153.9470 C   0  0  1  0  0  0  0  0  0  0  0  0
  146.9824  140.6053  153.0278 C   0  0  0  0  0  0  0  0  0  0  0  0
  146.5271  142.3444  154.6991 N   0  0  0  0  0  0  0  0  0  0  0  0
  145.5007  143.1315  154.2184 C   0  0  0  0  0  0  0  0  0  0  0  0
  144.7526  143.5267  155.2901 C   0  0  0  0  0  0  0  0  0  0  0  0
  145.4051  142.9216  156.4001 C   0  0  0  0  0  0  0  0  0  0  0  0
  146.4653  142.2147  156.0440 N   0  0  0  0  0  0  0  0  0  0  0  0
  148.2167  139.0009  154.7687 H   0  0  0  0  0  0  0  0  0  0  0  0
  147.4286  139.8501  156.0957 H   0  0  0  0  0  0  0  0  0  0  0  0
  149.1413  139.4493  156.1870 H   0  0  0  0  0  0  0  0  0  0  0  0
  149.6057  140.9758  154.2758 H   0  0  0  0  0  0  0  0  0  0  0  0
  148.9683  143.0388  155.5642 H   0  0  0  0  0  0  0  0  0  0  0  0
  150.8278  141.0716  156.1378 H   0  0  0  0  0  0  0  0  0  0  0  0
  150.9455  142.7967  156.4392 H   0  0  0  0  0  0  0  0  0  0  0  0
  149.2609  142.1902  158.4741 H   0  0  0  0  0  0  0  0  0  0  0  0
  149.9947  140.6130  158.3099 H   0  0  0  0  0  0  0  0  0  0  0  0
  151.5328  140.5797  160.2769 H   0  0  0  0  0  0  0  0  0  0  0  0
  152.6590  140.5409  158.9135 H   0  0  0  0  0  0  0  0  0  0  0  0
  152.8559  142.1003  161.4476 H   0  0  0  0  0  0  0  0  0  0  0  0
  154.1465  141.6758  160.3311 H   0  0  0  0  0  0  0  0  0  0  0  0
  152.9291  144.2454  160.5479 H   0  0  0  0  0  0  0  0  0  0  0  0
  153.8879  143.7022  159.1589 H   0  0  0  0  0  0  0  0  0  0  0  0
  148.0297  142.4470  153.3047 H   0  0  0  0  0  0  0  0  0  0  0  0
  147.7248  140.2042  152.3382 H   0  0  0  0  0  0  0  0  0  0  0  0
  146.1738  141.0169  152.4227 H   0  0  0  0  0  0  0  0  0  0  0  0
  146.5755  139.7719  153.6015 H   0  0  0  0  0  0  0  0  0  0  0  0
  145.3883  143.3439  153.1653 H   0  0  0  0  0  0  0  0  0  0  0  0
  143.8720  144.1518  155.2822 H   0  0  0  0  0  0  0  0  0  0  0  0
  145.1416  142.9745  157.4462 H   0  0  0  0  0  0  0  0  0  0  0  0
  148.2988  142.0205  156.6602 H   0  0  0  0  0  0  0  0  0  0  0  0
  1  2  1  0  0  0  0
  1 19  1  0  0  0  0
  1 20  1  0  0  0  0
  1 21  1  0  0  0  0
  2  3  1  0  0  0  0
  2 12  1  0  0  0  0
  2 22  1  0  0  0  0
  3  4  1  0  0  0  0
  3 23  1  0  0  0  0
  3 41  1  0  0  0  0
  4  5  1  0  0  0  0
  4 24  1  0  0  0  0
  4 25  1  0  0  0  0
  5  6  1  0  0  0  0
  5 26  1  0  0  0  0
  5 27  1  0  0  0  0
  6 10  1  0  0  0  0
  6  7  1  0  0  0  0
  7  8  1  0  0  0  0
  7 28  1  0  0  0  0
  7 29  1  0  0  0  0
  8  9  1  0  0  0  0
  8 30  1  0  0  0  0
  8 31  1  0  0  0  0
  9 10  1  0  0  0  0
  9 32  1  0  0  0  0
  9 33  1  0  0  0  0
 10 11  2  0  0  0  0
 12 13  1  0  0  0  0
 12 14  1  0  0  0  0
 12 34  1  0  0  0  0
 13 35  1  0  0  0  0
 13 36  1  0  0  0  0
 13 37  1  0  0  0  0
 14 18  1  0  0  0  0
 14 15  1  0  0  0  0
 15 16  2  0  0  0  0
 15 38  1  0  0  0  0
 16 17  1  0  0  0  0
 16 39  1  0  0  0  0
 17 18  2  0  0  0  0
 17 40  1  0  0  0  0
M  CHG  1   3   1
M  END
> <s_m_source_file>
AV-unprocessed.smi

> <i_m_source_file_index>
3222

> <i_lp_mmshare_version>
43012

> <i_f3d_flags>
0

> <s_epik_input>
bjFbY0hdW2NIXVtjSF1uMVtDQEBIXShbQ0gzXSlbQ0BIXShbQ0gzXSlbTkhdW0NIMl1bQ0gyXU4yW0NIMl1bQ0gyXVtDSDJdQzI9Tw==

> <s_epik_cmdline>
J2VwaWtfcHl0aG9uJywgJy1waCcsICc3LjAnLCAnLXRuJywgJzgnLCAnLW1hJywgJzIwMCcsICctbWV0YWxfYmluZGluZycsICctaW1hZScsICc8aW5maWxlLm1hZT4nLCAnLW9tYWUnLCAnPG91dGZpbGUubWFlPic=

> <r_lp_tautomer_probability>
1

> <r_epik_Ionization_Penalty>
0.0064019

> <r_epik_Ionization_Penalty_Charging>
0.00639164

> <r_epik_Ionization_Penalty_Neutral>
1.02567e-05

> <r_epik_State_Penalty>
0.00472531

> <r_epik_Charging_Adjusted_Penalty>
0.011117

> <i_epik_Tot_Q>
1

> <i_epik_Tot_abs_Q>
1

> <r_epik_Metal_State_Penalty>
-0

> <b_epik_Metal_Only>
0

> <s_lp_Force_Field>
OPLS_2005

> <r_lp_Energy>
25.0095

> <b_lp_Chiralities_Consistent>
1

> <s_lp_Variant>
AV-unprocessed.smi:3222-3

> <Gold.Version>
5.8.1

> <Gold.Id.Protein>
6NUR|6NUR_protein|mol2

> <Gold.PLP.Fitness>
44.0555

> <Gold.PLP.PLP>
-39.9378

> <Gold.PLP.part.hbond>
-1.0000

> <Gold.PLP.part.metal>
0.0000

> <Gold.PLP.part.buried>
-5.9232

> <Gold.PLP.part.nonpolar>
-33.7171

> <Gold.PLP.part.repulsive>
0.3922

> <Gold.PLP.ligand.clash>
0.0000

> <Gold.PLP.ligand.torsion>
1.1494

> <Gold.PLP.Chemscore.Hbond>
1.9840

> <Gold.PLP.Chemscore.CHOScore>
0.0000

> <Gold.PLP.Chemscore.Metal>
0.0000

> <Gold.Chemscore.Hbonds>
donor molecule, donor type, donor heavy atom, donor atom, acceptor molecule, acceptor atom, score
      L1  H     3    23       P1  8028  2.00

> <Gold.PLP.Chemscore.Internal.Correction>
0.4644

> <Gold.Rescore>
     Score         DG    S(hbond)    S(metal)    S(lipo)     H(rot)  DE(clash)    DE(int)     intcor
     10.49     -13.37       0.88        0.00      85.91       1.99       0.01       2.87       ----

> <Gold.Chemscore.Fitness>
10.4856

> <Gold.Chemscore.DG>
-13.3660

> <Gold.Chemscore.ZeroCoef>
-5.4800

> <Gold.Chemscore.Hbond>
0.8785

> <Gold.Chemscore.Metal>
0.0000

> <Gold.Chemscore.Lipo>
85.9140

> <Gold.Chemscore.Internal_Hbond>
0.0000

> <Gold.Chemscore.DEClash>
0.0107

> <Gold.Chemscore.DEInternal>
2.8697

> <Gold.Chemscore.Rot>
1.9922

> <Gold.Chemscore.Internal.Correction>
   9.000000E+99

> <Gold.Chemscore.Hbonds>
donor molecule, donor type, donor heavy atom, donor atom, acceptor molecule, acceptor atom, score
      L1  H     3    23       P1  8028  0.98

> <Gold.Chemscore.Hbond.Weighted>
-2.9342

> <Gold.Chemscore.Metal.Weighted>
-0.0000

> <Gold.Chemscore.Lipo.Weighted>
-10.0519

> <Gold.Chemscore.Internal_Hbond.Weighted>
0.0000

> <Gold.Chemscore.DEClash.Weighted>
0.0107

> <Gold.Chemscore.DEInternal.Weighted>
2.8697

> <Gold.Chemscore.Rot.Weighted>
5.1002

> <Gold.Chemscore.Internal.Correction.Weighted>
   9.000000E+99

> <Gold.Protein.RotatedTorsions>
[ 6907 6896 6895 6894 ] final -116.05 input  -60.11 | X-H torsion
[ 7974 7965 7964 7962 ] final  134.36 input  175.53 | X-H torsion
[ 8008 7997 7996 7995 ] final -131.20 input   59.86 | X-H torsion
[ 10167 10162 10161 10158 ] final -116.91 input  -65.29 | X-H torsion
[ 10718 10713 10712 10709 ] final  133.84 input   66.30 | X-H torsion
[ 10763 10752 10751 10750 ] final  131.67 input  -60.55 | X-H torsion
[ 11005 11000 10999 10996 ] final  166.84 input  -57.11 | X-H torsion

> <Gold.Protein.ActiveResidues>
 VAL166  LYS551  ARG553  GLY616  TRP617  ASP618  TYR619  PRO620  LYS621  CYS622 
 ASP623  PHE694  ASN695  SER759  ASP760  ASP761  ALA762  ILE779  LEU786  VAL792 
 PHE793  MET794  SER795  GLU796  ALA797  LYS798  CYS799  TRP800  GLU811  SER814 

> <Gold.Protein.RotatedAtoms>
  150.8025  133.8572  159.3221 H   0  0  0  0  0  0  0  0  0  0  0  0  # atno 6907 bound_to 6896
  151.6380  135.1014  160.0145 H   0  0  0  0  0  0  0  0  0  0  0  0  # atno 6908 bound_to 6896
  152.4114  133.6929  159.6436 H   0  0  0  0  0  0  0  0  0  0  0  0  # atno 6909 bound_to 6896
  144.9772  139.4543  143.5404 H   0  0  0  0  0  0  0  0  0  0  0  0  # atno 7974 bound_to 7965
  155.3084  140.0456  157.3033 H   0  0  0  0  0  0  0  0  0  0  0  0  # atno 8008 bound_to 7997
  154.5447  140.2299  155.8549 H   0  0  0  0  0  0  0  0  0  0  0  0  # atno 8009 bound_to 7997
  156.1913  140.3050  155.9345 H   0  0  0  0  0  0  0  0  0  0  0  0  # atno 8010 bound_to 7997
  140.0741  143.4849  152.1963 H   0  0  0  0  0  0  0  0  0  0  0  0  # atno 10167 bound_to 10162
  157.4733  131.1081  150.9775 H   0  0  0  0  0  0  0  0  0  0  0  0  # atno 10718 bound_to 10713
  153.7781  135.3172  155.3362 H   0  0  0  0  0  0  0  0  0  0  0  0  # atno 10763 bound_to 10752
  154.8171  135.4628  154.0678 H   0  0  0  0  0  0  0  0  0  0  0  0  # atno 10764 bound_to 10752
  153.1958  135.6915  153.8379 H   0  0  0  0  0  0  0  0  0  0  0  0  # atno 10765 bound_to 10752
  140.2706  134.7830  157.3671 H   0  0  0  0  0  0  0  0  0  0  0  0  # atno 11005 bound_to 11000
  146.3398  139.9022  142.8793 LP  0  0  0  0  0  0  0  0  0  0  0  0  # atno 17320 bound_to 7965
  145.2473  141.0031  143.3901 LP  0  0  0  0  0  0  0  0  0  0  0  0  # atno 17321 bound_to 7965
  139.5818  144.7514  151.3620 LP  0  0  0  0  0  0  0  0  0  0  0  0  # atno 17342 bound_to 10162
  140.7111  143.7388  150.7568 LP  0  0  0  0  0  0  0  0  0  0  0  0  # atno 17343 bound_to 10162
  157.0533  130.5796  149.5374 LP  0  0  0  0  0  0  0  0  0  0  0  0  # atno 17370 bound_to 10713
  156.0084  130.5173  150.7907 LP  0  0  0  0  0  0  0  0  0  0  0  0  # atno 17371 bound_to 10713
  140.1377  134.5012  155.8055 LP  0  0  0  0  0  0  0  0  0  0  0  0  # atno 17394 bound_to 11000
  141.2178  133.6813  156.7154 LP  0  0  0  0  0  0  0  0  0  0  0  0  # atno 17395 bound_to 11000

$$$$
