AV-unprocessed.smi:265|AV-procd|sdf|2027|dock1
  -GOLD-   2262021233D 1   1.00000     0.00000
 Structure written by MMmdl.
 52 56  0  0  0  0  0  0  0  0  1 V2000
  152.5223  145.1723  157.4511 C   0  0  0  0  0  0  0  0  0  0  0  0
  152.0479  144.1162  158.4605 C   0  0  2  0  0  0  0  0  0  0  0  0
  153.1572  143.4405  159.0467 O   0  0  0  0  0  0  0  0  0  0  0  0
  152.8167  142.0842  159.3228 C   0  0  0  0  0  0  0  0  0  0  0  0
  151.3285  141.9577  159.0089 C   0  0  0  0  0  0  0  0  0  0  0  0
  151.1285  143.0049  157.9196 C   0  0  1  0  0  0  0  0  0  0  0  0
  149.7794  143.4334  157.9337 O   0  0  0  0  0  0  0  0  0  0  0  0
  151.5017  142.5105  156.4954 C   0  0  0  0  0  0  0  0  0  0  0  0
  150.8341  141.2781  156.1076 N   0  0  0  0  0  0  0  0  0  0  0  0
  149.5005  141.1229  155.8040 C   0  0  0  0  0  0  0  0  0  0  0  0
  149.1401  139.9102  155.4838 N   0  0  0  0  0  0  0  0  0  0  0  0
  150.3167  139.1739  155.5605 C   0  0  0  0  0  0  0  0  0  0  0  0
  150.6458  137.8053  155.3474 C   0  0  0  0  0  0  0  0  0  0  0  0
  149.7297  136.8820  154.9594 N   0  0  0  0  0  0  0  0  0  0  0  0
  148.3410  137.0781  155.3904 C   0  0  0  0  0  0  0  0  0  0  0  0
  147.3759  136.1702  154.6041 C   0  0  0  0  0  0  0  0  0  0  0  0
  147.8405  134.7110  154.6932 C   0  0  1  0  0  0  0  0  0  0  0  0
  147.0410  133.8473  153.8993 O   0  0  0  0  0  0  0  0  0  0  0  0
  147.3474  132.4608  154.0840 C   0  0  0  0  0  0  0  0  0  0  0  0
  148.8635  132.1719  154.0439 C   0  0  0  0  0  0  0  0  0  0  0  0
  149.2632  131.0138  153.9506 O   0  0  0  0  0  0  0  0  0  0  0  0
  149.7104  133.2085  154.1556 N   0  0  0  0  0  0  0  0  0  0  0  0
  149.2757  134.5989  154.1561 C   0  0  2  0  0  0  0  0  0  0  0  0
  150.2130  135.4991  154.9755 C   0  0  0  0  0  0  0  0  0  0  0  0
  151.9400  137.4363  155.5450 N   0  0  0  0  0  0  0  0  0  0  0  0
  152.8523  138.3411  155.9123 C   0  0  0  0  0  0  0  0  0  0  0  0
  152.6898  139.6459  156.1373 N   0  0  0  0  0  0  0  0  0  0  0  0
  151.3919  140.0210  155.9522 C   0  0  0  0  0  0  0  0  0  0  0  0
  147.7929  134.3904  155.7363 H   0  0  0  0  0  0  0  0  0  0  0  0
  149.2953  134.9334  153.1172 H   0  0  0  0  0  0  0  0  0  0  0  0
  151.6758  145.6687  156.9762 H   0  0  0  0  0  0  0  0  0  0  0  0
  153.1418  144.7353  156.6681 H   0  0  0  0  0  0  0  0  0  0  0  0
  153.1182  145.9382  157.9478 H   0  0  0  0  0  0  0  0  0  0  0  0
  151.5379  144.6264  159.2803 H   0  0  0  0  0  0  0  0  0  0  0  0
  153.4040  141.4369  158.6709 H   0  0  0  0  0  0  0  0  0  0  0  0
  153.0450  141.8201  160.3555 H   0  0  0  0  0  0  0  0  0  0  0  0
  151.0318  140.9464  158.7337 H   0  0  0  0  0  0  0  0  0  0  0  0
  150.7584  142.2275  159.8998 H   0  0  0  0  0  0  0  0  0  0  0  0
  149.5237  143.6477  157.0497 H   0  0  0  0  0  0  0  0  0  0  0  0
  151.2546  143.2695  155.7522 H   0  0  0  0  0  0  0  0  0  0  0  0
  152.5780  142.3520  156.4185 H   0  0  0  0  0  0  0  0  0  0  0  0
  148.7974  141.9426  155.8327 H   0  0  0  0  0  0  0  0  0  0  0  0
  148.2639  136.8627  156.4571 H   0  0  0  0  0  0  0  0  0  0  0  0
  148.0506  138.1202  155.2502 H   0  0  0  0  0  0  0  0  0  0  0  0
  146.3631  136.2690  154.9954 H   0  0  0  0  0  0  0  0  0  0  0  0
  147.3414  136.4854  153.5605 H   0  0  0  0  0  0  0  0  0  0  0  0
  146.9550  132.1316  155.0470 H   0  0  0  0  0  0  0  0  0  0  0  0
  146.8407  131.8793  153.3134 H   0  0  0  0  0  0  0  0  0  0  0  0
  150.7035  133.0262  154.1610 H   0  0  0  0  0  0  0  0  0  0  0  0
  151.2244  135.4251  154.5777 H   0  0  0  0  0  0  0  0  0  0  0  0
  150.2574  135.1547  156.0098 H   0  0  0  0  0  0  0  0  0  0  0  0
  153.8568  137.9662  156.0434 H   0  0  0  0  0  0  0  0  0  0  0  0
  1  2  1  0  0  0  0
  1 31  1  0  0  0  0
  1 32  1  0  0  0  0
  1 33  1  0  0  0  0
  2  6  1  0  0  0  0
  2  3  1  0  0  0  0
  2 34  1  0  0  0  0
  3  4  1  0  0  0  0
  4  5  1  0  0  0  0
  4 35  1  0  0  0  0
  4 36  1  0  0  0  0
  5  6  1  0  0  0  0
  5 37  1  0  0  0  0
  5 38  1  0  0  0  0
  6  7  1  0  0  0  0
  6  8  1  0  0  0  0
  7 39  1  0  0  0  0
  8  9  1  0  0  0  0
  8 40  1  0  0  0  0
  8 41  1  0  0  0  0
  9 28  1  0  0  0  0
  9 10  1  0  0  0  0
 10 11  2  0  0  0  0
 10 42  1  0  0  0  0
 11 12  1  0  0  0  0
 12 28  2  0  0  0  0
 12 13  1  0  0  0  0
 13 14  1  0  0  0  0
 13 25  2  0  0  0  0
 14 24  1  0  0  0  0
 14 15  1  0  0  0  0
 15 16  1  0  0  0  0
 15 43  1  0  0  0  0
 15 44  1  0  0  0  0
 16 17  1  0  0  0  0
 16 45  1  0  0  0  0
 16 46  1  0  0  0  0
 17 29  1  0  0  0  0
 17 23  1  0  0  0  0
 17 18  1  0  0  0  0
 18 19  1  0  0  0  0
 19 20  1  0  0  0  0
 19 47  1  0  0  0  0
 19 48  1  0  0  0  0
 20 21  2  0  0  0  0
 20 22  1  0  0  0  0
 22 23  1  0  0  0  0
 22 49  1  0  0  0  0
 23 30  1  0  0  0  0
 23 24  1  0  0  0  0
 24 50  1  0  0  0  0
 24 51  1  0  0  0  0
 25 26  1  0  0  0  0
 26 27  2  0  0  0  0
 26 52  1  0  0  0  0
 27 28  1  0  0  0  0
M  END
> <s_m_source_file>
AV-unprocessed.smi

> <i_m_source_file_index>
265

> <i_lp_mmshare_version>
43012

> <i_f3d_flags>
0

> <s_epik_input>
W0NIMl0xW0NIMl1PW0NAQEhdKFtDSDNdKVtDQEBdMShbT0hdKVtDSDJdbihbY0hdbjIpYyhjMjMpbltjSF1uYzNOKFtDSDJdW0NIMl00KVtDSDJdW0NAQEhdKFtDQEhdNDUpW05IXUMoPU8pW0NIMl1PNQ==

> <s_epik_cmdline>
J2VwaWtfcHl0aG9uJywgJy1waCcsICc3LjAnLCAnLXRuJywgJzgnLCAnLW1hJywgJzIwMCcsICctbWV0YWxfYmluZGluZycsICctaW1hZScsICc8aW5maWxlLm1hZT4nLCAnLW9tYWUnLCAnPG91dGZpbGUubWFlPic=

> <r_lp_tautomer_probability>
1

> <r_epik_Ionization_Penalty>
0.00221504

> <r_epik_Ionization_Penalty_Charging>
0

> <r_epik_Ionization_Penalty_Neutral>
0.00221504

> <r_epik_State_Penalty>
-0

> <r_epik_Charging_Adjusted_Penalty>
0

> <i_epik_Tot_Q>
0

> <i_epik_Tot_abs_Q>
0

> <r_epik_Metal_State_Penalty>
-0

> <b_epik_Metal_Only>
0

> <s_lp_Force_Field>
OPLS_2005

> <r_lp_Energy>
44.3077

> <b_lp_Chiralities_Consistent>
1

> <s_lp_Variant>
AV-unprocessed.smi:265-13

> <Gold.Version>
5.8.1

> <Gold.Id.Protein>
6NUR|6NUR_protein|mol2

> <Gold.PLP.Fitness>
43.3089

> <Gold.PLP.PLP>
-37.0032

> <Gold.PLP.part.hbond>
-3.0393

> <Gold.PLP.part.metal>
0.0000

> <Gold.PLP.part.buried>
-4.7924

> <Gold.PLP.part.nonpolar>
-29.1561

> <Gold.PLP.part.repulsive>
0.3732

> <Gold.PLP.ligand.clash>
0.0000

> <Gold.PLP.ligand.torsion>
0.6182

> <Gold.PLP.Chemscore.Hbond>
2.0000

> <Gold.PLP.Chemscore.CHOScore>
0.3550

> <Gold.PLP.Chemscore.Metal>
0.0000

> <Gold.Chemscore.Hbonds>
donor molecule, donor type, donor heavy atom, donor atom, acceptor molecule, acceptor atom, score
      L1  H     7    39       P1  8028  1.00
      P1  H  7997  8008       L1    27  1.00
      L1  C    10    42       P1  8028  0.38

> <Gold.PLP.Chemscore.Internal.Correction>
0.4771

> <Gold.Rescore>
     Score         DG    S(hbond)    S(metal)    S(lipo)     H(rot)  DE(clash)    DE(int)     intcor
     11.92     -15.10       1.65        0.00      84.33       2.25       1.47       1.71       ----

> <Gold.Chemscore.Fitness>
11.9243

> <Gold.Chemscore.DG>
-15.1033

> <Gold.Chemscore.ZeroCoef>
-5.4800

> <Gold.Chemscore.Hbond>
1.6480

> <Gold.Chemscore.Metal>
0.0000

> <Gold.Chemscore.Lipo>
84.3330

> <Gold.Chemscore.Internal_Hbond>
0.0000

> <Gold.Chemscore.DEClash>
1.4686

> <Gold.Chemscore.DEInternal>
1.7104

> <Gold.Chemscore.Rot>
2.2453

> <Gold.Chemscore.Internal.Correction>
   9.000000E+99

> <Gold.Chemscore.Hbonds>
donor molecule, donor type, donor heavy atom, donor atom, acceptor molecule, acceptor atom, score
      L1  H     7    39       P1  8028  0.87
      P1  H  7997  8008       L1    27  0.26

> <Gold.Chemscore.Hbond.Weighted>
-5.5043

> <Gold.Chemscore.Metal.Weighted>
-0.0000

> <Gold.Chemscore.Lipo.Weighted>
-9.8670

> <Gold.Chemscore.Internal_Hbond.Weighted>
0.0000

> <Gold.Chemscore.DEClash.Weighted>
1.4686

> <Gold.Chemscore.DEInternal.Weighted>
1.7104

> <Gold.Chemscore.Rot.Weighted>
5.7479

> <Gold.Chemscore.Internal.Correction.Weighted>
   9.000000E+99

> <Gold.Protein.RotatedTorsions>
[ 6907 6896 6895 6894 ] final  -51.99 input  -60.11 | X-H torsion
[ 7974 7965 7964 7962 ] final   87.41 input  175.53 | X-H torsion
[ 8008 7997 7996 7995 ] final  -52.43 input   59.86 | X-H torsion
[ 10167 10162 10161 10158 ] final -158.04 input  -65.29 | X-H torsion
[ 10718 10713 10712 10709 ] final  -96.58 input   66.30 | X-H torsion
[ 10763 10752 10751 10750 ] final    4.49 input  -60.55 | X-H torsion
[ 11005 11000 10999 10996 ] final -129.46 input  -57.11 | X-H torsion

> <Gold.Protein.ActiveResidues>
 VAL166  LYS551  ARG553  GLY616  TRP617  ASP618  TYR619  PRO620  LYS621  CYS622 
 ASP623  PHE694  ASN695  SER759  ASP760  ASP761  ALA762  ILE779  LEU786  VAL792 
 PHE793  MET794  SER795  GLU796  ALA797  LYS798  CYS799  TRP800  GLU811  SER814 

> <Gold.Protein.RotatedAtoms>
  150.8560  134.7898  159.7045 H   0  0  0  0  0  0  0  0  0  0  0  0  # atno 6907 bound_to 6896
  152.4611  134.5178  159.9783 H   0  0  0  0  0  0  0  0  0  0  0  0  # atno 6908 bound_to 6896
  151.5291  133.3414  159.2950 H   0  0  0  0  0  0  0  0  0  0  0  0  # atno 6909 bound_to 6896
  145.5594  139.2302  143.2468 H   0  0  0  0  0  0  0  0  0  0  0  0  # atno 7974 bound_to 7965
  154.4106  140.1224  156.4990 H   0  0  0  0  0  0  0  0  0  0  0  0  # atno 8008 bound_to 7997
  155.6914  140.3495  155.4875 H   0  0  0  0  0  0  0  0  0  0  0  0  # atno 8009 bound_to 7997
  155.9466  140.1097  157.1002 H   0  0  0  0  0  0  0  0  0  0  0  0  # atno 8010 bound_to 7997
  139.6723  143.9723  152.2291 H   0  0  0  0  0  0  0  0  0  0  0  0  # atno 10167 bound_to 10162
  156.0065  130.5157  150.6247 H   0  0  0  0  0  0  0  0  0  0  0  0  # atno 10718 bound_to 10713
  153.2707  135.6932  153.7484 H   0  0  0  0  0  0  0  0  0  0  0  0  # atno 10763 bound_to 10752
  153.6508  135.3377  155.3100 H   0  0  0  0  0  0  0  0  0  0  0  0  # atno 10764 bound_to 10752
  154.8463  135.4454  154.1728 H   0  0  0  0  0  0  0  0  0  0  0  0  # atno 10765 bound_to 10752
  140.9430  134.1168  157.4133 H   0  0  0  0  0  0  0  0  0  0  0  0  # atno 11005 bound_to 11000
  146.1862  140.6418  142.9166 LP  0  0  0  0  0  0  0  0  0  0  0  0  # atno 17320 bound_to 7965
  144.7490  140.5143  143.6815 LP  0  0  0  0  0  0  0  0  0  0  0  0  # atno 17321 bound_to 7965
  139.9491  144.6632  150.8190 LP  0  0  0  0  0  0  0  0  0  0  0  0  # atno 17342 bound_to 10162
  140.7623  143.3194  151.2657 LP  0  0  0  0  0  0  0  0  0  0  0  0  # atno 17343 bound_to 10162
  157.4056  131.0816  151.1268 LP  0  0  0  0  0  0  0  0  0  0  0  0  # atno 17370 bound_to 10713
  157.1916  130.6354  149.5706 LP  0  0  0  0  0  0  0  0  0  0  0  0  # atno 17371 bound_to 10713
  139.8825  135.0042  156.6237 LP  0  0  0  0  0  0  0  0  0  0  0  0  # atno 17394 bound_to 11000
  140.7708  133.8740  155.8490 LP  0  0  0  0  0  0  0  0  0  0  0  0  # atno 17395 bound_to 11000

$$$$
