AV-unprocessed.smi:2343|AV-procd|sdf|9356|dock7
  -GOLD-   2272012573D 1   1.00000     0.00000
 Structure written by MMmdl.
 34 35  0  0  0  0  0  0  0  0  1 V2000
  146.4291  139.2992  153.4061 O   0  0  0  0  0  0  0  0  0  0  0  0
  147.1925  138.3821  153.1041 C   0  0  0  0  0  0  0  0  0  0  0  0
  146.8058  137.2960  152.4196 N   0  0  0  0  0  0  0  0  0  0  0  0
  145.4480  137.0372  151.9555 C   0  0  0  0  0  0  0  0  0  0  0  0
  144.9061  135.7081  152.5071 C   0  0  0  0  0  0  0  0  0  0  0  0
  145.0928  134.5590  151.5359 C   0  0  0  0  0  0  0  0  0  0  0  0
  144.1300  133.8901  150.9029 C   0  0  0  0  0  0  0  0  0  0  0  0
  144.6669  132.7997  150.0174 C   0  0  0  0  0  0  0  0  0  0  0  0
  146.1968  132.8706  150.2224 C   0  0  0  0  0  0  0  0  0  0  0  0
  146.4660  134.0365  151.2004 C   0  0  0  0  0  0  0  0  0  0  0  0
  148.5052  138.3318  153.3892 N   0  0  0  0  0  0  0  0  0  0  0  0
  149.3018  139.2561  154.1201 C   0  0  0  0  0  0  0  0  0  0  0  0
  148.9204  140.5899  154.4051 C   0  0  0  0  0  0  0  0  0  0  0  0
  149.7978  141.3966  155.1575 C   0  0  0  0  0  0  0  0  0  0  0  0
  150.9857  140.9646  155.6309 N   0  0  0  0  0  0  0  0  0  0  0  0
  151.3407  139.6893  155.3676 C   0  0  0  0  0  0  0  0  0  0  0  0
  150.5379  138.8000  154.6254 C   0  0  0  0  0  0  0  0  0  0  0  0
  150.9528  137.5292  154.4023 F   0  0  0  0  0  0  0  0  0  0  0  0
  147.4996  136.5940  152.2073 H   0  0  0  0  0  0  0  0  0  0  0  0
  144.8169  137.8608  152.2902 H   0  0  0  0  0  0  0  0  0  0  0  0
  145.4184  137.0471  150.8648 H   0  0  0  0  0  0  0  0  0  0  0  0
  145.4019  135.4525  153.4444 H   0  0  0  0  0  0  0  0  0  0  0  0
  143.8435  135.8087  152.7322 H   0  0  0  0  0  0  0  0  0  0  0  0
  143.0716  134.0858  150.9932 H   0  0  0  0  0  0  0  0  0  0  0  0
  144.2621  131.8330  150.3183 H   0  0  0  0  0  0  0  0  0  0  0  0
  144.3885  132.9876  148.9801 H   0  0  0  0  0  0  0  0  0  0  0  0
  146.5716  131.9325  150.6333 H   0  0  0  0  0  0  0  0  0  0  0  0
  146.7080  133.0347  149.2732 H   0  0  0  0  0  0  0  0  0  0  0  0
  147.0699  134.8156  150.7344 H   0  0  0  0  0  0  0  0  0  0  0  0
  146.9743  133.6964  152.1031 H   0  0  0  0  0  0  0  0  0  0  0  0
  149.0101  137.5475  153.0028 H   0  0  0  0  0  0  0  0  0  0  0  0
  147.9806  141.0063  154.0785 H   0  0  0  0  0  0  0  0  0  0  0  0
  149.5336  142.4174  155.3913 H   0  0  0  0  0  0  0  0  0  0  0  0
  152.2927  139.3664  155.7624 H   0  0  0  0  0  0  0  0  0  0  0  0
  1  2  2  0  0  0  0
  2  3  1  0  0  0  0
  2 11  1  0  0  0  0
  3  4  1  0  0  0  0
  3 19  1  0  0  0  0
  4  5  1  0  0  0  0
  4 20  1  0  0  0  0
  4 21  1  0  0  0  0
  5  6  1  0  0  0  0
  5 22  1  0  0  0  0
  5 23  1  0  0  0  0
  6 10  1  0  0  0  0
  6  7  2  0  0  0  0
  7  8  1  0  0  0  0
  7 24  1  0  0  0  0
  8  9  1  0  0  0  0
  8 25  1  0  0  0  0
  8 26  1  0  0  0  0
  9 10  1  0  0  0  0
  9 27  1  0  0  0  0
  9 28  1  0  0  0  0
 10 29  1  0  0  0  0
 10 30  1  0  0  0  0
 11 12  1  0  0  0  0
 11 31  1  0  0  0  0
 12 17  1  0  0  0  0
 12 13  2  0  0  0  0
 13 14  1  0  0  0  0
 13 32  1  0  0  0  0
 14 15  2  0  0  0  0
 14 33  1  0  0  0  0
 15 16  1  0  0  0  0
 16 17  2  0  0  0  0
 16 34  1  0  0  0  0
 17 18  1  0  0  0  0
M  END
> <s_m_source_file>
AV-unprocessed.smi

> <i_m_source_file_index>
2343

> <i_lp_mmshare_version>
43012

> <i_f3d_flags>
0

> <s_epik_input>
RmMxW2NIXW5bY0hdW2NIXWMxW05IXUMoPU8pW05IXVtDSDJdW0NIMl1DMj1bQ0hdW0NIMl1bQ0gyXVtDSDJdMg==

> <s_epik_cmdline>
J2VwaWtfcHl0aG9uJywgJy1waCcsICc3LjAnLCAnLXRuJywgJzgnLCAnLW1hJywgJzIwMCcsICctbWV0YWxfYmluZGluZycsICctaW1hZScsICc8aW5maWxlLm1hZT4nLCAnLW9tYWUnLCAnPG91dGZpbGUubWFlPic=

> <r_epik_Ionization_Penalty>
0.0031801

> <r_epik_Ionization_Penalty_Charging>
0

> <r_epik_Ionization_Penalty_Neutral>
0.0031801

> <r_epik_State_Penalty>
0.0022135

> <r_epik_Charging_Adjusted_Penalty>
0.0022135

> <i_epik_Tot_Q>
0

> <i_epik_Tot_abs_Q>
0

> <r_epik_Metal_State_Penalty>
-0

> <b_epik_Metal_Only>
0

> <s_lp_Force_Field>
OPLS_2005

> <r_lp_Energy>
22.6316

> <b_lp_Chiralities_Consistent>
1

> <s_lp_Variant>
AV-unprocessed.smi:2343-1

> <Gold.Version>
5.8.1

> <Gold.Id.Protein>
6NUR|6NUR_protein|mol2

> <Gold.PLP.Fitness>
43.2661

> <Gold.PLP.PLP>
-35.2417

> <Gold.PLP.part.hbond>
-3.7417

> <Gold.PLP.part.metal>
0.0000

> <Gold.PLP.part.buried>
-0.2294

> <Gold.PLP.part.nonpolar>
-31.3452

> <Gold.PLP.part.repulsive>
0.3617

> <Gold.PLP.ligand.clash>
0.0000

> <Gold.PLP.ligand.torsion>
0.3688

> <Gold.PLP.Chemscore.Hbond>
1.9200

> <Gold.PLP.Chemscore.CHOScore>
1.0000

> <Gold.PLP.Chemscore.Metal>
0.0000

> <Gold.Chemscore.Hbonds>
donor molecule, donor type, donor heavy atom, donor atom, acceptor molecule, acceptor atom, score
      L1  H     3    19       P1  7948  0.98
      L1  H    11    31       P1  7948  0.93
      L1  C    14    33       P1  8028  1.00

> <Gold.PLP.Chemscore.Internal.Correction>
0.0021

> <Gold.Rescore>
     Score         DG    S(hbond)    S(metal)    S(lipo)     H(rot)  DE(clash)    DE(int)     intcor
     16.00     -17.44       1.89        0.00      79.38       1.43       0.04       1.40       ----

> <Gold.Chemscore.Fitness>
15.9993

> <Gold.Chemscore.DG>
-17.4399

> <Gold.Chemscore.ZeroCoef>
-5.4800

> <Gold.Chemscore.Hbond>
1.8948

> <Gold.Chemscore.Metal>
0.0000

> <Gold.Chemscore.Lipo>
79.3805

> <Gold.Chemscore.Internal_Hbond>
0.0000

> <Gold.Chemscore.DEClash>
0.0444

> <Gold.Chemscore.DEInternal>
1.3961

> <Gold.Chemscore.Rot>
1.4282

> <Gold.Chemscore.Internal.Correction>
   9.000000E+99

> <Gold.Chemscore.Hbonds>
donor molecule, donor type, donor heavy atom, donor atom, acceptor molecule, acceptor atom, score
      L1  H     3    19       P1  7948  0.87
      L1  H    11    31       P1  7948  0.90

> <Gold.Chemscore.Hbond.Weighted>
-6.3286

> <Gold.Chemscore.Metal.Weighted>
-0.0000

> <Gold.Chemscore.Lipo.Weighted>
-9.2875

> <Gold.Chemscore.Internal_Hbond.Weighted>
0.0000

> <Gold.Chemscore.DEClash.Weighted>
0.0444

> <Gold.Chemscore.DEInternal.Weighted>
1.3961

> <Gold.Chemscore.Rot.Weighted>
3.6563

> <Gold.Chemscore.Internal.Correction.Weighted>
   9.000000E+99

> <Gold.Protein.RotatedTorsions>
[ 6907 6896 6895 6894 ] final   33.01 input  -60.11 | X-H torsion
[ 7974 7965 7964 7962 ] final -145.78 input  175.53 | X-H torsion
[ 8008 7997 7996 7995 ] final  162.95 input   59.86 | X-H torsion
[ 10167 10162 10161 10158 ] final -164.82 input  -65.29 | X-H torsion
[ 10718 10713 10712 10709 ] final -119.54 input   66.30 | X-H torsion
[ 10763 10752 10751 10750 ] final   43.12 input  -60.55 | X-H torsion
[ 11005 11000 10999 10996 ] final  113.77 input  -57.11 | X-H torsion

> <Gold.Protein.ActiveResidues>
 VAL166  LYS551  ARG553  GLY616  TRP617  ASP618  TYR619  PRO620  LYS621  CYS622 
 ASP623  PHE694  ASN695  SER759  ASP760  ASP761  ALA762  ILE779  LEU786  VAL792 
 PHE793  MET794  SER795  GLU796  ALA797  LYS798  CYS799  TRP800  GLU811  SER814 

> <Gold.Protein.RotatedAtoms>
  152.0826  134.9461  160.0573 H   0  0  0  0  0  0  0  0  0  0  0  0  # atno 6907 bound_to 6896
  152.0744  133.4117  159.4481 H   0  0  0  0  0  0  0  0  0  0  0  0  # atno 6908 bound_to 6896
  150.6836  134.2974  159.4735 H   0  0  0  0  0  0  0  0  0  0  0  0  # atno 6909 bound_to 6896
  144.8204  140.5540  143.5582 H   0  0  0  0  0  0  0  0  0  0  0  0  # atno 7974 bound_to 7965
  156.1993  140.1736  156.7932 H   0  0  0  0  0  0  0  0  0  0  0  0  # atno 8008 bound_to 7997
  154.5571  140.0706  156.8792 H   0  0  0  0  0  0  0  0  0  0  0  0  # atno 8009 bound_to 7997
  155.2918  140.3356  155.4254 H   0  0  0  0  0  0  0  0  0  0  0  0  # atno 8010 bound_to 7997
  139.6224  144.0597  152.1945 H   0  0  0  0  0  0  0  0  0  0  0  0  # atno 10167 bound_to 10162
  156.1189  130.6307  150.9429 H   0  0  0  0  0  0  0  0  0  0  0  0  # atno 10718 bound_to 10713
  152.9867  135.6111  154.3061 H   0  0  0  0  0  0  0  0  0  0  0  0  # atno 10763 bound_to 10752
  154.2778  135.2778  155.2712 H   0  0  0  0  0  0  0  0  0  0  0  0  # atno 10764 bound_to 10752
  154.5064  135.5853  153.6627 H   0  0  0  0  0  0  0  0  0  0  0  0  # atno 10765 bound_to 10752
  139.8962  134.9556  156.6790 H   0  0  0  0  0  0  0  0  0  0  0  0  # atno 11005 bound_to 11000
  145.5118  139.1479  143.3601 LP  0  0  0  0  0  0  0  0  0  0  0  0  # atno 17320 bound_to 7965
  146.2509  140.5258  142.8894 LP  0  0  0  0  0  0  0  0  0  0  0  0  # atno 17321 bound_to 7965
  140.0243  144.6129  150.7541 LP  0  0  0  0  0  0  0  0  0  0  0  0  # atno 17342 bound_to 10162
  140.7390  143.2786  151.3666 LP  0  0  0  0  0  0  0  0  0  0  0  0  # atno 17343 bound_to 10162
  157.6372  131.0914  150.8324 LP  0  0  0  0  0  0  0  0  0  0  0  0  # atno 17370 bound_to 10713
  156.8424  130.5052  149.5320 LP  0  0  0  0  0  0  0  0  0  0  0  0  # atno 17371 bound_to 10713
  140.7314  133.9055  155.8214 LP  0  0  0  0  0  0  0  0  0  0  0  0  # atno 17394 bound_to 11000
  141.0150  134.0968  157.4181 LP  0  0  0  0  0  0  0  0  0  0  0  0  # atno 17395 bound_to 11000

$$$$
