AV-unprocessed.smi:2403|AV-procd|sdf|9509|dock5
  -GOLD-   2272013133D 1   1.00000     0.00000
 Structure written by MMmdl.
 47 49  0  0  0  0  0  0  0  0  1 V2000
  145.2707  135.6259  150.6101 C   0  0  0  0  0  0  0  0  0  0  0  0
  145.2424  134.1092  150.6770 C   0  0  0  0  0  0  0  0  0  0  0  0
  144.3319  133.3882  149.8769 C   0  0  0  0  0  0  0  0  0  0  0  0
  144.3254  131.9825  149.9602 C   0  0  0  0  0  0  0  0  0  0  0  0
  145.1441  131.2859  150.7748 N   0  0  0  0  0  0  0  0  0  0  0  0
  146.0160  131.9777  151.5385 C   0  0  0  0  0  0  0  0  0  0  0  0
  146.1196  133.3910  151.5246 C   0  0  0  0  0  0  0  0  0  0  0  0
  147.0268  134.1068  152.3539 N   0  0  0  0  0  0  0  0  0  0  0  0
  147.5033  133.7470  153.5573 C   0  0  0  0  0  0  0  0  0  0  0  0
  147.2227  132.7033  154.1463 O   0  0  0  0  0  0  0  0  0  0  0  0
  148.3688  134.6621  154.0289 N   0  0  0  0  0  0  0  0  0  0  0  0
  149.1363  134.6220  155.2882 C   0  0  0  0  0  0  0  0  0  0  0  0
  150.0978  135.8342  155.4554 C   0  0  0  0  0  0  0  0  0  0  0  0
  150.9093  135.8514  156.3821 O   0  0  0  0  0  0  0  0  0  0  0  0
  149.9989  136.8487  154.5808 N   0  0  0  0  0  0  0  0  0  0  0  0
  150.8236  138.0464  154.5908 C   0  0  0  0  0  0  0  0  0  0  0  0
  150.0787  139.2931  155.0187 C   0  0  0  0  0  0  0  0  0  0  0  0
  150.7350  140.3088  155.9234 C   0  0  0  0  0  0  0  0  0  0  0  0
  149.5970  139.4615  156.4406 C   0  0  0  0  0  0  0  0  0  0  0  0
  148.1302  134.6232  156.4652 C   0  0  0  0  0  0  0  0  0  0  0  0
  148.7182  133.7091  157.5382 C   0  0  0  0  0  0  0  0  0  0  0  0
  149.3923  132.6001  156.7419 C   0  0  0  0  0  0  0  0  0  0  0  0
  149.8889  133.2638  155.4512 C   0  0  0  0  0  0  0  0  0  0  0  0
  144.5612  136.0038  149.8734 H   0  0  0  0  0  0  0  0  0  0  0  0
  146.2643  135.9769  150.3302 H   0  0  0  0  0  0  0  0  0  0  0  0
  145.0124  136.0539  151.5788 H   0  0  0  0  0  0  0  0  0  0  0  0
  143.6499  133.8970  149.2115 H   0  0  0  0  0  0  0  0  0  0  0  0
  143.6400  131.4026  149.3602 H   0  0  0  0  0  0  0  0  0  0  0  0
  146.6259  131.3716  152.1907 H   0  0  0  0  0  0  0  0  0  0  0  0
  147.4232  134.9411  151.9468 H   0  0  0  0  0  0  0  0  0  0  0  0
  148.5265  135.4760  153.4532 H   0  0  0  0  0  0  0  0  0  0  0  0
  149.3122  136.7721  153.8447 H   0  0  0  0  0  0  0  0  0  0  0  0
  151.6788  137.8888  155.2499 H   0  0  0  0  0  0  0  0  0  0  0  0
  151.2211  138.2149  153.5887 H   0  0  0  0  0  0  0  0  0  0  0  0
  149.4373  139.7061  154.2420 H   0  0  0  0  0  0  0  0  0  0  0  0
  151.7341  140.0877  156.2936 H   0  0  0  0  0  0  0  0  0  0  0  0
  150.5311  141.3598  155.7297 H   0  0  0  0  0  0  0  0  0  0  0  0
  148.6344  139.9464  156.5893 H   0  0  0  0  0  0  0  0  0  0  0  0
  149.8397  138.6777  157.1554 H   0  0  0  0  0  0  0  0  0  0  0  0
  147.9226  135.6201  156.8577 H   0  0  0  0  0  0  0  0  0  0  0  0
  147.1710  134.2111  156.1466 H   0  0  0  0  0  0  0  0  0  0  0  0
  149.4621  134.2504  158.1240 H   0  0  0  0  0  0  0  0  0  0  0  0
  147.9631  133.3307  158.2278 H   0  0  0  0  0  0  0  0  0  0  0  0
  150.1956  132.1176  157.2997 H   0  0  0  0  0  0  0  0  0  0  0  0
  148.6567  131.8333  156.4955 H   0  0  0  0  0  0  0  0  0  0  0  0
  149.7226  132.5833  154.6156 H   0  0  0  0  0  0  0  0  0  0  0  0
  150.9697  133.4031  155.5033 H   0  0  0  0  0  0  0  0  0  0  0  0
  1  2  1  0  0  0  0
  1 24  1  0  0  0  0
  1 25  1  0  0  0  0
  1 26  1  0  0  0  0
  2  7  1  0  0  0  0
  2  3  2  0  0  0  0
  3  4  1  0  0  0  0
  3 27  1  0  0  0  0
  4  5  2  0  0  0  0
  4 28  1  0  0  0  0
  5  6  1  0  0  0  0
  6  7  2  0  0  0  0
  6 29  1  0  0  0  0
  7  8  1  0  0  0  0
  8  9  1  0  0  0  0
  8 30  1  0  0  0  0
  9 10  2  0  0  0  0
  9 11  1  0  0  0  0
 11 12  1  0  0  0  0
 11 31  1  0  0  0  0
 12 23  1  0  0  0  0
 12 13  1  0  0  0  0
 12 20  1  0  0  0  0
 13 14  2  0  0  0  0
 13 15  1  0  0  0  0
 15 16  1  0  0  0  0
 15 32  1  0  0  0  0
 16 17  1  0  0  0  0
 16 33  1  0  0  0  0
 16 34  1  0  0  0  0
 17 19  1  0  0  0  0
 17 18  1  0  0  0  0
 17 35  1  0  0  0  0
 18 19  1  0  0  0  0
 18 36  1  0  0  0  0
 18 37  1  0  0  0  0
 19 38  1  0  0  0  0
 19 39  1  0  0  0  0
 20 21  1  0  0  0  0
 20 40  1  0  0  0  0
 20 41  1  0  0  0  0
 21 22  1  0  0  0  0
 21 42  1  0  0  0  0
 21 43  1  0  0  0  0
 22 23  1  0  0  0  0
 22 44  1  0  0  0  0
 22 45  1  0  0  0  0
 23 46  1  0  0  0  0
 23 47  1  0  0  0  0
M  END
> <s_m_source_file>
AV-unprocessed.smi

> <i_m_source_file_index>
2403

> <i_lp_mmshare_version>
43012

> <i_f3d_flags>
0

> <s_epik_input>
W0NIM11jMVtjSF1bY0hdbltjSF1jMVtOSF1DKD1PKVtOSF1DMihbQ0gyXVtDSDJdW0NIMl1bQ0gyXTIpQyg9TylbTkhdW0NIMl1bQ0hdM1tDSDJdW0NIMl0z

> <s_epik_cmdline>
J2VwaWtfcHl0aG9uJywgJy1waCcsICc3LjAnLCAnLXRuJywgJzgnLCAnLW1hJywgJzIwMCcsICctbWV0YWxfYmluZGluZycsICctaW1hZScsICc8aW5maWxlLm1hZT4nLCAnLW9tYWUnLCAnPG91dGZpbGUubWFlPic=

> <r_epik_Ionization_Penalty>
0.0192934

> <r_epik_Ionization_Penalty_Charging>
0

> <r_epik_Ionization_Penalty_Neutral>
0.0192934

> <r_epik_State_Penalty>
0.0153733

> <r_epik_Charging_Adjusted_Penalty>
0.0153733

> <i_epik_Tot_Q>
0

> <i_epik_Tot_abs_Q>
0

> <r_epik_Metal_State_Penalty>
0.014888

> <b_epik_Metal_Only>
0

> <s_lp_Force_Field>
OPLS_2005

> <r_lp_Energy>
32.7874

> <b_lp_Chiralities_Consistent>
1

> <s_lp_Variant>
AV-unprocessed.smi:2403-1

> <Gold.Version>
5.8.1

> <Gold.Id.Protein>
6NUR|6NUR_protein|mol2

> <Gold.PLP.Fitness>
52.1338

> <Gold.PLP.PLP>
-39.8112

> <Gold.PLP.part.hbond>
-5.0000

> <Gold.PLP.part.metal>
0.0000

> <Gold.PLP.part.buried>
-4.7790

> <Gold.PLP.part.nonpolar>
-31.8600

> <Gold.PLP.part.repulsive>
0.2995

> <Gold.PLP.ligand.clash>
0.0000

> <Gold.PLP.ligand.torsion>
0.9304

> <Gold.PLP.Chemscore.Hbond>
3.9920

> <Gold.PLP.Chemscore.CHOScore>
0.5204

> <Gold.PLP.Chemscore.Metal>
0.0000

> <Gold.Chemscore.Hbonds>
donor molecule, donor type, donor heavy atom, donor atom, acceptor molecule, acceptor atom, score
      L1  H     8    30       P1  7948  0.96
      L1  H    11    31       P1  7948  0.99
      L1  H    15    32       P1  7948  0.82

> <Gold.PLP.Chemscore.Internal.Correction>
0.6461

> <Gold.Rescore>
     Score         DG    S(hbond)    S(metal)    S(lipo)     H(rot)  DE(clash)    DE(int)     intcor
     19.38     -23.08       3.28        0.00      91.60       1.59       0.09       3.61       ----

> <Gold.Chemscore.Fitness>
19.3761

> <Gold.Chemscore.DG>
-23.0753

> <Gold.Chemscore.ZeroCoef>
-5.4800

> <Gold.Chemscore.Hbond>
3.2810

> <Gold.Chemscore.Metal>
0.0000

> <Gold.Chemscore.Lipo>
91.6036

> <Gold.Chemscore.Internal_Hbond>
0.0000

> <Gold.Chemscore.DEClash>
0.0927

> <Gold.Chemscore.DEInternal>
3.6065

> <Gold.Chemscore.Rot>
1.5941

> <Gold.Chemscore.Internal.Correction>
   9.000000E+99

> <Gold.Chemscore.Hbonds>
donor molecule, donor type, donor heavy atom, donor atom, acceptor molecule, acceptor atom, score
      L1  H     8    30       P1  7948  0.80
      L1  H    11    31       P1  7948  0.93
      L1  H    15    32       P1  7948  0.75

> <Gold.Chemscore.Hbond.Weighted>
-10.9586

> <Gold.Chemscore.Metal.Weighted>
-0.0000

> <Gold.Chemscore.Lipo.Weighted>
-10.7176

> <Gold.Chemscore.Internal_Hbond.Weighted>
0.0000

> <Gold.Chemscore.DEClash.Weighted>
0.0927

> <Gold.Chemscore.DEInternal.Weighted>
3.6065

> <Gold.Chemscore.Rot.Weighted>
4.0809

> <Gold.Chemscore.Internal.Correction.Weighted>
   9.000000E+99

> <Gold.Protein.RotatedTorsions>
[ 6907 6896 6895 6894 ] final  144.56 input  -60.11 | X-H torsion
[ 7974 7965 7964 7962 ] final   21.78 input  175.53 | X-H torsion
[ 8008 7997 7996 7995 ] final   86.67 input   59.86 | X-H torsion
[ 10167 10162 10161 10158 ] final  -27.34 input  -65.29 | X-H torsion
[ 10718 10713 10712 10709 ] final  -46.12 input   66.30 | X-H torsion
[ 10763 10752 10751 10750 ] final -150.09 input  -60.55 | X-H torsion
[ 11005 11000 10999 10996 ] final   86.35 input  -57.11 | X-H torsion

> <Gold.Protein.ActiveResidues>
 VAL166  LYS551  ARG553  GLY616  TRP617  ASP618  TYR619  PRO620  LYS621  CYS622 
 ASP623  PHE694  ASN695  SER759  ASP760  ASP761  ALA762  ILE779  LEU786  VAL792 
 PHE793  MET794  SER795  GLU796  ALA797  LYS798  CYS799  TRP800  GLU811  SER814 

> <Gold.Protein.RotatedAtoms>
  152.1921  133.4780  159.5013 H   0  0  0  0  0  0  0  0  0  0  0  0  # atno 6907 bound_to 6896
  150.6953  134.1699  159.4217 H   0  0  0  0  0  0  0  0  0  0  0  0  # atno 6908 bound_to 6896
  151.9614  135.0121  160.0598 H   0  0  0  0  0  0  0  0  0  0  0  0  # atno 6909 bound_to 6896
  146.2057  139.7979  142.8728 H   0  0  0  0  0  0  0  0  0  0  0  0  # atno 7974 bound_to 7965
  155.9657  140.3390  155.6530 H   0  0  0  0  0  0  0  0  0  0  0  0  # atno 8008 bound_to 7997
  155.6740  140.0730  157.2528 H   0  0  0  0  0  0  0  0  0  0  0  0  # atno 8009 bound_to 7997
  154.4154  140.1686  156.1897 H   0  0  0  0  0  0  0  0  0  0  0  0  # atno 8010 bound_to 7997
  140.7278  143.4102  151.1118 H   0  0  0  0  0  0  0  0  0  0  0  0  # atno 10167 bound_to 10162
  156.2214  130.4166  149.8988 H   0  0  0  0  0  0  0  0  0  0  0  0  # atno 10718 bound_to 10713
  154.8140  135.3293  154.7228 H   0  0  0  0  0  0  0  0  0  0  0  0  # atno 10763 bound_to 10752
  153.7873  135.6914  153.4882 H   0  0  0  0  0  0  0  0  0  0  0  0  # atno 10764 bound_to 10752
  153.1940  135.4540  155.0132 H   0  0  0  0  0  0  0  0  0  0  0  0  # atno 10765 bound_to 10752
  139.8947  134.8349  156.2709 H   0  0  0  0  0  0  0  0  0  0  0  0  # atno 11005 bound_to 11000
  145.3328  141.0270  143.3437 LP  0  0  0  0  0  0  0  0  0  0  0  0  # atno 17320 bound_to 7965
  144.8787  139.4935  143.6733 LP  0  0  0  0  0  0  0  0  0  0  0  0  # atno 17321 bound_to 7965
  139.7734  143.8461  152.3125 LP  0  0  0  0  0  0  0  0  0  0  0  0  # atno 17342 bound_to 10162
  139.8387  144.7220  150.9358 LP  0  0  0  0  0  0  0  0  0  0  0  0  # atno 17343 bound_to 10162
  156.6633  130.8791  151.3551 LP  0  0  0  0  0  0  0  0  0  0  0  0  # atno 17370 bound_to 10713
  157.7089  130.9417  150.1023 LP  0  0  0  0  0  0  0  0  0  0  0  0  # atno 17371 bound_to 10713
  141.0102  133.7100  156.1099 LP  0  0  0  0  0  0  0  0  0  0  0  0  # atno 17394 bound_to 11000
  140.7378  134.4183  157.5558 LP  0  0  0  0  0  0  0  0  0  0  0  0  # atno 17395 bound_to 11000

$$$$
