AV-unprocessed.smi:275|AV-procd|sdf|2065|dock7
  -GOLD-   2262021313D 1   1.00000     0.00000
 Structure written by MMmdl.
 65 69  0  0  0  0  0  0  0  0  1 V2000
  144.1681  137.1732  161.9964 C   0  0  0  0  0  0  0  0  0  0  0  0
  144.5896  137.3055  160.5235 C   0  0  0  0  0  0  0  0  0  0  0  0
  143.3126  137.4623  159.6753 C   0  0  0  0  0  0  0  0  0  0  0  0
  145.4687  136.1299  160.0210 C   0  0  1  0  0  0  0  0  0  0  0  0
  145.9300  136.4733  158.6723 N   0  0  0  0  0  0  0  0  0  0  0  0
  145.8106  135.4569  157.6681 C   0  0  0  0  0  0  0  0  0  0  0  0
  145.3514  134.2257  158.0231 N   0  0  0  0  0  0  0  0  0  0  0  0
  145.2084  133.2469  157.1264 C   0  0  0  0  0  0  0  0  0  0  0  0
  145.4734  133.2702  155.8217 N   0  0  0  0  0  0  0  0  0  0  0  0
  145.9704  134.4823  155.4494 C   0  0  0  0  0  0  0  0  0  0  0  0
  146.1795  135.6092  156.2970 C   0  0  0  0  0  0  0  0  0  0  0  0
  146.7178  136.6524  155.5514 N   0  0  0  0  0  0  0  0  0  0  0  0
  146.8008  136.1815  154.3385 C   0  0  0  0  0  0  0  0  0  0  0  0
  146.3489  134.8926  154.1833 N   0  0  0  0  0  0  0  0  0  0  0  0
  146.3103  134.1324  152.9482 C   0  0  0  0  0  0  0  0  0  0  0  0
  144.8815  133.7333  152.4860 C   0  0  1  0  0  0  0  0  0  0  0  0
  144.1253  135.0066  152.0346 C   0  0  0  0  0  0  0  0  0  0  0  0
  144.8205  135.6755  151.0023 O   0  0  0  0  0  0  0  0  0  0  0  0
  144.8838  132.6370  151.3763 C   0  0  2  0  0  0  0  0  0  0  0  0
  145.7652  132.9331  150.1705 C   0  0  0  0  0  0  0  0  0  0  0  0
  145.1906  132.0068  149.1105 C   0  0  0  0  0  0  0  0  0  0  0  0
  143.7914  132.0991  149.3122 O   0  0  0  0  0  0  0  0  0  0  0  0
  143.5304  132.3809  150.6838 C   0  0  0  0  0  0  0  0  0  0  0  0
  147.2731  136.7744  159.1541 C   0  0  0  0  0  0  0  0  0  0  0  0
  146.9707  135.9207  160.3941 C   0  0  0  0  0  0  0  0  0  0  0  0
  147.5053  134.4698  160.3018 C   0  0  0  0  0  0  0  0  0  0  0  0
  147.1422  133.5955  161.5100 C   0  0  0  0  0  0  0  0  0  0  0  0
  147.6981  134.2033  162.7995 C   0  0  0  0  0  0  0  0  0  0  0  0
  147.2041  135.6421  162.9621 C   0  0  0  0  0  0  0  0  0  0  0  0
  147.5168  136.4978  161.7162 C   0  0  0  0  0  0  0  0  0  0  0  0
  143.7971  136.1718  162.2167 H   0  0  0  0  0  0  0  0  0  0  0  0
  143.3739  137.8782  162.2438 H   0  0  0  0  0  0  0  0  0  0  0  0
  144.9842  137.3997  162.6776 H   0  0  0  0  0  0  0  0  0  0  0  0
  145.1470  138.2397  160.4374 H   0  0  0  0  0  0  0  0  0  0  0  0
  142.6722  136.5841  159.7589 H   0  0  0  0  0  0  0  0  0  0  0  0
  143.5400  137.6105  158.6195 H   0  0  0  0  0  0  0  0  0  0  0  0
  142.7291  138.3252  159.9974 H   0  0  0  0  0  0  0  0  0  0  0  0
  144.9442  135.1769  160.0742 H   0  0  0  0  0  0  0  0  0  0  0  0
  144.8223  132.3139  157.5096 H   0  0  0  0  0  0  0  0  0  0  0  0
  147.1813  136.7691  153.5158 H   0  0  0  0  0  0  0  0  0  0  0  0
  146.8046  134.7395  152.1896 H   0  0  0  0  0  0  0  0  0  0  0  0
  146.9248  133.2395  153.0665 H   0  0  0  0  0  0  0  0  0  0  0  0
  144.3417  133.3303  153.3444 H   0  0  0  0  0  0  0  0  0  0  0  0
  143.1189  134.7611  151.6939 H   0  0  0  0  0  0  0  0  0  0  0  0
  144.0227  135.7231  152.8482 H   0  0  0  0  0  0  0  0  0  0  0  0
  145.7424  135.6757  151.2107 H   0  0  0  0  0  0  0  0  0  0  0  0
  145.2301  131.6973  151.8101 H   0  0  0  0  0  0  0  0  0  0  0  0
  145.6523  133.9717  149.8561 H   0  0  0  0  0  0  0  0  0  0  0  0
  146.8226  132.7407  150.3539 H   0  0  0  0  0  0  0  0  0  0  0  0
  145.4715  132.2945  148.0973 H   0  0  0  0  0  0  0  0  0  0  0  0
  145.5123  130.9782  149.2800 H   0  0  0  0  0  0  0  0  0  0  0  0
  142.9997  131.5418  151.1317 H   0  0  0  0  0  0  0  0  0  0  0  0
  142.8805  133.2549  150.7289 H   0  0  0  0  0  0  0  0  0  0  0  0
  148.1138  136.4198  158.5579 H   0  0  0  0  0  0  0  0  0  0  0  0
  147.3778  137.8361  159.3824 H   0  0  0  0  0  0  0  0  0  0  0  0
  147.1356  133.9703  159.4075 H   0  0  0  0  0  0  0  0  0  0  0  0
  148.5902  134.4840  160.1899 H   0  0  0  0  0  0  0  0  0  0  0  0
  146.0586  133.4954  161.5813 H   0  0  0  0  0  0  0  0  0  0  0  0
  147.5384  132.5890  161.3735 H   0  0  0  0  0  0  0  0  0  0  0  0
  147.3997  133.6029  163.6595 H   0  0  0  0  0  0  0  0  0  0  0  0
  148.7883  134.1897  162.7720 H   0  0  0  0  0  0  0  0  0  0  0  0
  146.1334  135.6115  163.1504 H   0  0  0  0  0  0  0  0  0  0  0  0
  147.6581  136.0929  163.8450 H   0  0  0  0  0  0  0  0  0  0  0  0
  148.6000  136.6007  161.6395 H   0  0  0  0  0  0  0  0  0  0  0  0
  147.1558  137.5143  161.8682 H   0  0  0  0  0  0  0  0  0  0  0  0
  1  2  1  0  0  0  0
  1 31  1  0  0  0  0
  1 32  1  0  0  0  0
  1 33  1  0  0  0  0
  2  3  1  0  0  0  0
  2  4  1  0  0  0  0
  2 34  1  0  0  0  0
  3 35  1  0  0  0  0
  3 36  1  0  0  0  0
  3 37  1  0  0  0  0
  4 25  1  0  0  0  0
  4  5  1  0  0  0  0
  4 38  1  0  0  0  0
  5  6  1  0  0  0  0
  5 24  1  0  0  0  0
  6 11  1  0  0  0  0
  6  7  2  0  0  0  0
  7  8  1  0  0  0  0
  8  9  2  0  0  0  0
  8 39  1  0  0  0  0
  9 10  1  0  0  0  0
 10 14  1  0  0  0  0
 10 11  2  0  0  0  0
 11 12  1  0  0  0  0
 12 13  2  0  0  0  0
 13 14  1  0  0  0  0
 13 40  1  0  0  0  0
 14 15  1  0  0  0  0
 15 16  1  0  0  0  0
 15 41  1  0  0  0  0
 15 42  1  0  0  0  0
 16 17  1  0  0  0  0
 16 19  1  0  0  0  0
 16 43  1  0  0  0  0
 17 18  1  0  0  0  0
 17 44  1  0  0  0  0
 17 45  1  0  0  0  0
 18 46  1  0  0  0  0
 19 23  1  0  0  0  0
 19 20  1  0  0  0  0
 19 47  1  0  0  0  0
 20 21  1  0  0  0  0
 20 48  1  0  0  0  0
 20 49  1  0  0  0  0
 21 22  1  0  0  0  0
 21 50  1  0  0  0  0
 21 51  1  0  0  0  0
 22 23  1  0  0  0  0
 23 52  1  0  0  0  0
 23 53  1  0  0  0  0
 24 25  1  0  0  0  0
 24 54  1  0  0  0  0
 24 55  1  0  0  0  0
 25 30  1  0  0  0  0
 25 26  1  0  0  0  0
 26 27  1  0  0  0  0
 26 56  1  0  0  0  0
 26 57  1  0  0  0  0
 27 28  1  0  0  0  0
 27 58  1  0  0  0  0
 27 59  1  0  0  0  0
 28 29  1  0  0  0  0
 28 60  1  0  0  0  0
 28 61  1  0  0  0  0
 29 30  1  0  0  0  0
 29 62  1  0  0  0  0
 29 63  1  0  0  0  0
 30 64  1  0  0  0  0
 30 65  1  0  0  0  0
M  END
> <s_m_source_file>
AV-unprocessed.smi

> <i_m_source_file_index>
275

> <i_lp_mmshare_version>
43012

> <i_f3d_flags>
0

> <s_epik_input>
W0NIMl0xW0NIMl1bQ0gyXVtDSDJdW0NIMl1DMTJbQ0BIXShbQ0hdKFtDSDNdKVtDSDNdKU4oW0NIMl0yKWMobltjSF1uMyljKGMzNCluW2NIXW40W0NIMl1bQ0BIXShbQ0gyXVtPSF0pW0NAQEhdNVtDSDJdW0NIMl1PW0NIMl01

> <s_epik_cmdline>
J2VwaWtfcHl0aG9uJywgJy1waCcsICc3LjAnLCAnLXRuJywgJzgnLCAnLW1hJywgJzIwMCcsICctbWV0YWxfYmluZGluZycsICctaW1hZScsICc8aW5maWxlLm1hZT4nLCAnLW9tYWUnLCAnPG91dGZpbGUubWFlPic=

> <r_lp_tautomer_probability>
1

> <r_epik_Ionization_Penalty>
0.00375122

> <r_epik_Ionization_Penalty_Charging>
0

> <r_epik_Ionization_Penalty_Neutral>
0.00375122

> <r_epik_State_Penalty>
0.00260593

> <r_epik_Charging_Adjusted_Penalty>
0.00260593

> <i_epik_Tot_Q>
0

> <i_epik_Tot_abs_Q>
0

> <r_epik_Metal_State_Penalty>
-0

> <b_epik_Metal_Only>
0

> <s_lp_Force_Field>
OPLS_2005

> <r_lp_Energy>
67.0366

> <b_lp_Chiralities_Consistent>
1

> <s_lp_Variant>
AV-unprocessed.smi:275-4

> <Gold.Version>
5.8.1

> <Gold.Id.Protein>
6NUR|6NUR_protein|mol2

> <Gold.PLP.Fitness>
41.2515

> <Gold.PLP.PLP>
-36.9214

> <Gold.PLP.part.hbond>
-1.1807

> <Gold.PLP.part.metal>
0.0000

> <Gold.PLP.part.buried>
-6.1599

> <Gold.PLP.part.nonpolar>
-29.8576

> <Gold.PLP.part.repulsive>
0.3943

> <Gold.PLP.ligand.clash>
0.0000

> <Gold.PLP.ligand.torsion>
0.5558

> <Gold.PLP.Chemscore.Hbond>
0.6354

> <Gold.PLP.Chemscore.CHOScore>
1.0000

> <Gold.PLP.Chemscore.Metal>
0.0000

> <Gold.Chemscore.Hbonds>
donor molecule, donor type, donor heavy atom, donor atom, acceptor molecule, acceptor atom, score
      P1  H 10785 10796       L1    22  0.65
      L1  C    13    40       P1  7948  1.00

> <Gold.PLP.Chemscore.Internal.Correction>
0.5354

> <Gold.Rescore>
     Score         DG    S(hbond)    S(metal)    S(lipo)     H(rot)  DE(clash)    DE(int)     intcor
     12.03     -12.80       0.48        0.00     104.26       2.54       0.10       0.66       ----

> <Gold.Chemscore.Fitness>
12.0347

> <Gold.Chemscore.DG>
-12.7993

> <Gold.Chemscore.ZeroCoef>
-5.4800

> <Gold.Chemscore.Hbond>
0.4843

> <Gold.Chemscore.Metal>
0.0000

> <Gold.Chemscore.Lipo>
104.2595

> <Gold.Chemscore.Internal_Hbond>
0.0000

> <Gold.Chemscore.DEClash>
0.1007

> <Gold.Chemscore.DEInternal>
0.6640

> <Gold.Chemscore.Rot>
2.5377

> <Gold.Chemscore.Internal.Correction>
   9.000000E+99

> <Gold.Chemscore.Hbonds>
donor molecule, donor type, donor heavy atom, donor atom, acceptor molecule, acceptor atom, score
      P1  H 10785 10796       L1    22  0.14

> <Gold.Chemscore.Hbond.Weighted>
-1.6176

> <Gold.Chemscore.Metal.Weighted>
-0.0000

> <Gold.Chemscore.Lipo.Weighted>
-12.1984

> <Gold.Chemscore.Internal_Hbond.Weighted>
0.0000

> <Gold.Chemscore.DEClash.Weighted>
0.1007

> <Gold.Chemscore.DEInternal.Weighted>
0.6640

> <Gold.Chemscore.Rot.Weighted>
6.4966

> <Gold.Chemscore.Internal.Correction.Weighted>
   9.000000E+99

> <Gold.Protein.RotatedTorsions>
[ 6907 6896 6895 6894 ] final -123.44 input  -60.11 | X-H torsion
[ 7974 7965 7964 7962 ] final -103.32 input  175.53 | X-H torsion
[ 8008 7997 7996 7995 ] final  127.78 input   59.86 | X-H torsion
[ 10167 10162 10161 10158 ] final -105.66 input  -65.29 | X-H torsion
[ 10718 10713 10712 10709 ] final  149.34 input   66.30 | X-H torsion
[ 10763 10752 10751 10750 ] final  126.57 input  -60.55 | X-H torsion
[ 11005 11000 10999 10996 ] final   86.24 input  -57.11 | X-H torsion

> <Gold.Protein.ActiveResidues>
 VAL166  LYS551  ARG553  GLY616  TRP617  ASP618  TYR619  PRO620  LYS621  CYS622 
 ASP623  PHE694  ASN695  SER759  ASP760  ASP761  ALA762  ILE779  LEU786  VAL792 
 PHE793  MET794  SER795  GLU796  ALA797  LYS798  CYS799  TRP800  GLU811  SER814 

> <Gold.Protein.RotatedAtoms>
  150.8671  133.7558  159.2972 H   0  0  0  0  0  0  0  0  0  0  0  0  # atno 6907 bound_to 6896
  151.5182  135.1065  159.9881 H   0  0  0  0  0  0  0  0  0  0  0  0  # atno 6908 bound_to 6896
  152.4669  133.7898  159.6951 H   0  0  0  0  0  0  0  0  0  0  0  0  # atno 6909 bound_to 6896
  145.2574  140.9258  143.3060 H   0  0  0  0  0  0  0  0  0  0  0  0  # atno 7974 bound_to 7965
  156.2899  140.2660  156.2328 H   0  0  0  0  0  0  0  0  0  0  0  0  # atno 8008 bound_to 7997
  155.0055  140.0387  157.2396 H   0  0  0  0  0  0  0  0  0  0  0  0  # atno 8009 bound_to 7997
  154.7564  140.2752  155.6255 H   0  0  0  0  0  0  0  0  0  0  0  0  # atno 8010 bound_to 7997
  140.1961  143.3854  152.1167 H   0  0  0  0  0  0  0  0  0  0  0  0  # atno 10167 bound_to 10162
  157.2973  131.0864  151.1417 H   0  0  0  0  0  0  0  0  0  0  0  0  # atno 10718 bound_to 10713
  153.6955  135.3292  155.3212 H   0  0  0  0  0  0  0  0  0  0  0  0  # atno 10763 bound_to 10752
  154.8428  135.4442  154.1464 H   0  0  0  0  0  0  0  0  0  0  0  0  # atno 10764 bound_to 10752
  153.2518  135.6982  153.7749 H   0  0  0  0  0  0  0  0  0  0  0  0  # atno 10765 bound_to 10752
  139.8950  134.8341  156.2693 H   0  0  0  0  0  0  0  0  0  0  0  0  # atno 11005 bound_to 11000
  144.9449  139.4147  143.6431 LP  0  0  0  0  0  0  0  0  0  0  0  0  # atno 17320 bound_to 7965
  146.3285  139.8427  142.8887 LP  0  0  0  0  0  0  0  0  0  0  0  0  # atno 17321 bound_to 7965
  139.5236  144.7073  151.5314 LP  0  0  0  0  0  0  0  0  0  0  0  0  # atno 17342 bound_to 10162
  140.6422  143.8865  150.6703 LP  0  0  0  0  0  0  0  0  0  0  0  0  # atno 17343 bound_to 10162
  157.2790  130.6741  149.6056 LP  0  0  0  0  0  0  0  0  0  0  0  0  # atno 17370 bound_to 10713
  155.9670  130.4456  150.5506 LP  0  0  0  0  0  0  0  0  0  0  0  0  # atno 17371 bound_to 10713
  141.0111  133.7095  156.1114 LP  0  0  0  0  0  0  0  0  0  0  0  0  # atno 17394 bound_to 11000
  140.7365  134.4197  157.5560 LP  0  0  0  0  0  0  0  0  0  0  0  0  # atno 17395 bound_to 11000

$$$$
