AV-unprocessed.smi:1897|AV-procd|sdf|7686|dock1
  -GOLD-   22720 9423D 1   1.00000     0.00000
 Structure written by MMmdl.
 39 41  0  0  0  0  0  0  0  0  2 V2000
  152.6655  137.4545  158.4475 C   0  0  0  0  0  0  0  0  0  0  0  0
  152.0592  137.0230  157.1560 C   0  0  0  0  0  0  0  0  0  0  0  0
  152.6480  137.2395  155.9739 N   0  0  0  0  0  0  0  0  0  0  0  0
  151.8970  136.7496  154.9154 N   0  0  0  0  0  0  0  0  0  0  0  0
  150.7610  136.1689  155.3287 C   0  0  0  0  0  0  0  0  0  0  0  0
  149.7877  135.5847  154.4657 N   0  0  0  0  0  0  0  0  0  0  0  0
  148.9568  134.5328  154.6290 C   0  0  0  0  0  0  0  0  0  0  0  0
  148.9529  133.8851  155.6742 O   0  0  0  0  0  0  0  0  0  0  0  0
  148.1492  134.2432  153.5957 N   0  0  0  0  0  0  0  0  0  0  0  0
  147.1684  133.1636  153.5585 C   0  0  2  0  0  0  0  0  0  0  0  0
  147.7950  131.7801  153.8076 C   0  0  0  0  0  0  0  0  0  0  0  0
  147.0490  130.8171  152.8629 C   0  0  0  0  0  0  0  0  0  0  0  0
  146.0028  131.6336  152.2182 N   0  3  2  0  0  0  0  0  0  0  0  0
  145.4971  131.1699  150.9077 C   0  0  0  0  0  0  0  0  0  0  0  0
  144.3592  132.1009  150.4431 C   0  0  0  0  0  0  0  0  0  0  0  0
  144.7937  133.5807  150.4486 C   0  0  0  0  0  0  0  0  0  0  0  0
  145.3975  133.9793  151.8092 C   0  0  0  0  0  0  0  0  0  0  0  0
  146.5307  133.0058  152.1758 C   0  0  1  0  0  0  0  0  0  0  0  0
  150.5152  136.1845  157.0673 S   0  0  0  0  0  0  0  0  0  0  0  0
  153.1477  138.4259  158.3344 H   0  0  0  0  0  0  0  0  0  0  0  0
  153.4108  136.7276  158.7706 H   0  0  0  0  0  0  0  0  0  0  0  0
  151.8980  137.5358  159.2177 H   0  0  0  0  0  0  0  0  0  0  0  0
  149.7249  136.0243  153.5587 H   0  0  0  0  0  0  0  0  0  0  0  0
  148.2186  134.8246  152.7722 H   0  0  0  0  0  0  0  0  0  0  0  0
  146.3877  133.3264  154.3048 H   0  0  0  0  0  0  0  0  0  0  0  0
  148.8601  131.7761  153.5700 H   0  0  0  0  0  0  0  0  0  0  0  0
  147.6923  131.4848  154.8524 H   0  0  0  0  0  0  0  0  0  0  0  0
  147.7360  130.4245  152.1115 H   0  0  0  0  0  0  0  0  0  0  0  0
  146.6082  129.9727  153.3932 H   0  0  0  0  0  0  0  0  0  0  0  0
  146.3076  131.1631  150.1771 H   0  0  0  0  0  0  0  0  0  0  0  0
  145.1328  130.1460  150.9971 H   0  0  0  0  0  0  0  0  0  0  0  0
  144.0241  131.8136  149.4460 H   0  0  0  0  0  0  0  0  0  0  0  0
  143.4999  131.9768  151.1037 H   0  0  0  0  0  0  0  0  0  0  0  0
  145.5327  133.7436  149.6629 H   0  0  0  0  0  0  0  0  0  0  0  0
  143.9446  134.2227  150.2116 H   0  0  0  0  0  0  0  0  0  0  0  0
  145.7737  135.0012  151.7617 H   0  0  0  0  0  0  0  0  0  0  0  0
  144.6243  133.9645  152.5785 H   0  0  0  0  0  0  0  0  0  0  0  0
  147.3120  133.0544  151.4132 H   0  0  0  0  0  0  0  0  0  0  0  0
  145.2188  131.6503  152.8549 H   0  0  0  0  0  0  0  0  0  0  0  0
  1  2  1  0  0  0  0
  1 20  1  0  0  0  0
  1 21  1  0  0  0  0
  1 22  1  0  0  0  0
  2 19  1  0  0  0  0
  2  3  2  0  0  0  0
  3  4  1  0  0  0  0
  4  5  2  0  0  0  0
  5  6  1  0  0  0  0
  5 19  1  0  0  0  0
  6  7  1  0  0  0  0
  6 23  1  0  0  0  0
  7  8  2  0  0  0  0
  7  9  1  0  0  0  0
  9 10  1  0  0  0  0
  9 24  1  0  0  0  0
 10 18  1  0  0  0  0
 10 11  1  0  0  0  0
 10 25  1  0  0  0  0
 11 12  1  0  0  0  0
 11 26  1  0  0  0  0
 11 27  1  0  0  0  0
 12 13  1  0  0  0  0
 12 28  1  0  0  0  0
 12 29  1  0  0  0  0
 13 18  1  0  0  0  0
 13 14  1  0  0  0  0
 13 39  1  0  0  0  0
 14 15  1  0  0  0  0
 14 30  1  0  0  0  0
 14 31  1  0  0  0  0
 15 16  1  0  0  0  0
 15 32  1  0  0  0  0
 15 33  1  0  0  0  0
 16 17  1  0  0  0  0
 16 34  1  0  0  0  0
 16 35  1  0  0  0  0
 17 18  1  0  0  0  0
 17 36  1  0  0  0  0
 17 37  1  0  0  0  0
 18 38  1  0  0  0  0
M  CHG  1  13   1
M  END
> <s_m_source_file>
AV-unprocessed.smi

> <i_m_source_file_index>
1897

> <i_lp_mmshare_version>
43012

> <i_f3d_flags>
0

> <s_epik_input>
W0NIM11jMW5uYyhzMSlbTkhdQyg9TylbTkhdW0NASF0oW0NIMl1bQ0gyXTIpW0NAQEhdKE4yMylbQ0gyXVtDSDJdW0NIMl1bQ0gyXTM=

> <s_epik_cmdline>
J2VwaWtfcHl0aG9uJywgJy1waCcsICc3LjAnLCAnLXRuJywgJzgnLCAnLW1hJywgJzIwMCcsICctbWV0YWxfYmluZGluZycsICctaW1hZScsICc8aW5maWxlLm1hZT4nLCAnLW9tYWUnLCAnPG91dGZpbGUubWFlPic=

> <r_lp_tautomer_probability>
1

> <r_epik_Ionization_Penalty>
0.00228891

> <r_epik_Ionization_Penalty_Charging>
0.00107044

> <r_epik_Ionization_Penalty_Neutral>
0.00121847

> <r_epik_State_Penalty>
-0

> <r_epik_Charging_Adjusted_Penalty>
0.00107044

> <i_epik_Tot_Q>
1

> <i_epik_Tot_abs_Q>
1

> <r_epik_Metal_State_Penalty>
0.304057

> <b_epik_Metal_Only>
0

> <s_lp_Force_Field>
OPLS_2005

> <r_lp_Energy>
35.6377

> <b_lp_Chiralities_Consistent>
1

> <s_lp_Variant>
AV-unprocessed.smi:1897-3

> <Gold.Version>
5.8.1

> <Gold.Id.Protein>
6NUR|6NUR_protein|mol2

> <Gold.PLP.Fitness>
35.4321

> <Gold.PLP.PLP>
-26.9161

> <Gold.PLP.part.hbond>
-4.0000

> <Gold.PLP.part.metal>
0.0000

> <Gold.PLP.part.buried>
-5.4785

> <Gold.PLP.part.nonpolar>
-18.0771

> <Gold.PLP.part.repulsive>
0.1756

> <Gold.PLP.ligand.clash>
0.0000

> <Gold.PLP.ligand.torsion>
0.2468

> <Gold.PLP.Chemscore.Hbond>
3.0000

> <Gold.PLP.Chemscore.CHOScore>
0.0000

> <Gold.PLP.Chemscore.Metal>
0.0000

> <Gold.Chemscore.Hbonds>
donor molecule, donor type, donor heavy atom, donor atom, acceptor molecule, acceptor atom, score
      L1  H     6    23       P1  7948  0.90
      L1  H     9    24       P1  7948  1.00
      P1  H 10752 10763       L1     4  0.90

> <Gold.PLP.Chemscore.Internal.Correction>
0.0097

> <Gold.Rescore>
     Score         DG    S(hbond)    S(metal)    S(lipo)     H(rot)  DE(clash)    DE(int)     intcor
     17.06     -17.49       2.18        0.00      62.28       1.00       0.01       0.42       ----

> <Gold.Chemscore.Fitness>
17.0628

> <Gold.Chemscore.DG>
-17.4857

> <Gold.Chemscore.ZeroCoef>
-5.4800

> <Gold.Chemscore.Hbond>
2.1792

> <Gold.Chemscore.Metal>
0.0000

> <Gold.Chemscore.Lipo>
62.2848

> <Gold.Chemscore.Internal_Hbond>
0.0000

> <Gold.Chemscore.DEClash>
0.0060

> <Gold.Chemscore.DEInternal>
0.4169

> <Gold.Chemscore.Rot>
1.0000

> <Gold.Chemscore.Internal.Correction>
   9.000000E+99

> <Gold.Chemscore.Hbonds>
donor molecule, donor type, donor heavy atom, donor atom, acceptor molecule, acceptor atom, score
      L1  H     6    23       P1  7948  0.17
      L1  H     9    24       P1  7948  0.67
      P1  H 10752 10763       L1     4  0.13

> <Gold.Chemscore.Hbond.Weighted>
-7.2784

> <Gold.Chemscore.Metal.Weighted>
-0.0000

> <Gold.Chemscore.Lipo.Weighted>
-7.2873

> <Gold.Chemscore.Internal_Hbond.Weighted>
0.0000

> <Gold.Chemscore.DEClash.Weighted>
0.0060

> <Gold.Chemscore.DEInternal.Weighted>
0.4169

> <Gold.Chemscore.Rot.Weighted>
2.5600

> <Gold.Chemscore.Internal.Correction.Weighted>
   9.000000E+99

> <Gold.Protein.RotatedTorsions>
[ 6907 6896 6895 6894 ] final  -51.64 input  -60.11 | X-H torsion
[ 7974 7965 7964 7962 ] final -169.41 input  175.53 | X-H torsion
[ 8008 7997 7996 7995 ] final   87.97 input   59.86 | X-H torsion
[ 10167 10162 10161 10158 ] final   79.37 input  -65.29 | X-H torsion
[ 10718 10713 10712 10709 ] final -119.60 input   66.30 | X-H torsion
[ 10763 10752 10751 10750 ] final   48.61 input  -60.55 | X-H torsion
[ 11005 11000 10999 10996 ] final -175.20 input  -57.11 | X-H torsion

> <Gold.Protein.ActiveResidues>
 VAL166  LYS551  ARG553  GLY616  TRP617  ASP618  TYR619  PRO620  LYS621  CYS622 
 ASP623  PHE694  ASN695  SER759  ASP760  ASP761  ALA762  ILE779  LEU786  VAL792 
 PHE793  MET794  SER795  GLU796  ALA797  LYS798  CYS799  TRP800  GLU811  SER814 

> <Gold.Protein.RotatedAtoms>
  150.8592  134.7940  159.7069 H   0  0  0  0  0  0  0  0  0  0  0  0  # atno 6907 bound_to 6896
  152.4634  134.5127  159.9768 H   0  0  0  0  0  0  0  0  0  0  0  0  # atno 6908 bound_to 6896
  151.5234  133.3424  159.2941 H   0  0  0  0  0  0  0  0  0  0  0  0  # atno 6909 bound_to 6896
  144.7186  140.2225  143.6314 H   0  0  0  0  0  0  0  0  0  0  0  0  # atno 7974 bound_to 7965
  155.9820  140.3376  155.6672 H   0  0  0  0  0  0  0  0  0  0  0  0  # atno 8008 bound_to 7997
  155.6535  140.0708  157.2597 H   0  0  0  0  0  0  0  0  0  0  0  0  # atno 8009 bound_to 7997
  154.4194  140.1721  156.1688 H   0  0  0  0  0  0  0  0  0  0  0  0  # atno 8010 bound_to 7997
  139.9610  144.5961  150.8072 H   0  0  0  0  0  0  0  0  0  0  0  0  # atno 10167 bound_to 10162
  156.1193  130.6311  150.9436 H   0  0  0  0  0  0  0  0  0  0  0  0  # atno 10718 bound_to 10713
  152.9791  135.5938  154.3954 H   0  0  0  0  0  0  0  0  0  0  0  0  # atno 10763 bound_to 10752
  154.3605  135.2767  155.2324 H   0  0  0  0  0  0  0  0  0  0  0  0  # atno 10764 bound_to 10752
  154.4324  135.6033  153.6132 H   0  0  0  0  0  0  0  0  0  0  0  0  # atno 10765 bound_to 10752
  140.4659  134.6211  157.4862 H   0  0  0  0  0  0  0  0  0  0  0  0  # atno 11005 bound_to 11000
  145.8488  139.2165  143.1784 LP  0  0  0  0  0  0  0  0  0  0  0  0  # atno 17320 bound_to 7965
  146.0280  140.8285  142.9890 LP  0  0  0  0  0  0  0  0  0  0  0  0  # atno 17321 bound_to 7965
  140.7553  143.3044  151.3000 LP  0  0  0  0  0  0  0  0  0  0  0  0  # atno 17342 bound_to 10162
  139.6554  144.0286  152.2656 LP  0  0  0  0  0  0  0  0  0  0  0  0  # atno 17343 bound_to 10162
  157.6377  131.0914  150.8315 LP  0  0  0  0  0  0  0  0  0  0  0  0  # atno 17370 bound_to 10713
  156.8414  130.5049  149.5321 LP  0  0  0  0  0  0  0  0  0  0  0  0  # atno 17371 bound_to 10713
  139.9915  134.6977  155.9681 LP  0  0  0  0  0  0  0  0  0  0  0  0  # atno 17394 bound_to 11000
  141.1599  133.6539  156.4286 LP  0  0  0  0  0  0  0  0  0  0  0  0  # atno 17395 bound_to 11000

$$$$
