AV-unprocessed.smi:2113|AV-procd|sdf|8616|dock2
  -GOLD-   2272011353D 1   1.00000     0.00000
 Structure written by MMmdl.
 44 45  0  0  0  0  0  0  0  0  1 V2000
  149.4039  132.4211  153.6384 C   0  0  0  0  0  0  0  0  0  0  0  0
  150.2896  132.5645  154.8780 C   0  0  0  0  0  0  0  0  0  0  0  0
  150.9802  133.8060  154.8030 O   0  0  0  0  0  0  0  0  0  0  0  0
  150.4917  134.8341  155.6614 C   0  0  1  0  0  0  0  0  0  0  0  0
  150.9804  134.5208  157.0833 C   0  0  0  0  0  0  0  0  0  0  0  0
  150.9892  136.2104  155.1924 C   0  0  0  0  0  0  0  0  0  0  0  0
  152.1911  136.4775  155.2146 O   0  0  0  0  0  0  0  0  0  0  0  0
  150.0524  137.0717  154.7660 N   0  0  0  0  0  0  0  0  0  0  0  0
  150.3189  138.4322  154.3129 C   0  0  0  0  0  0  0  0  0  0  0  0
  150.6796  139.3776  155.4466 C   0  0  0  0  0  0  0  0  0  0  0  0
  149.8427  140.4570  155.7930 C   0  0  0  0  0  0  0  0  0  0  0  0
  150.2162  141.2953  156.8604 C   0  0  0  0  0  0  0  0  0  0  0  0
  151.4211  141.0332  157.5550 C   0  0  0  0  0  0  0  0  0  0  0  0
  151.8097  141.8537  158.6358 N   0  0  0  0  0  0  0  0  0  0  0  0
  151.7244  143.2933  158.4040 C   0  0  0  0  0  0  0  0  0  0  0  0
  151.8630  144.0584  159.7315 C   0  0  0  0  0  0  0  0  0  0  0  0
  153.0659  143.6727  160.3882 O   0  0  0  0  0  0  0  0  0  0  0  0
  153.0749  142.2845  160.7044 C   0  0  0  0  0  0  0  0  0  0  0  0
  152.9848  141.4586  159.4102 C   0  0  0  0  0  0  0  0  0  0  0  0
  152.2239  139.9938  157.2159 N   0  0  0  0  0  0  0  0  0  0  0  0
  151.8624  139.1945  156.1903 C   0  0  0  0  0  0  0  0  0  0  0  0
  148.8585  131.4776  153.6561 H   0  0  0  0  0  0  0  0  0  0  0  0
  150.0005  132.4456  152.7261 H   0  0  0  0  0  0  0  0  0  0  0  0
  148.6736  133.2286  153.5835 H   0  0  0  0  0  0  0  0  0  0  0  0
  149.6717  132.5130  155.7750 H   0  0  0  0  0  0  0  0  0  0  0  0
  151.0016  131.7393  154.9192 H   0  0  0  0  0  0  0  0  0  0  0  0
  149.4000  134.8163  155.6638 H   0  0  0  0  0  0  0  0  0  0  0  0
  150.6545  135.2834  157.7913 H   0  0  0  0  0  0  0  0  0  0  0  0
  152.0686  134.4622  157.1308 H   0  0  0  0  0  0  0  0  0  0  0  0
  150.5856  133.5643  157.4258 H   0  0  0  0  0  0  0  0  0  0  0  0
  149.0891  136.7696  154.7713 H   0  0  0  0  0  0  0  0  0  0  0  0
  151.1072  138.4252  153.5579 H   0  0  0  0  0  0  0  0  0  0  0  0
  149.4230  138.8109  153.8206 H   0  0  0  0  0  0  0  0  0  0  0  0
  148.9241  140.6387  155.2546 H   0  0  0  0  0  0  0  0  0  0  0  0
  149.5694  142.1121  157.1437 H   0  0  0  0  0  0  0  0  0  0  0  0
  152.5219  143.5865  157.7201 H   0  0  0  0  0  0  0  0  0  0  0  0
  150.7836  143.5720  157.9318 H   0  0  0  0  0  0  0  0  0  0  0  0
  151.8900  145.1319  159.5444 H   0  0  0  0  0  0  0  0  0  0  0  0
  151.0055  143.8698  160.3798 H   0  0  0  0  0  0  0  0  0  0  0  0
  153.9954  142.0468  161.2374 H   0  0  0  0  0  0  0  0  0  0  0  0
  152.2480  142.0474  161.3760 H   0  0  0  0  0  0  0  0  0  0  0  0
  152.9333  140.3984  159.6615 H   0  0  0  0  0  0  0  0  0  0  0  0
  153.8820  141.6089  158.8081 H   0  0  0  0  0  0  0  0  0  0  0  0
  152.5350  138.3803  155.9647 H   0  0  0  0  0  0  0  0  0  0  0  0
  1  2  1  0  0  0  0
  1 22  1  0  0  0  0
  1 23  1  0  0  0  0
  1 24  1  0  0  0  0
  2  3  1  0  0  0  0
  2 25  1  0  0  0  0
  2 26  1  0  0  0  0
  3  4  1  0  0  0  0
  4  5  1  0  0  0  0
  4  6  1  0  0  0  0
  4 27  1  0  0  0  0
  5 28  1  0  0  0  0
  5 29  1  0  0  0  0
  5 30  1  0  0  0  0
  6  7  2  0  0  0  0
  6  8  1  0  0  0  0
  8  9  1  0  0  0  0
  8 31  1  0  0  0  0
  9 10  1  0  0  0  0
  9 32  1  0  0  0  0
  9 33  1  0  0  0  0
 10 21  1  0  0  0  0
 10 11  2  0  0  0  0
 11 12  1  0  0  0  0
 11 34  1  0  0  0  0
 12 13  2  0  0  0  0
 12 35  1  0  0  0  0
 13 14  1  0  0  0  0
 13 20  1  0  0  0  0
 14 19  1  0  0  0  0
 14 15  1  0  0  0  0
 15 16  1  0  0  0  0
 15 36  1  0  0  0  0
 15 37  1  0  0  0  0
 16 17  1  0  0  0  0
 16 38  1  0  0  0  0
 16 39  1  0  0  0  0
 17 18  1  0  0  0  0
 18 19  1  0  0  0  0
 18 40  1  0  0  0  0
 18 41  1  0  0  0  0
 19 42  1  0  0  0  0
 19 43  1  0  0  0  0
 20 21  2  0  0  0  0
 21 44  1  0  0  0  0
M  END
> <s_m_source_file>
AV-unprocessed.smi

> <i_m_source_file_index>
2113

> <i_lp_mmshare_version>
43012

> <i_f3d_flags>
0

> <s_epik_input>
W0NIM11bQ0gyXU9bQ0BIXShbQ0gzXSlDKD1PKVtOSF1bQ0gyXWMxW2NIXVtjSF1jKG5bY0hdMSlOMltDSDJdW0NIMl1PW0NIMl1bQ0gyXTI=

> <s_epik_cmdline>
J2VwaWtfcHl0aG9uJywgJy1waCcsICc3LjAnLCAnLXRuJywgJzgnLCAnLW1hJywgJzIwMCcsICctbWV0YWxfYmluZGluZycsICctaW1hZScsICc8aW5maWxlLm1hZT4nLCAnLW9tYWUnLCAnPG91dGZpbGUubWFlPic=

> <r_lp_tautomer_probability>
1

> <r_epik_Ionization_Penalty>
0.00454344

> <r_epik_Ionization_Penalty_Charging>
0

> <r_epik_Ionization_Penalty_Neutral>
0.00454344

> <r_epik_State_Penalty>
0.00328127

> <r_epik_Charging_Adjusted_Penalty>
0.00328127

> <i_epik_Tot_Q>
0

> <i_epik_Tot_abs_Q>
0

> <r_epik_Metal_State_Penalty>
-0

> <b_epik_Metal_Only>
0

> <s_lp_Force_Field>
OPLS_2005

> <r_lp_Energy>
17.3963

> <b_lp_Chiralities_Consistent>
1

> <s_lp_Variant>
AV-unprocessed.smi:2113-2

> <Gold.Version>
5.8.1

> <Gold.Id.Protein>
6NUR|6NUR_protein|mol2

> <Gold.PLP.Fitness>
42.8467

> <Gold.PLP.PLP>
-40.2830

> <Gold.PLP.part.hbond>
-2.2589

> <Gold.PLP.part.metal>
0.0000

> <Gold.PLP.part.buried>
-2.0049

> <Gold.PLP.part.nonpolar>
-35.0669

> <Gold.PLP.part.repulsive>
0.2626

> <Gold.PLP.ligand.clash>
0.0000

> <Gold.PLP.ligand.torsion>
0.8006

> <Gold.PLP.Chemscore.Hbond>
1.2389

> <Gold.PLP.Chemscore.CHOScore>
0.0000

> <Gold.PLP.Chemscore.Metal>
0.0000

> <Gold.Chemscore.Hbonds>
donor molecule, donor type, donor heavy atom, donor atom, acceptor molecule, acceptor atom, score
      P1  H  7997  8010       L1    20  0.41
      P1  H 10752 10765       L1     7  0.39

> <Gold.PLP.Chemscore.Internal.Correction>
0.4483

> <Gold.Rescore>
     Score         DG    S(hbond)    S(metal)    S(lipo)     H(rot)  DE(clash)    DE(int)     intcor
     14.19     -15.26       0.98        0.00      97.05       1.90       0.02       1.06       ----

> <Gold.Chemscore.Fitness>
14.1867

> <Gold.Chemscore.DG>
-15.2629

> <Gold.Chemscore.ZeroCoef>
-5.4800

> <Gold.Chemscore.Hbond>
0.9820

> <Gold.Chemscore.Metal>
0.0000

> <Gold.Chemscore.Lipo>
97.0490

> <Gold.Chemscore.Internal_Hbond>
0.0000

> <Gold.Chemscore.DEClash>
0.0189

> <Gold.Chemscore.DEInternal>
1.0573

> <Gold.Chemscore.Rot>
1.8952

> <Gold.Chemscore.Internal.Correction>
   9.000000E+99

> <Gold.Chemscore.Hbonds>
donor molecule, donor type, donor heavy atom, donor atom, acceptor molecule, acceptor atom, score
      P1  H  7997  8010       L1    20  0.07
      P1  H 10752 10765       L1     7  0.37

> <Gold.Chemscore.Hbond.Weighted>
-3.2798

> <Gold.Chemscore.Metal.Weighted>
-0.0000

> <Gold.Chemscore.Lipo.Weighted>
-11.3547

> <Gold.Chemscore.Internal_Hbond.Weighted>
0.0000

> <Gold.Chemscore.DEClash.Weighted>
0.0189

> <Gold.Chemscore.DEInternal.Weighted>
1.0573

> <Gold.Chemscore.Rot.Weighted>
4.8516

> <Gold.Chemscore.Internal.Correction.Weighted>
   9.000000E+99

> <Gold.Protein.RotatedTorsions>
[ 6907 6896 6895 6894 ] final  -94.51 input  -60.11 | X-H torsion
[ 7974 7965 7964 7962 ] final   72.24 input  175.53 | X-H torsion
[ 8008 7997 7996 7995 ] final   54.49 input   59.86 | X-H torsion
[ 10167 10162 10161 10158 ] final  -52.47 input  -65.29 | X-H torsion
[ 10718 10713 10712 10709 ] final  116.56 input   66.30 | X-H torsion
[ 10763 10752 10751 10750 ] final -169.82 input  -60.55 | X-H torsion
[ 11005 11000 10999 10996 ] final   16.48 input  -57.11 | X-H torsion

> <Gold.Protein.ActiveResidues>
 VAL166  LYS551  ARG553  GLY616  TRP617  ASP618  TYR619  PRO620  LYS621  CYS622 
 ASP623  PHE694  ASN695  SER759  ASP760  ASP761  ALA762  ILE779  LEU786  VAL792 
 PHE793  MET794  SER795  GLU796  ALA797  LYS798  CYS799  TRP800  GLU811  SER814 

> <Gold.Protein.RotatedAtoms>
  150.6943  134.1801  159.4244 H   0  0  0  0  0  0  0  0  0  0  0  0  # atno 6907 bound_to 6896
  151.9776  135.0043  160.0565 H   0  0  0  0  0  0  0  0  0  0  0  0  # atno 6908 bound_to 6896
  152.1785  133.4656  159.4982 H   0  0  0  0  0  0  0  0  0  0  0  0  # atno 6909 bound_to 6896
  145.7558  139.2779  143.1405 H   0  0  0  0  0  0  0  0  0  0  0  0  # atno 7974 bound_to 7965
  155.4856  140.3470  155.4346 H   0  0  0  0  0  0  0  0  0  0  0  0  # atno 8008 bound_to 7997
  156.1011  140.1435  156.9495 H   0  0  0  0  0  0  0  0  0  0  0  0  # atno 8009 bound_to 7997
  154.4694  140.0906  156.7083 H   0  0  0  0  0  0  0  0  0  0  0  0  # atno 8010 bound_to 7997
  140.6535  143.2582  151.4653 H   0  0  0  0  0  0  0  0  0  0  0  0  # atno 10167 bound_to 10162
  157.6152  131.1027  150.7490 H   0  0  0  0  0  0  0  0  0  0  0  0  # atno 10718 bound_to 10713
  154.6482  135.2908  155.0020 H   0  0  0  0  0  0  0  0  0  0  0  0  # atno 10763 bound_to 10752
  154.1122  135.6561  153.4891 H   0  0  0  0  0  0  0  0  0  0  0  0  # atno 10764 bound_to 10752
  153.0362  135.5268  154.7378 H   0  0  0  0  0  0  0  0  0  0  0  0  # atno 10765 bound_to 10752
  140.4467  134.1266  155.7697 H   0  0  0  0  0  0  0  0  0  0  0  0  # atno 11005 bound_to 11000
  146.0312  140.8255  142.9875 LP  0  0  0  0  0  0  0  0  0  0  0  0  # atno 17320 bound_to 7965
  144.6840  140.2772  143.7297 LP  0  0  0  0  0  0  0  0  0  0  0  0  # atno 17321 bound_to 7965
  139.5754  144.1831  152.1895 LP  0  0  0  0  0  0  0  0  0  0  0  0  # atno 17342 bound_to 10162
  140.1140  144.5432  150.6906 LP  0  0  0  0  0  0  0  0  0  0  0  0  # atno 17343 bound_to 10162
  156.7859  130.4874  149.5393 LP  0  0  0  0  0  0  0  0  0  0  0  0  # atno 17370 bound_to 10713
  156.1272  130.6152  151.0280 LP  0  0  0  0  0  0  0  0  0  0  0  0  # atno 17371 bound_to 10713
  141.1682  133.8661  157.1651 LP  0  0  0  0  0  0  0  0  0  0  0  0  # atno 17394 bound_to 11000
  140.0034  135.0018  157.0239 LP  0  0  0  0  0  0  0  0  0  0  0  0  # atno 17395 bound_to 11000

$$$$
