AV-unprocessed.smi:199|AV-procd|sdf|1561|dock9
  -GOLD-   2262019433D 1   1.00000     0.00000
 Structure written by MMmdl.
 51 55  0  0  0  0  0  0  0  0  1 V2000
  147.0543  139.1120  152.4234 C   0  0  0  0  0  0  0  0  0  0  0  0
  147.5294  139.5019  153.8327 C   0  0  1  0  0  0  0  0  0  0  0  0
  146.4200  139.7641  154.6797 O   0  0  0  0  0  0  0  0  0  0  0  0
  146.8997  139.7297  156.0115 C   0  0  0  0  0  0  0  0  0  0  0  0
  147.7938  138.4957  156.0159 C   0  0  0  0  0  0  0  0  0  0  0  0
  148.3871  138.4629  154.6038 C   0  0  1  0  0  0  0  0  0  0  0  0
  148.2186  137.1539  154.0846 O   0  0  0  0  0  0  0  0  0  0  0  0
  149.9002  138.7928  154.6006 C   0  0  0  0  0  0  0  0  0  0  0  0
  150.2757  139.8034  155.5781 N   0  0  0  0  0  0  0  0  0  0  0  0
  150.1263  141.1660  155.4572 C   0  0  0  0  0  0  0  0  0  0  0  0
  150.5375  141.8628  156.4805 N   0  0  0  0  0  0  0  0  0  0  0  0
  151.0108  140.9119  157.3774 C   0  0  0  0  0  0  0  0  0  0  0  0
  151.5924  140.9685  158.6772 C   0  0  0  0  0  0  0  0  0  0  0  0
  151.8009  142.1273  159.3600 N   0  0  0  0  0  0  0  0  0  0  0  0
  152.3011  142.0898  160.7243 C   0  0  1  0  0  0  0  0  0  0  0  0
  153.7924  141.7325  160.5670 C   0  0  0  0  0  0  0  0  0  0  0  0
  154.1398  142.4599  159.2589 C   0  0  0  0  0  0  0  0  0  0  0  0
  152.7817  143.1029  158.9016 C   0  0  2  0  0  0  0  0  0  0  0  0
  152.5399  144.3006  159.8469 C   0  0  1  0  0  0  0  0  0  0  0  0
  151.4268  145.2496  159.3661 C   0  0  0  0  0  0  0  0  0  0  0  0
  151.1548  146.2269  160.3480 O   0  0  0  0  0  0  0  0  0  0  0  0
  152.1752  143.5618  161.1513 C   0  0  0  0  0  0  0  0  0  0  0  0
  151.9797  139.7908  159.2363 N   0  0  0  0  0  0  0  0  0  0  0  0
  151.7856  138.6370  158.5927 C   0  0  0  0  0  0  0  0  0  0  0  0
  151.2400  138.4341  157.3930 N   0  0  0  0  0  0  0  0  0  0  0  0
  150.8675  139.6111  156.8145 C   0  0  0  0  0  0  0  0  0  0  0  0
  147.8988  138.8985  151.7678 H   0  0  0  0  0  0  0  0  0  0  0  0
  146.4835  139.9236  151.9722 H   0  0  0  0  0  0  0  0  0  0  0  0
  146.4110  138.2323  152.4456 H   0  0  0  0  0  0  0  0  0  0  0  0
  148.0785  140.4415  153.7628 H   0  0  0  0  0  0  0  0  0  0  0  0
  147.4753  140.6329  156.2204 H   0  0  0  0  0  0  0  0  0  0  0  0
  146.0852  139.6635  156.7330 H   0  0  0  0  0  0  0  0  0  0  0  0
  148.5466  138.5369  156.8041 H   0  0  0  0  0  0  0  0  0  0  0  0
  147.1756  137.6159  156.2033 H   0  0  0  0  0  0  0  0  0  0  0  0
  148.5659  137.1325  153.2062 H   0  0  0  0  0  0  0  0  0  0  0  0
  150.4772  137.8899  154.8046 H   0  0  0  0  0  0  0  0  0  0  0  0
  150.2150  139.1366  153.6143 H   0  0  0  0  0  0  0  0  0  0  0  0
  149.6936  141.6306  154.5833 H   0  0  0  0  0  0  0  0  0  0  0  0
  151.7728  141.4234  161.4039 H   0  0  0  0  0  0  0  0  0  0  0  0
  154.3960  142.0657  161.4121 H   0  0  0  0  0  0  0  0  0  0  0  0
  153.9277  140.6559  160.4557 H   0  0  0  0  0  0  0  0  0  0  0  0
  154.9366  143.1946  159.3794 H   0  0  0  0  0  0  0  0  0  0  0  0
  154.4551  141.7477  158.4957 H   0  0  0  0  0  0  0  0  0  0  0  0
  152.7004  143.3722  157.8477 H   0  0  0  0  0  0  0  0  0  0  0  0
  153.4559  144.8779  159.9834 H   0  0  0  0  0  0  0  0  0  0  0  0
  151.7044  145.7419  158.4334 H   0  0  0  0  0  0  0  0  0  0  0  0
  150.5098  144.6909  159.1767 H   0  0  0  0  0  0  0  0  0  0  0  0
  151.6447  146.0138  161.1276 H   0  0  0  0  0  0  0  0  0  0  0  0
  151.1521  143.7811  161.4601 H   0  0  0  0  0  0  0  0  0  0  0  0
  152.8361  143.8168  161.9808 H   0  0  0  0  0  0  0  0  0  0  0  0
  152.1150  137.7502  159.1138 H   0  0  0  0  0  0  0  0  0  0  0  0
  1  2  1  0  0  0  0
  1 27  1  0  0  0  0
  1 28  1  0  0  0  0
  1 29  1  0  0  0  0
  2  6  1  0  0  0  0
  2  3  1  0  0  0  0
  2 30  1  0  0  0  0
  3  4  1  0  0  0  0
  4  5  1  0  0  0  0
  4 31  1  0  0  0  0
  4 32  1  0  0  0  0
  5  6  1  0  0  0  0
  5 33  1  0  0  0  0
  5 34  1  0  0  0  0
  6  7  1  0  0  0  0
  6  8  1  0  0  0  0
  7 35  1  0  0  0  0
  8  9  1  0  0  0  0
  8 36  1  0  0  0  0
  8 37  1  0  0  0  0
  9 26  1  0  0  0  0
  9 10  1  0  0  0  0
 10 11  2  0  0  0  0
 10 38  1  0  0  0  0
 11 12  1  0  0  0  0
 12 26  2  0  0  0  0
 12 13  1  0  0  0  0
 13 14  1  0  0  0  0
 13 23  2  0  0  0  0
 14 18  1  0  0  0  0
 14 15  1  0  0  0  0
 15 22  1  0  0  0  0
 15 16  1  0  0  0  0
 15 39  1  0  0  0  0
 16 17  1  0  0  0  0
 16 40  1  0  0  0  0
 16 41  1  0  0  0  0
 17 18  1  0  0  0  0
 17 42  1  0  0  0  0
 17 43  1  0  0  0  0
 18 19  1  0  0  0  0
 18 44  1  0  0  0  0
 19 20  1  0  0  0  0
 19 22  1  0  0  0  0
 19 45  1  0  0  0  0
 20 21  1  0  0  0  0
 20 46  1  0  0  0  0
 20 47  1  0  0  0  0
 21 48  1  0  0  0  0
 22 49  1  0  0  0  0
 22 50  1  0  0  0  0
 23 24  1  0  0  0  0
 24 25  2  0  0  0  0
 24 51  1  0  0  0  0
 25 26  1  0  0  0  0
M  END
> <s_m_source_file>
AV-unprocessed.smi

> <i_m_source_file_index>
199

> <i_lp_mmshare_version>
43012

> <i_f3d_flags>
0

> <s_epik_input>
W0NIMl0xW0NIMl1PW0NAQEhdKFtDSDNdKVtDQEBdMShbT0hdKVtDSDJdbihbY0hdbjIpYyhjMjMpbltjSF1uYzNOKFtDQEBIXTQ1KVtDQEhdKFtDSDJdW0NIMl00KVtDQEhdKFtDSDJdNSlbQ0gyXVtPSF0=

> <s_epik_cmdline>
J2VwaWtfcHl0aG9uJywgJy1waCcsICc3LjAnLCAnLXRuJywgJzgnLCAnLW1hJywgJzIwMCcsICctbWV0YWxfYmluZGluZycsICctaW1hZScsICc8aW5maWxlLm1hZT4nLCAnLW9tYWUnLCAnPG91dGZpbGUubWFlPic=

> <r_lp_tautomer_probability>
1

> <r_epik_Ionization_Penalty>
0.00583903

> <r_epik_Ionization_Penalty_Charging>
0

> <r_epik_Ionization_Penalty_Neutral>
0.00583903

> <r_epik_State_Penalty>
-0

> <r_epik_Charging_Adjusted_Penalty>
0

> <i_epik_Tot_Q>
0

> <i_epik_Tot_abs_Q>
0

> <r_epik_Metal_State_Penalty>
-0

> <b_epik_Metal_Only>
0

> <s_lp_Force_Field>
OPLS_2005

> <r_lp_Energy>
83.4271

> <b_lp_Chiralities_Consistent>
1

> <s_lp_Variant>
AV-unprocessed.smi:199-2

> <Gold.Version>
5.8.1

> <Gold.Id.Protein>
6NUR|6NUR_protein|mol2

> <Gold.PLP.Fitness>
45.0213

> <Gold.PLP.PLP>
-43.4581

> <Gold.PLP.part.hbond>
-3.8572

> <Gold.PLP.part.metal>
0.0000

> <Gold.PLP.part.buried>
-5.5576

> <Gold.PLP.part.nonpolar>
-33.9095

> <Gold.PLP.part.repulsive>
0.1630

> <Gold.PLP.ligand.clash>
0.0000

> <Gold.PLP.ligand.torsion>
0.7305

> <Gold.PLP.Chemscore.Hbond>
0.9920

> <Gold.PLP.Chemscore.CHOScore>
0.0000

> <Gold.PLP.Chemscore.Metal>
0.0000

> <Gold.Chemscore.Hbonds>
donor molecule, donor type, donor heavy atom, donor atom, acceptor molecule, acceptor atom, score
      L1  H     7    35       P1  7948  0.98

> <Gold.PLP.Chemscore.Internal.Correction>
0.0481

> <Gold.Rescore>
     Score         DG    S(hbond)    S(metal)    S(lipo)     H(rot)  DE(clash)    DE(int)     intcor
     10.21     -13.92       0.98        0.00     111.49       3.07       1.81       1.90       ----

> <Gold.Chemscore.Fitness>
10.2100

> <Gold.Chemscore.DG>
-13.9196

> <Gold.Chemscore.ZeroCoef>
-5.4800

> <Gold.Chemscore.Hbond>
0.9766

> <Gold.Chemscore.Metal>
0.0000

> <Gold.Chemscore.Lipo>
111.4926

> <Gold.Chemscore.Internal_Hbond>
0.0000

> <Gold.Chemscore.DEClash>
1.8086

> <Gold.Chemscore.DEInternal>
1.9011

> <Gold.Chemscore.Rot>
3.0729

> <Gold.Chemscore.Internal.Correction>
   9.000000E+99

> <Gold.Chemscore.Hbonds>
donor molecule, donor type, donor heavy atom, donor atom, acceptor molecule, acceptor atom, score
      L1  H     7    35       P1  7948  0.93

> <Gold.Chemscore.Hbond.Weighted>
-3.2617

> <Gold.Chemscore.Metal.Weighted>
-0.0000

> <Gold.Chemscore.Lipo.Weighted>
-13.0446

> <Gold.Chemscore.Internal_Hbond.Weighted>
0.0000

> <Gold.Chemscore.DEClash.Weighted>
1.8086

> <Gold.Chemscore.DEInternal.Weighted>
1.9011

> <Gold.Chemscore.Rot.Weighted>
7.8667

> <Gold.Chemscore.Internal.Correction.Weighted>
   9.000000E+99

> <Gold.Protein.RotatedTorsions>
[ 6907 6896 6895 6894 ] final   48.53 input  -60.11 | X-H torsion
[ 7974 7965 7964 7962 ] final   47.93 input  175.53 | X-H torsion
[ 8008 7997 7996 7995 ] final -108.52 input   59.86 | X-H torsion
[ 10167 10162 10161 10158 ] final -155.42 input  -65.29 | X-H torsion
[ 10718 10713 10712 10709 ] final -175.70 input   66.30 | X-H torsion
[ 10763 10752 10751 10750 ] final  -65.26 input  -60.55 | X-H torsion
[ 11005 11000 10999 10996 ] final -149.01 input  -57.11 | X-H torsion

> <Gold.Protein.ActiveResidues>
 VAL166  LYS551  ARG553  GLY616  TRP617  ASP618  TYR619  PRO620  LYS621  CYS622 
 ASP623  PHE694  ASN695  SER759  ASP760  ASP761  ALA762  ILE779  LEU786  VAL792 
 PHE793  MET794  SER795  GLU796  ALA797  LYS798  CYS799  TRP800  GLU811  SER814 

> <Gold.Protein.RotatedAtoms>
  152.2806  134.7833  160.0397 H   0  0  0  0  0  0  0  0  0  0  0  0  # atno 6907 bound_to 6896
  151.8413  133.3419  159.3652 H   0  0  0  0  0  0  0  0  0  0  0  0  # atno 6908 bound_to 6896
  150.7188  134.5316  159.5747 H   0  0  0  0  0  0  0  0  0  0  0  0  # atno 6909 bound_to 6896
  146.0252  139.4698  142.9872 H   0  0  0  0  0  0  0  0  0  0  0  0  # atno 7974 bound_to 7965
  154.9454  140.0402  157.2118 H   0  0  0  0  0  0  0  0  0  0  0  0  # atno 8008 bound_to 7997
  154.8029  140.2855  155.5887 H   0  0  0  0  0  0  0  0  0  0  0  0  # atno 8009 bound_to 7997
  156.2963  140.2552  156.2901 H   0  0  0  0  0  0  0  0  0  0  0  0  # atno 8010 bound_to 7997
  139.6932  143.9385  152.2395 H   0  0  0  0  0  0  0  0  0  0  0  0  # atno 10167 bound_to 10162
  156.8037  130.9561  151.3118 H   0  0  0  0  0  0  0  0  0  0  0  0  # atno 10718 bound_to 10713
  154.3423  135.6154  153.5602 H   0  0  0  0  0  0  0  0  0  0  0  0  # atno 10763 bound_to 10752
  152.9803  135.5772  154.4838 H   0  0  0  0  0  0  0  0  0  0  0  0  # atno 10764 bound_to 10752
  154.4545  135.2854  155.1735 H   0  0  0  0  0  0  0  0  0  0  0  0  # atno 10765 bound_to 10752
  140.7552  134.3361  157.5116 H   0  0  0  0  0  0  0  0  0  0  0  0  # atno 11005 bound_to 11000
  145.7129  141.0100  143.1443 LP  0  0  0  0  0  0  0  0  0  0  0  0  # atno 17320 bound_to 7965
  144.7006  139.8779  143.7445 LP  0  0  0  0  0  0  0  0  0  0  0  0  # atno 17321 bound_to 7965
  139.9207  144.6801  150.8464 LP  0  0  0  0  0  0  0  0  0  0  0  0  # atno 17342 bound_to 10162
  140.7689  143.3377  151.2274 LP  0  0  0  0  0  0  0  0  0  0  0  0  # atno 17343 bound_to 10162
  157.6541  130.8909  149.9692 LP  0  0  0  0  0  0  0  0  0  0  0  0  # atno 17370 bound_to 10713
  156.1086  130.3651  150.0090 LP  0  0  0  0  0  0  0  0  0  0  0  0  # atno 17371 bound_to 10713
  139.8780  134.9167  156.3162 LP  0  0  0  0  0  0  0  0  0  0  0  0  # atno 17394 bound_to 11000
  140.9714  133.7325  156.0540 LP  0  0  0  0  0  0  0  0  0  0  0  0  # atno 17395 bound_to 11000

$$$$
