AV-unprocessed.smi:160|AV-procd|sdf|1359|dock7
  -GOLD-   2262019 63D 1   1.00000     0.00000
 Structure written by MMmdl.
 28 29  0  0  0  0  0  0  0  0  2 V2000
  153.2445  138.9620  157.4079 N   0  5  0  0  0  0  0  0  0  0  0  0
  152.2696  139.7127  157.9660 C   0  0  0  0  0  0  0  0  0  0  0  0
  152.1022  139.9111  159.1688 O   0  0  0  0  0  0  0  0  0  0  0  0
  151.3233  140.3471  156.9747 C   0  0  0  0  0  0  0  0  0  0  0  0
  150.8024  141.5913  157.2033 N   0  0  0  0  0  0  0  0  0  0  0  0
  150.0612  141.7155  156.1101 C   0  0  0  0  0  0  0  0  0  0  0  0
  150.1243  140.6675  155.2839 N   0  0  0  0  0  0  0  0  0  0  0  0
  149.4200  140.4201  153.9890 C   0  0  2  0  0  0  0  0  0  0  0  0
  148.6975  141.5762  153.6833 O   0  0  0  0  0  0  0  0  0  0  0  0
  147.3027  141.2988  153.5683 C   0  0  2  0  0  0  0  0  0  0  0  0
  146.4970  142.4830  154.1251 C   0  0  0  0  0  0  0  0  0  0  0  0
  146.8327  142.7094  155.4775 O   0  0  0  0  0  0  0  0  0  0  0  0
  147.1114  140.0066  154.3654 C   0  0  1  0  0  0  0  0  0  0  0  0
  145.9742  139.2640  153.9648 O   0  0  0  0  0  0  0  0  0  0  0  0
  148.4194  139.2640  154.1248 C   0  0  1  0  0  0  0  0  0  0  0  0
  148.3968  138.4783  152.9469 O   0  0  0  0  0  0  0  0  0  0  0  0
  150.9449  139.7448  155.8434 N   0  0  0  0  0  0  0  0  0  0  0  0
  150.2215  140.2368  153.2720 H   0  0  0  0  0  0  0  0  0  0  0  0
  147.0679  141.1142  152.5180 H   0  0  0  0  0  0  0  0  0  0  0  0
  147.0177  140.2390  155.4270 H   0  0  0  0  0  0  0  0  0  0  0  0
  148.6813  138.6128  154.9603 H   0  0  0  0  0  0  0  0  0  0  0  0
  153.0657  137.9620  157.2581 H   0  0  0  0  0  0  0  0  0  0  0  0
  149.4591  142.5891  155.9078 H   0  0  0  0  0  0  0  0  0  0  0  0
  146.7360  143.3928  153.5745 H   0  0  0  0  0  0  0  0  0  0  0  0
  145.4245  142.3147  154.0209 H   0  0  0  0  0  0  0  0  0  0  0  0
  147.5815  143.2853  155.5076 H   0  0  0  0  0  0  0  0  0  0  0  0
  145.3033  139.8702  153.6904 H   0  0  0  0  0  0  0  0  0  0  0  0
  148.6392  139.0318  152.2201 H   0  0  0  0  0  0  0  0  0  0  0  0
  1  2  1  0  0  0  0
  1 22  1  0  0  0  0
  2  3  2  0  0  0  0
  2  4  1  0  0  0  0
  4 17  2  0  0  0  0
  4  5  1  0  0  0  0
  5  6  2  0  0  0  0
  6  7  1  0  0  0  0
  6 23  1  0  0  0  0
  7  8  1  0  0  0  0
  7 17  1  0  0  0  0
  8 18  1  0  0  0  0
  8 15  1  0  0  0  0
  8  9  1  0  0  0  0
  9 10  1  0  0  0  0
 10 19  1  0  0  0  0
 10 11  1  0  0  0  0
 10 13  1  0  0  0  0
 11 12  1  0  0  0  0
 11 24  1  0  0  0  0
 11 25  1  0  0  0  0
 12 26  1  0  0  0  0
 13 20  1  0  0  0  0
 13 14  1  0  0  0  0
 13 15  1  0  0  0  0
 14 27  1  0  0  0  0
 15 21  1  0  0  0  0
 15 16  1  0  0  0  0
 16 28  1  0  0  0  0
M  CHG  1   1  -1
M  END
> <s_m_source_file>
AV-unprocessed.smi

> <i_m_source_file_index>
160

> <i_lp_mmshare_version>
43012

> <i_f3d_flags>
0

> <s_epik_input>
W05IMl1DKD1PKWMxbltjSF1uKG4xKVtDQEBIXTJPW0NASF0oW0NIMl1bT0hdKVtDQEBIXShbT0hdKVtDQEhdMltPSF0=

> <s_epik_cmdline>
J2VwaWtfcHl0aG9uJywgJy1waCcsICc3LjAnLCAnLXRuJywgJzgnLCAnLW1hJywgJzIwMCcsICctbWV0YWxfYmluZGluZycsICctaW1hZScsICc8aW5maWxlLm1hZT4nLCAnLW9tYWUnLCAnPG91dGZpbGUubWFlPic=

> <r_lp_tautomer_probability>
1

> <r_epik_Ionization_Penalty>
6.6993

> <r_epik_Ionization_Penalty_Charging>
6.6993

> <r_epik_Ionization_Penalty_Neutral>
6.01698e-06

> <r_epik_State_Penalty>
6.69929

> <r_epik_Charging_Adjusted_Penalty>
13.3986

> <i_epik_Tot_Q>
-1

> <i_epik_Tot_abs_Q>
1

> <r_epik_Metal_State_Penalty>
2.62798

> <b_epik_Metal_Only>
1

> <s_epik_Chemistry_Notes>
This compound contains an acetal/aminal-like group ( X-CH(R)-Y where X, Y are N, S, or O) that may be acid/base labile, releasing an aldehyde.

> <s_lp_Force_Field>
OPLS_2005

> <r_lp_Energy>
41.4703

> <b_lp_Chiralities_Consistent>
1

> <s_lp_Variant>
AV-unprocessed.smi:160-17

> <Gold.Version>
5.8.1

> <Gold.Id.Protein>
6NUR|6NUR_protein|mol2

> <Gold.PLP.Fitness>
44.0293

> <Gold.PLP.PLP>
-25.1614

> <Gold.PLP.part.hbond>
-5.9951

> <Gold.PLP.part.metal>
0.0000

> <Gold.PLP.part.buried>
-0.9602

> <Gold.PLP.part.nonpolar>
-18.4654

> <Gold.PLP.part.repulsive>
0.5784

> <Gold.PLP.ligand.clash>
0.0000

> <Gold.PLP.ligand.torsion>
0.5584

> <Gold.PLP.Chemscore.Hbond>
5.6540

> <Gold.PLP.Chemscore.CHOScore>
1.0000

> <Gold.PLP.Chemscore.Metal>
0.0000

> <Gold.Chemscore.Hbonds>
donor molecule, donor type, donor heavy atom, donor atom, acceptor molecule, acceptor atom, score
      L1  H    12    26       P1  8028  0.90
      L1  H    14    27       P1 10175  0.80
      L1  H    16    28       P1  7957  1.00
      P1  H  7997  8008       L1     1  2.00
      P1  H  8011  8017       L1     9  0.69
      L1  C     6    23       P1  8028  1.00

> <Gold.PLP.Chemscore.Internal.Correction>
0.0227

> <Gold.Rescore>
     Score         DG    S(hbond)    S(metal)    S(lipo)     H(rot)  DE(clash)    DE(int)     intcor
      8.39     -11.81       4.10        0.00      25.33       4.04       2.52       0.90       ----

> <Gold.Chemscore.Fitness>
8.3907

> <Gold.Chemscore.DG>
-11.8081

> <Gold.Chemscore.ZeroCoef>
-5.4800

> <Gold.Chemscore.Hbond>
4.1041

> <Gold.Chemscore.Metal>
0.0000

> <Gold.Chemscore.Lipo>
25.3302

> <Gold.Chemscore.Internal_Hbond>
0.0000

> <Gold.Chemscore.DEClash>
2.5188

> <Gold.Chemscore.DEInternal>
0.8987

> <Gold.Chemscore.Rot>
4.0403

> <Gold.Chemscore.Internal.Correction>
   9.000000E+99

> <Gold.Chemscore.Hbonds>
donor molecule, donor type, donor heavy atom, donor atom, acceptor molecule, acceptor atom, score
      L1  H    12    26       P1  8028  0.18
      L1  H    14    27       P1 10175  0.77
      L1  H    16    28       P1  7957  0.99
      P1  H  7997  8008       L1     1  0.62
      P1  H  8011  8017       L1     9  0.28

> <Gold.Chemscore.Hbond.Weighted>
-13.7076

> <Gold.Chemscore.Metal.Weighted>
-0.0000

> <Gold.Chemscore.Lipo.Weighted>
-2.9636

> <Gold.Chemscore.Internal_Hbond.Weighted>
0.0000

> <Gold.Chemscore.DEClash.Weighted>
2.5188

> <Gold.Chemscore.DEInternal.Weighted>
0.8987

> <Gold.Chemscore.Rot.Weighted>
10.3431

> <Gold.Chemscore.Internal.Correction.Weighted>
   9.000000E+99

> <Gold.Protein.RotatedTorsions>
[ 6907 6896 6895 6894 ] final -108.07 input  -60.11 | X-H torsion
[ 7974 7965 7964 7962 ] final   94.11 input  175.53 | X-H torsion
[ 8008 7997 7996 7995 ] final  -54.34 input   59.86 | X-H torsion
[ 10167 10162 10161 10158 ] final   -8.87 input  -65.29 | X-H torsion
[ 10718 10713 10712 10709 ] final   74.38 input   66.30 | X-H torsion
[ 10763 10752 10751 10750 ] final   49.27 input  -60.55 | X-H torsion
[ 11005 11000 10999 10996 ] final  165.96 input  -57.11 | X-H torsion

> <Gold.Protein.ActiveResidues>
 VAL166  LYS551  ARG553  GLY616  TRP617  ASP618  TYR619  PRO620  LYS621  CYS622 
 ASP623  PHE694  ASN695  SER759  ASP760  ASP761  ALA762  ILE779  LEU786  VAL792 
 PHE793  MET794  SER795  GLU796  ALA797  LYS798  CYS799  TRP800  GLU811  SER814 

> <Gold.Protein.RotatedAtoms>
  150.7480  133.9732  159.3552 H   0  0  0  0  0  0  0  0  0  0  0  0  # atno 6907 bound_to 6896
  151.7668  135.0794  160.0363 H   0  0  0  0  0  0  0  0  0  0  0  0  # atno 6908 bound_to 6896
  152.3366  133.5982  159.5883 H   0  0  0  0  0  0  0  0  0  0  0  0  # atno 6909 bound_to 6896
  145.4700  139.2282  143.2940 H   0  0  0  0  0  0  0  0  0  0  0  0  # atno 7974 bound_to 7965
  154.4160  140.1179  156.5299 H   0  0  0  0  0  0  0  0  0  0  0  0  # atno 8008 bound_to 7997
  155.6616  140.3496  155.4765 H   0  0  0  0  0  0  0  0  0  0  0  0  # atno 8009 bound_to 7997
  155.9708  140.1141  157.0803 H   0  0  0  0  0  0  0  0  0  0  0  0  # atno 8010 bound_to 7997
  140.7071  143.5921  150.8883 H   0  0  0  0  0  0  0  0  0  0  0  0  # atno 10167 bound_to 10162
  157.6589  130.9675  150.1203 H   0  0  0  0  0  0  0  0  0  0  0  0  # atno 10718 bound_to 10713
  152.9787  135.5917  154.4061 H   0  0  0  0  0  0  0  0  0  0  0  0  # atno 10763 bound_to 10752
  154.3702  135.2767  155.2273 H   0  0  0  0  0  0  0  0  0  0  0  0  # atno 10764 bound_to 10752
  154.4232  135.6054  153.6077 H   0  0  0  0  0  0  0  0  0  0  0  0  # atno 10765 bound_to 10752
  140.2615  134.7898  157.3594 H   0  0  0  0  0  0  0  0  0  0  0  0  # atno 11005 bound_to 11000
  146.2402  140.5477  142.8937 LP  0  0  0  0  0  0  0  0  0  0  0  0  # atno 17320 bound_to 7965
  144.7951  140.6107  143.6515 LP  0  0  0  0  0  0  0  0  0  0  0  0  # atno 17321 bound_to 7965
  139.9646  143.6125  152.2992 LP  0  0  0  0  0  0  0  0  0  0  0  0  # atno 17342 bound_to 10162
  139.6690  144.7661  151.1819 LP  0  0  0  0  0  0  0  0  0  0  0  0  # atno 17343 bound_to 10162
  156.2076  130.3664  149.8710 LP  0  0  0  0  0  0  0  0  0  0  0  0  # atno 17370 bound_to 10713
  156.6597  130.8777  151.3545 LP  0  0  0  0  0  0  0  0  0  0  0  0  # atno 17371 bound_to 10713
  140.1460  134.4911  155.7996 LP  0  0  0  0  0  0  0  0  0  0  0  0  # atno 17394 bound_to 11000
  141.2189  133.6843  156.7294 LP  0  0  0  0  0  0  0  0  0  0  0  0  # atno 17395 bound_to 11000

$$$$
