AV-unprocessed.smi:3117|AV-procd|sdf|11882|dock5
  -GOLD-   2272017273D 1   1.00000     0.00000
 Structure written by MMmdl.
 36 36  0  0  0  0  0  0  0  0  1 V2000
  151.2235  141.3295  157.2072 C   0  0  0  0  0  0  0  0  0  0  0  0
  150.2735  142.1388  158.1077 C   0  0  2  0  0  0  0  0  0  0  0  0
  149.0989  142.4978  157.3029 N   0  0  0  0  0  0  0  0  0  0  0  0
  148.4178  141.3830  156.6377 C   0  0  0  0  0  0  0  0  0  0  0  0
  148.2068  141.6395  155.1305 C   0  0  0  0  0  0  0  0  0  0  0  0
  148.3310  140.3170  154.3559 C   0  0  0  0  0  0  0  0  0  0  0  0
  146.8519  142.3064  154.8248 C   0  0  0  0  0  0  0  0  0  0  0  0
  149.2489  142.4760  154.6663 O   0  0  0  0  0  0  0  0  0  0  0  0
  150.9703  143.3969  158.7122 C   0  0  2  0  0  0  0  0  0  0  0  0
  151.7701  144.2132  157.6767 C   0  0  0  0  0  0  0  0  0  0  0  0
  151.8310  143.0741  159.8435 N   0  0  0  0  0  0  0  0  0  0  0  0
  152.9574  142.2766  159.8550 C   0  0  0  0  0  0  0  0  0  0  0  0
  153.4446  142.2743  161.1306 C   0  0  0  0  0  0  0  0  0  0  0  0
  152.5375  143.1098  161.8399 C   0  0  0  0  0  0  0  0  0  0  0  0
  151.5748  143.5883  161.0687 N   0  0  0  0  0  0  0  0  0  0  0  0
  152.0472  140.8962  157.7740 H   0  0  0  0  0  0  0  0  0  0  0  0
  151.6467  141.9477  156.4147 H   0  0  0  0  0  0  0  0  0  0  0  0
  150.6996  140.4979  156.7347 H   0  0  0  0  0  0  0  0  0  0  0  0
  149.9672  141.4761  158.9184 H   0  0  0  0  0  0  0  0  0  0  0  0
  149.3672  143.1787  156.5990 H   0  0  0  0  0  0  0  0  0  0  0  0
  148.9920  140.4661  156.7772 H   0  0  0  0  0  0  0  0  0  0  0  0
  147.4471  141.1999  157.0907 H   0  0  0  0  0  0  0  0  0  0  0  0
  147.5575  139.6103  154.6591 H   0  0  0  0  0  0  0  0  0  0  0  0
  149.2970  139.8413  154.5313 H   0  0  0  0  0  0  0  0  0  0  0  0
  148.2306  140.4717  153.2808 H   0  0  0  0  0  0  0  0  0  0  0  0
  146.0250  141.6983  155.1933 H   0  0  0  0  0  0  0  0  0  0  0  0
  146.7095  142.4409  153.7520 H   0  0  0  0  0  0  0  0  0  0  0  0
  146.7683  143.2905  155.2869 H   0  0  0  0  0  0  0  0  0  0  0  0
  149.3074  143.2271  155.2368 H   0  0  0  0  0  0  0  0  0  0  0  0
  150.1887  144.0559  159.0941 H   0  0  0  0  0  0  0  0  0  0  0  0
  151.1191  144.6677  156.9303 H   0  0  0  0  0  0  0  0  0  0  0  0
  152.4984  143.5929  157.1533 H   0  0  0  0  0  0  0  0  0  0  0  0
  152.3125  145.0282  158.1574 H   0  0  0  0  0  0  0  0  0  0  0  0
  153.3174  141.7866  158.9623 H   0  0  0  0  0  0  0  0  0  0  0  0
  154.3168  141.7561  161.4998 H   0  0  0  0  0  0  0  0  0  0  0  0
  152.5512  143.3827  162.8847 H   0  0  0  0  0  0  0  0  0  0  0  0
  1  2  1  0  0  0  0
  1 16  1  0  0  0  0
  1 17  1  0  0  0  0
  1 18  1  0  0  0  0
  2  3  1  0  0  0  0
  2  9  1  0  0  0  0
  2 19  1  0  0  0  0
  3  4  1  0  0  0  0
  3 20  1  0  0  0  0
  4  5  1  0  0  0  0
  4 21  1  0  0  0  0
  4 22  1  0  0  0  0
  5  6  1  0  0  0  0
  5  7  1  0  0  0  0
  5  8  1  0  0  0  0
  6 23  1  0  0  0  0
  6 24  1  0  0  0  0
  6 25  1  0  0  0  0
  7 26  1  0  0  0  0
  7 27  1  0  0  0  0
  7 28  1  0  0  0  0
  8 29  1  0  0  0  0
  9 10  1  0  0  0  0
  9 11  1  0  0  0  0
  9 30  1  0  0  0  0
 10 31  1  0  0  0  0
 10 32  1  0  0  0  0
 10 33  1  0  0  0  0
 11 15  1  0  0  0  0
 11 12  1  0  0  0  0
 12 13  2  0  0  0  0
 12 34  1  0  0  0  0
 13 14  1  0  0  0  0
 13 35  1  0  0  0  0
 14 15  2  0  0  0  0
 14 36  1  0  0  0  0
M  END
> <s_m_source_file>
AV-unprocessed.smi

> <i_m_source_file_index>
3117

> <i_lp_mmshare_version>
43012

> <i_f3d_flags>
0

> <s_epik_input>
W0NIM11DKFtDSDNdKShbT0hdKVtDSDJdW05IXVtDQEBIXShbQ0gzXSlbQ0BIXShbQ0gzXSluMVtjSF1bY0hdW2NIXW4x

> <s_epik_cmdline>
J2VwaWtfcHl0aG9uJywgJy1waCcsICc3LjAnLCAnLXRuJywgJzgnLCAnLW1hJywgJzIwMCcsICctbWV0YWxfYmluZGluZycsICctaW1hZScsICc8aW5maWxlLm1hZT4nLCAnLW9tYWUnLCAnPG91dGZpbGUubWFlPic=

> <r_lp_tautomer_probability>
1

> <r_epik_Ionization_Penalty>
2.13419

> <r_epik_Ionization_Penalty_Charging>
0

> <r_epik_Ionization_Penalty_Neutral>
2.13419

> <r_epik_State_Penalty>
2.27148

> <r_epik_Charging_Adjusted_Penalty>
2.27148

> <i_epik_Tot_Q>
0

> <i_epik_Tot_abs_Q>
0

> <r_epik_Metal_State_Penalty>
2.27029

> <b_epik_Metal_Only>
0

> <s_lp_Force_Field>
OPLS_2005

> <r_lp_Energy>
19.9089

> <b_lp_Chiralities_Consistent>
1

> <s_lp_Variant>
AV-unprocessed.smi:3117-5

> <Gold.Version>
5.8.1

> <Gold.Id.Protein>
6NUR|6NUR_protein|mol2

> <Gold.PLP.Fitness>
41.4696

> <Gold.PLP.PLP>
-37.9809

> <Gold.PLP.part.hbond>
-3.1355

> <Gold.PLP.part.metal>
0.0000

> <Gold.PLP.part.buried>
-3.5598

> <Gold.PLP.part.nonpolar>
-30.7975

> <Gold.PLP.part.repulsive>
0.1363

> <Gold.PLP.ligand.clash>
0.0000

> <Gold.PLP.ligand.torsion>
1.2950

> <Gold.PLP.Chemscore.Hbond>
1.9900

> <Gold.PLP.Chemscore.CHOScore>
0.0000

> <Gold.PLP.Chemscore.Metal>
0.0000

> <Gold.Chemscore.Hbonds>
donor molecule, donor type, donor heavy atom, donor atom, acceptor molecule, acceptor atom, score
      L1  H     3    20       P1  8028  0.93
      L1  H     8    29       P1  8028  1.00
      P1  H  8011  8017       L1     8  0.01

> <Gold.PLP.Chemscore.Internal.Correction>
0.1085

> <Gold.Rescore>
     Score         DG    S(hbond)    S(metal)    S(lipo)     H(rot)  DE(clash)    DE(int)     intcor
     16.09     -17.42       1.98        0.00      93.54       2.19       0.04       1.30       ----

> <Gold.Chemscore.Fitness>
16.0883

> <Gold.Chemscore.DG>
-17.4210

> <Gold.Chemscore.ZeroCoef>
-5.4800

> <Gold.Chemscore.Hbond>
1.9756

> <Gold.Chemscore.Metal>
0.0000

> <Gold.Chemscore.Lipo>
93.5417

> <Gold.Chemscore.Internal_Hbond>
0.0000

> <Gold.Chemscore.DEClash>
0.0361

> <Gold.Chemscore.DEInternal>
1.2966

> <Gold.Chemscore.Rot>
2.1882

> <Gold.Chemscore.Internal.Correction>
   9.000000E+99

> <Gold.Chemscore.Hbonds>
donor molecule, donor type, donor heavy atom, donor atom, acceptor molecule, acceptor atom, score
      L1  H     3    20       P1  8028  0.89
      L1  H     8    29       P1  8028  0.94
      P1  H  8011  8017       L1     8  0.02

> <Gold.Chemscore.Hbond.Weighted>
-6.5984

> <Gold.Chemscore.Metal.Weighted>
-0.0000

> <Gold.Chemscore.Lipo.Weighted>
-10.9444

> <Gold.Chemscore.Internal_Hbond.Weighted>
0.0000

> <Gold.Chemscore.DEClash.Weighted>
0.0361

> <Gold.Chemscore.DEInternal.Weighted>
1.2966

> <Gold.Chemscore.Rot.Weighted>
5.6018

> <Gold.Chemscore.Internal.Correction.Weighted>
   9.000000E+99

> <Gold.Protein.RotatedTorsions>
[ 6907 6896 6895 6894 ] final  -54.13 input  -60.11 | X-H torsion
[ 7974 7965 7964 7962 ] final  -41.08 input  175.53 | X-H torsion
[ 8008 7997 7996 7995 ] final -159.81 input   59.86 | X-H torsion
[ 10167 10162 10161 10158 ] final  -73.81 input  -65.29 | X-H torsion
[ 10718 10713 10712 10709 ] final   98.72 input   66.30 | X-H torsion
[ 10763 10752 10751 10750 ] final  -65.30 input  -60.55 | X-H torsion
[ 11005 11000 10999 10996 ] final  127.73 input  -57.11 | X-H torsion

> <Gold.Protein.ActiveResidues>
 VAL166  LYS551  ARG553  GLY616  TRP617  ASP618  TYR619  PRO620  LYS621  CYS622 
 ASP623  PHE694  ASN695  SER759  ASP760  ASP761  ALA762  ILE779  LEU786  VAL792 
 PHE793  MET794  SER795  GLU796  ALA797  LYS798  CYS799  TRP800  GLU811  SER814 

> <Gold.Protein.RotatedAtoms>
  150.8365  134.7640  159.6896 H   0  0  0  0  0  0  0  0  0  0  0  0  # atno 6907 bound_to 6896
  152.4461  134.5489  159.9871 H   0  0  0  0  0  0  0  0  0  0  0  0  # atno 6908 bound_to 6896
  151.5638  133.3361  159.3012 H   0  0  0  0  0  0  0  0  0  0  0  0  # atno 6909 bound_to 6896
  146.0244  140.6810  142.9163 H   0  0  0  0  0  0  0  0  0  0  0  0  # atno 7974 bound_to 7965
  155.7680  140.0848  157.2122 H   0  0  0  0  0  0  0  0  0  0  0  0  # atno 8008 bound_to 7997
  154.3998  140.1530  156.2966 H   0  0  0  0  0  0  0  0  0  0  0  0  # atno 8009 bound_to 7997
  155.8774  140.3422  155.5866 H   0  0  0  0  0  0  0  0  0  0  0  0  # atno 8010 bound_to 7997
  140.5080  143.2349  151.7642 H   0  0  0  0  0  0  0  0  0  0  0  0  # atno 10167 bound_to 10162
  157.6890  131.0648  150.4839 H   0  0  0  0  0  0  0  0  0  0  0  0  # atno 10718 bound_to 10713
  154.3430  135.6152  153.5606 H   0  0  0  0  0  0  0  0  0  0  0  0  # atno 10763 bound_to 10752
  152.9803  135.5774  154.4831 H   0  0  0  0  0  0  0  0  0  0  0  0  # atno 10764 bound_to 10752
  154.4538  135.2853  155.1739 H   0  0  0  0  0  0  0  0  0  0  0  0  # atno 10765 bound_to 10752
  139.9523  134.9619  156.8898 H   0  0  0  0  0  0  0  0  0  0  0  0  # atno 11005 bound_to 11000
  144.7003  140.3624  143.7161 LP  0  0  0  0  0  0  0  0  0  0  0  0  # atno 17320 bound_to 7965
  145.7141  139.1692  143.2522 LP  0  0  0  0  0  0  0  0  0  0  0  0  # atno 17321 bound_to 7965
  139.4888  144.4431  151.9742 LP  0  0  0  0  0  0  0  0  0  0  0  0  # atno 17342 bound_to 10162
  140.3522  144.3075  150.5947 LP  0  0  0  0  0  0  0  0  0  0  0  0  # atno 17343 bound_to 10162
  156.5169  130.4152  149.6271 LP  0  0  0  0  0  0  0  0  0  0  0  0  # atno 17370 bound_to 10713
  156.3190  130.7270  151.2178 LP  0  0  0  0  0  0  0  0  0  0  0  0  # atno 17371 bound_to 10713
  140.5690  134.0461  155.7424 LP  0  0  0  0  0  0  0  0  0  0  0  0  # atno 17394 bound_to 11000
  141.1188  133.9495  157.2770 LP  0  0  0  0  0  0  0  0  0  0  0  0  # atno 17395 bound_to 11000

$$$$
