AV-unprocessed.smi:3232|AV-procd|sdf|12345|dock5
  -GOLD-   2272018203D 1   1.00000     0.00000
 Structure written by MMmdl.
 40 41  0  0  0  0  0  0  0  0  2 V2000
  146.7522  138.9091  153.5549 C   0  0  0  0  0  0  0  0  0  0  0  0
  146.4340  139.6745  154.8470 C   0  0  0  0  0  0  0  0  0  0  0  0
  145.9180  141.0403  154.5800 N   0  3  2  0  0  0  0  0  0  0  0  0
  146.8179  141.8950  153.7726 C   0  0  0  0  0  0  0  0  0  0  0  0
  146.5128  143.3475  154.1663 C   0  0  0  0  0  0  0  0  0  0  0  0
  145.3190  143.2534  155.1154 C   0  0  0  0  0  0  0  0  0  0  0  0
  145.4469  141.8532  155.7301 C   0  0  2  0  0  0  0  0  0  0  0  0
  146.4004  141.7984  156.9533 C   0  0  0  0  0  0  0  0  0  0  0  0
  147.7798  142.0955  156.5812 N   0  0  0  0  0  0  0  0  0  0  0  0
  148.8646  141.4435  157.0310 C   0  0  0  0  0  0  0  0  0  0  0  0
  148.8069  140.5425  157.8687 O   0  0  0  0  0  0  0  0  0  0  0  0
  150.2101  141.8625  156.4160 C   0  0  1  0  0  0  0  0  0  0  0  0
  151.1332  142.5843  157.4178 C   0  0  0  0  0  0  0  0  0  0  0  0
  150.8668  140.7098  155.8110 N   0  0  0  0  0  0  0  0  0  0  0  0
  151.4412  139.6496  156.3832 C   0  0  0  0  0  0  0  0  0  0  0  0
  151.9861  138.8023  155.5215 N   0  0  0  0  0  0  0  0  0  0  0  0
  151.6928  139.4449  154.3523 C   0  0  0  0  0  0  0  0  0  0  0  0
  151.0312  140.5959  154.4691 N   0  0  0  0  0  0  0  0  0  0  0  0
  147.1849  137.9346  153.7819 H   0  0  0  0  0  0  0  0  0  0  0  0
  147.4701  139.4545  152.9413 H   0  0  0  0  0  0  0  0  0  0  0  0
  145.8594  138.7376  152.9538 H   0  0  0  0  0  0  0  0  0  0  0  0
  145.7433  139.1106  155.4741 H   0  0  0  0  0  0  0  0  0  0  0  0
  147.3545  139.7692  155.4244 H   0  0  0  0  0  0  0  0  0  0  0  0
  147.8637  141.6644  153.9819 H   0  0  0  0  0  0  0  0  0  0  0  0
  146.6423  141.7164  152.7113 H   0  0  0  0  0  0  0  0  0  0  0  0
  147.3688  143.7774  154.6880 H   0  0  0  0  0  0  0  0  0  0  0  0
  146.3013  143.9790  153.3030 H   0  0  0  0  0  0  0  0  0  0  0  0
  145.2853  144.0683  155.8376 H   0  0  0  0  0  0  0  0  0  0  0  0
  144.3965  143.3069  154.5356 H   0  0  0  0  0  0  0  0  0  0  0  0
  144.4632  141.4976  156.0396 H   0  0  0  0  0  0  0  0  0  0  0  0
  146.1175  142.5498  157.6898 H   0  0  0  0  0  0  0  0  0  0  0  0
  146.3252  140.8350  157.4604 H   0  0  0  0  0  0  0  0  0  0  0  0
  147.9193  142.8263  155.8984 H   0  0  0  0  0  0  0  0  0  0  0  0
  149.9887  142.5669  155.6125 H   0  0  0  0  0  0  0  0  0  0  0  0
  150.6533  143.4752  157.8248 H   0  0  0  0  0  0  0  0  0  0  0  0
  152.0558  142.9048  156.9329 H   0  0  0  0  0  0  0  0  0  0  0  0
  151.4080  141.9435  158.2567 H   0  0  0  0  0  0  0  0  0  0  0  0
  151.4662  139.4967  157.4522 H   0  0  0  0  0  0  0  0  0  0  0  0
  151.9814  139.0567  153.3867 H   0  0  0  0  0  0  0  0  0  0  0  0
  145.0990  140.9173  154.0016 H   0  0  0  0  0  0  0  0  0  0  0  0
  1  2  1  0  0  0  0
  1 19  1  0  0  0  0
  1 20  1  0  0  0  0
  1 21  1  0  0  0  0
  2  3  1  0  0  0  0
  2 22  1  0  0  0  0
  2 23  1  0  0  0  0
  3  7  1  0  0  0  0
  3  4  1  0  0  0  0
  3 40  1  0  0  0  0
  4  5  1  0  0  0  0
  4 24  1  0  0  0  0
  4 25  1  0  0  0  0
  5  6  1  0  0  0  0
  5 26  1  0  0  0  0
  5 27  1  0  0  0  0
  6  7  1  0  0  0  0
  6 28  1  0  0  0  0
  6 29  1  0  0  0  0
  7  8  1  0  0  0  0
  7 30  1  0  0  0  0
  8  9  1  0  0  0  0
  8 31  1  0  0  0  0
  8 32  1  0  0  0  0
  9 10  1  0  0  0  0
  9 33  1  0  0  0  0
 10 11  2  0  0  0  0
 10 12  1  0  0  0  0
 12 13  1  0  0  0  0
 12 14  1  0  0  0  0
 12 34  1  0  0  0  0
 13 35  1  0  0  0  0
 13 36  1  0  0  0  0
 13 37  1  0  0  0  0
 14 18  1  0  0  0  0
 14 15  1  0  0  0  0
 15 16  2  0  0  0  0
 15 38  1  0  0  0  0
 16 17  1  0  0  0  0
 17 18  2  0  0  0  0
 17 39  1  0  0  0  0
M  CHG  1   3   1
M  END
> <s_m_source_file>
AV-unprocessed.smi

> <i_m_source_file_index>
3232

> <i_lp_mmshare_version>
43012

> <i_f3d_flags>
0

> <s_epik_input>
W0NIM11bQ0gyXU4xW0NIMl1bQ0gyXVtDSDJdW0NASF0xW0NIMl1bTkhdQyg9TylbQ0BIXShbQ0gzXSluMltjSF1uW2NIXW4y

> <s_epik_cmdline>
J2VwaWtfcHl0aG9uJywgJy1waCcsICc3LjAnLCAnLXRuJywgJzgnLCAnLW1hJywgJzIwMCcsICctbWV0YWxfYmluZGluZycsICctaW1hZScsICc8aW5maWxlLm1hZT4nLCAnLW9tYWUnLCAnPG91dGZpbGUubWFlPic=

> <r_lp_tautomer_probability>
1

> <r_epik_Ionization_Penalty>
0.00177695

> <r_epik_Ionization_Penalty_Charging>
0.00176881

> <r_epik_Ionization_Penalty_Neutral>
8.13528e-06

> <r_epik_State_Penalty>
0.00119827

> <r_epik_Charging_Adjusted_Penalty>
0.00296709

> <i_epik_Tot_Q>
1

> <i_epik_Tot_abs_Q>
1

> <r_epik_Metal_State_Penalty>
-0

> <b_epik_Metal_Only>
0

> <s_lp_Force_Field>
OPLS_2005

> <r_lp_Energy>
36.5981

> <b_lp_Chiralities_Consistent>
1

> <s_lp_Variant>
AV-unprocessed.smi:3232-7

> <Gold.Version>
5.8.1

> <Gold.Id.Protein>
6NUR|6NUR_protein|mol2

> <Gold.PLP.Fitness>
37.9170

> <Gold.PLP.PLP>
-28.9047

> <Gold.PLP.part.hbond>
-3.0819

> <Gold.PLP.part.metal>
0.0000

> <Gold.PLP.part.buried>
-3.2717

> <Gold.PLP.part.nonpolar>
-21.5335

> <Gold.PLP.part.repulsive>
0.1141

> <Gold.PLP.ligand.clash>
0.8121

> <Gold.PLP.ligand.torsion>
0.3542

> <Gold.PLP.Chemscore.Hbond>
3.4680

> <Gold.PLP.Chemscore.CHOScore>
0.0000

> <Gold.PLP.Chemscore.Metal>
0.0000

> <Gold.Chemscore.Hbonds>
donor molecule, donor type, donor heavy atom, donor atom, acceptor molecule, acceptor atom, score
      L1  H     3    40       P1 10175  1.56
      L1  H     9    33       P1  8028  0.65
      P1  H  7989  7998       L1    18  0.02

> <Gold.PLP.Chemscore.Internal.Correction>
0.1287

> <Gold.Rescore>
     Score         DG    S(hbond)    S(metal)    S(lipo)     H(rot)  DE(clash)    DE(int)     intcor
      9.01     -11.31       1.97        0.00      47.90       2.49       0.14       2.15       ----

> <Gold.Chemscore.Fitness>
9.0132

> <Gold.Chemscore.DG>
-11.3092

> <Gold.Chemscore.ZeroCoef>
-5.4800

> <Gold.Chemscore.Hbond>
1.9743

> <Gold.Chemscore.Metal>
0.0000

> <Gold.Chemscore.Lipo>
47.9037

> <Gold.Chemscore.Internal_Hbond>
0.0000

> <Gold.Chemscore.DEClash>
0.1429

> <Gold.Chemscore.DEInternal>
2.1531

> <Gold.Chemscore.Rot>
2.4882

> <Gold.Chemscore.Internal.Correction>
   9.000000E+99

> <Gold.Chemscore.Hbonds>
donor molecule, donor type, donor heavy atom, donor atom, acceptor molecule, acceptor atom, score
      L1  H     3    40       P1 10175  0.70
      L1  H     9    33       P1  8028  0.42

> <Gold.Chemscore.Hbond.Weighted>
-6.5942

> <Gold.Chemscore.Metal.Weighted>
-0.0000

> <Gold.Chemscore.Lipo.Weighted>
-5.6047

> <Gold.Chemscore.Internal_Hbond.Weighted>
0.0000

> <Gold.Chemscore.DEClash.Weighted>
0.1429

> <Gold.Chemscore.DEInternal.Weighted>
2.1531

> <Gold.Chemscore.Rot.Weighted>
6.3697

> <Gold.Chemscore.Internal.Correction.Weighted>
   9.000000E+99

> <Gold.Protein.RotatedTorsions>
[ 6907 6896 6895 6894 ] final  -48.09 input  -60.11 | X-H torsion
[ 7974 7965 7964 7962 ] final -177.32 input  175.53 | X-H torsion
[ 8008 7997 7996 7995 ] final   69.52 input   59.86 | X-H torsion
[ 10167 10162 10161 10158 ] final   -7.94 input  -65.29 | X-H torsion
[ 10718 10713 10712 10709 ] final -157.66 input   66.30 | X-H torsion
[ 10763 10752 10751 10750 ] final  -82.64 input  -60.55 | X-H torsion
[ 11005 11000 10999 10996 ] final  132.31 input  -57.11 | X-H torsion

> <Gold.Protein.ActiveResidues>
 VAL166  LYS551  ARG553  GLY616  TRP617  ASP618  TYR619  PRO620  LYS621  CYS622 
 ASP623  PHE694  ASN695  SER759  ASP760  ASP761  ALA762  ILE779  LEU786  VAL792 
 PHE793  MET794  SER795  GLU796  ALA797  LYS798  CYS799  TRP800  GLU811  SER814 

> <Gold.Protein.RotatedAtoms>
  150.8941  134.8347  159.7313 H   0  0  0  0  0  0  0  0  0  0  0  0  # atno 6907 bound_to 6896
  152.4854  134.4603  159.9613 H   0  0  0  0  0  0  0  0  0  0  0  0  # atno 6908 bound_to 6896
  151.4662  133.3541  159.2852 H   0  0  0  0  0  0  0  0  0  0  0  0  # atno 6909 bound_to 6896
  144.7127  140.1036  143.6415 H   0  0  0  0  0  0  0  0  0  0  0  0  # atno 7974 bound_to 7965
  155.7249  140.3493  155.5032 H   0  0  0  0  0  0  0  0  0  0  0  0  # atno 8008 bound_to 7997
  155.9236  140.1071  157.1209 H   0  0  0  0  0  0  0  0  0  0  0  0  # atno 8009 bound_to 7997
  154.4073  140.1245  156.4698 H   0  0  0  0  0  0  0  0  0  0  0  0  # atno 8010 bound_to 7997
  140.7044  143.6024  150.8784 H   0  0  0  0  0  0  0  0  0  0  0  0  # atno 10167 bound_to 10162
  156.5433  130.8573  151.2756 H   0  0  0  0  0  0  0  0  0  0  0  0  # atno 10718 bound_to 10713
  154.5781  135.5584  153.7159 H   0  0  0  0  0  0  0  0  0  0  0  0  # atno 10763 bound_to 10752
  153.0072  135.6313  154.2020 H   0  0  0  0  0  0  0  0  0  0  0  0  # atno 10764 bound_to 10752
  154.1961  135.2880  155.2986 H   0  0  0  0  0  0  0  0  0  0  0  0  # atno 10765 bound_to 10752
  139.9782  134.9556  156.9564 H   0  0  0  0  0  0  0  0  0  0  0  0  # atno 11005 bound_to 11000
  145.9516  139.2737  143.1209 LP  0  0  0  0  0  0  0  0  0  0  0  0  # atno 17320 bound_to 7965
  145.9317  140.9043  143.0353 LP  0  0  0  0  0  0  0  0  0  0  0  0  # atno 17321 bound_to 7965
  139.9749  143.6016  152.2962 LP  0  0  0  0  0  0  0  0  0  0  0  0  # atno 17342 bound_to 10162
  139.6616  144.7662  151.1952 LP  0  0  0  0  0  0  0  0  0  0  0  0  # atno 17343 bound_to 10162
  157.7401  130.9844  150.2357 LP  0  0  0  0  0  0  0  0  0  0  0  0  # atno 17370 bound_to 10713
  156.2951  130.3751  149.7803 LP  0  0  0  0  0  0  0  0  0  0  0  0  # atno 17371 bound_to 10713
  140.5150  134.0964  155.7279 LP  0  0  0  0  0  0  0  0  0  0  0  0  # atno 17394 bound_to 11000
  141.1457  133.9059  157.2220 LP  0  0  0  0  0  0  0  0  0  0  0  0  # atno 17395 bound_to 11000

$$$$
