AV-unprocessed.smi:281|AV-procd|sdf|2105|dock1
  -GOLD-   2262021393D 1   1.00000     0.00000
 Structure written by MMmdl.
 55 59  0  0  0  0  0  0  0  0  1 V2000
  153.0383  138.3327  154.3902 C   0  0  0  0  0  0  0  0  0  0  0  0
  151.6944  138.6905  155.0322 C   0  0  2  0  0  0  0  0  0  0  0  0
  150.5132  138.4154  154.0890 C   0  0  0  0  0  0  0  0  0  0  0  0
  149.2601  138.8479  154.7027 N   0  0  0  0  0  0  0  0  0  0  0  0
  148.1019  138.4703  154.0982 C   0  0  0  0  0  0  0  0  0  0  0  0
  147.7061  139.0844  152.9498 N   0  0  0  0  0  0  0  0  0  0  0  0
  146.5668  138.7321  152.3479 C   0  0  0  0  0  0  0  0  0  0  0  0
  145.6848  137.8008  152.7127 N   0  0  0  0  0  0  0  0  0  0  0  0
  146.0761  137.1717  153.8573 C   0  0  0  0  0  0  0  0  0  0  0  0
  147.2557  137.4433  154.6085 C   0  0  0  0  0  0  0  0  0  0  0  0
  147.3139  136.5963  155.7086 N   0  0  0  0  0  0  0  0  0  0  0  0
  146.2306  135.8754  155.6196 C   0  0  0  0  0  0  0  0  0  0  0  0
  145.4337  136.1468  154.5309 N   0  0  0  0  0  0  0  0  0  0  0  0
  144.1785  135.4955  154.1862 C   0  0  0  0  0  0  0  0  0  0  0  0
  144.2200  134.7401  152.8358 C   0  0  1  0  0  0  0  0  0  0  0  0
  143.0981  133.8791  152.7594 O   0  0  0  0  0  0  0  0  0  0  0  0
  144.2021  135.6894  151.6356 C   0  0  0  0  0  0  0  0  0  0  0  0
  145.6159  135.5862  151.0759 C   0  0  0  0  0  0  0  0  0  0  0  0
  145.9418  134.2281  151.3092 O   0  0  0  0  0  0  0  0  0  0  0  0
  145.5066  133.9162  152.6246 C   0  0  0  0  0  0  0  0  0  0  0  0
  149.2885  140.2362  155.1576 C   0  0  0  0  0  0  0  0  0  0  0  0
  150.5391  140.5387  156.0283 C   0  0  1  0  0  0  0  0  0  0  0  0
  150.7034  142.0433  156.2072 C   0  0  0  0  0  0  0  0  0  0  0  0
  149.9345  142.3205  157.4881 C   0  0  0  0  0  0  0  0  0  0  0  0
  150.2861  141.2264  158.3158 O   0  0  0  0  0  0  0  0  0  0  0  0
  150.4968  140.0674  157.5121 C   0  0  1  0  0  0  0  0  0  0  0  0
  149.4582  139.0021  157.8960 C   0  0  0  0  0  0  0  0  0  0  0  0
  151.7122  140.0785  155.3538 O   0  0  0  0  0  0  0  0  0  0  0  0
  153.0813  137.2739  154.1338 H   0  0  0  0  0  0  0  0  0  0  0  0
  153.8628  138.5427  155.0718 H   0  0  0  0  0  0  0  0  0  0  0  0
  153.2059  138.9060  153.4779 H   0  0  0  0  0  0  0  0  0  0  0  0
  151.5837  138.1008  155.9427 H   0  0  0  0  0  0  0  0  0  0  0  0
  150.6577  138.9437  153.1451 H   0  0  0  0  0  0  0  0  0  0  0  0
  150.4689  137.3491  153.8634 H   0  0  0  0  0  0  0  0  0  0  0  0
  146.3280  139.2746  151.4448 H   0  0  0  0  0  0  0  0  0  0  0  0
  145.9854  135.1156  156.3475 H   0  0  0  0  0  0  0  0  0  0  0  0
  143.9165  134.8115  154.9949 H   0  0  0  0  0  0  0  0  0  0  0  0
  143.3941  136.2532  154.1640 H   0  0  0  0  0  0  0  0  0  0  0  0
  143.0830  133.3398  153.5356 H   0  0  0  0  0  0  0  0  0  0  0  0
  143.4954  135.3494  150.8763 H   0  0  0  0  0  0  0  0  0  0  0  0
  143.9337  136.7143  151.8945 H   0  0  0  0  0  0  0  0  0  0  0  0
  145.6707  135.8398  150.0171 H   0  0  0  0  0  0  0  0  0  0  0  0
  146.3045  136.2311  151.6242 H   0  0  0  0  0  0  0  0  0  0  0  0
  146.2931  134.2294  153.3116 H   0  0  0  0  0  0  0  0  0  0  0  0
  145.3656  132.8423  152.7542 H   0  0  0  0  0  0  0  0  0  0  0  0
  149.3055  140.8650  154.2663 H   0  0  0  0  0  0  0  0  0  0  0  0
  148.3835  140.5054  155.6994 H   0  0  0  0  0  0  0  0  0  0  0  0
  151.7541  142.2932  156.3629 H   0  0  0  0  0  0  0  0  0  0  0  0
  150.3472  142.6307  155.3604 H   0  0  0  0  0  0  0  0  0  0  0  0
  150.2024  143.2727  157.9461 H   0  0  0  0  0  0  0  0  0  0  0  0
  148.8585  142.3128  157.3095 H   0  0  0  0  0  0  0  0  0  0  0  0
  151.4831  139.6937  157.7902 H   0  0  0  0  0  0  0  0  0  0  0  0
  149.5778  138.0896  157.3130 H   0  0  0  0  0  0  0  0  0  0  0  0
  148.4426  139.3690  157.7573 H   0  0  0  0  0  0  0  0  0  0  0  0
  149.5609  138.7308  158.9467 H   0  0  0  0  0  0  0  0  0  0  0  0
  1  2  1  0  0  0  0
  1 29  1  0  0  0  0
  1 30  1  0  0  0  0
  1 31  1  0  0  0  0
  2 28  1  0  0  0  0
  2  3  1  0  0  0  0
  2 32  1  0  0  0  0
  3  4  1  0  0  0  0
  3 33  1  0  0  0  0
  3 34  1  0  0  0  0
  4  5  1  0  0  0  0
  4 21  1  0  0  0  0
  5 10  1  0  0  0  0
  5  6  2  0  0  0  0
  6  7  1  0  0  0  0
  7  8  2  0  0  0  0
  7 35  1  0  0  0  0
  8  9  1  0  0  0  0
  9 13  1  0  0  0  0
  9 10  2  0  0  0  0
 10 11  1  0  0  0  0
 11 12  2  0  0  0  0
 12 13  1  0  0  0  0
 12 36  1  0  0  0  0
 13 14  1  0  0  0  0
 14 15  1  0  0  0  0
 14 37  1  0  0  0  0
 14 38  1  0  0  0  0
 15 20  1  0  0  0  0
 15 16  1  0  0  0  0
 15 17  1  0  0  0  0
 16 39  1  0  0  0  0
 17 18  1  0  0  0  0
 17 40  1  0  0  0  0
 17 41  1  0  0  0  0
 18 19  1  0  0  0  0
 18 42  1  0  0  0  0
 18 43  1  0  0  0  0
 19 20  1  0  0  0  0
 20 44  1  0  0  0  0
 20 45  1  0  0  0  0
 21 22  1  0  0  0  0
 21 46  1  0  0  0  0
 21 47  1  0  0  0  0
 22 26  1  0  0  0  0
 22 23  1  0  0  0  0
 22 28  1  0  0  0  0
 23 24  1  0  0  0  0
 23 48  1  0  0  0  0
 23 49  1  0  0  0  0
 24 25  1  0  0  0  0
 24 50  1  0  0  0  0
 24 51  1  0  0  0  0
 25 26  1  0  0  0  0
 26 27  1  0  0  0  0
 26 52  1  0  0  0  0
 27 53  1  0  0  0  0
 27 54  1  0  0  0  0
 27 55  1  0  0  0  0
M  END
> <s_m_source_file>
AV-unprocessed.smi

> <i_m_source_file_index>
281

> <i_lp_mmshare_version>
43012

> <i_f3d_flags>
0

> <s_epik_input>
W0NIM11bQ0BASF0xT1tDSDJdW0NIMl1bQ0BAXTEyW0NIMl1OKFtDSDJdW0NASF0oTzIpW0NIM10pYyhuW2NIXW4zKWMoYzM0KW5bY0hdbjRbQ0gyXVtDQEBdNShbT0hdKVtDSDJdW0NIMl1PW0NIMl01

> <s_epik_cmdline>
J2VwaWtfcHl0aG9uJywgJy1waCcsICc3LjAnLCAnLXRuJywgJzgnLCAnLW1hJywgJzIwMCcsICctbWV0YWxfYmluZGluZycsICctaW1hZScsICc8aW5maWxlLm1hZT4nLCAnLW9tYWUnLCAnPG91dGZpbGUubWFlPic=

> <r_lp_tautomer_probability>
1

> <r_epik_Ionization_Penalty>
0.00571331

> <r_epik_Ionization_Penalty_Charging>
0

> <r_epik_Ionization_Penalty_Neutral>
0.00571331

> <r_epik_State_Penalty>
0.00399586

> <r_epik_Charging_Adjusted_Penalty>
0.00399586

> <i_epik_Tot_Q>
0

> <i_epik_Tot_abs_Q>
0

> <r_epik_Metal_State_Penalty>
-0

> <b_epik_Metal_Only>
0

> <s_lp_Force_Field>
OPLS_2005

> <r_lp_Energy>
53.3416

> <b_lp_Chiralities_Consistent>
1

> <s_lp_Variant>
AV-unprocessed.smi:281-5

> <Gold.Version>
5.8.1

> <Gold.Id.Protein>
6NUR|6NUR_protein|mol2

> <Gold.PLP.Fitness>
39.4323

> <Gold.PLP.PLP>
-34.0910

> <Gold.PLP.part.hbond>
-2.0000

> <Gold.PLP.part.metal>
0.0000

> <Gold.PLP.part.buried>
-8.2104

> <Gold.PLP.part.nonpolar>
-27.3215

> <Gold.PLP.part.repulsive>
2.9102

> <Gold.PLP.ligand.clash>
0.0000

> <Gold.PLP.ligand.torsion>
0.3650

> <Gold.PLP.Chemscore.Hbond>
1.9280

> <Gold.PLP.Chemscore.CHOScore>
0.0000

> <Gold.PLP.Chemscore.Metal>
0.0000

> <Gold.Chemscore.Hbonds>
donor molecule, donor type, donor heavy atom, donor atom, acceptor molecule, acceptor atom, score
      L1  H    16    39       P1 10957  0.96
      P1  H  7989  7998       L1    28  0.93

> <Gold.PLP.Chemscore.Internal.Correction>
0.2873

> <Gold.Rescore>
     Score         DG    S(hbond)    S(metal)    S(lipo)     H(rot)  DE(clash)    DE(int)     intcor
     11.16     -13.42       1.41        0.00      73.29       2.09       0.62       1.64       ----

> <Gold.Chemscore.Fitness>
11.1595

> <Gold.Chemscore.DG>
-13.4182

> <Gold.Chemscore.ZeroCoef>
-5.4800

> <Gold.Chemscore.Hbond>
1.4134

> <Gold.Chemscore.Metal>
0.0000

> <Gold.Chemscore.Lipo>
73.2889

> <Gold.Chemscore.Internal_Hbond>
0.0000

> <Gold.Chemscore.DEClash>
0.6161

> <Gold.Chemscore.DEInternal>
1.6426

> <Gold.Chemscore.Rot>
2.0927

> <Gold.Chemscore.Internal.Correction>
   9.000000E+99

> <Gold.Chemscore.Hbonds>
donor molecule, donor type, donor heavy atom, donor atom, acceptor molecule, acceptor atom, score
      L1  H    16    39       P1 10957  0.90
      P1  H  7989  7998       L1    28  0.13

> <Gold.Chemscore.Hbond.Weighted>
-4.7207

> <Gold.Chemscore.Metal.Weighted>
-0.0000

> <Gold.Chemscore.Lipo.Weighted>
-8.5748

> <Gold.Chemscore.Internal_Hbond.Weighted>
0.0000

> <Gold.Chemscore.DEClash.Weighted>
0.6161

> <Gold.Chemscore.DEInternal.Weighted>
1.6426

> <Gold.Chemscore.Rot.Weighted>
5.3573

> <Gold.Chemscore.Internal.Correction.Weighted>
   9.000000E+99

> <Gold.Protein.RotatedTorsions>
[ 6907 6896 6895 6894 ] final  -52.32 input  -60.11 | X-H torsion
[ 7974 7965 7964 7962 ] final   50.56 input  175.53 | X-H torsion
[ 8008 7997 7996 7995 ] final  131.95 input   59.86 | X-H torsion
[ 10167 10162 10161 10158 ] final -174.68 input  -65.29 | X-H torsion
[ 10718 10713 10712 10709 ] final  143.97 input   66.30 | X-H torsion
[ 10763 10752 10751 10750 ] final  -63.96 input  -60.55 | X-H torsion
[ 11005 11000 10999 10996 ] final   11.61 input  -57.11 | X-H torsion

> <Gold.Protein.ActiveResidues>
 VAL166  LYS551  ARG553  GLY616  TRP617  ASP618  TYR619  PRO620  LYS621  CYS622 
 ASP623  PHE694  ASN695  SER759  ASP760  ASP761  ALA762  ILE779  LEU786  VAL792 
 PHE793  MET794  SER795  GLU796  ALA797  LYS798  CYS799  TRP800  GLU811  SER814 

> <Gold.Protein.RotatedAtoms>
  150.8529  134.7859  159.7022 H   0  0  0  0  0  0  0  0  0  0  0  0  # atno 6907 bound_to 6896
  152.4589  134.5226  159.9797 H   0  0  0  0  0  0  0  0  0  0  0  0  # atno 6908 bound_to 6896
  151.5344  133.3405  159.2959 H   0  0  0  0  0  0  0  0  0  0  0  0  # atno 6909 bound_to 6896
  146.0000  139.4429  143.0021 H   0  0  0  0  0  0  0  0  0  0  0  0  # atno 7974 bound_to 7965
  156.2977  140.2558  156.3010 H   0  0  0  0  0  0  0  0  0  0  0  0  # atno 8008 bound_to 7997
  154.9418  140.0396  157.2119 H   0  0  0  0  0  0  0  0  0  0  0  0  # atno 8009 bound_to 7997
  154.8119  140.2846  155.5851 H   0  0  0  0  0  0  0  0  0  0  0  0  # atno 8010 bound_to 7997
  139.5621  144.1845  152.1255 H   0  0  0  0  0  0  0  0  0  0  0  0  # atno 10167 bound_to 10162
  157.3627  131.0967  151.0900 H   0  0  0  0  0  0  0  0  0  0  0  0  # atno 10718 bound_to 10713
  154.3229  135.6192  153.5516 H   0  0  0  0  0  0  0  0  0  0  0  0  # atno 10763 bound_to 10752
  152.9818  135.5728  154.5050 H   0  0  0  0  0  0  0  0  0  0  0  0  # atno 10764 bound_to 10752
  154.4721  135.2860  155.1611 H   0  0  0  0  0  0  0  0  0  0  0  0  # atno 10765 bound_to 10752
  140.5013  134.0743  155.7794 H   0  0  0  0  0  0  0  0  0  0  0  0  # atno 11005 bound_to 11000
  145.7502  140.9975  143.1254 LP  0  0  0  0  0  0  0  0  0  0  0  0  # atno 17320 bound_to 7965
  144.6916  139.9205  143.7467 LP  0  0  0  0  0  0  0  0  0  0  0  0  # atno 17321 bound_to 7965
  140.1360  144.5245  150.6773 LP  0  0  0  0  0  0  0  0  0  0  0  0  # atno 17342 bound_to 10162
  140.6901  143.2371  151.5153 LP  0  0  0  0  0  0  0  0  0  0  0  0  # atno 17343 bound_to 10162
  157.2034  130.6405  149.5747 LP  0  0  0  0  0  0  0  0  0  0  0  0  # atno 17370 bound_to 10713
  155.9740  130.4683  150.6356 LP  0  0  0  0  0  0  0  0  0  0  0  0  # atno 17371 bound_to 10713
  141.1434  133.9098  157.2273 LP  0  0  0  0  0  0  0  0  0  0  0  0  # atno 17394 bound_to 11000
  139.9712  135.0128  156.9516 LP  0  0  0  0  0  0  0  0  0  0  0  0  # atno 17395 bound_to 11000

$$$$
