AV-unprocessed.smi:2320|AV-procd|sdf|9279|dock3
  -GOLD-   2272012503D 1   1.00000     0.00000
 Structure written by MMmdl.
 41 42  0  0  0  0  0  0  0  0  1 V2000
  151.7912  145.1013  160.1080 C   0  0  0  0  0  0  0  0  0  0  0  0
  151.8948  143.8133  159.3174 C   0  0  0  0  0  0  0  0  0  0  0  0
  152.6535  142.7326  159.8090 C   0  0  0  0  0  0  0  0  0  0  0  0
  152.7467  141.5399  159.0664 C   0  0  0  0  0  0  0  0  0  0  0  0
  152.0877  141.4066  157.8269 C   0  0  0  0  0  0  0  0  0  0  0  0
  152.2342  140.2052  157.1674 O   0  0  0  0  0  0  0  0  0  0  0  0
  151.8299  140.1286  155.8052 C   0  0  0  0  0  0  0  0  0  0  0  0
  151.6454  138.6583  155.3922 C   0  0  2  0  0  0  0  0  0  0  0  0
  152.9266  138.1128  155.1480 O   0  0  0  0  0  0  0  0  0  0  0  0
  150.7386  138.4884  154.1525 C   0  0  0  0  0  0  0  0  0  0  0  0
  149.3452  138.8810  154.4218 N   0  0  0  0  0  0  0  0  0  0  0  0
  148.4865  137.8622  154.8658 C   0  0  0  0  0  0  0  0  0  0  0  0
  147.2424  138.0911  155.1325 N   0  0  0  0  0  0  0  0  0  0  0  0
  146.7221  139.3797  154.9809 C   0  0  0  0  0  0  0  0  0  0  0  0
  145.2505  139.5371  155.3197 C   0  0  0  0  0  0  0  0  0  0  0  0
  147.5021  140.4116  154.5574 C   0  0  0  0  0  0  0  0  0  0  0  0
  146.9912  141.8354  154.3753 C   0  0  0  0  0  0  0  0  0  0  0  0
  148.9220  140.1676  154.2559 C   0  0  0  0  0  0  0  0  0  0  0  0
  149.6884  141.0570  153.8810 O   0  0  0  0  0  0  0  0  0  0  0  0
  151.3262  142.4980  157.3379 C   0  0  0  0  0  0  0  0  0  0  0  0
  151.2329  143.6916  158.0798 C   0  0  0  0  0  0  0  0  0  0  0  0
  152.1424  144.9671  161.1314 H   0  0  0  0  0  0  0  0  0  0  0  0
  150.7563  145.4423  160.1475 H   0  0  0  0  0  0  0  0  0  0  0  0
  152.3924  145.8801  159.6386 H   0  0  0  0  0  0  0  0  0  0  0  0
  153.1670  142.8132  160.7558 H   0  0  0  0  0  0  0  0  0  0  0  0
  153.3311  140.7177  159.4525 H   0  0  0  0  0  0  0  0  0  0  0  0
  150.9106  140.6918  155.6344 H   0  0  0  0  0  0  0  0  0  0  0  0
  152.6083  140.5684  155.1796 H   0  0  0  0  0  0  0  0  0  0  0  0
  151.2247  138.1261  156.2462 H   0  0  0  0  0  0  0  0  0  0  0  0
  153.5782  138.7280  155.4471 H   0  0  0  0  0  0  0  0  0  0  0  0
  151.1190  139.1120  153.3413 H   0  0  0  0  0  0  0  0  0  0  0  0
  150.8115  137.4706  153.7631 H   0  0  0  0  0  0  0  0  0  0  0  0
  148.9419  136.8761  154.9717 H   0  0  0  0  0  0  0  0  0  0  0  0
  144.6906  139.8692  154.4452 H   0  0  0  0  0  0  0  0  0  0  0  0
  145.1179  140.2677  156.1180 H   0  0  0  0  0  0  0  0  0  0  0  0
  144.8173  138.5941  155.6555 H   0  0  0  0  0  0  0  0  0  0  0  0
  147.5179  142.5121  155.0488 H   0  0  0  0  0  0  0  0  0  0  0  0
  145.9257  141.9379  154.5729 H   0  0  0  0  0  0  0  0  0  0  0  0
  147.1668  142.1710  153.3528 H   0  0  0  0  0  0  0  0  0  0  0  0
  150.8039  142.4457  156.3949 H   0  0  0  0  0  0  0  0  0  0  0  0
  150.6503  144.5158  157.6948 H   0  0  0  0  0  0  0  0  0  0  0  0
  1  2  1  0  0  0  0
  1 22  1  0  0  0  0
  1 23  1  0  0  0  0
  1 24  1  0  0  0  0
  2 21  1  0  0  0  0
  2  3  2  0  0  0  0
  3  4  1  0  0  0  0
  3 25  1  0  0  0  0
  4  5  2  0  0  0  0
  4 26  1  0  0  0  0
  5  6  1  0  0  0  0
  5 20  1  0  0  0  0
  6  7  1  0  0  0  0
  7  8  1  0  0  0  0
  7 27  1  0  0  0  0
  7 28  1  0  0  0  0
  8  9  1  0  0  0  0
  8 10  1  0  0  0  0
  8 29  1  0  0  0  0
  9 30  1  0  0  0  0
 10 11  1  0  0  0  0
 10 31  1  0  0  0  0
 10 32  1  0  0  0  0
 11 18  1  0  0  0  0
 11 12  1  0  0  0  0
 12 13  2  0  0  0  0
 12 33  1  0  0  0  0
 13 14  1  0  0  0  0
 14 15  1  0  0  0  0
 14 16  2  0  0  0  0
 15 34  1  0  0  0  0
 15 35  1  0  0  0  0
 15 36  1  0  0  0  0
 16 17  1  0  0  0  0
 16 18  1  0  0  0  0
 17 37  1  0  0  0  0
 17 38  1  0  0  0  0
 17 39  1  0  0  0  0
 18 19  2  0  0  0  0
 20 21  2  0  0  0  0
 20 40  1  0  0  0  0
 21 41  1  0  0  0  0
M  END
> <s_m_source_file>
AV-unprocessed.smi

> <i_m_source_file_index>
2320

> <i_lp_mmshare_version>
43012

> <i_f3d_flags>
0

> <s_epik_input>
W0NIM11jMVtjSF1bY0hdYyhbY0hdW2NIXTEpT1tDSDJdW0NASF0oW09IXSlbQ0gyXW4yW2NIXW5jKFtDSDNdKWMoW0NIM10pYzI9Tw==

> <s_epik_cmdline>
J2VwaWtfcHl0aG9uJywgJy1waCcsICc3LjAnLCAnLXRuJywgJzgnLCAnLW1hJywgJzIwMCcsICctbWV0YWxfYmluZGluZycsICctaW1hZScsICc8aW5maWxlLm1hZT4nLCAnLW9tYWUnLCAnPG91dGZpbGUubWFlPic=

> <r_lp_tautomer_probability>
1

> <r_epik_Ionization_Penalty>
3.74127e-05

> <r_epik_Ionization_Penalty_Charging>
8.43242e-08

> <r_epik_Ionization_Penalty_Neutral>
3.73284e-05

> <r_epik_State_Penalty>
-0

> <r_epik_Charging_Adjusted_Penalty>
8.43242e-08

> <i_epik_Tot_Q>
0

> <i_epik_Tot_abs_Q>
0

> <r_epik_Metal_State_Penalty>
-0

> <b_epik_Metal_Only>
0

> <s_lp_Force_Field>
OPLS_2005

> <r_lp_Energy>
24.611

> <b_lp_Chiralities_Consistent>
1

> <s_lp_Variant>
AV-unprocessed.smi:2320-1

> <Gold.Version>
5.8.1

> <Gold.Id.Protein>
6NUR|6NUR_protein|mol2

> <Gold.PLP.Fitness>
44.7084

> <Gold.PLP.PLP>
-40.8052

> <Gold.PLP.part.hbond>
-3.5774

> <Gold.PLP.part.metal>
0.0000

> <Gold.PLP.part.buried>
-4.3975

> <Gold.PLP.part.nonpolar>
-33.3073

> <Gold.PLP.part.repulsive>
1.7064

> <Gold.PLP.ligand.clash>
0.0000

> <Gold.PLP.ligand.torsion>
0.8128

> <Gold.PLP.Chemscore.Hbond>
1.8098

> <Gold.PLP.Chemscore.CHOScore>
0.0000

> <Gold.PLP.Chemscore.Metal>
0.0000

> <Gold.Chemscore.Hbonds>
donor molecule, donor type, donor heavy atom, donor atom, acceptor molecule, acceptor atom, score
      P1  H  7989  7998       L1    19  0.38
      P1  H  7997  8009       L1     6  0.41
      P1  H  8011  8017       L1    19  0.82

> <Gold.PLP.Chemscore.Internal.Correction>
0.0994

> <Gold.Rescore>
     Score         DG    S(hbond)    S(metal)    S(lipo)     H(rot)  DE(clash)    DE(int)     intcor
     14.60     -15.87       1.10        0.00     108.69       2.35       0.46       0.81       ----

> <Gold.Chemscore.Fitness>
14.5959

> <Gold.Chemscore.DG>
-15.8686

> <Gold.Chemscore.ZeroCoef>
-5.4800

> <Gold.Chemscore.Hbond>
1.1033

> <Gold.Chemscore.Metal>
0.0000

> <Gold.Chemscore.Lipo>
108.6947

> <Gold.Chemscore.Internal_Hbond>
0.0000

> <Gold.Chemscore.DEClash>
0.4628

> <Gold.Chemscore.DEInternal>
0.8099

> <Gold.Chemscore.Rot>
2.3490

> <Gold.Chemscore.Internal.Correction>
   9.000000E+99

> <Gold.Chemscore.Hbonds>
donor molecule, donor type, donor heavy atom, donor atom, acceptor molecule, acceptor atom, score
      P1  H  7989  7998       L1    19  0.37
      P1  H  7997  8009       L1     6  0.03
      P1  H  8011  8017       L1    19  0.77

> <Gold.Chemscore.Hbond.Weighted>
-3.6849

> <Gold.Chemscore.Metal.Weighted>
-0.0000

> <Gold.Chemscore.Lipo.Weighted>
-12.7173

> <Gold.Chemscore.Internal_Hbond.Weighted>
0.0000

> <Gold.Chemscore.DEClash.Weighted>
0.4628

> <Gold.Chemscore.DEInternal.Weighted>
0.8099

> <Gold.Chemscore.Rot.Weighted>
6.0136

> <Gold.Chemscore.Internal.Correction.Weighted>
   9.000000E+99

> <Gold.Protein.RotatedTorsions>
[ 6907 6896 6895 6894 ] final    4.78 input  -60.11 | X-H torsion
[ 7974 7965 7964 7962 ] final -117.43 input  175.53 | X-H torsion
[ 8008 7997 7996 7995 ] final  172.00 input   59.86 | X-H torsion
[ 10167 10162 10161 10158 ] final  -15.98 input  -65.29 | X-H torsion
[ 10718 10713 10712 10709 ] final -125.28 input   66.30 | X-H torsion
[ 10763 10752 10751 10750 ] final  138.08 input  -60.55 | X-H torsion
[ 11005 11000 10999 10996 ] final  178.80 input  -57.11 | X-H torsion

> <Gold.Protein.ActiveResidues>
 VAL166  LYS551  ARG553  GLY616  TRP617  ASP618  TYR619  PRO620  LYS621  CYS622 
 ASP623  PHE694  ASN695  SER759  ASP760  ASP761  ALA762  ILE779  LEU786  VAL792 
 PHE793  MET794  SER795  GLU796  ALA797  LYS798  CYS799  TRP800  GLU811  SER814 

> <Gold.Protein.RotatedAtoms>
  151.6468  135.1006  160.0152 H   0  0  0  0  0  0  0  0  0  0  0  0  # atno 6907 bound_to 6896
  152.4023  133.6832  159.6335 H   0  0  0  0  0  0  0  0  0  0  0  0  # atno 6908 bound_to 6896
  150.7921  133.8686  159.3293 H   0  0  0  0  0  0  0  0  0  0  0  0  # atno 6909 bound_to 6896
  145.0853  140.8453  143.4015 H   0  0  0  0  0  0  0  0  0  0  0  0  # atno 7974 bound_to 7965
  156.1217  140.1497  156.9195 H   0  0  0  0  0  0  0  0  0  0  0  0  # atno 8008 bound_to 7997
  154.4841  140.0870  156.7487 H   0  0  0  0  0  0  0  0  0  0  0  0  # atno 8009 bound_to 7997
  155.4416  140.3431  155.4293 H   0  0  0  0  0  0  0  0  0  0  0  0  # atno 8010 bound_to 7997
  140.7227  143.5162  150.9689 H   0  0  0  0  0  0  0  0  0  0  0  0  # atno 10167 bound_to 10162
  156.1661  130.6635  151.0117 H   0  0  0  0  0  0  0  0  0  0  0  0  # atno 10718 bound_to 10713
  153.8837  135.3041  155.3446 H   0  0  0  0  0  0  0  0  0  0  0  0  # atno 10763 bound_to 10752
  154.7749  135.4866  153.9727 H   0  0  0  0  0  0  0  0  0  0  0  0  # atno 10764 bound_to 10752
  153.1337  135.6809  153.9235 H   0  0  0  0  0  0  0  0  0  0  0  0  # atno 10765 bound_to 10752
  140.3991  134.6794  157.4551 H   0  0  0  0  0  0  0  0  0  0  0  0  # atno 11005 bound_to 11000
  145.1130  139.2744  143.5628 LP  0  0  0  0  0  0  0  0  0  0  0  0  # atno 17320 bound_to 7965
  146.3531  140.0731  142.8622 LP  0  0  0  0  0  0  0  0  0  0  0  0  # atno 17321 bound_to 7965
  139.8878  143.6991  152.3149 LP  0  0  0  0  0  0  0  0  0  0  0  0  # atno 17342 bound_to 10162
  139.7296  144.7585  151.0823 LP  0  0  0  0  0  0  0  0  0  0  0  0  # atno 17343 bound_to 10162
  157.6769  131.0848  150.7472 LP  0  0  0  0  0  0  0  0  0  0  0  0  # atno 17370 bound_to 10713
  156.7532  130.4775  149.5452 LP  0  0  0  0  0  0  0  0  0  0  0  0  # atno 17371 bound_to 10713
  140.0350  134.6351  155.9056 LP  0  0  0  0  0  0  0  0  0  0  0  0  # atno 17394 bound_to 11000
  141.1863  133.6557  156.5235 LP  0  0  0  0  0  0  0  0  0  0  0  0  # atno 17395 bound_to 11000

$$$$
