AV-unprocessed.smi:1163|AV-procd|sdf|4924|dock3
  -GOLD-   22720 3503D 1   1.00000     0.00000
 Structure written by MMmdl.
 40 41  0  0  0  0  0  0  0  0  2 V2000
  151.2011  141.7038  158.1625 C   0  0  0  0  0  0  0  0  0  0  0  0
  151.4854  141.4316  156.7946 O   0  0  0  0  0  0  0  0  0  0  0  0
  150.9514  140.2920  156.2289 C   0  0  0  0  0  0  0  0  0  0  0  0
  150.4665  139.2801  157.0805 C   0  0  0  0  0  0  0  0  0  0  0  0
  149.9186  138.1141  156.5124 C   0  0  0  0  0  0  0  0  0  0  0  0
  149.8766  137.9933  155.1020 C   0  0  0  0  0  0  0  0  0  0  0  0
  149.3433  136.8806  154.3938 N   0  0  0  0  0  0  0  0  0  0  0  0
  148.8000  135.7466  154.8695 C   0  0  0  0  0  0  0  0  0  0  0  0
  148.6800  135.4499  156.0571 O   0  0  0  0  0  0  0  0  0  0  0  0
  148.3990  134.9472  153.8711 N   0  0  0  0  0  0  0  0  0  0  0  0
  147.7570  133.6501  154.0544 C   0  0  2  0  0  0  0  0  0  0  0  0
  148.6808  132.5420  154.5487 C   0  0  0  0  0  0  0  0  0  0  0  0
  147.8990  131.2807  154.1702 C   0  0  0  0  0  0  0  0  0  0  0  0
  147.1208  131.6135  152.9492 N   0  3  1  0  0  0  0  0  0  0  0  0
  145.7242  131.1093  152.9405 C   0  0  0  0  0  0  0  0  0  0  0  0
  145.6434  129.5787  152.7961 C   0  0  0  0  0  0  0  0  0  0  0  0
  146.5778  129.1747  151.9369 F   0  0  0  0  0  0  0  0  0  0  0  0
  145.8663  128.9964  153.9741 F   0  0  0  0  0  0  0  0  0  0  0  0
  144.4533  129.1951  152.3350 F   0  0  0  0  0  0  0  0  0  0  0  0
  147.2395  133.0753  152.7360 C   0  0  0  0  0  0  0  0  0  0  0  0
  150.3832  139.0671  154.3402 C   0  0  0  0  0  0  0  0  0  0  0  0
  150.9092  140.1873  154.8780 N   0  0  0  0  0  0  0  0  0  0  0  0
  151.6917  142.6321  158.4547 H   0  0  0  0  0  0  0  0  0  0  0  0
  151.5767  140.9121  158.8125 H   0  0  0  0  0  0  0  0  0  0  0  0
  150.1304  141.8283  158.3310 H   0  0  0  0  0  0  0  0  0  0  0  0
  150.5107  139.3974  158.1533 H   0  0  0  0  0  0  0  0  0  0  0  0
  149.5395  137.3517  157.1735 H   0  0  0  0  0  0  0  0  0  0  0  0
  149.4014  136.9514  153.3885 H   0  0  0  0  0  0  0  0  0  0  0  0
  148.5383  135.2627  152.9221 H   0  0  0  0  0  0  0  0  0  0  0  0
  146.9177  133.7549  154.7455 H   0  0  0  0  0  0  0  0  0  0  0  0
  149.6315  132.5698  154.0138 H   0  0  0  0  0  0  0  0  0  0  0  0
  148.8893  132.6036  155.6172 H   0  0  0  0  0  0  0  0  0  0  0  0
  148.5533  130.4248  154.0021 H   0  0  0  0  0  0  0  0  0  0  0  0
  147.2254  131.0266  154.9901 H   0  0  0  0  0  0  0  0  0  0  0  0
  145.1960  131.4456  153.8340 H   0  0  0  0  0  0  0  0  0  0  0  0
  145.2048  131.5524  152.0895 H   0  0  0  0  0  0  0  0  0  0  0  0
  146.3057  133.5456  152.4243 H   0  0  0  0  0  0  0  0  0  0  0  0
  147.9676  133.2360  151.9392 H   0  0  0  0  0  0  0  0  0  0  0  0
  150.3676  139.0275  153.2608 H   0  0  0  0  0  0  0  0  0  0  0  0
  147.5873  131.1791  152.1655 H   0  0  0  0  0  0  0  0  0  0  0  0
  1  2  1  0  0  0  0
  1 23  1  0  0  0  0
  1 24  1  0  0  0  0
  1 25  1  0  0  0  0
  2  3  1  0  0  0  0
  3 22  1  0  0  0  0
  3  4  2  0  0  0  0
  4  5  1  0  0  0  0
  4 26  1  0  0  0  0
  5  6  2  0  0  0  0
  5 27  1  0  0  0  0
  6  7  1  0  0  0  0
  6 21  1  0  0  0  0
  7  8  1  0  0  0  0
  7 28  1  0  0  0  0
  8  9  2  0  0  0  0
  8 10  1  0  0  0  0
 10 11  1  0  0  0  0
 10 29  1  0  0  0  0
 11 20  1  0  0  0  0
 11 12  1  0  0  0  0
 11 30  1  0  0  0  0
 12 13  1  0  0  0  0
 12 31  1  0  0  0  0
 12 32  1  0  0  0  0
 13 14  1  0  0  0  0
 13 33  1  0  0  0  0
 13 34  1  0  0  0  0
 14 15  1  0  0  0  0
 14 20  1  0  0  0  0
 14 40  1  0  0  0  0
 15 16  1  0  0  0  0
 15 35  1  0  0  0  0
 15 36  1  0  0  0  0
 16 17  1  0  0  0  0
 16 18  1  0  0  0  0
 16 19  1  0  0  0  0
 20 37  1  0  0  0  0
 20 38  1  0  0  0  0
 21 22  2  0  0  0  0
 21 39  1  0  0  0  0
M  CHG  1  14   1
M  END
> <s_m_source_file>
AV-unprocessed.smi

> <i_m_source_file_index>
1163

> <i_lp_mmshare_version>
43012

> <i_f3d_flags>
0

> <s_epik_input>
W0NIM11PYzFbY0hdW2NIXWMoW2NIXW4xKVtOSF1DKD1PKVtOSF1bQ0BASF0yW0NIMl1bQ0gyXU4oW0NIMl0yKVtDSDJdQyhGKShGKUY=

> <s_epik_cmdline>
J2VwaWtfcHl0aG9uJywgJy1waCcsICc3LjAnLCAnLXRuJywgJzgnLCAnLW1hJywgJzIwMCcsICctbWV0YWxfYmluZGluZycsICctaW1hZScsICc8aW5maWxlLm1hZT4nLCAnLW9tYWUnLCAnPG91dGZpbGUubWFlPic=

> <r_lp_tautomer_probability>
1

> <r_epik_Ionization_Penalty>
1.12054

> <r_epik_Ionization_Penalty_Charging>
1.12047

> <r_epik_Ionization_Penalty_Neutral>
7.20346e-05

> <r_epik_State_Penalty>
1.17927

> <r_epik_Charging_Adjusted_Penalty>
2.29974

> <i_epik_Tot_Q>
1

> <i_epik_Tot_abs_Q>
1

> <r_epik_Metal_State_Penalty>
1.17928

> <b_epik_Metal_Only>
0

> <s_lp_Force_Field>
OPLS_2005

> <r_lp_Energy>
31.4883

> <b_lp_Chiralities_Consistent>
1

> <s_lp_Variant>
AV-unprocessed.smi:1163-5

> <Gold.Version>
5.8.1

> <Gold.Id.Protein>
6NUR|6NUR_protein|mol2

> <Gold.PLP.Fitness>
47.1918

> <Gold.PLP.PLP>
-33.1210

> <Gold.PLP.part.hbond>
-4.0000

> <Gold.PLP.part.metal>
0.0000

> <Gold.PLP.part.buried>
-1.0315

> <Gold.PLP.part.nonpolar>
-28.2224

> <Gold.PLP.part.repulsive>
0.1446

> <Gold.PLP.ligand.clash>
0.0000

> <Gold.PLP.ligand.torsion>
0.7126

> <Gold.PLP.Chemscore.Hbond>
4.0000

> <Gold.PLP.Chemscore.CHOScore>
1.0000

> <Gold.PLP.Chemscore.Metal>
0.0000

> <Gold.Chemscore.Hbonds>
donor molecule, donor type, donor heavy atom, donor atom, acceptor molecule, acceptor atom, score
      L1  H     7    28       P1  7948  0.94
      L1  H    10    29       P1  7948  0.84
      L1  H    14    40       P1 10747  0.16
      P1  H  7989  7998       L1    22  1.00
      L1  C    21    39       P1  7957  1.00

> <Gold.PLP.Chemscore.Internal.Correction>
0.4961

> <Gold.Rescore>
     Score         DG    S(hbond)    S(metal)    S(lipo)     H(rot)  DE(clash)    DE(int)     intcor
     11.24     -14.06       1.61        0.00      63.97       1.68       1.08       1.73       ----

> <Gold.Chemscore.Fitness>
11.2419

> <Gold.Chemscore.DG>
-14.0587

> <Gold.Chemscore.ZeroCoef>
-5.4800

> <Gold.Chemscore.Hbond>
1.6135

> <Gold.Chemscore.Metal>
0.0000

> <Gold.Chemscore.Lipo>
63.9727

> <Gold.Chemscore.Internal_Hbond>
0.0000

> <Gold.Chemscore.DEClash>
1.0830

> <Gold.Chemscore.DEInternal>
1.7339

> <Gold.Chemscore.Rot>
1.6778

> <Gold.Chemscore.Internal.Correction>
   9.000000E+99

> <Gold.Chemscore.Hbonds>
donor molecule, donor type, donor heavy atom, donor atom, acceptor molecule, acceptor atom, score
      L1  H     7    28       P1  7948  0.84
      L1  H    10    29       P1  7948  0.67
      L1  H    14    40       P1 10747  0.18
      P1  H  7989  7998       L1    22  0.26

> <Gold.Chemscore.Hbond.Weighted>
-5.3890

> <Gold.Chemscore.Metal.Weighted>
-0.0000

> <Gold.Chemscore.Lipo.Weighted>
-7.4848

> <Gold.Chemscore.Internal_Hbond.Weighted>
0.0000

> <Gold.Chemscore.DEClash.Weighted>
1.0830

> <Gold.Chemscore.DEInternal.Weighted>
1.7339

> <Gold.Chemscore.Rot.Weighted>
4.2951

> <Gold.Chemscore.Internal.Correction.Weighted>
   9.000000E+99

> <Gold.Protein.RotatedTorsions>
[ 6907 6896 6895 6894 ] final  -14.14 input  -60.11 | X-H torsion
[ 7974 7965 7964 7962 ] final -120.19 input  175.53 | X-H torsion
[ 8008 7997 7996 7995 ] final   26.36 input   59.86 | X-H torsion
[ 10167 10162 10161 10158 ] final   39.60 input  -65.29 | X-H torsion
[ 10718 10713 10712 10709 ] final   23.83 input   66.30 | X-H torsion
[ 10763 10752 10751 10750 ] final  -22.15 input  -60.55 | X-H torsion
[ 11005 11000 10999 10996 ] final  135.32 input  -57.11 | X-H torsion

> <Gold.Protein.ActiveResidues>
 VAL166  LYS551  ARG553  GLY616  TRP617  ASP618  TYR619  PRO620  LYS621  CYS622 
 ASP623  PHE694  ASN695  SER759  ASP760  ASP761  ALA762  ILE779  LEU786  VAL792 
 PHE793  MET794  SER795  GLU796  ALA797  LYS798  CYS799  TRP800  GLU811  SER814 

> <Gold.Protein.RotatedAtoms>
  151.3440  135.0870  159.9380 H   0  0  0  0  0  0  0  0  0  0  0  0  # atno 6907 bound_to 6896
  152.5204  133.9419  159.7640 H   0  0  0  0  0  0  0  0  0  0  0  0  # atno 6908 bound_to 6896
  150.9781  133.6220  159.2756 H   0  0  0  0  0  0  0  0  0  0  0  0  # atno 6909 bound_to 6896
  145.0541  140.8241  143.4191 H   0  0  0  0  0  0  0  0  0  0  0  0  # atno 7974 bound_to 7965
  155.0261  140.3153  155.4775 H   0  0  0  0  0  0  0  0  0  0  0  0  # atno 8008 bound_to 7997
  156.2883  140.2188  156.5323 H   0  0  0  0  0  0  0  0  0  0  0  0  # atno 8009 bound_to 7997
  154.7410  140.0473  157.0799 H   0  0  0  0  0  0  0  0  0  0  0  0  # atno 8010 bound_to 7997
  140.3824  144.1962  150.6130 H   0  0  0  0  0  0  0  0  0  0  0  0  # atno 10167 bound_to 10162
  157.1715  130.6761  149.6079 H   0  0  0  0  0  0  0  0  0  0  0  0  # atno 10718 bound_to 10713
  153.6474  135.6982  153.5220 H   0  0  0  0  0  0  0  0  0  0  0  0  # atno 10763 bound_to 10752
  153.2734  135.4208  155.1009 H   0  0  0  0  0  0  0  0  0  0  0  0  # atno 10764 bound_to 10752
  154.8485  135.3584  154.6018 H   0  0  0  0  0  0  0  0  0  0  0  0  # atno 10765 bound_to 10752
  139.9972  134.9493  156.9990 H   0  0  0  0  0  0  0  0  0  0  0  0  # atno 11005 bound_to 11000
  145.1490  139.2526  143.5451 LP  0  0  0  0  0  0  0  0  0  0  0  0  # atno 17320 bound_to 7965
  146.3520  140.1187  142.8601 LP  0  0  0  0  0  0  0  0  0  0  0  0  # atno 17321 bound_to 7965
  140.4924  143.2343  151.8799 LP  0  0  0  0  0  0  0  0  0  0  0  0  # atno 17342 bound_to 10162
  139.4794  144.5151  151.8879 LP  0  0  0  0  0  0  0  0  0  0  0  0  # atno 17343 bound_to 10162
  155.9738  130.4677  150.6335 LP  0  0  0  0  0  0  0  0  0  0  0  0  # atno 17370 bound_to 10713
  157.4039  131.0814  151.1283 LP  0  0  0  0  0  0  0  0  0  0  0  0  # atno 17371 bound_to 10713
  140.4796  134.1303  155.7215 LP  0  0  0  0  0  0  0  0  0  0  0  0  # atno 17394 bound_to 11000
  141.1613  133.8787  157.1839 LP  0  0  0  0  0  0  0  0  0  0  0  0  # atno 17395 bound_to 11000

$$$$
