AV-unprocessed.smi:2923|AV-procd|sdf|11214|dock8
  -GOLD-   2272016103D 1   1.00000     0.00000
 Structure written by MMmdl.
 46 48  0  0  0  0  0  0  0  0  1 V2000
  152.3028  140.4629  158.1814 C   0  0  0  0  0  0  0  0  0  0  0  0
  151.4541  141.0142  157.1368 N   0  0  0  0  0  0  0  0  0  0  0  0
  150.7179  142.2221  157.4769 C   0  0  0  0  0  0  0  0  0  0  0  0
  150.6600  140.0424  156.5142 C   0  0  0  0  0  0  0  0  0  0  0  0
  149.7180  139.2839  157.2456 C   0  0  0  0  0  0  0  0  0  0  0  0
  148.9499  138.3188  156.5667 C   0  0  0  0  0  0  0  0  0  0  0  0
  149.1530  138.1370  155.1780 C   0  0  0  0  0  0  0  0  0  0  0  0
  148.4325  137.2109  154.3764 N   0  0  0  0  0  0  0  0  0  0  0  0
  147.2424  136.6370  154.6224 C   0  0  0  0  0  0  0  0  0  0  0  0
  146.5535  136.8244  155.6248 O   0  0  0  0  0  0  0  0  0  0  0  0
  146.8978  135.8054  153.6312 N   0  0  0  0  0  0  0  0  0  0  0  0
  145.6670  135.0137  153.5784 C   0  0  2  0  0  0  0  0  0  0  0  0
  145.9279  133.4916  153.6387 C   0  0  2  0  0  0  0  0  0  0  0  0
  147.2717  132.9025  153.9931 C   0  0  0  0  0  0  0  0  0  0  0  0
  147.8851  132.6092  152.6208 C   0  0  0  0  0  0  0  0  0  0  0  0
  147.1742  133.4517  151.7158 O   0  0  0  0  0  0  0  0  0  0  0  0
  145.8079  133.4738  152.1234 C   0  0  2  0  0  0  0  0  0  0  0  0
  145.1157  134.8531  152.1373 C   0  0  0  0  0  0  0  0  0  0  0  0
  143.5877  134.7864  152.0553 C   0  0  0  0  0  0  0  0  0  0  0  0
  145.5612  135.8515  151.0599 C   0  0  0  0  0  0  0  0  0  0  0  0
  150.1088  138.9561  154.5421 C   0  0  0  0  0  0  0  0  0  0  0  0
  150.8500  139.8816  155.1870 N   0  0  0  0  0  0  0  0  0  0  0  0
  152.8172  139.5667  157.8320 H   0  0  0  0  0  0  0  0  0  0  0  0
  151.7167  140.2031  159.0637 H   0  0  0  0  0  0  0  0  0  0  0  0
  153.0588  141.1912  158.4754 H   0  0  0  0  0  0  0  0  0  0  0  0
  150.1250  142.5659  156.6283 H   0  0  0  0  0  0  0  0  0  0  0  0
  151.4098  143.0196  157.7488 H   0  0  0  0  0  0  0  0  0  0  0  0
  150.0478  142.0497  158.3200 H   0  0  0  0  0  0  0  0  0  0  0  0
  149.5815  139.4373  158.3061 H   0  0  0  0  0  0  0  0  0  0  0  0
  148.2175  137.7527  157.1205 H   0  0  0  0  0  0  0  0  0  0  0  0
  148.9088  136.9013  153.5418 H   0  0  0  0  0  0  0  0  0  0  0  0
  147.5276  135.7108  152.8478 H   0  0  0  0  0  0  0  0  0  0  0  0
  144.9007  135.3267  154.2901 H   0  0  0  0  0  0  0  0  0  0  0  0
  145.0871  132.9734  154.1026 H   0  0  0  0  0  0  0  0  0  0  0  0
  147.8881  133.5970  154.5636 H   0  0  0  0  0  0  0  0  0  0  0  0
  147.1788  131.9909  154.5841 H   0  0  0  0  0  0  0  0  0  0  0  0
  148.9575  132.8020  152.5890 H   0  0  0  0  0  0  0  0  0  0  0  0
  147.7169  131.5682  152.3411 H   0  0  0  0  0  0  0  0  0  0  0  0
  145.2208  132.6417  151.7319 H   0  0  0  0  0  0  0  0  0  0  0  0
  143.2537  134.4321  151.0796 H   0  0  0  0  0  0  0  0  0  0  0  0
  143.1353  135.7642  152.2240 H   0  0  0  0  0  0  0  0  0  0  0  0
  143.1732  134.1076  152.8013 H   0  0  0  0  0  0  0  0  0  0  0  0
  145.1783  135.5759  150.0769 H   0  0  0  0  0  0  0  0  0  0  0  0
  146.6461  135.9039  150.9679 H   0  0  0  0  0  0  0  0  0  0  0  0
  145.2071  136.8591  151.2802 H   0  0  0  0  0  0  0  0  0  0  0  0
  150.2904  138.8642  153.4811 H   0  0  0  0  0  0  0  0  0  0  0  0
  1  2  1  0  0  0  0
  1 23  1  0  0  0  0
  1 24  1  0  0  0  0
  1 25  1  0  0  0  0
  2  3  1  0  0  0  0
  2  4  1  0  0  0  0
  3 26  1  0  0  0  0
  3 27  1  0  0  0  0
  3 28  1  0  0  0  0
  4 22  1  0  0  0  0
  4  5  2  0  0  0  0
  5  6  1  0  0  0  0
  5 29  1  0  0  0  0
  6  7  2  0  0  0  0
  6 30  1  0  0  0  0
  7  8  1  0  0  0  0
  7 21  1  0  0  0  0
  8  9  1  0  0  0  0
  8 31  1  0  0  0  0
  9 10  2  0  0  0  0
  9 11  1  0  0  0  0
 11 12  1  0  0  0  0
 11 32  1  0  0  0  0
 12 18  1  0  0  0  0
 12 13  1  0  0  0  0
 12 33  1  0  0  0  0
 13 17  1  0  0  0  0
 13 14  1  0  0  0  0
 13 34  1  0  0  0  0
 14 15  1  0  0  0  0
 14 35  1  0  0  0  0
 14 36  1  0  0  0  0
 15 16  1  0  0  0  0
 15 37  1  0  0  0  0
 15 38  1  0  0  0  0
 16 17  1  0  0  0  0
 17 18  1  0  0  0  0
 17 39  1  0  0  0  0
 18 19  1  0  0  0  0
 18 20  1  0  0  0  0
 19 40  1  0  0  0  0
 19 41  1  0  0  0  0
 19 42  1  0  0  0  0
 20 43  1  0  0  0  0
 20 44  1  0  0  0  0
 20 45  1  0  0  0  0
 21 22  2  0  0  0  0
 21 46  1  0  0  0  0
M  END
> <s_m_source_file>
AV-unprocessed.smi

> <i_m_source_file_index>
2923

> <i_lp_mmshare_version>
43012

> <i_f3d_flags>
0

> <s_epik_input>
W0NIM11OKFtDSDNdKWMxW2NIXVtjSF1jKFtjSF1uMSlbTkhdQyg9TylbTkhdW0NASF0yQyhbQ0gzXSkoW0NIM10pW0NAQEhdKFtDQEhdMjMpT1tDSDJdW0NIMl0z

> <s_epik_cmdline>
J2VwaWtfcHl0aG9uJywgJy1waCcsICc3LjAnLCAnLXRuJywgJzgnLCAnLW1hJywgJzIwMCcsICctbWV0YWxfYmluZGluZycsICctaW1hZScsICc8aW5maWxlLm1hZT4nLCAnLW9tYWUnLCAnPG91dGZpbGUubWFlPic=

> <r_lp_tautomer_probability>
1

> <r_epik_Ionization_Penalty>
0.628785

> <r_epik_Ionization_Penalty_Charging>
0

> <r_epik_Ionization_Penalty_Neutral>
0.628785

> <r_epik_State_Penalty>
0.644286

> <r_epik_Charging_Adjusted_Penalty>
0.644286

> <i_epik_Tot_Q>
0

> <i_epik_Tot_abs_Q>
0

> <r_epik_Metal_State_Penalty>
0.308404

> <b_epik_Metal_Only>
0

> <s_lp_Force_Field>
OPLS_2005

> <r_lp_Energy>
44.9088

> <b_lp_Chiralities_Consistent>
1

> <s_lp_Variant>
AV-unprocessed.smi:2923-13

> <Gold.Version>
5.8.1

> <Gold.Id.Protein>
6NUR|6NUR_protein|mol2

> <Gold.PLP.Fitness>
39.2466

> <Gold.PLP.PLP>
-27.7680

> <Gold.PLP.part.hbond>
-3.0000

> <Gold.PLP.part.metal>
0.0000

> <Gold.PLP.part.buried>
-4.3426

> <Gold.PLP.part.nonpolar>
-21.1231

> <Gold.PLP.part.repulsive>
0.3149

> <Gold.PLP.ligand.clash>
0.0000

> <Gold.PLP.ligand.torsion>
0.4583

> <Gold.PLP.Chemscore.Hbond>
3.0000

> <Gold.PLP.Chemscore.CHOScore>
0.9994

> <Gold.PLP.Chemscore.Metal>
0.0000

> <Gold.Chemscore.Hbonds>
donor molecule, donor type, donor heavy atom, donor atom, acceptor molecule, acceptor atom, score
      L1  H     8    31       P1  7948  1.00
      L1  H    11    32       P1  7948  1.00
      P1  H  7989  7998       L1    22  0.73
      L1  C    21    46       P1  7957  0.64

> <Gold.PLP.Chemscore.Internal.Correction>
0.3967

> <Gold.Rescore>
     Score         DG    S(hbond)    S(metal)    S(lipo)     H(rot)  DE(clash)    DE(int)     intcor
     16.60     -18.14       2.56        0.00      61.10       1.19       0.19       1.35       ----

> <Gold.Chemscore.Fitness>
16.5954

> <Gold.Chemscore.DG>
-18.1381

> <Gold.Chemscore.ZeroCoef>
-5.4800

> <Gold.Chemscore.Hbond>
2.5644

> <Gold.Chemscore.Metal>
0.0000

> <Gold.Chemscore.Lipo>
61.1005

> <Gold.Chemscore.Internal_Hbond>
0.0000

> <Gold.Chemscore.DEClash>
0.1918

> <Gold.Chemscore.DEInternal>
1.3509

> <Gold.Chemscore.Rot>
1.1937

> <Gold.Chemscore.Internal.Correction>
   9.000000E+99

> <Gold.Chemscore.Hbonds>
donor molecule, donor type, donor heavy atom, donor atom, acceptor molecule, acceptor atom, score
      L1  H     8    31       P1  7948  0.98
      L1  H    11    32       P1  7948  0.98
      P1  H  7989  7998       L1    22  0.14

> <Gold.Chemscore.Hbond.Weighted>
-8.5653

> <Gold.Chemscore.Metal.Weighted>
-0.0000

> <Gold.Chemscore.Lipo.Weighted>
-7.1488

> <Gold.Chemscore.Internal_Hbond.Weighted>
0.0000

> <Gold.Chemscore.DEClash.Weighted>
0.1918

> <Gold.Chemscore.DEInternal.Weighted>
1.3509

> <Gold.Chemscore.Rot.Weighted>
3.0559

> <Gold.Chemscore.Internal.Correction.Weighted>
   9.000000E+99

> <Gold.Protein.RotatedTorsions>
[ 6907 6896 6895 6894 ] final   79.86 input  -60.11 | X-H torsion
[ 7974 7965 7964 7962 ] final   -0.74 input  175.53 | X-H torsion
[ 8008 7997 7996 7995 ] final  -26.03 input   59.86 | X-H torsion
[ 10167 10162 10161 10158 ] final -126.59 input  -65.29 | X-H torsion
[ 10718 10713 10712 10709 ] final  154.82 input   66.30 | X-H torsion
[ 10763 10752 10751 10750 ] final   57.74 input  -60.55 | X-H torsion
[ 11005 11000 10999 10996 ] final   46.67 input  -57.11 | X-H torsion

> <Gold.Protein.ActiveResidues>
 VAL166  LYS551  ARG553  GLY616  TRP617  ASP618  TYR619  PRO620  LYS621  CYS622 
 ASP623  PHE694  ASN695  SER759  ASP760  ASP761  ALA762  ILE779  LEU786  VAL792 
 PHE793  MET794  SER795  GLU796  ALA797  LYS798  CYS799  TRP800  GLU811  SER814 

> <Gold.Protein.RotatedAtoms>
  152.5214  134.3447  159.9229 H   0  0  0  0  0  0  0  0  0  0  0  0  # atno 6907 bound_to 6896
  151.3397  133.3961  159.2678 H   0  0  0  0  0  0  0  0  0  0  0  0  # atno 6908 bound_to 6896
  150.9813  134.9186  159.7904 H   0  0  0  0  0  0  0  0  0  0  0  0  # atno 6909 bound_to 6896
  146.2424  140.1315  142.8337 H   0  0  0  0  0  0  0  0  0  0  0  0  # atno 7974 bound_to 7965
  154.4446  140.1910  156.0711 H   0  0  0  0  0  0  0  0  0  0  0  0  # atno 8008 bound_to 7997
  156.0510  140.3308  155.7324 H   0  0  0  0  0  0  0  0  0  0  0  0  # atno 8009 bound_to 7997
  155.5557  140.0599  157.2831 H   0  0  0  0  0  0  0  0  0  0  0  0  # atno 8010 bound_to 7997
  139.9699  143.5857  152.2416 H   0  0  0  0  0  0  0  0  0  0  0  0  # atno 10167 bound_to 10162
  157.2265  131.0730  151.1880 H   0  0  0  0  0  0  0  0  0  0  0  0  # atno 10718 bound_to 10713
  152.9856  135.5631  154.5440 H   0  0  0  0  0  0  0  0  0  0  0  0  # atno 10763 bound_to 10752
  154.4889  135.2792  155.1514 H   0  0  0  0  0  0  0  0  0  0  0  0  # atno 10764 bound_to 10752
  154.2992  135.6311  153.5470 H   0  0  0  0  0  0  0  0  0  0  0  0  # atno 10765 bound_to 10752
  140.1348  134.4659  155.8494 H   0  0  0  0  0  0  0  0  0  0  0  0  # atno 11005 bound_to 11000
  145.0322  140.8880  143.5102 LP  0  0  0  0  0  0  0  0  0  0  0  0  # atno 17320 bound_to 7965
  145.1381  139.2589  143.5504 LP  0  0  0  0  0  0  0  0  0  0  0  0  # atno 17321 bound_to 7965
  139.6489  144.7660  151.2187 LP  0  0  0  0  0  0  0  0  0  0  0  0  # atno 17342 bound_to 10162
  140.7525  143.6193  150.8529 LP  0  0  0  0  0  0  0  0  0  0  0  0  # atno 17343 bound_to 10162
  157.3522  130.7088  149.6448 LP  0  0  0  0  0  0  0  0  0  0  0  0  # atno 17370 bound_to 10713
  155.9678  130.4249  150.4630 LP  0  0  0  0  0  0  0  0  0  0  0  0  # atno 17371 bound_to 10713
  141.2176  133.6810  156.7137 LP  0  0  0  0  0  0  0  0  0  0  0  0  # atno 17394 bound_to 11000
  140.2796  134.8327  157.3921 LP  0  0  0  0  0  0  0  0  0  0  0  0  # atno 17395 bound_to 11000

$$$$
