AV-unprocessed.smi:1005|AV-procd|sdf|4380|dock10
  -GOLD-   22720 2303D 1   1.00000     0.00000
 Structure written by MMmdl.
 58 60  0  0  0  0  0  0  0  0  4 V2000
  152.6022  143.4941  161.6317 C   0  0  0  0  0  0  0  0  0  0  0  0
  152.1557  142.9461  160.2869 C   0  0  0  0  0  0  0  0  0  0  0  0
  152.3690  141.5767  160.0113 C   0  0  0  0  0  0  0  0  0  0  0  0
  151.9528  141.1064  158.7715 C   0  0  0  0  0  0  0  0  0  0  0  0
  152.0219  139.8306  158.2082 N   0  3  0  0  0  0  0  0  0  0  0  0
  151.4861  139.8564  156.9567 C   0  0  0  0  0  0  0  0  0  0  0  0
  151.0678  141.1287  156.7146 N   0  0  0  0  0  0  0  0  0  0  0  0
  150.4423  141.6919  155.5093 C   0  0  0  0  0  0  0  0  0  0  0  0
  149.6056  140.6644  154.7207 C   0  0  2  0  0  0  0  0  0  0  0  0
  149.2297  141.2814  153.5063 O   0  0  0  0  0  0  0  0  0  0  0  0
  148.3334  140.2032  155.4655 C   0  0  0  0  0  0  0  0  0  0  0  0
  147.6433  139.0737  154.7855 N   0  3  2  0  0  0  0  0  0  0  0  0
  146.3291  138.7343  155.3826 C   0  0  0  0  0  0  0  0  0  0  0  0
  146.5010  137.9142  156.6723 C   0  0  0  0  0  0  0  0  0  0  0  0
  147.2499  136.7398  156.3841 O   0  0  0  0  0  0  0  0  0  0  0  0
  148.5652  137.0266  155.9194 C   0  0  1  0  0  0  0  0  0  0  0  0
  149.2872  135.6849  155.6897 C   0  0  0  0  0  0  0  0  0  0  0  0
  148.8619  135.0035  154.4394 N   0  3  0  0  0  0  0  0  0  0  0  0
  147.3944  134.8335  154.3283 C   0  0  0  0  0  0  0  0  0  0  0  0
  149.5711  133.7202  154.2380 C   0  0  0  0  0  0  0  0  0  0  0  0
  148.4679  137.8494  154.6132 C   0  0  0  0  0  0  0  0  0  0  0  0
  151.3447  141.9462  157.8179 C   0  0  0  0  0  0  0  0  0  0  0  0
  151.1284  143.2987  158.0738 C   0  0  0  0  0  0  0  0  0  0  0  0
  151.5421  143.7956  159.3303 C   0  0  0  0  0  0  0  0  0  0  0  0
  151.3176  145.2666  159.6371 C   0  0  0  0  0  0  0  0  0  0  0  0
  153.0427  142.7153  162.2549 H   0  0  0  0  0  0  0  0  0  0  0  0
  151.7562  143.9154  162.1751 H   0  0  0  0  0  0  0  0  0  0  0  0
  153.3511  144.2749  161.4969 H   0  0  0  0  0  0  0  0  0  0  0  0
  152.8397  140.9253  160.7333 H   0  0  0  0  0  0  0  0  0  0  0  0
  151.4140  139.0200  156.2760 H   0  0  0  0  0  0  0  0  0  0  0  0
  149.8469  142.5636  155.7818 H   0  0  0  0  0  0  0  0  0  0  0  0
  151.2535  142.0662  154.8829 H   0  0  0  0  0  0  0  0  0  0  0  0
  150.2427  139.8131  154.4825 H   0  0  0  0  0  0  0  0  0  0  0  0
  149.0892  140.6167  152.8498 H   0  0  0  0  0  0  0  0  0  0  0  0
  148.5681  139.9187  156.4899 H   0  0  0  0  0  0  0  0  0  0  0  0
  147.6566  141.0559  155.5397 H   0  0  0  0  0  0  0  0  0  0  0  0
  145.7431  139.6353  155.5681 H   0  0  0  0  0  0  0  0  0  0  0  0
  145.7639  138.1476  154.6570 H   0  0  0  0  0  0  0  0  0  0  0  0
  146.9917  138.4974  157.4530 H   0  0  0  0  0  0  0  0  0  0  0  0
  145.5256  137.6216  157.0613 H   0  0  0  0  0  0  0  0  0  0  0  0
  149.0982  137.6057  156.6725 H   0  0  0  0  0  0  0  0  0  0  0  0
  150.3605  135.8782  155.6474 H   0  0  0  0  0  0  0  0  0  0  0  0
  149.1312  135.0150  156.5366 H   0  0  0  0  0  0  0  0  0  0  0  0
  147.0081  134.2257  155.1474 H   0  0  0  0  0  0  0  0  0  0  0  0
  147.1363  134.3395  153.3909 H   0  0  0  0  0  0  0  0  0  0  0  0
  146.8753  135.7910  154.3380 H   0  0  0  0  0  0  0  0  0  0  0  0
  149.3340  133.0128  155.0337 H   0  0  0  0  0  0  0  0  0  0  0  0
  150.6511  133.8709  154.2236 H   0  0  0  0  0  0  0  0  0  0  0  0
  149.2909  133.2693  153.2851 H   0  0  0  0  0  0  0  0  0  0  0  0
  147.9995  137.2411  153.8379 H   0  0  0  0  0  0  0  0  0  0  0  0
  149.4613  138.0982  154.2418 H   0  0  0  0  0  0  0  0  0  0  0  0
  150.6655  143.9503  157.3478 H   0  0  0  0  0  0  0  0  0  0  0  0
  150.8285  145.7782  158.8075 H   0  0  0  0  0  0  0  0  0  0  0  0
  152.2678  145.7677  159.8236 H   0  0  0  0  0  0  0  0  0  0  0  0
  150.6858  145.3828  160.5181 H   0  0  0  0  0  0  0  0  0  0  0  0
  149.1487  135.5978  153.6740 H   0  0  0  0  0  0  0  0  0  0  0  0
  147.4366  139.4174  153.8582 H   0  0  0  0  0  0  0  0  0  0  0  0
  152.4179  139.0043  158.6386 H   0  0  0  0  0  0  0  0  0  0  0  0
  1  2  1  0  0  0  0
  1 26  1  0  0  0  0
  1 27  1  0  0  0  0
  1 28  1  0  0  0  0
  2 24  1  0  0  0  0
  2  3  2  0  0  0  0
  3  4  1  0  0  0  0
  3 29  1  0  0  0  0
  4 22  2  0  0  0  0
  4  5  1  0  0  0  0
  5  6  2  0  0  0  0
  5 58  1  0  0  0  0
  6  7  1  0  0  0  0
  6 30  1  0  0  0  0
  7  8  1  0  0  0  0
  7 22  1  0  0  0  0
  8  9  1  0  0  0  0
  8 31  1  0  0  0  0
  8 32  1  0  0  0  0
  9 10  1  0  0  0  0
  9 11  1  0  0  0  0
  9 33  1  0  0  0  0
 10 34  1  0  0  0  0
 11 12  1  0  0  0  0
 11 35  1  0  0  0  0
 11 36  1  0  0  0  0
 12 21  1  0  0  0  0
 12 13  1  0  0  0  0
 12 57  1  0  0  0  0
 13 14  1  0  0  0  0
 13 37  1  0  0  0  0
 13 38  1  0  0  0  0
 14 15  1  0  0  0  0
 14 39  1  0  0  0  0
 14 40  1  0  0  0  0
 15 16  1  0  0  0  0
 16 17  1  0  0  0  0
 16 21  1  0  0  0  0
 16 41  1  0  0  0  0
 17 18  1  0  0  0  0
 17 42  1  0  0  0  0
 17 43  1  0  0  0  0
 18 19  1  0  0  0  0
 18 20  1  0  0  0  0
 18 56  1  0  0  0  0
 19 44  1  0  0  0  0
 19 45  1  0  0  0  0
 19 46  1  0  0  0  0
 20 47  1  0  0  0  0
 20 48  1  0  0  0  0
 20 49  1  0  0  0  0
 21 50  1  0  0  0  0
 21 51  1  0  0  0  0
 22 23  1  0  0  0  0
 23 24  2  0  0  0  0
 23 52  1  0  0  0  0
 24 25  1  0  0  0  0
 25 53  1  0  0  0  0
 25 54  1  0  0  0  0
 25 55  1  0  0  0  0
M  CHG  1   5   1
M  CHG  1  12   1
M  CHG  1  18   1
M  END
> <s_m_source_file>
AV-unprocessed.smi

> <i_m_source_file_index>
1005

> <i_lp_mmshare_version>
43012

> <i_f3d_flags>
0

> <s_epik_input>
W0NIM11jKFtjSF0xKWMoW0NIM10pW2NIXWMoYzEyKW4oW2NIXW4yKVtDSDJdW0NASF0oW09IXSlbQ0gyXU4zW0NIMl1bQ0gyXU9bQ0BIXShbQ0gyXTMpW0NIMl1OKFtDSDNdKVtDSDNd

> <s_epik_cmdline>
J2VwaWtfcHl0aG9uJywgJy1waCcsICc3LjAnLCAnLXRuJywgJzgnLCAnLW1hJywgJzIwMCcsICctbWV0YWxfYmluZGluZycsICctaW1hZScsICc8aW5maWxlLm1hZT4nLCAnLW9tYWUnLCAnPG91dGZpbGUubWFlPic=

> <r_epik_Ionization_Penalty>
2.30802

> <r_epik_Ionization_Penalty_Charging>
2.30798

> <r_epik_Ionization_Penalty_Neutral>
3.4851e-05

> <r_epik_State_Penalty>
2.52618

> <r_epik_Charging_Adjusted_Penalty>
4.83416

> <i_epik_Tot_Q>
3

> <i_epik_Tot_abs_Q>
3

> <r_epik_Metal_State_Penalty>
6.53149

> <b_epik_Metal_Only>
0

> <s_lp_Force_Field>
OPLS_2005

> <r_lp_Energy>
52.3538

> <b_lp_Chiralities_Consistent>
1

> <s_lp_Variant>
AV-unprocessed.smi:1005-19

> <Gold.Version>
5.8.1

> <Gold.Id.Protein>
6NUR|6NUR_protein|mol2

> <Gold.PLP.Fitness>
51.8727

> <Gold.PLP.PLP>
-42.5862

> <Gold.PLP.part.hbond>
-4.0000

> <Gold.PLP.part.metal>
0.0000

> <Gold.PLP.part.buried>
-4.9520

> <Gold.PLP.part.nonpolar>
-32.7852

> <Gold.PLP.part.repulsive>
0.0883

> <Gold.PLP.ligand.clash>
0.0000

> <Gold.PLP.ligand.torsion>
0.6096

> <Gold.PLP.Chemscore.Hbond>
3.4560

> <Gold.PLP.Chemscore.CHOScore>
0.0000

> <Gold.PLP.Chemscore.Metal>
0.0000

> <Gold.Chemscore.Hbonds>
donor molecule, donor type, donor heavy atom, donor atom, acceptor molecule, acceptor atom, score
      L1  H    10    34       P1  7957  0.86
      L1  H    18    56       P1  7948  2.00
      P1  H  8011  8017       L1    10  0.58

> <Gold.PLP.Chemscore.Internal.Correction>
0.1377

> <Gold.Rescore>
     Score         DG    S(hbond)    S(metal)    S(lipo)     H(rot)  DE(clash)    DE(int)     intcor
     16.62     -18.72       1.96        0.00     113.07       2.56       0.18       1.92       ----

> <Gold.Chemscore.Fitness>
16.6213

> <Gold.Chemscore.DG>
-18.7225

> <Gold.Chemscore.ZeroCoef>
-5.4800

> <Gold.Chemscore.Hbond>
1.9634

> <Gold.Chemscore.Metal>
0.0000

> <Gold.Chemscore.Lipo>
113.0740

> <Gold.Chemscore.Internal_Hbond>
0.0000

> <Gold.Chemscore.DEClash>
0.1830

> <Gold.Chemscore.DEInternal>
1.9182

> <Gold.Chemscore.Rot>
2.5566

> <Gold.Chemscore.Internal.Correction>
   9.000000E+99

> <Gold.Chemscore.Hbonds>
donor molecule, donor type, donor heavy atom, donor atom, acceptor molecule, acceptor atom, score
      L1  H    10    34       P1  7957  0.85
      L1  H    18    56       P1  7948  0.63
      P1  H  8011  8017       L1    10  0.04

> <Gold.Chemscore.Hbond.Weighted>
-6.5578

> <Gold.Chemscore.Metal.Weighted>
-0.0000

> <Gold.Chemscore.Lipo.Weighted>
-13.2297

> <Gold.Chemscore.Internal_Hbond.Weighted>
0.0000

> <Gold.Chemscore.DEClash.Weighted>
0.1830

> <Gold.Chemscore.DEInternal.Weighted>
1.9182

> <Gold.Chemscore.Rot.Weighted>
6.5450

> <Gold.Chemscore.Internal.Correction.Weighted>
   9.000000E+99

> <Gold.Protein.RotatedTorsions>
[ 6907 6896 6895 6894 ] final  -31.21 input  -60.11 | X-H torsion
[ 7974 7965 7964 7962 ] final   35.78 input  175.53 | X-H torsion
[ 8008 7997 7996 7995 ] final -104.37 input   59.86 | X-H torsion
[ 10167 10162 10161 10158 ] final  -81.77 input  -65.29 | X-H torsion
[ 10718 10713 10712 10709 ] final   -1.09 input   66.30 | X-H torsion
[ 10763 10752 10751 10750 ] final  157.03 input  -60.55 | X-H torsion
[ 11005 11000 10999 10996 ] final    3.66 input  -57.11 | X-H torsion

> <Gold.Protein.ActiveResidues>
 VAL166  LYS551  ARG553  GLY616  TRP617  ASP618  TYR619  PRO620  LYS621  CYS622 
 ASP623  PHE694  ASN695  SER759  ASP760  ASP761  ALA762  ILE779  LEU786  VAL792 
 PHE793  MET794  SER795  GLU796  ALA797  LYS798  CYS799  TRP800  GLU811  SER814 

> <Gold.Protein.RotatedAtoms>
  151.0951  134.9939  159.8421 H   0  0  0  0  0  0  0  0  0  0  0  0  # atno 6907 bound_to 6896
  152.5432  134.2018  159.8725 H   0  0  0  0  0  0  0  0  0  0  0  0  # atno 6908 bound_to 6896
  151.2057  133.4541  159.2630 H   0  0  0  0  0  0  0  0  0  0  0  0  # atno 6909 bound_to 6896
  146.1259  139.6100  142.9259 H   0  0  0  0  0  0  0  0  0  0  0  0  # atno 7974 bound_to 7965
  154.8844  140.0418  157.1801 H   0  0  0  0  0  0  0  0  0  0  0  0  # atno 8008 bound_to 7997
  154.8605  140.2943  155.5521 H   0  0  0  0  0  0  0  0  0  0  0  0  # atno 8009 bound_to 7997
  156.2998  140.2448  156.3579 H   0  0  0  0  0  0  0  0  0  0  0  0  # atno 8010 bound_to 7997
  140.4381  143.2524  151.8665 H   0  0  0  0  0  0  0  0  0  0  0  0  # atno 10167 bound_to 10162
  156.8107  130.5423  149.5709 H   0  0  0  0  0  0  0  0  0  0  0  0  # atno 10718 bound_to 10713
  154.1938  135.2793  155.3013 H   0  0  0  0  0  0  0  0  0  0  0  0  # atno 10763 bound_to 10752
  154.5908  135.5560  153.7280 H   0  0  0  0  0  0  0  0  0  0  0  0  # atno 10764 bound_to 10752
  153.0105  135.6368  154.2076 H   0  0  0  0  0  0  0  0  0  0  0  0  # atno 10765 bound_to 10752
  140.5906  133.9927  155.8087 H   0  0  0  0  0  0  0  0  0  0  0  0  # atno 11005 bound_to 11000
  145.5367  141.0423  143.2353 LP  0  0  0  0  0  0  0  0  0  0  0  0  # atno 17320 bound_to 7965
  144.7642  139.6885  143.7222 LP  0  0  0  0  0  0  0  0  0  0  0  0  # atno 17321 bound_to 7965
  139.4788  144.5260  151.8734 LP  0  0  0  0  0  0  0  0  0  0  0  0  # atno 17342 bound_to 10162
  140.4350  144.2064  150.5889 LP  0  0  0  0  0  0  0  0  0  0  0  0  # atno 17343 bound_to 10162
  156.1046  130.5995  150.9949 LP  0  0  0  0  0  0  0  0  0  0  0  0  # atno 17370 bound_to 10713
  157.6507  131.0897  150.8057 LP  0  0  0  0  0  0  0  0  0  0  0  0  # atno 17371 bound_to 10713
  141.0937  133.9877  157.3195 LP  0  0  0  0  0  0  0  0  0  0  0  0  # atno 17394 bound_to 11000
  139.9276  135.0201  156.8287 LP  0  0  0  0  0  0  0  0  0  0  0  0  # atno 17395 bound_to 11000

$$$$
