AV-unprocessed.smi:1703|AV-procd|sdf|6858|dock4
  -GOLD-   22720 8 43D 1   1.00000     0.00000
 Structure written by MMmdl.
 48 50  0  0  0  0  0  0  0  0  1 V2000
  146.9221  138.9757  152.1500 C   0  0  0  0  0  0  0  0  0  0  0  0
  147.1391  139.7055  153.4796 C   0  0  1  0  0  0  0  0  0  0  0  0
  148.6065  139.6454  153.9406 C   0  0  0  0  0  0  0  0  0  0  0  0
  148.8280  140.4090  155.1623 N   0  0  0  0  0  0  0  0  0  0  0  0
  150.2208  140.2989  155.5982 C   0  0  0  0  0  0  0  0  0  0  0  0
  150.4771  140.6130  157.0889 C   0  0  1  0  0  0  0  0  0  0  0  0
  150.0617  139.5020  157.8560 O   0  0  0  0  0  0  0  0  0  0  0  0
  151.9613  140.8729  157.4191 C   0  0  0  0  0  0  0  0  0  0  0  0
  152.1640  141.4172  158.7555 N   0  0  0  0  0  0  0  0  0  0  0  0
  152.7906  140.8371  159.8103 C   0  0  0  0  0  0  0  0  0  0  0  0
  153.4062  139.4739  159.7261 C   0  0  0  0  0  0  0  0  0  0  0  0
  154.3960  139.3850  158.7236 O   0  0  0  0  0  0  0  0  0  0  0  0
  152.8357  141.5615  160.9290 N   0  0  0  0  0  0  0  0  0  0  0  0
  152.1859  142.7245  160.5645 C   0  0  0  0  0  0  0  0  0  0  0  0
  151.9072  143.8926  161.3095 C   0  0  0  0  0  0  0  0  0  0  0  0
  151.2187  144.9709  160.7160 C   0  0  0  0  0  0  0  0  0  0  0  0
  150.8000  144.8970  159.3718 C   0  0  0  0  0  0  0  0  0  0  0  0
  151.0685  143.7428  158.6112 C   0  0  0  0  0  0  0  0  0  0  0  0
  151.7555  142.6684  159.2086 C   0  0  0  0  0  0  0  0  0  0  0  0
  148.4177  141.7936  154.9331 C   0  0  0  0  0  0  0  0  0  0  0  0
  146.9615  141.9097  154.4390 C   0  0  2  0  0  0  0  0  0  0  0  0
  145.9222  141.6472  155.5424 C   0  0  0  0  0  0  0  0  0  0  0  0
  146.7533  141.0675  153.3043 O   0  0  0  0  0  0  0  0  0  0  0  0
  147.1941  137.9230  152.2306 H   0  0  0  0  0  0  0  0  0  0  0  0
  147.5233  139.4178  151.3550 H   0  0  0  0  0  0  0  0  0  0  0  0
  145.8767  139.0263  151.8445 H   0  0  0  0  0  0  0  0  0  0  0  0
  146.5010  139.2425  154.2329 H   0  0  0  0  0  0  0  0  0  0  0  0
  148.8867  138.6036  154.1018 H   0  0  0  0  0  0  0  0  0  0  0  0
  149.2550  140.0227  153.1478 H   0  0  0  0  0  0  0  0  0  0  0  0
  150.5808  139.2873  155.4036 H   0  0  0  0  0  0  0  0  0  0  0  0
  150.8296  140.9535  154.9743 H   0  0  0  0  0  0  0  0  0  0  0  0
  149.8954  141.4768  157.4048 H   0  0  0  0  0  0  0  0  0  0  0  0
  150.6998  139.3575  158.5383 H   0  0  0  0  0  0  0  0  0  0  0  0
  152.5377  139.9522  157.3245 H   0  0  0  0  0  0  0  0  0  0  0  0
  152.3902  141.5686  156.6967 H   0  0  0  0  0  0  0  0  0  0  0  0
  153.8598  139.2239  160.6857 H   0  0  0  0  0  0  0  0  0  0  0  0
  152.6357  138.7264  159.5419 H   0  0  0  0  0  0  0  0  0  0  0  0
  154.9081  138.6058  158.8761 H   0  0  0  0  0  0  0  0  0  0  0  0
  152.2242  143.9591  162.3397 H   0  0  0  0  0  0  0  0  0  0  0  0
  151.0112  145.8590  161.2948 H   0  0  0  0  0  0  0  0  0  0  0  0
  150.2726  145.7270  158.9247 H   0  0  0  0  0  0  0  0  0  0  0  0
  150.7472  143.6832  157.5820 H   0  0  0  0  0  0  0  0  0  0  0  0
  148.5253  142.3847  155.8412 H   0  0  0  0  0  0  0  0  0  0  0  0
  149.0774  142.2473  154.1916 H   0  0  0  0  0  0  0  0  0  0  0  0
  146.8062  142.9320  154.0934 H   0  0  0  0  0  0  0  0  0  0  0  0
  146.0175  142.3786  156.3452 H   0  0  0  0  0  0  0  0  0  0  0  0
  146.0372  140.6591  155.9879 H   0  0  0  0  0  0  0  0  0  0  0  0
  144.9086  141.7206  155.1477 H   0  0  0  0  0  0  0  0  0  0  0  0
  1  2  1  0  0  0  0
  1 24  1  0  0  0  0
  1 25  1  0  0  0  0
  1 26  1  0  0  0  0
  2 23  1  0  0  0  0
  2  3  1  0  0  0  0
  2 27  1  0  0  0  0
  3  4  1  0  0  0  0
  3 28  1  0  0  0  0
  3 29  1  0  0  0  0
  4  5  1  0  0  0  0
  4 20  1  0  0  0  0
  5  6  1  0  0  0  0
  5 30  1  0  0  0  0
  5 31  1  0  0  0  0
  6  7  1  0  0  0  0
  6  8  1  0  0  0  0
  6 32  1  0  0  0  0
  7 33  1  0  0  0  0
  8  9  1  0  0  0  0
  8 34  1  0  0  0  0
  8 35  1  0  0  0  0
  9 19  1  0  0  0  0
  9 10  1  0  0  0  0
 10 11  1  0  0  0  0
 10 13  2  0  0  0  0
 11 12  1  0  0  0  0
 11 36  1  0  0  0  0
 11 37  1  0  0  0  0
 12 38  1  0  0  0  0
 13 14  1  0  0  0  0
 14 19  2  0  0  0  0
 14 15  1  0  0  0  0
 15 16  2  0  0  0  0
 15 39  1  0  0  0  0
 16 17  1  0  0  0  0
 16 40  1  0  0  0  0
 17 18  2  0  0  0  0
 17 41  1  0  0  0  0
 18 19  1  0  0  0  0
 18 42  1  0  0  0  0
 20 21  1  0  0  0  0
 20 43  1  0  0  0  0
 20 44  1  0  0  0  0
 21 22  1  0  0  0  0
 21 23  1  0  0  0  0
 21 45  1  0  0  0  0
 22 46  1  0  0  0  0
 22 47  1  0  0  0  0
 22 48  1  0  0  0  0
M  END
> <s_m_source_file>
AV-unprocessed.smi

> <i_m_source_file_index>
1703

> <i_lp_mmshare_version>
43012

> <i_f3d_flags>
0

> <s_epik_input>
W0NIM11bQ0BASF0xW0NIMl1OKFtDSDJdW0NASF0oTzEpW0NIM10pW0NIMl1bQ0BIXShbT0hdKVtDSDJdbihjKG4yKVtDSDJdW09IXSljKGMyMylbY0hdW2NIXVtjSF1bY0hdMw==

> <s_epik_cmdline>
J2VwaWtfcHl0aG9uJywgJy1waCcsICc3LjAnLCAnLXRuJywgJzgnLCAnLW1hJywgJzIwMCcsICctbWV0YWxfYmluZGluZycsICctaW1hZScsICc8aW5maWxlLm1hZT4nLCAnLW9tYWUnLCAnPG91dGZpbGUubWFlPic=

> <r_epik_Ionization_Penalty>
0.307685

> <r_epik_Ionization_Penalty_Charging>
0

> <r_epik_Ionization_Penalty_Neutral>
0.307685

> <r_epik_State_Penalty>
0.277856

> <r_epik_Charging_Adjusted_Penalty>
0.277856

> <i_epik_Tot_Q>
0

> <i_epik_Tot_abs_Q>
0

> <r_epik_Metal_State_Penalty>
0.238959

> <b_epik_Metal_Only>
0

> <s_lp_Force_Field>
OPLS_2005

> <r_lp_Energy>
33.4596

> <b_lp_Chiralities_Consistent>
1

> <s_lp_Variant>
AV-unprocessed.smi:1703-6

> <Gold.Version>
5.8.1

> <Gold.Id.Protein>
6NUR|6NUR_protein|mol2

> <Gold.PLP.Fitness>
51.5311

> <Gold.PLP.PLP>
-49.3140

> <Gold.PLP.part.hbond>
-1.0000

> <Gold.PLP.part.metal>
0.0000

> <Gold.PLP.part.buried>
-4.0091

> <Gold.PLP.part.nonpolar>
-43.3365

> <Gold.PLP.part.repulsive>
0.2918

> <Gold.PLP.ligand.clash>
0.0000

> <Gold.PLP.ligand.torsion>
0.4246

> <Gold.PLP.Chemscore.Hbond>
1.0000

> <Gold.PLP.Chemscore.CHOScore>
0.0000

> <Gold.PLP.Chemscore.Metal>
0.0000

> <Gold.Chemscore.Hbonds>
donor molecule, donor type, donor heavy atom, donor atom, acceptor molecule, acceptor atom, score
      P1  H  7997  8010       L1    12  1.00

> <Gold.PLP.Chemscore.Internal.Correction>
0.0662

> <Gold.Rescore>
     Score         DG    S(hbond)    S(metal)    S(lipo)     H(rot)  DE(clash)    DE(int)     intcor
     16.17     -16.59       0.98        0.00     130.06       2.88       0.13       0.30       ----

> <Gold.Chemscore.Fitness>
16.1690

> <Gold.Chemscore.DG>
-16.5940

> <Gold.Chemscore.ZeroCoef>
-5.4800

> <Gold.Chemscore.Hbond>
0.9773

> <Gold.Chemscore.Metal>
0.0000

> <Gold.Chemscore.Lipo>
130.0599

> <Gold.Chemscore.Internal_Hbond>
0.0000

> <Gold.Chemscore.DEClash>
0.1284

> <Gold.Chemscore.DEInternal>
0.2966

> <Gold.Chemscore.Rot>
2.8778

> <Gold.Chemscore.Internal.Correction>
   9.000000E+99

> <Gold.Chemscore.Hbonds>
donor molecule, donor type, donor heavy atom, donor atom, acceptor molecule, acceptor atom, score
      P1  H  7997  8010       L1    12  0.30

> <Gold.Chemscore.Hbond.Weighted>
-3.2640

> <Gold.Chemscore.Metal.Weighted>
-0.0000

> <Gold.Chemscore.Lipo.Weighted>
-15.2170

> <Gold.Chemscore.Internal_Hbond.Weighted>
0.0000

> <Gold.Chemscore.DEClash.Weighted>
0.1284

> <Gold.Chemscore.DEInternal.Weighted>
0.2966

> <Gold.Chemscore.Rot.Weighted>
7.3671

> <Gold.Chemscore.Internal.Correction.Weighted>
   9.000000E+99

> <Gold.Protein.RotatedTorsions>
[ 6907 6896 6895 6894 ] final  158.75 input  -60.11 | X-H torsion
[ 7974 7965 7964 7962 ] final  -13.90 input  175.53 | X-H torsion
[ 8008 7997 7996 7995 ] final   -4.98 input   59.86 | X-H torsion
[ 10167 10162 10161 10158 ] final  120.48 input  -65.29 | X-H torsion
[ 10718 10713 10712 10709 ] final   42.35 input   66.30 | X-H torsion
[ 10763 10752 10751 10750 ] final -160.35 input  -60.55 | X-H torsion
[ 11005 11000 10999 10996 ] final   49.96 input  -57.11 | X-H torsion

> <Gold.Protein.ActiveResidues>
 VAL166  LYS551  ARG553  GLY616  TRP617  ASP618  TYR619  PRO620  LYS621  CYS622 
 ASP623  PHE694  ASN695  SER759  ASP760  ASP761  ALA762  ILE779  LEU786  VAL792 
 PHE793  MET794  SER795  GLU796  ALA797  LYS798  CYS799  TRP800  GLU811  SER814 

> <Gold.Protein.RotatedAtoms>
  151.9958  133.3807  159.4161 H   0  0  0  0  0  0  0  0  0  0  0  0  # atno 6907 bound_to 6896
  150.6916  134.3888  159.5076 H   0  0  0  0  0  0  0  0  0  0  0  0  # atno 6908 bound_to 6896
  152.1628  134.8898  160.0591 H   0  0  0  0  0  0  0  0  0  0  0  0  # atno 6909 bound_to 6896
  146.2096  140.3270  142.8395 H   0  0  0  0  0  0  0  0  0  0  0  0  # atno 7974 bound_to 7965
  154.6086  140.2470  155.7698 H   0  0  0  0  0  0  0  0  0  0  0  0  # atno 8008 bound_to 7997
  156.2357  140.2951  156.0256 H   0  0  0  0  0  0  0  0  0  0  0  0  # atno 8009 bound_to 7997
  155.2089  140.0396  157.2920 H   0  0  0  0  0  0  0  0  0  0  0  0  # atno 8010 bound_to 7997
  139.5979  144.7048  151.3131 H   0  0  0  0  0  0  0  0  0  0  0  0  # atno 10167 bound_to 10162
  157.4039  130.7875  149.7372 H   0  0  0  0  0  0  0  0  0  0  0  0  # atno 10718 bound_to 10713
  154.7398  135.3066  154.8748 H   0  0  0  0  0  0  0  0  0  0  0  0  # atno 10763 bound_to 10752
  153.9566  135.6758  153.4749 H   0  0  0  0  0  0  0  0  0  0  0  0  # atno 10764 bound_to 10752
  153.0998  135.4918  154.8769 H   0  0  0  0  0  0  0  0  0  0  0  0  # atno 10765 bound_to 10752
  140.1058  134.5020  155.8721 H   0  0  0  0  0  0  0  0  0  0  0  0  # atno 11005 bound_to 11000
  144.8879  140.7486  143.5945 LP  0  0  0  0  0  0  0  0  0  0  0  0  # atno 17320 bound_to 7965
  145.3192  139.1794  143.4597 LP  0  0  0  0  0  0  0  0  0  0  0  0  # atno 17321 bound_to 7965
  140.7227  143.7091  150.7784 LP  0  0  0  0  0  0  0  0  0  0  0  0  # atno 17342 bound_to 10162
  140.0661  143.5106  152.2603 LP  0  0  0  0  0  0  0  0  0  0  0  0  # atno 17343 bound_to 10162
  155.9831  130.4004  150.3382 LP  0  0  0  0  0  0  0  0  0  0  0  0  # atno 17370 bound_to 10713
  157.1513  131.0321  151.2884 LP  0  0  0  0  0  0  0  0  0  0  0  0  # atno 17371 bound_to 10713
  141.2118  133.6711  156.6608 LP  0  0  0  0  0  0  0  0  0  0  0  0  # atno 17394 bound_to 11000
  140.3157  134.8049  157.4212 LP  0  0  0  0  0  0  0  0  0  0  0  0  # atno 17395 bound_to 11000

$$$$
