AV-unprocessed.smi:658|AV-procd|sdf|3235|dock3
  -GOLD-   22720 0183D 1   1.00000     0.00000
 Structure written by MMmdl.
 37 37  0  0  0  0  0  0  0  0  3 V2000
  144.1369  136.2497  152.1687 C   0  0  0  0  0  0  0  0  0  0  0  0
  145.6008  135.7976  152.0203 C   0  0  1  0  0  0  0  0  0  0  0  0
  146.4586  136.6670  152.8553 N   0  3  0  0  0  0  0  0  0  0  0  0
  146.0493  138.0854  152.9003 C   0  0  0  0  0  0  0  0  0  0  0  0
  147.2681  139.0057  153.0273 C   0  0  0  0  0  0  0  0  0  0  0  0
  148.1401  138.6650  154.2469 C   0  0  0  0  0  0  0  0  0  0  0  0
  149.1271  140.1164  154.8107 S   0  0  0  0  0  0  0  0  0  0  0  0
  148.9875  141.0903  153.5320 N   0  5  0  0  0  0  0  0  0  0  0  0
  148.4417  140.6479  155.9988 O   0  0  0  0  0  0  0  0  0  0  0  0
  150.5017  139.6218  154.9759 O   0  0  0  0  0  0  0  0  0  0  0  0
  145.8198  134.3072  152.3950 C   0  0  2  0  0  0  0  0  0  0  0  0
  147.3081  133.9484  152.5719 C   0  0  0  0  0  0  0  0  0  0  0  0
  145.2018  133.4058  151.4308 N   0  0  0  0  0  0  0  0  0  0  0  0
  145.7906  132.3840  150.7141 C   0  0  0  0  0  0  0  0  0  0  0  0
  144.8199  131.8154  149.9403 C   0  0  0  0  0  0  0  0  0  0  0  0
  143.6544  132.5697  150.2512 C   0  0  0  0  0  0  0  0  0  0  0  0
  143.8857  133.5204  151.1418 N   0  0  0  0  0  0  0  0  0  0  0  0
  143.4741  135.7067  151.4947 H   0  0  0  0  0  0  0  0  0  0  0  0
  144.0292  137.3091  151.9338 H   0  0  0  0  0  0  0  0  0  0  0  0
  143.7762  136.0958  153.1863 H   0  0  0  0  0  0  0  0  0  0  0  0
  145.8724  135.9328  150.9716 H   0  0  0  0  0  0  0  0  0  0  0  0
  146.4631  136.3083  153.7993 H   0  0  0  0  0  0  0  0  0  0  0  0
  145.4825  138.3403  152.0036 H   0  0  0  0  0  0  0  0  0  0  0  0
  145.3848  138.2312  153.7528 H   0  0  0  0  0  0  0  0  0  0  0  0
  147.8717  138.9142  152.1237 H   0  0  0  0  0  0  0  0  0  0  0  0
  146.9416  140.0453  153.0719 H   0  0  0  0  0  0  0  0  0  0  0  0
  147.5143  138.3613  155.0856 H   0  0  0  0  0  0  0  0  0  0  0  0
  148.8272  137.8444  154.0388 H   0  0  0  0  0  0  0  0  0  0  0  0
  148.7521  140.5145  152.7149 H   0  0  0  0  0  0  0  0  0  0  0  0
  145.3245  134.1263  153.3505 H   0  0  0  0  0  0  0  0  0  0  0  0
  147.7621  134.5097  153.3887 H   0  0  0  0  0  0  0  0  0  0  0  0
  147.8810  134.1580  151.6680 H   0  0  0  0  0  0  0  0  0  0  0  0
  147.4295  132.8894  152.8031 H   0  0  0  0  0  0  0  0  0  0  0  0
  146.8396  132.1463  150.8131 H   0  0  0  0  0  0  0  0  0  0  0  0
  144.9259  130.9874  149.2551 H   0  0  0  0  0  0  0  0  0  0  0  0
  142.6545  132.4555  149.8595 H   0  0  0  0  0  0  0  0  0  0  0  0
  147.4006  136.6226  152.4932 H   0  0  0  0  0  0  0  0  0  0  0  0
  1  2  1  0  0  0  0
  1 18  1  0  0  0  0
  1 19  1  0  0  0  0
  1 20  1  0  0  0  0
  2  3  1  0  0  0  0
  2 11  1  0  0  0  0
  2 21  1  0  0  0  0
  3  4  1  0  0  0  0
  3 22  1  0  0  0  0
  3 37  1  0  0  0  0
  4  5  1  0  0  0  0
  4 23  1  0  0  0  0
  4 24  1  0  0  0  0
  5  6  1  0  0  0  0
  5 25  1  0  0  0  0
  5 26  1  0  0  0  0
  6  7  1  0  0  0  0
  6 27  1  0  0  0  0
  6 28  1  0  0  0  0
  7  8  1  0  0  0  0
  7  9  2  0  0  0  0
  7 10  2  0  0  0  0
  8 29  1  0  0  0  0
 11 12  1  0  0  0  0
 11 13  1  0  0  0  0
 11 30  1  0  0  0  0
 12 31  1  0  0  0  0
 12 32  1  0  0  0  0
 12 33  1  0  0  0  0
 13 17  1  0  0  0  0
 13 14  1  0  0  0  0
 14 15  2  0  0  0  0
 14 34  1  0  0  0  0
 15 16  1  0  0  0  0
 15 35  1  0  0  0  0
 16 17  2  0  0  0  0
 16 36  1  0  0  0  0
M  CHG  1   3   1
M  CHG  1   8  -1
M  END
> <s_m_source_file>
AV-unprocessed.smi

> <i_m_source_file_index>
658

> <i_lp_mmshare_version>
43012

> <i_f3d_flags>
0

> <s_epik_input>
bjFbY0hdW2NIXVtjSF1uMVtDQEBIXShbQ0gzXSlbQ0BIXShbQ0gzXSlbTkhdW0NIMl1bQ0gyXVtDSDJdUyg9TykoPU8pW05IMl0=

> <s_epik_cmdline>
J2VwaWtfcHl0aG9uJywgJy1waCcsICc3LjAnLCAnLXRuJywgJzgnLCAnLW1hJywgJzIwMCcsICctbWV0YWxfYmluZGluZycsICctaW1hZScsICc8aW5maWxlLm1hZT4nLCAnLW9tYWUnLCAnPG91dGZpbGUubWFlPic=

> <r_lp_tautomer_probability>
1

> <r_epik_Ionization_Penalty>
4.63642

> <r_epik_Ionization_Penalty_Charging>
4.63641

> <r_epik_Ionization_Penalty_Neutral>
1.08396e-05

> <r_epik_State_Penalty>
4.63466

> <r_epik_Charging_Adjusted_Penalty>
9.27106

> <i_epik_Tot_Q>
0

> <i_epik_Tot_abs_Q>
2

> <r_epik_Metal_State_Penalty>
0.890424

> <b_epik_Metal_Only>
1

> <s_lp_Force_Field>
OPLS_2005

> <r_lp_Energy>
-2.21025

> <b_lp_Chiralities_Consistent>
1

> <s_lp_Variant>
AV-unprocessed.smi:658-6

> <Gold.Version>
5.8.1

> <Gold.Id.Protein>
6NUR|6NUR_protein|mol2

> <Gold.PLP.Fitness>
47.0220

> <Gold.PLP.PLP>
-28.6912

> <Gold.PLP.part.hbond>
-4.3493

> <Gold.PLP.part.metal>
0.0000

> <Gold.PLP.part.buried>
-1.3805

> <Gold.PLP.part.nonpolar>
-24.0911

> <Gold.PLP.part.repulsive>
0.3570

> <Gold.PLP.ligand.clash>
0.0405

> <Gold.PLP.ligand.torsion>
1.0110

> <Gold.PLP.Chemscore.Hbond>
4.6240

> <Gold.PLP.Chemscore.CHOScore>
2.1119

> <Gold.PLP.Chemscore.Metal>
0.0000

> <Gold.Chemscore.Hbonds>
donor molecule, donor type, donor heavy atom, donor atom, acceptor molecule, acceptor atom, score
      L1  H     3    37       P1  7948  2.00
      L1  H     8    29       P1  7957  0.70
      P1  H  7989  7998       L1    10  0.47
      P1  H  8011  8017       L1     8  0.45
      L1  C    14    34       P1 10747  0.95
      L1  C    16    36       P1 10186  0.78
      L1  C    16    36       P1 10952  0.32

> <Gold.PLP.Chemscore.Internal.Correction>
0.1853

> <Gold.Rescore>
     Score         DG    S(hbond)    S(metal)    S(lipo)     H(rot)  DE(clash)    DE(int)     intcor
     12.39     -14.62       2.82        0.00      64.22       3.04       0.45       1.78       ----

> <Gold.Chemscore.Fitness>
12.3856

> <Gold.Chemscore.DG>
-14.6151

> <Gold.Chemscore.ZeroCoef>
-5.4800

> <Gold.Chemscore.Hbond>
2.8161

> <Gold.Chemscore.Metal>
0.0000

> <Gold.Chemscore.Lipo>
64.2218

> <Gold.Chemscore.Internal_Hbond>
0.0000

> <Gold.Chemscore.DEClash>
0.4479

> <Gold.Chemscore.DEInternal>
1.7815

> <Gold.Chemscore.Rot>
3.0409

> <Gold.Chemscore.Internal.Correction>
   9.000000E+99

> <Gold.Chemscore.Hbonds>
donor molecule, donor type, donor heavy atom, donor atom, acceptor molecule, acceptor atom, score
      L1  H     3    37       P1  7948  1.00
      L1  H     8    29       P1  7957  0.72
      P1  H  7989  7998       L1    10  0.17
      P1  H  8011  8017       L1     8  0.01

> <Gold.Chemscore.Hbond.Weighted>
-9.4059

> <Gold.Chemscore.Metal.Weighted>
-0.0000

> <Gold.Chemscore.Lipo.Weighted>
-7.5139

> <Gold.Chemscore.Internal_Hbond.Weighted>
0.0000

> <Gold.Chemscore.DEClash.Weighted>
0.4479

> <Gold.Chemscore.DEInternal.Weighted>
1.7815

> <Gold.Chemscore.Rot.Weighted>
7.7848

> <Gold.Chemscore.Internal.Correction.Weighted>
   9.000000E+99

> <Gold.Protein.RotatedTorsions>
[ 6907 6896 6895 6894 ] final   54.84 input  -60.11 | X-H torsion
[ 7974 7965 7964 7962 ] final  -71.19 input  175.53 | X-H torsion
[ 8008 7997 7996 7995 ] final  -95.28 input   59.86 | X-H torsion
[ 10167 10162 10161 10158 ] final  130.36 input  -65.29 | X-H torsion
[ 10718 10713 10712 10709 ] final  -88.45 input   66.30 | X-H torsion
[ 10763 10752 10751 10750 ] final -149.98 input  -60.55 | X-H torsion
[ 11005 11000 10999 10996 ] final -122.49 input  -57.11 | X-H torsion

> <Gold.Protein.ActiveResidues>
 VAL166  LYS551  ARG553  GLY616  TRP617  ASP618  TYR619  PRO620  LYS621  CYS622 
 ASP623  PHE694  ASN695  SER759  ASP760  ASP761  ALA762  ILE779  LEU786  VAL792 
 PHE793  MET794  SER795  GLU796  ALA797  LYS798  CYS799  TRP800  GLU811  SER814 

> <Gold.Protein.RotatedAtoms>
  152.3480  134.7045  160.0244 H   0  0  0  0  0  0  0  0  0  0  0  0  # atno 6907 bound_to 6896
  151.7409  133.3316  159.3373 H   0  0  0  0  0  0  0  0  0  0  0  0  # atno 6908 bound_to 6896
  150.7521  134.6212  159.6182 H   0  0  0  0  0  0  0  0  0  0  0  0  # atno 6909 bound_to 6896
  145.6812  140.9187  143.0831 H   0  0  0  0  0  0  0  0  0  0  0  0  # atno 7974 bound_to 7965
  154.7593  140.0481  157.0960 H   0  0  0  0  0  0  0  0  0  0  0  0  # atno 8008 bound_to 7997
  154.9958  140.3118  155.4868 H   0  0  0  0  0  0  0  0  0  0  0  0  # atno 8009 bound_to 7997
  156.2901  140.2210  156.5065 H   0  0  0  0  0  0  0  0  0  0  0  0  # atno 8010 bound_to 7997
  139.5433  144.6751  151.4552 H   0  0  0  0  0  0  0  0  0  0  0  0  # atno 10167 bound_to 10162
  155.9983  130.4836  150.5021 H   0  0  0  0  0  0  0  0  0  0  0  0  # atno 10718 bound_to 10713
  154.8146  135.3296  154.7212 H   0  0  0  0  0  0  0  0  0  0  0  0  # atno 10763 bound_to 10752
  153.7855  135.6915  153.4885 H   0  0  0  0  0  0  0  0  0  0  0  0  # atno 10764 bound_to 10752
  153.1952  135.4536  155.0145 H   0  0  0  0  0  0  0  0  0  0  0  0  # atno 10765 bound_to 10752
  140.9991  134.0428  157.3560 H   0  0  0  0  0  0  0  0  0  0  0  0  # atno 11005 bound_to 11000
  144.7025  139.8699  143.7440 LP  0  0  0  0  0  0  0  0  0  0  0  0  # atno 17320 bound_to 7965
  146.0962  139.3955  143.0375 LP  0  0  0  0  0  0  0  0  0  0  0  0  # atno 17321 bound_to 7965
  140.6672  143.8372  150.6956 LP  0  0  0  0  0  0  0  0  0  0  0  0  # atno 17342 bound_to 10162
  140.1785  143.4135  152.1950 LP  0  0  0  0  0  0  0  0  0  0  0  0  # atno 17343 bound_to 10162
  157.3004  131.0644  151.2072 LP  0  0  0  0  0  0  0  0  0  0  0  0  # atno 17370 bound_to 10713
  157.3053  130.6863  149.6186 LP  0  0  0  0  0  0  0  0  0  0  0  0  # atno 17371 bound_to 10713
  139.9030  135.0171  156.7355 LP  0  0  0  0  0  0  0  0  0  0  0  0  # atno 17394 bound_to 11000
  140.6918  133.9383  155.7971 LP  0  0  0  0  0  0  0  0  0  0  0  0  # atno 17395 bound_to 11000

$$$$
