AV-unprocessed.smi:713|AV-procd|sdf|3479|dock8
  -GOLD-   22720 0473D 1   1.00000     0.00000
 Structure written by MMmdl.
 41 42  0  0  0  0  0  0  0  0  1 V2000
  151.9592  144.3295  157.7629 C   0  0  0  0  0  0  0  0  0  0  0  0
  151.1724  143.3567  158.6653 C   0  0  1  0  0  0  0  0  0  0  0  0
  150.7530  142.0801  157.9216 C   0  0  0  0  0  0  0  0  0  0  0  0
  151.0240  140.9695  158.3800 O   0  0  0  0  0  0  0  0  0  0  0  0
  150.0809  142.2553  156.7726 N   0  0  0  0  0  0  0  0  0  0  0  0
  149.5745  141.1841  155.9210 C   0  0  2  0  0  0  0  0  0  0  0  0
  148.8322  141.7893  154.7162 C   0  0  0  0  0  0  0  0  0  0  0  0
  148.2334  140.6931  153.8222 C   0  0  0  0  0  0  0  0  0  0  0  0
  147.3102  139.7641  154.6250 C   0  0  0  0  0  0  0  0  0  0  0  0
  148.0409  139.1472  155.8318 C   0  0  2  0  0  0  0  0  0  0  0  0
  146.8714  138.0779  156.7875 S   0  0  0  0  0  0  0  0  0  0  0  0
  147.9285  137.4271  158.1472 C   0  0  0  0  0  0  0  0  0  0  0  0
  145.8364  138.9334  157.3878 O   0  0  0  0  0  0  0  0  0  0  0  0
  146.4725  136.9515  155.9300 O   0  0  0  0  0  0  0  0  0  0  0  0
  148.6485  140.2481  156.7240 C   0  0  0  0  0  0  0  0  0  0  0  0
  151.8971  143.0110  159.8835 N   0  0  0  0  0  0  0  0  0  0  0  0
  153.0425  142.2494  159.9998 C   0  0  0  0  0  0  0  0  0  0  0  0
  153.3909  142.2276  161.3198 C   0  0  0  0  0  0  0  0  0  0  0  0
  152.3950  143.0279  161.9446 C   0  0  0  0  0  0  0  0  0  0  0  0
  151.5108  143.5038  161.0838 N   0  0  0  0  0  0  0  0  0  0  0  0
  151.3714  144.6161  156.8902 H   0  0  0  0  0  0  0  0  0  0  0  0
  152.8922  143.8951  157.4017 H   0  0  0  0  0  0  0  0  0  0  0  0
  152.2083  145.2438  158.3024 H   0  0  0  0  0  0  0  0  0  0  0  0
  150.2621  143.8741  158.9734 H   0  0  0  0  0  0  0  0  0  0  0  0
  149.8984  143.2011  156.4703 H   0  0  0  0  0  0  0  0  0  0  0  0
  150.4173  140.6041  155.5399 H   0  0  0  0  0  0  0  0  0  0  0  0
  148.0347  142.4476  155.0641 H   0  0  0  0  0  0  0  0  0  0  0  0
  149.5123  142.4094  154.1306 H   0  0  0  0  0  0  0  0  0  0  0  0
  147.6798  141.1461  152.9993 H   0  0  0  0  0  0  0  0  0  0  0  0
  149.0363  140.1094  153.3703 H   0  0  0  0  0  0  0  0  0  0  0  0
  146.4407  140.3255  154.9701 H   0  0  0  0  0  0  0  0  0  0  0  0
  146.9297  138.9757  153.9749 H   0  0  0  0  0  0  0  0  0  0  0  0
  148.8388  138.4992  155.4674 H   0  0  0  0  0  0  0  0  0  0  0  0
  147.3617  136.6958  158.7229 H   0  0  0  0  0  0  0  0  0  0  0  0
  148.2302  138.2390  158.8077 H   0  0  0  0  0  0  0  0  0  0  0  0
  148.8120  136.9471  157.7273 H   0  0  0  0  0  0  0  0  0  0  0  0
  149.2100  139.7975  157.5417 H   0  0  0  0  0  0  0  0  0  0  0  0
  147.8489  140.8315  157.1826 H   0  0  0  0  0  0  0  0  0  0  0  0
  153.5104  141.7906  159.1413 H   0  0  0  0  0  0  0  0  0  0  0  0
  154.2323  141.7220  161.7698 H   0  0  0  0  0  0  0  0  0  0  0  0
  152.2923  143.2806  162.9898 H   0  0  0  0  0  0  0  0  0  0  0  0
  1  2  1  0  0  0  0
  1 21  1  0  0  0  0
  1 22  1  0  0  0  0
  1 23  1  0  0  0  0
  2  3  1  0  0  0  0
  2 16  1  0  0  0  0
  2 24  1  0  0  0  0
  3  4  2  0  0  0  0
  3  5  1  0  0  0  0
  5  6  1  0  0  0  0
  5 25  1  0  0  0  0
  6 15  1  0  0  0  0
  6  7  1  0  0  0  0
  6 26  1  0  0  0  0
  7  8  1  0  0  0  0
  7 27  1  0  0  0  0
  7 28  1  0  0  0  0
  8  9  1  0  0  0  0
  8 29  1  0  0  0  0
  8 30  1  0  0  0  0
  9 10  1  0  0  0  0
  9 31  1  0  0  0  0
  9 32  1  0  0  0  0
 10 11  1  0  0  0  0
 10 15  1  0  0  0  0
 10 33  1  0  0  0  0
 11 12  1  0  0  0  0
 11 13  2  0  0  0  0
 11 14  2  0  0  0  0
 12 34  1  0  0  0  0
 12 35  1  0  0  0  0
 12 36  1  0  0  0  0
 15 37  1  0  0  0  0
 15 38  1  0  0  0  0
 16 20  1  0  0  0  0
 16 17  1  0  0  0  0
 17 18  2  0  0  0  0
 17 39  1  0  0  0  0
 18 19  1  0  0  0  0
 18 40  1  0  0  0  0
 19 20  2  0  0  0  0
 19 41  1  0  0  0  0
M  END
> <s_m_source_file>
AV-unprocessed.smi

> <i_m_source_file_index>
713

> <i_lp_mmshare_version>
43012

> <i_f3d_flags>
0

> <s_epik_input>
bjFbY0hdW2NIXVtjSF1uMVtDQEhdKFtDSDNdKUMoPU8pW05IXVtDQEBIXTJbQ0gyXVtDSDJdW0NIMl1bQ0BIXShbQ0gyXTIpUyg9TykoPU8pW0NIM10=

> <s_epik_cmdline>
J2VwaWtfcHl0aG9uJywgJy1waCcsICc3LjAnLCAnLXRuJywgJzgnLCAnLW1hJywgJzIwMCcsICctbWV0YWxfYmluZGluZycsICctaW1hZScsICc8aW5maWxlLm1hZT4nLCAnLW9tYWUnLCAnPG91dGZpbGUubWFlPic=

> <r_lp_tautomer_probability>
1

> <r_epik_Ionization_Penalty>
4.07816e-05

> <r_epik_Ionization_Penalty_Charging>
0

> <r_epik_Ionization_Penalty_Neutral>
4.07816e-05

> <r_epik_State_Penalty>
-0

> <r_epik_Charging_Adjusted_Penalty>
0

> <i_epik_Tot_Q>
0

> <i_epik_Tot_abs_Q>
0

> <r_epik_Metal_State_Penalty>
-0

> <b_epik_Metal_Only>
0

> <s_lp_Force_Field>
OPLS_2005

> <r_lp_Energy>
7.30822

> <b_lp_Chiralities_Consistent>
1

> <s_lp_Variant>
AV-unprocessed.smi:713-6

> <Gold.Version>
5.8.1

> <Gold.Id.Protein>
6NUR|6NUR_protein|mol2

> <Gold.PLP.Fitness>
38.2550

> <Gold.PLP.PLP>
-35.5335

> <Gold.PLP.part.hbond>
-1.4691

> <Gold.PLP.part.metal>
0.0000

> <Gold.PLP.part.buried>
-3.0797

> <Gold.PLP.part.nonpolar>
-30.7933

> <Gold.PLP.part.repulsive>
0.1785

> <Gold.PLP.ligand.clash>
0.0000

> <Gold.PLP.ligand.torsion>
0.2582

> <Gold.PLP.Chemscore.Hbond>
1.0000

> <Gold.PLP.Chemscore.CHOScore>
0.0000

> <Gold.PLP.Chemscore.Metal>
0.0000

> <Gold.Chemscore.Hbonds>
donor molecule, donor type, donor heavy atom, donor atom, acceptor molecule, acceptor atom, score
      L1  H     5    25       P1  8028  1.00

> <Gold.PLP.Chemscore.Internal.Correction>
0.2379

> <Gold.Rescore>
     Score         DG    S(hbond)    S(metal)    S(lipo)     H(rot)  DE(clash)    DE(int)     intcor
     12.97     -14.55       0.98        0.00      87.19       1.72       0.01       1.56       ----

> <Gold.Chemscore.Fitness>
12.9707

> <Gold.Chemscore.DG>
-14.5465

> <Gold.Chemscore.ZeroCoef>
-5.4800

> <Gold.Chemscore.Hbond>
0.9822

> <Gold.Chemscore.Metal>
0.0000

> <Gold.Chemscore.Lipo>
87.1941

> <Gold.Chemscore.Internal_Hbond>
0.0000

> <Gold.Chemscore.DEClash>
0.0114

> <Gold.Chemscore.DEInternal>
1.5643

> <Gold.Chemscore.Rot>
1.7249

> <Gold.Chemscore.Internal.Correction>
   9.000000E+99

> <Gold.Chemscore.Hbonds>
donor molecule, donor type, donor heavy atom, donor atom, acceptor molecule, acceptor atom, score
      L1  H     5    25       P1  8028  0.96

> <Gold.Chemscore.Hbond.Weighted>
-3.2805

> <Gold.Chemscore.Metal.Weighted>
-0.0000

> <Gold.Chemscore.Lipo.Weighted>
-10.2017

> <Gold.Chemscore.Internal_Hbond.Weighted>
0.0000

> <Gold.Chemscore.DEClash.Weighted>
0.0114

> <Gold.Chemscore.DEInternal.Weighted>
1.5643

> <Gold.Chemscore.Rot.Weighted>
4.4157

> <Gold.Chemscore.Internal.Correction.Weighted>
   9.000000E+99

> <Gold.Protein.RotatedTorsions>
[ 6907 6896 6895 6894 ] final -168.34 input  -60.11 | X-H torsion
[ 7974 7965 7964 7962 ] final  -71.61 input  175.53 | X-H torsion
[ 8008 7997 7996 7995 ] final  165.50 input   59.86 | X-H torsion
[ 10167 10162 10161 10158 ] final   99.49 input  -65.29 | X-H torsion
[ 10718 10713 10712 10709 ] final  108.35 input   66.30 | X-H torsion
[ 10763 10752 10751 10750 ] final  149.21 input  -60.55 | X-H torsion
[ 11005 11000 10999 10996 ] final  114.57 input  -57.11 | X-H torsion

> <Gold.Protein.ActiveResidues>
 VAL166  LYS551  ARG553  GLY616  TRP617  ASP618  TYR619  PRO620  LYS621  CYS622 
 ASP623  PHE694  ASN695  SER759  ASP760  ASP761  ALA762  ILE779  LEU786  VAL792 
 PHE793  MET794  SER795  GLU796  ALA797  LYS798  CYS799  TRP800  GLU811  SER814 

> <Gold.Protein.RotatedAtoms>
  151.4740  133.3562  159.2827 H   0  0  0  0  0  0  0  0  0  0  0  0  # atno 6907 bound_to 6896
  150.8942  134.8350  159.7325 H   0  0  0  0  0  0  0  0  0  0  0  0  # atno 6908 bound_to 6896
  152.4841  134.4653  159.9670 H   0  0  0  0  0  0  0  0  0  0  0  0  # atno 6909 bound_to 6896
  145.6759  140.9205  143.0858 H   0  0  0  0  0  0  0  0  0  0  0  0  # atno 7974 bound_to 7965
  156.1795  140.1668  156.8300 H   0  0  0  0  0  0  0  0  0  0  0  0  # atno 8008 bound_to 7997
  154.5344  140.0750  156.8435 H   0  0  0  0  0  0  0  0  0  0  0  0  # atno 8009 bound_to 7997
  155.3341  140.3381  155.4241 H   0  0  0  0  0  0  0  0  0  0  0  0  # atno 8010 bound_to 7997
  139.7613  144.6953  151.0288 H   0  0  0  0  0  0  0  0  0  0  0  0  # atno 10167 bound_to 10162
  157.6590  131.0892  150.6292 H   0  0  0  0  0  0  0  0  0  0  0  0  # atno 10718 bound_to 10713
  154.0674  135.2869  155.3314 H   0  0  0  0  0  0  0  0  0  0  0  0  # atno 10763 bound_to 10752
  154.6769  135.5278  153.8214 H   0  0  0  0  0  0  0  0  0  0  0  0  # atno 10764 bound_to 10752
  153.0499  135.6572  154.0858 H   0  0  0  0  0  0  0  0  0  0  0  0  # atno 10765 bound_to 10752
  139.8984  134.9570  156.6913 H   0  0  0  0  0  0  0  0  0  0  0  0  # atno 11005 bound_to 11000
  144.7042  139.8633  143.7435 LP  0  0  0  0  0  0  0  0  0  0  0  0  # atno 17320 bound_to 7965
  146.1006  139.4001  143.0349 LP  0  0  0  0  0  0  0  0  0  0  0  0  # atno 17321 bound_to 7965
  140.7807  143.4694  151.0167 LP  0  0  0  0  0  0  0  0  0  0  0  0  # atno 17342 bound_to 10162
  139.8380  143.7602  152.3180 LP  0  0  0  0  0  0  0  0  0  0  0  0  # atno 17343 bound_to 10162
  156.6597  130.4508  149.5692 LP  0  0  0  0  0  0  0  0  0  0  0  0  # atno 17370 bound_to 10713
  156.2076  130.6659  151.1235 LP  0  0  0  0  0  0  0  0  0  0  0  0  # atno 17371 bound_to 10713
  140.7223  133.9130  155.8155 LP  0  0  0  0  0  0  0  0  0  0  0  0  # atno 17394 bound_to 11000
  141.0218  134.0878  157.4112 LP  0  0  0  0  0  0  0  0  0  0  0  0  # atno 17395 bound_to 11000

$$$$
