AV-unprocessed.smi:2357|AV-procd|sdf|9401|dock4
  -GOLD-   2272013 33D 1   1.00000     0.00000
 Structure written by MMmdl.
 37 38  0  0  0  0  0  0  0  0  1 V2000
  152.1365  143.9237  161.1365 C   0  0  0  0  0  0  0  0  0  0  0  0
  152.0459  142.9796  159.9519 C   0  0  0  0  0  0  0  0  0  0  0  0
  151.0728  143.2185  158.9060 C   0  0  0  0  0  0  0  0  0  0  0  0
  151.0118  142.3791  157.8614 C   0  0  0  0  0  0  0  0  0  0  0  0
  151.8645  141.2668  157.7508 N   0  0  0  0  0  0  0  0  0  0  0  0
  151.7241  140.4249  156.5516 C   0  0  0  0  0  0  0  0  0  0  0  0
  151.6467  138.9348  156.9057 C   0  0  0  0  0  0  0  0  0  0  0  0
  152.2691  138.1069  156.2403 O   0  0  0  0  0  0  0  0  0  0  0  0
  150.8766  138.6128  157.9552 N   0  0  0  0  0  0  0  0  0  0  0  0
  150.7458  137.2757  158.5254 C   0  0  0  0  0  0  0  0  0  0  0  0
  149.3296  136.6866  158.3516 C   0  0  2  0  0  0  0  0  0  0  0  0
  148.2802  137.1447  159.3719 C   0  0  0  0  0  0  0  0  0  0  0  0
  147.3171  135.9794  159.3651 C   0  0  0  0  0  0  0  0  0  0  0  0
  148.2696  134.7964  159.2310 C   0  0  0  0  0  0  0  0  0  0  0  0
  149.3437  135.2615  158.4198 O   0  0  0  0  0  0  0  0  0  0  0  0
  152.8017  140.9755  158.7031 C   0  0  0  0  0  0  0  0  0  0  0  0
  153.5426  139.9950  158.6040 O   0  0  0  0  0  0  0  0  0  0  0  0
  152.8647  141.9063  159.8408 C   0  0  0  0  0  0  0  0  0  0  0  0
  153.8531  141.6087  160.8271 C   0  0  0  0  0  0  0  0  0  0  0  0
  154.6426  141.3524  161.6339 N   0  0  0  0  0  0  0  0  0  0  0  0
  151.4169  144.7380  161.0481 H   0  0  0  0  0  0  0  0  0  0  0  0
  153.1336  144.3599  161.2012 H   0  0  0  0  0  0  0  0  0  0  0  0
  151.9317  143.3903  162.0651 H   0  0  0  0  0  0  0  0  0  0  0  0
  150.4049  144.0658  158.9587 H   0  0  0  0  0  0  0  0  0  0  0  0
  150.3152  142.5099  157.0460 H   0  0  0  0  0  0  0  0  0  0  0  0
  150.8423  140.7266  155.9830 H   0  0  0  0  0  0  0  0  0  0  0  0
  152.5659  140.5692  155.8733 H   0  0  0  0  0  0  0  0  0  0  0  0
  150.3921  139.3588  158.4330 H   0  0  0  0  0  0  0  0  0  0  0  0
  151.4666  136.6331  158.0193 H   0  0  0  0  0  0  0  0  0  0  0  0
  151.0289  137.2806  159.5792 H   0  0  0  0  0  0  0  0  0  0  0  0
  148.9684  136.9371  157.3532 H   0  0  0  0  0  0  0  0  0  0  0  0
  148.7037  137.2525  160.3708 H   0  0  0  0  0  0  0  0  0  0  0  0
  147.8091  138.0897  159.1002 H   0  0  0  0  0  0  0  0  0  0  0  0
  146.6973  135.9284  160.2608 H   0  0  0  0  0  0  0  0  0  0  0  0
  146.6618  136.0372  158.4948 H   0  0  0  0  0  0  0  0  0  0  0  0
  148.6681  134.5158  160.2065 H   0  0  0  0  0  0  0  0  0  0  0  0
  147.7904  133.9191  158.7962 H   0  0  0  0  0  0  0  0  0  0  0  0
  1  2  1  0  0  0  0
  1 21  1  0  0  0  0
  1 22  1  0  0  0  0
  1 23  1  0  0  0  0
  2 18  2  0  0  0  0
  2  3  1  0  0  0  0
  3  4  2  0  0  0  0
  3 24  1  0  0  0  0
  4  5  1  0  0  0  0
  4 25  1  0  0  0  0
  5  6  1  0  0  0  0
  5 16  1  0  0  0  0
  6  7  1  0  0  0  0
  6 26  1  0  0  0  0
  6 27  1  0  0  0  0
  7  8  2  0  0  0  0
  7  9  1  0  0  0  0
  9 10  1  0  0  0  0
  9 28  1  0  0  0  0
 10 11  1  0  0  0  0
 10 29  1  0  0  0  0
 10 30  1  0  0  0  0
 11 15  1  0  0  0  0
 11 12  1  0  0  0  0
 11 31  1  0  0  0  0
 12 13  1  0  0  0  0
 12 32  1  0  0  0  0
 12 33  1  0  0  0  0
 13 14  1  0  0  0  0
 13 34  1  0  0  0  0
 13 35  1  0  0  0  0
 14 15  1  0  0  0  0
 14 36  1  0  0  0  0
 14 37  1  0  0  0  0
 16 17  2  0  0  0  0
 16 18  1  0  0  0  0
 18 19  1  0  0  0  0
 19 20  3  0  0  0  0
M  END
> <s_m_source_file>
AV-unprocessed.smi

> <i_m_source_file_index>
2357

> <i_lp_mmshare_version>
43012

> <i_f3d_flags>
0

> <s_epik_input>
W0NIM11jMVtjSF1bY0hdbihjKD1PKWMxQyNOKVtDSDJdQyg9TylbTkhdW0NIMl1bQ0BASF0yW0NIMl1bQ0gyXVtDSDJdTzI=

> <s_epik_cmdline>
J2VwaWtfcHl0aG9uJywgJy1waCcsICc3LjAnLCAnLXRuJywgJzgnLCAnLW1hJywgJzIwMCcsICctbWV0YWxfYmluZGluZycsICctaW1hZScsICc8aW5maWxlLm1hZT4nLCAnLW9tYWUnLCAnPG91dGZpbGUubWFlPic=

> <r_lp_tautomer_probability>
1

> <r_epik_Ionization_Penalty>
2.71597e-08

> <r_epik_Ionization_Penalty_Charging>
3.00645e-10

> <r_epik_Ionization_Penalty_Neutral>
2.6859e-08

> <r_epik_State_Penalty>
-0

> <r_epik_Charging_Adjusted_Penalty>
3.00645e-10

> <i_epik_Tot_Q>
0

> <i_epik_Tot_abs_Q>
0

> <r_epik_Metal_State_Penalty>
-0

> <b_epik_Metal_Only>
0

> <s_lp_Force_Field>
OPLS_2005

> <r_lp_Energy>
27.3681

> <b_lp_Chiralities_Consistent>
1

> <s_lp_Variant>
AV-unprocessed.smi:2357-1

> <Gold.Version>
5.8.1

> <Gold.Id.Protein>
6NUR|6NUR_protein|mol2

> <Gold.PLP.Fitness>
39.8657

> <Gold.PLP.PLP>
-35.0437

> <Gold.PLP.part.hbond>
-3.0000

> <Gold.PLP.part.metal>
0.0000

> <Gold.PLP.part.buried>
-3.8136

> <Gold.PLP.part.nonpolar>
-27.9908

> <Gold.PLP.part.repulsive>
0.0614

> <Gold.PLP.ligand.clash>
0.0000

> <Gold.PLP.ligand.torsion>
0.5910

> <Gold.PLP.Chemscore.Hbond>
2.0000

> <Gold.PLP.Chemscore.CHOScore>
0.0000

> <Gold.PLP.Chemscore.Metal>
0.0000

> <Gold.Chemscore.Hbonds>
donor molecule, donor type, donor heavy atom, donor atom, acceptor molecule, acceptor atom, score
      P1  H  6896  6909       L1    15  0.70
      P1  H  7997  8010       L1    17  1.00

> <Gold.PLP.Chemscore.Internal.Correction>
0.0041

> <Gold.Rescore>
     Score         DG    S(hbond)    S(metal)    S(lipo)     H(rot)  DE(clash)    DE(int)     intcor
     10.46     -12.47       0.98        0.00      70.24       1.76       0.03       1.98       ----

> <Gold.Chemscore.Fitness>
10.4636

> <Gold.Chemscore.DG>
-12.4743

> <Gold.Chemscore.ZeroCoef>
-5.4800

> <Gold.Chemscore.Hbond>
0.9808

> <Gold.Chemscore.Metal>
0.0000

> <Gold.Chemscore.Lipo>
70.2421

> <Gold.Chemscore.Internal_Hbond>
0.0000

> <Gold.Chemscore.DEClash>
0.0323

> <Gold.Chemscore.DEInternal>
1.9784

> <Gold.Chemscore.Rot>
1.7577

> <Gold.Chemscore.Internal.Correction>
   9.000000E+99

> <Gold.Chemscore.Hbonds>
donor molecule, donor type, donor heavy atom, donor atom, acceptor molecule, acceptor atom, score
      P1  H  6896  6909       L1    15  0.06
      P1  H  7997  8010       L1    17  0.81

> <Gold.Chemscore.Hbond.Weighted>
-3.2758

> <Gold.Chemscore.Metal.Weighted>
-0.0000

> <Gold.Chemscore.Lipo.Weighted>
-8.2183

> <Gold.Chemscore.Internal_Hbond.Weighted>
0.0000

> <Gold.Chemscore.DEClash.Weighted>
0.0323

> <Gold.Chemscore.DEInternal.Weighted>
1.9784

> <Gold.Chemscore.Rot.Weighted>
4.4998

> <Gold.Chemscore.Internal.Correction.Weighted>
   9.000000E+99

> <Gold.Protein.RotatedTorsions>
[ 6907 6896 6895 6894 ] final   49.67 input  -60.11 | X-H torsion
[ 7974 7965 7964 7962 ] final  128.69 input  175.53 | X-H torsion
[ 8008 7997 7996 7995 ] final   32.89 input   59.86 | X-H torsion
[ 10167 10162 10161 10158 ] final  -51.94 input  -65.29 | X-H torsion
[ 10718 10713 10712 10709 ] final   78.77 input   66.30 | X-H torsion
[ 10763 10752 10751 10750 ] final -155.51 input  -60.55 | X-H torsion
[ 11005 11000 10999 10996 ] final   71.02 input  -57.11 | X-H torsion

> <Gold.Protein.ActiveResidues>
 VAL166  LYS551  ARG553  GLY616  TRP617  ASP618  TYR619  PRO620  LYS621  CYS622 
 ASP623  PHE694  ASN695  SER759  ASP760  ASP761  ALA762  ILE779  LEU786  VAL792 
 PHE793  MET794  SER795  GLU796  ALA797  LYS798  CYS799  TRP800  GLU811  SER814 

> <Gold.Protein.RotatedAtoms>
  152.2933  134.7696  160.0372 H   0  0  0  0  0  0  0  0  0  0  0  0  # atno 6907 bound_to 6896
  151.8234  133.3392  159.3599 H   0  0  0  0  0  0  0  0  0  0  0  0  # atno 6908 bound_to 6896
  150.7240  134.5481  159.5825 H   0  0  0  0  0  0  0  0  0  0  0  0  # atno 6909 bound_to 6896
  145.0368  139.3998  143.5122 H   0  0  0  0  0  0  0  0  0  0  0  0  # atno 7974 bound_to 7965
  155.1299  140.3256  155.4477 H   0  0  0  0  0  0  0  0  0  0  0  0  # atno 8008 bound_to 7997
  156.2637  140.2012  156.6367 H   0  0  0  0  0  0  0  0  0  0  0  0  # atno 8009 bound_to 7997
  154.6621  140.0546  157.0060 H   0  0  0  0  0  0  0  0  0  0  0  0  # atno 8010 bound_to 7997
  140.6563  143.2601  151.4576 H   0  0  0  0  0  0  0  0  0  0  0  0  # atno 10167 bound_to 10162
  157.6755  130.9883  150.1835 H   0  0  0  0  0  0  0  0  0  0  0  0  # atno 10718 bound_to 10713
  154.7782  135.3166  154.8047 H   0  0  0  0  0  0  0  0  0  0  0  0  # atno 10763 bound_to 10752
  153.8765  135.6839  153.4774 H   0  0  0  0  0  0  0  0  0  0  0  0  # atno 10764 bound_to 10752
  153.1411  135.4739  154.9434 H   0  0  0  0  0  0  0  0  0  0  0  0  # atno 10765 bound_to 10752
  139.9566  134.7134  156.0740 H   0  0  0  0  0  0  0  0  0  0  0  0  # atno 11005 bound_to 11000
  146.3505  139.9948  142.8682 LP  0  0  0  0  0  0  0  0  0  0  0  0  # atno 17320 bound_to 7965
  145.1699  140.9715  143.4328 LP  0  0  0  0  0  0  0  0  0  0  0  0  # atno 17321 bound_to 7965
  139.5786  144.1761  152.1938 LP  0  0  0  0  0  0  0  0  0  0  0  0  # atno 17342 bound_to 10162
  140.1079  144.5482  150.6944 LP  0  0  0  0  0  0  0  0  0  0  0  0  # atno 17343 bound_to 10162
  156.2562  130.3706  149.8179 LP  0  0  0  0  0  0  0  0  0  0  0  0  # atno 17370 bound_to 10713
  156.5938  130.8517  151.3415 LP  0  0  0  0  0  0  0  0  0  0  0  0  # atno 17371 bound_to 10713
  141.1238  133.6605  156.3282 LP  0  0  0  0  0  0  0  0  0  0  0  0  # atno 17394 bound_to 11000
  140.5596  134.5947  157.5430 LP  0  0  0  0  0  0  0  0  0  0  0  0  # atno 17395 bound_to 11000

$$$$
