AV-unprocessed.smi:746|AV-procd|sdf|3578|dock1
  -GOLD-   22720 0573D 1   1.00000     0.00000
 Structure written by MMmdl.
 48 50  0  0  0  0  0  0  0  0  1 V2000
  153.4048  133.2150  165.4694 C   0  0  0  0  0  0  0  0  0  0  0  0
  154.4627  133.2508  164.5276 O   0  0  0  0  0  0  0  0  0  0  0  0
  154.9725  134.5596  164.3345 C   0  0  0  0  0  0  0  0  0  0  0  0
  156.1542  134.5039  163.3621 C   0  0  0  0  0  0  0  0  0  0  0  0
  156.6761  135.8190  163.1951 O   0  0  0  0  0  0  0  0  0  0  0  0
  155.9173  136.7463  162.5107 C   0  0  0  0  0  0  0  0  0  0  0  0
  154.7429  136.3113  161.8652 C   0  0  0  0  0  0  0  0  0  0  0  0
  153.9578  137.2555  161.1775 C   0  0  0  0  0  0  0  0  0  0  0  0
  154.3622  138.6053  161.1629 C   0  0  0  0  0  0  0  0  0  0  0  0
  153.5584  139.5370  160.4532 N   0  0  0  0  0  0  0  0  0  0  0  0
  153.8205  140.8293  160.1683 C   0  0  0  0  0  0  0  0  0  0  0  0
  154.8387  141.4025  160.5592 O   0  0  0  0  0  0  0  0  0  0  0  0
  152.8326  141.4703  159.4821 N   0  0  0  0  0  0  0  0  0  0  0  0
  151.7137  140.7561  158.8194 C   0  0  0  0  0  0  0  0  0  0  0  0
  151.1551  141.4701  157.5826 C   0  0  0  0  0  0  0  0  0  0  0  0
  150.7926  142.9116  157.9079 C   0  0  0  0  0  0  0  0  0  0  0  0
  152.0543  143.6595  158.3439 C   0  0  1  0  0  0  0  0  0  0  0  0
  151.7351  145.0625  158.8947 C   0  0  0  0  0  0  0  0  0  0  0  0
  151.9423  145.0051  160.4173 C   0  0  0  0  0  0  0  0  0  0  0  0
  152.1816  143.5335  160.7599 C   0  0  0  0  0  0  0  0  0  0  0  0
  152.8072  142.9548  159.4882 C   0  0  1  0  0  0  0  0  0  0  0  0
  155.5689  138.9399  161.8238 C   0  0  0  0  0  0  0  0  0  0  0  0
  156.3270  138.0386  162.4838 N   0  0  0  0  0  0  0  0  0  0  0  0
  153.0503  132.1907  165.5834 H   0  0  0  0  0  0  0  0  0  0  0  0
  152.5640  133.8270  165.1405 H   0  0  0  0  0  0  0  0  0  0  0  0
  153.7340  133.5683  166.4474 H   0  0  0  0  0  0  0  0  0  0  0  0
  154.1991  135.2301  163.9565 H   0  0  0  0  0  0  0  0  0  0  0  0
  155.3103  134.9568  165.2929 H   0  0  0  0  0  0  0  0  0  0  0  0
  156.9262  133.8564  163.7808 H   0  0  0  0  0  0  0  0  0  0  0  0
  155.8401  134.0785  162.4073 H   0  0  0  0  0  0  0  0  0  0  0  0
  154.4483  135.2728  161.8996 H   0  0  0  0  0  0  0  0  0  0  0  0
  153.0525  136.9454  160.6762 H   0  0  0  0  0  0  0  0  0  0  0  0
  152.6441  139.2049  160.1830 H   0  0  0  0  0  0  0  0  0  0  0  0
  151.9999  139.7561  158.4907 H   0  0  0  0  0  0  0  0  0  0  0  0
  150.9186  140.6248  159.5547 H   0  0  0  0  0  0  0  0  0  0  0  0
  151.8885  141.4449  156.7756 H   0  0  0  0  0  0  0  0  0  0  0  0
  150.2749  140.9398  157.2181 H   0  0  0  0  0  0  0  0  0  0  0  0
  150.3514  143.3950  157.0357 H   0  0  0  0  0  0  0  0  0  0  0  0
  150.0393  142.9339  158.6963 H   0  0  0  0  0  0  0  0  0  0  0  0
  152.7127  143.7441  157.4779 H   0  0  0  0  0  0  0  0  0  0  0  0
  152.4024  145.8063  158.4575 H   0  0  0  0  0  0  0  0  0  0  0  0
  150.7175  145.3688  158.6482 H   0  0  0  0  0  0  0  0  0  0  0  0
  152.8219  145.5910  160.6873 H   0  0  0  0  0  0  0  0  0  0  0  0
  151.0950  145.4171  160.9659 H   0  0  0  0  0  0  0  0  0  0  0  0
  152.8183  143.4119  161.6368 H   0  0  0  0  0  0  0  0  0  0  0  0
  151.2301  143.0422  160.9685 H   0  0  0  0  0  0  0  0  0  0  0  0
  153.8315  143.3301  159.4269 H   0  0  0  0  0  0  0  0  0  0  0  0
  155.9624  139.9444  161.8191 H   0  0  0  0  0  0  0  0  0  0  0  0
  1  2  1  0  0  0  0
  1 24  1  0  0  0  0
  1 25  1  0  0  0  0
  1 26  1  0  0  0  0
  2  3  1  0  0  0  0
  3  4  1  0  0  0  0
  3 27  1  0  0  0  0
  3 28  1  0  0  0  0
  4  5  1  0  0  0  0
  4 29  1  0  0  0  0
  4 30  1  0  0  0  0
  5  6  1  0  0  0  0
  6 23  1  0  0  0  0
  6  7  2  0  0  0  0
  7  8  1  0  0  0  0
  7 31  1  0  0  0  0
  8  9  2  0  0  0  0
  8 32  1  0  0  0  0
  9 10  1  0  0  0  0
  9 22  1  0  0  0  0
 10 11  1  0  0  0  0
 10 33  1  0  0  0  0
 11 12  2  0  0  0  0
 11 13  1  0  0  0  0
 13 21  1  0  0  0  0
 13 14  1  0  0  0  0
 14 15  1  0  0  0  0
 14 34  1  0  0  0  0
 14 35  1  0  0  0  0
 15 16  1  0  0  0  0
 15 36  1  0  0  0  0
 15 37  1  0  0  0  0
 16 17  1  0  0  0  0
 16 38  1  0  0  0  0
 16 39  1  0  0  0  0
 17 21  1  0  0  0  0
 17 18  1  0  0  0  0
 17 40  1  0  0  0  0
 18 19  1  0  0  0  0
 18 41  1  0  0  0  0
 18 42  1  0  0  0  0
 19 20  1  0  0  0  0
 19 43  1  0  0  0  0
 19 44  1  0  0  0  0
 20 21  1  0  0  0  0
 20 45  1  0  0  0  0
 20 46  1  0  0  0  0
 21 47  1  0  0  0  0
 22 23  2  0  0  0  0
 22 48  1  0  0  0  0
M  END
> <s_m_source_file>
AV-unprocessed.smi

> <i_m_source_file_index>
746

> <i_lp_mmshare_version>
43012

> <i_f3d_flags>
0

> <s_epik_input>
W0NIM11PW0NIMl1bQ0gyXU9jMVtjSF1bY0hdYyhbY0hdbjEpW05IXUMoPU8pTihbQ0gyXVtDSDJdW0NIMl0yKVtDQEhdKFtDQEBIXTIzKVtDSDJdW0NIMl1bQ0gyXTM=

> <s_epik_cmdline>
J2VwaWtfcHl0aG9uJywgJy1waCcsICc3LjAnLCAnLXRuJywgJzgnLCAnLW1hJywgJzIwMCcsICctbWV0YWxfYmluZGluZycsICctaW1hZScsICc8aW5maWxlLm1hZT4nLCAnLW9tYWUnLCAnPG91dGZpbGUubWFlPic=

> <r_lp_tautomer_probability>
1

> <r_epik_Ionization_Penalty>
8.29966e-05

> <r_epik_Ionization_Penalty_Charging>
0

> <r_epik_Ionization_Penalty_Neutral>
8.29966e-05

> <r_epik_State_Penalty>
-0

> <r_epik_Charging_Adjusted_Penalty>
0

> <i_epik_Tot_Q>
0

> <i_epik_Tot_abs_Q>
0

> <r_epik_Metal_State_Penalty>
-0

> <b_epik_Metal_Only>
0

> <s_lp_Force_Field>
OPLS_2005

> <r_lp_Energy>
59.487

> <b_lp_Chiralities_Consistent>
1

> <s_lp_Variant>
AV-unprocessed.smi:746-3

> <Gold.Version>
5.8.1

> <Gold.Id.Protein>
6NUR|6NUR_protein|mol2

> <Gold.PLP.Fitness>
45.0585

> <Gold.PLP.PLP>
-45.6556

> <Gold.PLP.part.hbond>
-1.0000

> <Gold.PLP.part.metal>
0.0000

> <Gold.PLP.part.buried>
-5.2161

> <Gold.PLP.part.nonpolar>
-39.7171

> <Gold.PLP.part.repulsive>
0.1127

> <Gold.PLP.ligand.clash>
0.4459

> <Gold.PLP.ligand.torsion>
0.1979

> <Gold.PLP.Chemscore.Hbond>
0.0000

> <Gold.PLP.Chemscore.CHOScore>
0.0000

> <Gold.PLP.Chemscore.Metal>
0.0000

> <Gold.PLP.Chemscore.Internal.Correction>
0.2447

> <Gold.Rescore>
     Score         DG    S(hbond)    S(metal)    S(lipo)     H(rot)  DE(clash)    DE(int)     intcor
     15.35     -17.06       0.00        0.00     132.14       1.52       0.17       1.53       ----

> <Gold.Chemscore.Fitness>
15.3490

> <Gold.Chemscore.DG>
-17.0565

> <Gold.Chemscore.ZeroCoef>
-5.4800

> <Gold.Chemscore.Hbond>
0.0000

> <Gold.Chemscore.Metal>
0.0000

> <Gold.Chemscore.Lipo>
132.1418

> <Gold.Chemscore.Internal_Hbond>
0.0000

> <Gold.Chemscore.DEClash>
0.1740

> <Gold.Chemscore.DEInternal>
1.5335

> <Gold.Chemscore.Rot>
1.5172

> <Gold.Chemscore.Internal.Correction>
   9.000000E+99

> <Gold.Chemscore.Hbond.Weighted>
-0.0000

> <Gold.Chemscore.Metal.Weighted>
-0.0000

> <Gold.Chemscore.Lipo.Weighted>
-15.4606

> <Gold.Chemscore.Internal_Hbond.Weighted>
0.0000

> <Gold.Chemscore.DEClash.Weighted>
0.1740

> <Gold.Chemscore.DEInternal.Weighted>
1.5335

> <Gold.Chemscore.Rot.Weighted>
3.8841

> <Gold.Chemscore.Internal.Correction.Weighted>
   9.000000E+99

> <Gold.Protein.RotatedTorsions>
[ 6907 6896 6895 6894 ] final  173.23 input  -60.11 | X-H torsion
[ 7974 7965 7964 7962 ] final  159.28 input  175.53 | X-H torsion
[ 8008 7997 7996 7995 ] final -163.30 input   59.86 | X-H torsion
[ 10167 10162 10161 10158 ] final   12.56 input  -65.29 | X-H torsion
[ 10718 10713 10712 10709 ] final  -19.16 input   66.30 | X-H torsion
[ 10763 10752 10751 10750 ] final  177.11 input  -60.55 | X-H torsion
[ 11005 11000 10999 10996 ] final -175.70 input  -57.11 | X-H torsion

> <Gold.Protein.ActiveResidues>
 VAL166  LYS551  ARG553  GLY616  TRP617  ASP618  TYR619  PRO620  LYS621  CYS622 
 ASP623  PHE694  ASN695  SER759  ASP760  ASP761  ALA762  ILE779  LEU786  VAL792 
 PHE793  MET794  SER795  GLU796  ALA797  LYS798  CYS799  TRP800  GLU811  SER814 

> <Gold.Protein.RotatedAtoms>
  151.7716  133.3341  159.3445 H   0  0  0  0  0  0  0  0  0  0  0  0  # atno 6907 bound_to 6896
  150.7459  134.6014  159.6048 H   0  0  0  0  0  0  0  0  0  0  0  0  # atno 6908 bound_to 6896
  152.3337  134.7227  160.0334 H   0  0  0  0  0  0  0  0  0  0  0  0  # atno 6909 bound_to 6896
  144.7799  139.7595  143.6264 H   0  0  0  0  0  0  0  0  0  0  0  0  # atno 7974 bound_to 7965
  155.8193  140.0917  157.1858 H   0  0  0  0  0  0  0  0  0  0  0  0  # atno 8008 bound_to 7997
  154.3979  140.1440  156.3541 H   0  0  0  0  0  0  0  0  0  0  0  0  # atno 8009 bound_to 7997
  155.8283  140.3443  155.5559 H   0  0  0  0  0  0  0  0  0  0  0  0  # atno 8010 bound_to 7997
  140.6060  143.8507  150.7014 H   0  0  0  0  0  0  0  0  0  0  0  0  # atno 10167 bound_to 10162
  156.5495  130.4698  149.6459 H   0  0  0  0  0  0  0  0  0  0  0  0  # atno 10718 bound_to 10713
  154.4901  135.2778  155.1503 H   0  0  0  0  0  0  0  0  0  0  0  0  # atno 10763 bound_to 10752
  154.3179  135.6216  153.5498 H   0  0  0  0  0  0  0  0  0  0  0  0  # atno 10764 bound_to 10752
  152.9887  135.5735  154.5320 H   0  0  0  0  0  0  0  0  0  0  0  0  # atno 10765 bound_to 10752
  140.4604  134.6260  157.4840 H   0  0  0  0  0  0  0  0  0  0  0  0  # atno 11005 bound_to 11000
  146.2001  139.5291  142.9749 LP  0  0  0  0  0  0  0  0  0  0  0  0  # atno 17320 bound_to 7965
  145.6079  141.0344  143.1982 LP  0  0  0  0  0  0  0  0  0  0  0  0  # atno 17321 bound_to 7965
  140.2064  143.3918  152.1752 LP  0  0  0  0  0  0  0  0  0  0  0  0  # atno 17342 bound_to 10162
  139.5325  144.7175  151.5006 LP  0  0  0  0  0  0  0  0  0  0  0  0  # atno 17343 bound_to 10162
  156.2897  130.7117  151.1963 LP  0  0  0  0  0  0  0  0  0  0  0  0  # atno 17370 bound_to 10713
  157.7390  131.0534  150.5259 LP  0  0  0  0  0  0  0  0  0  0  0  0  # atno 17371 bound_to 10713
  139.9949  134.6927  155.9626 LP  0  0  0  0  0  0  0  0  0  0  0  0  # atno 17394 bound_to 11000
  141.1624  133.6538  156.4363 LP  0  0  0  0  0  0  0  0  0  0  0  0  # atno 17395 bound_to 11000

$$$$
