AV-unprocessed.smi:2365|AV-procd|sdf|9419|dock6
  -GOLD-   2272013 53D 1   1.00000     0.00000
 Structure written by MMmdl.
 29 30  0  0  0  0  0  0  0  0  1 V2000
  149.6976  138.8942  154.1531 C   0  0  0  0  0  0  0  0  0  0  0  0
  150.0363  139.6538  155.4397 C   0  0  2  0  0  0  0  0  0  0  0  0
  149.0615  140.7735  155.7846 C   0  0  0  0  0  0  0  0  0  0  0  0
  149.8848  141.6714  156.6930 C   0  0  0  0  0  0  0  0  0  0  0  0
  151.3471  141.3540  156.3187 C   0  0  1  0  0  0  0  0  0  0  0  0
  152.1817  140.8401  157.5064 C   0  0  0  0  0  0  0  0  0  0  0  0
  152.7658  139.7609  157.4111 O   0  0  0  0  0  0  0  0  0  0  0  0
  152.2191  141.6243  158.5997 N   0  0  0  0  0  0  0  0  0  0  0  0
  152.9357  141.4179  159.8092 C   0  0  0  0  0  0  0  0  0  0  0  0
  153.7525  140.2845  160.0417 C   0  0  0  0  0  0  0  0  0  0  0  0
  154.4174  140.0704  161.1966 N   0  0  0  0  0  0  0  0  0  0  0  0
  154.2891  140.9850  162.1798 C   0  0  0  0  0  0  0  0  0  0  0  0
  153.4922  142.1406  162.0638 C   0  0  0  0  0  0  0  0  0  0  0  0
  153.3836  143.2511  163.3828 Cl  0  0  0  0  0  0  0  0  0  0  0  0
  152.7963  142.3592  160.8550 C   0  0  0  0  0  0  0  0  0  0  0  0
  151.7990  143.7608  160.6550 Cl  0  0  0  0  0  0  0  0  0  0  0  0
  151.2617  140.3560  155.2983 O   0  0  0  0  0  0  0  0  0  0  0  0
  148.7400  138.3814  154.2430 H   0  0  0  0  0  0  0  0  0  0  0  0
  150.4582  138.1446  153.9340 H   0  0  0  0  0  0  0  0  0  0  0  0
  149.6389  139.5686  153.2985 H   0  0  0  0  0  0  0  0  0  0  0  0
  150.1178  138.9573  156.2761 H   0  0  0  0  0  0  0  0  0  0  0  0
  148.7819  141.3213  154.8836 H   0  0  0  0  0  0  0  0  0  0  0  0
  148.1485  140.4107  156.2573 H   0  0  0  0  0  0  0  0  0  0  0  0
  149.6430  142.7233  156.5385 H   0  0  0  0  0  0  0  0  0  0  0  0
  149.6671  141.4373  157.7363 H   0  0  0  0  0  0  0  0  0  0  0  0
  151.8415  142.2327  155.9038 H   0  0  0  0  0  0  0  0  0  0  0  0
  151.7633  142.5215  158.5093 H   0  0  0  0  0  0  0  0  0  0  0  0
  153.8692  139.5088  159.3006 H   0  0  0  0  0  0  0  0  0  0  0  0
  154.8357  140.7855  163.0898 H   0  0  0  0  0  0  0  0  0  0  0  0
  1  2  1  0  0  0  0
  1 18  1  0  0  0  0
  1 19  1  0  0  0  0
  1 20  1  0  0  0  0
  2 17  1  0  0  0  0
  2  3  1  0  0  0  0
  2 21  1  0  0  0  0
  3  4  1  0  0  0  0
  3 22  1  0  0  0  0
  3 23  1  0  0  0  0
  4  5  1  0  0  0  0
  4 24  1  0  0  0  0
  4 25  1  0  0  0  0
  5  6  1  0  0  0  0
  5 17  1  0  0  0  0
  5 26  1  0  0  0  0
  6  7  2  0  0  0  0
  6  8  1  0  0  0  0
  8  9  1  0  0  0  0
  8 27  1  0  0  0  0
  9 15  1  0  0  0  0
  9 10  2  0  0  0  0
 10 11  1  0  0  0  0
 10 28  1  0  0  0  0
 11 12  2  0  0  0  0
 12 13  1  0  0  0  0
 12 29  1  0  0  0  0
 13 14  1  0  0  0  0
 13 15  2  0  0  0  0
 15 16  1  0  0  0  0
M  END
> <s_m_source_file>
AV-unprocessed.smi

> <i_m_source_file_index>
2365

> <i_lp_mmshare_version>
43012

> <i_f3d_flags>
0

> <s_epik_input>
W0NIM11bQ0BASF0xW0NIMl1bQ0gyXVtDQEhdKE8xKUMoPU8pW05IXWMyW2NIXW5bY0hdYyhDbCljMkNs

> <s_epik_cmdline>
J2VwaWtfcHl0aG9uJywgJy1waCcsICc3LjAnLCAnLXRuJywgJzgnLCAnLW1hJywgJzIwMCcsICctbWV0YWxfYmluZGluZycsICctaW1hZScsICc8aW5maWxlLm1hZT4nLCAnLW9tYWUnLCAnPG91dGZpbGUubWFlPic=

> <r_lp_tautomer_probability>
1

> <r_epik_Ionization_Penalty>
7.32461e-06

> <r_epik_Ionization_Penalty_Charging>
0

> <r_epik_Ionization_Penalty_Neutral>
7.32461e-06

> <r_epik_State_Penalty>
-0

> <r_epik_Charging_Adjusted_Penalty>
0

> <i_epik_Tot_Q>
0

> <i_epik_Tot_abs_Q>
0

> <r_epik_Metal_State_Penalty>
-0

> <b_epik_Metal_Only>
0

> <s_lp_Force_Field>
OPLS_2005

> <r_lp_Energy>
23.4255

> <b_lp_Chiralities_Consistent>
1

> <s_lp_Variant>
AV-unprocessed.smi:2365-1

> <Gold.Version>
5.8.1

> <Gold.Id.Protein>
6NUR|6NUR_protein|mol2

> <Gold.PLP.Fitness>
42.4782

> <Gold.PLP.PLP>
-36.6376

> <Gold.PLP.part.hbond>
-2.0000

> <Gold.PLP.part.metal>
0.0000

> <Gold.PLP.part.buried>
-4.4604

> <Gold.PLP.part.nonpolar>
-28.1391

> <Gold.PLP.part.repulsive>
0.1145

> <Gold.PLP.ligand.clash>
0.0000

> <Gold.PLP.ligand.torsion>
0.0710

> <Gold.PLP.Chemscore.Hbond>
1.9920

> <Gold.PLP.Chemscore.CHOScore>
0.0000

> <Gold.PLP.Chemscore.Metal>
0.0000

> <Gold.Chemscore.Hbonds>
donor molecule, donor type, donor heavy atom, donor atom, acceptor molecule, acceptor atom, score
      P1  H  7989  7998       L1    17  0.99
      P1  H  7997  8009       L1     7  1.00

> <Gold.PLP.Chemscore.Internal.Correction>
0.0066

> <Gold.Rescore>
     Score         DG    S(hbond)    S(metal)    S(lipo)     H(rot)  DE(clash)    DE(int)     intcor
     18.53     -20.35       1.65        0.00     101.72       1.00       0.33       1.49       ----

> <Gold.Chemscore.Fitness>
18.5285

> <Gold.Chemscore.DG>
-20.3480

> <Gold.Chemscore.ZeroCoef>
-5.4800

> <Gold.Chemscore.Hbond>
1.6547

> <Gold.Chemscore.Metal>
0.0000

> <Gold.Chemscore.Lipo>
101.7209

> <Gold.Chemscore.Internal_Hbond>
0.0000

> <Gold.Chemscore.DEClash>
0.3258

> <Gold.Chemscore.DEInternal>
1.4937

> <Gold.Chemscore.Rot>
1.0000

> <Gold.Chemscore.Internal.Correction>
   9.000000E+99

> <Gold.Chemscore.Hbonds>
donor molecule, donor type, donor heavy atom, donor atom, acceptor molecule, acceptor atom, score
      P1  H  7989  7998       L1    17  0.79
      P1  H  7997  8009       L1     7  0.70

> <Gold.Chemscore.Hbond.Weighted>
-5.5267

> <Gold.Chemscore.Metal.Weighted>
-0.0000

> <Gold.Chemscore.Lipo.Weighted>
-11.9013

> <Gold.Chemscore.Internal_Hbond.Weighted>
0.0000

> <Gold.Chemscore.DEClash.Weighted>
0.3258

> <Gold.Chemscore.DEInternal.Weighted>
1.4937

> <Gold.Chemscore.Rot.Weighted>
2.5600

> <Gold.Chemscore.Internal.Correction.Weighted>
   9.000000E+99

> <Gold.Protein.RotatedTorsions>
[ 6907 6896 6895 6894 ] final   26.09 input  -60.11 | X-H torsion
[ 7974 7965 7964 7962 ] final  167.02 input  175.53 | X-H torsion
[ 8008 7997 7996 7995 ] final  164.13 input   59.86 | X-H torsion
[ 10167 10162 10161 10158 ] final  -75.26 input  -65.29 | X-H torsion
[ 10718 10713 10712 10709 ] final   83.29 input   66.30 | X-H torsion
[ 10763 10752 10751 10750 ] final  -67.84 input  -60.55 | X-H torsion
[ 11005 11000 10999 10996 ] final  -75.32 input  -57.11 | X-H torsion

> <Gold.Protein.ActiveResidues>
 VAL166  LYS551  ARG553  GLY616  TRP617  ASP618  TYR619  PRO620  LYS621  CYS622 
 ASP623  PHE694  ASN695  SER759  ASP760  ASP761  ALA762  ILE779  LEU786  VAL792 
 PHE793  MET794  SER795  GLU796  ALA797  LYS798  CYS799  TRP800  GLU811  SER814 

> <Gold.Protein.RotatedAtoms>
  151.9822  135.0022  160.0557 H   0  0  0  0  0  0  0  0  0  0  0  0  # atno 6907 bound_to 6896
  152.1685  133.4623  159.4905 H   0  0  0  0  0  0  0  0  0  0  0  0  # atno 6908 bound_to 6896
  150.6898  134.1900  159.4324 H   0  0  0  0  0  0  0  0  0  0  0  0  # atno 6909 bound_to 6896
  144.7440  139.8701  143.6388 H   0  0  0  0  0  0  0  0  0  0  0  0  # atno 7974 bound_to 7965
  156.1904  140.1705  156.8104 H   0  0  0  0  0  0  0  0  0  0  0  0  # atno 8008 bound_to 7997
  154.5464  140.0726  156.8628 H   0  0  0  0  0  0  0  0  0  0  0  0  # atno 8009 bound_to 7997
  155.3114  140.3368  155.4246 H   0  0  0  0  0  0  0  0  0  0  0  0  # atno 8010 bound_to 7997
  140.4957  143.2371  151.7834 H   0  0  0  0  0  0  0  0  0  0  0  0  # atno 10167 bound_to 10162
  157.6876  131.0085  150.2502 H   0  0  0  0  0  0  0  0  0  0  0  0  # atno 10718 bound_to 10713
  154.3803  135.6075  153.5787 H   0  0  0  0  0  0  0  0  0  0  0  0  # atno 10763 bound_to 10752
  152.9788  135.5859  154.4418 H   0  0  0  0  0  0  0  0  0  0  0  0  # atno 10764 bound_to 10752
  154.4186  135.2845  155.1968 H   0  0  0  0  0  0  0  0  0  0  0  0  # atno 10765 bound_to 10752
  141.1644  133.6942  156.7499 H   0  0  0  0  0  0  0  0  0  0  0  0  # atno 11005 bound_to 11000
  146.1287  139.4317  143.0183 LP  0  0  0  0  0  0  0  0  0  0  0  0  # atno 17320 bound_to 7965
  145.7196  141.0079  143.1409 LP  0  0  0  0  0  0  0  0  0  0  0  0  # atno 17321 bound_to 7965
  139.4861  144.4590  151.9564 LP  0  0  0  0  0  0  0  0  0  0  0  0  # atno 17342 bound_to 10162
  140.3677  144.2894  150.5924 LP  0  0  0  0  0  0  0  0  0  0  0  0  # atno 17343 bound_to 10162
  156.3100  130.3770  149.7670 LP  0  0  0  0  0  0  0  0  0  0  0  0  # atno 17370 bound_to 10713
  156.5273  130.8242  151.3225 LP  0  0  0  0  0  0  0  0  0  0  0  0  # atno 17371 bound_to 10713
  140.2612  134.8465  157.3760 LP  0  0  0  0  0  0  0  0  0  0  0  0  # atno 17394 bound_to 11000
  140.1610  134.4729  155.7895 LP  0  0  0  0  0  0  0  0  0  0  0  0  # atno 17395 bound_to 11000

$$$$
