AV-unprocessed.smi:2148|AV-procd|sdf|8748|dock10
  -GOLD-   2272011523D 1   1.00000     0.00000
 Structure written by MMmdl.
 44 45  0  0  0  0  0  0  0  0  1 V2000
  147.2820  133.0739  152.3550 C   0  0  0  0  0  0  0  0  0  0  0  0
  147.4688  134.1551  153.7992 S   0  0  0  0  0  0  0  0  0  0  0  0
  149.2350  133.9367  154.1718 C   0  0  2  0  0  0  0  0  0  0  0  0
  149.5073  132.4927  154.6223 C   0  0  0  0  0  0  0  0  0  0  0  0
  149.7307  134.9509  155.2112 C   0  0  0  0  0  0  0  0  0  0  0  0
  149.9483  134.5866  156.3668 O   0  0  0  0  0  0  0  0  0  0  0  0
  149.8690  136.2163  154.7729 N   0  0  0  0  0  0  0  0  0  0  0  0
  150.2713  137.3653  155.5042 C   0  0  0  0  0  0  0  0  0  0  0  0
  151.0865  138.3122  154.8548 C   0  0  0  0  0  0  0  0  0  0  0  0
  151.5044  139.4577  155.5576 C   0  0  0  0  0  0  0  0  0  0  0  0
  151.1024  139.6255  156.9031 C   0  0  0  0  0  0  0  0  0  0  0  0
  151.4963  140.7763  157.6181 N   0  0  0  0  0  0  0  0  0  0  0  0
  150.4422  141.7643  157.8312 C   0  0  0  0  0  0  0  0  0  0  0  0
  151.0267  143.0994  158.3327 C   0  0  2  0  0  0  0  0  0  0  0  0
  151.7254  143.9137  157.2291 C   0  0  0  0  0  0  0  0  0  0  0  0
  151.8759  142.8753  159.4603 O   0  0  0  0  0  0  0  0  0  0  0  0
  152.9381  141.9499  159.2337 C   0  0  1  0  0  0  0  0  0  0  0  0
  153.7403  141.8239  160.5327 C   0  0  0  0  0  0  0  0  0  0  0  0
  152.3574  140.5974  158.7838 C   0  0  0  0  0  0  0  0  0  0  0  0
  150.3418  138.6997  157.5371 N   0  0  0  0  0  0  0  0  0  0  0  0
  149.9402  137.6039  156.8589 C   0  0  0  0  0  0  0  0  0  0  0  0
  146.2389  133.0498  152.0401 H   0  0  0  0  0  0  0  0  0  0  0  0
  147.5932  132.0575  152.5961 H   0  0  0  0  0  0  0  0  0  0  0  0
  147.8821  133.4351  151.5198 H   0  0  0  0  0  0  0  0  0  0  0  0
  149.7827  134.0955  153.2415 H   0  0  0  0  0  0  0  0  0  0  0  0
  150.5589  132.3450  154.8710 H   0  0  0  0  0  0  0  0  0  0  0  0
  149.2571  131.7869  153.8298 H   0  0  0  0  0  0  0  0  0  0  0  0
  148.9152  132.2256  155.4986 H   0  0  0  0  0  0  0  0  0  0  0  0
  149.5743  136.3881  153.8226 H   0  0  0  0  0  0  0  0  0  0  0  0
  151.3860  138.1691  153.8267 H   0  0  0  0  0  0  0  0  0  0  0  0
  152.1321  140.1859  155.0652 H   0  0  0  0  0  0  0  0  0  0  0  0
  149.8590  141.9404  156.9281 H   0  0  0  0  0  0  0  0  0  0  0  0
  149.7512  141.3668  158.5758 H   0  0  0  0  0  0  0  0  0  0  0  0
  150.1977  143.7081  158.6947 H   0  0  0  0  0  0  0  0  0  0  0  0
  151.0176  144.1857  156.4459 H   0  0  0  0  0  0  0  0  0  0  0  0
  152.5341  143.3592  156.7539 H   0  0  0  0  0  0  0  0  0  0  0  0
  152.1429  144.8370  157.6314 H   0  0  0  0  0  0  0  0  0  0  0  0
  153.6043  142.3367  158.4623 H   0  0  0  0  0  0  0  0  0  0  0  0
  154.5757  141.1336  160.4132 H   0  0  0  0  0  0  0  0  0  0  0  0
  153.1160  141.4576  161.3481 H   0  0  0  0  0  0  0  0  0  0  0  0
  154.1472  142.7897  160.8333 H   0  0  0  0  0  0  0  0  0  0  0  0
  151.7782  140.1476  159.5917 H   0  0  0  0  0  0  0  0  0  0  0  0
  153.1738  139.9137  158.5470 H   0  0  0  0  0  0  0  0  0  0  0  0
  149.3557  136.9043  157.4360 H   0  0  0  0  0  0  0  0  0  0  0  0
  1  2  1  0  0  0  0
  1 22  1  0  0  0  0
  1 23  1  0  0  0  0
  1 24  1  0  0  0  0
  2  3  1  0  0  0  0
  3  4  1  0  0  0  0
  3  5  1  0  0  0  0
  3 25  1  0  0  0  0
  4 26  1  0  0  0  0
  4 27  1  0  0  0  0
  4 28  1  0  0  0  0
  5  6  2  0  0  0  0
  5  7  1  0  0  0  0
  7  8  1  0  0  0  0
  7 29  1  0  0  0  0
  8 21  1  0  0  0  0
  8  9  2  0  0  0  0
  9 10  1  0  0  0  0
  9 30  1  0  0  0  0
 10 11  2  0  0  0  0
 10 31  1  0  0  0  0
 11 12  1  0  0  0  0
 11 20  1  0  0  0  0
 12 19  1  0  0  0  0
 12 13  1  0  0  0  0
 13 14  1  0  0  0  0
 13 32  1  0  0  0  0
 13 33  1  0  0  0  0
 14 15  1  0  0  0  0
 14 16  1  0  0  0  0
 14 34  1  0  0  0  0
 15 35  1  0  0  0  0
 15 36  1  0  0  0  0
 15 37  1  0  0  0  0
 16 17  1  0  0  0  0
 17 18  1  0  0  0  0
 17 19  1  0  0  0  0
 17 38  1  0  0  0  0
 18 39  1  0  0  0  0
 18 40  1  0  0  0  0
 18 41  1  0  0  0  0
 19 42  1  0  0  0  0
 19 43  1  0  0  0  0
 20 21  2  0  0  0  0
 21 44  1  0  0  0  0
M  END
> <s_m_source_file>
AV-unprocessed.smi

> <i_m_source_file_index>
2148

> <i_lp_mmshare_version>
43012

> <i_f3d_flags>
0

> <s_epik_input>
W0NIM11TW0NASF0oW0NIM10pQyg9TylbTkhdYzFbY0hdW2NIXWMobltjSF0xKU4yW0NIMl1bQ0BASF0oW0NIM10pT1tDQEBIXShbQ0gzXSlbQ0gyXTI=

> <s_epik_cmdline>
J2VwaWtfcHl0aG9uJywgJy1waCcsICc3LjAnLCAnLXRuJywgJzgnLCAnLW1hJywgJzIwMCcsICctbWV0YWxfYmluZGluZycsICctaW1hZScsICc8aW5maWxlLm1hZT4nLCAnLW9tYWUnLCAnPG91dGZpbGUubWFlPic=

> <r_lp_tautomer_probability>
1

> <r_epik_Ionization_Penalty>
0.000646494

> <r_epik_Ionization_Penalty_Charging>
0

> <r_epik_Ionization_Penalty_Neutral>
0.000646494

> <r_epik_State_Penalty>
0.000408447

> <r_epik_Charging_Adjusted_Penalty>
0.000408447

> <i_epik_Tot_Q>
0

> <i_epik_Tot_abs_Q>
0

> <r_epik_Metal_State_Penalty>
-0

> <b_epik_Metal_Only>
0

> <s_lp_Force_Field>
OPLS_2005

> <r_lp_Energy>
25.6211

> <b_lp_Chiralities_Consistent>
1

> <s_lp_Variant>
AV-unprocessed.smi:2148-3

> <Gold.Version>
5.8.1

> <Gold.Id.Protein>
6NUR|6NUR_protein|mol2

> <Gold.PLP.Fitness>
38.3188

> <Gold.PLP.PLP>
-36.7764

> <Gold.PLP.part.hbond>
-1.0000

> <Gold.PLP.part.metal>
0.0000

> <Gold.PLP.part.buried>
-4.0299

> <Gold.PLP.part.nonpolar>
-31.5338

> <Gold.PLP.part.repulsive>
0.0585

> <Gold.PLP.ligand.clash>
0.0000

> <Gold.PLP.ligand.torsion>
0.8905

> <Gold.PLP.Chemscore.Hbond>
1.0000

> <Gold.PLP.Chemscore.CHOScore>
0.0000

> <Gold.PLP.Chemscore.Metal>
0.0000

> <Gold.Chemscore.Hbonds>
donor molecule, donor type, donor heavy atom, donor atom, acceptor molecule, acceptor atom, score
      L1  H     7    29       P1  7948  0.99

> <Gold.PLP.Chemscore.Internal.Correction>
0.3234

> <Gold.Rescore>
     Score         DG    S(hbond)    S(metal)    S(lipo)     H(rot)  DE(clash)    DE(int)     intcor
     14.48     -16.14       0.95        0.00      91.83       1.27       0.11       1.55       ----

> <Gold.Chemscore.Fitness>
14.4822

> <Gold.Chemscore.DG>
-16.1435

> <Gold.Chemscore.ZeroCoef>
-5.4800

> <Gold.Chemscore.Hbond>
0.9460

> <Gold.Chemscore.Metal>
0.0000

> <Gold.Chemscore.Lipo>
91.8331

> <Gold.Chemscore.Internal_Hbond>
0.0000

> <Gold.Chemscore.DEClash>
0.1087

> <Gold.Chemscore.DEInternal>
1.5526

> <Gold.Chemscore.Rot>
1.2659

> <Gold.Chemscore.Internal.Correction>
   9.000000E+99

> <Gold.Chemscore.Hbonds>
donor molecule, donor type, donor heavy atom, donor atom, acceptor molecule, acceptor atom, score
      L1  H     7    29       P1  7948  0.60

> <Gold.Chemscore.Hbond.Weighted>
-3.1596

> <Gold.Chemscore.Metal.Weighted>
-0.0000

> <Gold.Chemscore.Lipo.Weighted>
-10.7445

> <Gold.Chemscore.Internal_Hbond.Weighted>
0.0000

> <Gold.Chemscore.DEClash.Weighted>
0.1087

> <Gold.Chemscore.DEInternal.Weighted>
1.5526

> <Gold.Chemscore.Rot.Weighted>
3.2406

> <Gold.Chemscore.Internal.Correction.Weighted>
   9.000000E+99

> <Gold.Protein.RotatedTorsions>
[ 6907 6896 6895 6894 ] final  149.13 input  -60.11 | X-H torsion
[ 7974 7965 7964 7962 ] final  121.51 input  175.53 | X-H torsion
[ 8008 7997 7996 7995 ] final -108.30 input   59.86 | X-H torsion
[ 10167 10162 10161 10158 ] final   98.23 input  -65.29 | X-H torsion
[ 10718 10713 10712 10709 ] final -134.58 input   66.30 | X-H torsion
[ 10763 10752 10751 10750 ] final  169.04 input  -60.55 | X-H torsion
[ 11005 11000 10999 10996 ] final  166.87 input  -57.11 | X-H torsion

> <Gold.Protein.ActiveResidues>
 VAL166  LYS551  ARG553  GLY616  TRP617  ASP618  TYR619  PRO620  LYS621  CYS622 
 ASP623  PHE694  ASN695  SER759  ASP760  ASP761  ALA762  ILE779  LEU786  VAL792 
 PHE793  MET794  SER795  GLU796  ALA797  LYS798  CYS799  TRP800  GLU811  SER814 

> <Gold.Protein.RotatedAtoms>
  152.1321  133.4414  159.4725 H   0  0  0  0  0  0  0  0  0  0  0  0  # atno 6907 bound_to 6896
  150.6879  134.2408  159.4480 H   0  0  0  0  0  0  0  0  0  0  0  0  # atno 6908 bound_to 6896
  152.0292  134.9777  160.0623 H   0  0  0  0  0  0  0  0  0  0  0  0  # atno 6909 bound_to 6896
  145.1184  139.3405  143.4727 H   0  0  0  0  0  0  0  0  0  0  0  0  # atno 7974 bound_to 7965
  154.9422  140.0402  157.2102 H   0  0  0  0  0  0  0  0  0  0  0  0  # atno 8008 bound_to 7997
  154.8058  140.2859  155.5867 H   0  0  0  0  0  0  0  0  0  0  0  0  # atno 8009 bound_to 7997
  156.2966  140.2546  156.2936 H   0  0  0  0  0  0  0  0  0  0  0  0  # atno 8010 bound_to 7997
  139.7727  144.6916  151.0132 H   0  0  0  0  0  0  0  0  0  0  0  0  # atno 10167 bound_to 10162
  156.2570  130.7187  151.1107 H   0  0  0  0  0  0  0  0  0  0  0  0  # atno 10718 bound_to 10713
  154.3773  135.2753  155.2232 H   0  0  0  0  0  0  0  0  0  0  0  0  # atno 10763 bound_to 10752
  154.4353  135.5967  153.6098 H   0  0  0  0  0  0  0  0  0  0  0  0  # atno 10764 bound_to 10752
  152.9836  135.6005  154.4012 H   0  0  0  0  0  0  0  0  0  0  0  0  # atno 10765 bound_to 10752
  140.2709  134.7827  157.3674 H   0  0  0  0  0  0  0  0  0  0  0  0  # atno 11005 bound_to 11000
  146.3522  140.1133  142.8603 LP  0  0  0  0  0  0  0  0  0  0  0  0  # atno 17320 bound_to 7965
  145.0768  140.9193  143.4849 LP  0  0  0  0  0  0  0  0  0  0  0  0  # atno 17321 bound_to 7965
  140.7815  143.4570  151.0332 LP  0  0  0  0  0  0  0  0  0  0  0  0  # atno 17342 bound_to 10162
  139.8253  143.7764  152.3178 LP  0  0  0  0  0  0  0  0  0  0  0  0  # atno 17343 bound_to 10162
  157.7236  131.0665  150.6029 LP  0  0  0  0  0  0  0  0  0  0  0  0  # atno 17370 bound_to 10713
  156.6114  130.4381  149.5857 LP  0  0  0  0  0  0  0  0  0  0  0  0  # atno 17371 bound_to 10713
  140.1374  134.5016  155.8058 LP  0  0  0  0  0  0  0  0  0  0  0  0  # atno 17394 bound_to 11000
  141.2177  133.6812  156.7149 LP  0  0  0  0  0  0  0  0  0  0  0  0  # atno 17395 bound_to 11000

$$$$
