AV-unprocessed.smi:422|AV-procd|sdf|2537|dock2
  -GOLD-   2262022493D 1   1.00000     0.00000
 Structure written by MMmdl.
 43 45  0  0  0  0  0  0  0  0  1 V2000
  148.3922  135.5011  155.7918 C   0  0  0  0  0  0  0  0  0  0  0  0
  149.0611  136.7928  155.6937 N   0  0  0  0  0  0  0  0  0  0  0  0
  150.3840  137.0087  155.5057 C   0  0  0  0  0  0  0  0  0  0  0  0
  151.2501  136.1419  155.3888 O   0  0  0  0  0  0  0  0  0  0  0  0
  150.5919  138.3463  155.4878 N   0  0  0  0  0  0  0  0  0  0  0  0
  151.8762  139.0243  155.3274 C   0  0  0  0  0  0  0  0  0  0  0  0
  152.9683  138.3887  156.2118 C   0  0  1  0  0  0  0  0  0  0  0  0
  154.2522  138.7201  155.7222 O   0  0  0  0  0  0  0  0  0  0  0  0
  152.8961  138.8416  157.6799 C   0  0  0  0  0  0  0  0  0  0  0  0
  153.2667  140.2072  157.7896 O   0  0  0  0  0  0  0  0  0  0  0  0
  153.2357  140.6818  159.1241 C   0  0  0  0  0  0  0  0  0  0  0  0
  152.5199  142.0147  159.2144 C   0  0  0  0  0  0  0  0  0  0  0  0
  151.4890  142.3243  158.3023 C   0  0  0  0  0  0  0  0  0  0  0  0
  150.8176  143.5599  158.3847 C   0  0  0  0  0  0  0  0  0  0  0  0
  151.1732  144.4898  159.3807 C   0  0  0  0  0  0  0  0  0  0  0  0
  152.1999  144.1830  160.2946 C   0  0  0  0  0  0  0  0  0  0  0  0
  152.8722  142.9477  160.2138 C   0  0  0  0  0  0  0  0  0  0  0  0
  153.8560  142.6622  161.1004 F   0  0  0  0  0  0  0  0  0  0  0  0
  149.3708  139.0038  155.6961 C   0  0  0  0  0  0  0  0  0  0  0  0
  149.0588  140.3717  155.7870 C   0  0  0  0  0  0  0  0  0  0  0  0
  147.7043  140.7118  156.0124 C   0  0  0  0  0  0  0  0  0  0  0  0
  146.7132  139.7041  156.1425 C   0  0  0  0  0  0  0  0  0  0  0  0
  147.0556  138.3345  156.0506 C   0  0  0  0  0  0  0  0  0  0  0  0
  148.4078  138.0251  155.8245 C   0  0  0  0  0  0  0  0  0  0  0  0
  148.9984  134.6983  155.3704 H   0  0  0  0  0  0  0  0  0  0  0  0
  147.4445  135.5173  155.2530 H   0  0  0  0  0  0  0  0  0  0  0  0
  148.1889  135.2626  156.8361 H   0  0  0  0  0  0  0  0  0  0  0  0
  152.1801  139.0426  154.2791 H   0  0  0  0  0  0  0  0  0  0  0  0
  151.7368  140.0689  155.6083 H   0  0  0  0  0  0  0  0  0  0  0  0
  152.8803  137.3015  156.1920 H   0  0  0  0  0  0  0  0  0  0  0  0
  154.2947  139.6560  155.5970 H   0  0  0  0  0  0  0  0  0  0  0  0
  151.8709  138.7286  158.0361 H   0  0  0  0  0  0  0  0  0  0  0  0
  153.5254  138.2122  158.3118 H   0  0  0  0  0  0  0  0  0  0  0  0
  152.7315  139.9601  159.7692 H   0  0  0  0  0  0  0  0  0  0  0  0
  154.2533  140.7897  159.5035 H   0  0  0  0  0  0  0  0  0  0  0  0
  151.2087  141.6141  157.5381 H   0  0  0  0  0  0  0  0  0  0  0  0
  150.0291  143.7934  157.6845 H   0  0  0  0  0  0  0  0  0  0  0  0
  150.6586  145.4371  159.4444 H   0  0  0  0  0  0  0  0  0  0  0  0
  152.4717  144.8958  161.0592 H   0  0  0  0  0  0  0  0  0  0  0  0
  149.8176  141.1345  155.6916 H   0  0  0  0  0  0  0  0  0  0  0  0
  147.4214  141.7515  156.0881 H   0  0  0  0  0  0  0  0  0  0  0  0
  145.6851  139.9857  156.3158 H   0  0  0  0  0  0  0  0  0  0  0  0
  146.3072  137.5626  156.1526 H   0  0  0  0  0  0  0  0  0  0  0  0
  1  2  1  0  0  0  0
  1 25  1  0  0  0  0
  1 26  1  0  0  0  0
  1 27  1  0  0  0  0
  2 24  1  0  0  0  0
  2  3  1  0  0  0  0
  3  4  2  0  0  0  0
  3  5  1  0  0  0  0
  5  6  1  0  0  0  0
  5 19  1  0  0  0  0
  6  7  1  0  0  0  0
  6 28  1  0  0  0  0
  6 29  1  0  0  0  0
  7  8  1  0  0  0  0
  7  9  1  0  0  0  0
  7 30  1  0  0  0  0
  8 31  1  0  0  0  0
  9 10  1  0  0  0  0
  9 32  1  0  0  0  0
  9 33  1  0  0  0  0
 10 11  1  0  0  0  0
 11 12  1  0  0  0  0
 11 34  1  0  0  0  0
 11 35  1  0  0  0  0
 12 17  1  0  0  0  0
 12 13  2  0  0  0  0
 13 14  1  0  0  0  0
 13 36  1  0  0  0  0
 14 15  2  0  0  0  0
 14 37  1  0  0  0  0
 15 16  1  0  0  0  0
 15 38  1  0  0  0  0
 16 17  2  0  0  0  0
 16 39  1  0  0  0  0
 17 18  1  0  0  0  0
 19 24  2  0  0  0  0
 19 20  1  0  0  0  0
 20 21  2  0  0  0  0
 20 40  1  0  0  0  0
 21 22  1  0  0  0  0
 21 41  1  0  0  0  0
 22 23  2  0  0  0  0
 22 42  1  0  0  0  0
 23 24  1  0  0  0  0
 23 43  1  0  0  0  0
M  END
> <s_m_source_file>
AV-unprocessed.smi

> <i_m_source_file_index>
422

> <i_lp_mmshare_version>
43012

> <i_f3d_flags>
0

> <s_epik_input>
W2NIXTFbY0hdW2NIXVtjSF1jKGMxMiluKFtDSDNdKWMoPU8pbjJbQ0gyXVtDQEhdKFtPSF0pW0NIMl1PW0NIMl1jM1tjSF1bY0hdW2NIXVtjSF1jM0Y=

> <s_epik_cmdline>
J2VwaWtfcHl0aG9uJywgJy1waCcsICc3LjAnLCAnLXRuJywgJzgnLCAnLW1hJywgJzIwMCcsICctbWV0YWxfYmluZGluZycsICctaW1hZScsICc8aW5maWxlLm1hZT4nLCAnLW9tYWUnLCAnPG91dGZpbGUubWFlPic=

> <r_lp_tautomer_probability>
1

> <r_epik_Ionization_Penalty>
1.0795e-06

> <r_epik_Ionization_Penalty_Charging>
2.82452e-09

> <r_epik_Ionization_Penalty_Neutral>
1.07667e-06

> <r_epik_State_Penalty>
-0

> <r_epik_Charging_Adjusted_Penalty>
2.82452e-09

> <i_epik_Tot_Q>
0

> <i_epik_Tot_abs_Q>
0

> <r_epik_Metal_State_Penalty>
-0

> <b_epik_Metal_Only>
0

> <s_lp_Force_Field>
OPLS_2005

> <r_lp_Energy>
48.6782

> <b_lp_Chiralities_Consistent>
1

> <s_lp_Variant>
AV-unprocessed.smi:422-2

> <Gold.Version>
5.8.1

> <Gold.Id.Protein>
6NUR|6NUR_protein|mol2

> <Gold.PLP.Fitness>
52.0948

> <Gold.PLP.PLP>
-48.1173

> <Gold.PLP.part.hbond>
-3.0000

> <Gold.PLP.part.metal>
0.0000

> <Gold.PLP.part.buried>
-2.1344

> <Gold.PLP.part.nonpolar>
-42.4091

> <Gold.PLP.part.repulsive>
0.0778

> <Gold.PLP.ligand.clash>
0.0000

> <Gold.PLP.ligand.torsion>
1.0887

> <Gold.PLP.Chemscore.Hbond>
2.0000

> <Gold.PLP.Chemscore.CHOScore>
0.0000

> <Gold.PLP.Chemscore.Metal>
0.0000

> <Gold.Chemscore.Hbonds>
donor molecule, donor type, donor heavy atom, donor atom, acceptor molecule, acceptor atom, score
      P1  H  7997  8010       L1    10  0.70
      P1  H 10752 10765       L1     4  1.00

> <Gold.PLP.Chemscore.Internal.Correction>
0.1549

> <Gold.Rescore>
     Score         DG    S(hbond)    S(metal)    S(lipo)     H(rot)  DE(clash)    DE(int)     intcor
     16.52     -19.88       1.79        0.00     124.04       2.38       2.44       0.92       ----

> <Gold.Chemscore.Fitness>
16.5200

> <Gold.Chemscore.DG>
-19.8818

> <Gold.Chemscore.ZeroCoef>
-5.4800

> <Gold.Chemscore.Hbond>
1.7916

> <Gold.Chemscore.Metal>
0.0000

> <Gold.Chemscore.Lipo>
124.0409

> <Gold.Chemscore.Internal_Hbond>
0.0000

> <Gold.Chemscore.DEClash>
2.4426

> <Gold.Chemscore.DEInternal>
0.9192

> <Gold.Chemscore.Rot>
2.3809

> <Gold.Chemscore.Internal.Correction>
   9.000000E+99

> <Gold.Chemscore.Hbonds>
donor molecule, donor type, donor heavy atom, donor atom, acceptor molecule, acceptor atom, score
      P1  H  7997  8010       L1    10  0.08
      P1  H 10752 10765       L1     4  0.98

> <Gold.Chemscore.Hbond.Weighted>
-5.9841

> <Gold.Chemscore.Metal.Weighted>
-0.0000

> <Gold.Chemscore.Lipo.Weighted>
-14.5128

> <Gold.Chemscore.Internal_Hbond.Weighted>
0.0000

> <Gold.Chemscore.DEClash.Weighted>
2.4426

> <Gold.Chemscore.DEInternal.Weighted>
0.9192

> <Gold.Chemscore.Rot.Weighted>
6.0951

> <Gold.Chemscore.Internal.Correction.Weighted>
   9.000000E+99

> <Gold.Protein.RotatedTorsions>
[ 6907 6896 6895 6894 ] final  -77.54 input  -60.11 | X-H torsion
[ 7974 7965 7964 7962 ] final  -24.81 input  175.53 | X-H torsion
[ 8008 7997 7996 7995 ] final   40.66 input   59.86 | X-H torsion
[ 10167 10162 10161 10158 ] final -124.52 input  -65.29 | X-H torsion
[ 10718 10713 10712 10709 ] final  -54.66 input   66.30 | X-H torsion
[ 10763 10752 10751 10750 ] final  174.30 input  -60.55 | X-H torsion
[ 11005 11000 10999 10996 ] final  -90.04 input  -57.11 | X-H torsion

> <Gold.Protein.ActiveResidues>
 VAL166  LYS551  ARG553  GLY616  TRP617  ASP618  TYR619  PRO620  LYS621  CYS622 
 ASP623  PHE694  ASN695  SER759  ASP760  ASP761  ALA762  ILE779  LEU786  VAL792 
 PHE793  MET794  SER795  GLU796  ALA797  LYS798  CYS799  TRP800  GLU811  SER814 

> <Gold.Protein.RotatedAtoms>
  150.6996  134.4407  159.5290 H   0  0  0  0  0  0  0  0  0  0  0  0  # atno 6907 bound_to 6896
  152.2117  134.8492  160.0505 H   0  0  0  0  0  0  0  0  0  0  0  0  # atno 6908 bound_to 6896
  151.9375  133.3593  159.3990 H   0  0  0  0  0  0  0  0  0  0  0  0  # atno 6909 bound_to 6896
  146.1531  140.4802  142.8603 H   0  0  0  0  0  0  0  0  0  0  0  0  # atno 7974 bound_to 7965
  155.2568  140.3356  155.4277 H   0  0  0  0  0  0  0  0  0  0  0  0  # atno 8008 bound_to 7997
  156.2192  140.1802  156.7561 H   0  0  0  0  0  0  0  0  0  0  0  0  # atno 8009 bound_to 7997
  154.5799  140.0655  156.9073 H   0  0  0  0  0  0  0  0  0  0  0  0  # atno 8010 bound_to 7997
  139.9919  143.5632  152.2338 H   0  0  0  0  0  0  0  0  0  0  0  0  # atno 10167 bound_to 10162
  156.1432  130.4154  150.0068 H   0  0  0  0  0  0  0  0  0  0  0  0  # atno 10718 bound_to 10713
  154.4520  135.2765  155.1774 H   0  0  0  0  0  0  0  0  0  0  0  0  # atno 10763 bound_to 10752
  154.3597  135.6132  153.5688 H   0  0  0  0  0  0  0  0  0  0  0  0  # atno 10764 bound_to 10752
  152.9848  135.5831  154.4866 H   0  0  0  0  0  0  0  0  0  0  0  0  # atno 10765 bound_to 10752
  141.1573  133.7667  156.9681 H   0  0  0  0  0  0  0  0  0  0  0  0  # atno 11005 bound_to 11000
  144.7929  140.6066  143.6529 LP  0  0  0  0  0  0  0  0  0  0  0  0  # atno 17320 bound_to 7965
  145.4775  139.1498  143.3780 LP  0  0  0  0  0  0  0  0  0  0  0  0  # atno 17321 bound_to 7965
  139.6334  144.7647  151.2489 LP  0  0  0  0  0  0  0  0  0  0  0  0  # atno 17342 bound_to 10162
  140.7451  143.6440  150.8308 LP  0  0  0  0  0  0  0  0  0  0  0  0  # atno 17343 bound_to 10162
  156.7947  130.9269  151.3646 LP  0  0  0  0  0  0  0  0  0  0  0  0  # atno 17370 bound_to 10713
  157.6594  130.8953  149.9797 LP  0  0  0  0  0  0  0  0  0  0  0  0  # atno 17371 bound_to 10713
  140.1148  134.9454  157.2118 LP  0  0  0  0  0  0  0  0  0  0  0  0  # atno 17394 bound_to 11000
  140.3147  134.2983  155.7259 LP  0  0  0  0  0  0  0  0  0  0  0  0  # atno 17395 bound_to 11000

$$$$
