AV-unprocessed.smi:54|AV-procd|sdf|535|dock9
  -GOLD-   2262016413D 1   1.00000     0.00000
 Structure written by MMmdl.
 44 46  0  0  0  0  0  0  0  0  1 V2000
  152.3689  145.3925  159.0545 C   0  0  0  0  0  0  0  0  0  0  0  0
  151.0851  144.5487  159.1130 C   0  0  0  0  0  0  0  0  0  0  0  0
  150.5905  144.3832  160.5591 C   0  0  0  0  0  0  0  0  0  0  0  0
  151.3103  143.1810  158.4598 C   0  0  0  0  0  0  0  0  0  0  0  0
  152.1352  142.3754  158.8917 O   0  0  0  0  0  0  0  0  0  0  0  0
  150.4792  142.8892  157.3090 N   0  0  0  0  0  0  0  0  0  0  0  0
  150.5229  141.7600  156.5695 C   0  0  0  0  0  0  0  0  0  0  0  0
  149.4527  141.2743  155.9583 N   0  0  0  0  0  0  0  0  0  0  0  0
  149.6624  140.1157  155.2603 C   0  0  0  0  0  0  0  0  0  0  0  0
  150.8643  139.4415  155.1574 C   0  0  0  0  0  0  0  0  0  0  0  0
  150.7196  138.3135  154.3616 N   0  0  0  0  0  0  0  0  0  0  0  0
  149.4641  138.3321  154.0180 C   0  0  0  0  0  0  0  0  0  0  0  0
  148.7367  139.3769  154.5369 N   0  0  0  0  0  0  0  0  0  0  0  0
  147.2738  139.6358  154.2942 C   0  0  2  0  0  0  0  0  0  0  0  0
  146.6197  138.4158  154.1451 O   0  0  0  0  0  0  0  0  0  0  0  0
  146.4545  138.1136  152.7670 C   0  0  1  0  0  0  0  0  0  0  0  0
  145.2553  137.1716  152.5812 C   0  0  0  0  0  0  0  0  0  0  0  0
  144.0639  137.8145  152.9808 O   0  0  0  0  0  0  0  0  0  0  0  0
  146.2437  139.4943  152.1255 C   0  0  2  0  0  0  0  0  0  0  0  0
  146.7729  139.5136  150.8155 O   0  0  0  0  0  0  0  0  0  0  0  0
  147.0019  140.4690  153.0303 C   0  0  1  0  0  0  0  0  0  0  0  0
  146.1899  141.5887  153.3224 O   0  0  0  0  0  0  0  0  0  0  0  0
  152.0270  139.9448  155.8313 C   0  0  0  0  0  0  0  0  0  0  0  0
  153.1599  139.4683  155.8546 O   0  0  0  0  0  0  0  0  0  0  0  0
  151.7625  141.1269  156.5318 N   0  0  0  0  0  0  0  0  0  0  0  0
  146.9414  140.1243  155.2114 H   0  0  0  0  0  0  0  0  0  0  0  0
  147.3625  137.6451  152.3899 H   0  0  0  0  0  0  0  0  0  0  0  0
  145.1801  139.7379  152.0977 H   0  0  0  0  0  0  0  0  0  0  0  0
  147.9350  140.8258  152.5947 H   0  0  0  0  0  0  0  0  0  0  0  0
  152.7301  145.4965  158.0305 H   0  0  0  0  0  0  0  0  0  0  0  0
  153.1699  144.9464  159.6456 H   0  0  0  0  0  0  0  0  0  0  0  0
  152.1932  146.3961  159.4423 H   0  0  0  0  0  0  0  0  0  0  0  0
  150.3123  145.0720  158.5481 H   0  0  0  0  0  0  0  0  0  0  0  0
  149.6827  143.7804  160.6019 H   0  0  0  0  0  0  0  0  0  0  0  0
  150.3601  145.3514  161.0042 H   0  0  0  0  0  0  0  0  0  0  0  0
  151.3406  143.9013  161.1876 H   0  0  0  0  0  0  0  0  0  0  0  0
  149.7594  143.5618  157.0884 H   0  0  0  0  0  0  0  0  0  0  0  0
  149.0311  137.5743  153.3812 H   0  0  0  0  0  0  0  0  0  0  0  0
  145.1755  136.8273  151.5495 H   0  0  0  0  0  0  0  0  0  0  0  0
  145.3742  136.2887  153.2100 H   0  0  0  0  0  0  0  0  0  0  0  0
  144.0533  138.6843  152.6117 H   0  0  0  0  0  0  0  0  0  0  0  0
  147.7039  139.6703  150.8723 H   0  0  0  0  0  0  0  0  0  0  0  0
  145.2934  141.2983  153.3929 H   0  0  0  0  0  0  0  0  0  0  0  0
  152.5368  141.5417  157.0290 H   0  0  0  0  0  0  0  0  0  0  0  0
  1  2  1  0  0  0  0
  1 30  1  0  0  0  0
  1 31  1  0  0  0  0
  1 32  1  0  0  0  0
  2  3  1  0  0  0  0
  2  4  1  0  0  0  0
  2 33  1  0  0  0  0
  3 34  1  0  0  0  0
  3 35  1  0  0  0  0
  3 36  1  0  0  0  0
  4  5  2  0  0  0  0
  4  6  1  0  0  0  0
  6 37  1  0  0  0  0
  6  7  1  0  0  0  0
  7 25  1  0  0  0  0
  7  8  2  0  0  0  0
  8  9  1  0  0  0  0
  9 13  1  0  0  0  0
  9 10  2  0  0  0  0
 10 11  1  0  0  0  0
 10 23  1  0  0  0  0
 11 12  2  0  0  0  0
 12 13  1  0  0  0  0
 12 38  1  0  0  0  0
 13 14  1  0  0  0  0
 14 26  1  0  0  0  0
 14 21  1  0  0  0  0
 14 15  1  0  0  0  0
 15 16  1  0  0  0  0
 16 27  1  0  0  0  0
 16 17  1  0  0  0  0
 16 19  1  0  0  0  0
 17 18  1  0  0  0  0
 17 39  1  0  0  0  0
 17 40  1  0  0  0  0
 18 41  1  0  0  0  0
 19 28  1  0  0  0  0
 19 20  1  0  0  0  0
 19 21  1  0  0  0  0
 20 42  1  0  0  0  0
 21 29  1  0  0  0  0
 21 22  1  0  0  0  0
 22 43  1  0  0  0  0
 23 24  2  0  0  0  0
 23 25  1  0  0  0  0
 25 44  1  0  0  0  0
M  END
> <s_m_source_file>
AV-unprocessed.smi

> <i_m_source_file_index>
54

> <i_lp_mmshare_version>
43012

> <i_f3d_flags>
0

> <s_epik_input>
W0NIM11bQ0hdKFtDSDNdKUMoPU8pW05IXWMobjEpW25IXWMoPU8pYyhjMTIpbltjSF1uMltDQEBIXTNPW0NASF0oW0NIMl1bT0hdKVtDQEBIXShbT0hdKVtDQEhdM1tPSF0=

> <s_epik_cmdline>
J2VwaWtfcHl0aG9uJywgJy1waCcsICc3LjAnLCAnLXRuJywgJzgnLCAnLW1hJywgJzIwMCcsICctbWV0YWxfYmluZGluZycsICctaW1hZScsICc8aW5maWxlLm1hZT4nLCAnLW9tYWUnLCAnPG91dGZpbGUubWFlPic=

> <r_lp_tautomer_probability>
0.85571

> <r_epik_Ionization_Penalty>
0.0316551

> <r_epik_Ionization_Penalty_Charging>
0.0316043

> <r_epik_Ionization_Penalty_Neutral>
5.07097e-05

> <r_epik_State_Penalty>
3.15494e-07

> <r_epik_Charging_Adjusted_Penalty>
0.0316047

> <i_epik_Tot_Q>
0

> <i_epik_Tot_abs_Q>
0

> <r_epik_Metal_State_Penalty>
0.421206

> <b_epik_Metal_Only>
0

> <s_epik_Chemistry_Notes>
This compound contains an acetal/aminal-like group ( X-CH(R)-Y where X, Y are N, S, or O) that may be acid/base labile, releasing an aldehyde.

> <s_lp_Force_Field>
OPLS_2005

> <r_lp_Energy>
37.5812

> <b_lp_Chiralities_Consistent>
1

> <s_lp_Variant>
AV-unprocessed.smi:54-7

> <Gold.Version>
5.8.1

> <Gold.Id.Protein>
6NUR|6NUR_protein|mol2

> <Gold.PLP.Fitness>
50.0492

> <Gold.PLP.PLP>
-33.9488

> <Gold.PLP.part.hbond>
-6.6333

> <Gold.PLP.part.metal>
0.0000

> <Gold.PLP.part.buried>
1.1605

> <Gold.PLP.part.nonpolar>
-30.0449

> <Gold.PLP.part.repulsive>
0.5415

> <Gold.PLP.ligand.clash>
0.0000

> <Gold.PLP.ligand.torsion>
0.9550

> <Gold.PLP.Chemscore.Hbond>
5.0000

> <Gold.PLP.Chemscore.CHOScore>
0.9918

> <Gold.PLP.Chemscore.Metal>
0.0000

> <Gold.Chemscore.Hbonds>
donor molecule, donor type, donor heavy atom, donor atom, acceptor molecule, acceptor atom, score
      L1  H     6    37       P1  8028  0.96
      L1  H    18    41       P1 10175  1.00
      L1  H    20    42       P1  7957  1.00
      L1  H    22    43       P1 10175  0.91
      P1  H  7997  8010       L1    24  0.70
      L1  C    12    38       P1  7948  0.94

> <Gold.PLP.Chemscore.Internal.Correction>
0.0352

> <Gold.Rescore>
     Score         DG    S(hbond)    S(metal)    S(lipo)     H(rot)  DE(clash)    DE(int)     intcor
     13.45     -17.03       4.20        0.00      67.40       4.05       2.64       0.95       ----

> <Gold.Chemscore.Fitness>
13.4478

> <Gold.Chemscore.DG>
-17.0348

> <Gold.Chemscore.ZeroCoef>
-5.4800

> <Gold.Chemscore.Hbond>
4.2022

> <Gold.Chemscore.Metal>
0.0000

> <Gold.Chemscore.Lipo>
67.3984

> <Gold.Chemscore.Internal_Hbond>
0.0000

> <Gold.Chemscore.DEClash>
2.6416

> <Gold.Chemscore.DEInternal>
0.9453

> <Gold.Chemscore.Rot>
4.0493

> <Gold.Chemscore.Internal.Correction>
   9.000000E+99

> <Gold.Chemscore.Hbonds>
donor molecule, donor type, donor heavy atom, donor atom, acceptor molecule, acceptor atom, score
      L1  H     6    37       P1  8028  0.83
      L1  H    18    41       P1 10175  0.99
      L1  H    20    42       P1  7957  0.70
      L1  H    22    43       P1 10175  0.19
      P1  H  7997  8010       L1    24  0.71

> <Gold.Chemscore.Hbond.Weighted>
-14.0354

> <Gold.Chemscore.Metal.Weighted>
-0.0000

> <Gold.Chemscore.Lipo.Weighted>
-7.8856

> <Gold.Chemscore.Internal_Hbond.Weighted>
0.0000

> <Gold.Chemscore.DEClash.Weighted>
2.6416

> <Gold.Chemscore.DEInternal.Weighted>
0.9453

> <Gold.Chemscore.Rot.Weighted>
10.3662

> <Gold.Chemscore.Internal.Correction.Weighted>
   9.000000E+99

> <Gold.Protein.RotatedTorsions>
[ 6907 6896 6895 6894 ] final  155.77 input  -60.11 | X-H torsion
[ 7974 7965 7964 7962 ] final -141.03 input  175.53 | X-H torsion
[ 8008 7997 7996 7995 ] final   91.64 input   59.86 | X-H torsion
[ 10167 10162 10161 10158 ] final  -70.14 input  -65.29 | X-H torsion
[ 10718 10713 10712 10709 ] final  -30.65 input   66.30 | X-H torsion
[ 10763 10752 10751 10750 ] final -115.46 input  -60.55 | X-H torsion
[ 11005 11000 10999 10996 ] final  -68.97 input  -57.11 | X-H torsion

> <Gold.Protein.ActiveResidues>
 VAL166  LYS551  ARG553  GLY616  TRP617  ASP618  TYR619  PRO620  LYS621  CYS622 
 ASP623  PHE694  ASN695  SER759  ASP760  ASP761  ALA762  ILE779  LEU786  VAL792 
 PHE793  MET794  SER795  GLU796  ALA797  LYS798  CYS799  TRP800  GLU811  SER814 

> <Gold.Protein.RotatedAtoms>
  152.0393  133.3970  159.4329 H   0  0  0  0  0  0  0  0  0  0  0  0  # atno 6907 bound_to 6896
  150.6876  134.3433  159.4886 H   0  0  0  0  0  0  0  0  0  0  0  0  # atno 6908 bound_to 6896
  152.1229  134.9191  160.0613 H   0  0  0  0  0  0  0  0  0  0  0  0  # atno 6909 bound_to 6896
  144.8551  140.6128  143.5365 H   0  0  0  0  0  0  0  0  0  0  0  0  # atno 7974 bound_to 7965
  156.0261  140.3335  155.7090 H   0  0  0  0  0  0  0  0  0  0  0  0  # atno 8008 bound_to 7997
  155.5953  140.0650  157.2765 H   0  0  0  0  0  0  0  0  0  0  0  0  # atno 8009 bound_to 7997
  154.4334  140.1820  156.1104 H   0  0  0  0  0  0  0  0  0  0  0  0  # atno 8010 bound_to 7997
  140.5376  143.2317  151.7149 H   0  0  0  0  0  0  0  0  0  0  0  0  # atno 10167 bound_to 10162
  156.3972  130.4383  149.7350 H   0  0  0  0  0  0  0  0  0  0  0  0  # atno 10718 bound_to 10713
  154.8482  135.4381  154.1667 H   0  0  0  0  0  0  0  0  0  0  0  0  # atno 10763 bound_to 10752
  153.2790  135.6952  153.7410 H   0  0  0  0  0  0  0  0  0  0  0  0  # atno 10764 bound_to 10752
  153.6621  135.3433  155.3105 H   0  0  0  0  0  0  0  0  0  0  0  0  # atno 10765 bound_to 10752
  141.1544  133.6753  156.6528 H   0  0  0  0  0  0  0  0  0  0  0  0  # atno 11005 bound_to 11000
  145.4423  139.1534  143.3963 LP  0  0  0  0  0  0  0  0  0  0  0  0  # atno 17320 bound_to 7965
  146.2816  140.4545  142.8774 LP  0  0  0  0  0  0  0  0  0  0  0  0  # atno 17321 bound_to 7965
  139.4976  144.4019  152.0172 LP  0  0  0  0  0  0  0  0  0  0  0  0  # atno 17342 bound_to 10162
  140.3126  144.3521  150.6030 LP  0  0  0  0  0  0  0  0  0  0  0  0  # atno 17343 bound_to 10162
  156.4380  130.7847  151.2868 LP  0  0  0  0  0  0  0  0  0  0  0  0  # atno 17370 bound_to 10713
  157.7502  131.0133  150.3421 LP  0  0  0  0  0  0  0  0  0  0  0  0  # atno 17371 bound_to 10713
  140.3307  134.7931  157.4324 LP  0  0  0  0  0  0  0  0  0  0  0  0  # atno 17394 bound_to 11000
  140.1019  134.5461  155.8345 LP  0  0  0  0  0  0  0  0  0  0  0  0  # atno 17395 bound_to 11000

$$$$
