AV-unprocessed.smi:1047|AV-procd|sdf|4572|dock5
  -GOLD-   22720 3 33D 1   1.00000     0.00000
 Structure written by MMmdl.
 56 58  0  0  0  0  0  0  0  0  2 V2000
  149.1475  134.5835  154.6690 C   0  0  0  0  0  0  0  0  0  0  0  0
  147.6503  134.6209  154.3308 C   0  0  0  0  0  0  0  0  0  0  0  0
  147.3172  135.6727  153.3380 N   0  3  1  0  0  0  0  0  0  0  0  0
  146.0192  135.4244  152.6674 C   0  0  0  0  0  0  0  0  0  0  0  0
  145.7417  136.5098  151.6149 C   0  0  0  0  0  0  0  0  0  0  0  0
  145.7767  137.7891  152.2335 O   0  0  0  0  0  0  0  0  0  0  0  0
  147.0528  138.0844  152.7923 C   0  0  1  0  0  0  0  0  0  0  0  0
  147.0068  139.5151  153.3488 C   0  0  0  0  0  0  0  0  0  0  0  0
  148.0523  139.7180  154.3448 N   0  0  0  0  0  0  0  0  0  0  0  0
  148.4108  141.1206  154.5431 C   0  0  0  0  0  0  0  0  0  0  0  0
  149.0041  141.3702  155.9416 C   0  0  2  0  0  0  0  0  0  0  0  0
  148.2133  142.3263  156.6215 O   0  0  0  0  0  0  0  0  0  0  0  0
  150.4929  141.7745  155.9259 C   0  0  0  0  0  0  0  0  0  0  0  0
  151.1782  141.4086  157.1520 N   0  0  0  0  0  0  0  0  0  0  0  0
  151.7098  140.2096  157.4574 C   0  0  0  0  0  0  0  0  0  0  0  0
  152.2949  140.0883  158.6455 N   0  0  0  0  0  0  0  0  0  0  0  0
  152.1269  141.3584  159.1705 C   0  0  0  0  0  0  0  0  0  0  0  0
  152.5256  141.8970  160.4133 C   0  0  0  0  0  0  0  0  0  0  0  0
  152.2452  143.2421  160.7439 C   0  0  0  0  0  0  0  0  0  0  0  0
  152.6954  143.7807  162.0903 C   0  0  0  0  0  0  0  0  0  0  0  0
  151.5541  144.0707  159.8238 C   0  0  0  0  0  0  0  0  0  0  0  0
  151.2456  145.5201  160.1555 C   0  0  0  0  0  0  0  0  0  0  0  0
  151.1452  143.5475  158.5794 C   0  0  0  0  0  0  0  0  0  0  0  0
  151.4323  142.2083  158.2610 C   0  0  0  0  0  0  0  0  0  0  0  0
  147.3556  137.0488  153.8930 C   0  0  0  0  0  0  0  0  0  0  0  0
  149.3688  133.7461  155.3310 H   0  0  0  0  0  0  0  0  0  0  0  0
  149.4763  135.4901  155.1759 H   0  0  0  0  0  0  0  0  0  0  0  0
  149.7517  134.4608  153.7697 H   0  0  0  0  0  0  0  0  0  0  0  0
  147.3772  133.6472  153.9214 H   0  0  0  0  0  0  0  0  0  0  0  0
  147.0542  134.7545  155.2347 H   0  0  0  0  0  0  0  0  0  0  0  0
  146.0285  134.4445  152.1883 H   0  0  0  0  0  0  0  0  0  0  0  0
  145.2202  135.4116  153.4104 H   0  0  0  0  0  0  0  0  0  0  0  0
  146.4691  136.4630  150.8028 H   0  0  0  0  0  0  0  0  0  0  0  0
  144.7579  136.3591  151.1703 H   0  0  0  0  0  0  0  0  0  0  0  0
  147.8212  138.0219  152.0186 H   0  0  0  0  0  0  0  0  0  0  0  0
  147.1068  140.2337  152.5341 H   0  0  0  0  0  0  0  0  0  0  0  0
  146.0346  139.6965  153.8088 H   0  0  0  0  0  0  0  0  0  0  0  0
  148.8825  139.1964  154.0800 H   0  0  0  0  0  0  0  0  0  0  0  0
  149.1274  141.4360  153.7835 H   0  0  0  0  0  0  0  0  0  0  0  0
  147.5272  141.7462  154.4113 H   0  0  0  0  0  0  0  0  0  0  0  0
  148.9119  140.4419  156.5069 H   0  0  0  0  0  0  0  0  0  0  0  0
  148.2440  143.1381  156.1381 H   0  0  0  0  0  0  0  0  0  0  0  0
  151.0033  141.2934  155.0905 H   0  0  0  0  0  0  0  0  0  0  0  0
  150.6036  142.8492  155.7798 H   0  0  0  0  0  0  0  0  0  0  0  0
  151.6624  139.3779  156.7694 H   0  0  0  0  0  0  0  0  0  0  0  0
  153.0524  141.2657  161.1136 H   0  0  0  0  0  0  0  0  0  0  0  0
  153.4213  144.5826  161.9560 H   0  0  0  0  0  0  0  0  0  0  0  0
  153.1636  143.0029  162.6940 H   0  0  0  0  0  0  0  0  0  0  0  0
  151.8461  144.1719  162.6506 H   0  0  0  0  0  0  0  0  0  0  0  0
  150.7406  146.0189  159.3279 H   0  0  0  0  0  0  0  0  0  0  0  0
  152.1644  146.0683  160.3648 H   0  0  0  0  0  0  0  0  0  0  0  0
  150.5975  145.5821  161.0299 H   0  0  0  0  0  0  0  0  0  0  0  0
  150.6148  144.1664  157.8708 H   0  0  0  0  0  0  0  0  0  0  0  0
  146.6298  137.1371  154.7032 H   0  0  0  0  0  0  0  0  0  0  0  0
  148.3369  137.2549  154.3191 H   0  0  0  0  0  0  0  0  0  0  0  0
  148.0226  135.6246  152.6166 H   0  0  0  0  0  0  0  0  0  0  0  0
  1  2  1  0  0  0  0
  1 26  1  0  0  0  0
  1 27  1  0  0  0  0
  1 28  1  0  0  0  0
  2  3  1  0  0  0  0
  2 29  1  0  0  0  0
  2 30  1  0  0  0  0
  3 25  1  0  0  0  0
  3  4  1  0  0  0  0
  3 56  1  0  0  0  0
  4  5  1  0  0  0  0
  4 31  1  0  0  0  0
  4 32  1  0  0  0  0
  5  6  1  0  0  0  0
  5 33  1  0  0  0  0
  5 34  1  0  0  0  0
  6  7  1  0  0  0  0
  7  8  1  0  0  0  0
  7 25  1  0  0  0  0
  7 35  1  0  0  0  0
  8  9  1  0  0  0  0
  8 36  1  0  0  0  0
  8 37  1  0  0  0  0
  9 10  1  0  0  0  0
  9 38  1  0  0  0  0
 10 11  1  0  0  0  0
 10 39  1  0  0  0  0
 10 40  1  0  0  0  0
 11 12  1  0  0  0  0
 11 13  1  0  0  0  0
 11 41  1  0  0  0  0
 12 42  1  0  0  0  0
 13 14  1  0  0  0  0
 13 43  1  0  0  0  0
 13 44  1  0  0  0  0
 14 24  1  0  0  0  0
 14 15  1  0  0  0  0
 15 16  2  0  0  0  0
 15 45  1  0  0  0  0
 16 17  1  0  0  0  0
 17 24  2  0  0  0  0
 17 18  1  0  0  0  0
 18 19  2  0  0  0  0
 18 46  1  0  0  0  0
 19 20  1  0  0  0  0
 19 21  1  0  0  0  0
 20 47  1  0  0  0  0
 20 48  1  0  0  0  0
 20 49  1  0  0  0  0
 21 22  1  0  0  0  0
 21 23  2  0  0  0  0
 22 50  1  0  0  0  0
 22 51  1  0  0  0  0
 22 52  1  0  0  0  0
 23 24  1  0  0  0  0
 23 53  1  0  0  0  0
 25 54  1  0  0  0  0
 25 55  1  0  0  0  0
M  CHG  1   3   1
M  END
> <s_m_source_file>
AV-unprocessed.smi

> <i_m_source_file_index>
1047

> <i_lp_mmshare_version>
43012

> <i_f3d_flags>
0

> <s_epik_input>
W0NIM11bQ0gyXU4xW0NIMl1bQ0gyXU9bQ0BIXShbQ0gyXTEpW0NIMl1bTkhdW0NIMl1bQ0BIXShbT0hdKVtDSDJdbihbY0hdbjIpYyhjMjMpW2NIXWMoW0NIM10pYyhbY0hdMylbQ0gzXQ==

> <s_epik_cmdline>
J2VwaWtfcHl0aG9uJywgJy1waCcsICc3LjAnLCAnLXRuJywgJzgnLCAnLW1hJywgJzIwMCcsICctbWV0YWxfYmluZGluZycsICctaW1hZScsICc8aW5maWxlLm1hZT4nLCAnLW9tYWUnLCAnPG91dGZpbGUubWFlPic=

> <r_epik_Ionization_Penalty>
1.19246

> <r_epik_Ionization_Penalty_Charging>
0.210041

> <r_epik_Ionization_Penalty_Neutral>
0.982415

> <r_epik_State_Penalty>
1.57595

> <r_epik_Charging_Adjusted_Penalty>
1.78599

> <i_epik_Tot_Q>
1

> <i_epik_Tot_abs_Q>
1

> <r_epik_Metal_State_Penalty>
1.46172

> <b_epik_Metal_Only>
0

> <s_lp_Force_Field>
OPLS_2005

> <r_lp_Energy>
30.4626

> <b_lp_Chiralities_Consistent>
1

> <s_lp_Variant>
AV-unprocessed.smi:1047-13

> <Gold.Version>
5.8.1

> <Gold.Id.Protein>
6NUR|6NUR_protein|mol2

> <Gold.PLP.Fitness>
49.0756

> <Gold.PLP.PLP>
-43.7468

> <Gold.PLP.part.hbond>
-1.8299

> <Gold.PLP.part.metal>
0.0000

> <Gold.PLP.part.buried>
-2.5636

> <Gold.PLP.part.nonpolar>
-40.0010

> <Gold.PLP.part.repulsive>
0.2796

> <Gold.PLP.ligand.clash>
0.0000

> <Gold.PLP.ligand.torsion>
1.9305

> <Gold.PLP.Chemscore.Hbond>
3.0000

> <Gold.PLP.Chemscore.CHOScore>
0.0000

> <Gold.PLP.Chemscore.Metal>
0.0000

> <Gold.Chemscore.Hbonds>
donor molecule, donor type, donor heavy atom, donor atom, acceptor molecule, acceptor atom, score
      L1  H     3    56       P1  7948  0.98
      L1  H    12    42       P1  8028  1.00

> <Gold.PLP.Chemscore.Internal.Correction>
0.1897

> <Gold.Rescore>
     Score         DG    S(hbond)    S(metal)    S(lipo)     H(rot)  DE(clash)    DE(int)     intcor
     17.50     -19.69       1.76        0.00     128.55       2.62       0.32       1.88       ----

> <Gold.Chemscore.Fitness>
17.4998

> <Gold.Chemscore.DG>
-19.6930

> <Gold.Chemscore.ZeroCoef>
-5.4800

> <Gold.Chemscore.Hbond>
1.7613

> <Gold.Chemscore.Metal>
0.0000

> <Gold.Chemscore.Lipo>
128.5453

> <Gold.Chemscore.Internal_Hbond>
0.0000

> <Gold.Chemscore.DEClash>
0.3173

> <Gold.Chemscore.DEInternal>
1.8758

> <Gold.Chemscore.Rot>
2.6209

> <Gold.Chemscore.Internal.Correction>
   9.000000E+99

> <Gold.Chemscore.Hbonds>
donor molecule, donor type, donor heavy atom, donor atom, acceptor molecule, acceptor atom, score
      L1  H     3    56       P1  7948  0.48
      L1  H    12    42       P1  8028  0.69

> <Gold.Chemscore.Hbond.Weighted>
-5.8828

> <Gold.Chemscore.Metal.Weighted>
-0.0000

> <Gold.Chemscore.Lipo.Weighted>
-15.0398

> <Gold.Chemscore.Internal_Hbond.Weighted>
0.0000

> <Gold.Chemscore.DEClash.Weighted>
0.3173

> <Gold.Chemscore.DEInternal.Weighted>
1.8758

> <Gold.Chemscore.Rot.Weighted>
6.7096

> <Gold.Chemscore.Internal.Correction.Weighted>
   9.000000E+99

> <Gold.Protein.RotatedTorsions>
[ 6907 6896 6895 6894 ] final -103.88 input  -60.11 | X-H torsion
[ 7974 7965 7964 7962 ] final   -7.06 input  175.53 | X-H torsion
[ 8008 7997 7996 7995 ] final  -59.33 input   59.86 | X-H torsion
[ 10167 10162 10161 10158 ] final  153.21 input  -65.29 | X-H torsion
[ 10718 10713 10712 10709 ] final   86.51 input   66.30 | X-H torsion
[ 10763 10752 10751 10750 ] final  -34.16 input  -60.55 | X-H torsion
[ 11005 11000 10999 10996 ] final -120.88 input  -57.11 | X-H torsion

> <Gold.Protein.ActiveResidues>
 VAL166  LYS551  ARG553  GLY616  TRP617  ASP618  TYR619  PRO620  LYS621  CYS622 
 ASP623  PHE694  ASN695  SER759  ASP760  ASP761  ALA762  ILE779  LEU786  VAL792 
 PHE793  MET794  SER795  GLU796  ALA797  LYS798  CYS799  TRP800  GLU811  SER814 

> <Gold.Protein.RotatedAtoms>
  150.7261  134.0362  159.3749 H   0  0  0  0  0  0  0  0  0  0  0  0  # atno 6907 bound_to 6896
  151.8333  135.0612  160.0449 H   0  0  0  0  0  0  0  0  0  0  0  0  # atno 6908 bound_to 6896
  152.2917  133.5531  159.5598 H   0  0  0  0  0  0  0  0  0  0  0  0  # atno 6909 bound_to 6896
  146.2316  140.2263  142.8339 H   0  0  0  0  0  0  0  0  0  0  0  0  # atno 7974 bound_to 7965
  154.4348  140.1064  156.6099 H   0  0  0  0  0  0  0  0  0  0  0  0  # atno 8008 bound_to 7997
  155.5821  140.3491  155.4524 H   0  0  0  0  0  0  0  0  0  0  0  0  # atno 8009 bound_to 7997
  156.0311  140.1261  157.0247 H   0  0  0  0  0  0  0  0  0  0  0  0  # atno 8010 bound_to 7997
  139.4828  144.5292  151.7751 H   0  0  0  0  0  0  0  0  0  0  0  0  # atno 10167 bound_to 10162
  157.6929  131.0218  150.2984 H   0  0  0  0  0  0  0  0  0  0  0  0  # atno 10718 bound_to 10713
  153.8420  135.6856  153.4802 H   0  0  0  0  0  0  0  0  0  0  0  0  # atno 10763 bound_to 10752
  153.1448  135.4642  154.9547 H   0  0  0  0  0  0  0  0  0  0  0  0  # atno 10764 bound_to 10752
  154.7840  135.3278  154.7873 H   0  0  0  0  0  0  0  0  0  0  0  0  # atno 10765 bound_to 10752
  141.0111  134.0263  157.3412 H   0  0  0  0  0  0  0  0  0  0  0  0  # atno 11005 bound_to 11000
  144.9593  140.8258  143.5523 LP  0  0  0  0  0  0  0  0  0  0  0  0  # atno 17320 bound_to 7965
  145.2232  139.2149  143.5082 LP  0  0  0  0  0  0  0  0  0  0  0  0  # atno 17321 bound_to 7965
  140.4816  144.1441  150.5933 LP  0  0  0  0  0  0  0  0  0  0  0  0  # atno 17342 bound_to 10162
  140.4271  143.2585  151.9642 LP  0  0  0  0  0  0  0  0  0  0  0  0  # atno 17343 bound_to 10162
  156.3504  130.3830  149.7334 LP  0  0  0  0  0  0  0  0  0  0  0  0  # atno 17370 bound_to 10713
  156.4813  130.8042  151.3057 LP  0  0  0  0  0  0  0  0  0  0  0  0  # atno 17371 bound_to 10713
  139.9090  135.0186  156.7613 LP  0  0  0  0  0  0  0  0  0  0  0  0  # atno 17394 bound_to 11000
  140.6731  133.9541  155.7868 LP  0  0  0  0  0  0  0  0  0  0  0  0  # atno 17395 bound_to 11000

$$$$
