AV-unprocessed.smi:763|AV-procd|sdf|3640|dock10
  -GOLD-   22720 1 43D 1   1.00000     0.00000
 Structure written by MMmdl.
 43 44  0  0  0  0  0  0  0  0  2 V2000
  145.5889  143.2910  161.3075 C   0  0  0  0  0  0  0  0  0  0  0  0
  146.9600  143.6527  161.2557 O   0  0  0  0  0  0  0  0  0  0  0  0
  147.1852  145.0218  160.9477 C   0  0  0  0  0  0  0  0  0  0  0  0
  148.5933  145.2620  160.3841 C   0  0  0  0  0  0  0  0  0  0  0  0
  148.8337  144.3055  159.3570 O   0  0  0  0  0  0  0  0  0  0  0  0
  150.1091  143.7925  159.2040 C   0  0  0  0  0  0  0  0  0  0  0  0
  151.0863  144.2648  160.0194 N   0  0  0  0  0  0  0  0  0  0  0  0
  152.3324  143.7724  159.8831 C   0  0  0  0  0  0  0  0  0  0  0  0
  152.6673  142.7905  158.9365 C   0  0  0  0  0  0  0  0  0  0  0  0
  151.6514  142.3038  158.0945 C   0  0  0  0  0  0  0  0  0  0  0  0
  150.3307  142.8035  158.2119 C   0  0  0  0  0  0  0  0  0  0  0  0
  149.3153  142.3809  157.4390 N   0  5  0  0  0  0  0  0  0  0  0  0
  149.3671  141.1846  156.3505 S   0  0  0  0  0  0  0  0  0  0  0  0
  150.6934  141.0879  155.7216 O   0  0  0  0  0  0  0  0  0  0  0  0
  148.8103  139.9382  156.8966 O   0  0  0  0  0  0  0  0  0  0  0  0
  148.1802  141.8381  155.0574 C   0  0  2  0  0  0  0  0  0  0  0  0
  146.7088  141.7941  155.5391 C   0  0  0  0  0  0  0  0  0  0  0  0
  146.0708  140.3883  155.5087 C   0  0  0  0  0  0  0  0  0  0  0  0
  146.2837  139.6783  154.1610 C   0  0  0  0  0  0  0  0  0  0  0  0
  147.7600  139.6888  153.7304 C   0  0  0  0  0  0  0  0  0  0  0  0
  148.2862  141.1323  153.6820 C   0  0  2  0  0  0  0  0  0  0  0  0
  149.5912  141.1728  153.1439 O   0  0  0  0  0  0  0  0  0  0  0  0
  145.5010  142.2456  161.6031 H   0  0  0  0  0  0  0  0  0  0  0  0
  145.1037  143.4011  160.3378 H   0  0  0  0  0  0  0  0  0  0  0  0
  145.0487  143.8913  162.0408 H   0  0  0  0  0  0  0  0  0  0  0  0
  146.4190  145.4038  160.2713 H   0  0  0  0  0  0  0  0  0  0  0  0
  147.0809  145.5798  161.8784 H   0  0  0  0  0  0  0  0  0  0  0  0
  148.6558  146.2725  159.9774 H   0  0  0  0  0  0  0  0  0  0  0  0
  149.3420  145.1633  161.1710 H   0  0  0  0  0  0  0  0  0  0  0  0
  153.0836  144.1724  160.5477 H   0  0  0  0  0  0  0  0  0  0  0  0
  153.6779  142.4188  158.8566 H   0  0  0  0  0  0  0  0  0  0  0  0
  151.9027  141.5491  157.3644 H   0  0  0  0  0  0  0  0  0  0  0  0
  148.4609  142.8820  154.9126 H   0  0  0  0  0  0  0  0  0  0  0  0
  146.6257  142.2165  156.5406 H   0  0  0  0  0  0  0  0  0  0  0  0
  146.1204  142.4478  154.8944 H   0  0  0  0  0  0  0  0  0  0  0  0
  146.4607  139.7686  156.3132 H   0  0  0  0  0  0  0  0  0  0  0  0
  145.0022  140.4736  155.7078 H   0  0  0  0  0  0  0  0  0  0  0  0
  145.9194  138.6523  154.2201 H   0  0  0  0  0  0  0  0  0  0  0  0
  145.6840  140.1734  153.3963 H   0  0  0  0  0  0  0  0  0  0  0  0
  148.3574  139.0838  154.4129 H   0  0  0  0  0  0  0  0  0  0  0  0
  147.8516  139.2249  152.7476 H   0  0  0  0  0  0  0  0  0  0  0  0
  147.6670  141.6858  152.9747 H   0  0  0  0  0  0  0  0  0  0  0  0
  149.6693  140.4842  152.4994 H   0  0  0  0  0  0  0  0  0  0  0  0
  1  2  1  0  0  0  0
  1 23  1  0  0  0  0
  1 24  1  0  0  0  0
  1 25  1  0  0  0  0
  2  3  1  0  0  0  0
  3  4  1  0  0  0  0
  3 26  1  0  0  0  0
  3 27  1  0  0  0  0
  4  5  1  0  0  0  0
  4 28  1  0  0  0  0
  4 29  1  0  0  0  0
  5  6  1  0  0  0  0
  6 11  1  0  0  0  0
  6  7  2  0  0  0  0
  7  8  1  0  0  0  0
  8  9  2  0  0  0  0
  8 30  1  0  0  0  0
  9 10  1  0  0  0  0
  9 31  1  0  0  0  0
 10 11  2  0  0  0  0
 10 32  1  0  0  0  0
 11 12  1  0  0  0  0
 12 13  1  0  0  0  0
 13 14  2  0  0  0  0
 13 15  2  0  0  0  0
 13 16  1  0  0  0  0
 16 21  1  0  0  0  0
 16 17  1  0  0  0  0
 16 33  1  0  0  0  0
 17 18  1  0  0  0  0
 17 34  1  0  0  0  0
 17 35  1  0  0  0  0
 18 19  1  0  0  0  0
 18 36  1  0  0  0  0
 18 37  1  0  0  0  0
 19 20  1  0  0  0  0
 19 38  1  0  0  0  0
 19 39  1  0  0  0  0
 20 21  1  0  0  0  0
 20 40  1  0  0  0  0
 20 41  1  0  0  0  0
 21 22  1  0  0  0  0
 21 42  1  0  0  0  0
 22 43  1  0  0  0  0
M  CHG  1  12  -1
M  END
> <s_m_source_file>
AV-unprocessed.smi

> <i_m_source_file_index>
763

> <i_lp_mmshare_version>
43012

> <i_f3d_flags>
0

> <s_epik_input>
W0NIM11PW0NIMl1bQ0gyXU9jMW5bY0hdW2NIXVtjSF1jMVtOSF1TKD1PKSg9TylbQ0BASF0yW0NIMl1bQ0gyXVtDSDJdW0NIMl1bQ0BIXTJbT0hd

> <s_epik_cmdline>
J2VwaWtfcHl0aG9uJywgJy1waCcsICc3LjAnLCAnLXRuJywgJzgnLCAnLW1hJywgJzIwMCcsICctbWV0YWxfYmluZGluZycsICctaW1hZScsICc8aW5maWxlLm1hZT4nLCAnLW9tYWUnLCAnPG91dGZpbGUubWFlPic=

> <r_epik_Ionization_Penalty>
0.985866

> <r_epik_Ionization_Penalty_Charging>
0.984689

> <r_epik_Ionization_Penalty_Neutral>
0.00117669

> <r_epik_State_Penalty>
1.03185

> <r_epik_Charging_Adjusted_Penalty>
2.01654

> <i_epik_Tot_Q>
-1

> <i_epik_Tot_abs_Q>
1

> <r_epik_Metal_State_Penalty>
0.379327

> <b_epik_Metal_Only>
0

> <s_lp_Force_Field>
OPLS_2005

> <r_lp_Energy>
11.7701

> <b_lp_Chiralities_Consistent>
1

> <s_lp_Variant>
AV-unprocessed.smi:763-7

> <Gold.Version>
5.8.1

> <Gold.Id.Protein>
6NUR|6NUR_protein|mol2

> <Gold.PLP.Fitness>
43.9456

> <Gold.PLP.PLP>
-36.8535

> <Gold.PLP.part.hbond>
-3.6602

> <Gold.PLP.part.metal>
0.0000

> <Gold.PLP.part.buried>
-6.5016

> <Gold.PLP.part.nonpolar>
-27.1803

> <Gold.PLP.part.repulsive>
1.5482

> <Gold.PLP.ligand.clash>
0.0000

> <Gold.PLP.ligand.torsion>
1.4840

> <Gold.PLP.Chemscore.Hbond>
2.9659

> <Gold.PLP.Chemscore.CHOScore>
0.0000

> <Gold.PLP.Chemscore.Metal>
0.0000

> <Gold.Chemscore.Hbonds>
donor molecule, donor type, donor heavy atom, donor atom, acceptor molecule, acceptor atom, score
      L1  H    22    43       P1  7957  0.69
      P1  H  6933  6944       L1     2  1.00
      P1  H  7989  7998       L1    14  0.03
      P1  H  8011  8017       L1    22  0.91

> <Gold.PLP.Chemscore.Internal.Correction>
1.1623

> <Gold.Rescore>
     Score         DG    S(hbond)    S(metal)    S(lipo)     H(rot)  DE(clash)    DE(int)     intcor
     13.42     -16.65       2.30        0.00      81.20       2.35       0.43       2.80       ----

> <Gold.Chemscore.Fitness>
13.4248

> <Gold.Chemscore.DG>
-16.6536

> <Gold.Chemscore.ZeroCoef>
-5.4800

> <Gold.Chemscore.Hbond>
2.3030

> <Gold.Chemscore.Metal>
0.0000

> <Gold.Chemscore.Lipo>
81.1951

> <Gold.Chemscore.Internal_Hbond>
0.0000

> <Gold.Chemscore.DEClash>
0.4280

> <Gold.Chemscore.DEInternal>
2.8008

> <Gold.Chemscore.Rot>
2.3509

> <Gold.Chemscore.Internal.Correction>
   9.000000E+99

> <Gold.Chemscore.Hbonds>
donor molecule, donor type, donor heavy atom, donor atom, acceptor molecule, acceptor atom, score
      L1  H    22    43       P1  7957  0.65
      P1  H  6933  6944       L1     2  0.94
      P1  H  7989  7998       L1    14  0.07
      P1  H  8011  8017       L1    22  0.24

> <Gold.Chemscore.Hbond.Weighted>
-7.6920

> <Gold.Chemscore.Metal.Weighted>
-0.0000

> <Gold.Chemscore.Lipo.Weighted>
-9.4998

> <Gold.Chemscore.Internal_Hbond.Weighted>
0.0000

> <Gold.Chemscore.DEClash.Weighted>
0.4280

> <Gold.Chemscore.DEInternal.Weighted>
2.8008

> <Gold.Chemscore.Rot.Weighted>
6.0182

> <Gold.Chemscore.Internal.Correction.Weighted>
   9.000000E+99

> <Gold.Protein.RotatedTorsions>
[ 6907 6896 6895 6894 ] final  -23.61 input  -60.11 | X-H torsion
[ 7974 7965 7964 7962 ] final   91.98 input  175.53 | X-H torsion
[ 8008 7997 7996 7995 ] final  -58.61 input   59.86 | X-H torsion
[ 10167 10162 10161 10158 ] final   68.02 input  -65.29 | X-H torsion
[ 10718 10713 10712 10709 ] final   81.80 input   66.30 | X-H torsion
[ 10763 10752 10751 10750 ] final   14.83 input  -60.55 | X-H torsion
[ 11005 11000 10999 10996 ] final -148.37 input  -57.11 | X-H torsion

> <Gold.Protein.ActiveResidues>
 VAL166  LYS551  ARG553  GLY616  TRP617  ASP618  TYR619  PRO620  LYS621  CYS622 
 ASP623  PHE694  ASN695  SER759  ASP760  ASP761  ALA762  ILE779  LEU786  VAL792 
 PHE793  MET794  SER795  GLU796  ALA797  LYS798  CYS799  TRP800  GLU811  SER814 

> <Gold.Protein.RotatedAtoms>
  151.2016  135.0445  159.8874 H   0  0  0  0  0  0  0  0  0  0  0  0  # atno 6907 bound_to 6896
  152.5432  134.0844  159.8260 H   0  0  0  0  0  0  0  0  0  0  0  0  # atno 6908 bound_to 6896
  151.0985  133.5214  159.2643 H   0  0  0  0  0  0  0  0  0  0  0  0  # atno 6909 bound_to 6896
  145.4984  139.2276  143.2791 H   0  0  0  0  0  0  0  0  0  0  0  0  # atno 7974 bound_to 7965
  154.4316  140.1080  156.5985 H   0  0  0  0  0  0  0  0  0  0  0  0  # atno 8008 bound_to 7997
  155.5936  140.3492  155.4555 H   0  0  0  0  0  0  0  0  0  0  0  0  # atno 8009 bound_to 7997
  156.0227  140.1243  157.0330 H   0  0  0  0  0  0  0  0  0  0  0  0  # atno 8010 bound_to 7997
  140.0832  144.5053  150.7148 H   0  0  0  0  0  0  0  0  0  0  0  0  # atno 10167 bound_to 10162
  157.6842  131.0020  150.2280 H   0  0  0  0  0  0  0  0  0  0  0  0  # atno 10718 bound_to 10713
  153.1584  135.6791  153.8779 H   0  0  0  0  0  0  0  0  0  0  0  0  # atno 10763 bound_to 10752
  153.8182  135.3133  155.3409 H   0  0  0  0  0  0  0  0  0  0  0  0  # atno 10764 bound_to 10752
  154.7914  135.4832  154.0150 H   0  0  0  0  0  0  0  0  0  0  0  0  # atno 10765 bound_to 10752
  140.7619  134.3288  157.5099 H   0  0  0  0  0  0  0  0  0  0  0  0  # atno 11005 bound_to 11000
  146.2241  140.5783  142.9004 LP  0  0  0  0  0  0  0  0  0  0  0  0  # atno 17320 bound_to 7965
  144.7794  140.5808  143.6616 LP  0  0  0  0  0  0  0  0  0  0  0  0  # atno 17321 bound_to 7965
  140.7067  143.2473  151.4705 LP  0  0  0  0  0  0  0  0  0  0  0  0  # atno 17342 bound_to 10162
  139.5767  144.1802  152.1913 LP  0  0  0  0  0  0  0  0  0  0  0  0  # atno 17343 bound_to 10162
  156.2918  130.3746  149.7834 LP  0  0  0  0  0  0  0  0  0  0  0  0  # atno 17370 bound_to 10713
  156.5491  130.8334  151.3294 LP  0  0  0  0  0  0  0  0  0  0  0  0  # atno 17371 bound_to 10713
  139.8769  134.9207  156.3258 LP  0  0  0  0  0  0  0  0  0  0  0  0  # atno 17394 bound_to 11000
  140.9655  133.7361  156.0461 LP  0  0  0  0  0  0  0  0  0  0  0  0  # atno 17395 bound_to 11000

$$$$
