AV-unprocessed.smi:1760|AV-procd|sdf|7094|dock5
  -GOLD-   22720 8313D 1   1.00000     0.00000
 Structure written by MMmdl.
 42 44  0  0  0  0  0  0  0  0  2 V2000
  155.0298  138.7799  160.8034 O   0  0  0  0  0  0  0  0  0  0  0  0
  154.8666  139.1231  161.9738 C   0  0  0  0  0  0  0  0  0  0  0  0
  155.0629  138.3522  163.0591 N   0  0  0  0  0  0  0  0  0  0  0  0
  155.4961  137.0175  163.1464 C   0  0  0  0  0  0  0  0  0  0  0  0
  154.9709  136.0777  163.9811 C   0  0  0  0  0  0  0  0  0  0  0  0
  155.4639  134.7065  164.0211 C   0  0  0  0  0  0  0  0  0  0  0  0
  154.9748  133.6617  165.0083 C   0  0  0  0  0  0  0  0  0  0  0  0
  155.9882  133.1586  165.7137 F   0  0  0  0  0  0  0  0  0  0  0  0
  154.0893  134.1824  165.8579 F   0  0  0  0  0  0  0  0  0  0  0  0
  154.3866  132.6603  164.3556 F   0  0  0  0  0  0  0  0  0  0  0  0
  156.5029  134.4967  163.1355 C   0  0  0  0  0  0  0  0  0  0  0  0
  157.0596  135.3594  162.2576 N   0  5  0  0  0  0  0  0  0  0  0  0
  156.5920  136.6392  162.2293 C   0  0  0  0  0  0  0  0  0  0  0  0
  157.0610  137.4785  161.4598 O   0  0  0  0  0  0  0  0  0  0  0  0
  154.4389  140.3427  162.3316 N   0  0  0  0  0  0  0  0  0  0  0  0
  154.0943  141.4322  161.4215 C   0  0  0  0  0  0  0  0  0  0  0  0
  153.2657  142.4968  162.1573 C   0  0  0  0  0  0  0  0  0  0  0  0
  152.7583  143.5721  161.1802 C   0  0  0  0  0  0  0  0  0  0  0  0
  151.9508  142.9573  160.1264 N   0  0  0  0  0  0  0  0  0  0  0  0
  151.4511  144.0020  159.2475 C   0  0  0  0  0  0  0  0  0  0  0  0
  150.9327  145.2680  159.8908 C   0  0  0  0  0  0  0  0  0  0  0  0
  149.9665  144.2862  159.2732 C   0  0  0  0  0  0  0  0  0  0  0  0
  152.7731  142.0347  159.3433 C   0  0  0  0  0  0  0  0  0  0  0  0
  153.2835  140.8888  160.2347 C   0  0  0  0  0  0  0  0  0  0  0  0
  154.8328  138.7679  163.9500 H   0  0  0  0  0  0  0  0  0  0  0  0
  154.1520  136.3147  164.6392 H   0  0  0  0  0  0  0  0  0  0  0  0
  156.9597  133.4840  163.1373 H   0  0  0  0  0  0  0  0  0  0  0  0
  154.3314  140.5300  163.3177 H   0  0  0  0  0  0  0  0  0  0  0  0
  154.9948  141.9083  161.0295 H   0  0  0  0  0  0  0  0  0  0  0  0
  152.4138  142.0311  162.6555 H   0  0  0  0  0  0  0  0  0  0  0  0
  153.8659  142.9624  162.9397 H   0  0  0  0  0  0  0  0  0  0  0  0
  152.1548  144.3003  161.7233 H   0  0  0  0  0  0  0  0  0  0  0  0
  153.5987  144.1145  160.7437 H   0  0  0  0  0  0  0  0  0  0  0  0
  151.9319  144.1392  158.2803 H   0  0  0  0  0  0  0  0  0  0  0  0
  150.9540  145.3344  160.9770 H   0  0  0  0  0  0  0  0  0  0  0  0
  151.1051  146.2040  159.3636 H   0  0  0  0  0  0  0  0  0  0  0  0
  149.4940  144.5685  158.3346 H   0  0  0  0  0  0  0  0  0  0  0  0
  149.3458  143.7017  159.9499 H   0  0  0  0  0  0  0  0  0  0  0  0
  152.1801  141.6225  158.5260 H   0  0  0  0  0  0  0  0  0  0  0  0
  153.6129  142.5667  158.8927 H   0  0  0  0  0  0  0  0  0  0  0  0
  153.8977  140.2077  159.6447 H   0  0  0  0  0  0  0  0  0  0  0  0
  152.4343  140.3064  160.5958 H   0  0  0  0  0  0  0  0  0  0  0  0
  1  2  2  0  0  0  0
  2  3  1  0  0  0  0
  2 15  1  0  0  0  0
  3  4  1  0  0  0  0
  3 25  1  0  0  0  0
  4 13  1  0  0  0  0
  4  5  2  0  0  0  0
  5  6  1  0  0  0  0
  5 26  1  0  0  0  0
  6  7  1  0  0  0  0
  6 11  2  0  0  0  0
  7  8  1  0  0  0  0
  7  9  1  0  0  0  0
  7 10  1  0  0  0  0
 11 12  1  0  0  0  0
 11 27  1  0  0  0  0
 12 13  1  0  0  0  0
 13 14  2  0  0  0  0
 15 16  1  0  0  0  0
 15 28  1  0  0  0  0
 16 24  1  0  0  0  0
 16 17  1  0  0  0  0
 16 29  1  0  0  0  0
 17 18  1  0  0  0  0
 17 30  1  0  0  0  0
 17 31  1  0  0  0  0
 18 19  1  0  0  0  0
 18 32  1  0  0  0  0
 18 33  1  0  0  0  0
 19 20  1  0  0  0  0
 19 23  1  0  0  0  0
 20 22  1  0  0  0  0
 20 21  1  0  0  0  0
 20 34  1  0  0  0  0
 21 22  1  0  0  0  0
 21 35  1  0  0  0  0
 21 36  1  0  0  0  0
 22 37  1  0  0  0  0
 22 38  1  0  0  0  0
 23 24  1  0  0  0  0
 23 39  1  0  0  0  0
 23 40  1  0  0  0  0
 24 41  1  0  0  0  0
 24 42  1  0  0  0  0
M  CHG  1  12  -1
M  END
> <s_m_source_file>
AV-unprocessed.smi

> <i_m_source_file_index>
1760

> <i_lp_mmshare_version>
43012

> <i_f3d_flags>
0

> <s_epik_input>
W0NIMl0xW0NIMl1bQ0hdMU4oW0NIMl1bQ0gyXTIpW0NIMl1bQ0gyXVtDSF0yW05IXUMoPU8pW05IXWMzW2NIXWMoQyhGKShGKUYpW2NIXVtuSF1jMz1P

> <s_epik_cmdline>
J2VwaWtfcHl0aG9uJywgJy1waCcsICc3LjAnLCAnLXRuJywgJzgnLCAnLW1hJywgJzIwMCcsICctbWV0YWxfYmluZGluZycsICctaW1hZScsICc8aW5maWxlLm1hZT4nLCAnLW9tYWUnLCAnPG91dGZpbGUubWFlPic=

> <r_lp_tautomer_probability>
0.999

> <r_epik_Ionization_Penalty>
4.20788

> <r_epik_Ionization_Penalty_Charging>
0.176783

> <r_epik_Ionization_Penalty_Neutral>
4.0311

> <r_epik_State_Penalty>
4.02505

> <r_epik_Charging_Adjusted_Penalty>
4.20183

> <i_epik_Tot_Q>
-1

> <i_epik_Tot_abs_Q>
1

> <r_epik_Metal_State_Penalty>
1.4828

> <b_epik_Metal_Only>
1

> <s_lp_Force_Field>
OPLS_2005

> <r_lp_Energy>
35.3535

> <b_lp_Chiralities_Consistent>
1

> <s_lp_Variant>
AV-unprocessed.smi:1760-6

> <Gold.Version>
5.8.1

> <Gold.Id.Protein>
6NUR|6NUR_protein|mol2

> <Gold.PLP.Fitness>
40.4633

> <Gold.PLP.PLP>
-42.3137

> <Gold.PLP.part.hbond>
0.0000

> <Gold.PLP.part.metal>
0.0000

> <Gold.PLP.part.buried>
-4.6562

> <Gold.PLP.part.nonpolar>
-37.4227

> <Gold.PLP.part.repulsive>
0.0136

> <Gold.PLP.ligand.clash>
0.0000

> <Gold.PLP.ligand.torsion>
1.5400

> <Gold.PLP.Chemscore.Hbond>
0.0000

> <Gold.PLP.Chemscore.CHOScore>
0.0000

> <Gold.PLP.Chemscore.Metal>
0.0000

> <Gold.PLP.Chemscore.Internal.Correction>
1.2296

> <Gold.Rescore>
     Score         DG    S(hbond)    S(metal)    S(lipo)     H(rot)  DE(clash)    DE(int)     intcor
      9.92     -15.59       0.00        0.00     114.10       1.26       0.41       5.26       ----

> <Gold.Chemscore.Fitness>
9.9201

> <Gold.Chemscore.DG>
-15.5934

> <Gold.Chemscore.ZeroCoef>
-5.4800

> <Gold.Chemscore.Hbond>
0.0000

> <Gold.Chemscore.Metal>
0.0000

> <Gold.Chemscore.Lipo>
114.1042

> <Gold.Chemscore.Internal_Hbond>
0.0000

> <Gold.Chemscore.DEClash>
0.4098

> <Gold.Chemscore.DEInternal>
5.2636

> <Gold.Chemscore.Rot>
1.2644

> <Gold.Chemscore.Internal.Correction>
   9.000000E+99

> <Gold.Chemscore.Hbond.Weighted>
-0.0000

> <Gold.Chemscore.Metal.Weighted>
-0.0000

> <Gold.Chemscore.Lipo.Weighted>
-13.3502

> <Gold.Chemscore.Internal_Hbond.Weighted>
0.0000

> <Gold.Chemscore.DEClash.Weighted>
0.4098

> <Gold.Chemscore.DEInternal.Weighted>
5.2636

> <Gold.Chemscore.Rot.Weighted>
3.2367

> <Gold.Chemscore.Internal.Correction.Weighted>
   9.000000E+99

> <Gold.Protein.RotatedTorsions>
[ 6907 6896 6895 6894 ] final  166.20 input  -60.11 | X-H torsion
[ 7974 7965 7964 7962 ] final  -50.89 input  175.53 | X-H torsion
[ 8008 7997 7996 7995 ] final  -21.81 input   59.86 | X-H torsion
[ 10167 10162 10161 10158 ] final -179.57 input  -65.29 | X-H torsion
[ 10718 10713 10712 10709 ] final   70.65 input   66.30 | X-H torsion
[ 10763 10752 10751 10750 ] final -146.09 input  -60.55 | X-H torsion
[ 11005 11000 10999 10996 ] final -138.62 input  -57.11 | X-H torsion

> <Gold.Protein.ActiveResidues>
 VAL166  LYS551  ARG553  GLY616  TRP617  ASP618  TYR619  PRO620  LYS621  CYS622 
 ASP623  PHE694  ASN695  SER759  ASP760  ASP761  ALA762  ILE779  LEU786  VAL792 
 PHE793  MET794  SER795  GLU796  ALA797  LYS798  CYS799  TRP800  GLU811  SER814 

> <Gold.Protein.RotatedAtoms>
  151.8827  133.3498  159.3771 H   0  0  0  0  0  0  0  0  0  0  0  0  # atno 6907 bound_to 6896
  150.7123  134.5003  159.5567 H   0  0  0  0  0  0  0  0  0  0  0  0  # atno 6908 bound_to 6896
  152.2557  134.8086  160.0490 H   0  0  0  0  0  0  0  0  0  0  0  0  # atno 6909 bound_to 6896
  145.9250  140.7800  142.9628 H   0  0  0  0  0  0  0  0  0  0  0  0  # atno 7974 bound_to 7965
  154.4682  140.2025  156.0062 H   0  0  0  0  0  0  0  0  0  0  0  0  # atno 8008 bound_to 7997
  156.0965  140.3250  155.7855 H   0  0  0  0  0  0  0  0  0  0  0  0  # atno 8009 bound_to 7997
  155.4869  140.0543  157.2950 H   0  0  0  0  0  0  0  0  0  0  0  0  # atno 8010 bound_to 7997
  139.5380  144.2442  152.0836 H   0  0  0  0  0  0  0  0  0  0  0  0  # atno 10167 bound_to 10162
  157.6411  130.9488  150.0679 H   0  0  0  0  0  0  0  0  0  0  0  0  # atno 10718 bound_to 10713
  154.8353  135.3396  154.6606 H   0  0  0  0  0  0  0  0  0  0  0  0  # atno 10763 bound_to 10752
  153.7222  135.6957  153.5014 H   0  0  0  0  0  0  0  0  0  0  0  0  # atno 10764 bound_to 10752
  153.2373  135.4396  155.0613 H   0  0  0  0  0  0  0  0  0  0  0  0  # atno 10765 bound_to 10752
  140.8598  134.2183  157.4714 H   0  0  0  0  0  0  0  0  0  0  0  0  # atno 11005 bound_to 11000
  144.6757  140.2035  143.7384 LP  0  0  0  0  0  0  0  0  0  0  0  0  # atno 17320 bound_to 7965
  145.8501  139.2171  143.1777 LP  0  0  0  0  0  0  0  0  0  0  0  0  # atno 17321 bound_to 7965
  140.1915  144.4747  150.6476 LP  0  0  0  0  0  0  0  0  0  0  0  0  # atno 17342 bound_to 10162
  140.6597  143.2248  151.5885 LP  0  0  0  0  0  0  0  0  0  0  0  0  # atno 17343 bound_to 10162
  156.1692  130.3646  149.9189 LP  0  0  0  0  0  0  0  0  0  0  0  0  # atno 17370 bound_to 10713
  156.7168  130.8991  151.3614 LP  0  0  0  0  0  0  0  0  0  0  0  0  # atno 17371 bound_to 10713
  139.8706  134.9724  156.4771 LP  0  0  0  0  0  0  0  0  0  0  0  0  # atno 17394 bound_to 11000
  140.8696  133.7998  155.9350 LP  0  0  0  0  0  0  0  0  0  0  0  0  # atno 17395 bound_to 11000

$$$$
