AV-unprocessed.smi:1261|AV-procd|sdf|5306|dock10
  -GOLD-   22720 4433D 1   1.00000     0.00000
 Structure written by MMmdl.
 50 51  0  0  0  0  0  0  0  0  2 V2000
  145.5652  128.7776  152.0009 C   0  0  0  0  0  0  0  0  0  0  0  0
  146.2856  130.1174  151.7921 C   0  0  1  0  0  0  0  0  0  0  0  0
  145.2883  131.2528  151.5072 C   0  0  0  0  0  0  0  0  0  0  0  0
  146.0265  132.5893  151.3239 C   0  0  1  0  0  0  0  0  0  0  0  0
  145.0460  133.7404  151.0581 C   0  0  0  0  0  0  0  0  0  0  0  0
  146.9173  132.8770  152.5479 C   0  0  0  0  0  0  0  0  0  0  0  0
  147.8757  131.7684  152.7932 N   0  3  1  0  0  0  0  0  0  0  0  0
  148.8409  132.0903  153.8750 C   0  0  0  0  0  0  0  0  0  0  0  0
  149.6192  133.3882  153.6011 C   0  0  0  0  0  0  0  0  0  0  0  0
  149.0842  134.5743  154.4201 C   0  0  0  0  0  0  0  0  0  0  0  0
  149.8208  135.7971  154.1267 N   0  0  0  0  0  0  0  0  0  0  0  0
  150.7978  136.3164  154.8902 C   0  0  0  0  0  0  0  0  0  0  0  0
  151.1584  135.8010  155.9480 O   0  0  0  0  0  0  0  0  0  0  0  0
  151.4966  137.6000  154.4078 C   0  0  0  0  0  0  0  0  0  0  0  0
  150.8415  138.8560  154.8091 N   0  0  0  0  0  0  0  0  0  0  0  0
  149.5596  139.0130  154.3035 N   0  0  0  0  0  0  0  0  0  0  0  0
  148.8790  140.0716  154.5880 C   0  0  0  0  0  0  0  0  0  0  0  0
  147.6144  140.1876  154.0652 O   0  0  0  0  0  0  0  0  0  0  0  0
  149.4281  141.1098  155.4326 C   0  0  0  0  0  0  0  0  0  0  0  0
  150.6781  140.9488  155.9194 C   0  0  0  0  0  0  0  0  0  0  0  0
  151.4791  139.7622  155.6128 C   0  0  0  0  0  0  0  0  0  0  0  0
  152.6253  139.5966  156.0291 O   0  0  0  0  0  0  0  0  0  0  0  0
  147.1709  130.4753  153.0014 C   0  0  0  0  0  0  0  0  0  0  0  0
  147.7357  140.3044  153.1356 H   0  0  0  0  0  0  0  0  0  0  0  0
  144.8985  128.8150  152.8632 H   0  0  0  0  0  0  0  0  0  0  0  0
  146.2780  127.9692  152.1667 H   0  0  0  0  0  0  0  0  0  0  0  0
  144.9665  128.5139  151.1286 H   0  0  0  0  0  0  0  0  0  0  0  0
  146.9331  130.0087  150.9205 H   0  0  0  0  0  0  0  0  0  0  0  0
  144.7083  131.0229  150.6125 H   0  0  0  0  0  0  0  0  0  0  0  0
  144.5742  131.3336  152.3284 H   0  0  0  0  0  0  0  0  0  0  0  0
  146.6730  132.5015  150.4490 H   0  0  0  0  0  0  0  0  0  0  0  0
  144.3649  133.8841  151.8975 H   0  0  0  0  0  0  0  0  0  0  0  0
  144.4434  133.5455  150.1705 H   0  0  0  0  0  0  0  0  0  0  0  0
  145.5762  134.6790  150.8951 H   0  0  0  0  0  0  0  0  0  0  0  0
  147.4682  133.8032  152.3778 H   0  0  0  0  0  0  0  0  0  0  0  0
  146.3047  133.0312  153.4380 H   0  0  0  0  0  0  0  0  0  0  0  0
  148.2986  132.2187  154.8129 H   0  0  0  0  0  0  0  0  0  0  0  0
  149.5231  131.2521  154.0268 H   0  0  0  0  0  0  0  0  0  0  0  0
  150.6756  133.2489  153.8285 H   0  0  0  0  0  0  0  0  0  0  0  0
  149.5618  133.6287  152.5386 H   0  0  0  0  0  0  0  0  0  0  0  0
  148.0342  134.7481  154.1831 H   0  0  0  0  0  0  0  0  0  0  0  0
  149.1303  134.3560  155.4885 H   0  0  0  0  0  0  0  0  0  0  0  0
  149.5801  136.2837  153.2751 H   0  0  0  0  0  0  0  0  0  0  0  0
  152.5215  137.5813  154.7829 H   0  0  0  0  0  0  0  0  0  0  0  0
  151.5894  137.5585  153.3210 H   0  0  0  0  0  0  0  0  0  0  0  0
  148.8456  141.9893  155.6645 H   0  0  0  0  0  0  0  0  0  0  0  0
  151.1001  141.7157  156.5522 H   0  0  0  0  0  0  0  0  0  0  0  0
  146.5671  130.5327  153.9088 H   0  0  0  0  0  0  0  0  0  0  0  0
  147.8934  129.6749  153.1566 H   0  0  0  0  0  0  0  0  0  0  0  0
  148.4179  131.6759  151.9460 H   0  0  0  0  0  0  0  0  0  0  0  0
  1  2  1  0  0  0  0
  1 25  1  0  0  0  0
  1 26  1  0  0  0  0
  1 27  1  0  0  0  0
  2 23  1  0  0  0  0
  2  3  1  0  0  0  0
  2 28  1  0  0  0  0
  3  4  1  0  0  0  0
  3 29  1  0  0  0  0
  3 30  1  0  0  0  0
  4  5  1  0  0  0  0
  4  6  1  0  0  0  0
  4 31  1  0  0  0  0
  5 32  1  0  0  0  0
  5 33  1  0  0  0  0
  5 34  1  0  0  0  0
  6  7  1  0  0  0  0
  6 35  1  0  0  0  0
  6 36  1  0  0  0  0
  7  8  1  0  0  0  0
  7 23  1  0  0  0  0
  7 50  1  0  0  0  0
  8  9  1  0  0  0  0
  8 37  1  0  0  0  0
  8 38  1  0  0  0  0
  9 10  1  0  0  0  0
  9 39  1  0  0  0  0
  9 40  1  0  0  0  0
 10 11  1  0  0  0  0
 10 41  1  0  0  0  0
 10 42  1  0  0  0  0
 11 12  1  0  0  0  0
 11 43  1  0  0  0  0
 12 13  2  0  0  0  0
 12 14  1  0  0  0  0
 14 44  1  0  0  0  0
 14 45  1  0  0  0  0
 14 15  1  0  0  0  0
 15 16  1  0  0  0  0
 15 21  1  0  0  0  0
 16 17  2  0  0  0  0
 17 18  1  0  0  0  0
 17 19  1  0  0  0  0
 18 24  1  0  0  0  0
 19 46  1  0  0  0  0
 19 20  2  0  0  0  0
 20 47  1  0  0  0  0
 20 21  1  0  0  0  0
 21 22  2  0  0  0  0
 23 48  1  0  0  0  0
 23 49  1  0  0  0  0
M  CHG  1   7   1
M  END
> <s_m_source_file>
AV-unprocessed.smi

> <i_m_source_file_index>
1261

> <i_lp_mmshare_version>
43012

> <i_f3d_flags>
0

> <s_epik_input>
W0NIM11bQ0BASF0xW0NIMl1bQ0BASF0oW0NIM10pW0NIMl1OKFtDSDJdMSlbQ0gyXVtDSDJdW0NIMl1bTkhdQyg9TylbQ0gyXW4yW25IXWMoPU8pW2NIXVtjSF1jMj1P

> <s_epik_cmdline>
J2VwaWtfcHl0aG9uJywgJy1waCcsICc3LjAnLCAnLXRuJywgJzgnLCAnLW1hJywgJzIwMCcsICctbWV0YWxfYmluZGluZycsICctaW1hZScsICc8aW5maWxlLm1hZT4nLCAnLW9tYWUnLCAnPG91dGZpbGUubWFlPic=

> <r_lp_tautomer_probability>
0.9996

> <r_epik_Ionization_Penalty>
2.1425

> <r_epik_Ionization_Penalty_Charging>
0.000312112

> <r_epik_Ionization_Penalty_Neutral>
2.14218

> <r_epik_State_Penalty>
1.71978

> <r_epik_Charging_Adjusted_Penalty>
1.72009

> <i_epik_Tot_Q>
1

> <i_epik_Tot_abs_Q>
1

> <r_epik_Metal_State_Penalty>
1.71978

> <b_epik_Metal_Only>
0

> <s_lp_Force_Field>
OPLS_2005

> <r_lp_Energy>
26.9224

> <b_lp_Chiralities_Consistent>
1

> <s_lp_Variant>
AV-unprocessed.smi:1261-6

> <Gold.Version>
5.8.1

> <Gold.Id.Protein>
6NUR|6NUR_protein|mol2

> <Gold.PLP.Fitness>
55.8731

> <Gold.PLP.PLP>
-45.8871

> <Gold.PLP.part.hbond>
-4.8275

> <Gold.PLP.part.metal>
0.0000

> <Gold.PLP.part.buried>
-1.2015

> <Gold.PLP.part.nonpolar>
-40.4322

> <Gold.PLP.part.repulsive>
0.4106

> <Gold.PLP.ligand.clash>
0.0000

> <Gold.PLP.ligand.torsion>
0.8152

> <Gold.PLP.Chemscore.Hbond>
3.8516

> <Gold.PLP.Chemscore.CHOScore>
0.0000

> <Gold.PLP.Chemscore.Metal>
0.0000

> <Gold.Chemscore.Hbonds>
donor molecule, donor type, donor heavy atom, donor atom, acceptor molecule, acceptor atom, score
      L1  H     7    50       P1 10747  1.00
      L1  H    11    43       P1  7948  0.90
      P1  H  7997  8008       L1    22  1.00
      P1  H 10752 10765       L1    13  0.22

> <Gold.PLP.Chemscore.Internal.Correction>
0.0616

> <Gold.Rescore>
     Score         DG    S(hbond)    S(metal)    S(lipo)     H(rot)  DE(clash)    DE(int)     intcor
     17.42     -18.33       2.96        0.00      93.87       3.14       0.10       0.81       ----

> <Gold.Chemscore.Fitness>
17.4208

> <Gold.Chemscore.DG>
-18.3347

> <Gold.Chemscore.ZeroCoef>
-5.4800

> <Gold.Chemscore.Hbond>
2.9634

> <Gold.Chemscore.Metal>
0.0000

> <Gold.Chemscore.Lipo>
93.8715

> <Gold.Chemscore.Internal_Hbond>
0.0000

> <Gold.Chemscore.DEClash>
0.1036

> <Gold.Chemscore.DEInternal>
0.8104

> <Gold.Chemscore.Rot>
3.1352

> <Gold.Chemscore.Internal.Correction>
   9.000000E+99

> <Gold.Chemscore.Hbonds>
donor molecule, donor type, donor heavy atom, donor atom, acceptor molecule, acceptor atom, score
      L1  H     7    50       P1 10747  0.98
      L1  H    11    43       P1  7948  0.29
      P1  H  7997  8008       L1    22  1.00

> <Gold.Chemscore.Hbond.Weighted>
-9.8978

> <Gold.Chemscore.Metal.Weighted>
-0.0000

> <Gold.Chemscore.Lipo.Weighted>
-10.9830

> <Gold.Chemscore.Internal_Hbond.Weighted>
0.0000

> <Gold.Chemscore.DEClash.Weighted>
0.1036

> <Gold.Chemscore.DEInternal.Weighted>
0.8104

> <Gold.Chemscore.Rot.Weighted>
8.0260

> <Gold.Chemscore.Internal.Correction.Weighted>
   9.000000E+99

> <Gold.Protein.RotatedTorsions>
[ 6907 6896 6895 6894 ] final  128.68 input  -60.11 | X-H torsion
[ 7974 7965 7964 7962 ] final  127.34 input  175.53 | X-H torsion
[ 8008 7997 7996 7995 ] final  -35.61 input   59.86 | X-H torsion
[ 10167 10162 10161 10158 ] final -147.99 input  -65.29 | X-H torsion
[ 10718 10713 10712 10709 ] final -119.69 input   66.30 | X-H torsion
[ 10763 10752 10751 10750 ] final -154.07 input  -60.55 | X-H torsion
[ 11005 11000 10999 10996 ] final -145.53 input  -57.11 | X-H torsion

> <Gold.Protein.ActiveResidues>
 VAL166  LYS551  ARG553  GLY616  TRP617  ASP618  TYR619  PRO620  LYS621  CYS622 
 ASP623  PHE694  ASN695  SER759  ASP760  ASP761  ALA762  ILE779  LEU786  VAL792 
 PHE793  MET794  SER795  GLU796  ALA797  LYS798  CYS799  TRP800  GLU811  SER814 

> <Gold.Protein.RotatedAtoms>
  152.3696  133.6401  159.6076 H   0  0  0  0  0  0  0  0  0  0  0  0  # atno 6907 bound_to 6896
  150.7659  133.9292  159.3430 H   0  0  0  0  0  0  0  0  0  0  0  0  # atno 6908 bound_to 6896
  151.7117  135.0912  160.0320 H   0  0  0  0  0  0  0  0  0  0  0  0  # atno 6909 bound_to 6896
  145.0516  139.3878  143.5051 H   0  0  0  0  0  0  0  0  0  0  0  0  # atno 7974 bound_to 7965
  154.4091  140.1653  156.2239 H   0  0  0  0  0  0  0  0  0  0  0  0  # atno 8008 bound_to 7997
  155.9340  140.3413  155.6249 H   0  0  0  0  0  0  0  0  0  0  0  0  # atno 8009 bound_to 7997
  155.7071  140.0752  157.2377 H   0  0  0  0  0  0  0  0  0  0  0  0  # atno 8010 bound_to 7997
  139.7572  143.8430  152.2599 H   0  0  0  0  0  0  0  0  0  0  0  0  # atno 10167 bound_to 10162
  156.1200  130.6316  150.9448 H   0  0  0  0  0  0  0  0  0  0  0  0  # atno 10718 bound_to 10713
  154.7884  135.3198  154.7834 H   0  0  0  0  0  0  0  0  0  0  0  0  # atno 10763 bound_to 10752
  153.8528  135.6860  153.4795 H   0  0  0  0  0  0  0  0  0  0  0  0  # atno 10764 bound_to 10752
  153.1544  135.4686  154.9623 H   0  0  0  0  0  0  0  0  0  0  0  0  # atno 10765 bound_to 10752
  140.7913  134.2965  157.5012 H   0  0  0  0  0  0  0  0  0  0  0  0  # atno 11005 bound_to 11000
  146.3518  140.0169  142.8662 LP  0  0  0  0  0  0  0  0  0  0  0  0  # atno 17320 bound_to 7965
  145.1520  140.9628  143.4427 LP  0  0  0  0  0  0  0  0  0  0  0  0  # atno 17321 bound_to 7965
  139.8426  144.7203  150.9312 LP  0  0  0  0  0  0  0  0  0  0  0  0  # atno 17342 bound_to 10162
  140.7804  143.3970  151.1213 LP  0  0  0  0  0  0  0  0  0  0  0  0  # atno 17343 bound_to 10162
  157.6384  131.0913  150.8302 LP  0  0  0  0  0  0  0  0  0  0  0  0  # atno 17370 bound_to 10713
  156.8400  130.5045  149.5322 LP  0  0  0  0  0  0  0  0  0  0  0  0  # atno 17371 bound_to 10713
  139.8731  134.9376  156.3692 LP  0  0  0  0  0  0  0  0  0  0  0  0  # atno 17394 bound_to 11000
  140.9387  133.7530  156.0118 LP  0  0  0  0  0  0  0  0  0  0  0  0  # atno 17395 bound_to 11000

$$$$
