AV-unprocessed.smi:1180|AV-procd|sdf|4960|dock5
  -GOLD-   22720 3553D 1   1.00000     0.00000
 Structure written by MMmdl.
 38 39  0  0  0  0  0  0  0  0  1 V2000
  146.3007  137.3150  153.3931 C   0  0  0  0  0  0  0  0  0  0  0  0
  147.0916  138.5211  153.8538 C   0  0  0  0  0  0  0  0  0  0  0  0
  146.5560  139.5867  154.3517 N   0  0  0  0  0  0  0  0  0  0  0  0
  147.3923  140.6405  154.7457 C   0  0  0  0  0  0  0  0  0  0  0  0
  146.6882  141.8546  155.3259 C   0  0  0  0  0  0  0  0  0  0  0  0
  148.7490  140.5659  154.6117 C   0  0  0  0  0  0  0  0  0  0  0  0
  149.6907  141.6931  155.0350 C   0  0  0  0  0  0  0  0  0  0  0  0
  150.8091  141.3141  156.0100 C   0  0  0  0  0  0  0  0  0  0  0  0
  151.6700  140.4927  155.6928 O   0  0  0  0  0  0  0  0  0  0  0  0
  150.7824  141.9291  157.2016 N   0  0  0  0  0  0  0  0  0  0  0  0
  151.7522  141.7253  158.2720 C   0  0  0  0  0  0  0  0  0  0  0  0
  151.4860  142.6453  159.4793 C   0  0  2  0  0  0  0  0  0  0  0  0
  151.2623  144.1063  159.1070 C   0  0  0  0  0  0  0  0  0  0  0  0
  151.9625  144.8954  160.2186 C   0  0  0  0  0  0  0  0  0  0  0  0
  152.3551  143.9280  161.1823 O   0  0  0  0  0  0  0  0  0  0  0  0
  152.6327  142.7258  160.4858 C   0  0  0  0  0  0  0  0  0  0  0  0
  149.3501  139.3438  154.0435 C   0  0  0  0  0  0  0  0  0  0  0  0
  150.5578  139.1687  153.8872 O   0  0  0  0  0  0  0  0  0  0  0  0
  148.4690  138.3805  153.6921 N   0  0  0  0  0  0  0  0  0  0  0  0
  148.8312  137.5238  153.2997 H   0  0  0  0  0  0  0  0  0  0  0  0
  145.7399  136.8940  154.2279 H   0  0  0  0  0  0  0  0  0  0  0  0
  146.9503  136.5366  152.9906 H   0  0  0  0  0  0  0  0  0  0  0  0
  145.5930  137.6048  152.6159 H   0  0  0  0  0  0  0  0  0  0  0  0
  146.8339  142.7234  154.6840 H   0  0  0  0  0  0  0  0  0  0  0  0
  147.0747  142.0864  156.3185 H   0  0  0  0  0  0  0  0  0  0  0  0
  145.6148  141.6837  155.4185 H   0  0  0  0  0  0  0  0  0  0  0  0
  150.1385  142.1560  154.1544 H   0  0  0  0  0  0  0  0  0  0  0  0
  149.1045  142.4874  155.4971 H   0  0  0  0  0  0  0  0  0  0  0  0
  150.0395  142.5901  157.3780 H   0  0  0  0  0  0  0  0  0  0  0  0
  151.6989  140.6803  158.5788 H   0  0  0  0  0  0  0  0  0  0  0  0
  152.7630  141.8834  157.8923 H   0  0  0  0  0  0  0  0  0  0  0  0
  150.5983  142.2986  160.0108 H   0  0  0  0  0  0  0  0  0  0  0  0
  151.7010  144.3524  158.1391 H   0  0  0  0  0  0  0  0  0  0  0  0
  150.1974  144.3360  159.0565 H   0  0  0  0  0  0  0  0  0  0  0  0
  152.8510  145.3957  159.8308 H   0  0  0  0  0  0  0  0  0  0  0  0
  151.3158  145.6503  160.6663 H   0  0  0  0  0  0  0  0  0  0  0  0
  152.6628  141.8702  161.1612 H   0  0  0  0  0  0  0  0  0  0  0  0
  153.5991  142.8065  159.9851 H   0  0  0  0  0  0  0  0  0  0  0  0
  1  2  1  0  0  0  0
  1 21  1  0  0  0  0
  1 22  1  0  0  0  0
  1 23  1  0  0  0  0
  2 19  1  0  0  0  0
  2  3  2  0  0  0  0
  3  4  1  0  0  0  0
  4  5  1  0  0  0  0
  4  6  2  0  0  0  0
  5 24  1  0  0  0  0
  5 25  1  0  0  0  0
  5 26  1  0  0  0  0
  6  7  1  0  0  0  0
  6 17  1  0  0  0  0
  7  8  1  0  0  0  0
  7 27  1  0  0  0  0
  7 28  1  0  0  0  0
  8  9  2  0  0  0  0
  8 10  1  0  0  0  0
 10 11  1  0  0  0  0
 10 29  1  0  0  0  0
 11 12  1  0  0  0  0
 11 30  1  0  0  0  0
 11 31  1  0  0  0  0
 12 16  1  0  0  0  0
 12 13  1  0  0  0  0
 12 32  1  0  0  0  0
 13 14  1  0  0  0  0
 13 33  1  0  0  0  0
 13 34  1  0  0  0  0
 14 15  1  0  0  0  0
 14 35  1  0  0  0  0
 14 36  1  0  0  0  0
 15 16  1  0  0  0  0
 16 37  1  0  0  0  0
 16 38  1  0  0  0  0
 17 18  2  0  0  0  0
 17 19  1  0  0  0  0
 19 20  1  0  0  0  0
M  END
> <s_m_source_file>
AV-unprocessed.smi

> <i_m_source_file_index>
1180

> <i_lp_mmshare_version>
43012

> <i_f3d_flags>
0

> <s_epik_input>
W0NIM11jMW5jKFtDSDNdKWMoYyg9TylbbkhdMSlbQ0gyXUMoPU8pW05IXVtDSDJdW0NAQEhdMltDSDJdW0NIMl1PW0NIMl0y

> <s_epik_cmdline>
J2VwaWtfcHl0aG9uJywgJy1waCcsICc3LjAnLCAnLXRuJywgJzgnLCAnLW1hJywgJzIwMCcsICctbWV0YWxfYmluZGluZycsICctaW1hZScsICc8aW5maWxlLm1hZT4nLCAnLW9tYWUnLCAnPG91dGZpbGUubWFlPic=

> <r_lp_tautomer_probability>
0.839158

> <r_epik_Ionization_Penalty>
0.000395459

> <r_epik_Ionization_Penalty_Charging>
0.000363703

> <r_epik_Ionization_Penalty_Neutral>
3.17556e-05

> <r_epik_State_Penalty>
0.0471244

> <r_epik_Charging_Adjusted_Penalty>
0.0474881

> <i_epik_Tot_Q>
0

> <i_epik_Tot_abs_Q>
0

> <r_epik_Metal_State_Penalty>
0.225307

> <b_epik_Metal_Only>
0

> <s_lp_Force_Field>
OPLS_2005

> <r_lp_Energy>
20.5307

> <b_lp_Chiralities_Consistent>
1

> <s_lp_Variant>
AV-unprocessed.smi:1180-1

> <Gold.Version>
5.8.1

> <Gold.Id.Protein>
6NUR|6NUR_protein|mol2

> <Gold.PLP.Fitness>
37.3470

> <Gold.PLP.PLP>
-31.5865

> <Gold.PLP.part.hbond>
-3.5343

> <Gold.PLP.part.metal>
0.0000

> <Gold.PLP.part.buried>
-1.3444

> <Gold.PLP.part.nonpolar>
-27.8755

> <Gold.PLP.part.repulsive>
1.3155

> <Gold.PLP.ligand.clash>
0.0000

> <Gold.PLP.ligand.torsion>
0.1231

> <Gold.PLP.Chemscore.Hbond>
2.0000

> <Gold.PLP.Chemscore.CHOScore>
0.0000

> <Gold.PLP.Chemscore.Metal>
0.0000

> <Gold.Chemscore.Hbonds>
donor molecule, donor type, donor heavy atom, donor atom, acceptor molecule, acceptor atom, score
      L1  H    19    20       P1  7948  1.00
      P1  H  7989  7998       L1    18  0.99

> <Gold.PLP.Chemscore.Internal.Correction>
0.0066

> <Gold.Rescore>
     Score         DG    S(hbond)    S(metal)    S(lipo)     H(rot)  DE(clash)    DE(int)     intcor
     12.94     -15.82       1.86        0.00      74.79       1.81       0.47       2.40       ----

> <Gold.Chemscore.Fitness>
12.9445

> <Gold.Chemscore.DG>
-15.8198

> <Gold.Chemscore.ZeroCoef>
-5.4800

> <Gold.Chemscore.Hbond>
1.8604

> <Gold.Chemscore.Metal>
0.0000

> <Gold.Chemscore.Lipo>
74.7930

> <Gold.Chemscore.Internal_Hbond>
0.0000

> <Gold.Chemscore.DEClash>
0.4731

> <Gold.Chemscore.DEInternal>
2.4022

> <Gold.Chemscore.Rot>
1.8065

> <Gold.Chemscore.Internal.Correction>
   9.000000E+99

> <Gold.Chemscore.Hbonds>
donor molecule, donor type, donor heavy atom, donor atom, acceptor molecule, acceptor atom, score
      L1  H    19    20       P1  7948  0.95
      P1  H  7989  7998       L1    18  0.81

> <Gold.Chemscore.Hbond.Weighted>
-6.2136

> <Gold.Chemscore.Metal.Weighted>
-0.0000

> <Gold.Chemscore.Lipo.Weighted>
-8.7508

> <Gold.Chemscore.Internal_Hbond.Weighted>
0.0000

> <Gold.Chemscore.DEClash.Weighted>
0.4731

> <Gold.Chemscore.DEInternal.Weighted>
2.4022

> <Gold.Chemscore.Rot.Weighted>
4.6246

> <Gold.Chemscore.Internal.Correction.Weighted>
   9.000000E+99

> <Gold.Protein.RotatedTorsions>
[ 6907 6896 6895 6894 ] final  137.82 input  -60.11 | X-H torsion
[ 7974 7965 7964 7962 ] final -107.81 input  175.53 | X-H torsion
[ 8008 7997 7996 7995 ] final   23.86 input   59.86 | X-H torsion
[ 10167 10162 10161 10158 ] final   14.38 input  -65.29 | X-H torsion
[ 10718 10713 10712 10709 ] final   32.85 input   66.30 | X-H torsion
[ 10763 10752 10751 10750 ] final  -70.35 input  -60.55 | X-H torsion
[ 11005 11000 10999 10996 ] final  159.72 input  -57.11 | X-H torsion

> <Gold.Protein.ActiveResidues>
 VAL166  LYS551  ARG553  GLY616  TRP617  ASP618  TYR619  PRO620  LYS621  CYS622 
 ASP623  PHE694  ASN695  SER759  ASP760  ASP761  ALA762  ILE779  LEU786  VAL792 
 PHE793  MET794  SER795  GLU796  ALA797  LYS798  CYS799  TRP800  GLU811  SER814 

> <Gold.Protein.RotatedAtoms>
  152.2737  133.5405  159.5454 H   0  0  0  0  0  0  0  0  0  0  0  0  # atno 6907 bound_to 6896
  150.7169  134.0662  159.3857 H   0  0  0  0  0  0  0  0  0  0  0  0  # atno 6908 bound_to 6896
  151.8576  135.0536  160.0516 H   0  0  0  0  0  0  0  0  0  0  0  0  # atno 6909 bound_to 6896
  145.2007  140.9055  143.3371 H   0  0  0  0  0  0  0  0  0  0  0  0  # atno 7974 bound_to 7965
  154.9874  140.3109  155.4920 H   0  0  0  0  0  0  0  0  0  0  0  0  # atno 8008 bound_to 7997
  156.2945  140.2255  156.4917 H   0  0  0  0  0  0  0  0  0  0  0  0  # atno 8009 bound_to 7997
  154.7734  140.0451  157.1058 H   0  0  0  0  0  0  0  0  0  0  0  0  # atno 8010 bound_to 7997
  140.5939  143.8740  150.6899 H   0  0  0  0  0  0  0  0  0  0  0  0  # atno 10167 bound_to 10162
  157.2905  130.7300  149.6608 H   0  0  0  0  0  0  0  0  0  0  0  0  # atno 10718 bound_to 10713
  154.4164  135.5997  153.5983 H   0  0  0  0  0  0  0  0  0  0  0  0  # atno 10763 bound_to 10752
  152.9792  135.5941  154.4008 H   0  0  0  0  0  0  0  0  0  0  0  0  # atno 10764 bound_to 10752
  154.3828  135.2841  155.2180 H   0  0  0  0  0  0  0  0  0  0  0  0  # atno 10765 bound_to 10752
  140.1989  134.8352  157.2996 H   0  0  0  0  0  0  0  0  0  0  0  0  # atno 11005 bound_to 11000
  144.9951  139.3652  143.6195 LP  0  0  0  0  0  0  0  0  0  0  0  0  # atno 17320 bound_to 7965
  146.3418  139.9150  142.8775 LP  0  0  0  0  0  0  0  0  0  0  0  0  # atno 17321 bound_to 7965
  140.2270  143.3765  152.1597 LP  0  0  0  0  0  0  0  0  0  0  0  0  # atno 17342 bound_to 10162
  139.5245  144.7085  151.5280 LP  0  0  0  0  0  0  0  0  0  0  0  0  # atno 17343 bound_to 10162
  155.9667  130.4310  150.4902 LP  0  0  0  0  0  0  0  0  0  0  0  0  # atno 17370 bound_to 10713
  157.2864  131.0617  151.2163 LP  0  0  0  0  0  0  0  0  0  0  0  0  # atno 17371 bound_to 10713
  140.2076  134.4178  155.7629 LP  0  0  0  0  0  0  0  0  0  0  0  0  # atno 17394 bound_to 11000
  141.2227  133.7102  156.8285 LP  0  0  0  0  0  0  0  0  0  0  0  0  # atno 17395 bound_to 11000

$$$$
