AV-unprocessed.smi:1|AV-procd|sdf|5|dock1
  -GOLD-   2262015 93D 1   1.00000     0.00000
 Structure written by MMmdl.
 57 62  0  0  0  0  0  0  0  0  1 V2000
  151.6949  140.7174  157.5628 O   0  0  0  0  0  0  0  0  0  0  0  0
  150.9071  141.6637  157.5383 C   0  0  0  0  0  0  0  0  0  0  0  0
  149.7070  141.6496  156.7204 N   0  0  0  0  0  0  0  0  0  0  0  0
  149.2266  140.6403  155.9568 C   0  0  0  0  0  0  0  0  0  0  0  0
  149.8448  140.2276  154.8191 N   0  0  0  0  0  0  0  0  0  0  0  0
  149.3305  139.2267  154.0992 C   0  0  0  0  0  0  0  0  0  0  0  0
  148.2264  138.5145  154.3321 N   0  0  0  0  0  0  0  0  0  0  0  0
  147.6002  138.9187  155.4745 C   0  0  0  0  0  0  0  0  0  0  0  0
  148.0356  139.9664  156.3337 C   0  0  0  0  0  0  0  0  0  0  0  0
  147.1543  140.0985  157.3983 N   0  0  0  0  0  0  0  0  0  0  0  0
  146.2534  139.1794  157.1782 C   0  0  0  0  0  0  0  0  0  0  0  0
  146.4405  138.4265  156.0398 N   0  0  0  0  0  0  0  0  0  0  0  0
  145.5814  137.3088  155.5430 C   0  0  2  0  0  0  0  0  0  0  0  0
  145.1163  137.6166  154.2619 O   0  0  0  0  0  0  0  0  0  0  0  0
  143.6930  137.6985  154.2489 C   0  0  1  0  0  0  0  0  0  0  0  0
  143.1261  137.2551  152.8954 C   0  0  0  0  0  0  0  0  0  0  0  0
  143.5758  135.9398  152.6165 O   0  0  0  0  0  0  0  0  0  0  0  0
  144.6964  135.7478  151.8949 C   0  0  0  0  0  0  0  0  0  0  0  0
  145.5469  136.6208  151.7099 O   0  0  0  0  0  0  0  0  0  0  0  0
  144.8022  134.3650  151.3461 C   0  0  0  0  0  0  0  0  0  0  0  0
  146.0571  133.8920  150.8962 C   0  0  0  0  0  0  0  0  0  0  0  0
  146.1880  132.5899  150.3752 C   0  0  0  0  0  0  0  0  0  0  0  0
  145.0655  131.7452  150.2969 C   0  0  0  0  0  0  0  0  0  0  0  0
  143.8114  132.2043  150.7394 C   0  0  0  0  0  0  0  0  0  0  0  0
  143.6784  133.5060  151.2615 C   0  0  0  0  0  0  0  0  0  0  0  0
  143.2552  136.8374  155.4318 C   0  0  1  0  0  0  0  0  0  0  0  0
  143.2543  135.4587  155.0989 O   0  0  0  0  0  0  0  0  0  0  0  0
  143.9340  134.6119  156.3686 S   0  0  0  0  0  0  0  0  0  0  0  0
  142.8491  133.9975  157.1484 O   0  0  0  0  0  0  0  0  0  0  0  0
  145.0736  133.8406  155.8491 O   0  0  0  0  0  0  0  0  0  0  0  0
  144.5295  135.9110  157.2358 O   0  0  0  0  0  0  0  0  0  0  0  0
  144.3670  137.0815  156.4547 C   0  0  1  0  0  0  0  0  0  0  0  0
  151.1773  142.9344  158.2903 C   0  0  0  0  0  0  0  0  0  0  0  0
  150.1140  143.8124  158.5997 C   0  0  0  0  0  0  0  0  0  0  0  0
  150.3601  145.0151  159.2899 C   0  0  0  0  0  0  0  0  0  0  0  0
  151.6722  145.3538  159.6708 C   0  0  0  0  0  0  0  0  0  0  0  0
  152.7391  144.4911  159.3567 C   0  0  0  0  0  0  0  0  0  0  0  0
  152.4944  143.2880  158.6658 C   0  0  0  0  0  0  0  0  0  0  0  0
  149.1520  142.4929  156.7368 H   0  0  0  0  0  0  0  0  0  0  0  0
  149.8822  138.9588  153.2103 H   0  0  0  0  0  0  0  0  0  0  0  0
  145.4185  139.0260  157.8466 H   0  0  0  0  0  0  0  0  0  0  0  0
  146.2483  136.4477  155.4853 H   0  0  0  0  0  0  0  0  0  0  0  0
  143.3960  138.7279  154.4479 H   0  0  0  0  0  0  0  0  0  0  0  0
  142.0361  137.2981  152.8984 H   0  0  0  0  0  0  0  0  0  0  0  0
  143.4820  137.9242  152.1107 H   0  0  0  0  0  0  0  0  0  0  0  0
  146.9336  134.5223  150.9470 H   0  0  0  0  0  0  0  0  0  0  0  0
  147.1515  132.2395  150.0355 H   0  0  0  0  0  0  0  0  0  0  0  0
  145.1662  130.7468  149.8976 H   0  0  0  0  0  0  0  0  0  0  0  0
  142.9486  131.5573  150.6793 H   0  0  0  0  0  0  0  0  0  0  0  0
  142.7013  133.8265  151.5923 H   0  0  0  0  0  0  0  0  0  0  0  0
  142.2706  137.1150  155.8099 H   0  0  0  0  0  0  0  0  0  0  0  0
  144.1608  137.9600  157.0668 H   0  0  0  0  0  0  0  0  0  0  0  0
  149.1013  143.5676  158.3132 H   0  0  0  0  0  0  0  0  0  0  0  0
  149.5413  145.6787  159.5262 H   0  0  0  0  0  0  0  0  0  0  0  0
  151.8604  146.2766  160.1997 H   0  0  0  0  0  0  0  0  0  0  0  0
  153.7469  144.7535  159.6434 H   0  0  0  0  0  0  0  0  0  0  0  0
  153.3292  142.6455  158.4262 H   0  0  0  0  0  0  0  0  0  0  0  0
  1  2  2  0  0  0  0
  2  3  1  0  0  0  0
  2 33  1  0  0  0  0
  3  4  1  0  0  0  0
  3 39  1  0  0  0  0
  4  9  1  0  0  0  0
  4  5  2  0  0  0  0
  5  6  1  0  0  0  0
  6  7  2  0  0  0  0
  6 40  1  0  0  0  0
  7  8  1  0  0  0  0
  8 12  1  0  0  0  0
  8  9  2  0  0  0  0
  9 10  1  0  0  0  0
 10 11  2  0  0  0  0
 11 12  1  0  0  0  0
 11 41  1  0  0  0  0
 12 13  1  0  0  0  0
 13 32  1  0  0  0  0
 13 14  1  0  0  0  0
 13 42  1  0  0  0  0
 14 15  1  0  0  0  0
 15 16  1  0  0  0  0
 15 26  1  0  0  0  0
 15 43  1  0  0  0  0
 16 17  1  0  0  0  0
 16 44  1  0  0  0  0
 16 45  1  0  0  0  0
 17 18  1  0  0  0  0
 18 19  2  0  0  0  0
 18 20  1  0  0  0  0
 20 25  1  0  0  0  0
 20 21  2  0  0  0  0
 21 22  1  0  0  0  0
 21 46  1  0  0  0  0
 22 23  2  0  0  0  0
 22 47  1  0  0  0  0
 23 24  1  0  0  0  0
 23 48  1  0  0  0  0
 24 25  2  0  0  0  0
 24 49  1  0  0  0  0
 25 50  1  0  0  0  0
 26 32  1  0  0  0  0
 26 27  1  0  0  0  0
 26 51  1  0  0  0  0
 27 28  1  0  0  0  0
 28 29  2  0  0  0  0
 28 30  2  0  0  0  0
 28 31  1  0  0  0  0
 31 32  1  0  0  0  0
 32 52  1  0  0  0  0
 33 38  1  0  0  0  0
 33 34  2  0  0  0  0
 34 35  1  0  0  0  0
 34 53  1  0  0  0  0
 35 36  2  0  0  0  0
 35 54  1  0  0  0  0
 36 37  1  0  0  0  0
 36 55  1  0  0  0  0
 37 38  2  0  0  0  0
 37 56  1  0  0  0  0
 38 57  1  0  0  0  0
M  END
> <s_m_source_file>
AV-unprocessed.smi

> <i_m_source_file_index>
1

> <i_lp_mmshare_version>
43012

> <i_f3d_flags>
0

> <s_epik_input>
W2NIXTFbY0hdW2NIXVtjSF1bY0hdYzFDKD1PKVtOSF1jKG5bY0hdbjIpYyhjMjMpbltjSF1uM1tDQEBIXShbQ0BIXShbQ0BIXTQ1KU9TKE81KSg9Tyk9TylPW0NASF00W0NIMl1PQyg9TyljNltjSF1bY0hdW2NIXVtjSF1bY0hdNg==

> <s_epik_cmdline>
J2VwaWtfcHl0aG9uJywgJy1waCcsICc3LjAnLCAnLXRuJywgJzgnLCAnLW1hJywgJzIwMCcsICctbWV0YWxfYmluZGluZycsICctaW1hZScsICc8aW5maWxlLm1hZT4nLCAnLW9tYWUnLCAnPG91dGZpbGUubWFlPic=

> <r_lp_tautomer_probability>
1

> <r_epik_Ionization_Penalty>
0.00195722

> <r_epik_Ionization_Penalty_Charging>
0

> <r_epik_Ionization_Penalty_Neutral>
0.00195722

> <r_epik_State_Penalty>
0.00633741

> <r_epik_Charging_Adjusted_Penalty>
0.00633741

> <i_epik_Tot_Q>
0

> <i_epik_Tot_abs_Q>
0

> <r_epik_Metal_State_Penalty>
0.341185

> <b_epik_Metal_Only>
0

> <s_epik_Chemistry_Notes>
This compound has an ester and may undergo hydrolysis at high or low pH. This compound contains an acetal/aminal-like group ( X-CH(R)-Y where X, Y are N, S, or O) that may be acid/base labile, releasing an aldehyde.

> <s_lp_Force_Field>
OPLS_2005

> <r_lp_Energy>
45.5474

> <b_lp_Chiralities_Consistent>
1

> <s_lp_Variant>
AV-unprocessed.smi:1-5

> <Gold.Version>
5.8.1

> <Gold.Id.Protein>
6NUR|6NUR_protein|mol2

> <Gold.PLP.Fitness>
53.2526

> <Gold.PLP.PLP>
-48.0881

> <Gold.PLP.part.hbond>
-1.6813

> <Gold.PLP.part.metal>
0.0000

> <Gold.PLP.part.buried>
-8.3688

> <Gold.PLP.part.nonpolar>
-39.1908

> <Gold.PLP.part.repulsive>
1.0183

> <Gold.PLP.ligand.clash>
0.0000

> <Gold.PLP.ligand.torsion>
1.4799

> <Gold.PLP.Chemscore.Hbond>
1.5234

> <Gold.PLP.Chemscore.CHOScore>
0.9214

> <Gold.PLP.Chemscore.Metal>
0.0000

> <Gold.Chemscore.Hbonds>
donor molecule, donor type, donor heavy atom, donor atom, acceptor molecule, acceptor atom, score
      P1  H  7989  7998       L1     5  0.31
      P1  H 11000 11005       L1    29  0.99
      L1  C     6    40       P1  7957  0.88

> <Gold.PLP.Chemscore.Internal.Correction>
0.7900

> <Gold.Rescore>
     Score         DG    S(hbond)    S(metal)    S(lipo)     H(rot)  DE(clash)    DE(int)     intcor
     14.45     -19.43       1.47        0.00     123.86       2.13       0.29       4.68       ----

> <Gold.Chemscore.Fitness>
14.4549

> <Gold.Chemscore.DG>
-19.4260

> <Gold.Chemscore.ZeroCoef>
-5.4800

> <Gold.Chemscore.Hbond>
1.4717

> <Gold.Chemscore.Metal>
0.0000

> <Gold.Chemscore.Lipo>
123.8613

> <Gold.Chemscore.Internal_Hbond>
0.0000

> <Gold.Chemscore.DEClash>
0.2889

> <Gold.Chemscore.DEInternal>
4.6822

> <Gold.Chemscore.Rot>
2.1333

> <Gold.Chemscore.Internal.Correction>
   9.000000E+99

> <Gold.Chemscore.Hbonds>
donor molecule, donor type, donor heavy atom, donor atom, acceptor molecule, acceptor atom, score
      L1  H     3    39       P1  8028  0.02
      P1  H  7989  7998       L1     5  0.09
      P1  H 11000 11005       L1    29  0.93

> <Gold.Chemscore.Hbond.Weighted>
-4.9156

> <Gold.Chemscore.Metal.Weighted>
-0.0000

> <Gold.Chemscore.Lipo.Weighted>
-14.4918

> <Gold.Chemscore.Internal_Hbond.Weighted>
0.0000

> <Gold.Chemscore.DEClash.Weighted>
0.2889

> <Gold.Chemscore.DEInternal.Weighted>
4.6822

> <Gold.Chemscore.Rot.Weighted>
5.4614

> <Gold.Chemscore.Internal.Correction.Weighted>
   9.000000E+99

> <Gold.Protein.RotatedTorsions>
[ 6907 6896 6895 6894 ] final   -3.42 input  -60.11 | X-H torsion
[ 7974 7965 7964 7962 ] final  -55.75 input  175.53 | X-H torsion
[ 8008 7997 7996 7995 ] final   -5.66 input   59.86 | X-H torsion
[ 10167 10162 10161 10158 ] final   44.10 input  -65.29 | X-H torsion
[ 10718 10713 10712 10709 ] final  127.66 input   66.30 | X-H torsion
[ 10763 10752 10751 10750 ] final  -53.06 input  -60.55 | X-H torsion
[ 11005 11000 10999 10996 ] final  -92.14 input  -57.11 | X-H torsion

> <Gold.Protein.ActiveResidues>
 VAL166  LYS551  ARG553  GLY616  TRP617  ASP618  TYR619  PRO620  LYS621  CYS622 
 ASP623  PHE694  ASN695  SER759  ASP760  ASP761  ALA762  ILE779  LEU786  VAL792 
 PHE793  MET794  SER795  GLU796  ALA797  LYS798  CYS799  TRP800  GLU811  SER814 

> <Gold.Protein.RotatedAtoms>
  151.5140  135.1065  159.9861 H   0  0  0  0  0  0  0  0  0  0  0  0  # atno 6907 bound_to 6896
  152.4649  133.7898  159.6906 H   0  0  0  0  0  0  0  0  0  0  0  0  # atno 6908 bound_to 6896
  150.8628  133.7554  159.3012 H   0  0  0  0  0  0  0  0  0  0  0  0  # atno 6909 bound_to 6896
  145.8706  140.8219  142.9890 H   0  0  0  0  0  0  0  0  0  0  0  0  # atno 7974 bound_to 7965
  154.6016  140.2452  155.7785 H   0  0  0  0  0  0  0  0  0  0  0  0  # atno 8008 bound_to 7997
  156.2314  140.2965  156.0151 H   0  0  0  0  0  0  0  0  0  0  0  0  # atno 8009 bound_to 7997
  155.2201  140.0400  157.2937 H   0  0  0  0  0  0  0  0  0  0  0  0  # atno 8010 bound_to 7997
  140.3377  144.2509  150.6159 H   0  0  0  0  0  0  0  0  0  0  0  0  # atno 10167 bound_to 10162
  157.5313  131.1098  150.9004 H   0  0  0  0  0  0  0  0  0  0  0  0  # atno 10718 bound_to 10713
  154.1528  135.6487  153.4967 H   0  0  0  0  0  0  0  0  0  0  0  0  # atno 10763 bound_to 10752
  153.0133  135.5342  154.6791 H   0  0  0  0  0  0  0  0  0  0  0  0  # atno 10764 bound_to 10752
  154.6083  135.2951  155.0431 H   0  0  0  0  0  0  0  0  0  0  0  0  # atno 10765 bound_to 10752
  141.1529  133.7801  156.9978 H   0  0  0  0  0  0  0  0  0  0  0  0  # atno 11005 bound_to 11000
  144.6726  140.1233  143.7448 LP  0  0  0  0  0  0  0  0  0  0  0  0  # atno 17320 bound_to 7965
  145.9141  139.2505  143.1420 LP  0  0  0  0  0  0  0  0  0  0  0  0  # atno 17321 bound_to 7965
  140.5338  143.2237  151.8196 LP  0  0  0  0  0  0  0  0  0  0  0  0  # atno 17342 bound_to 10162
  139.4845  144.4687  151.9452 LP  0  0  0  0  0  0  0  0  0  0  0  0  # atno 17343 bound_to 10162
  156.9585  130.5446  149.5285 LP  0  0  0  0  0  0  0  0  0  0  0  0  # atno 17370 bound_to 10713
  156.0425  130.5505  150.8803 LP  0  0  0  0  0  0  0  0  0  0  0  0  # atno 17371 bound_to 10713
  140.0960  134.9564  157.1850 LP  0  0  0  0  0  0  0  0  0  0  0  0  # atno 17394 bound_to 11000
  140.3381  134.2734  155.7216 LP  0  0  0  0  0  0  0  0  0  0  0  0  # atno 17395 bound_to 11000

$$$$
