AV-unprocessed.smi:72|AV-procd|sdf|701|dock5
  -GOLD-   2262017 23D 1   1.00000     0.00000
 Structure written by MMmdl.
 30 31  0  0  0  0  0  0  0  0  2 V2000
  146.0097  138.7455  152.7864 N   0  0  0  0  0  0  0  0  0  0  0  0
  145.4700  137.4896  152.6030 C   0  0  0  0  0  0  0  0  0  0  0  0
  146.3289  136.4676  152.2428 N   0  3  0  0  0  0  0  0  0  0  0  0
  145.9649  135.1992  152.0113 C   0  0  0  0  0  0  0  0  0  0  0  0
  144.6893  134.8717  152.0969 N   0  0  0  0  0  0  0  0  0  0  0  0
  144.2075  133.4587  151.8542 C   0  0  2  0  0  0  0  0  0  0  0  0
  144.9518  132.5928  152.6496 O   0  0  0  0  0  0  0  0  0  0  0  0
  146.1009  132.1725  151.9264 C   0  0  1  0  0  0  0  0  0  0  0  0
  146.6997  130.9172  152.5769 C   0  0  0  0  0  0  0  0  0  0  0  0
  148.0970  131.0693  152.7079 O   0  0  0  0  0  0  0  0  0  0  0  0
  145.5229  131.9320  150.5300 C   0  0  2  0  0  0  0  0  0  0  0  0
  146.5293  132.1005  149.5522 O   0  0  0  0  0  0  0  0  0  0  0  0
  144.4555  133.0177  150.3935 C   0  0  1  0  0  0  0  0  0  0  0  0
  143.2850  132.4877  149.8065 O   0  0  0  0  0  0  0  0  0  0  0  0
  143.7440  135.8402  152.5256 C   0  0  0  0  0  0  0  0  0  0  0  0
  142.5650  135.5279  152.6895 O   0  0  0  0  0  0  0  0  0  0  0  0
  144.2209  137.1410  152.7413 N   0  0  0  0  0  0  0  0  0  0  0  0
  143.1605  133.4629  152.1630 H   0  0  0  0  0  0  0  0  0  0  0  0
  146.8349  132.9805  151.8867 H   0  0  0  0  0  0  0  0  0  0  0  0
  145.0857  130.9339  150.4655 H   0  0  0  0  0  0  0  0  0  0  0  0
  144.8143  133.8567  149.7953 H   0  0  0  0  0  0  0  0  0  0  0  0
  145.4605  139.5490  153.0575 H   0  0  0  0  0  0  0  0  0  0  0  0
  146.9888  138.9628  152.6665 H   0  0  0  0  0  0  0  0  0  0  0  0
  146.7333  134.4758  151.7724 H   0  0  0  0  0  0  0  0  0  0  0  0
  146.2445  130.7144  153.5469 H   0  0  0  0  0  0  0  0  0  0  0  0
  146.5217  130.0461  151.9456 H   0  0  0  0  0  0  0  0  0  0  0  0
  148.4976  130.8939  151.8699 H   0  0  0  0  0  0  0  0  0  0  0  0
  147.2338  131.4991  149.7418 H   0  0  0  0  0  0  0  0  0  0  0  0
  142.6294  133.1684  149.7722 H   0  0  0  0  0  0  0  0  0  0  0  0
  147.3084  136.6979  152.1523 H   0  0  0  0  0  0  0  0  0  0  0  0
  1  2  1  0  0  0  0
  1 22  1  0  0  0  0
  1 23  1  0  0  0  0
  2 17  2  0  0  0  0
  2  3  1  0  0  0  0
  3  4  2  0  0  0  0
  3 30  1  0  0  0  0
  4  5  1  0  0  0  0
  4 24  1  0  0  0  0
  5  6  1  0  0  0  0
  5 15  1  0  0  0  0
  6 18  1  0  0  0  0
  6 13  1  0  0  0  0
  6  7  1  0  0  0  0
  7  8  1  0  0  0  0
  8 19  1  0  0  0  0
  8  9  1  0  0  0  0
  8 11  1  0  0  0  0
  9 10  1  0  0  0  0
  9 25  1  0  0  0  0
  9 26  1  0  0  0  0
 10 27  1  0  0  0  0
 11 20  1  0  0  0  0
 11 12  1  0  0  0  0
 11 13  1  0  0  0  0
 12 28  1  0  0  0  0
 13 21  1  0  0  0  0
 13 14  1  0  0  0  0
 14 29  1  0  0  0  0
 15 16  2  0  0  0  0
 15 17  1  0  0  0  0
M  CHG  1   3   1
M  END
> <s_m_source_file>
AV-unprocessed.smi

> <i_m_source_file_index>
72

> <i_lp_mmshare_version>
43012

> <i_f3d_flags>
0

> <s_epik_input>
W05IMl1jMW5bY0hdbihjKD1PKW4xKVtDQEBIXTJPW0NASF0oW0NIMl1bT0hdKVtDQEBIXShbT0hdKVtDQEhdMltPSF0=

> <s_epik_cmdline>
J2VwaWtfcHl0aG9uJywgJy1waCcsICc3LjAnLCAnLXRuJywgJzgnLCAnLW1hJywgJzIwMCcsICctbWV0YWxfYmluZGluZycsICctaW1hZScsICc8aW5maWxlLm1hZT4nLCAnLW9tYWUnLCAnPG91dGZpbGUubWFlPic=

> <r_lp_tautomer_probability>
4.77166e-05

> <r_epik_Ionization_Penalty>
0.104979

> <r_epik_Ionization_Penalty_Charging>
0.0999619

> <r_epik_Ionization_Penalty_Neutral>
0.00501745

> <r_epik_State_Penalty>
2.51541

> <r_epik_Charging_Adjusted_Penalty>
2.61537

> <i_epik_Tot_Q>
1

> <i_epik_Tot_abs_Q>
1

> <r_epik_Metal_State_Penalty>
3.53763

> <b_epik_Metal_Only>
0

> <s_epik_Chemistry_Notes>
This compound contains an acetal/aminal-like group ( X-CH(R)-Y where X, Y are N, S, or O) that may be acid/base labile, releasing an aldehyde.

> <s_lp_Force_Field>
OPLS_2005

> <r_lp_Energy>
25.3585

> <b_lp_Chiralities_Consistent>
1

> <s_lp_Variant>
AV-unprocessed.smi:72-39

> <Gold.Version>
5.8.1

> <Gold.Id.Protein>
6NUR|6NUR_protein|mol2

> <Gold.PLP.Fitness>
42.8597

> <Gold.PLP.PLP>
-26.4830

> <Gold.PLP.part.hbond>
-5.4301

> <Gold.PLP.part.metal>
0.0000

> <Gold.PLP.part.buried>
-4.4316

> <Gold.PLP.part.nonpolar>
-15.7954

> <Gold.PLP.part.repulsive>
0.9760

> <Gold.PLP.ligand.clash>
0.0000

> <Gold.PLP.ligand.torsion>
0.7400

> <Gold.PLP.Chemscore.Hbond>
5.8233

> <Gold.PLP.Chemscore.CHOScore>
0.1137

> <Gold.PLP.Chemscore.Metal>
0.0000

> <Gold.Chemscore.Hbonds>
donor molecule, donor type, donor heavy atom, donor atom, acceptor molecule, acceptor atom, score
      L1  H     1    22       P1 10175  0.65
      L1  H     3    30       P1  7948  2.00
      L1  H    10    27       P1 10747  1.00
      L1  H    12    28       P1 10747  1.00
      L1  H    14    29       P1 10186  0.93
      L1  C     4    24       P1  7948  0.14

> <Gold.PLP.Chemscore.Internal.Correction>
0.0458

> <Gold.Rescore>
     Score         DG    S(hbond)    S(metal)    S(lipo)     H(rot)  DE(clash)    DE(int)     intcor
     12.59     -14.49       4.75        0.00      30.76       4.08       0.11       1.79       ----

> <Gold.Chemscore.Fitness>
12.5948

> <Gold.Chemscore.DG>
-14.4946

> <Gold.Chemscore.ZeroCoef>
-5.4800

> <Gold.Chemscore.Hbond>
4.7474

> <Gold.Chemscore.Metal>
0.0000

> <Gold.Chemscore.Lipo>
30.7587

> <Gold.Chemscore.Internal_Hbond>
0.0000

> <Gold.Chemscore.DEClash>
0.1081

> <Gold.Chemscore.DEInternal>
1.7918

> <Gold.Chemscore.Rot>
4.0783

> <Gold.Chemscore.Internal.Correction>
   9.000000E+99

> <Gold.Chemscore.Hbonds>
donor molecule, donor type, donor heavy atom, donor atom, acceptor molecule, acceptor atom, score
      L1  H     1    22       P1 10175  0.62
      L1  H     3    30       P1  7948  0.95
      L1  H    10    27       P1 10747  0.97
      L1  H    12    28       P1 10747  0.99
      L1  H    14    29       P1 10186  0.89

> <Gold.Chemscore.Hbond.Weighted>
-15.8563

> <Gold.Chemscore.Metal.Weighted>
-0.0000

> <Gold.Chemscore.Lipo.Weighted>
-3.5988

> <Gold.Chemscore.Internal_Hbond.Weighted>
0.0000

> <Gold.Chemscore.DEClash.Weighted>
0.1081

> <Gold.Chemscore.DEInternal.Weighted>
1.7918

> <Gold.Chemscore.Rot.Weighted>
10.4404

> <Gold.Chemscore.Internal.Correction.Weighted>
   9.000000E+99

> <Gold.Protein.RotatedTorsions>
[ 6907 6896 6895 6894 ] final   11.19 input  -60.11 | X-H torsion
[ 7974 7965 7964 7962 ] final -108.13 input  175.53 | X-H torsion
[ 8008 7997 7996 7995 ] final  166.95 input   59.86 | X-H torsion
[ 10167 10162 10161 10158 ] final -134.28 input  -65.29 | X-H torsion
[ 10718 10713 10712 10709 ] final  -47.97 input   66.30 | X-H torsion
[ 10763 10752 10751 10750 ] final -126.76 input  -60.55 | X-H torsion
[ 11005 11000 10999 10996 ] final  150.56 input  -57.11 | X-H torsion

> <Gold.Protein.ActiveResidues>
 VAL166  LYS551  ARG553  GLY616  TRP617  ASP618  TYR619  PRO620  LYS621  CYS622 
 ASP623  PHE694  ASN695  SER759  ASP760  ASP761  ALA762  ILE779  LEU786  VAL792 
 PHE793  MET794  SER795  GLU796  ALA797  LYS798  CYS799  TRP800  GLU811  SER814 

> <Gold.Protein.RotatedAtoms>
  151.7503  135.0834  160.0329 H   0  0  0  0  0  0  0  0  0  0  0  0  # atno 6907 bound_to 6896
  152.3421  133.6075  159.5892 H   0  0  0  0  0  0  0  0  0  0  0  0  # atno 6908 bound_to 6896
  150.7486  133.9622  159.3561 H   0  0  0  0  0  0  0  0  0  0  0  0  # atno 6909 bound_to 6896
  145.1967  140.9039  143.3393 H   0  0  0  0  0  0  0  0  0  0  0  0  # atno 7974 bound_to 7965
  156.1675  140.1630  156.8506 H   0  0  0  0  0  0  0  0  0  0  0  0  # atno 8008 bound_to 7997
  154.5222  140.0775  156.8228 H   0  0  0  0  0  0  0  0  0  0  0  0  # atno 8009 bound_to 7997
  155.3581  140.3393  155.4242 H   0  0  0  0  0  0  0  0  0  0  0  0  # atno 8010 bound_to 7997
  139.8897  143.6738  152.2614 H   0  0  0  0  0  0  0  0  0  0  0  0  # atno 10167 bound_to 10162
  156.2033  130.4157  149.9212 H   0  0  0  0  0  0  0  0  0  0  0  0  # atno 10718 bound_to 10713
  154.8748  135.3984  154.3483 H   0  0  0  0  0  0  0  0  0  0  0  0  # atno 10763 bound_to 10752
  153.4272  135.7024  153.6260 H   0  0  0  0  0  0  0  0  0  0  0  0  # atno 10764 bound_to 10752
  153.4896  135.3751  155.2455 H   0  0  0  0  0  0  0  0  0  0  0  0  # atno 10765 bound_to 10752
  140.1142  134.8905  157.1979 H   0  0  0  0  0  0  0  0  0  0  0  0  # atno 11005 bound_to 11000
  144.9987  139.3619  143.6178 LP  0  0  0  0  0  0  0  0  0  0  0  0  # atno 17320 bound_to 7965
  146.3425  139.9201  142.8768 LP  0  0  0  0  0  0  0  0  0  0  0  0  # atno 17321 bound_to 7965
  139.7121  144.7618  151.1095 LP  0  0  0  0  0  0  0  0  0  0  0  0  # atno 17342 bound_to 10162
  140.7729  143.5317  150.9415 LP  0  0  0  0  0  0  0  0  0  0  0  0  # atno 17343 bound_to 10162
  156.6914  130.8897  151.3588 LP  0  0  0  0  0  0  0  0  0  0  0  0  # atno 17370 bound_to 10713
  157.6998  130.9321  150.0751 LP  0  0  0  0  0  0  0  0  0  0  0  0  # atno 17371 bound_to 10713
  140.3051  134.3087  155.7280 LP  0  0  0  0  0  0  0  0  0  0  0  0  # atno 17394 bound_to 11000
  141.2137  133.7616  156.9696 LP  0  0  0  0  0  0  0  0  0  0  0  0  # atno 17395 bound_to 11000

$$$$
