AV-unprocessed.smi:714|AV-procd|sdf|3483|dock7
  -GOLD-   22720 0473D 1   1.00000     0.00000
 Structure written by MMmdl.
 38 39  0  0  0  0  0  0  0  0  1 V2000
  145.6124  135.8987  150.8367 C   0  0  0  0  0  0  0  0  0  0  0  0
  145.7401  136.7632  151.6896 C   0  0  0  0  0  0  0  0  0  0  0  0
  145.8836  137.7975  152.7281 C   0  0  0  0  0  0  0  0  0  0  0  0
  147.2590  137.9402  153.1931 N   0  0  0  0  0  0  0  0  0  0  0  0
  147.6727  138.7560  154.1794 C   0  0  0  0  0  0  0  0  0  0  0  0
  146.8873  139.4747  154.8000 O   0  0  0  0  0  0  0  0  0  0  0  0
  149.1157  138.7001  154.4254 C   0  0  0  0  0  0  0  0  0  0  0  0
  149.9347  137.5439  154.1006 C   0  0  0  0  0  0  0  0  0  0  0  0
  151.2492  137.5345  154.3932 C   0  0  0  0  0  0  0  0  0  0  0  0
  151.9091  138.6763  155.0331 C   0  0  0  0  0  0  0  0  0  0  0  0
  153.1034  138.6432  155.3301 O   0  0  0  0  0  0  0  0  0  0  0  0
  151.1208  139.7713  155.2696 N   0  0  0  0  0  0  0  0  0  0  0  0
  151.6964  140.9694  155.9299 C   0  0  1  0  0  0  0  0  0  0  0  0
  150.6679  142.0989  156.1666 C   0  0  0  0  0  0  0  0  0  0  0  0
  150.4764  142.2142  157.6848 C   0  0  0  0  0  0  0  0  0  0  0  0
  151.5087  141.3725  158.2618 N   0  0  0  0  0  0  0  0  0  0  0  0
  151.6899  141.3092  159.7110 C   0  0  0  0  0  0  0  0  0  0  0  0
  152.6777  142.3712  160.2267 C   0  0  0  0  0  0  0  0  0  0  0  0
  152.8483  142.2029  161.5374 F   0  0  0  0  0  0  0  0  0  0  0  0
  153.8634  142.2590  159.6288 F   0  0  0  0  0  0  0  0  0  0  0  0
  152.1940  143.5953  160.0152 F   0  0  0  0  0  0  0  0  0  0  0  0
  152.1597  140.6424  157.3491 C   0  0  0  0  0  0  0  0  0  0  0  0
  153.0343  139.8095  157.5853 O   0  0  0  0  0  0  0  0  0  0  0  0
  149.7338  139.7539  154.9923 C   0  0  0  0  0  0  0  0  0  0  0  0
  145.5001  135.1410  150.0940 H   0  0  0  0  0  0  0  0  0  0  0  0
  145.4940  138.7399  152.3407 H   0  0  0  0  0  0  0  0  0  0  0  0
  145.2550  137.5144  153.5723 H   0  0  0  0  0  0  0  0  0  0  0  0
  147.9552  137.3781  152.7255 H   0  0  0  0  0  0  0  0  0  0  0  0
  149.5136  136.6710  153.6239 H   0  0  0  0  0  0  0  0  0  0  0  0
  151.8371  136.6625  154.1466 H   0  0  0  0  0  0  0  0  0  0  0  0
  152.5433  141.3874  155.3837 H   0  0  0  0  0  0  0  0  0  0  0  0
  151.0759  143.0364  155.7866 H   0  0  0  0  0  0  0  0  0  0  0  0
  149.7212  141.9509  155.6458 H   0  0  0  0  0  0  0  0  0  0  0  0
  150.5708  143.2454  158.0269 H   0  0  0  0  0  0  0  0  0  0  0  0
  149.4952  141.8438  157.9842 H   0  0  0  0  0  0  0  0  0  0  0  0
  150.7220  141.4446  160.1955 H   0  0  0  0  0  0  0  0  0  0  0  0
  152.0318  140.3121  159.9933 H   0  0  0  0  0  0  0  0  0  0  0  0
  149.2039  140.6471  155.2876 H   0  0  0  0  0  0  0  0  0  0  0  0
  1  2  3  0  0  0  0
  1 25  1  0  0  0  0
  2  3  1  0  0  0  0
  3  4  1  0  0  0  0
  3 26  1  0  0  0  0
  3 27  1  0  0  0  0
  4  5  1  0  0  0  0
  4 28  1  0  0  0  0
  5  6  2  0  0  0  0
  5  7  1  0  0  0  0
  7 24  2  0  0  0  0
  7  8  1  0  0  0  0
  8  9  2  0  0  0  0
  8 29  1  0  0  0  0
  9 10  1  0  0  0  0
  9 30  1  0  0  0  0
 10 11  2  0  0  0  0
 10 12  1  0  0  0  0
 12 13  1  0  0  0  0
 12 24  1  0  0  0  0
 13 22  1  0  0  0  0
 13 14  1  0  0  0  0
 13 31  1  0  0  0  0
 14 15  1  0  0  0  0
 14 32  1  0  0  0  0
 14 33  1  0  0  0  0
 15 16  1  0  0  0  0
 15 34  1  0  0  0  0
 15 35  1  0  0  0  0
 16 17  1  0  0  0  0
 16 22  1  0  0  0  0
 17 18  1  0  0  0  0
 17 36  1  0  0  0  0
 17 37  1  0  0  0  0
 18 19  1  0  0  0  0
 18 20  1  0  0  0  0
 18 21  1  0  0  0  0
 22 23  2  0  0  0  0
 24 38  1  0  0  0  0
M  END
> <s_m_source_file>
AV-unprocessed.smi

> <i_m_source_file_index>
714

> <i_lp_mmshare_version>
43012

> <i_f3d_flags>
0

> <s_epik_input>
W0NIXSNDW0NIMl1bTkhdQyg9TyljMVtjSF1bY0hdYyg9TyluKFtjSF0xKVtDQEBIXTJbQ0gyXVtDSDJdTihDMj1PKVtDSDJdQyhGKShGKUY=

> <s_epik_cmdline>
J2VwaWtfcHl0aG9uJywgJy1waCcsICc3LjAnLCAnLXRuJywgJzgnLCAnLW1hJywgJzIwMCcsICctbWV0YWxfYmluZGluZycsICctaW1hZScsICc8aW5maWxlLm1hZT4nLCAnLW9tYWUnLCAnPG91dGZpbGUubWFlPic=

> <r_lp_tautomer_probability>
1

> <r_epik_Ionization_Penalty>
2.95503e-06

> <r_epik_Ionization_Penalty_Charging>
5.74209e-08

> <r_epik_Ionization_Penalty_Neutral>
2.89761e-06

> <r_epik_State_Penalty>
-0

> <r_epik_Charging_Adjusted_Penalty>
5.74209e-08

> <i_epik_Tot_Q>
0

> <i_epik_Tot_abs_Q>
0

> <r_epik_Metal_State_Penalty>
-0

> <b_epik_Metal_Only>
0

> <s_lp_Force_Field>
OPLS_2005

> <r_lp_Energy>
33.0774

> <b_lp_Chiralities_Consistent>
1

> <s_lp_Variant>
AV-unprocessed.smi:714-2

> <Gold.Version>
5.8.1

> <Gold.Id.Protein>
6NUR|6NUR_protein|mol2

> <Gold.PLP.Fitness>
50.0909

> <Gold.PLP.PLP>
-45.2691

> <Gold.PLP.part.hbond>
-2.9379

> <Gold.PLP.part.metal>
0.0000

> <Gold.PLP.part.buried>
1.2489

> <Gold.PLP.part.nonpolar>
-42.0341

> <Gold.PLP.part.repulsive>
0.0955

> <Gold.PLP.ligand.clash>
0.0000

> <Gold.PLP.ligand.torsion>
0.6816

> <Gold.PLP.Chemscore.Hbond>
2.0000

> <Gold.PLP.Chemscore.CHOScore>
0.0000

> <Gold.PLP.Chemscore.Metal>
0.0000

> <Gold.Chemscore.Hbonds>
donor molecule, donor type, donor heavy atom, donor atom, acceptor molecule, acceptor atom, score
      L1  H     4    28       P1  7948  1.00
      P1  H  7997  8009       L1    23  1.00

> <Gold.PLP.Chemscore.Internal.Correction>
0.1850

> <Gold.Rescore>
     Score         DG    S(hbond)    S(metal)    S(lipo)     H(rot)  DE(clash)    DE(int)     intcor
     11.89     -17.75       1.88        0.00      86.65       1.61       2.22       3.64       ----

> <Gold.Chemscore.Fitness>
11.8892

> <Gold.Chemscore.DG>
-17.7511

> <Gold.Chemscore.ZeroCoef>
-5.4800

> <Gold.Chemscore.Hbond>
1.8754

> <Gold.Chemscore.Metal>
0.0000

> <Gold.Chemscore.Lipo>
86.6500

> <Gold.Chemscore.Internal_Hbond>
0.0000

> <Gold.Chemscore.DEClash>
2.2238

> <Gold.Chemscore.DEInternal>
3.6382

> <Gold.Chemscore.Rot>
1.6136

> <Gold.Chemscore.Internal.Correction>
   9.000000E+99

> <Gold.Chemscore.Hbonds>
donor molecule, donor type, donor heavy atom, donor atom, acceptor molecule, acceptor atom, score
      L1  H     4    28       P1  7948  1.00
      P1  H  7997  8009       L1    23  0.85

> <Gold.Chemscore.Hbond.Weighted>
-6.2638

> <Gold.Chemscore.Metal.Weighted>
-0.0000

> <Gold.Chemscore.Lipo.Weighted>
-10.1380

> <Gold.Chemscore.Internal_Hbond.Weighted>
0.0000

> <Gold.Chemscore.DEClash.Weighted>
2.2238

> <Gold.Chemscore.DEInternal.Weighted>
3.6382

> <Gold.Chemscore.Rot.Weighted>
4.1308

> <Gold.Chemscore.Internal.Correction.Weighted>
   9.000000E+99

> <Gold.Protein.RotatedTorsions>
[ 6907 6896 6895 6894 ] final  101.26 input  -60.11 | X-H torsion
[ 7974 7965 7964 7962 ] final -179.42 input  175.53 | X-H torsion
[ 8008 7997 7996 7995 ] final  173.61 input   59.86 | X-H torsion
[ 10167 10162 10161 10158 ] final  -14.90 input  -65.29 | X-H torsion
[ 10718 10713 10712 10709 ] final  125.54 input   66.30 | X-H torsion
[ 10763 10752 10751 10750 ] final   32.20 input  -60.55 | X-H torsion
[ 11005 11000 10999 10996 ] final  113.80 input  -57.11 | X-H torsion

> <Gold.Protein.ActiveResidues>
 VAL166  LYS551  ARG553  GLY616  TRP617  ASP618  TYR619  PRO620  LYS621  CYS622 
 ASP623  PHE694  ASN695  SER759  ASP760  ASP761  ALA762  ILE779  LEU786  VAL792 
 PHE793  MET794  SER795  GLU796  ALA797  LYS798  CYS799  TRP800  GLU811  SER814 

> <Gold.Protein.RotatedAtoms>
  152.5353  134.0152  159.7956 H   0  0  0  0  0  0  0  0  0  0  0  0  # atno 6907 bound_to 6896
  151.0348  133.5751  159.2664 H   0  0  0  0  0  0  0  0  0  0  0  0  # atno 6908 bound_to 6896
  151.2742  135.0701  159.9199 H   0  0  0  0  0  0  0  0  0  0  0  0  # atno 6909 bound_to 6896
  144.7136  140.0721  143.6429 H   0  0  0  0  0  0  0  0  0  0  0  0  # atno 7974 bound_to 7965
  156.1058  140.1456  156.9406 H   0  0  0  0  0  0  0  0  0  0  0  0  # atno 8008 bound_to 7997
  154.4733  140.0902  156.7244 H   0  0  0  0  0  0  0  0  0  0  0  0  # atno 8009 bound_to 7997
  155.4681  140.3441  155.4324 H   0  0  0  0  0  0  0  0  0  0  0  0  # atno 8010 bound_to 7997
  140.7209  143.5274  150.9560 H   0  0  0  0  0  0  0  0  0  0  0  0  # atno 10167 bound_to 10162
  157.5494  131.1094  150.8727 H   0  0  0  0  0  0  0  0  0  0  0  0  # atno 10718 bound_to 10713
  153.0275  135.6419  154.1318 H   0  0  0  0  0  0  0  0  0  0  0  0  # atno 10763 bound_to 10752
  154.1045  135.2857  155.3246 H   0  0  0  0  0  0  0  0  0  0  0  0  # atno 10764 bound_to 10752
  154.6375  135.5471  153.7814 H   0  0  0  0  0  0  0  0  0  0  0  0  # atno 10765 bound_to 10752
  139.8963  134.9556  156.6794 H   0  0  0  0  0  0  0  0  0  0  0  0  # atno 11005 bound_to 11000
  145.9774  139.2915  143.1062 LP  0  0  0  0  0  0  0  0  0  0  0  0  # atno 17320 bound_to 7965
  145.9048  140.9219  143.0484 LP  0  0  0  0  0  0  0  0  0  0  0  0  # atno 17321 bound_to 7965
  139.8993  143.6855  152.3134 LP  0  0  0  0  0  0  0  0  0  0  0  0  # atno 17342 bound_to 10162
  139.7199  144.7604  151.0972 LP  0  0  0  0  0  0  0  0  0  0  0  0  # atno 17343 bound_to 10162
  156.9257  130.5331  149.5279 LP  0  0  0  0  0  0  0  0  0  0  0  0  # atno 17370 bound_to 10713
  156.0563  130.5624  150.9099 LP  0  0  0  0  0  0  0  0  0  0  0  0  # atno 17371 bound_to 10713
  140.7311  133.9058  155.8212 LP  0  0  0  0  0  0  0  0  0  0  0  0  # atno 17394 bound_to 11000
  141.0153  134.0965  157.4179 LP  0  0  0  0  0  0  0  0  0  0  0  0  # atno 17395 bound_to 11000

$$$$
