AV-unprocessed.smi:2924|AV-procd|sdf|11218|dock2
  -GOLD-   2272016103D 1   1.00000     0.00000
 Structure written by MMmdl.
 29 31  0  0  0  0  0  0  0  0  1 V2000
  148.7140  142.0656  154.0239 N   0  0  0  0  0  0  0  0  0  0  0  0
  149.4651  141.5117  154.7076 C   0  0  0  0  0  0  0  0  0  0  0  0
  150.4116  140.8133  155.5690 C   0  0  0  0  0  0  0  0  0  0  0  0
  150.7867  139.4933  155.2419 C   0  0  0  0  0  0  0  0  0  0  0  0
  151.6978  138.8136  156.0704 C   0  0  0  0  0  0  0  0  0  0  0  0
  152.2008  139.4858  157.1990 C   0  0  0  0  0  0  0  0  0  0  0  0
  151.8507  140.7477  157.5234 N   0  0  0  0  0  0  0  0  0  0  0  0
  150.9714  141.4092  156.7313 C   0  0  0  0  0  0  0  0  0  0  0  0
  150.6272  142.7242  157.0950 N   0  0  0  0  0  0  0  0  0  0  0  0
  150.8287  143.2187  158.4531 C   0  0  2  0  0  0  0  0  0  0  0  0
  150.6051  144.7311  158.5825 C   0  0  0  0  0  0  0  0  0  0  0  0
  151.9406  145.2001  159.1727 C   0  0  1  0  0  0  0  0  0  0  0  0
  152.1371  144.7243  160.6186 C   0  0  0  0  0  0  0  0  0  0  0  0
  152.4228  143.2360  160.4211 C   0  0  0  0  0  0  0  0  0  0  0  0
  152.2950  143.0884  158.8988 C   0  0  2  0  0  0  0  0  0  0  0  0
  152.8299  144.3363  158.4876 O   0  0  0  0  0  0  0  0  0  0  0  0
  150.3836  139.0026  154.3675 H   0  0  0  0  0  0  0  0  0  0  0  0
  152.0035  137.8024  155.8466 H   0  0  0  0  0  0  0  0  0  0  0  0
  152.9028  138.9983  157.8590 H   0  0  0  0  0  0  0  0  0  0  0  0
  150.0467  143.2694  156.4736 H   0  0  0  0  0  0  0  0  0  0  0  0
  150.1879  142.6600  159.1366 H   0  0  0  0  0  0  0  0  0  0  0  0
  150.4399  145.1990  157.6107 H   0  0  0  0  0  0  0  0  0  0  0  0
  149.7571  144.9766  159.2226 H   0  0  0  0  0  0  0  0  0  0  0  0
  152.1406  146.2613  159.0238 H   0  0  0  0  0  0  0  0  0  0  0  0
  152.9918  145.2197  161.0803 H   0  0  0  0  0  0  0  0  0  0  0  0
  151.2581  144.9094  161.2368 H   0  0  0  0  0  0  0  0  0  0  0  0
  153.4352  142.9955  160.7478 H   0  0  0  0  0  0  0  0  0  0  0  0
  151.7279  142.5945  160.9639 H   0  0  0  0  0  0  0  0  0  0  0  0
  152.8149  142.2160  158.5010 H   0  0  0  0  0  0  0  0  0  0  0  0
  1  2  3  0  0  0  0
  2  3  1  0  0  0  0
  3  8  1  0  0  0  0
  3  4  2  0  0  0  0
  4  5  1  0  0  0  0
  4 17  1  0  0  0  0
  5  6  2  0  0  0  0
  5 18  1  0  0  0  0
  6  7  1  0  0  0  0
  6 19  1  0  0  0  0
  7  8  2  0  0  0  0
  8  9  1  0  0  0  0
  9 10  1  0  0  0  0
  9 20  1  0  0  0  0
 10 15  1  0  0  0  0
 10 11  1  0  0  0  0
 10 21  1  0  0  0  0
 11 12  1  0  0  0  0
 11 22  1  0  0  0  0
 11 23  1  0  0  0  0
 12 16  1  0  0  0  0
 12 13  1  0  0  0  0
 12 24  1  0  0  0  0
 13 14  1  0  0  0  0
 13 25  1  0  0  0  0
 13 26  1  0  0  0  0
 14 15  1  0  0  0  0
 14 27  1  0  0  0  0
 14 28  1  0  0  0  0
 15 16  1  0  0  0  0
 15 29  1  0  0  0  0
M  END
> <s_m_source_file>
AV-unprocessed.smi

> <i_m_source_file_index>
2924

> <i_lp_mmshare_version>
43012

> <i_f3d_flags>
0

> <s_epik_input>
TiNDYzFbY0hdW2NIXVtjSF1uYzFbTkhdW0NASF0oW0NIMl1bQ0BASF0yMylbQ0BASF0oTzMpW0NIMl1bQ0gyXTI=

> <s_epik_cmdline>
J2VwaWtfcHl0aG9uJywgJy1waCcsICc3LjAnLCAnLXRuJywgJzgnLCAnLW1hJywgJzIwMCcsICctbWV0YWxfYmluZGluZycsICctaW1hZScsICc8aW5maWxlLm1hZT4nLCAnLW9tYWUnLCAnPG91dGZpbGUubWFlPic=

> <r_lp_tautomer_probability>
1

> <r_epik_Ionization_Penalty>
2.11559e-05

> <r_epik_Ionization_Penalty_Charging>
0

> <r_epik_Ionization_Penalty_Neutral>
2.11559e-05

> <r_epik_State_Penalty>
-0

> <r_epik_Charging_Adjusted_Penalty>
0

> <i_epik_Tot_Q>
0

> <i_epik_Tot_abs_Q>
0

> <r_epik_Metal_State_Penalty>
-0

> <b_epik_Metal_Only>
0

> <s_lp_Force_Field>
OPLS_2005

> <r_lp_Energy>
42.1946

> <b_lp_Chiralities_Consistent>
1

> <s_lp_Variant>
AV-unprocessed.smi:2924-1

> <Gold.Version>
5.8.1

> <Gold.Id.Protein>
6NUR|6NUR_protein|mol2

> <Gold.PLP.Fitness>
40.9869

> <Gold.PLP.PLP>
-37.1026

> <Gold.PLP.part.hbond>
-2.0000

> <Gold.PLP.part.metal>
0.0000

> <Gold.PLP.part.buried>
-3.8786

> <Gold.PLP.part.nonpolar>
-31.8310

> <Gold.PLP.part.repulsive>
0.2614

> <Gold.PLP.ligand.clash>
0.0000

> <Gold.PLP.ligand.torsion>
0.1299

> <Gold.PLP.Chemscore.Hbond>
1.3748

> <Gold.PLP.Chemscore.CHOScore>
0.0000

> <Gold.PLP.Chemscore.Metal>
0.0000

> <Gold.Chemscore.Hbonds>
donor molecule, donor type, donor heavy atom, donor atom, acceptor molecule, acceptor atom, score
      L1  H     9    20       P1  8028  1.00
      P1  H  8011  8017       L1     1  0.38

> <Gold.PLP.Chemscore.Internal.Correction>
0.0198

> <Gold.Rescore>
     Score         DG    S(hbond)    S(metal)    S(lipo)     H(rot)  DE(clash)    DE(int)     intcor
     16.60     -18.42       1.39        0.00      92.79       1.00       0.25       1.58       ----

> <Gold.Chemscore.Fitness>
16.5958

> <Gold.Chemscore.DG>
-18.4221

> <Gold.Chemscore.ZeroCoef>
-5.4800

> <Gold.Chemscore.Hbond>
1.3911

> <Gold.Chemscore.Metal>
0.0000

> <Gold.Chemscore.Lipo>
92.7850

> <Gold.Chemscore.Internal_Hbond>
0.0000

> <Gold.Chemscore.DEClash>
0.2476

> <Gold.Chemscore.DEInternal>
1.5787

> <Gold.Chemscore.Rot>
1.0000

> <Gold.Chemscore.Internal.Correction>
   9.000000E+99

> <Gold.Chemscore.Hbonds>
donor molecule, donor type, donor heavy atom, donor atom, acceptor molecule, acceptor atom, score
      L1  H     9    20       P1  8028  0.93
      P1  H  8011  8017       L1     1  0.16

> <Gold.Chemscore.Hbond.Weighted>
-4.6462

> <Gold.Chemscore.Metal.Weighted>
-0.0000

> <Gold.Chemscore.Lipo.Weighted>
-10.8558

> <Gold.Chemscore.Internal_Hbond.Weighted>
0.0000

> <Gold.Chemscore.DEClash.Weighted>
0.2476

> <Gold.Chemscore.DEInternal.Weighted>
1.5787

> <Gold.Chemscore.Rot.Weighted>
2.5600

> <Gold.Chemscore.Internal.Correction.Weighted>
   9.000000E+99

> <Gold.Protein.RotatedTorsions>
[ 6907 6896 6895 6894 ] final  167.23 input  -60.11 | X-H torsion
[ 7974 7965 7964 7962 ] final  -19.77 input  175.53 | X-H torsion
[ 8008 7997 7996 7995 ] final  -13.42 input   59.86 | X-H torsion
[ 10167 10162 10161 10158 ] final  -55.31 input  -65.29 | X-H torsion
[ 10718 10713 10712 10709 ] final   22.23 input   66.30 | X-H torsion
[ 10763 10752 10751 10750 ] final   59.69 input  -60.55 | X-H torsion
[ 11005 11000 10999 10996 ] final   75.06 input  -57.11 | X-H torsion

> <Gold.Protein.ActiveResidues>
 VAL166  LYS551  ARG553  GLY616  TRP617  ASP618  TYR619  PRO620  LYS621  CYS622 
 ASP623  PHE694  ASN695  SER759  ASP760  ASP761  ALA762  ILE779  LEU786  VAL792 
 PHE793  MET794  SER795  GLU796  ALA797  LYS798  CYS799  TRP800  GLU811  SER814 

> <Gold.Protein.RotatedAtoms>
  151.8666  133.3467  159.3720 H   0  0  0  0  0  0  0  0  0  0  0  0  # atno 6907 bound_to 6896
  150.7164  134.5154  159.5637 H   0  0  0  0  0  0  0  0  0  0  0  0  # atno 6908 bound_to 6896
  152.2678  134.7966  160.0470 H   0  0  0  0  0  0  0  0  0  0  0  0  # atno 6909 bound_to 6896
  146.1824  140.4108  142.8489 H   0  0  0  0  0  0  0  0  0  0  0  0  # atno 7974 bound_to 7965
  154.5294  140.2250  155.8832 H   0  0  0  0  0  0  0  0  0  0  0  0  # atno 8008 bound_to 7997
  156.1747  140.3114  155.9002 H   0  0  0  0  0  0  0  0  0  0  0  0  # atno 8009 bound_to 7997
  155.3484  140.0454  157.3036 H   0  0  0  0  0  0  0  0  0  0  0  0  # atno 8010 bound_to 7997
  140.6382  143.2493  151.5062 H   0  0  0  0  0  0  0  0  0  0  0  0  # atno 10167 bound_to 10162
  157.1494  130.6668  149.6007 H   0  0  0  0  0  0  0  0  0  0  0  0  # atno 10718 bound_to 10713
  152.9901  135.5563  154.5753 H   0  0  0  0  0  0  0  0  0  0  0  0  # atno 10763 bound_to 10752
  154.5145  135.2804  155.1317 H   0  0  0  0  0  0  0  0  0  0  0  0  # atno 10764 bound_to 10752
  154.2695  135.6366  153.5357 H   0  0  0  0  0  0  0  0  0  0  0  0  # atno 10765 bound_to 10752
  139.9361  134.7486  156.1224 H   0  0  0  0  0  0  0  0  0  0  0  0  # atno 11005 bound_to 11000
  144.8338  140.6749  143.6274 LP  0  0  0  0  0  0  0  0  0  0  0  0  # atno 17320 bound_to 7965
  145.4038  139.1592  143.4163 LP  0  0  0  0  0  0  0  0  0  0  0  0  # atno 17321 bound_to 7965
  139.5591  144.2200  152.1662 LP  0  0  0  0  0  0  0  0  0  0  0  0  # atno 17342 bound_to 10162
  140.1463  144.5156  150.6714 LP  0  0  0  0  0  0  0  0  0  0  0  0  # atno 17343 bound_to 10162
  155.9773  130.4750  150.6586 LP  0  0  0  0  0  0  0  0  0  0  0  0  # atno 17370 bound_to 10713
  157.4234  131.0840  151.1109 LP  0  0  0  0  0  0  0  0  0  0  0  0  # atno 17371 bound_to 10713
  141.0976  133.6690  156.2680 LP  0  0  0  0  0  0  0  0  0  0  0  0  # atno 17394 bound_to 11000
  140.6071  134.5496  157.5527 LP  0  0  0  0  0  0  0  0  0  0  0  0  # atno 17395 bound_to 11000

$$$$
