AV-unprocessed.smi:140|AV-procd|sdf|1186|dock1
  -GOLD-   2262018343D 1   1.00000     0.00000
 Structure written by MMmdl.
 52 55  0  0  0  0  0  0  0  0  1 V2000
  155.5586  131.7607  160.0347 C   0  0  0  0  0  0  0  0  0  0  0  0
  155.1703  132.7854  161.0521 C   0  0  0  0  0  0  0  0  0  0  0  0
  155.1843  134.1457  160.9602 C   0  0  0  0  0  0  0  0  0  0  0  0
  154.7242  134.6882  162.1920 C   0  0  0  0  0  0  0  0  0  0  0  0
  154.5816  136.1160  162.5739 C   0  0  0  0  0  0  0  0  0  0  0  0
  153.9188  136.4929  163.5417 O   0  0  0  0  0  0  0  0  0  0  0  0
  155.3275  137.1243  161.6797 C   0  0  0  0  0  0  0  0  0  0  0  0
  154.4340  138.0486  160.9933 N   0  0  0  0  0  0  0  0  0  0  0  0
  153.4305  137.5020  160.1548 C   0  0  0  0  0  0  0  0  0  0  0  0
  153.2983  136.2871  159.9971 O   0  0  0  0  0  0  0  0  0  0  0  0
  152.5874  138.4928  159.4950 C   0  0  0  0  0  0  0  0  0  0  0  0
  151.5941  138.0865  158.6861 F   0  0  0  0  0  0  0  0  0  0  0  0
  152.7863  139.8156  159.6825 C   0  0  0  0  0  0  0  0  0  0  0  0
  153.7872  140.3218  160.4960 N   0  0  0  0  0  0  0  0  0  0  0  0
  153.9972  141.8090  160.6822 C   0  0  1  0  0  0  0  0  0  0  0  0
  153.1059  142.6070  159.7128 C   0  0  0  0  0  0  0  0  0  0  0  0
  152.4339  143.6102  160.6288 C   0  0  0  0  0  0  0  0  0  0  0  0
  152.3728  142.8433  161.9411 C   0  0  0  0  0  0  0  0  0  0  0  0
  153.6311  142.1822  161.9805 O   0  0  0  0  0  0  0  0  0  0  0  0
  154.6471  139.4355  161.1800 C   0  0  0  0  0  0  0  0  0  0  0  0
  155.5525  139.8651  161.8993 O   0  0  0  0  0  0  0  0  0  0  0  0
  154.4227  133.6307  163.0190 C   0  0  0  0  0  0  0  0  0  0  0  0
  153.8857  133.6078  164.4235 C   0  0  0  0  0  0  0  0  0  0  0  0
  154.7131  132.4555  162.3227 N   0  0  0  0  0  0  0  0  0  0  0  0
  154.5583  131.0962  162.8331 C   0  0  0  0  0  0  0  0  0  0  0  0
  153.1273  130.7036  163.0293 C   0  0  0  0  0  0  0  0  0  0  0  0
  152.1652  130.4972  162.0723 C   0  0  0  0  0  0  0  0  0  0  0  0
  150.8998  130.1313  162.6168 C   0  0  0  0  0  0  0  0  0  0  0  0
  150.9112  130.0603  163.9842 C   0  0  0  0  0  0  0  0  0  0  0  0
  152.4832  130.4414  164.6308 S   0  0  0  0  0  0  0  0  0  0  0  0
  155.7649  132.2293  159.0722 H   0  0  0  0  0  0  0  0  0  0  0  0
  154.7613  131.0328  159.8841 H   0  0  0  0  0  0  0  0  0  0  0  0
  156.4571  131.2264  160.3438 H   0  0  0  0  0  0  0  0  0  0  0  0
  155.5011  134.6973  160.0873 H   0  0  0  0  0  0  0  0  0  0  0  0
  156.0398  137.7105  162.2621 H   0  0  0  0  0  0  0  0  0  0  0  0
  155.9254  136.6108  160.9254 H   0  0  0  0  0  0  0  0  0  0  0  0
  152.1235  140.4917  159.1646 H   0  0  0  0  0  0  0  0  0  0  0  0
  155.0671  141.9785  160.5486 H   0  0  0  0  0  0  0  0  0  0  0  0
  153.6999  143.0711  158.9250 H   0  0  0  0  0  0  0  0  0  0  0  0
  152.3624  141.9510  159.2571 H   0  0  0  0  0  0  0  0  0  0  0  0
  153.0609  144.4955  160.7418 H   0  0  0  0  0  0  0  0  0  0  0  0
  151.4532  143.9263  160.2724 H   0  0  0  0  0  0  0  0  0  0  0  0
  152.2340  143.4930  162.8052 H   0  0  0  0  0  0  0  0  0  0  0  0
  151.5631  142.1125  161.9247 H   0  0  0  0  0  0  0  0  0  0  0  0
  153.0553  134.3052  164.5322 H   0  0  0  0  0  0  0  0  0  0  0  0
  154.6608  133.8938  165.1345 H   0  0  0  0  0  0  0  0  0  0  0  0
  153.5058  132.6321  164.7195 H   0  0  0  0  0  0  0  0  0  0  0  0
  155.0393  130.3923  162.1550 H   0  0  0  0  0  0  0  0  0  0  0  0
  155.1104  131.0120  163.7694 H   0  0  0  0  0  0  0  0  0  0  0  0
  152.3232  130.5987  161.0088 H   0  0  0  0  0  0  0  0  0  0  0  0
  150.0382  129.9367  161.9951 H   0  0  0  0  0  0  0  0  0  0  0  0
  150.0971  129.8088  164.6479 H   0  0  0  0  0  0  0  0  0  0  0  0
  1  2  1  0  0  0  0
  1 31  1  0  0  0  0
  1 32  1  0  0  0  0
  1 33  1  0  0  0  0
  2 24  1  0  0  0  0
  2  3  2  0  0  0  0
  3  4  1  0  0  0  0
  3 34  1  0  0  0  0
  4  5  1  0  0  0  0
  4 22  2  0  0  0  0
  5  6  2  0  0  0  0
  5  7  1  0  0  0  0
  7  8  1  0  0  0  0
  7 35  1  0  0  0  0
  7 36  1  0  0  0  0
  8 20  1  0  0  0  0
  8  9  1  0  0  0  0
  9 10  2  0  0  0  0
  9 11  1  0  0  0  0
 11 12  1  0  0  0  0
 11 13  2  0  0  0  0
 13 14  1  0  0  0  0
 13 37  1  0  0  0  0
 14 15  1  0  0  0  0
 14 20  1  0  0  0  0
 15 19  1  0  0  0  0
 15 16  1  0  0  0  0
 15 38  1  0  0  0  0
 16 17  1  0  0  0  0
 16 39  1  0  0  0  0
 16 40  1  0  0  0  0
 17 18  1  0  0  0  0
 17 41  1  0  0  0  0
 17 42  1  0  0  0  0
 18 19  1  0  0  0  0
 18 43  1  0  0  0  0
 18 44  1  0  0  0  0
 20 21  2  0  0  0  0
 22 23  1  0  0  0  0
 22 24  1  0  0  0  0
 23 45  1  0  0  0  0
 23 46  1  0  0  0  0
 23 47  1  0  0  0  0
 24 25  1  0  0  0  0
 25 26  1  0  0  0  0
 25 48  1  0  0  0  0
 25 49  1  0  0  0  0
 26 30  1  0  0  0  0
 26 27  2  0  0  0  0
 27 28  1  0  0  0  0
 27 50  1  0  0  0  0
 28 29  2  0  0  0  0
 28 51  1  0  0  0  0
 29 30  1  0  0  0  0
 29 52  1  0  0  0  0
M  END
> <s_m_source_file>
AV-unprocessed.smi

> <i_m_source_file_index>
140

> <i_lp_mmshare_version>
43012

> <i_f3d_flags>
0

> <s_epik_input>
czFbY0hdW2NIXVtjSF1jMVtDSDJdbjJjKFtDSDNdKWMoW2NIXWMyW0NIM10pQyg9TylbQ0gyXW4zYyg9TyljKEYpW2NIXW4oYzM9TylbQ0BASF00W0NIMl1bQ0gyXVtDSDJdTzQ=

> <s_epik_cmdline>
J2VwaWtfcHl0aG9uJywgJy1waCcsICc3LjAnLCAnLXRuJywgJzgnLCAnLW1hJywgJzIwMCcsICctbWV0YWxfYmluZGluZycsICctaW1hZScsICc8aW5maWxlLm1hZT4nLCAnLW9tYWUnLCAnPG91dGZpbGUubWFlPic=

> <r_lp_tautomer_probability>
1

> <r_epik_Ionization_Penalty>
5.024e-09

> <r_epik_Ionization_Penalty_Charging>
5.01743e-09

> <r_epik_Ionization_Penalty_Neutral>
6.5712e-12

> <r_epik_State_Penalty>
-0

> <r_epik_Charging_Adjusted_Penalty>
5.01743e-09

> <i_epik_Tot_Q>
0

> <i_epik_Tot_abs_Q>
0

> <r_epik_Metal_State_Penalty>
-0

> <b_epik_Metal_Only>
0

> <s_epik_Chemistry_Notes>
This compound contains an acetal/aminal-like group ( X-CH(R)-Y where X, Y are N, S, or O) that may be acid/base labile, releasing an aldehyde.

> <s_lp_Force_Field>
OPLS_2005

> <r_lp_Energy>
38.6163

> <b_lp_Chiralities_Consistent>
1

> <s_lp_Variant>
AV-unprocessed.smi:140-2

> <Gold.Version>
5.8.1

> <Gold.Id.Protein>
6NUR|6NUR_protein|mol2

> <Gold.PLP.Fitness>
52.4324

> <Gold.PLP.PLP>
-50.2071

> <Gold.PLP.part.hbond>
-1.5568

> <Gold.PLP.part.metal>
0.0000

> <Gold.PLP.part.buried>
-5.4688

> <Gold.PLP.part.nonpolar>
-42.8795

> <Gold.PLP.part.repulsive>
0.0599

> <Gold.PLP.ligand.clash>
0.0000

> <Gold.PLP.ligand.torsion>
0.4225

> <Gold.PLP.Chemscore.Hbond>
1.0000

> <Gold.PLP.Chemscore.CHOScore>
0.0000

> <Gold.PLP.Chemscore.Metal>
0.0000

> <Gold.Chemscore.Hbonds>
donor molecule, donor type, donor heavy atom, donor atom, acceptor molecule, acceptor atom, score
      P1  H  6896  6907       L1    10  1.00

> <Gold.PLP.Chemscore.Internal.Correction>
0.0702

> <Gold.Rescore>
     Score         DG    S(hbond)    S(metal)    S(lipo)     H(rot)  DE(clash)    DE(int)     intcor
     13.58     -16.88       1.00        0.00     109.88       1.87       0.04       3.27       ----

> <Gold.Chemscore.Fitness>
13.5765

> <Gold.Chemscore.DG>
-16.8847

> <Gold.Chemscore.ZeroCoef>
-5.4800

> <Gold.Chemscore.Hbond>
0.9997

> <Gold.Chemscore.Metal>
0.0000

> <Gold.Chemscore.Lipo>
109.8814

> <Gold.Chemscore.Internal_Hbond>
0.0000

> <Gold.Chemscore.DEClash>
0.0351

> <Gold.Chemscore.DEInternal>
3.2731

> <Gold.Chemscore.Rot>
1.8713

> <Gold.Chemscore.Internal.Correction>
   9.000000E+99

> <Gold.Chemscore.Hbonds>
donor molecule, donor type, donor heavy atom, donor atom, acceptor molecule, acceptor atom, score
      P1  H  6896  6907       L1    10  1.00

> <Gold.Chemscore.Hbond.Weighted>
-3.3391

> <Gold.Chemscore.Metal.Weighted>
-0.0000

> <Gold.Chemscore.Lipo.Weighted>
-12.8561

> <Gold.Chemscore.Internal_Hbond.Weighted>
0.0000

> <Gold.Chemscore.DEClash.Weighted>
0.0351

> <Gold.Chemscore.DEInternal.Weighted>
3.2731

> <Gold.Chemscore.Rot.Weighted>
4.7905

> <Gold.Chemscore.Internal.Correction.Weighted>
   9.000000E+99

> <Gold.Protein.RotatedTorsions>
[ 6907 6896 6895 6894 ] final   44.18 input  -60.11 | X-H torsion
[ 7974 7965 7964 7962 ] final -112.99 input  175.53 | X-H torsion
[ 8008 7997 7996 7995 ] final -178.47 input   59.86 | X-H torsion
[ 10167 10162 10161 10158 ] final   -8.48 input  -65.29 | X-H torsion
[ 10718 10713 10712 10709 ] final  -46.58 input   66.30 | X-H torsion
[ 10763 10752 10751 10750 ] final  111.53 input  -60.55 | X-H torsion
[ 11005 11000 10999 10996 ] final  -79.89 input  -57.11 | X-H torsion

> <Gold.Protein.ActiveResidues>
 VAL166  LYS551  ARG553  GLY616  TRP617  ASP618  TYR619  PRO620  LYS621  CYS622 
 ASP623  PHE694  ASN695  SER759  ASP760  ASP761  ALA762  ILE779  LEU786  VAL792 
 PHE793  MET794  SER795  GLU796  ALA797  LYS798  CYS799  TRP800  GLU811  SER814 

> <Gold.Protein.RotatedAtoms>
  152.2294  134.8337  160.0475 H   0  0  0  0  0  0  0  0  0  0  0  0  # atno 6907 bound_to 6896
  151.9091  133.3552  159.3865 H   0  0  0  0  0  0  0  0  0  0  0  0  # atno 6908 bound_to 6896
  150.7021  134.4675  159.5454 H   0  0  0  0  0  0  0  0  0  0  0  0  # atno 6909 bound_to 6896
  145.1374  140.8759  143.3722 H   0  0  0  0  0  0  0  0  0  0  0  0  # atno 7974 bound_to 7965
  156.0192  140.1257  157.0375 H   0  0  0  0  0  0  0  0  0  0  0  0  # atno 8008 bound_to 7997
  154.4305  140.1072  156.6009 H   0  0  0  0  0  0  0  0  0  0  0  0  # atno 8009 bound_to 7997
  155.5969  140.3470  155.4585 H   0  0  0  0  0  0  0  0  0  0  0  0  # atno 8010 bound_to 7997
  140.7060  143.5964  150.8841 H   0  0  0  0  0  0  0  0  0  0  0  0  # atno 10167 bound_to 10162
  156.2168  130.4164  149.9043 H   0  0  0  0  0  0  0  0  0  0  0  0  # atno 10718 bound_to 10713
  153.4647  135.3714  155.2357 H   0  0  0  0  0  0  0  0  0  0  0  0  # atno 10763 bound_to 10752
  154.8757  135.3917  154.3883 H   0  0  0  0  0  0  0  0  0  0  0  0  # atno 10764 bound_to 10752
  153.4462  135.7085  153.6202 H   0  0  0  0  0  0  0  0  0  0  0  0  # atno 10765 bound_to 10752
  141.1668  133.7126  156.8191 H   0  0  0  0  0  0  0  0  0  0  0  0  # atno 11005 bound_to 11000
  145.0569  139.3136  143.5900 LP  0  0  0  0  0  0  0  0  0  0  0  0  # atno 17320 bound_to 7965
  146.3508  139.9997  142.8677 LP  0  0  0  0  0  0  0  0  0  0  0  0  # atno 17321 bound_to 7965
  139.9689  143.6079  152.2979 LP  0  0  0  0  0  0  0  0  0  0  0  0  # atno 17342 bound_to 10162
  139.6658  144.7662  151.1875 LP  0  0  0  0  0  0  0  0  0  0  0  0  # atno 17343 bound_to 10162
  156.6703  130.8817  151.3561 LP  0  0  0  0  0  0  0  0  0  0  0  0  # atno 17370 bound_to 10713
  157.7067  130.9393  150.0955 LP  0  0  0  0  0  0  0  0  0  0  0  0  # atno 17371 bound_to 10713
  140.2132  134.8812  157.3297 LP  0  0  0  0  0  0  0  0  0  0  0  0  # atno 17394 bound_to 11000
  140.2065  134.4191  155.7635 LP  0  0  0  0  0  0  0  0  0  0  0  0  # atno 17395 bound_to 11000

$$$$
