AV-unprocessed.smi:33|AV-procd|sdf|207|dock6
  -GOLD-   2262015493D 1   1.00000     0.00000
 Structure written by MMmdl.
 67 72  0  0  0  0  0  0  0  0  1 V2000
  151.4821  144.5501  158.6293 O   0  0  0  0  0  0  0  0  0  0  0  0
  151.9290  143.4010  158.6308 C   0  0  0  0  0  0  0  0  0  0  0  0
  151.8346  142.5628  157.5797 O   0  0  0  0  0  0  0  0  0  0  0  0
  150.8157  142.7501  156.6111 C   0  0  0  0  0  0  0  0  0  0  0  0
  149.9030  141.5128  156.5796 C   0  0  2  0  0  0  0  0  0  0  0  0
  150.7021  140.3396  156.6967 O   0  0  0  0  0  0  0  0  0  0  0  0
  151.1126  139.9208  155.4296 C   0  0  1  0  0  0  0  0  0  0  0  0
  151.0432  138.4253  155.3746 N   0  0  0  0  0  0  0  0  0  0  0  0
  152.0355  137.5579  154.9734 C   0  0  0  0  0  0  0  0  0  0  0  0
  151.7254  136.2905  155.0180 N   0  0  0  0  0  0  0  0  0  0  0  0
  150.4168  136.2822  155.4827 C   0  0  0  0  0  0  0  0  0  0  0  0
  149.4741  135.2557  155.7628 C   0  0  0  0  0  0  0  0  0  0  0  0
  149.7420  133.9387  155.5921 N   0  0  0  0  0  0  0  0  0  0  0  0
  150.0918  133.4941  154.2346 C   0  0  0  0  0  0  0  0  0  0  0  0
  149.7130  134.1506  153.2626 O   0  0  0  0  0  0  0  0  0  0  0  0
  150.8658  132.2229  154.0250 C   0  0  0  0  0  0  0  0  0  0  0  0
  152.0525  131.9896  154.7540 C   0  0  0  0  0  0  0  0  0  0  0  0
  152.7741  130.7938  154.5722 C   0  0  0  0  0  0  0  0  0  0  0  0
  152.3048  129.8168  153.6737 C   0  0  0  0  0  0  0  0  0  0  0  0
  151.1078  130.0309  152.9643 C   0  0  0  0  0  0  0  0  0  0  0  0
  150.3850  131.2258  153.1463 C   0  0  0  0  0  0  0  0  0  0  0  0
  149.6436  133.0703  156.7749 C   0  0  0  0  0  0  0  0  0  0  0  0
  149.8214  133.5494  157.8965 O   0  0  0  0  0  0  0  0  0  0  0  0
  149.3886  131.5972  156.6202 C   0  0  0  0  0  0  0  0  0  0  0  0
  149.9412  130.6832  157.5442 C   0  0  0  0  0  0  0  0  0  0  0  0
  149.6929  129.3031  157.4133 C   0  0  0  0  0  0  0  0  0  0  0  0
  148.8750  128.8297  156.3697 C   0  0  0  0  0  0  0  0  0  0  0  0
  148.2982  129.7378  155.4616 C   0  0  0  0  0  0  0  0  0  0  0  0
  148.5471  131.1178  155.5910 C   0  0  0  0  0  0  0  0  0  0  0  0
  148.2495  135.6240  156.2215 N   0  0  0  0  0  0  0  0  0  0  0  0
  147.9673  136.9179  156.3964 C   0  0  0  0  0  0  0  0  0  0  0  0
  148.7468  137.9789  156.1772 N   0  0  0  0  0  0  0  0  0  0  0  0
  149.9778  137.6153  155.7142 C   0  0  0  0  0  0  0  0  0  0  0  0
  150.2058  140.6113  154.3893 C   0  0  1  0  0  0  0  0  0  0  0  0
  149.6195  139.7628  153.4185 O   0  0  0  0  0  0  0  0  0  0  0  0
  149.1680  141.3167  155.2516 C   0  0  1  0  0  0  0  0  0  0  0  0
  148.1099  140.5351  155.4746 F   0  0  0  0  0  0  0  0  0  0  0  0
  152.6339  142.7931  159.7959 C   0  0  0  0  0  0  0  0  0  0  0  0
  152.2833  143.1959  161.1057 C   0  0  0  0  0  0  0  0  0  0  0  0
  152.9333  142.6408  162.2251 C   0  0  0  0  0  0  0  0  0  0  0  0
  153.9402  141.6743  162.0484 C   0  0  0  0  0  0  0  0  0  0  0  0
  154.2962  141.2630  160.7506 C   0  0  0  0  0  0  0  0  0  0  0  0
  153.6488  141.8185  159.6299 C   0  0  0  0  0  0  0  0  0  0  0  0
  150.2445  143.6519  156.8346 H   0  0  0  0  0  0  0  0  0  0  0  0
  151.2759  142.8899  155.6319 H   0  0  0  0  0  0  0  0  0  0  0  0
  149.2063  141.5592  157.4175 H   0  0  0  0  0  0  0  0  0  0  0  0
  152.1687  140.1494  155.2803 H   0  0  0  0  0  0  0  0  0  0  0  0
  153.0055  137.8980  154.6410 H   0  0  0  0  0  0  0  0  0  0  0  0
  152.4220  132.7325  155.4461 H   0  0  0  0  0  0  0  0  0  0  0  0
  153.6879  130.6261  155.1231 H   0  0  0  0  0  0  0  0  0  0  0  0
  152.8588  128.9003  153.5340 H   0  0  0  0  0  0  0  0  0  0  0  0
  150.7425  129.2781  152.2815 H   0  0  0  0  0  0  0  0  0  0  0  0
  149.4645  131.3767  152.6007 H   0  0  0  0  0  0  0  0  0  0  0  0
  150.5697  131.0353  158.3495 H   0  0  0  0  0  0  0  0  0  0  0  0
  150.1292  128.6073  158.1147 H   0  0  0  0  0  0  0  0  0  0  0  0
  148.6848  127.7712  156.2700 H   0  0  0  0  0  0  0  0  0  0  0  0
  147.6632  129.3761  154.6665 H   0  0  0  0  0  0  0  0  0  0  0  0
  148.0944  131.8057  154.8913 H   0  0  0  0  0  0  0  0  0  0  0  0
  146.9757  137.1346  156.7651 H   0  0  0  0  0  0  0  0  0  0  0  0
  150.8128  141.3570  153.8746 H   0  0  0  0  0  0  0  0  0  0  0  0
  149.6404  140.2088  152.5849 H   0  0  0  0  0  0  0  0  0  0  0  0
  148.7969  142.2434  154.8124 H   0  0  0  0  0  0  0  0  0  0  0  0
  151.5134  143.9371  161.2664 H   0  0  0  0  0  0  0  0  0  0  0  0
  152.6589  142.9576  163.2206 H   0  0  0  0  0  0  0  0  0  0  0  0
  154.4388  141.2486  162.9067 H   0  0  0  0  0  0  0  0  0  0  0  0
  155.0677  140.5194  160.6136 H   0  0  0  0  0  0  0  0  0  0  0  0
  153.9462  141.4798  158.6482 H   0  0  0  0  0  0  0  0  0  0  0  0
  1  2  2  0  0  0  0
  2  3  1  0  0  0  0
  2 38  1  0  0  0  0
  3  4  1  0  0  0  0
  4  5  1  0  0  0  0
  4 44  1  0  0  0  0
  4 45  1  0  0  0  0
  5 36  1  0  0  0  0
  5  6  1  0  0  0  0
  5 46  1  0  0  0  0
  6  7  1  0  0  0  0
  7  8  1  0  0  0  0
  7 34  1  0  0  0  0
  7 47  1  0  0  0  0
  8 33  1  0  0  0  0
  8  9  1  0  0  0  0
  9 10  2  0  0  0  0
  9 48  1  0  0  0  0
 10 11  1  0  0  0  0
 11 33  2  0  0  0  0
 11 12  1  0  0  0  0
 12 13  1  0  0  0  0
 12 30  2  0  0  0  0
 13 14  1  0  0  0  0
 13 22  1  0  0  0  0
 14 15  2  0  0  0  0
 14 16  1  0  0  0  0
 16 21  1  0  0  0  0
 16 17  2  0  0  0  0
 17 18  1  0  0  0  0
 17 49  1  0  0  0  0
 18 19  2  0  0  0  0
 18 50  1  0  0  0  0
 19 20  1  0  0  0  0
 19 51  1  0  0  0  0
 20 21  2  0  0  0  0
 20 52  1  0  0  0  0
 21 53  1  0  0  0  0
 22 23  2  0  0  0  0
 22 24  1  0  0  0  0
 24 29  1  0  0  0  0
 24 25  2  0  0  0  0
 25 26  1  0  0  0  0
 25 54  1  0  0  0  0
 26 27  2  0  0  0  0
 26 55  1  0  0  0  0
 27 28  1  0  0  0  0
 27 56  1  0  0  0  0
 28 29  2  0  0  0  0
 28 57  1  0  0  0  0
 29 58  1  0  0  0  0
 30 31  1  0  0  0  0
 31 32  2  0  0  0  0
 31 59  1  0  0  0  0
 32 33  1  0  0  0  0
 34 35  1  0  0  0  0
 34 36  1  0  0  0  0
 34 60  1  0  0  0  0
 35 61  1  0  0  0  0
 36 37  1  0  0  0  0
 36 62  1  0  0  0  0
 38 43  1  0  0  0  0
 38 39  2  0  0  0  0
 39 40  1  0  0  0  0
 39 63  1  0  0  0  0
 40 41  2  0  0  0  0
 40 64  1  0  0  0  0
 41 42  1  0  0  0  0
 41 65  1  0  0  0  0
 42 43  2  0  0  0  0
 42 66  1  0  0  0  0
 43 67  1  0  0  0  0
M  END
> <s_m_source_file>
AV-unprocessed.smi

> <i_m_source_file_index>
33

> <i_lp_mmshare_version>
43012

> <i_f3d_flags>
0

> <s_epik_input>
W2NIXTFbY0hdW2NIXVtjSF1bY0hdYzFDKD1PKU9bQ0gyXVtDQEBIXTJPW0NASF0oW0NAQEhdKFtPSF0pW0NAQEhdMkYpbihbY0hdbjMpYyhjMzQpbltjSF1uYzROKEMoPU8pYzVbY0hdW2NIXVtjSF1bY0hdW2NIXTUpQyg9TyljNltjSF1bY0hdW2NIXVtjSF1bY0hdNg==

> <s_epik_cmdline>
J2VwaWtfcHl0aG9uJywgJy1waCcsICc3LjAnLCAnLXRuJywgJzgnLCAnLW1hJywgJzIwMCcsICctbWV0YWxfYmluZGluZycsICctaW1hZScsICc8aW5maWxlLm1hZT4nLCAnLW9tYWUnLCAnPG91dGZpbGUubWFlPic=

> <r_lp_tautomer_probability>
1

> <r_epik_Ionization_Penalty>
0.00067664

> <r_epik_Ionization_Penalty_Charging>
0

> <r_epik_Ionization_Penalty_Neutral>
0.00067664

> <r_epik_State_Penalty>
0.000428095

> <r_epik_Charging_Adjusted_Penalty>
0.000428095

> <i_epik_Tot_Q>
0

> <i_epik_Tot_abs_Q>
0

> <r_epik_Metal_State_Penalty>
-0

> <b_epik_Metal_Only>
0

> <s_epik_Chemistry_Notes>
This compound has an ester and may undergo hydrolysis at high or low pH. This compound contains an acetal/aminal-like group ( X-CH(R)-Y where X, Y are N, S, or O) that may be acid/base labile, releasing an aldehyde.

> <s_lp_Force_Field>
OPLS_2005

> <r_lp_Energy>
79.5237

> <b_lp_Chiralities_Consistent>
1

> <s_lp_Variant>
AV-unprocessed.smi:33-9

> <Gold.Version>
5.8.1

> <Gold.Id.Protein>
6NUR|6NUR_protein|mol2

> <Gold.PLP.Fitness>
63.0301

> <Gold.PLP.PLP>
-60.0344

> <Gold.PLP.part.hbond>
-3.2806

> <Gold.PLP.part.metal>
0.0000

> <Gold.PLP.part.buried>
-1.7022

> <Gold.PLP.part.nonpolar>
-55.2246

> <Gold.PLP.part.repulsive>
1.4078

> <Gold.PLP.ligand.clash>
0.0000

> <Gold.PLP.ligand.torsion>
4.4177

> <Gold.PLP.Chemscore.Hbond>
2.4500

> <Gold.PLP.Chemscore.CHOScore>
0.0000

> <Gold.PLP.Chemscore.Metal>
0.0000

> <Gold.Chemscore.Hbonds>
donor molecule, donor type, donor heavy atom, donor atom, acceptor molecule, acceptor atom, score
      L1  H    35    61       P1  7957  0.70
      P1  H  6896  6908       L1    23  1.00
      P1  H 10752 10763       L1    10  0.86

> <Gold.PLP.Chemscore.Internal.Correction>
4.4811

> <Gold.Rescore>
     Score         DG    S(hbond)    S(metal)    S(lipo)     H(rot)  DE(clash)    DE(int)     intcor
     12.67     -21.73       1.97        0.00     137.91       2.52       1.64       7.42       ----

> <Gold.Chemscore.Fitness>
12.6651

> <Gold.Chemscore.DG>
-21.7257

> <Gold.Chemscore.ZeroCoef>
-5.4800

> <Gold.Chemscore.Hbond>
1.9681

> <Gold.Chemscore.Metal>
0.0000

> <Gold.Chemscore.Lipo>
137.9115

> <Gold.Chemscore.Internal_Hbond>
0.0000

> <Gold.Chemscore.DEClash>
1.6417

> <Gold.Chemscore.DEInternal>
7.4190

> <Gold.Chemscore.Rot>
2.5247

> <Gold.Chemscore.Internal.Correction>
   9.000000E+99

> <Gold.Chemscore.Hbonds>
donor molecule, donor type, donor heavy atom, donor atom, acceptor molecule, acceptor atom, score
      L1  H    35    61       P1  7957  0.66
      P1  H  6896  6908       L1    23  1.00
      P1  H 10752 10763       L1    10  0.46

> <Gold.Chemscore.Hbond.Weighted>
-6.5734

> <Gold.Chemscore.Metal.Weighted>
-0.0000

> <Gold.Chemscore.Lipo.Weighted>
-16.1356

> <Gold.Chemscore.Internal_Hbond.Weighted>
0.0000

> <Gold.Chemscore.DEClash.Weighted>
1.6417

> <Gold.Chemscore.DEInternal.Weighted>
7.4190

> <Gold.Chemscore.Rot.Weighted>
6.4633

> <Gold.Chemscore.Internal.Correction.Weighted>
   9.000000E+99

> <Gold.Protein.RotatedTorsions>
[ 6907 6896 6895 6894 ] final  121.10 input  -60.11 | X-H torsion
[ 7974 7965 7964 7962 ] final -158.10 input  175.53 | X-H torsion
[ 8008 7997 7996 7995 ] final  -76.02 input   59.86 | X-H torsion
[ 10167 10162 10161 10158 ] final -163.94 input  -65.29 | X-H torsion
[ 10718 10713 10712 10709 ] final  168.33 input   66.30 | X-H torsion
[ 10763 10752 10751 10750 ] final   69.79 input  -60.55 | X-H torsion
[ 11005 11000 10999 10996 ] final  149.71 input  -57.11 | X-H torsion

> <Gold.Protein.ActiveResidues>
 VAL166  LYS551  ARG553  GLY616  TRP617  ASP618  TYR619  PRO620  LYS621  CYS622 
 ASP623  PHE694  ASN695  SER759  ASP760  ASP761  ALA762  ILE779  LEU786  VAL792 
 PHE793  MET794  SER795  GLU796  ALA797  LYS798  CYS799  TRP800  GLU811  SER814 

> <Gold.Protein.RotatedAtoms>
  152.4348  133.7341  159.6603 H   0  0  0  0  0  0  0  0  0  0  0  0  # atno 6907 bound_to 6896
  150.8230  133.8209  159.3137 H   0  0  0  0  0  0  0  0  0  0  0  0  # atno 6908 bound_to 6896
  151.5886  135.1057  160.0085 H   0  0  0  0  0  0  0  0  0  0  0  0  # atno 6909 bound_to 6896
  144.7520  140.3876  143.6041 H   0  0  0  0  0  0  0  0  0  0  0  0  # atno 7974 bound_to 7965
  154.5468  140.0734  156.8602 H   0  0  0  0  0  0  0  0  0  0  0  0  # atno 8008 bound_to 7997
  155.3071  140.3388  155.4227 H   0  0  0  0  0  0  0  0  0  0  0  0  # atno 8009 bound_to 7997
  156.1925  140.1691  156.8049 H   0  0  0  0  0  0  0  0  0  0  0  0  # atno 8010 bound_to 7997
  139.6285  144.0485  152.1996 H   0  0  0  0  0  0  0  0  0  0  0  0  # atno 10167 bound_to 10162
  157.0387  131.0280  151.2720 H   0  0  0  0  0  0  0  0  0  0  0  0  # atno 10718 bound_to 10713
  153.0306  135.5197  154.7342 H   0  0  0  0  0  0  0  0  0  0  0  0  # atno 10763 bound_to 10752
  154.6361  135.2906  155.0162 H   0  0  0  0  0  0  0  0  0  0  0  0  # atno 10764 bound_to 10752
  154.1096  135.6624  153.4935 H   0  0  0  0  0  0  0  0  0  0  0  0  # atno 10765 bound_to 10752
  140.1068  134.8949  157.1878 H   0  0  0  0  0  0  0  0  0  0  0  0  # atno 11005 bound_to 11000
  145.6911  139.1639  143.2646 LP  0  0  0  0  0  0  0  0  0  0  0  0  # atno 17320 bound_to 7965
  146.1482  140.6962  142.9334 LP  0  0  0  0  0  0  0  0  0  0  0  0  # atno 17321 bound_to 7965
  140.0144  144.6199  150.7619 LP  0  0  0  0  0  0  0  0  0  0  0  0  # atno 17342 bound_to 10162
  140.7425  143.2833  151.3535 LP  0  0  0  0  0  0  0  0  0  0  0  0  # atno 17343 bound_to 10162
  157.5121  130.7945  149.7716 LP  0  0  0  0  0  0  0  0  0  0  0  0  # atno 17370 bound_to 10713
  156.0045  130.3862  150.2481 LP  0  0  0  0  0  0  0  0  0  0  0  0  # atno 17371 bound_to 10713
  140.3144  134.2987  155.7259 LP  0  0  0  0  0  0  0  0  0  0  0  0  # atno 17394 bound_to 11000
  141.2120  133.7671  156.9823 LP  0  0  0  0  0  0  0  0  0  0  0  0  # atno 17395 bound_to 11000

$$$$
