AV-unprocessed.smi:1005|AV-procd|sdf|4365|dock6
  -GOLD-   22720 2273D 1   1.00000     0.00000
 Structure written by MMmdl.
 56 58  0  0  0  0  0  0  0  0  2 V2000
  153.5779  142.8721  163.4683 C   0  0  0  0  0  0  0  0  0  0  0  0
  153.0606  142.9192  162.0413 C   0  0  0  0  0  0  0  0  0  0  0  0
  152.3506  144.0604  161.6051 C   0  0  0  0  0  0  0  0  0  0  0  0
  151.8522  144.1430  160.2865 C   0  0  0  0  0  0  0  0  0  0  0  0
  151.1406  145.1498  159.6564 N   0  0  0  0  0  0  0  0  0  0  0  0
  150.9692  144.6363  158.4417 C   0  0  0  0  0  0  0  0  0  0  0  0
  151.4855  143.4144  158.2098 N   0  0  0  0  0  0  0  0  0  0  0  0
  151.4209  142.6616  156.9695 C   0  0  0  0  0  0  0  0  0  0  0  0
  150.2677  141.6399  156.9574 C   0  0  1  0  0  0  0  0  0  0  0  0
  149.1212  142.2352  156.3801 O   0  0  0  0  0  0  0  0  0  0  0  0
  150.6372  140.3842  156.1412 C   0  0  0  0  0  0  0  0  0  0  0  0
  149.7302  139.2430  156.2832 N   0  0  0  0  0  0  0  0  0  0  0  0
  149.4829  138.8878  157.6789 C   0  0  0  0  0  0  0  0  0  0  0  0
  148.5651  137.6608  157.8033 C   0  0  0  0  0  0  0  0  0  0  0  0
  149.1267  136.5728  157.0777 O   0  0  0  0  0  0  0  0  0  0  0  0
  149.3080  136.8577  155.6929 C   0  0  2  0  0  0  0  0  0  0  0  0
  149.8947  135.6149  154.9958 C   0  0  0  0  0  0  0  0  0  0  0  0
  148.8782  134.8132  154.2653 N   0  3  0  0  0  0  0  0  0  0  0  0
  147.6177  134.6189  155.0186 C   0  0  0  0  0  0  0  0  0  0  0  0
  149.4294  133.5232  153.7935 C   0  0  0  0  0  0  0  0  0  0  0  0
  150.2518  138.0734  155.5840 C   0  0  0  0  0  0  0  0  0  0  0  0
  152.0846  143.0436  159.4090 C   0  0  0  0  0  0  0  0  0  0  0  0
  152.7913  141.9035  159.8310 C   0  0  0  0  0  0  0  0  0  0  0  0
  153.2827  141.8375  161.1516 C   0  0  0  0  0  0  0  0  0  0  0  0
  154.0448  140.6023  161.5975 C   0  0  0  0  0  0  0  0  0  0  0  0
  153.3170  143.7775  164.0172 H   0  0  0  0  0  0  0  0  0  0  0  0
  154.6640  142.7769  163.4776 H   0  0  0  0  0  0  0  0  0  0  0  0
  153.1507  142.0227  164.0019 H   0  0  0  0  0  0  0  0  0  0  0  0
  152.1824  144.8854  162.2817 H   0  0  0  0  0  0  0  0  0  0  0  0
  150.4378  145.1798  157.6742 H   0  0  0  0  0  0  0  0  0  0  0  0
  151.3238  143.3619  156.1390 H   0  0  0  0  0  0  0  0  0  0  0  0
  152.3752  142.1509  156.8340 H   0  0  0  0  0  0  0  0  0  0  0  0
  150.0354  141.3778  157.9886 H   0  0  0  0  0  0  0  0  0  0  0  0
  149.2452  143.1715  156.3600 H   0  0  0  0  0  0  0  0  0  0  0  0
  150.6921  140.6714  155.0899 H   0  0  0  0  0  0  0  0  0  0  0  0
  151.6462  140.0685  156.4112 H   0  0  0  0  0  0  0  0  0  0  0  0
  150.4290  138.6825  158.1820 H   0  0  0  0  0  0  0  0  0  0  0  0
  149.0198  139.7183  158.2094 H   0  0  0  0  0  0  0  0  0  0  0  0
  148.4554  137.3732  158.8489 H   0  0  0  0  0  0  0  0  0  0  0  0
  147.5661  137.8835  157.4250 H   0  0  0  0  0  0  0  0  0  0  0  0
  148.3479  137.1097  155.2383 H   0  0  0  0  0  0  0  0  0  0  0  0
  150.6258  135.9597  154.2629 H   0  0  0  0  0  0  0  0  0  0  0  0
  150.4436  134.9908  155.7027 H   0  0  0  0  0  0  0  0  0  0  0  0
  147.8061  134.1492  155.9849 H   0  0  0  0  0  0  0  0  0  0  0  0
  146.9293  133.9828  154.4612 H   0  0  0  0  0  0  0  0  0  0  0  0
  147.1061  135.5655  155.1868 H   0  0  0  0  0  0  0  0  0  0  0  0
  149.7287  132.8955  154.6340 H   0  0  0  0  0  0  0  0  0  0  0  0
  150.3006  133.6816  153.1568 H   0  0  0  0  0  0  0  0  0  0  0  0
  148.6899  132.9782  153.2056 H   0  0  0  0  0  0  0  0  0  0  0  0
  150.4028  138.3167  154.5315 H   0  0  0  0  0  0  0  0  0  0  0  0
  151.2320  137.8099  155.9855 H   0  0  0  0  0  0  0  0  0  0  0  0
  152.9545  141.0872  159.1432 H   0  0  0  0  0  0  0  0  0  0  0  0
  154.1376  139.8784  160.7874 H   0  0  0  0  0  0  0  0  0  0  0  0
  153.5295  140.1141  162.4250 H   0  0  0  0  0  0  0  0  0  0  0  0
  155.0502  140.8695  161.9239 H   0  0  0  0  0  0  0  0  0  0  0  0
  148.6409  135.3344  153.4331 H   0  0  0  0  0  0  0  0  0  0  0  0
  1  2  1  0  0  0  0
  1 26  1  0  0  0  0
  1 27  1  0  0  0  0
  1 28  1  0  0  0  0
  2 24  1  0  0  0  0
  2  3  2  0  0  0  0
  3  4  1  0  0  0  0
  3 29  1  0  0  0  0
  4 22  2  0  0  0  0
  4  5  1  0  0  0  0
  5  6  2  0  0  0  0
  6  7  1  0  0  0  0
  6 30  1  0  0  0  0
  7  8  1  0  0  0  0
  7 22  1  0  0  0  0
  8  9  1  0  0  0  0
  8 31  1  0  0  0  0
  8 32  1  0  0  0  0
  9 10  1  0  0  0  0
  9 11  1  0  0  0  0
  9 33  1  0  0  0  0
 10 34  1  0  0  0  0
 11 12  1  0  0  0  0
 11 35  1  0  0  0  0
 11 36  1  0  0  0  0
 12 21  1  0  0  0  0
 12 13  1  0  0  0  0
 13 14  1  0  0  0  0
 13 37  1  0  0  0  0
 13 38  1  0  0  0  0
 14 15  1  0  0  0  0
 14 39  1  0  0  0  0
 14 40  1  0  0  0  0
 15 16  1  0  0  0  0
 16 17  1  0  0  0  0
 16 21  1  0  0  0  0
 16 41  1  0  0  0  0
 17 18  1  0  0  0  0
 17 42  1  0  0  0  0
 17 43  1  0  0  0  0
 18 19  1  0  0  0  0
 18 20  1  0  0  0  0
 18 56  1  0  0  0  0
 19 44  1  0  0  0  0
 19 45  1  0  0  0  0
 19 46  1  0  0  0  0
 20 47  1  0  0  0  0
 20 48  1  0  0  0  0
 20 49  1  0  0  0  0
 21 50  1  0  0  0  0
 21 51  1  0  0  0  0
 22 23  1  0  0  0  0
 23 24  2  0  0  0  0
 23 52  1  0  0  0  0
 24 25  1  0  0  0  0
 25 53  1  0  0  0  0
 25 54  1  0  0  0  0
 25 55  1  0  0  0  0
M  CHG  1  18   1
M  END
> <s_m_source_file>
AV-unprocessed.smi

> <i_m_source_file_index>
1005

> <i_lp_mmshare_version>
43012

> <i_f3d_flags>
0

> <s_epik_input>
W0NIM11jKFtjSF0xKWMoW0NIM10pW2NIXWMoYzEyKW4oW2NIXW4yKVtDSDJdW0NASF0oW09IXSlbQ0gyXU4zW0NIMl1bQ0gyXU9bQ0BIXShbQ0gyXTMpW0NIMl1OKFtDSDNdKVtDSDNd

> <s_epik_cmdline>
J2VwaWtfcHl0aG9uJywgJy1waCcsICc3LjAnLCAnLXRuJywgJzgnLCAnLW1hJywgJzIwMCcsICctbWV0YWxfYmluZGluZycsICctaW1hZScsICc8aW5maWxlLm1hZT4nLCAnLW9tYWUnLCAnPG91dGZpbGUubWFlPic=

> <r_epik_Ionization_Penalty>
0.226781

> <r_epik_Ionization_Penalty_Charging>
0.00915946

> <r_epik_Ionization_Penalty_Neutral>
0.217622

> <r_epik_State_Penalty>
0.173018

> <r_epik_Charging_Adjusted_Penalty>
0.182178

> <i_epik_Tot_Q>
1

> <i_epik_Tot_abs_Q>
1

> <r_epik_Metal_State_Penalty>
0.0905268

> <b_epik_Metal_Only>
0

> <s_lp_Force_Field>
OPLS_2005

> <r_lp_Energy>
38.1997

> <b_lp_Chiralities_Consistent>
1

> <s_lp_Variant>
AV-unprocessed.smi:1005-4

> <Gold.Version>
5.8.1

> <Gold.Id.Protein>
6NUR|6NUR_protein|mol2

> <Gold.PLP.Fitness>
59.9993

> <Gold.PLP.PLP>
-51.3428

> <Gold.PLP.part.hbond>
-2.0000

> <Gold.PLP.part.metal>
0.0000

> <Gold.PLP.part.buried>
-8.1153

> <Gold.PLP.part.nonpolar>
-40.5493

> <Gold.PLP.part.repulsive>
0.1475

> <Gold.PLP.ligand.clash>
0.0000

> <Gold.PLP.ligand.torsion>
1.4937

> <Gold.PLP.Chemscore.Hbond>
3.0000

> <Gold.PLP.Chemscore.CHOScore>
0.8479

> <Gold.PLP.Chemscore.Metal>
0.0000

> <Gold.Chemscore.Hbonds>
donor molecule, donor type, donor heavy atom, donor atom, acceptor molecule, acceptor atom, score
      L1  H    10    34       P1  8028  0.99
      L1  H    18    56       P1  7948  2.00
      L1  C     6    30       P1  8028  0.61
      L1  C     6    30       P1  8029  0.23

> <Gold.PLP.Chemscore.Internal.Correction>
0.1002

> <Gold.Rescore>
     Score         DG    S(hbond)    S(metal)    S(lipo)     H(rot)  DE(clash)    DE(int)     intcor
     19.51     -21.15       1.83        0.00     134.50       2.41       0.20       1.44       ----

> <Gold.Chemscore.Fitness>
19.5089

> <Gold.Chemscore.DG>
-21.1519

> <Gold.Chemscore.ZeroCoef>
-5.4800

> <Gold.Chemscore.Hbond>
1.8304

> <Gold.Chemscore.Metal>
0.0000

> <Gold.Chemscore.Lipo>
134.5045

> <Gold.Chemscore.Internal_Hbond>
0.0000

> <Gold.Chemscore.DEClash>
0.1981

> <Gold.Chemscore.DEInternal>
1.4449

> <Gold.Chemscore.Rot>
2.4136

> <Gold.Chemscore.Internal.Correction>
   9.000000E+99

> <Gold.Chemscore.Hbonds>
donor molecule, donor type, donor heavy atom, donor atom, acceptor molecule, acceptor atom, score
      L1  H    10    34       P1  8028  0.94
      L1  H    18    56       P1  7948  0.89

> <Gold.Chemscore.Hbond.Weighted>
-6.1136

> <Gold.Chemscore.Metal.Weighted>
-0.0000

> <Gold.Chemscore.Lipo.Weighted>
-15.7370

> <Gold.Chemscore.Internal_Hbond.Weighted>
0.0000

> <Gold.Chemscore.DEClash.Weighted>
0.1981

> <Gold.Chemscore.DEInternal.Weighted>
1.4449

> <Gold.Chemscore.Rot.Weighted>
6.1788

> <Gold.Chemscore.Internal.Correction.Weighted>
   9.000000E+99

> <Gold.Protein.RotatedTorsions>
[ 6907 6896 6895 6894 ] final  -90.95 input  -60.11 | X-H torsion
[ 7974 7965 7964 7962 ] final   53.58 input  175.53 | X-H torsion
[ 8008 7997 7996 7995 ] final   16.71 input   59.86 | X-H torsion
[ 10167 10162 10161 10158 ] final -139.12 input  -65.29 | X-H torsion
[ 10718 10713 10712 10709 ] final   -3.05 input   66.30 | X-H torsion
[ 10763 10752 10751 10750 ] final   41.71 input  -60.55 | X-H torsion
[ 11005 11000 10999 10996 ] final   47.41 input  -57.11 | X-H torsion

> <Gold.Protein.ActiveResidues>
 VAL166  LYS551  ARG553  GLY616  TRP617  ASP618  TYR619  PRO620  LYS621  CYS622 
 ASP623  PHE694  ASN695  SER759  ASP760  ASP761  ALA762  ILE779  LEU786  VAL792 
 PHE793  MET794  SER795  GLU796  ALA797  LYS798  CYS799  TRP800  GLU811  SER814 

> <Gold.Protein.RotatedAtoms>
  150.6887  134.2353  159.4450 H   0  0  0  0  0  0  0  0  0  0  0  0  # atno 6907 bound_to 6896
  152.0301  134.9770  160.0581 H   0  0  0  0  0  0  0  0  0  0  0  0  # atno 6908 bound_to 6896
  152.1313  133.4375  159.4759 H   0  0  0  0  0  0  0  0  0  0  0  0  # atno 6909 bound_to 6896
  145.9697  139.4137  143.0198 H   0  0  0  0  0  0  0  0  0  0  0  0  # atno 7974 bound_to 7965
  154.8808  140.2973  155.5426 H   0  0  0  0  0  0  0  0  0  0  0  0  # atno 8008 bound_to 7997
  156.3022  140.2442  156.3745 H   0  0  0  0  0  0  0  0  0  0  0  0  # atno 8009 bound_to 7997
  154.8719  140.0401  157.1718 H   0  0  0  0  0  0  0  0  0  0  0  0  # atno 8010 bound_to 7997
  139.8411  143.7320  152.2663 H   0  0  0  0  0  0  0  0  0  0  0  0  # atno 10167 bound_to 10162
  156.7817  130.5333  149.5750 H   0  0  0  0  0  0  0  0  0  0  0  0  # atno 10718 bound_to 10713
  152.9901  135.6153  154.2832 H   0  0  0  0  0  0  0  0  0  0  0  0  # atno 10763 bound_to 10752
  154.2560  135.2784  155.2799 H   0  0  0  0  0  0  0  0  0  0  0  0  # atno 10764 bound_to 10752
  154.5247  135.5805  153.6766 H   0  0  0  0  0  0  0  0  0  0  0  0  # atno 10765 bound_to 10752
  140.1282  134.4740  155.8542 H   0  0  0  0  0  0  0  0  0  0  0  0  # atno 11005 bound_to 11000
  145.7923  140.9808  143.1042 LP  0  0  0  0  0  0  0  0  0  0  0  0  # atno 17320 bound_to 7965
  144.6834  139.9698  143.7482 LP  0  0  0  0  0  0  0  0  0  0  0  0  # atno 17321 bound_to 7965
  139.7558  144.7521  151.0438 LP  0  0  0  0  0  0  0  0  0  0  0  0  # atno 17342 bound_to 10162
  140.7798  143.4807  151.0021 LP  0  0  0  0  0  0  0  0  0  0  0  0  # atno 17343 bound_to 10162
  156.1214  130.6112  151.0199 LP  0  0  0  0  0  0  0  0  0  0  0  0  # atno 17370 bound_to 10713
  157.6643  131.0875  150.7765 LP  0  0  0  0  0  0  0  0  0  0  0  0  # atno 17371 bound_to 10713
  141.2165  133.6786  156.7018 LP  0  0  0  0  0  0  0  0  0  0  0  0  # atno 17394 bound_to 11000
  140.2877  134.8266  157.3989 LP  0  0  0  0  0  0  0  0  0  0  0  0  # atno 17395 bound_to 11000

$$$$
