AV-unprocessed.smi:1142|AV-procd|sdf|4874|dock1
  -GOLD-   22720 3443D 1   1.00000     0.00000
 Structure written by MMmdl.
 32 33  0  0  0  0  0  0  0  0  2 V2000
  153.7933  137.4414  161.7208 C   0  0  0  0  0  0  0  0  0  0  0  0
  154.1574  137.7883  160.6079 C   0  0  0  0  0  0  0  0  0  0  0  0
  154.5855  138.1952  159.2608 C   0  0  0  0  0  0  0  0  0  0  0  0
  154.0080  139.4899  158.9200 N   0  5  0  0  0  0  0  0  0  0  0  0
  152.6701  139.7465  158.8922 C   0  0  0  0  0  0  0  0  0  0  0  0
  151.7132  138.9733  159.0095 O   0  0  0  0  0  0  0  0  0  0  0  0
  152.3699  141.2177  158.7625 C   0  0  0  0  0  0  0  0  0  0  0  0
  152.8240  142.0907  159.7756 C   0  0  0  0  0  0  0  0  0  0  0  0
  152.5437  143.4662  159.6854 C   0  0  0  0  0  0  0  0  0  0  0  0
  151.8030  143.9223  158.5812 C   0  0  0  0  0  0  0  0  0  0  0  0
  151.3395  143.1053  157.6142 N   0  0  0  0  0  0  0  0  0  0  0  0
  151.6046  141.7772  157.6960 C   0  0  0  0  0  0  0  0  0  0  0  0
  151.0589  140.9714  156.6811 N   0  0  0  0  0  0  0  0  0  0  0  0
  152.0452  140.1558  155.9860 C   0  0  0  0  0  0  0  0  0  0  0  0
  151.3319  139.1643  155.0512 C   0  0  0  0  0  0  0  0  0  0  0  0
  150.4820  139.8772  154.1557 O   0  0  0  0  0  0  0  0  0  0  0  0
  149.4775  140.6169  154.8458 C   0  0  0  0  0  0  0  0  0  0  0  0
  150.1416  141.6482  155.7745 C   0  0  0  0  0  0  0  0  0  0  0  0
  153.4762  137.1336  162.6913 H   0  0  0  0  0  0  0  0  0  0  0  0
  155.6763  138.2048  159.2621 H   0  0  0  0  0  0  0  0  0  0  0  0
  154.2777  137.4099  158.5700 H   0  0  0  0  0  0  0  0  0  0  0  0
  153.3919  141.7132  160.6139 H   0  0  0  0  0  0  0  0  0  0  0  0
  152.8892  144.1531  160.4434 H   0  0  0  0  0  0  0  0  0  0  0  0
  151.5690  144.9713  158.4750 H   0  0  0  0  0  0  0  0  0  0  0  0
  152.7132  140.7989  155.4116 H   0  0  0  0  0  0  0  0  0  0  0  0
  152.6582  139.6150  156.7081 H   0  0  0  0  0  0  0  0  0  0  0  0
  152.0633  138.5973  154.4753 H   0  0  0  0  0  0  0  0  0  0  0  0
  150.7478  138.4425  155.6244 H   0  0  0  0  0  0  0  0  0  0  0  0
  148.8417  141.1201  154.1177 H   0  0  0  0  0  0  0  0  0  0  0  0
  148.8383  139.9386  155.4136 H   0  0  0  0  0  0  0  0  0  0  0  0
  149.3833  142.1831  156.3473 H   0  0  0  0  0  0  0  0  0  0  0  0
  150.6833  142.3862  155.1814 H   0  0  0  0  0  0  0  0  0  0  0  0
  1  2  3  0  0  0  0
  1 19  1  0  0  0  0
  2  3  1  0  0  0  0
  3  4  1  0  0  0  0
  3 20  1  0  0  0  0
  3 21  1  0  0  0  0
  4  5  1  0  0  0  0
  5  6  2  0  0  0  0
  5  7  1  0  0  0  0
  7 12  1  0  0  0  0
  7  8  2  0  0  0  0
  8  9  1  0  0  0  0
  8 22  1  0  0  0  0
  9 10  2  0  0  0  0
  9 23  1  0  0  0  0
 10 11  1  0  0  0  0
 10 24  1  0  0  0  0
 11 12  2  0  0  0  0
 12 13  1  0  0  0  0
 13 18  1  0  0  0  0
 13 14  1  0  0  0  0
 14 15  1  0  0  0  0
 14 25  1  0  0  0  0
 14 26  1  0  0  0  0
 15 16  1  0  0  0  0
 15 27  1  0  0  0  0
 15 28  1  0  0  0  0
 16 17  1  0  0  0  0
 17 18  1  0  0  0  0
 17 29  1  0  0  0  0
 17 30  1  0  0  0  0
 18 31  1  0  0  0  0
 18 32  1  0  0  0  0
M  CHG  1   4  -1
M  END
> <s_m_source_file>
AV-unprocessed.smi

> <i_m_source_file_index>
1142

> <i_lp_mmshare_version>
43012

> <i_f3d_flags>
0

> <s_epik_input>
W0NIXSNDW0NIMl1bTkhdQyg9TyljMVtjSF1bY0hdW2NIXW5jMU4yW0NIMl1bQ0gyXU9bQ0gyXVtDSDJdMg==

> <s_epik_cmdline>
J2VwaWtfcHl0aG9uJywgJy1waCcsICc3LjAnLCAnLXRuJywgJzgnLCAnLW1hJywgJzIwMCcsICctbWV0YWxfYmluZGluZycsICctaW1hZScsICc8aW5maWxlLm1hZT4nLCAnLW9tYWUnLCAnPG91dGZpbGUubWFlPic=

> <r_lp_tautomer_probability>
1

> <r_epik_Ionization_Penalty>
6.8086

> <r_epik_Ionization_Penalty_Charging>
6.808

> <r_epik_Ionization_Penalty_Neutral>
0.000606165

> <r_epik_State_Penalty>
6.80799

> <r_epik_Charging_Adjusted_Penalty>
13.616

> <i_epik_Tot_Q>
-1

> <i_epik_Tot_abs_Q>
1

> <r_epik_Metal_State_Penalty>
2.72724

> <b_epik_Metal_Only>
1

> <s_lp_Force_Field>
OPLS_2005

> <r_lp_Energy>
27.7

> <b_lp_Chiralities_Consistent>
1

> <s_lp_Variant>
AV-unprocessed.smi:1142-2

> <Gold.Version>
5.8.1

> <Gold.Id.Protein>
6NUR|6NUR_protein|mol2

> <Gold.PLP.Fitness>
43.0660

> <Gold.PLP.PLP>
-36.2958

> <Gold.PLP.part.hbond>
-2.0000

> <Gold.PLP.part.metal>
0.0000

> <Gold.PLP.part.buried>
-4.8168

> <Gold.PLP.part.nonpolar>
-29.8258

> <Gold.PLP.part.repulsive>
0.7112

> <Gold.PLP.ligand.clash>
0.0000

> <Gold.PLP.ligand.torsion>
1.2518

> <Gold.PLP.Chemscore.Hbond>
2.8500

> <Gold.PLP.Chemscore.CHOScore>
0.0000

> <Gold.PLP.Chemscore.Metal>
0.0000

> <Gold.Chemscore.Hbonds>
donor molecule, donor type, donor heavy atom, donor atom, acceptor molecule, acceptor atom, score
      P1  H  7989  7998       L1    16  0.90
      P1  H  7997  8010       L1     4  2.00

> <Gold.PLP.Chemscore.Internal.Correction>
0.7238

> <Gold.Rescore>
     Score         DG    S(hbond)    S(metal)    S(lipo)     H(rot)  DE(clash)    DE(int)     intcor
     13.79     -16.27       0.90        0.00      92.28       1.17       0.08       2.41       ----

> <Gold.Chemscore.Fitness>
13.7865

> <Gold.Chemscore.DG>
-16.2668

> <Gold.Chemscore.ZeroCoef>
-5.4800

> <Gold.Chemscore.Hbond>
0.8956

> <Gold.Chemscore.Metal>
0.0000

> <Gold.Chemscore.Lipo>
92.2838

> <Gold.Chemscore.Internal_Hbond>
0.0000

> <Gold.Chemscore.DEClash>
0.0750

> <Gold.Chemscore.DEInternal>
2.4053

> <Gold.Chemscore.Rot>
1.1725

> <Gold.Chemscore.Internal.Correction>
   9.000000E+99

> <Gold.Chemscore.Hbonds>
donor molecule, donor type, donor heavy atom, donor atom, acceptor molecule, acceptor atom, score
      P1  H  7989  7998       L1    16  0.15
      P1  H  7997  8010       L1     4  0.39

> <Gold.Chemscore.Hbond.Weighted>
-2.9911

> <Gold.Chemscore.Metal.Weighted>
-0.0000

> <Gold.Chemscore.Lipo.Weighted>
-10.7972

> <Gold.Chemscore.Internal_Hbond.Weighted>
0.0000

> <Gold.Chemscore.DEClash.Weighted>
0.0750

> <Gold.Chemscore.DEInternal.Weighted>
2.4053

> <Gold.Chemscore.Rot.Weighted>
3.0015

> <Gold.Chemscore.Internal.Correction.Weighted>
   9.000000E+99

> <Gold.Protein.RotatedTorsions>
[ 6907 6896 6895 6894 ] final  140.73 input  -60.11 | X-H torsion
[ 7974 7965 7964 7962 ] final  -55.85 input  175.53 | X-H torsion
[ 8008 7997 7996 7995 ] final    8.63 input   59.86 | X-H torsion
[ 10167 10162 10161 10158 ] final  -34.78 input  -65.29 | X-H torsion
[ 10718 10713 10712 10709 ] final -145.44 input   66.30 | X-H torsion
[ 10763 10752 10751 10750 ] final  105.23 input  -60.55 | X-H torsion
[ 11005 11000 10999 10996 ] final -170.97 input  -57.11 | X-H torsion

> <Gold.Protein.ActiveResidues>
 VAL166  LYS551  ARG553  GLY616  TRP617  ASP618  TYR619  PRO620  LYS621  CYS622 
 ASP623  PHE694  ASN695  SER759  ASP760  ASP761  ALA762  ILE779  LEU786  VAL792 
 PHE793  MET794  SER795  GLU796  ALA797  LYS798  CYS799  TRP800  GLU811  SER814 

> <Gold.Protein.RotatedAtoms>
  152.2396  133.5124  159.5261 H   0  0  0  0  0  0  0  0  0  0  0  0  # atno 6907 bound_to 6896
  150.7060  134.1107  159.4008 H   0  0  0  0  0  0  0  0  0  0  0  0  # atno 6908 bound_to 6896
  151.9028  135.0371  160.0558 H   0  0  0  0  0  0  0  0  0  0  0  0  # atno 6909 bound_to 6896
  145.8695  140.8227  142.9896 H   0  0  0  0  0  0  0  0  0  0  0  0  # atno 7974 bound_to 7965
  154.7693  140.2799  155.6151 H   0  0  0  0  0  0  0  0  0  0  0  0  # atno 8008 bound_to 7997
  156.2930  140.2644  156.2419 H   0  0  0  0  0  0  0  0  0  0  0  0  # atno 8009 bound_to 7997
  154.9920  140.0373  157.2313 H   0  0  0  0  0  0  0  0  0  0  0  0  # atno 8010 bound_to 7997
  140.7179  143.3524  151.2129 H   0  0  0  0  0  0  0  0  0  0  0  0  # atno 10167 bound_to 10162
  156.3824  130.7844  151.2038 H   0  0  0  0  0  0  0  0  0  0  0  0  # atno 10718 bound_to 10713
  153.3765  135.3917  155.1826 H   0  0  0  0  0  0  0  0  0  0  0  0  # atno 10763 bound_to 10752
  154.8702  135.3715  154.4911 H   0  0  0  0  0  0  0  0  0  0  0  0  # atno 10764 bound_to 10752
  153.5384  135.7085  153.5709 H   0  0  0  0  0  0  0  0  0  0  0  0  # atno 10765 bound_to 10752
  140.5135  134.5778  157.5026 H   0  0  0  0  0  0  0  0  0  0  0  0  # atno 11005 bound_to 11000
  144.6726  140.1217  143.7449 LP  0  0  0  0  0  0  0  0  0  0  0  0  # atno 17320 bound_to 7965
  145.9154  139.2512  143.1413 LP  0  0  0  0  0  0  0  0  0  0  0  0  # atno 17321 bound_to 7965
  139.7057  143.9459  152.2926 LP  0  0  0  0  0  0  0  0  0  0  0  0  # atno 17342 bound_to 10162
  139.9167  144.6824  150.8505 LP  0  0  0  0  0  0  0  0  0  0  0  0  # atno 17343 bound_to 10162
  157.7493  131.0340  150.4297 LP  0  0  0  0  0  0  0  0  0  0  0  0  # atno 17370 bound_to 10713
  156.4543  130.4018  149.6616 LP  0  0  0  0  0  0  0  0  0  0  0  0  # atno 17371 bound_to 10713
  139.9645  134.7396  156.0166 LP  0  0  0  0  0  0  0  0  0  0  0  0  # atno 17394 bound_to 11000
  141.1373  133.6572  156.3629 LP  0  0  0  0  0  0  0  0  0  0  0  0  # atno 17395 bound_to 11000

$$$$
