AV-unprocessed.smi:150|AV-procd|sdf|1243|dock8
  -GOLD-   2262018463D 1   1.00000     0.00000
 Structure written by MMmdl.
 55 57  0  0  0  0  0  0  0  0  1 V2000
  151.6413  143.4183  157.6301 C   0  0  0  0  0  0  0  0  0  0  0  0
  150.8639  142.0933  157.6609 C   0  0  0  0  0  0  0  0  0  0  0  0
  151.1194  141.3581  158.9879 C   0  0  0  0  0  0  0  0  0  0  0  0
  151.2152  141.2347  156.4254 C   0  0  0  0  0  0  0  0  0  0  0  0
  150.0221  140.6173  155.6429 C   0  0  1  0  0  0  0  0  0  0  0  0
  149.2663  141.6191  154.7351 C   0  0  0  0  0  0  0  0  0  0  0  0
  149.2578  141.1886  153.3908 O   0  0  0  0  0  0  0  0  0  0  0  0
  150.4204  139.4060  154.9084 N   0  0  0  0  0  0  0  0  0  0  0  0
  151.8410  139.0732  154.8581 C   0  0  0  0  0  0  0  0  0  0  0  0
  149.5946  138.3332  154.7759 C   0  0  0  0  0  0  0  0  0  0  0  0
  150.0383  137.0842  155.0761 N   0  0  0  0  0  0  0  0  0  0  0  0
  149.2357  136.0259  154.9333 C   0  0  0  0  0  0  0  0  0  0  0  0
  147.9727  135.9890  154.5063 N   0  0  0  0  0  0  0  0  0  0  0  0
  147.5204  137.2369  154.1951 C   0  0  0  0  0  0  0  0  0  0  0  0
  148.2570  138.4512  154.3000 C   0  0  0  0  0  0  0  0  0  0  0  0
  147.4605  139.5209  153.9077 N   0  0  0  0  0  0  0  0  0  0  0  0
  146.3222  138.9707  153.5858 C   0  0  0  0  0  0  0  0  0  0  0  0
  146.2731  137.6015  153.7186 N   0  0  0  0  0  0  0  0  0  0  0  0
  145.1373  136.7385  153.4306 C   0  0  0  0  0  0  0  0  0  0  0  0
  145.3483  135.7995  152.2165 C   0  0  0  0  0  0  0  0  0  0  0  0
  145.9004  136.5697  151.1631 O   0  0  0  0  0  0  0  0  0  0  0  0
  146.3461  134.6796  152.5738 C   0  0  0  0  0  0  0  0  0  0  0  0
  146.4581  133.6235  151.4601 C   0  0  0  0  0  0  0  0  0  0  0  0
  145.1722  133.0942  151.1617 O   0  0  0  0  0  0  0  0  0  0  0  0
  144.2773  134.0775  150.6566 C   0  0  0  0  0  0  0  0  0  0  0  0
  144.0315  135.1656  151.7169 C   0  0  0  0  0  0  0  0  0  0  0  0
  152.7175  143.2485  157.6751 H   0  0  0  0  0  0  0  0  0  0  0  0
  151.3696  144.0541  158.4734 H   0  0  0  0  0  0  0  0  0  0  0  0
  151.4303  143.9781  156.7185 H   0  0  0  0  0  0  0  0  0  0  0  0
  149.8074  142.3550  157.6164 H   0  0  0  0  0  0  0  0  0  0  0  0
  152.1567  141.0315  159.0668 H   0  0  0  0  0  0  0  0  0  0  0  0
  150.4827  140.4804  159.0933 H   0  0  0  0  0  0  0  0  0  0  0  0
  150.9103  142.0059  159.8395 H   0  0  0  0  0  0  0  0  0  0  0  0
  151.8172  141.8445  155.7526 H   0  0  0  0  0  0  0  0  0  0  0  0
  151.8704  140.4259  156.7524 H   0  0  0  0  0  0  0  0  0  0  0  0
  149.3091  140.2487  156.3800 H   0  0  0  0  0  0  0  0  0  0  0  0
  148.2397  141.7664  155.0707 H   0  0  0  0  0  0  0  0  0  0  0  0
  149.7486  142.5969  154.7519 H   0  0  0  0  0  0  0  0  0  0  0  0
  148.4836  140.6657  153.2484 H   0  0  0  0  0  0  0  0  0  0  0  0
  152.2036  139.1244  153.8315 H   0  0  0  0  0  0  0  0  0  0  0  0
  152.0311  138.0693  155.2411 H   0  0  0  0  0  0  0  0  0  0  0  0
  152.4317  139.7700  155.4535 H   0  0  0  0  0  0  0  0  0  0  0  0
  149.6682  135.0722  155.1977 H   0  0  0  0  0  0  0  0  0  0  0  0
  145.4823  139.5523  153.2345 H   0  0  0  0  0  0  0  0  0  0  0  0
  144.9128  136.1566  154.3258 H   0  0  0  0  0  0  0  0  0  0  0  0
  144.2690  137.3766  153.2604 H   0  0  0  0  0  0  0  0  0  0  0  0
  146.8421  136.5023  151.2023 H   0  0  0  0  0  0  0  0  0  0  0  0
  147.3295  135.0980  152.7925 H   0  0  0  0  0  0  0  0  0  0  0  0
  146.0170  134.1817  153.4869 H   0  0  0  0  0  0  0  0  0  0  0  0
  146.9094  134.0448  150.5605 H   0  0  0  0  0  0  0  0  0  0  0  0
  147.1054  132.8084  151.7840 H   0  0  0  0  0  0  0  0  0  0  0  0
  144.6738  134.5078  149.7359 H   0  0  0  0  0  0  0  0  0  0  0  0
  143.3358  133.5933  150.3967 H   0  0  0  0  0  0  0  0  0  0  0  0
  143.5073  134.7153  152.5608 H   0  0  0  0  0  0  0  0  0  0  0  0
  143.3630  135.9250  151.3097 H   0  0  0  0  0  0  0  0  0  0  0  0
  1  2  1  0  0  0  0
  1 27  1  0  0  0  0
  1 28  1  0  0  0  0
  1 29  1  0  0  0  0
  2  3  1  0  0  0  0
  2  4  1  0  0  0  0
  2 30  1  0  0  0  0
  3 31  1  0  0  0  0
  3 32  1  0  0  0  0
  3 33  1  0  0  0  0
  4  5  1  0  0  0  0
  4 34  1  0  0  0  0
  4 35  1  0  0  0  0
  5  6  1  0  0  0  0
  5  8  1  0  0  0  0
  5 36  1  0  0  0  0
  6  7  1  0  0  0  0
  6 37  1  0  0  0  0
  6 38  1  0  0  0  0
  7 39  1  0  0  0  0
  8  9  1  0  0  0  0
  8 10  1  0  0  0  0
  9 40  1  0  0  0  0
  9 41  1  0  0  0  0
  9 42  1  0  0  0  0
 10 15  1  0  0  0  0
 10 11  2  0  0  0  0
 11 12  1  0  0  0  0
 12 13  2  0  0  0  0
 12 43  1  0  0  0  0
 13 14  1  0  0  0  0
 14 18  1  0  0  0  0
 14 15  2  0  0  0  0
 15 16  1  0  0  0  0
 16 17  2  0  0  0  0
 17 18  1  0  0  0  0
 17 44  1  0  0  0  0
 18 19  1  0  0  0  0
 19 20  1  0  0  0  0
 19 45  1  0  0  0  0
 19 46  1  0  0  0  0
 20 26  1  0  0  0  0
 20 21  1  0  0  0  0
 20 22  1  0  0  0  0
 21 47  1  0  0  0  0
 22 23  1  0  0  0  0
 22 48  1  0  0  0  0
 22 49  1  0  0  0  0
 23 24  1  0  0  0  0
 23 50  1  0  0  0  0
 23 51  1  0  0  0  0
 24 25  1  0  0  0  0
 25 26  1  0  0  0  0
 25 52  1  0  0  0  0
 25 53  1  0  0  0  0
 26 54  1  0  0  0  0
 26 55  1  0  0  0  0
M  END
> <s_m_source_file>
AV-unprocessed.smi

> <i_m_source_file_index>
150

> <i_lp_mmshare_version>
43012

> <i_f3d_flags>
0

> <s_epik_input>
W0NIM11bQ0hdKFtDSDNdKVtDSDJdW0NASF0oW0NIMl1bT0hdKU4oW0NIM10pYyhuW2NIXW4xKWMoYzEyKW5bY0hdbjJbQ0gyXUMzKFtPSF0pW0NIMl1bQ0gyXU9bQ0gyXVtDSDJdMw==

> <s_epik_cmdline>
J2VwaWtfcHl0aG9uJywgJy1waCcsICc3LjAnLCAnLXRuJywgJzgnLCAnLW1hJywgJzIwMCcsICctbWV0YWxfYmluZGluZycsICctaW1hZScsICc8aW5maWxlLm1hZT4nLCAnLW9tYWUnLCAnPG91dGZpbGUubWFlPic=

> <r_lp_tautomer_probability>
1

> <r_epik_Ionization_Penalty>
0.00548416

> <r_epik_Ionization_Penalty_Charging>
0

> <r_epik_Ionization_Penalty_Neutral>
0.00548416

> <r_epik_State_Penalty>
0.0038135

> <r_epik_Charging_Adjusted_Penalty>
0.0038135

> <i_epik_Tot_Q>
0

> <i_epik_Tot_abs_Q>
0

> <r_epik_Metal_State_Penalty>
-0

> <b_epik_Metal_Only>
0

> <s_lp_Force_Field>
OPLS_2005

> <r_lp_Energy>
26.5114

> <b_lp_Chiralities_Consistent>
1

> <s_lp_Variant>
AV-unprocessed.smi:150-2

> <Gold.Version>
5.8.1

> <Gold.Id.Protein>
6NUR|6NUR_protein|mol2

> <Gold.PLP.Fitness>
41.7706

> <Gold.PLP.PLP>
-37.4385

> <Gold.PLP.part.hbond>
-3.6686

> <Gold.PLP.part.metal>
0.0000

> <Gold.PLP.part.buried>
-3.7282

> <Gold.PLP.part.nonpolar>
-30.5575

> <Gold.PLP.part.repulsive>
0.9456

> <Gold.PLP.ligand.clash>
0.2806

> <Gold.PLP.ligand.torsion>
2.7552

> <Gold.PLP.Chemscore.Hbond>
2.0167

> <Gold.PLP.Chemscore.CHOScore>
1.0000

> <Gold.PLP.Chemscore.Metal>
0.0000

> <Gold.Chemscore.Hbonds>
donor molecule, donor type, donor heavy atom, donor atom, acceptor molecule, acceptor atom, score
      L1  H    21    47       P1  7948  0.62
      P1  H  7989  7998       L1     7  0.02
      P1  H  8011  8017       L1     7  1.00
      L1  C    17    44       P1 10175  1.00

> <Gold.PLP.Chemscore.Internal.Correction>
1.0728

> <Gold.Rescore>
     Score         DG    S(hbond)    S(metal)    S(lipo)     H(rot)  DE(clash)    DE(int)     intcor
      5.87     -12.12       1.82        0.00      79.24       3.40       0.04       6.21       ----

> <Gold.Chemscore.Fitness>
5.8730

> <Gold.Chemscore.DG>
-12.1199

> <Gold.Chemscore.ZeroCoef>
-5.4800

> <Gold.Chemscore.Hbond>
1.8177

> <Gold.Chemscore.Metal>
0.0000

> <Gold.Chemscore.Lipo>
79.2436

> <Gold.Chemscore.Internal_Hbond>
0.0000

> <Gold.Chemscore.DEClash>
0.0396

> <Gold.Chemscore.DEInternal>
6.2074

> <Gold.Chemscore.Rot>
3.3995

> <Gold.Chemscore.Internal.Correction>
   9.000000E+99

> <Gold.Chemscore.Hbonds>
donor molecule, donor type, donor heavy atom, donor atom, acceptor molecule, acceptor atom, score
      L1  H    21    47       P1  7948  0.60
      P1  H  8011  8017       L1     7  0.79

> <Gold.Chemscore.Hbond.Weighted>
-6.0712

> <Gold.Chemscore.Metal.Weighted>
-0.0000

> <Gold.Chemscore.Lipo.Weighted>
-9.2715

> <Gold.Chemscore.Internal_Hbond.Weighted>
0.0000

> <Gold.Chemscore.DEClash.Weighted>
0.0396

> <Gold.Chemscore.DEInternal.Weighted>
6.2074

> <Gold.Chemscore.Rot.Weighted>
8.7028

> <Gold.Chemscore.Internal.Correction.Weighted>
   9.000000E+99

> <Gold.Protein.RotatedTorsions>
[ 6907 6896 6895 6894 ] final   56.12 input  -60.11 | X-H torsion
[ 7974 7965 7964 7962 ] final -172.71 input  175.53 | X-H torsion
[ 8008 7997 7996 7995 ] final -120.91 input   59.86 | X-H torsion
[ 10167 10162 10161 10158 ] final  -95.05 input  -65.29 | X-H torsion
[ 10718 10713 10712 10709 ] final  128.95 input   66.30 | X-H torsion
[ 10763 10752 10751 10750 ] final   98.23 input  -60.55 | X-H torsion
[ 11005 11000 10999 10996 ] final -157.01 input  -57.11 | X-H torsion

> <Gold.Protein.ActiveResidues>
 VAL166  LYS551  ARG553  GLY616  TRP617  ASP618  TYR619  PRO620  LYS621  CYS622 
 ASP623  PHE694  ASN695  SER759  ASP760  ASP761  ALA762  ILE779  LEU786  VAL792 
 PHE793  MET794  SER795  GLU796  ALA797  LYS798  CYS799  TRP800  GLU811  SER814 

> <Gold.Protein.RotatedAtoms>
  152.3605  134.6879  160.0208 H   0  0  0  0  0  0  0  0  0  0  0  0  # atno 6907 bound_to 6896
  151.7203  133.3309  159.3321 H   0  0  0  0  0  0  0  0  0  0  0  0  # atno 6908 bound_to 6896
  150.7601  134.6388  159.6270 H   0  0  0  0  0  0  0  0  0  0  0  0  # atno 6909 bound_to 6896
  144.7144  140.1732  143.6365 H   0  0  0  0  0  0  0  0  0  0  0  0  # atno 7974 bound_to 7965
  155.1394  140.0401  157.2795 H   0  0  0  0  0  0  0  0  0  0  0  0  # atno 8008 bound_to 7997
  154.6484  140.2563  155.7215 H   0  0  0  0  0  0  0  0  0  0  0  0  # atno 8009 bound_to 7997
  156.2565  140.2841  156.0907 H   0  0  0  0  0  0  0  0  0  0  0  0  # atno 8010 bound_to 7997
  140.3081  143.3121  152.0177 H   0  0  0  0  0  0  0  0  0  0  0  0  # atno 10167 bound_to 10162
  157.5198  131.1098  150.9170 H   0  0  0  0  0  0  0  0  0  0  0  0  # atno 10718 bound_to 10713
  153.2865  135.4155  155.1127 H   0  0  0  0  0  0  0  0  0  0  0  0  # atno 10763 bound_to 10752
  154.8506  135.3508  154.6040 H   0  0  0  0  0  0  0  0  0  0  0  0  # atno 10764 bound_to 10752
  153.6462  135.7055  153.5282 H   0  0  0  0  0  0  0  0  0  0  0  0  # atno 10765 bound_to 10752
  140.6693  134.4264  157.5232 H   0  0  0  0  0  0  0  0  0  0  0  0  # atno 11005 bound_to 11000
  145.8925  139.2383  143.1541 LP  0  0  0  0  0  0  0  0  0  0  0  0  # atno 17320 bound_to 7965
  145.9890  140.8619  143.0076 LP  0  0  0  0  0  0  0  0  0  0  0  0  # atno 17321 bound_to 7965
  139.4900  144.6405  151.6886 LP  0  0  0  0  0  0  0  0  0  0  0  0  # atno 17342 bound_to 10162
  140.5592  144.0297  150.6162 LP  0  0  0  0  0  0  0  0  0  0  0  0  # atno 17343 bound_to 10162
  156.9784  130.5517  149.5295 LP  0  0  0  0  0  0  0  0  0  0  0  0  # atno 17370 bound_to 10713
  156.0345  130.5434  150.8620 LP  0  0  0  0  0  0  0  0  0  0  0  0  # atno 17371 bound_to 10713
  139.8987  134.8608  156.1992 LP  0  0  0  0  0  0  0  0  0  0  0  0  # atno 17394 bound_to 11000
  141.0404  133.6941  156.1588 LP  0  0  0  0  0  0  0  0  0  0  0  0  # atno 17395 bound_to 11000

$$$$
