AV-unprocessed.smi:2279|AV-procd|sdf|9186|dock6
  -GOLD-   2272012403D 1   1.00000     0.00000
 Structure written by MMmdl.
 58 60  0  0  0  0  0  0  0  0  3 V2000
  154.1707  140.6899  161.2737 C   0  0  0  0  0  0  0  0  0  0  0  0
  153.3156  141.5492  160.3662 C   0  0  0  0  0  0  0  0  0  0  0  0
  153.1396  142.9218  160.6258 C   0  0  0  0  0  0  0  0  0  0  0  0
  152.3326  143.6671  159.7439 C   0  0  0  0  0  0  0  0  0  0  0  0
  152.0950  145.1460  159.9662 C   0  0  0  0  0  0  0  0  0  0  0  0
  151.7292  143.1273  158.6634 N   0  0  0  0  0  0  0  0  0  0  0  0
  151.8930  141.8068  158.4020 C   0  0  0  0  0  0  0  0  0  0  0  0
  151.2941  141.1439  157.2974 N   0  0  0  0  0  0  0  0  0  0  0  0
  150.1457  141.4543  156.6701 C   0  0  0  0  0  0  0  0  0  0  0  0
  149.4312  142.4227  156.9310 O   0  0  0  0  0  0  0  0  0  0  0  0
  149.8686  140.5768  155.6936 N   0  0  0  0  0  0  0  0  0  0  0  0
  148.7062  140.6482  154.8122 C   0  0  2  0  0  0  0  0  0  0  0  0
  147.4482  141.0157  155.6168 C   0  0  0  0  0  0  0  0  0  0  0  0
  146.2024  140.9929  154.7113 C   0  0  0  0  0  0  0  0  0  0  0  0
  146.0019  139.6569  154.0792 N   0  3  2  0  0  0  0  0  0  0  0  0
  145.5380  138.5566  154.9952 C   0  0  2  0  0  0  0  0  0  0  0  0
  145.1407  137.2712  154.2295 C   0  0  0  0  0  0  0  0  0  0  0  0
  143.8562  137.4669  153.4020 C   0  0  0  0  0  0  0  0  0  0  0  0
  142.7246  137.8972  154.2609 N   0  3  2  0  0  0  0  0  0  0  0  0
  141.4595  138.0210  153.5050 C   0  0  0  0  0  0  0  0  0  0  0  0
  143.0400  139.1214  155.0387 C   0  0  0  0  0  0  0  0  0  0  0  0
  144.3193  138.9306  155.8749 C   0  0  0  0  0  0  0  0  0  0  0  0
  147.1969  139.3194  153.2511 C   0  0  0  0  0  0  0  0  0  0  0  0
  148.4983  139.3098  154.0784 C   0  0  0  0  0  0  0  0  0  0  0  0
  152.6806  140.9861  159.2405 C   0  0  0  0  0  0  0  0  0  0  0  0
  154.4685  141.2351  162.1700 H   0  0  0  0  0  0  0  0  0  0  0  0
  155.0731  140.3718  160.7511 H   0  0  0  0  0  0  0  0  0  0  0  0
  153.6208  139.8009  161.5835 H   0  0  0  0  0  0  0  0  0  0  0  0
  153.6093  143.3906  161.4782 H   0  0  0  0  0  0  0  0  0  0  0  0
  152.4715  145.4648  160.9385 H   0  0  0  0  0  0  0  0  0  0  0  0
  151.0288  145.3716  159.9260 H   0  0  0  0  0  0  0  0  0  0  0  0
  152.5998  145.7294  159.1958 H   0  0  0  0  0  0  0  0  0  0  0  0
  151.7980  140.3427  156.9472 H   0  0  0  0  0  0  0  0  0  0  0  0
  150.5107  139.8115  155.5467 H   0  0  0  0  0  0  0  0  0  0  0  0
  148.8634  141.4324  154.0689 H   0  0  0  0  0  0  0  0  0  0  0  0
  147.3161  140.3288  156.4537 H   0  0  0  0  0  0  0  0  0  0  0  0
  147.5658  142.0093  156.0514 H   0  0  0  0  0  0  0  0  0  0  0  0
  145.3184  141.3355  155.2450 H   0  0  0  0  0  0  0  0  0  0  0  0
  146.3352  141.7253  153.9135 H   0  0  0  0  0  0  0  0  0  0  0  0
  146.3585  138.3122  155.6694 H   0  0  0  0  0  0  0  0  0  0  0  0
  145.9438  136.8975  153.5978 H   0  0  0  0  0  0  0  0  0  0  0  0
  144.9669  136.4724  154.9522 H   0  0  0  0  0  0  0  0  0  0  0  0
  144.0216  138.2024  152.6131 H   0  0  0  0  0  0  0  0  0  0  0  0
  143.5966  136.5291  152.9088 H   0  0  0  0  0  0  0  0  0  0  0  0
  141.5304  138.8025  152.7471 H   0  0  0  0  0  0  0  0  0  0  0  0
  140.6335  138.2665  154.1733 H   0  0  0  0  0  0  0  0  0  0  0  0
  141.2150  137.0824  153.0066 H   0  0  0  0  0  0  0  0  0  0  0  0
  143.1498  139.9698  154.3616 H   0  0  0  0  0  0  0  0  0  0  0  0
  142.2047  139.3525  155.7008 H   0  0  0  0  0  0  0  0  0  0  0  0
  144.1441  138.1228  156.5872 H   0  0  0  0  0  0  0  0  0  0  0  0
  144.5116  139.8003  156.5010 H   0  0  0  0  0  0  0  0  0  0  0  0
  147.0779  138.3777  152.7203 H   0  0  0  0  0  0  0  0  0  0  0  0
  147.2859  140.0727  152.4670 H   0  0  0  0  0  0  0  0  0  0  0  0
  149.3452  139.1150  153.4190 H   0  0  0  0  0  0  0  0  0  0  0  0
  148.4821  138.4874  154.7941 H   0  0  0  0  0  0  0  0  0  0  0  0
  152.8025  139.9347  159.0225 H   0  0  0  0  0  0  0  0  0  0  0  0
  145.2446  139.7871  153.4239 H   0  0  0  0  0  0  0  0  0  0  0  0
  142.5800  137.1590  154.9355 H   0  0  0  0  0  0  0  0  0  0  0  0
  1  2  1  0  0  0  0
  1 26  1  0  0  0  0
  1 27  1  0  0  0  0
  1 28  1  0  0  0  0
  2 25  1  0  0  0  0
  2  3  2  0  0  0  0
  3  4  1  0  0  0  0
  3 29  1  0  0  0  0
  4  5  1  0  0  0  0
  4  6  2  0  0  0  0
  5 30  1  0  0  0  0
  5 31  1  0  0  0  0
  5 32  1  0  0  0  0
  6  7  1  0  0  0  0
  7  8  1  0  0  0  0
  7 25  2  0  0  0  0
  8  9  1  0  0  0  0
  8 33  1  0  0  0  0
  9 10  2  0  0  0  0
  9 11  1  0  0  0  0
 11 12  1  0  0  0  0
 11 34  1  0  0  0  0
 12 24  1  0  0  0  0
 12 13  1  0  0  0  0
 12 35  1  0  0  0  0
 13 14  1  0  0  0  0
 13 36  1  0  0  0  0
 13 37  1  0  0  0  0
 14 15  1  0  0  0  0
 14 38  1  0  0  0  0
 14 39  1  0  0  0  0
 15 16  1  0  0  0  0
 15 23  1  0  0  0  0
 15 57  1  0  0  0  0
 16 22  1  0  0  0  0
 16 17  1  0  0  0  0
 16 40  1  0  0  0  0
 17 18  1  0  0  0  0
 17 41  1  0  0  0  0
 17 42  1  0  0  0  0
 18 19  1  0  0  0  0
 18 43  1  0  0  0  0
 18 44  1  0  0  0  0
 19 20  1  0  0  0  0
 19 21  1  0  0  0  0
 19 58  1  0  0  0  0
 20 45  1  0  0  0  0
 20 46  1  0  0  0  0
 20 47  1  0  0  0  0
 21 22  1  0  0  0  0
 21 48  1  0  0  0  0
 21 49  1  0  0  0  0
 22 50  1  0  0  0  0
 22 51  1  0  0  0  0
 23 24  1  0  0  0  0
 23 52  1  0  0  0  0
 23 53  1  0  0  0  0
 24 54  1  0  0  0  0
 24 55  1  0  0  0  0
 25 56  1  0  0  0  0
M  CHG  1  15   1
M  CHG  1  19   1
M  END
> <s_m_source_file>
AV-unprocessed.smi

> <i_m_source_file_index>
2279

> <i_lp_mmshare_version>
43012

> <i_f3d_flags>
0

> <s_epik_input>
W0NIM11jMVtjSF1jKFtDSDNdKW5jKFtjSF0xKVtOSF1DKD1PKVtOSF1bQ0hdMltDSDJdW0NIMl1OKFtDSDJdW0NIMl0yKVtDSF0zW0NIMl1bQ0gyXU4oW0NIM10pW0NIMl1bQ0gyXTM=

> <s_epik_cmdline>
J2VwaWtfcHl0aG9uJywgJy1waCcsICc3LjAnLCAnLXRuJywgJzgnLCAnLW1hJywgJzIwMCcsICctbWV0YWxfYmluZGluZycsICctaW1hZScsICc8aW5maWxlLm1hZT4nLCAnLW9tYWUnLCAnPG91dGZpbGUubWFlPic=

> <r_epik_Ionization_Penalty>
0.180973

> <r_epik_Ionization_Penalty_Charging>
0.180787

> <r_epik_Ionization_Penalty_Neutral>
0.000186186

> <r_epik_State_Penalty>
0.153592

> <r_epik_Charging_Adjusted_Penalty>
0.334379

> <i_epik_Tot_Q>
2

> <i_epik_Tot_abs_Q>
2

> <r_epik_Metal_State_Penalty>
0.153604

> <b_epik_Metal_Only>
0

> <s_lp_Force_Field>
OPLS_2005

> <r_lp_Energy>
49.6144

> <b_lp_Chiralities_Consistent>
1

> <s_lp_Variant>
AV-unprocessed.smi:2279-4

> <Gold.Version>
5.8.1

> <Gold.Id.Protein>
6NUR|6NUR_protein|mol2

> <Gold.PLP.Fitness>
41.8811

> <Gold.PLP.PLP>
-36.6999

> <Gold.PLP.part.hbond>
-1.0000

> <Gold.PLP.part.metal>
0.0000

> <Gold.PLP.part.buried>
-4.0092

> <Gold.PLP.part.nonpolar>
-33.7550

> <Gold.PLP.part.repulsive>
2.4598

> <Gold.PLP.ligand.clash>
0.0000

> <Gold.PLP.ligand.torsion>
0.4328

> <Gold.PLP.Chemscore.Hbond>
2.0000

> <Gold.PLP.Chemscore.CHOScore>
0.0000

> <Gold.PLP.Chemscore.Metal>
0.0000

> <Gold.Chemscore.Hbonds>
donor molecule, donor type, donor heavy atom, donor atom, acceptor molecule, acceptor atom, score
      L1  H    15    57       P1 10175  2.00

> <Gold.PLP.Chemscore.Internal.Correction>
0.0467

> <Gold.Rescore>
     Score         DG    S(hbond)    S(metal)    S(lipo)     H(rot)  DE(clash)    DE(int)     intcor
     13.36     -18.03       0.99        0.00     105.47       1.21       1.82       2.85       ----

> <Gold.Chemscore.Fitness>
13.3606

> <Gold.Chemscore.DG>
-18.0254

> <Gold.Chemscore.ZeroCoef>
-5.4800

> <Gold.Chemscore.Hbond>
0.9886

> <Gold.Chemscore.Metal>
0.0000

> <Gold.Chemscore.Lipo>
105.4678

> <Gold.Chemscore.Internal_Hbond>
0.0000

> <Gold.Chemscore.DEClash>
1.8173

> <Gold.Chemscore.DEInternal>
2.8475

> <Gold.Chemscore.Rot>
1.2095

> <Gold.Chemscore.Internal.Correction>
   9.000000E+99

> <Gold.Chemscore.Hbonds>
donor molecule, donor type, donor heavy atom, donor atom, acceptor molecule, acceptor atom, score
      L1  H    15    57       P1 10175  0.99

> <Gold.Chemscore.Hbond.Weighted>
-3.3019

> <Gold.Chemscore.Metal.Weighted>
-0.0000

> <Gold.Chemscore.Lipo.Weighted>
-12.3397

> <Gold.Chemscore.Internal_Hbond.Weighted>
0.0000

> <Gold.Chemscore.DEClash.Weighted>
1.8173

> <Gold.Chemscore.DEInternal.Weighted>
2.8475

> <Gold.Chemscore.Rot.Weighted>
3.0963

> <Gold.Chemscore.Internal.Correction.Weighted>
   9.000000E+99

> <Gold.Protein.RotatedTorsions>
[ 6907 6896 6895 6894 ] final   80.54 input  -60.11 | X-H torsion
[ 7974 7965 7964 7962 ] final  127.20 input  175.53 | X-H torsion
[ 8008 7997 7996 7995 ] final -167.45 input   59.86 | X-H torsion
[ 10167 10162 10161 10158 ] final -166.18 input  -65.29 | X-H torsion
[ 10718 10713 10712 10709 ] final  140.71 input   66.30 | X-H torsion
[ 10763 10752 10751 10750 ] final  -66.07 input  -60.55 | X-H torsion
[ 11005 11000 10999 10996 ] final -127.08 input  -57.11 | X-H torsion

> <Gold.Protein.ActiveResidues>
 VAL166  LYS551  ARG553  GLY616  TRP617  ASP618  TYR619  PRO620  LYS621  CYS622 
 ASP623  PHE694  ASN695  SER759  ASP760  ASP761  ALA762  ILE779  LEU786  VAL792 
 PHE793  MET794  SER795  GLU796  ALA797  LYS798  CYS799  TRP800  GLU811  SER814 

> <Gold.Protein.RotatedAtoms>
  152.5238  134.3341  159.9193 H   0  0  0  0  0  0  0  0  0  0  0  0  # atno 6907 bound_to 6896
  151.3291  133.4002  159.2668 H   0  0  0  0  0  0  0  0  0  0  0  0  # atno 6908 bound_to 6896
  150.9896  134.9251  159.7949 H   0  0  0  0  0  0  0  0  0  0  0  0  # atno 6909 bound_to 6896
  145.0532  139.3865  143.5043 H   0  0  0  0  0  0  0  0  0  0  0  0  # atno 7974 bound_to 7965
  155.8779  140.1004  157.1505 H   0  0  0  0  0  0  0  0  0  0  0  0  # atno 8008 bound_to 7997
  154.4002  140.1334  156.4223 H   0  0  0  0  0  0  0  0  0  0  0  0  # atno 8009 bound_to 7997
  155.7676  140.3461  155.5232 H   0  0  0  0  0  0  0  0  0  0  0  0  # atno 8010 bound_to 7997
  139.6132  144.0773  152.1862 H   0  0  0  0  0  0  0  0  0  0  0  0  # atno 10167 bound_to 10162
  157.4002  131.1016  151.0559 H   0  0  0  0  0  0  0  0  0  0  0  0  # atno 10718 bound_to 10713
  154.3544  135.6129  153.5659 H   0  0  0  0  0  0  0  0  0  0  0  0  # atno 10763 bound_to 10752
  152.9796  135.5800  154.4705 H   0  0  0  0  0  0  0  0  0  0  0  0  # atno 10764 bound_to 10752
  154.4432  135.2851  155.1810 H   0  0  0  0  0  0  0  0  0  0  0  0  # atno 10765 bound_to 10752
  140.9629  134.0911  157.3950 H   0  0  0  0  0  0  0  0  0  0  0  0  # atno 11005 bound_to 11000
  146.3519  140.0193  142.8660 LP  0  0  0  0  0  0  0  0  0  0  0  0  # atno 17320 bound_to 7965
  145.1501  140.9618  143.4438 LP  0  0  0  0  0  0  0  0  0  0  0  0  # atno 17321 bound_to 7965
  140.0396  144.6017  150.7421 LP  0  0  0  0  0  0  0  0  0  0  0  0  # atno 17342 bound_to 10162
  140.7333  143.2716  151.3872 LP  0  0  0  0  0  0  0  0  0  0  0  0  # atno 17343 bound_to 10162
  157.1561  130.6205  149.5596 LP  0  0  0  0  0  0  0  0  0  0  0  0  # atno 17370 bound_to 10713
  155.9821  130.4833  150.6864 LP  0  0  0  0  0  0  0  0  0  0  0  0  # atno 17371 bound_to 10713
  139.8884  135.0097  156.6620 LP  0  0  0  0  0  0  0  0  0  0  0  0  # atno 17394 bound_to 11000
  140.7441  133.8952  155.8299 LP  0  0  0  0  0  0  0  0  0  0  0  0  # atno 17395 bound_to 11000

$$$$
