AV-unprocessed.smi:2121|AV-procd|sdf|8642|dock4
  -GOLD-   2272011393D 1   1.00000     0.00000
 Structure written by MMmdl.
 49 50  0  0  0  0  0  0  0  0  1 V2000
  154.0060  141.6917  160.7166 C   0  0  0  0  0  0  0  0  0  0  0  0
  152.4881  141.9172  160.5968 C   0  0  2  0  0  0  0  0  0  0  0  0
  151.8157  141.0167  159.5427 C   0  0  0  0  0  0  0  0  0  0  0  0
  152.1109  141.4842  158.1904 N   0  0  0  0  0  0  0  0  0  0  0  0
  151.8066  140.6280  157.1110 C   0  0  0  0  0  0  0  0  0  0  0  0
  150.4837  140.5552  156.6155 C   0  0  0  0  0  0  0  0  0  0  0  0
  150.2006  139.6974  155.5357 C   0  0  0  0  0  0  0  0  0  0  0  0
  151.2451  138.9274  154.9787 C   0  0  0  0  0  0  0  0  0  0  0  0
  151.0349  137.9791  153.8044 C   0  0  0  0  0  0  0  0  0  0  0  0
  150.1973  136.8194  154.0916 N   0  0  0  0  0  0  0  0  0  0  0  0
  150.4310  135.9213  155.0604 C   0  0  0  0  0  0  0  0  0  0  0  0
  151.4155  135.9657  155.7999 O   0  0  0  0  0  0  0  0  0  0  0  0
  149.3888  134.8018  155.2104 C   0  0  1  0  0  0  0  0  0  0  0  0
  148.1564  135.3771  155.9275 C   0  0  0  0  0  0  0  0  0  0  0  0
  148.9667  134.3127  153.8986 N   0  0  0  0  0  0  0  0  0  0  0  0
  148.8957  133.0209  153.5441 C   0  0  0  0  0  0  0  0  0  0  0  0
  148.4947  132.8629  152.2824 N   0  0  0  0  0  0  0  0  0  0  0  0
  149.1671  132.0779  154.2854 O   0  0  0  0  0  0  0  0  0  0  0  0
  152.5317  139.0727  155.5347 C   0  0  0  0  0  0  0  0  0  0  0  0
  152.8098  139.8964  156.5667 N   0  0  0  0  0  0  0  0  0  0  0  0
  151.7933  142.8934  157.9870 C   0  0  0  0  0  0  0  0  0  0  0  0
  152.4966  143.7595  159.0478 C   0  0  1  0  0  0  0  0  0  0  0  0
  152.0754  145.2297  158.9554 C   0  0  0  0  0  0  0  0  0  0  0  0
  152.1628  143.2877  160.3530 O   0  0  0  0  0  0  0  0  0  0  0  0
  154.2195  140.6714  161.0363 H   0  0  0  0  0  0  0  0  0  0  0  0
  154.4423  142.3662  161.4534 H   0  0  0  0  0  0  0  0  0  0  0  0
  154.5238  141.8473  159.7706 H   0  0  0  0  0  0  0  0  0  0  0  0
  152.0562  141.6703  161.5668 H   0  0  0  0  0  0  0  0  0  0  0  0
  152.1486  139.9862  159.6735 H   0  0  0  0  0  0  0  0  0  0  0  0
  150.7346  141.0271  159.6885 H   0  0  0  0  0  0  0  0  0  0  0  0
  149.6917  141.1555  157.0379 H   0  0  0  0  0  0  0  0  0  0  0  0
  149.1941  139.6448  155.1480 H   0  0  0  0  0  0  0  0  0  0  0  0
  150.5657  138.5397  152.9958 H   0  0  0  0  0  0  0  0  0  0  0  0
  152.0047  137.6496  153.4271 H   0  0  0  0  0  0  0  0  0  0  0  0
  149.3676  136.7040  153.5278 H   0  0  0  0  0  0  0  0  0  0  0  0
  149.8007  133.9771  155.7959 H   0  0  0  0  0  0  0  0  0  0  0  0
  148.4162  135.7635  156.9142 H   0  0  0  0  0  0  0  0  0  0  0  0
  147.3965  134.6083  156.0711 H   0  0  0  0  0  0  0  0  0  0  0  0
  147.6994  136.1905  155.3614 H   0  0  0  0  0  0  0  0  0  0  0  0
  148.7288  135.0110  153.2098 H   0  0  0  0  0  0  0  0  0  0  0  0
  148.3964  131.9373  151.8925 H   0  0  0  0  0  0  0  0  0  0  0  0
  148.2867  133.6759  151.7208 H   0  0  0  0  0  0  0  0  0  0  0  0
  153.3662  138.5128  155.1387 H   0  0  0  0  0  0  0  0  0  0  0  0
  152.0874  143.2331  156.9948 H   0  0  0  0  0  0  0  0  0  0  0  0
  150.7119  143.0196  158.0557 H   0  0  0  0  0  0  0  0  0  0  0  0
  153.5761  143.7090  158.9037 H   0  0  0  0  0  0  0  0  0  0  0  0
  152.3188  145.6475  157.9782 H   0  0  0  0  0  0  0  0  0  0  0  0
  152.5862  145.8291  159.7094 H   0  0  0  0  0  0  0  0  0  0  0  0
  151.0020  145.3430  159.1106 H   0  0  0  0  0  0  0  0  0  0  0  0
  1  2  1  0  0  0  0
  1 25  1  0  0  0  0
  1 26  1  0  0  0  0
  1 27  1  0  0  0  0
  2 24  1  0  0  0  0
  2  3  1  0  0  0  0
  2 28  1  0  0  0  0
  3  4  1  0  0  0  0
  3 29  1  0  0  0  0
  3 30  1  0  0  0  0
  4  5  1  0  0  0  0
  4 21  1  0  0  0  0
  5 20  1  0  0  0  0
  5  6  2  0  0  0  0
  6  7  1  0  0  0  0
  6 31  1  0  0  0  0
  7  8  2  0  0  0  0
  7 32  1  0  0  0  0
  8  9  1  0  0  0  0
  8 19  1  0  0  0  0
  9 10  1  0  0  0  0
  9 33  1  0  0  0  0
  9 34  1  0  0  0  0
 10 11  1  0  0  0  0
 10 35  1  0  0  0  0
 11 12  2  0  0  0  0
 11 13  1  0  0  0  0
 13 14  1  0  0  0  0
 13 15  1  0  0  0  0
 13 36  1  0  0  0  0
 14 37  1  0  0  0  0
 14 38  1  0  0  0  0
 14 39  1  0  0  0  0
 15 16  1  0  0  0  0
 15 40  1  0  0  0  0
 16 17  1  0  0  0  0
 16 18  2  0  0  0  0
 17 41  1  0  0  0  0
 17 42  1  0  0  0  0
 19 20  2  0  0  0  0
 19 43  1  0  0  0  0
 21 22  1  0  0  0  0
 21 44  1  0  0  0  0
 21 45  1  0  0  0  0
 22 23  1  0  0  0  0
 22 24  1  0  0  0  0
 22 46  1  0  0  0  0
 23 47  1  0  0  0  0
 23 48  1  0  0  0  0
 23 49  1  0  0  0  0
M  END
> <s_m_source_file>
AV-unprocessed.smi

> <i_m_source_file_index>
2121

> <i_lp_mmshare_version>
43012

> <i_f3d_flags>
0

> <s_epik_input>
W0NIM11bQ0BASF0xW0NIMl1OKFtDSDJdW0NASF0oTzEpW0NIM10pYzJbY0hdW2NIXWMoW2NIXW4yKVtDSDJdW05IXUMoPU8pW0NASF0oW0NIM10pW05IXUMoPU8pW05IMl0=

> <s_epik_cmdline>
J2VwaWtfcHl0aG9uJywgJy1waCcsICc3LjAnLCAnLXRuJywgJzgnLCAnLW1hJywgJzIwMCcsICctbWV0YWxfYmluZGluZycsICctaW1hZScsICc8aW5maWxlLm1hZT4nLCAnLW9tYWUnLCAnPG91dGZpbGUubWFlPic=

> <r_lp_tautomer_probability>
1

> <r_epik_Ionization_Penalty>
0.0063713

> <r_epik_Ionization_Penalty_Charging>
0

> <r_epik_Ionization_Penalty_Neutral>
0.0063713

> <r_epik_State_Penalty>
0.00467069

> <r_epik_Charging_Adjusted_Penalty>
0.00467069

> <i_epik_Tot_Q>
0

> <i_epik_Tot_abs_Q>
0

> <r_epik_Metal_State_Penalty>
-0

> <b_epik_Metal_Only>
0

> <s_lp_Force_Field>
OPLS_2005

> <r_lp_Energy>
11.3306

> <b_lp_Chiralities_Consistent>
1

> <s_lp_Variant>
AV-unprocessed.smi:2121-3

> <Gold.Version>
5.8.1

> <Gold.Id.Protein>
6NUR|6NUR_protein|mol2

> <Gold.PLP.Fitness>
55.9993

> <Gold.PLP.PLP>
-44.4386

> <Gold.PLP.part.hbond>
-6.0000

> <Gold.PLP.part.metal>
0.0000

> <Gold.PLP.part.buried>
-1.2571

> <Gold.PLP.part.nonpolar>
-36.2973

> <Gold.PLP.part.repulsive>
0.2078

> <Gold.PLP.ligand.clash>
0.0000

> <Gold.PLP.ligand.torsion>
0.9417

> <Gold.PLP.Chemscore.Hbond>
4.3611

> <Gold.PLP.Chemscore.CHOScore>
0.0000

> <Gold.PLP.Chemscore.Metal>
0.0000

> <Gold.Chemscore.Hbonds>
donor molecule, donor type, donor heavy atom, donor atom, acceptor molecule, acceptor atom, score
      L1  H    10    35       P1  7948  0.72
      L1  H    15    40       P1  7948  1.00
      L1  H    17    41       P1 10747  0.80
      P1  H  7997  8008       L1    20  0.86
      P1  H 10752 10765       L1    12  1.00

> <Gold.PLP.Chemscore.Internal.Correction>
0.3607

> <Gold.Rescore>
     Score         DG    S(hbond)    S(metal)    S(lipo)     H(rot)  DE(clash)    DE(int)     intcor
     21.47     -23.01       3.63        0.00     102.71       2.58       0.60       0.93       ----

> <Gold.Chemscore.Fitness>
21.4750

> <Gold.Chemscore.DG>
-23.0079

> <Gold.Chemscore.ZeroCoef>
-5.4800

> <Gold.Chemscore.Hbond>
3.6303

> <Gold.Chemscore.Metal>
0.0000

> <Gold.Chemscore.Lipo>
102.7105

> <Gold.Chemscore.Internal_Hbond>
0.0000

> <Gold.Chemscore.DEClash>
0.6018

> <Gold.Chemscore.DEInternal>
0.9311

> <Gold.Chemscore.Rot>
2.5838

> <Gold.Chemscore.Internal.Correction>
   9.000000E+99

> <Gold.Chemscore.Hbonds>
donor molecule, donor type, donor heavy atom, donor atom, acceptor molecule, acceptor atom, score
      L1  H    10    35       P1  7948  0.65
      L1  H    15    40       P1  7948  0.50
      L1  H    17    41       P1 10747  0.75
      P1  H  7997  8008       L1    20  0.69
      P1  H 10752 10765       L1    12  0.85

> <Gold.Chemscore.Hbond.Weighted>
-12.1252

> <Gold.Chemscore.Metal.Weighted>
-0.0000

> <Gold.Chemscore.Lipo.Weighted>
-12.0171

> <Gold.Chemscore.Internal_Hbond.Weighted>
0.0000

> <Gold.Chemscore.DEClash.Weighted>
0.6018

> <Gold.Chemscore.DEInternal.Weighted>
0.9311

> <Gold.Chemscore.Rot.Weighted>
6.6145

> <Gold.Chemscore.Internal.Correction.Weighted>
   9.000000E+99

> <Gold.Protein.RotatedTorsions>
[ 6907 6896 6895 6894 ] final  -22.69 input  -60.11 | X-H torsion
[ 7974 7965 7964 7962 ] final   11.93 input  175.53 | X-H torsion
[ 8008 7997 7996 7995 ] final  -71.63 input   59.86 | X-H torsion
[ 10167 10162 10161 10158 ] final  -98.41 input  -65.29 | X-H torsion
[ 10718 10713 10712 10709 ] final -169.45 input   66.30 | X-H torsion
[ 10763 10752 10751 10750 ] final -159.52 input  -60.55 | X-H torsion
[ 11005 11000 10999 10996 ] final  -33.36 input  -57.11 | X-H torsion

> <Gold.Protein.ActiveResidues>
 VAL166  LYS551  ARG553  GLY616  TRP617  ASP618  TYR619  PRO620  LYS621  CYS622 
 ASP623  PHE694  ASN695  SER759  ASP760  ASP761  ALA762  ILE779  LEU786  VAL792 
 PHE793  MET794  SER795  GLU796  ALA797  LYS798  CYS799  TRP800  GLU811  SER814 

> <Gold.Protein.RotatedAtoms>
  151.2149  135.0496  159.8926 H   0  0  0  0  0  0  0  0  0  0  0  0  # atno 6907 bound_to 6896
  152.5421  134.0704  159.8201 H   0  0  0  0  0  0  0  0  0  0  0  0  # atno 6908 bound_to 6896
  151.0862  133.5303  159.2649 H   0  0  0  0  0  0  0  0  0  0  0  0  # atno 6909 bound_to 6896
  146.2361  139.9412  142.8483 H   0  0  0  0  0  0  0  0  0  0  0  0  # atno 7974 bound_to 7965
  154.5102  140.0812  156.7975 H   0  0  0  0  0  0  0  0  0  0  0  0  # atno 8008 bound_to 7997
  155.3801  140.3427  155.4228 H   0  0  0  0  0  0  0  0  0  0  0  0  # atno 8009 bound_to 7997
  156.1564  140.1574  156.8672 H   0  0  0  0  0  0  0  0  0  0  0  0  # atno 8010 bound_to 7997
  140.2732  143.3330  152.0514 H   0  0  0  0  0  0  0  0  0  0  0  0  # atno 10167 bound_to 10162
  156.7117  130.9236  151.3090 H   0  0  0  0  0  0  0  0  0  0  0  0  # atno 10718 bound_to 10713
  154.7467  135.3082  154.8631 H   0  0  0  0  0  0  0  0  0  0  0  0  # atno 10763 bound_to 10752
  153.9430  135.6772  153.4748 H   0  0  0  0  0  0  0  0  0  0  0  0  # atno 10764 bound_to 10752
  153.1064  135.4887  154.8885 H   0  0  0  0  0  0  0  0  0  0  0  0  # atno 10765 bound_to 10752
  140.9628  133.7154  156.1397 H   0  0  0  0  0  0  0  0  0  0  0  0  # atno 11005 bound_to 11000
  145.1951  140.9829  143.4188 LP  0  0  0  0  0  0  0  0  0  0  0  0  # atno 17320 bound_to 7965
  144.9823  139.3771  143.6256 LP  0  0  0  0  0  0  0  0  0  0  0  0  # atno 17321 bound_to 7965
  139.4983  144.6642  151.6395 LP  0  0  0  0  0  0  0  0  0  0  0  0  # atno 17342 bound_to 10162
  140.5872  143.9843  150.6303 LP  0  0  0  0  0  0  0  0  0  0  0  0  # atno 17343 bound_to 10162
  157.6933  130.9256  150.0574 LP  0  0  0  0  0  0  0  0  0  0  0  0  # atno 17370 bound_to 10713
  156.1656  130.3645  149.9237 LP  0  0  0  0  0  0  0  0  0  0  0  0  # atno 17371 bound_to 10713
  140.7443  134.4116  157.5550 LP  0  0  0  0  0  0  0  0  0  0  0  0  # atno 17394 bound_to 11000
  139.8884  134.8857  156.2476 LP  0  0  0  0  0  0  0  0  0  0  0  0  # atno 17395 bound_to 11000

$$$$
