AV-unprocessed.smi:500|AV-procd|sdf|2736|dock5
  -GOLD-   2262023193D 1   1.00000     0.00000
 Structure written by MMmdl.
 46 48  0  0  0  0  0  0  0  0  2 V2000
  153.5773  137.7054  159.9462 C   0  0  0  0  0  0  0  0  0  0  0  0
  153.8964  139.1759  159.6680 C   0  0  0  0  0  0  0  0  0  0  0  0
  153.8460  139.3942  158.2692 O   0  0  0  0  0  0  0  0  0  0  0  0
  152.6207  138.9790  157.6885 C   0  0  0  0  0  0  0  0  0  0  0  0
  151.4484  139.6047  158.4566 C   0  0  0  0  0  0  0  0  0  0  0  0
  151.1400  140.9656  157.9905 N   0  0  0  0  0  0  0  0  0  0  0  0
  150.3478  141.3875  156.9616 C   0  0  0  0  0  0  0  0  0  0  0  0
  149.5449  140.5267  156.0319 C   0  0  2  0  0  0  0  0  0  0  0  0
  150.4277  139.8751  154.9563 C   0  0  0  0  0  0  0  0  0  0  0  0
  148.4864  141.3022  155.3919 N   0  0  0  0  0  0  0  0  0  0  0  0
  147.4192  141.8372  156.0066 C   0  0  0  0  0  0  0  0  0  0  0  0
  147.1918  141.7142  157.2097 O   0  0  0  0  0  0  0  0  0  0  0  0
  146.4954  142.5948  155.1415 C   0  0  0  0  0  0  0  0  0  0  0  0
  146.5468  142.8999  153.8064 C   0  0  0  0  0  0  0  0  0  0  0  0
  145.3822  143.6642  153.5183 C   0  0  0  0  0  0  0  0  0  0  0  0
  144.7045  143.7749  154.6982 C   0  0  0  0  0  0  0  0  0  0  0  0
  145.3699  143.1319  155.6958 O   0  0  0  0  0  0  0  0  0  0  0  0
  150.3859  142.7516  156.9624 N   0  3  0  0  0  0  0  0  0  0  0  0
  151.2316  143.2036  157.9751 C   0  0  0  0  0  0  0  0  0  0  0  0
  151.5957  144.4935  158.3491 C   0  0  0  0  0  0  0  0  0  0  0  0
  152.4917  144.6090  159.4320 C   0  0  0  0  0  0  0  0  0  0  0  0
  152.9882  143.4699  160.0982 C   0  0  0  0  0  0  0  0  0  0  0  0
  152.6085  142.1677  159.7115 C   0  0  0  0  0  0  0  0  0  0  0  0
  151.7221  142.0615  158.6394 C   0  0  0  0  0  0  0  0  0  0  0  0
  153.6001  137.4974  161.0162 H   0  0  0  0  0  0  0  0  0  0  0  0
  154.3014  137.0496  159.4623 H   0  0  0  0  0  0  0  0  0  0  0  0
  152.5864  137.4430  159.5748 H   0  0  0  0  0  0  0  0  0  0  0  0
  153.1732  139.8163  160.1752 H   0  0  0  0  0  0  0  0  0  0  0  0
  154.8868  139.4226  160.0534 H   0  0  0  0  0  0  0  0  0  0  0  0
  152.5822  139.2817  156.6409 H   0  0  0  0  0  0  0  0  0  0  0  0
  152.5427  137.8913  157.7168 H   0  0  0  0  0  0  0  0  0  0  0  0
  150.5533  138.9973  158.3319 H   0  0  0  0  0  0  0  0  0  0  0  0
  151.6495  139.6266  159.5276 H   0  0  0  0  0  0  0  0  0  0  0  0
  149.1128  139.7150  156.6186 H   0  0  0  0  0  0  0  0  0  0  0  0
  151.2172  139.2748  155.4096 H   0  0  0  0  0  0  0  0  0  0  0  0
  150.8999  140.6191  154.3137 H   0  0  0  0  0  0  0  0  0  0  0  0
  149.8399  139.2144  154.3181 H   0  0  0  0  0  0  0  0  0  0  0  0
  148.5757  141.4550  154.3979 H   0  0  0  0  0  0  0  0  0  0  0  0
  147.3264  142.6100  153.1175 H   0  0  0  0  0  0  0  0  0  0  0  0
  145.0790  144.0810  152.5693 H   0  0  0  0  0  0  0  0  0  0  0  0
  143.7813  144.2523  154.9921 H   0  0  0  0  0  0  0  0  0  0  0  0
  151.2181  145.3674  157.8389 H   0  0  0  0  0  0  0  0  0  0  0  0
  152.8061  145.5902  159.7572 H   0  0  0  0  0  0  0  0  0  0  0  0
  153.6754  143.5966  160.9221 H   0  0  0  0  0  0  0  0  0  0  0  0
  153.0007  141.3028  160.2255 H   0  0  0  0  0  0  0  0  0  0  0  0
  149.8758  143.3292  156.3065 H   0  0  0  0  0  0  0  0  0  0  0  0
  1  2  1  0  0  0  0
  1 25  1  0  0  0  0
  1 26  1  0  0  0  0
  1 27  1  0  0  0  0
  2  3  1  0  0  0  0
  2 28  1  0  0  0  0
  2 29  1  0  0  0  0
  3  4  1  0  0  0  0
  4  5  1  0  0  0  0
  4 30  1  0  0  0  0
  4 31  1  0  0  0  0
  5  6  1  0  0  0  0
  5 32  1  0  0  0  0
  5 33  1  0  0  0  0
  6 24  1  0  0  0  0
  6  7  1  0  0  0  0
  7  8  1  0  0  0  0
  7 18  2  0  0  0  0
  8  9  1  0  0  0  0
  8 10  1  0  0  0  0
  8 34  1  0  0  0  0
  9 35  1  0  0  0  0
  9 36  1  0  0  0  0
  9 37  1  0  0  0  0
 10 11  1  0  0  0  0
 10 38  1  0  0  0  0
 11 12  2  0  0  0  0
 11 13  1  0  0  0  0
 13 17  1  0  0  0  0
 13 14  2  0  0  0  0
 14 15  1  0  0  0  0
 14 39  1  0  0  0  0
 15 16  2  0  0  0  0
 15 40  1  0  0  0  0
 16 17  1  0  0  0  0
 16 41  1  0  0  0  0
 18 19  1  0  0  0  0
 18 46  1  0  0  0  0
 19 24  2  0  0  0  0
 19 20  1  0  0  0  0
 20 21  2  0  0  0  0
 20 42  1  0  0  0  0
 21 22  1  0  0  0  0
 21 43  1  0  0  0  0
 22 23  2  0  0  0  0
 22 44  1  0  0  0  0
 23 24  1  0  0  0  0
 23 45  1  0  0  0  0
M  CHG  1  18   1
M  END
> <s_m_source_file>
AV-unprocessed.smi

> <i_m_source_file_index>
500

> <i_lp_mmshare_version>
43012

> <i_f3d_flags>
0

> <s_epik_input>
W0NIM11bQ0gyXU9bQ0gyXVtDSDJdbihjKGMxMilbY0hdW2NIXVtjSF1bY0hdMiljKG4xKVtDQEhdKFtDSDNdKVtOSF1DKD1PKWMzW2NIXVtjSF1bY0hdbzM=

> <s_epik_cmdline>
J2VwaWtfcHl0aG9uJywgJy1waCcsICc3LjAnLCAnLXRuJywgJzgnLCAnLW1hJywgJzIwMCcsICctbWV0YWxfYmluZGluZycsICctaW1hZScsICc8aW5maWxlLm1hZT4nLCAnLW9tYWUnLCAnPG91dGZpbGUubWFlPic=

> <r_epik_Ionization_Penalty>
1.05286

> <r_epik_Ionization_Penalty_Charging>
1.05283

> <r_epik_Ionization_Penalty_Neutral>
2.09263e-05

> <r_epik_State_Penalty>
1.10586

> <r_epik_Charging_Adjusted_Penalty>
2.15869

> <i_epik_Tot_Q>
1

> <i_epik_Tot_abs_Q>
1

> <r_epik_Metal_State_Penalty>
1.22833

> <b_epik_Metal_Only>
0

> <s_lp_Force_Field>
OPLS_2005

> <r_lp_Energy>
11.0053

> <b_lp_Chiralities_Consistent>
1

> <s_lp_Variant>
AV-unprocessed.smi:500-3

> <Gold.Version>
5.8.1

> <Gold.Id.Protein>
6NUR|6NUR_protein|mol2

> <Gold.PLP.Fitness>
53.8785

> <Gold.PLP.PLP>
-46.9588

> <Gold.PLP.part.hbond>
-2.0000

> <Gold.PLP.part.metal>
0.0000

> <Gold.PLP.part.buried>
-5.3248

> <Gold.PLP.part.nonpolar>
-39.2891

> <Gold.PLP.part.repulsive>
0.3632

> <Gold.PLP.ligand.clash>
0.0000

> <Gold.PLP.ligand.torsion>
1.0773

> <Gold.PLP.Chemscore.Hbond>
3.0000

> <Gold.PLP.Chemscore.CHOScore>
0.0000

> <Gold.PLP.Chemscore.Metal>
0.0000

> <Gold.Chemscore.Hbonds>
donor molecule, donor type, donor heavy atom, donor atom, acceptor molecule, acceptor atom, score
      L1  H    18    46       P1  8028  2.00
      P1  H  7997  8010       L1     3  1.00

> <Gold.PLP.Chemscore.Internal.Correction>
0.0742

> <Gold.Rescore>
     Score         DG    S(hbond)    S(metal)    S(lipo)     H(rot)  DE(clash)    DE(int)     intcor
     20.66     -21.66       1.94        0.00     126.11       1.97       0.09       0.91       ----

> <Gold.Chemscore.Fitness>
20.6648

> <Gold.Chemscore.DG>
-21.6606

> <Gold.Chemscore.ZeroCoef>
-5.4800

> <Gold.Chemscore.Hbond>
1.9403

> <Gold.Chemscore.Metal>
0.0000

> <Gold.Chemscore.Lipo>
126.1098

> <Gold.Chemscore.Internal_Hbond>
0.0000

> <Gold.Chemscore.DEClash>
0.0872

> <Gold.Chemscore.DEInternal>
0.9087

> <Gold.Chemscore.Rot>
1.9746

> <Gold.Chemscore.Internal.Correction>
   9.000000E+99

> <Gold.Chemscore.Hbonds>
donor molecule, donor type, donor heavy atom, donor atom, acceptor molecule, acceptor atom, score
      L1  H    18    46       P1  8028  0.99
      P1  H  7997  8010       L1     3  0.88

> <Gold.Chemscore.Hbond.Weighted>
-6.4808

> <Gold.Chemscore.Metal.Weighted>
-0.0000

> <Gold.Chemscore.Lipo.Weighted>
-14.7549

> <Gold.Chemscore.Internal_Hbond.Weighted>
0.0000

> <Gold.Chemscore.DEClash.Weighted>
0.0872

> <Gold.Chemscore.DEInternal.Weighted>
0.9087

> <Gold.Chemscore.Rot.Weighted>
5.0550

> <Gold.Chemscore.Internal.Correction.Weighted>
   9.000000E+99

> <Gold.Protein.RotatedTorsions>
[ 6907 6896 6895 6894 ] final -138.31 input  -60.11 | X-H torsion
[ 7974 7965 7964 7962 ] final   24.90 input  175.53 | X-H torsion
[ 8008 7997 7996 7995 ] final   12.64 input   59.86 | X-H torsion
[ 10167 10162 10161 10158 ] final  -90.03 input  -65.29 | X-H torsion
[ 10718 10713 10712 10709 ] final -132.34 input   66.30 | X-H torsion
[ 10763 10752 10751 10750 ] final    1.59 input  -60.55 | X-H torsion
[ 11005 11000 10999 10996 ] final  -38.06 input  -57.11 | X-H torsion

> <Gold.Protein.ActiveResidues>
 VAL166  LYS551  ARG553  GLY616  TRP617  ASP618  TYR619  PRO620  LYS621  CYS622 
 ASP623  PHE694  ASN695  SER759  ASP760  ASP761  ALA762  ILE779  LEU786  VAL792 
 PHE793  MET794  SER795  GLU796  ALA797  LYS798  CYS799  TRP800  GLU811  SER814 

> <Gold.Protein.RotatedAtoms>
  151.0334  133.5770  159.2658 H   0  0  0  0  0  0  0  0  0  0  0  0  # atno 6907 bound_to 6896
  151.2843  135.0722  159.9191 H   0  0  0  0  0  0  0  0  0  0  0  0  # atno 6908 bound_to 6896
  152.5349  134.0043  159.7963 H   0  0  0  0  0  0  0  0  0  0  0  0  # atno 6909 bound_to 6896
  146.1915  139.7540  142.8828 H   0  0  0  0  0  0  0  0  0  0  0  0  # atno 7974 bound_to 7965
  154.8234  140.2887  155.5771 H   0  0  0  0  0  0  0  0  0  0  0  0  # atno 8008 bound_to 7997
  156.2999  140.2546  156.3076 H   0  0  0  0  0  0  0  0  0  0  0  0  # atno 8009 bound_to 7997
  154.9313  140.0383  157.2039 H   0  0  0  0  0  0  0  0  0  0  0  0  # atno 8010 bound_to 7997
  140.3590  143.2852  151.9637 H   0  0  0  0  0  0  0  0  0  0  0  0  # atno 10167 bound_to 10162
  156.2336  130.7053  151.0884 H   0  0  0  0  0  0  0  0  0  0  0  0  # atno 10718 bound_to 10713
  153.3061  135.6959  153.7158 H   0  0  0  0  0  0  0  0  0  0  0  0  # atno 10763 bound_to 10752
  153.6053  135.3454  155.2960 H   0  0  0  0  0  0  0  0  0  0  0  0  # atno 10764 bound_to 10752
  154.8563  135.4350  154.2186 H   0  0  0  0  0  0  0  0  0  0  0  0  # atno 10765 bound_to 10752
  140.9999  133.6961  156.2003 H   0  0  0  0  0  0  0  0  0  0  0  0  # atno 11005 bound_to 11000
  145.3778  141.0353  143.3194 LP  0  0  0  0  0  0  0  0  0  0  0  0  # atno 17320 bound_to 7965
  144.8496  139.5343  143.6863 LP  0  0  0  0  0  0  0  0  0  0  0  0  # atno 17321 bound_to 7965
  139.4816  144.6010  151.7606 LP  0  0  0  0  0  0  0  0  0  0  0  0  # atno 17342 bound_to 10162
  140.5146  144.0973  150.6004 LP  0  0  0  0  0  0  0  0  0  0  0  0  # atno 17343 bound_to 10162
  157.7144  131.0717  150.6381 LP  0  0  0  0  0  0  0  0  0  0  0  0  # atno 17370 bound_to 10713
  156.6450  130.4469  149.5739 LP  0  0  0  0  0  0  0  0  0  0  0  0  # atno 17371 bound_to 10713
  140.6906  134.4670  157.5588 LP  0  0  0  0  0  0  0  0  0  0  0  0  # atno 17394 bound_to 11000
  139.9033  134.8505  156.1805 LP  0  0  0  0  0  0  0  0  0  0  0  0  # atno 17395 bound_to 11000

$$$$
