AV-unprocessed.smi:528|AV-procd|sdf|2831|dock1
  -GOLD-   2262023313D 1   1.00000     0.00000
 Structure written by MMmdl.
 45 47  0  0  0  0  0  0  0  0  1 V2000
  151.2135  140.9203  159.3667 C   0  0  0  0  0  0  0  0  0  0  0  0
  152.5566  141.3303  158.7431 C   0  0  2  0  0  0  0  0  0  0  0  0
  153.6011  140.4380  159.2423 N   0  0  0  0  0  0  0  0  0  0  0  0
  153.9185  139.2354  158.7378 C   0  0  0  0  0  0  0  0  0  0  0  0
  153.3128  138.7108  157.8024 O   0  0  0  0  0  0  0  0  0  0  0  0
  155.1020  138.5211  159.4038 C   0  0  0  0  0  0  0  0  0  0  0  0
  154.8391  138.1817  160.8115 N   0  0  0  0  0  0  0  0  0  0  0  0
  155.6076  138.8612  161.7769 C   0  0  0  0  0  0  0  0  0  0  0  0
  155.4773  138.6502  163.1003 C   0  0  0  0  0  0  0  0  0  0  0  0
  156.3687  139.3539  164.1116 C   0  0  0  0  0  0  0  0  0  0  0  0
  156.2150  140.6768  164.0508 F   0  0  0  0  0  0  0  0  0  0  0  0
  156.0918  138.9563  165.3541 F   0  0  0  0  0  0  0  0  0  0  0  0
  157.6466  139.0719  163.8617 F   0  0  0  0  0  0  0  0  0  0  0  0
  154.5083  137.6490  163.5007 C   0  0  0  0  0  0  0  0  0  0  0  0
  153.7750  136.9796  162.5895 C   0  0  0  0  0  0  0  0  0  0  0  0
  153.9207  137.2293  161.1534 C   0  0  0  0  0  0  0  0  0  0  0  0
  153.2606  136.6183  160.3129 O   0  0  0  0  0  0  0  0  0  0  0  0
  152.9262  142.7982  159.0642 C   0  0  2  0  0  0  0  0  0  0  0  0
  152.6054  143.2530  160.5059 C   0  0  0  0  0  0  0  0  0  0  0  0
  151.8567  144.5823  160.2925 C   0  0  2  0  0  0  0  0  0  0  0  0
  150.4377  144.2831  159.7762 C   0  0  0  0  0  0  0  0  0  0  0  0
  150.6955  143.8248  158.3299 C   0  0  0  0  0  0  0  0  0  0  0  0
  152.2328  143.8951  158.2157 C   0  0  1  0  0  0  0  0  0  0  0  0
  152.5330  145.1397  159.0450 C   0  0  0  0  0  0  0  0  0  0  0  0
  150.3969  141.5393  158.9948 H   0  0  0  0  0  0  0  0  0  0  0  0
  151.2334  141.0143  160.4529 H   0  0  0  0  0  0  0  0  0  0  0  0
  150.9709  139.8844  159.1269 H   0  0  0  0  0  0  0  0  0  0  0  0
  152.4545  141.2250  157.6624 H   0  0  0  0  0  0  0  0  0  0  0  0
  154.1494  140.7793  160.0183 H   0  0  0  0  0  0  0  0  0  0  0  0
  155.3342  137.6095  158.8500 H   0  0  0  0  0  0  0  0  0  0  0  0
  155.9886  139.1489  159.3009 H   0  0  0  0  0  0  0  0  0  0  0  0
  156.3232  139.5601  161.3673 H   0  0  0  0  0  0  0  0  0  0  0  0
  154.3647  137.4335  164.5492 H   0  0  0  0  0  0  0  0  0  0  0  0
  153.0610  136.2414  162.9241 H   0  0  0  0  0  0  0  0  0  0  0  0
  154.0015  142.9069  158.9092 H   0  0  0  0  0  0  0  0  0  0  0  0
  151.9976  142.5338  161.0565 H   0  0  0  0  0  0  0  0  0  0  0  0
  153.5257  143.4073  161.0708 H   0  0  0  0  0  0  0  0  0  0  0  0
  151.8752  145.2397  161.1622 H   0  0  0  0  0  0  0  0  0  0  0  0
  149.9320  143.5210  160.3701 H   0  0  0  0  0  0  0  0  0  0  0  0
  149.8200  145.1820  159.7888 H   0  0  0  0  0  0  0  0  0  0  0  0
  150.2886  142.8359  158.1245 H   0  0  0  0  0  0  0  0  0  0  0  0
  150.2308  144.5167  157.6262 H   0  0  0  0  0  0  0  0  0  0  0  0
  152.5901  143.9428  157.1865 H   0  0  0  0  0  0  0  0  0  0  0  0
  152.0559  146.0432  158.6608 H   0  0  0  0  0  0  0  0  0  0  0  0
  153.5997  145.3282  159.1785 H   0  0  0  0  0  0  0  0  0  0  0  0
  1  2  1  0  0  0  0
  1 25  1  0  0  0  0
  1 26  1  0  0  0  0
  1 27  1  0  0  0  0
  2  3  1  0  0  0  0
  2 18  1  0  0  0  0
  2 28  1  0  0  0  0
  3  4  1  0  0  0  0
  3 29  1  0  0  0  0
  4  5  2  0  0  0  0
  4  6  1  0  0  0  0
  6  7  1  0  0  0  0
  6 30  1  0  0  0  0
  6 31  1  0  0  0  0
  7 16  1  0  0  0  0
  7  8  1  0  0  0  0
  8  9  2  0  0  0  0
  8 32  1  0  0  0  0
  9 10  1  0  0  0  0
  9 14  1  0  0  0  0
 10 11  1  0  0  0  0
 10 12  1  0  0  0  0
 10 13  1  0  0  0  0
 14 15  2  0  0  0  0
 14 33  1  0  0  0  0
 15 16  1  0  0  0  0
 15 34  1  0  0  0  0
 16 17  2  0  0  0  0
 18 23  1  0  0  0  0
 18 19  1  0  0  0  0
 18 35  1  0  0  0  0
 19 20  1  0  0  0  0
 19 36  1  0  0  0  0
 19 37  1  0  0  0  0
 20 24  1  0  0  0  0
 20 21  1  0  0  0  0
 20 38  1  0  0  0  0
 21 22  1  0  0  0  0
 21 39  1  0  0  0  0
 21 40  1  0  0  0  0
 22 23  1  0  0  0  0
 22 41  1  0  0  0  0
 22 42  1  0  0  0  0
 23 24  1  0  0  0  0
 23 43  1  0  0  0  0
 24 44  1  0  0  0  0
 24 45  1  0  0  0  0
M  END
> <s_m_source_file>
AV-unprocessed.smi

> <i_m_source_file_index>
528

> <i_lp_mmshare_version>
43012

> <i_f3d_flags>
0

> <s_epik_input>
W0NIMl0xW0NIMl1bQ0BASF0oW0NIMl0yKVtDQEBIXShbQ0gyXVtDQEhdMTIpW0NASF0oW0NIM10pW05IXUMoPU8pW0NIMl1uM1tjSF1jKEMoRikoRilGKVtjSF1bY0hdYzM9Tw==

> <s_epik_cmdline>
J2VwaWtfcHl0aG9uJywgJy1waCcsICc3LjAnLCAnLXRuJywgJzgnLCAnLW1hJywgJzIwMCcsICctbWV0YWxfYmluZGluZycsICctaW1hZScsICc8aW5maWxlLm1hZT4nLCAnLW9tYWUnLCAnPG91dGZpbGUubWFlPic=

> <r_lp_tautomer_probability>
1

> <r_epik_Ionization_Penalty>
4.09479e-08

> <r_epik_Ionization_Penalty_Charging>
1.9321e-08

> <r_epik_Ionization_Penalty_Neutral>
2.16269e-08

> <r_epik_State_Penalty>
-0

> <r_epik_Charging_Adjusted_Penalty>
1.9321e-08

> <i_epik_Tot_Q>
0

> <i_epik_Tot_abs_Q>
0

> <r_epik_Metal_State_Penalty>
-0

> <b_epik_Metal_Only>
0

> <s_lp_Force_Field>
OPLS_2005

> <r_lp_Energy>
62.8802

> <b_lp_Chiralities_Consistent>
1

> <s_lp_Variant>
AV-unprocessed.smi:528-1

> <Gold.Version>
5.8.1

> <Gold.Id.Protein>
6NUR|6NUR_protein|mol2

> <Gold.PLP.Fitness>
47.4107

> <Gold.PLP.PLP>
-44.2938

> <Gold.PLP.part.hbond>
-1.9705

> <Gold.PLP.part.metal>
0.0000

> <Gold.PLP.part.buried>
-3.7919

> <Gold.PLP.part.nonpolar>
-39.0863

> <Gold.PLP.part.repulsive>
0.0918

> <Gold.PLP.ligand.clash>
0.0000

> <Gold.PLP.ligand.torsion>
0.8381

> <Gold.PLP.Chemscore.Hbond>
1.5712

> <Gold.PLP.Chemscore.CHOScore>
0.0000

> <Gold.PLP.Chemscore.Metal>
0.0000

> <Gold.Chemscore.Hbonds>
donor molecule, donor type, donor heavy atom, donor atom, acceptor molecule, acceptor atom, score
      P1  H  6896  6908       L1    17  1.00
      P1  H  7997  8008       L1     5  0.14

> <Gold.PLP.Chemscore.Internal.Correction>
0.0795

> <Gold.Rescore>
     Score         DG    S(hbond)    S(metal)    S(lipo)     H(rot)  DE(clash)    DE(int)     intcor
     18.81     -19.68       1.01        0.00     129.91       1.71       0.02       0.85       ----

> <Gold.Chemscore.Fitness>
18.8126

> <Gold.Chemscore.DG>
-19.6811

> <Gold.Chemscore.ZeroCoef>
-5.4800

> <Gold.Chemscore.Hbond>
1.0135

> <Gold.Chemscore.Metal>
0.0000

> <Gold.Chemscore.Lipo>
129.9146

> <Gold.Chemscore.Internal_Hbond>
0.0000

> <Gold.Chemscore.DEClash>
0.0168

> <Gold.Chemscore.DEInternal>
0.8517

> <Gold.Chemscore.Rot>
1.7125

> <Gold.Chemscore.Internal.Correction>
   9.000000E+99

> <Gold.Chemscore.Hbonds>
donor molecule, donor type, donor heavy atom, donor atom, acceptor molecule, acceptor atom, score
      P1  H  6896  6908       L1    17  0.97

> <Gold.Chemscore.Hbond.Weighted>
-3.3851

> <Gold.Chemscore.Metal.Weighted>
-0.0000

> <Gold.Chemscore.Lipo.Weighted>
-15.2000

> <Gold.Chemscore.Internal_Hbond.Weighted>
0.0000

> <Gold.Chemscore.DEClash.Weighted>
0.0168

> <Gold.Chemscore.DEInternal.Weighted>
0.8517

> <Gold.Chemscore.Rot.Weighted>
4.3840

> <Gold.Chemscore.Internal.Correction.Weighted>
   9.000000E+99

> <Gold.Protein.RotatedTorsions>
[ 6907 6896 6895 6894 ] final  -80.27 input  -60.11 | X-H torsion
[ 7974 7965 7964 7962 ] final  -73.97 input  175.53 | X-H torsion
[ 8008 7997 7996 7995 ] final  -61.82 input   59.86 | X-H torsion
[ 10167 10162 10161 10158 ] final -108.11 input  -65.29 | X-H torsion
[ 10718 10713 10712 10709 ] final  133.07 input   66.30 | X-H torsion
[ 10763 10752 10751 10750 ] final  143.51 input  -60.55 | X-H torsion
[ 11005 11000 10999 10996 ] final  -27.78 input  -57.11 | X-H torsion

> <Gold.Protein.ActiveResidues>
 VAL166  LYS551  ARG553  GLY616  TRP617  ASP618  TYR619  PRO620  LYS621  CYS622 
 ASP623  PHE694  ASN695  SER759  ASP760  ASP761  ALA762  ILE779  LEU786  VAL792 
 PHE793  MET794  SER795  GLU796  ALA797  LYS798  CYS799  TRP800  GLU811  SER814 

> <Gold.Protein.RotatedAtoms>
  150.6933  134.3995  159.5112 H   0  0  0  0  0  0  0  0  0  0  0  0  # atno 6907 bound_to 6896
  152.1770  134.8783  160.0539 H   0  0  0  0  0  0  0  0  0  0  0  0  # atno 6908 bound_to 6896
  151.9788  133.3715  159.4136 H   0  0  0  0  0  0  0  0  0  0  0  0  # atno 6909 bound_to 6896
  145.6452  140.9299  143.1014 H   0  0  0  0  0  0  0  0  0  0  0  0  # atno 7974 bound_to 7965
  154.4467  140.1009  156.6490 H   0  0  0  0  0  0  0  0  0  0  0  0  # atno 8008 bound_to 7997
  155.5419  140.3484  155.4430 H   0  0  0  0  0  0  0  0  0  0  0  0  # atno 8009 bound_to 7997
  156.0591  140.1322  156.9951 H   0  0  0  0  0  0  0  0  0  0  0  0  # atno 8010 bound_to 7997
  140.1696  143.4053  152.1364 H   0  0  0  0  0  0  0  0  0  0  0  0  # atno 10167 bound_to 10162
  157.4809  131.1086  150.9682 H   0  0  0  0  0  0  0  0  0  0  0  0  # atno 10718 bound_to 10713
  153.9736  135.2948  155.3425 H   0  0  0  0  0  0  0  0  0  0  0  0  # atno 10763 bound_to 10752
  154.7308  135.5068  153.8964 H   0  0  0  0  0  0  0  0  0  0  0  0  # atno 10764 bound_to 10752
  153.0888  135.6701  154.0008 H   0  0  0  0  0  0  0  0  0  0  0  0  # atno 10765 bound_to 10752
  140.9150  133.7436  156.0722 H   0  0  0  0  0  0  0  0  0  0  0  0  # atno 11005 bound_to 11000
  144.7143  139.8255  143.7404 LP  0  0  0  0  0  0  0  0  0  0  0  0  # atno 17320 bound_to 7965
  146.1249  139.4273  143.0205 LP  0  0  0  0  0  0  0  0  0  0  0  0  # atno 17321 bound_to 7965
  139.5344  144.7193  151.4945 LP  0  0  0  0  0  0  0  0  0  0  0  0  # atno 17342 bound_to 10162
  140.6590  143.8538  150.6867 LP  0  0  0  0  0  0  0  0  0  0  0  0  # atno 17343 bound_to 10162
  157.0415  130.5751  149.5357 LP  0  0  0  0  0  0  0  0  0  0  0  0  # atno 17370 bound_to 10713
  156.0121  130.5213  150.8022 LP  0  0  0  0  0  0  0  0  0  0  0  0  # atno 17371 bound_to 10713
  140.8061  134.3453  157.5425 LP  0  0  0  0  0  0  0  0  0  0  0  0  # atno 17394 bound_to 11000
  139.8764  134.9227  156.3306 LP  0  0  0  0  0  0  0  0  0  0  0  0  # atno 17395 bound_to 11000

$$$$
