AV-unprocessed.smi:3189|AV-procd|sdf|12188|dock1
  -GOLD-   2272018 33D 1   1.00000     0.00000
 Structure written by MMmdl.
 30 31  0  0  0  0  0  0  0  0  1 V2000
  152.6122  143.6046  160.9232 C   0  0  0  0  0  0  0  0  0  0  0  0
  152.1703  142.5846  159.8905 C   0  0  0  0  0  0  0  0  0  0  0  0
  152.6298  141.3276  160.0760 N   0  0  0  0  0  0  0  0  0  0  0  0
  152.2722  140.3827  159.1824 C   0  0  0  0  0  0  0  0  0  0  0  0
  151.4424  140.6390  158.0742 C   0  0  0  0  0  0  0  0  0  0  0  0
  150.9465  141.9511  157.8860 C   0  0  0  0  0  0  0  0  0  0  0  0
  150.1201  142.3250  156.7908 N   0  0  0  0  0  0  0  0  0  0  0  0
  149.4802  141.5367  155.9049 C   0  0  0  0  0  0  0  0  0  0  0  0
  149.4795  140.3077  155.9330 O   0  0  0  0  0  0  0  0  0  0  0  0
  148.7537  142.2117  154.9970 N   0  0  0  0  0  0  0  0  0  0  0  0
  147.9657  141.6656  153.9325 C   0  0  1  0  0  0  0  0  0  0  0  0
  146.8424  140.7286  154.3189 C   0  0  0  0  0  0  0  0  0  0  0  0
  146.5197  142.0975  153.7783 C   0  0  1  0  0  0  0  0  0  0  0  0
  145.8991  143.1572  154.6674 C   0  0  0  0  0  0  0  0  0  0  0  0
  151.3320  142.9495  158.8109 C   0  0  0  0  0  0  0  0  0  0  0  0
  150.7832  144.5826  158.6302 Cl  0  0  0  0  0  0  0  0  0  0  0  0
  151.7454  144.0318  161.4282 H   0  0  0  0  0  0  0  0  0  0  0  0
  153.1666  144.4129  160.4453 H   0  0  0  0  0  0  0  0  0  0  0  0
  153.2566  143.1561  161.6807 H   0  0  0  0  0  0  0  0  0  0  0  0
  152.6658  139.3914  159.3517 H   0  0  0  0  0  0  0  0  0  0  0  0
  151.2158  139.8354  157.3907 H   0  0  0  0  0  0  0  0  0  0  0  0
  149.9364  143.3145  156.7103 H   0  0  0  0  0  0  0  0  0  0  0  0
  148.6754  143.2092  155.1338 H   0  0  0  0  0  0  0  0  0  0  0  0
  148.4923  141.3910  153.0195 H   0  0  0  0  0  0  0  0  0  0  0  0
  146.6531  139.8765  153.6690 H   0  0  0  0  0  0  0  0  0  0  0  0
  146.6711  140.5493  155.3789 H   0  0  0  0  0  0  0  0  0  0  0  0
  146.1544  142.1320  152.7537 H   0  0  0  0  0  0  0  0  0  0  0  0
  146.2175  143.0385  155.7036 H   0  0  0  0  0  0  0  0  0  0  0  0
  144.8122  143.0833  154.6321 H   0  0  0  0  0  0  0  0  0  0  0  0
  146.1914  144.1499  154.3245 H   0  0  0  0  0  0  0  0  0  0  0  0
  1  2  1  0  0  0  0
  1 17  1  0  0  0  0
  1 18  1  0  0  0  0
  1 19  1  0  0  0  0
  2 15  1  0  0  0  0
  2  3  2  0  0  0  0
  3  4  1  0  0  0  0
  4  5  2  0  0  0  0
  4 20  1  0  0  0  0
  5  6  1  0  0  0  0
  5 21  1  0  0  0  0
  6  7  1  0  0  0  0
  6 15  2  0  0  0  0
  7  8  1  0  0  0  0
  7 22  1  0  0  0  0
  8  9  2  0  0  0  0
  8 10  1  0  0  0  0
 10 11  1  0  0  0  0
 10 23  1  0  0  0  0
 11 13  1  0  0  0  0
 11 12  1  0  0  0  0
 11 24  1  0  0  0  0
 12 13  1  0  0  0  0
 12 25  1  0  0  0  0
 12 26  1  0  0  0  0
 13 14  1  0  0  0  0
 13 27  1  0  0  0  0
 14 28  1  0  0  0  0
 14 29  1  0  0  0  0
 14 30  1  0  0  0  0
 15 16  1  0  0  0  0
M  END
> <s_m_source_file>
AV-unprocessed.smi

> <i_m_source_file_index>
3189

> <i_lp_mmshare_version>
43012

> <i_f3d_flags>
0

> <s_epik_input>
W0NIM11jMW5bY0hdW2NIXWMoYzFDbClbTkhdQyg9TylbTkhdW0NAQEhdMltDSDJdW0NASF0yW0NIM10=

> <s_epik_cmdline>
J2VwaWtfcHl0aG9uJywgJy1waCcsICc3LjAnLCAnLXRuJywgJzgnLCAnLW1hJywgJzIwMCcsICctbWV0YWxfYmluZGluZycsICctaW1hZScsICc8aW5maWxlLm1hZT4nLCAnLW9tYWUnLCAnPG91dGZpbGUubWFlPic=

> <r_epik_Ionization_Penalty>
0.00994309

> <r_epik_Ionization_Penalty_Charging>
0

> <r_epik_Ionization_Penalty_Neutral>
0.00994309

> <r_epik_State_Penalty>
0.00754503

> <r_epik_Charging_Adjusted_Penalty>
0.00754503

> <i_epik_Tot_Q>
0

> <i_epik_Tot_abs_Q>
0

> <r_epik_Metal_State_Penalty>
0.00742071

> <b_epik_Metal_Only>
0

> <s_lp_Force_Field>
OPLS_2005

> <r_lp_Energy>
34.6575

> <b_lp_Chiralities_Consistent>
1

> <s_lp_Variant>
AV-unprocessed.smi:3189-2

> <Gold.Version>
5.8.1

> <Gold.Id.Protein>
6NUR|6NUR_protein|mol2

> <Gold.PLP.Fitness>
39.2685

> <Gold.PLP.PLP>
-33.6663

> <Gold.PLP.part.hbond>
-2.0000

> <Gold.PLP.part.metal>
0.0000

> <Gold.PLP.part.buried>
-6.0610

> <Gold.PLP.part.nonpolar>
-25.9565

> <Gold.PLP.part.repulsive>
0.2711

> <Gold.PLP.ligand.clash>
0.0000

> <Gold.PLP.ligand.torsion>
0.0624

> <Gold.PLP.Chemscore.Hbond>
1.8960

> <Gold.PLP.Chemscore.CHOScore>
0.0000

> <Gold.PLP.Chemscore.Metal>
0.0000

> <Gold.Chemscore.Hbonds>
donor molecule, donor type, donor heavy atom, donor atom, acceptor molecule, acceptor atom, score
      L1  H     7    22       P1  8028  0.87
      L1  H    10    23       P1  8028  1.00

> <Gold.PLP.Chemscore.Internal.Correction>
0.0390

> <Gold.Rescore>
     Score         DG    S(hbond)    S(metal)    S(lipo)     H(rot)  DE(clash)    DE(int)     intcor
     18.36     -19.77       1.96        0.00      88.09       1.00       0.12       1.29       ----

> <Gold.Chemscore.Fitness>
18.3596

> <Gold.Chemscore.DG>
-19.7713

> <Gold.Chemscore.ZeroCoef>
-5.4800

> <Gold.Chemscore.Hbond>
1.9594

> <Gold.Chemscore.Metal>
0.0000

> <Gold.Chemscore.Lipo>
88.0917

> <Gold.Chemscore.Internal_Hbond>
0.0000

> <Gold.Chemscore.DEClash>
0.1198

> <Gold.Chemscore.DEInternal>
1.2918

> <Gold.Chemscore.Rot>
1.0000

> <Gold.Chemscore.Internal.Correction>
   9.000000E+99

> <Gold.Chemscore.Hbonds>
donor molecule, donor type, donor heavy atom, donor atom, acceptor molecule, acceptor atom, score
      L1  H     7    22       P1  8028  0.80
      L1  H    10    23       P1  8028  0.98

> <Gold.Chemscore.Hbond.Weighted>
-6.5446

> <Gold.Chemscore.Metal.Weighted>
-0.0000

> <Gold.Chemscore.Lipo.Weighted>
-10.3067

> <Gold.Chemscore.Internal_Hbond.Weighted>
0.0000

> <Gold.Chemscore.DEClash.Weighted>
0.1198

> <Gold.Chemscore.DEInternal.Weighted>
1.2918

> <Gold.Chemscore.Rot.Weighted>
2.5600

> <Gold.Chemscore.Internal.Correction.Weighted>
   9.000000E+99

> <Gold.Protein.RotatedTorsions>
[ 6907 6896 6895 6894 ] final   -2.33 input  -60.11 | X-H torsion
[ 7974 7965 7964 7962 ] final  162.46 input  175.53 | X-H torsion
[ 8008 7997 7996 7995 ] final  171.97 input   59.86 | X-H torsion
[ 10167 10162 10161 10158 ] final    5.00 input  -65.29 | X-H torsion
[ 10718 10713 10712 10709 ] final  -88.57 input   66.30 | X-H torsion
[ 10763 10752 10751 10750 ] final  -86.15 input  -60.55 | X-H torsion
[ 11005 11000 10999 10996 ] final  -68.85 input  -57.11 | X-H torsion

> <Gold.Protein.ActiveResidues>
 VAL166  LYS551  ARG553  GLY616  TRP617  ASP618  TYR619  PRO620  LYS621  CYS622 
 ASP623  PHE694  ASN695  SER759  ASP760  ASP761  ALA762  ILE779  LEU786  VAL792 
 PHE793  MET794  SER795  GLU796  ALA797  LYS798  CYS799  TRP800  GLU811  SER814 

> <Gold.Protein.RotatedAtoms>
  151.5317  135.1068  159.9903 H   0  0  0  0  0  0  0  0  0  0  0  0  # atno 6907 bound_to 6896
  152.4575  133.7750  159.6830 H   0  0  0  0  0  0  0  0  0  0  0  0  # atno 6908 bound_to 6896
  150.8525  133.7700  159.3045 H   0  0  0  0  0  0  0  0  0  0  0  0  # atno 6909 bound_to 6896
  144.7635  139.8043  143.6323 H   0  0  0  0  0  0  0  0  0  0  0  0  # atno 7974 bound_to 7965
  156.1220  140.1498  156.9191 H   0  0  0  0  0  0  0  0  0  0  0  0  # atno 8008 bound_to 7997
  154.4843  140.0870  156.7491 H   0  0  0  0  0  0  0  0  0  0  0  0  # atno 8009 bound_to 7997
  155.4412  140.3431  155.4292 H   0  0  0  0  0  0  0  0  0  0  0  0  # atno 8010 bound_to 7997
  140.6505  143.7555  150.7568 H   0  0  0  0  0  0  0  0  0  0  0  0  # atno 10167 bound_to 10162
  155.9983  130.4840  150.5040 H   0  0  0  0  0  0  0  0  0  0  0  0  # atno 10718 bound_to 10713
  154.6192  135.5459  153.7557 H   0  0  0  0  0  0  0  0  0  0  0  0  # atno 10763 bound_to 10752
  153.0230  135.6408  154.1465 H   0  0  0  0  0  0  0  0  0  0  0  0  # atno 10764 bound_to 10752
  154.1400  135.2909  155.3143 H   0  0  0  0  0  0  0  0  0  0  0  0  # atno 10765 bound_to 10752
  141.1541  133.6750  156.6508 H   0  0  0  0  0  0  0  0  0  0  0  0  # atno 11005 bound_to 11000
  146.1722  139.4877  142.9920 LP  0  0  0  0  0  0  0  0  0  0  0  0  # atno 17320 bound_to 7965
  145.6542  141.0256  143.1744 LP  0  0  0  0  0  0  0  0  0  0  0  0  # atno 17321 bound_to 7965
  140.1205  143.4616  152.2316 LP  0  0  0  0  0  0  0  0  0  0  0  0  # atno 17342 bound_to 10162
  139.5720  144.7468  151.3865 LP  0  0  0  0  0  0  0  0  0  0  0  0  # atno 17343 bound_to 10162
  157.3021  131.0647  151.2061 LP  0  0  0  0  0  0  0  0  0  0  0  0  # atno 17370 bound_to 10713
  157.3037  130.6855  149.6177 LP  0  0  0  0  0  0  0  0  0  0  0  0  # atno 17371 bound_to 10713
  140.3321  134.7920  157.4334 LP  0  0  0  0  0  0  0  0  0  0  0  0  # atno 17394 bound_to 11000
  140.1008  134.5476  155.8355 LP  0  0  0  0  0  0  0  0  0  0  0  0  # atno 17395 bound_to 11000

$$$$
