AV-unprocessed.smi:1636|AV-procd|sdf|6543|dock2
  -GOLD-   22720 7223D 1   1.00000     0.00000
 Structure written by MMmdl.
 43 44  0  0  0  0  0  0  0  0  1 V2000
  153.3648  141.8617  161.3734 C   0  0  0  0  0  0  0  0  0  0  0  0
  153.1607  142.3765  159.9445 C   0  0  1  0  0  0  0  0  0  0  0  0
  152.0297  141.6263  159.2157 C   0  0  0  0  0  0  0  0  0  0  0  0
  151.7767  142.2169  157.9039 N   0  0  0  0  0  0  0  0  0  0  0  0
  150.9855  141.4982  156.9779 C   0  0  0  0  0  0  0  0  0  0  0  0
  151.5470  140.8413  155.8528 C   0  0  0  0  0  0  0  0  0  0  0  0
  150.7003  140.1484  154.9665 C   0  0  0  0  0  0  0  0  0  0  0  0
  149.3157  140.1214  155.2196 C   0  0  0  0  0  0  0  0  0  0  0  0
  148.3749  139.3857  154.2765 C   0  0  0  0  0  0  0  0  0  0  0  0
  148.7448  137.9960  154.0279 N   0  0  0  0  0  0  0  0  0  0  0  0
  149.1204  137.1245  154.9744 C   0  0  0  0  0  0  0  0  0  0  0  0
  149.1962  137.3978  156.1725 O   0  0  0  0  0  0  0  0  0  0  0  0
  149.4041  135.9206  154.4589 N   0  0  0  0  0  0  0  0  0  0  0  0
  149.8409  134.7641  155.2320 C   0  0  0  0  0  0  0  0  0  0  0  0
  149.6658  133.4575  154.4425 C   0  0  0  0  0  0  0  0  0  0  0  0
  148.9676  133.7139  153.2436 O   0  0  0  0  0  0  0  0  0  0  0  0
  148.8435  140.8081  156.3573 C   0  0  0  0  0  0  0  0  0  0  0  0
  149.6501  141.4746  157.2094 N   0  0  0  0  0  0  0  0  0  0  0  0
  151.5938  143.6679  157.9329 C   0  0  0  0  0  0  0  0  0  0  0  0
  152.7332  144.3425  158.7139 C   0  0  0  0  0  0  0  0  0  0  0  0
  152.8401  143.7623  160.0088 O   0  0  0  0  0  0  0  0  0  0  0  0
  153.6295  140.8039  161.3749 H   0  0  0  0  0  0  0  0  0  0  0  0
  152.4598  141.9815  161.9700 H   0  0  0  0  0  0  0  0  0  0  0  0
  154.1675  142.4053  161.8722 H   0  0  0  0  0  0  0  0  0  0  0  0
  154.0962  142.2516  159.3960 H   0  0  0  0  0  0  0  0  0  0  0  0
  152.3202  140.5810  159.1083 H   0  0  0  0  0  0  0  0  0  0  0  0
  151.1122  141.6569  159.8049 H   0  0  0  0  0  0  0  0  0  0  0  0
  152.6076  140.8436  155.6535 H   0  0  0  0  0  0  0  0  0  0  0  0
  151.1133  139.6422  154.1064 H   0  0  0  0  0  0  0  0  0  0  0  0
  147.3766  139.3976  154.7137 H   0  0  0  0  0  0  0  0  0  0  0  0
  148.3024  139.9216  153.3283 H   0  0  0  0  0  0  0  0  0  0  0  0
  148.7142  137.6791  153.0700 H   0  0  0  0  0  0  0  0  0  0  0  0
  149.3090  135.7927  153.4623 H   0  0  0  0  0  0  0  0  0  0  0  0
  150.8793  134.8900  155.5443 H   0  0  0  0  0  0  0  0  0  0  0  0
  149.2441  134.7296  156.1439 H   0  0  0  0  0  0  0  0  0  0  0  0
  150.6348  133.0216  154.1982 H   0  0  0  0  0  0  0  0  0  0  0  0
  149.1127  132.7204  155.0251 H   0  0  0  0  0  0  0  0  0  0  0  0
  148.9822  134.6447  153.0803 H   0  0  0  0  0  0  0  0  0  0  0  0
  147.7900  140.8300  156.5939 H   0  0  0  0  0  0  0  0  0  0  0  0
  151.5630  144.0919  156.9296 H   0  0  0  0  0  0  0  0  0  0  0  0
  150.6355  143.8908  158.4031 H   0  0  0  0  0  0  0  0  0  0  0  0
  153.6801  144.2476  158.1802 H   0  0  0  0  0  0  0  0  0  0  0  0
  152.5344  145.4089  158.8189 H   0  0  0  0  0  0  0  0  0  0  0  0
  1  2  1  0  0  0  0
  1 22  1  0  0  0  0
  1 23  1  0  0  0  0
  1 24  1  0  0  0  0
  2 21  1  0  0  0  0
  2  3  1  0  0  0  0
  2 25  1  0  0  0  0
  3  4  1  0  0  0  0
  3 26  1  0  0  0  0
  3 27  1  0  0  0  0
  4  5  1  0  0  0  0
  4 19  1  0  0  0  0
  5 18  1  0  0  0  0
  5  6  2  0  0  0  0
  6  7  1  0  0  0  0
  6 28  1  0  0  0  0
  7  8  2  0  0  0  0
  7 29  1  0  0  0  0
  8  9  1  0  0  0  0
  8 17  1  0  0  0  0
  9 10  1  0  0  0  0
  9 30  1  0  0  0  0
  9 31  1  0  0  0  0
 10 11  1  0  0  0  0
 10 32  1  0  0  0  0
 11 12  2  0  0  0  0
 11 13  1  0  0  0  0
 13 14  1  0  0  0  0
 13 33  1  0  0  0  0
 14 15  1  0  0  0  0
 14 34  1  0  0  0  0
 14 35  1  0  0  0  0
 15 16  1  0  0  0  0
 15 36  1  0  0  0  0
 15 37  1  0  0  0  0
 16 38  1  0  0  0  0
 17 18  2  0  0  0  0
 17 39  1  0  0  0  0
 19 20  1  0  0  0  0
 19 40  1  0  0  0  0
 19 41  1  0  0  0  0
 20 21  1  0  0  0  0
 20 42  1  0  0  0  0
 20 43  1  0  0  0  0
M  END
> <s_m_source_file>
AV-unprocessed.smi

> <i_m_source_file_index>
1636

> <i_lp_mmshare_version>
43012

> <i_f3d_flags>
0

> <s_epik_input>
W0NIM11bQ0BASF0xW0NIMl1OKFtDSDJdW0NIMl1PMSljMltjSF1bY0hdYyhbY0hdbjIpW0NIMl1bTkhdQyg9TylbTkhdW0NIMl1bQ0gyXVtPSF0=

> <s_epik_cmdline>
J2VwaWtfcHl0aG9uJywgJy1waCcsICc3LjAnLCAnLXRuJywgJzgnLCAnLW1hJywgJzIwMCcsICctbWV0YWxfYmluZGluZycsICctaW1hZScsICc8aW5maWxlLm1hZT4nLCAnLW9tYWUnLCAnPG91dGZpbGUubWFlPic=

> <r_lp_tautomer_probability>
1

> <r_epik_Ionization_Penalty>
0.00695222

> <r_epik_Ionization_Penalty_Charging>
0

> <r_epik_Ionization_Penalty_Neutral>
0.00695222

> <r_epik_State_Penalty>
0.00513345

> <r_epik_Charging_Adjusted_Penalty>
0.00513345

> <i_epik_Tot_Q>
0

> <i_epik_Tot_abs_Q>
0

> <r_epik_Metal_State_Penalty>
-0

> <b_epik_Metal_Only>
0

> <s_lp_Force_Field>
OPLS_2005

> <r_lp_Energy>
12.451

> <b_lp_Chiralities_Consistent>
1

> <s_lp_Variant>
AV-unprocessed.smi:1636-2

> <Gold.Version>
5.8.1

> <Gold.Id.Protein>
6NUR|6NUR_protein|mol2

> <Gold.PLP.Fitness>
44.9901

> <Gold.PLP.PLP>
-37.2362

> <Gold.PLP.part.hbond>
-3.0000

> <Gold.PLP.part.metal>
0.0000

> <Gold.PLP.part.buried>
-1.3148

> <Gold.PLP.part.nonpolar>
-31.2503

> <Gold.PLP.part.repulsive>
0.1696

> <Gold.PLP.ligand.clash>
0.0000

> <Gold.PLP.ligand.torsion>
0.8559

> <Gold.PLP.Chemscore.Hbond>
2.9920

> <Gold.PLP.Chemscore.CHOScore>
0.0000

> <Gold.PLP.Chemscore.Metal>
0.0000

> <Gold.Chemscore.Hbonds>
donor molecule, donor type, donor heavy atom, donor atom, acceptor molecule, acceptor atom, score
      L1  H    10    32       P1  7948  0.94
      L1  H    13    33       P1  7948  1.00
      L1  H    16    38       P1  7948  0.65

> <Gold.PLP.Chemscore.Internal.Correction>
0.4898

> <Gold.Rescore>
     Score         DG    S(hbond)    S(metal)    S(lipo)     H(rot)  DE(clash)    DE(int)     intcor
     14.74     -17.67       2.53        0.00      92.78       2.78       0.90       2.02       ----

> <Gold.Chemscore.Fitness>
14.7447

> <Gold.Chemscore.DG>
-17.6676

> <Gold.Chemscore.ZeroCoef>
-5.4800

> <Gold.Chemscore.Hbond>
2.5320

> <Gold.Chemscore.Metal>
0.0000

> <Gold.Chemscore.Lipo>
92.7770

> <Gold.Chemscore.Internal_Hbond>
0.0000

> <Gold.Chemscore.DEClash>
0.9011

> <Gold.Chemscore.DEInternal>
2.0218

> <Gold.Chemscore.Rot>
2.7828

> <Gold.Chemscore.Internal.Correction>
   9.000000E+99

> <Gold.Chemscore.Hbonds>
donor molecule, donor type, donor heavy atom, donor atom, acceptor molecule, acceptor atom, score
      L1  H    10    32       P1  7948  0.92
      L1  H    13    33       P1  7948  0.49
      L1  H    16    38       P1  7948  0.05

> <Gold.Chemscore.Hbond.Weighted>
-8.4568

> <Gold.Chemscore.Metal.Weighted>
-0.0000

> <Gold.Chemscore.Lipo.Weighted>
-10.8549

> <Gold.Chemscore.Internal_Hbond.Weighted>
0.0000

> <Gold.Chemscore.DEClash.Weighted>
0.9011

> <Gold.Chemscore.DEInternal.Weighted>
2.0218

> <Gold.Chemscore.Rot.Weighted>
7.1241

> <Gold.Chemscore.Internal.Correction.Weighted>
   9.000000E+99

> <Gold.Protein.RotatedTorsions>
[ 6907 6896 6895 6894 ] final -134.59 input  -60.11 | X-H torsion
[ 7974 7965 7964 7962 ] final  115.78 input  175.53 | X-H torsion
[ 8008 7997 7996 7995 ] final   99.48 input   59.86 | X-H torsion
[ 10167 10162 10161 10158 ] final  158.80 input  -65.29 | X-H torsion
[ 10718 10713 10712 10709 ] final  137.44 input   66.30 | X-H torsion
[ 10763 10752 10751 10750 ] final -133.10 input  -60.55 | X-H torsion
[ 11005 11000 10999 10996 ] final  125.62 input  -57.11 | X-H torsion

> <Gold.Protein.ActiveResidues>
 VAL166  LYS551  ARG553  GLY616  TRP617  ASP618  TYR619  PRO620  LYS621  CYS622 
 ASP623  PHE694  ASN695  SER759  ASP760  ASP761  ALA762  ILE779  LEU786  VAL792 
 PHE793  MET794  SER795  GLU796  ALA797  LYS798  CYS799  TRP800  GLU811  SER814 

> <Gold.Protein.RotatedAtoms>
  150.9877  133.6181  159.2712 H   0  0  0  0  0  0  0  0  0  0  0  0  # atno 6907 bound_to 6896
  151.3413  135.0863  159.9382 H   0  0  0  0  0  0  0  0  0  0  0  0  # atno 6908 bound_to 6896
  152.5236  133.9487  159.7716 H   0  0  0  0  0  0  0  0  0  0  0  0  # atno 6909 bound_to 6896
  145.1877  139.3016  143.4384 H   0  0  0  0  0  0  0  0  0  0  0  0  # atno 7974 bound_to 7965
  156.1109  140.3228  155.8072 H   0  0  0  0  0  0  0  0  0  0  0  0  # atno 8008 bound_to 7997
  155.4674  140.0544  157.3001 H   0  0  0  0  0  0  0  0  0  0  0  0  # atno 8009 bound_to 7997
  154.4760  140.2032  155.9893 H   0  0  0  0  0  0  0  0  0  0  0  0  # atno 8010 bound_to 7997
  139.4828  144.4790  151.8470 H   0  0  0  0  0  0  0  0  0  0  0  0  # atno 10167 bound_to 10162
  157.4360  131.1053  151.0197 H   0  0  0  0  0  0  0  0  0  0  0  0  # atno 10718 bound_to 10713
  154.8736  135.3777  154.4517 H   0  0  0  0  0  0  0  0  0  0  0  0  # atno 10763 bound_to 10752
  153.5192  135.7029  153.5745 H   0  0  0  0  0  0  0  0  0  0  0  0  # atno 10764 bound_to 10752
  153.4000  135.3951  155.1946 H   0  0  0  0  0  0  0  0  0  0  0  0  # atno 10765 bound_to 10752
  139.9415  134.9635  156.8585 H   0  0  0  0  0  0  0  0  0  0  0  0  # atno 11005 bound_to 11000
  146.3442  140.2079  142.8590 LP  0  0  0  0  0  0  0  0  0  0  0  0  # atno 17320 bound_to 7965
  145.0072  140.8683  143.5246 LP  0  0  0  0  0  0  0  0  0  0  0  0  # atno 17321 bound_to 7965
  140.4265  144.2173  150.5887 LP  0  0  0  0  0  0  0  0  0  0  0  0  # atno 17342 bound_to 10162
  140.4822  143.2375  151.8939 LP  0  0  0  0  0  0  0  0  0  0  0  0  # atno 17343 bound_to 10162
  157.1076  130.6008  149.5474 LP  0  0  0  0  0  0  0  0  0  0  0  0  # atno 17370 bound_to 10713
  155.9931  130.4991  150.7366 LP  0  0  0  0  0  0  0  0  0  0  0  0  # atno 17371 bound_to 10713
  140.5939  134.0235  155.7510 LP  0  0  0  0  0  0  0  0  0  0  0  0  # atno 17394 bound_to 11000
  141.1051  133.9706  157.3010 LP  0  0  0  0  0  0  0  0  0  0  0  0  # atno 17395 bound_to 11000

$$$$
