AV-unprocessed.smi:89|AV-procd|sdf|825|dock4
  -GOLD-   2262017233D 1   1.00000     0.00000
 Structure written by MMmdl.
 54 56  0  0  0  0  0  0  0  0  1 V2000
  148.4691  135.9618  158.6753 C   0  0  0  0  0  0  0  0  0  0  0  0
  147.9764  136.2662  157.2513 C   0  0  0  0  0  0  0  0  0  0  0  0
  149.0049  136.0699  156.2258 N   0  0  0  0  0  0  0  0  0  0  0  0
  149.6786  137.1581  155.7812 C   0  0  0  0  0  0  0  0  0  0  0  0
  150.3333  137.0393  154.5986 N   0  0  0  0  0  0  0  0  0  0  0  0
  151.0193  138.0730  154.1041 C   0  0  0  0  0  0  0  0  0  0  0  0
  151.1706  139.2955  154.6171 N   0  0  0  0  0  0  0  0  0  0  0  0
  150.4997  139.4254  155.7974 C   0  0  0  0  0  0  0  0  0  0  0  0
  149.7383  138.4144  156.4499 C   0  0  0  0  0  0  0  0  0  0  0  0
  149.2032  138.9161  157.6305 N   0  0  0  0  0  0  0  0  0  0  0  0
  149.6311  140.1475  157.6778 C   0  0  0  0  0  0  0  0  0  0  0  0
  150.4028  140.5428  156.6089 N   0  0  0  0  0  0  0  0  0  0  0  0
  150.9999  141.8542  156.4034 C   0  0  0  0  0  0  0  0  0  0  0  0
  150.8532  142.8173  157.6100 C   0  0  1  0  0  0  0  0  0  0  0  0
  149.4873  143.1456  157.7825 O   0  0  0  0  0  0  0  0  0  0  0  0
  151.4037  142.2658  158.9278 C   0  0  0  0  0  0  0  0  0  0  0  0
  152.7710  142.9257  159.0323 C   0  0  0  0  0  0  0  0  0  0  0  0
  152.5139  144.2299  158.5443 O   0  0  0  0  0  0  0  0  0  0  0  0
  151.6706  144.1095  157.4052 C   0  0  0  0  0  0  0  0  0  0  0  0
  148.8480  135.0161  155.2168 C   0  0  2  0  0  0  0  0  0  0  0  0
  147.5494  134.2176  155.4249 C   0  0  0  0  0  0  0  0  0  0  0  0
  150.0799  134.0934  155.1365 C   0  0  0  0  0  0  0  0  0  0  0  0
  150.2957  133.1073  156.6850 S   0  0  0  0  0  0  0  0  0  0  0  0
  151.6363  133.3812  157.2243 O   0  0  0  0  0  0  0  0  0  0  0  0
  149.1127  133.3180  157.5336 O   0  0  0  0  0  0  0  0  0  0  0  0
  150.2634  131.3722  156.0571 C   0  0  0  0  0  0  0  0  0  0  0  0
  149.9182  131.3057  154.5647 C   0  0  0  0  0  0  0  0  0  0  0  0
  147.6528  136.0544  159.3913 H   0  0  0  0  0  0  0  0  0  0  0  0
  149.2577  136.6447  158.9911 H   0  0  0  0  0  0  0  0  0  0  0  0
  148.8572  134.9452  158.7448 H   0  0  0  0  0  0  0  0  0  0  0  0
  147.1308  135.6144  157.0378 H   0  0  0  0  0  0  0  0  0  0  0  0
  147.5869  137.2822  157.1983 H   0  0  0  0  0  0  0  0  0  0  0  0
  151.5167  137.8955  153.1619 H   0  0  0  0  0  0  0  0  0  0  0  0
  149.3858  140.8092  158.4959 H   0  0  0  0  0  0  0  0  0  0  0  0
  152.0549  141.7095  156.1670 H   0  0  0  0  0  0  0  0  0  0  0  0
  150.5479  142.2963  155.5143 H   0  0  0  0  0  0  0  0  0  0  0  0
  149.2379  143.7575  157.1071 H   0  0  0  0  0  0  0  0  0  0  0  0
  150.7929  142.5963  159.7699 H   0  0  0  0  0  0  0  0  0  0  0  0
  151.4600  141.1797  158.9781 H   0  0  0  0  0  0  0  0  0  0  0  0
  153.1554  142.9436  160.0523 H   0  0  0  0  0  0  0  0  0  0  0  0
  153.5003  142.4259  158.3929 H   0  0  0  0  0  0  0  0  0  0  0  0
  152.3009  144.0425  156.5172 H   0  0  0  0  0  0  0  0  0  0  0  0
  151.0510  145.0007  157.2971 H   0  0  0  0  0  0  0  0  0  0  0  0
  148.7579  135.4888  154.2374 H   0  0  0  0  0  0  0  0  0  0  0  0
  147.4027  133.4961  154.6209 H   0  0  0  0  0  0  0  0  0  0  0  0
  146.6792  134.8744  155.4364 H   0  0  0  0  0  0  0  0  0  0  0  0
  147.5632  133.6648  156.3645 H   0  0  0  0  0  0  0  0  0  0  0  0
  150.0252  133.4130  154.2884 H   0  0  0  0  0  0  0  0  0  0  0  0
  150.9810  134.6931  155.0082 H   0  0  0  0  0  0  0  0  0  0  0  0
  151.2331  130.9164  156.2557 H   0  0  0  0  0  0  0  0  0  0  0  0
  149.5200  130.8251  156.6371 H   0  0  0  0  0  0  0  0  0  0  0  0
  149.8724  130.2703  154.2267 H   0  0  0  0  0  0  0  0  0  0  0  0
  150.6649  131.8162  153.9577 H   0  0  0  0  0  0  0  0  0  0  0  0
  148.9497  131.7627  154.3622 H   0  0  0  0  0  0  0  0  0  0  0  0
  1  2  1  0  0  0  0
  1 28  1  0  0  0  0
  1 29  1  0  0  0  0
  1 30  1  0  0  0  0
  2  3  1  0  0  0  0
  2 31  1  0  0  0  0
  2 32  1  0  0  0  0
  3  4  1  0  0  0  0
  3 20  1  0  0  0  0
  4  9  1  0  0  0  0
  4  5  2  0  0  0  0
  5  6  1  0  0  0  0
  6  7  2  0  0  0  0
  6 33  1  0  0  0  0
  7  8  1  0  0  0  0
  8 12  1  0  0  0  0
  8  9  2  0  0  0  0
  9 10  1  0  0  0  0
 10 11  2  0  0  0  0
 11 12  1  0  0  0  0
 11 34  1  0  0  0  0
 12 13  1  0  0  0  0
 13 14  1  0  0  0  0
 13 35  1  0  0  0  0
 13 36  1  0  0  0  0
 14 19  1  0  0  0  0
 14 15  1  0  0  0  0
 14 16  1  0  0  0  0
 15 37  1  0  0  0  0
 16 17  1  0  0  0  0
 16 38  1  0  0  0  0
 16 39  1  0  0  0  0
 17 18  1  0  0  0  0
 17 40  1  0  0  0  0
 17 41  1  0  0  0  0
 18 19  1  0  0  0  0
 19 42  1  0  0  0  0
 19 43  1  0  0  0  0
 20 21  1  0  0  0  0
 20 22  1  0  0  0  0
 20 44  1  0  0  0  0
 21 45  1  0  0  0  0
 21 46  1  0  0  0  0
 21 47  1  0  0  0  0
 22 23  1  0  0  0  0
 22 48  1  0  0  0  0
 22 49  1  0  0  0  0
 23 24  2  0  0  0  0
 23 25  2  0  0  0  0
 23 26  1  0  0  0  0
 26 27  1  0  0  0  0
 26 50  1  0  0  0  0
 26 51  1  0  0  0  0
 27 52  1  0  0  0  0
 27 53  1  0  0  0  0
 27 54  1  0  0  0  0
M  END
> <s_m_source_file>
AV-unprocessed.smi

> <i_m_source_file_index>
89

> <i_lp_mmshare_version>
43012

> <i_f3d_flags>
0

> <s_epik_input>
W0NIM11bQ0gyXVMoPU8pKD1PKVtDSDJdW0NAQEhdKFtDSDNdKU4oW0NIMl1bQ0gzXSljKG5bY0hdbjEpYyhjMTIpbltjSF1uMltDSDJdW0NAQF0zKFtPSF0pW0NIMl1bQ0gyXU9bQ0gyXTM=

> <s_epik_cmdline>
J2VwaWtfcHl0aG9uJywgJy1waCcsICc3LjAnLCAnLXRuJywgJzgnLCAnLW1hJywgJzIwMCcsICctbWV0YWxfYmluZGluZycsICctaW1hZScsICc8aW5maWxlLm1hZT4nLCAnLW9tYWUnLCAnPG91dGZpbGUubWFlPic=

> <r_lp_tautomer_probability>
1

> <r_epik_Ionization_Penalty>
0.00103773

> <r_epik_Ionization_Penalty_Charging>
0

> <r_epik_Ionization_Penalty_Neutral>
0.00103773

> <r_epik_State_Penalty>
0.000558914

> <r_epik_Charging_Adjusted_Penalty>
0.000558914

> <i_epik_Tot_Q>
0

> <i_epik_Tot_abs_Q>
0

> <r_epik_Metal_State_Penalty>
-0

> <b_epik_Metal_Only>
0

> <s_lp_Force_Field>
OPLS_2005

> <r_lp_Energy>
26.0666

> <b_lp_Chiralities_Consistent>
1

> <s_lp_Variant>
AV-unprocessed.smi:89-1

> <Gold.Version>
5.8.1

> <Gold.Id.Protein>
6NUR|6NUR_protein|mol2

> <Gold.PLP.Fitness>
47.1687

> <Gold.PLP.PLP>
-36.6702

> <Gold.PLP.part.hbond>
-3.1652

> <Gold.PLP.part.metal>
0.0000

> <Gold.PLP.part.buried>
-7.9973

> <Gold.PLP.part.nonpolar>
-27.6062

> <Gold.PLP.part.repulsive>
0.3203

> <Gold.PLP.ligand.clash>
0.0000

> <Gold.PLP.ligand.torsion>
0.8917

> <Gold.PLP.Chemscore.Hbond>
2.6080

> <Gold.PLP.Chemscore.CHOScore>
0.9590

> <Gold.PLP.Chemscore.Metal>
0.0000

> <Gold.Chemscore.Hbonds>
donor molecule, donor type, donor heavy atom, donor atom, acceptor molecule, acceptor atom, score
      L1  H    15    37       P1  8028  1.00
      P1  H  6896  6907       L1    24  0.62
      P1  H  7989  7998       L1     7  1.00
      L1  C     6    33       P1  7949  0.93

> <Gold.PLP.Chemscore.Internal.Correction>
1.5810

> <Gold.Rescore>
     Score         DG    S(hbond)    S(metal)    S(lipo)     H(rot)  DE(clash)    DE(int)     intcor
      8.40     -14.62       2.46        0.00      76.63       3.14       0.25       5.96       ----

> <Gold.Chemscore.Fitness>
8.4013

> <Gold.Chemscore.DG>
-14.6173

> <Gold.Chemscore.ZeroCoef>
-5.4800

> <Gold.Chemscore.Hbond>
2.4571

> <Gold.Chemscore.Metal>
0.0000

> <Gold.Chemscore.Lipo>
76.6281

> <Gold.Chemscore.Internal_Hbond>
0.0000

> <Gold.Chemscore.DEClash>
0.2512

> <Gold.Chemscore.DEInternal>
5.9648

> <Gold.Chemscore.Rot>
3.1386

> <Gold.Chemscore.Internal.Correction>
   9.000000E+99

> <Gold.Chemscore.Hbonds>
donor molecule, donor type, donor heavy atom, donor atom, acceptor molecule, acceptor atom, score
      L1  H    15    37       P1  8028  0.55
      P1  H  6896  6907       L1    24  0.27
      P1  H  7989  7998       L1     7  0.96

> <Gold.Chemscore.Hbond.Weighted>
-8.2068

> <Gold.Chemscore.Metal.Weighted>
-0.0000

> <Gold.Chemscore.Lipo.Weighted>
-8.9655

> <Gold.Chemscore.Internal_Hbond.Weighted>
0.0000

> <Gold.Chemscore.DEClash.Weighted>
0.2512

> <Gold.Chemscore.DEInternal.Weighted>
5.9648

> <Gold.Chemscore.Rot.Weighted>
8.0349

> <Gold.Chemscore.Internal.Correction.Weighted>
   9.000000E+99

> <Gold.Protein.RotatedTorsions>
[ 6907 6896 6895 6894 ] final -160.34 input  -60.11 | X-H torsion
[ 7974 7965 7964 7962 ] final   42.63 input  175.53 | X-H torsion
[ 8008 7997 7996 7995 ] final  -34.89 input   59.86 | X-H torsion
[ 10167 10162 10161 10158 ] final  -97.83 input  -65.29 | X-H torsion
[ 10718 10713 10712 10709 ] final  -59.15 input   66.30 | X-H torsion
[ 10763 10752 10751 10750 ] final   90.16 input  -60.55 | X-H torsion
[ 11005 11000 10999 10996 ] final -148.01 input  -57.11 | X-H torsion

> <Gold.Protein.ActiveResidues>
 VAL166  LYS551  ARG553  GLY616  TRP617  ASP618  TYR619  PRO620  LYS621  CYS622 
 ASP623  PHE694  ASN695  SER759  ASP760  ASP761  ALA762  ILE779  LEU786  VAL792 
 PHE793  MET794  SER795  GLU796  ALA797  LYS798  CYS799  TRP800  GLU811  SER814 

> <Gold.Protein.RotatedAtoms>
  151.3476  133.3938  159.2676 H   0  0  0  0  0  0  0  0  0  0  0  0  # atno 6907 bound_to 6896
  150.9827  134.9180  159.7864 H   0  0  0  0  0  0  0  0  0  0  0  0  # atno 6908 bound_to 6896
  152.5222  134.3440  159.9279 H   0  0  0  0  0  0  0  0  0  0  0  0  # atno 6909 bound_to 6896
  146.0724  139.5278  142.9589 H   0  0  0  0  0  0  0  0  0  0  0  0  # atno 7974 bound_to 7965
  154.4109  140.1672  156.2123 H   0  0  0  0  0  0  0  0  0  0  0  0  # atno 8008 bound_to 7997
  155.9434  140.3406  155.6323 H   0  0  0  0  0  0  0  0  0  0  0  0  # atno 8009 bound_to 7997
  155.6961  140.0739  157.2420 H   0  0  0  0  0  0  0  0  0  0  0  0  # atno 8010 bound_to 7997
  140.2793  143.3292  152.0457 H   0  0  0  0  0  0  0  0  0  0  0  0  # atno 10167 bound_to 10162
  156.1082  130.4178  150.0676 H   0  0  0  0  0  0  0  0  0  0  0  0  # atno 10718 bound_to 10713
  153.1947  135.4444  155.0193 H   0  0  0  0  0  0  0  0  0  0  0  0  # atno 10763 bound_to 10752
  154.8111  135.3295  154.7304 H   0  0  0  0  0  0  0  0  0  0  0  0  # atno 10764 bound_to 10752
  153.7755  135.6981  153.4953 H   0  0  0  0  0  0  0  0  0  0  0  0  # atno 10765 bound_to 10752
  140.7657  134.3247  157.5089 H   0  0  0  0  0  0  0  0  0  0  0  0  # atno 11005 bound_to 11000
  145.6368  141.0293  143.1833 LP  0  0  0  0  0  0  0  0  0  0  0  0  # atno 17320 bound_to 7965
  144.7240  139.7937  143.7372 LP  0  0  0  0  0  0  0  0  0  0  0  0  # atno 17321 bound_to 7965
  139.4967  144.6602  151.6481 LP  0  0  0  0  0  0  0  0  0  0  0  0  # atno 17342 bound_to 10162
  140.5825  143.9922  150.6276 LP  0  0  0  0  0  0  0  0  0  0  0  0  # atno 17343 bound_to 10162
  156.8646  130.9503  151.3615 LP  0  0  0  0  0  0  0  0  0  0  0  0  # atno 17370 bound_to 10713
  157.6261  130.8693  149.9192 LP  0  0  0  0  0  0  0  0  0  0  0  0  # atno 17371 bound_to 10713
  139.8763  134.9230  156.3313 LP  0  0  0  0  0  0  0  0  0  0  0  0  # atno 17394 bound_to 11000
  140.9621  133.7382  156.0416 LP  0  0  0  0  0  0  0  0  0  0  0  0  # atno 17395 bound_to 11000

$$$$
