AV-unprocessed.smi:234|AV-procd|sdf|1785|dock8
  -GOLD-   2262020333D 1   1.00000     0.00000
 Structure written by MMmdl.
 59 62  0  0  0  0  0  0  0  0  1 V2000
  151.5030  143.4834  157.4516 C   0  0  0  0  0  0  0  0  0  0  0  0
  150.9216  142.3654  156.5838 C   0  0  0  0  0  0  0  0  0  0  0  0
  151.3220  141.1144  157.1179 O   0  0  0  0  0  0  0  0  0  0  0  0
  150.3857  140.0785  156.8617 C   0  0  2  0  0  0  0  0  0  0  0  0
  150.6464  138.7804  157.6375 C   0  0  0  0  0  0  0  0  0  0  0  0
  150.3547  138.0216  156.3358 C   0  0  1  0  0  0  0  0  0  0  0  0
  148.9843  137.4788  156.2370 N   0  0  0  0  0  0  0  0  0  0  0  0
  147.7757  138.3090  156.2037 C   0  0  0  0  0  0  0  0  0  0  0  0
  148.8851  136.2510  155.6609 C   0  0  0  0  0  0  0  0  0  0  0  0
  149.9467  135.4020  155.7207 N   0  0  0  0  0  0  0  0  0  0  0  0
  149.8704  134.1807  155.1851 C   0  0  0  0  0  0  0  0  0  0  0  0
  148.8457  133.6118  154.5494 N   0  0  0  0  0  0  0  0  0  0  0  0
  147.7807  134.4597  154.4718 C   0  0  0  0  0  0  0  0  0  0  0  0
  147.7169  135.7853  154.9894 C   0  0  0  0  0  0  0  0  0  0  0  0
  146.4792  136.3444  154.6905 N   0  0  0  0  0  0  0  0  0  0  0  0
  145.8433  135.3998  154.0543 C   0  0  0  0  0  0  0  0  0  0  0  0
  146.5466  134.2288  153.8891 N   0  0  0  0  0  0  0  0  0  0  0  0
  146.0813  133.0171  153.2315 C   0  0  0  0  0  0  0  0  0  0  0  0
  144.8395  133.2467  152.3298 C   0  0  1  0  0  0  0  0  0  0  0  0
  143.7355  133.5450  153.1679 O   0  0  0  0  0  0  0  0  0  0  0  0
  145.0064  134.4064  151.3502 C   0  0  0  0  0  0  0  0  0  0  0  0
  144.1351  133.9949  150.1740 C   0  0  0  0  0  0  0  0  0  0  0  0
  144.3830  132.6033  150.0887 O   0  0  0  0  0  0  0  0  0  0  0  0
  144.4259  132.0649  151.4074 C   0  0  1  0  0  0  0  0  0  0  0  0
  145.3541  130.8405  151.3876 C   0  0  0  0  0  0  0  0  0  0  0  0
  150.6577  139.3235  155.5374 C   0  0  0  0  0  0  0  0  0  0  0  0
  149.7764  139.6879  154.3364 C   0  0  0  0  0  0  0  0  0  0  0  0
  152.1034  139.3903  155.0245 C   0  0  0  0  0  0  0  0  0  0  0  0
  151.2144  144.4629  157.0699 H   0  0  0  0  0  0  0  0  0  0  0  0
  152.5923  143.4387  157.4688 H   0  0  0  0  0  0  0  0  0  0  0  0
  151.1478  143.4063  158.4794 H   0  0  0  0  0  0  0  0  0  0  0  0
  149.8335  142.4399  156.5643 H   0  0  0  0  0  0  0  0  0  0  0  0
  151.2782  142.4674  155.5579 H   0  0  0  0  0  0  0  0  0  0  0  0
  149.3518  140.4196  156.9358 H   0  0  0  0  0  0  0  0  0  0  0  0
  151.6879  138.6808  157.9468 H   0  0  0  0  0  0  0  0  0  0  0  0
  149.9782  138.5897  158.4760 H   0  0  0  0  0  0  0  0  0  0  0  0
  151.1263  137.2724  156.1689 H   0  0  0  0  0  0  0  0  0  0  0  0
  146.9022  137.7110  156.4665 H   0  0  0  0  0  0  0  0  0  0  0  0
  147.6009  138.7339  155.2171 H   0  0  0  0  0  0  0  0  0  0  0  0
  147.8170  139.1273  156.9194 H   0  0  0  0  0  0  0  0  0  0  0  0
  150.7566  133.5711  155.2822 H   0  0  0  0  0  0  0  0  0  0  0  0
  144.8346  135.5316  153.6907 H   0  0  0  0  0  0  0  0  0  0  0  0
  146.9117  132.6224  152.6453 H   0  0  0  0  0  0  0  0  0  0  0  0
  145.8640  132.2739  153.9997 H   0  0  0  0  0  0  0  0  0  0  0  0
  143.5626  132.7937  153.7143 H   0  0  0  0  0  0  0  0  0  0  0  0
  144.7381  135.3791  151.7653 H   0  0  0  0  0  0  0  0  0  0  0  0
  146.0415  134.4649  151.0112 H   0  0  0  0  0  0  0  0  0  0  0  0
  143.0789  134.1729  150.3820 H   0  0  0  0  0  0  0  0  0  0  0  0
  144.4000  134.5099  149.2504 H   0  0  0  0  0  0  0  0  0  0  0  0
  143.4176  131.7262  151.6538 H   0  0  0  0  0  0  0  0  0  0  0  0
  145.4185  130.3733  152.3702 H   0  0  0  0  0  0  0  0  0  0  0  0
  146.3617  131.1057  151.0671 H   0  0  0  0  0  0  0  0  0  0  0  0
  144.9796  130.0879  150.6936 H   0  0  0  0  0  0  0  0  0  0  0  0
  149.8140  138.9175  153.5657 H   0  0  0  0  0  0  0  0  0  0  0  0
  150.0943  140.6241  153.8766 H   0  0  0  0  0  0  0  0  0  0  0  0
  148.7331  139.8232  154.6112 H   0  0  0  0  0  0  0  0  0  0  0  0
  152.2664  138.6936  154.2015 H   0  0  0  0  0  0  0  0  0  0  0  0
  152.8238  139.1378  155.8030 H   0  0  0  0  0  0  0  0  0  0  0  0
  152.3584  140.3883  154.6658 H   0  0  0  0  0  0  0  0  0  0  0  0
  1  2  1  0  0  0  0
  1 29  1  0  0  0  0
  1 30  1  0  0  0  0
  1 31  1  0  0  0  0
  2  3  1  0  0  0  0
  2 32  1  0  0  0  0
  2 33  1  0  0  0  0
  3  4  1  0  0  0  0
  4 26  1  0  0  0  0
  4  5  1  0  0  0  0
  4 34  1  0  0  0  0
  5  6  1  0  0  0  0
  5 35  1  0  0  0  0
  5 36  1  0  0  0  0
  6  7  1  0  0  0  0
  6 26  1  0  0  0  0
  6 37  1  0  0  0  0
  7  8  1  0  0  0  0
  7  9  1  0  0  0  0
  8 38  1  0  0  0  0
  8 39  1  0  0  0  0
  8 40  1  0  0  0  0
  9 14  1  0  0  0  0
  9 10  2  0  0  0  0
 10 11  1  0  0  0  0
 11 12  2  0  0  0  0
 11 41  1  0  0  0  0
 12 13  1  0  0  0  0
 13 17  1  0  0  0  0
 13 14  2  0  0  0  0
 14 15  1  0  0  0  0
 15 16  2  0  0  0  0
 16 17  1  0  0  0  0
 16 42  1  0  0  0  0
 17 18  1  0  0  0  0
 18 19  1  0  0  0  0
 18 43  1  0  0  0  0
 18 44  1  0  0  0  0
 19 24  1  0  0  0  0
 19 20  1  0  0  0  0
 19 21  1  0  0  0  0
 20 45  1  0  0  0  0
 21 22  1  0  0  0  0
 21 46  1  0  0  0  0
 21 47  1  0  0  0  0
 22 23  1  0  0  0  0
 22 48  1  0  0  0  0
 22 49  1  0  0  0  0
 23 24  1  0  0  0  0
 24 25  1  0  0  0  0
 24 50  1  0  0  0  0
 25 51  1  0  0  0  0
 25 52  1  0  0  0  0
 25 53  1  0  0  0  0
 26 27  1  0  0  0  0
 26 28  1  0  0  0  0
 27 54  1  0  0  0  0
 27 55  1  0  0  0  0
 27 56  1  0  0  0  0
 28 57  1  0  0  0  0
 28 58  1  0  0  0  0
 28 59  1  0  0  0  0
M  END
> <s_m_source_file>
AV-unprocessed.smi

> <i_m_source_file_index>
234

> <i_lp_mmshare_version>
43012

> <i_f3d_flags>
0

> <s_epik_input>
W0NIM11bQ0gyXU9bQ0BASF0oQzEoW0NIM10pW0NIM10pW0NIMl1bQ0BIXTFOKFtDSDNdKWMobltjSF1uMiljKGMyMyluW2NIXW4zW0NIMl1bQ0BAXTQoW09IXSlbQ0gyXVtDSDJdT1tDQEhdNFtDSDNd

> <s_epik_cmdline>
J2VwaWtfcHl0aG9uJywgJy1waCcsICc3LjAnLCAnLXRuJywgJzgnLCAnLW1hJywgJzIwMCcsICctbWV0YWxfYmluZGluZycsICctaW1hZScsICc8aW5maWxlLm1hZT4nLCAnLW9tYWUnLCAnPG91dGZpbGUubWFlPic=

> <r_lp_tautomer_probability>
1

> <r_epik_Ionization_Penalty>
0.00349132

> <r_epik_Ionization_Penalty_Charging>
0

> <r_epik_Ionization_Penalty_Neutral>
0.00349132

> <r_epik_State_Penalty>
0.00242418

> <r_epik_Charging_Adjusted_Penalty>
0.00242418

> <i_epik_Tot_Q>
0

> <i_epik_Tot_abs_Q>
0

> <r_epik_Metal_State_Penalty>
-0

> <b_epik_Metal_Only>
0

> <s_lp_Force_Field>
OPLS_2005

> <r_lp_Energy>
52.3915

> <b_lp_Chiralities_Consistent>
1

> <s_lp_Variant>
AV-unprocessed.smi:234-1

> <Gold.Version>
5.8.1

> <Gold.Id.Protein>
6NUR|6NUR_protein|mol2

> <Gold.PLP.Fitness>
34.2168

> <Gold.PLP.PLP>
-34.4488

> <Gold.PLP.part.hbond>
-1.0000

> <Gold.PLP.part.metal>
0.0000

> <Gold.PLP.part.buried>
-5.4234

> <Gold.PLP.part.nonpolar>
-27.9496

> <Gold.PLP.part.repulsive>
0.4061

> <Gold.PLP.ligand.clash>
1.8446

> <Gold.PLP.ligand.torsion>
1.1694

> <Gold.PLP.Chemscore.Hbond>
1.0000

> <Gold.PLP.Chemscore.CHOScore>
0.0000

> <Gold.PLP.Chemscore.Metal>
0.0000

> <Gold.Chemscore.Hbonds>
donor molecule, donor type, donor heavy atom, donor atom, acceptor molecule, acceptor atom, score
      L1  H    20    45       P1 10957  1.00

> <Gold.PLP.Chemscore.Internal.Correction>
0.9514

> <Gold.Rescore>
     Score         DG    S(hbond)    S(metal)    S(lipo)     H(rot)  DE(clash)    DE(int)     intcor
      9.48     -13.18       0.93        0.00      91.04       2.37       0.03       3.67       ----

> <Gold.Chemscore.Fitness>
9.4799

> <Gold.Chemscore.DG>
-13.1754

> <Gold.Chemscore.ZeroCoef>
-5.4800

> <Gold.Chemscore.Hbond>
0.9294

> <Gold.Chemscore.Metal>
0.0000

> <Gold.Chemscore.Lipo>
91.0429

> <Gold.Chemscore.Internal_Hbond>
0.0000

> <Gold.Chemscore.DEClash>
0.0285

> <Gold.Chemscore.DEInternal>
3.6670

> <Gold.Chemscore.Rot>
2.3676

> <Gold.Chemscore.Internal.Correction>
   9.000000E+99

> <Gold.Chemscore.Hbonds>
donor molecule, donor type, donor heavy atom, donor atom, acceptor molecule, acceptor atom, score
      L1  H    20    45       P1 10957  0.85

> <Gold.Chemscore.Hbond.Weighted>
-3.1043

> <Gold.Chemscore.Metal.Weighted>
-0.0000

> <Gold.Chemscore.Lipo.Weighted>
-10.6520

> <Gold.Chemscore.Internal_Hbond.Weighted>
0.0000

> <Gold.Chemscore.DEClash.Weighted>
0.0285

> <Gold.Chemscore.DEInternal.Weighted>
3.6670

> <Gold.Chemscore.Rot.Weighted>
6.0610

> <Gold.Chemscore.Internal.Correction.Weighted>
   9.000000E+99

> <Gold.Protein.RotatedTorsions>
[ 6907 6896 6895 6894 ] final  -34.79 input  -60.11 | X-H torsion
[ 7974 7965 7964 7962 ] final -127.04 input  175.53 | X-H torsion
[ 8008 7997 7996 7995 ] final   52.72 input   59.86 | X-H torsion
[ 10167 10162 10161 10158 ] final -136.88 input  -65.29 | X-H torsion
[ 10718 10713 10712 10709 ] final   47.48 input   66.30 | X-H torsion
[ 10763 10752 10751 10750 ] final  -54.81 input  -60.55 | X-H torsion
[ 11005 11000 10999 10996 ] final   15.60 input  -57.11 | X-H torsion

> <Gold.Protein.ActiveResidues>
 VAL166  LYS551  ARG553  GLY616  TRP617  ASP618  TYR619  PRO620  LYS621  CYS622 
 ASP623  PHE694  ASN695  SER759  ASP760  ASP761  ALA762  ILE779  LEU786  VAL792 
 PHE793  MET794  SER795  GLU796  ALA797  LYS798  CYS799  TRP800  GLU811  SER814 

> <Gold.Protein.RotatedAtoms>
  151.0481  134.9654  159.8196 H   0  0  0  0  0  0  0  0  0  0  0  0  # atno 6907 bound_to 6896
  152.5376  134.2572  159.8931 H   0  0  0  0  0  0  0  0  0  0  0  0  # atno 6908 bound_to 6896
  151.2587  133.4270  159.2649 H   0  0  0  0  0  0  0  0  0  0  0  0  # atno 6909 bound_to 6896
  144.9811  140.7641  143.4611 H   0  0  0  0  0  0  0  0  0  0  0  0  # atno 7974 bound_to 7965
  155.4565  140.3460  155.4307 H   0  0  0  0  0  0  0  0  0  0  0  0  # atno 8008 bound_to 7997
  156.1187  140.1481  156.9264 H   0  0  0  0  0  0  0  0  0  0  0  0  # atno 8009 bound_to 7997
  154.4808  140.0870  156.7351 H   0  0  0  0  0  0  0  0  0  0  0  0  # atno 8010 bound_to 7997
  139.8634  143.7048  152.2648 H   0  0  0  0  0  0  0  0  0  0  0  0  # atno 10167 bound_to 10162
  157.4589  130.8184  149.7865 H   0  0  0  0  0  0  0  0  0  0  0  0  # atno 10718 bound_to 10713
  154.1808  135.6443  153.5034 H   0  0  0  0  0  0  0  0  0  0  0  0  # atno 10763 bound_to 10752
  153.0059  135.5405  154.6516 H   0  0  0  0  0  0  0  0  0  0  0  0  # atno 10764 bound_to 10752
  154.5879  135.2931  155.0638 H   0  0  0  0  0  0  0  0  0  0  0  0  # atno 10765 bound_to 10752
  140.4565  134.1171  155.7710 H   0  0  0  0  0  0  0  0  0  0  0  0  # atno 11005 bound_to 11000
  145.2419  139.2068  143.4988 LP  0  0  0  0  0  0  0  0  0  0  0  0  # atno 17320 bound_to 7965
  146.3408  140.2316  142.8593 LP  0  0  0  0  0  0  0  0  0  0  0  0  # atno 17321 bound_to 7965
  139.7352  144.7573  151.0738 LP  0  0  0  0  0  0  0  0  0  0  0  0  # atno 17342 bound_to 10162
  140.7772  143.5039  150.9737 LP  0  0  0  0  0  0  0  0  0  0  0  0  # atno 17343 bound_to 10162
  156.0019  130.3875  150.2572 LP  0  0  0  0  0  0  0  0  0  0  0  0  # atno 17370 bound_to 10713
  157.0748  131.0127  151.3177 LP  0  0  0  0  0  0  0  0  0  0  0  0  # atno 17371 bound_to 10713
  141.1640  133.8738  157.1766 LP  0  0  0  0  0  0  0  0  0  0  0  0  # atno 17394 bound_to 11000
  139.9973  135.0042  157.0110 LP  0  0  0  0  0  0  0  0  0  0  0  0  # atno 17395 bound_to 11000

$$$$
