AV-unprocessed.smi:107|AV-procd|sdf|1017|dock5
  -GOLD-   2262018 13D 1   1.00000     0.00000
 Structure written by MMmdl.
 31 32  0  0  0  0  0  0  0  0  1 V2000
  152.4106  142.7751  159.8898 C   0  0  0  0  0  0  0  0  0  0  0  0
  151.9431  142.1335  158.5940 C   0  0  0  0  0  0  0  0  0  0  0  0
  152.2614  140.8576  158.2579 C   0  0  0  0  0  0  0  0  0  0  0  0
  151.8528  140.2431  157.0828 N   0  0  0  0  0  0  0  0  0  0  0  0
  152.2747  138.8238  156.7767 C   0  0  2  0  0  0  0  0  0  0  0  0
  152.8067  138.6973  155.3445 C   0  0  0  0  0  0  0  0  0  0  0  0
  151.7139  137.8983  154.6568 C   0  0  1  0  0  0  0  0  0  0  0  0
  152.2500  137.0766  153.6399 O   0  0  0  0  0  0  0  0  0  0  0  0
  151.1148  137.0864  155.8085 C   0  0  2  0  0  0  0  0  0  0  0  0
  149.6668  136.6398  155.5556 C   0  0  0  0  0  0  0  0  0  0  0  0
  149.6283  135.6892  154.5129 O   0  0  0  0  0  0  0  0  0  0  0  0
  151.1547  138.0013  156.8985 O   0  0  0  0  0  0  0  0  0  0  0  0
  151.0699  140.9697  156.1601 C   0  0  0  0  0  0  0  0  0  0  0  0
  150.6672  140.4994  155.0968 O   0  0  0  0  0  0  0  0  0  0  0  0
  150.7425  142.2803  156.5048 N   0  0  0  0  0  0  0  0  0  0  0  0
  151.1250  142.9338  157.6788 C   0  0  0  0  0  0  0  0  0  0  0  0
  150.7695  144.0954  157.8711 O   0  0  0  0  0  0  0  0  0  0  0  0
  150.1803  142.8025  155.8487 H   0  0  0  0  0  0  0  0  0  0  0  0
  153.0015  142.0852  160.4927 H   0  0  0  0  0  0  0  0  0  0  0  0
  151.5562  143.0934  160.4881 H   0  0  0  0  0  0  0  0  0  0  0  0
  153.0278  143.6496  159.6803 H   0  0  0  0  0  0  0  0  0  0  0  0
  152.8724  140.2894  158.9432 H   0  0  0  0  0  0  0  0  0  0  0  0
  153.0099  138.5155  157.5205 H   0  0  0  0  0  0  0  0  0  0  0  0
  152.9935  139.6680  154.8835 H   0  0  0  0  0  0  0  0  0  0  0  0
  153.7447  138.1409  155.3796 H   0  0  0  0  0  0  0  0  0  0  0  0
  150.9691  138.5715  154.2309 H   0  0  0  0  0  0  0  0  0  0  0  0
  151.5670  136.8838  153.0159 H   0  0  0  0  0  0  0  0  0  0  0  0
  151.7611  136.2355  156.0339 H   0  0  0  0  0  0  0  0  0  0  0  0
  149.2133  136.2329  156.4600 H   0  0  0  0  0  0  0  0  0  0  0  0
  149.0604  137.4906  155.2433 H   0  0  0  0  0  0  0  0  0  0  0  0
  149.4997  136.1452  153.6951 H   0  0  0  0  0  0  0  0  0  0  0  0
  1  2  1  0  0  0  0
  1 19  1  0  0  0  0
  1 20  1  0  0  0  0
  1 21  1  0  0  0  0
  2 16  1  0  0  0  0
  2  3  2  0  0  0  0
  3  4  1  0  0  0  0
  3 22  1  0  0  0  0
  4  5  1  0  0  0  0
  4 13  1  0  0  0  0
  5 12  1  0  0  0  0
  5  6  1  0  0  0  0
  5 23  1  0  0  0  0
  6  7  1  0  0  0  0
  6 24  1  0  0  0  0
  6 25  1  0  0  0  0
  7  8  1  0  0  0  0
  7  9  1  0  0  0  0
  7 26  1  0  0  0  0
  8 27  1  0  0  0  0
  9 10  1  0  0  0  0
  9 12  1  0  0  0  0
  9 28  1  0  0  0  0
 10 11  1  0  0  0  0
 10 29  1  0  0  0  0
 10 30  1  0  0  0  0
 11 31  1  0  0  0  0
 13 14  2  0  0  0  0
 13 15  1  0  0  0  0
 15 18  1  0  0  0  0
 15 16  1  0  0  0  0
 16 17  2  0  0  0  0
M  END
> <s_m_source_file>
AV-unprocessed.smi

> <i_m_source_file_index>
107

> <i_lp_mmshare_version>
43012

> <i_f3d_flags>
0

> <s_epik_input>
Tz1jMVtuSF1jKD1PKW4oW2NIXWMxW0NIM10pW0NAQEhdMltDSDJdW0NAQEhdKFtPSF0pW0NASF0oTzIpW0NIMl1bT0hd

> <s_epik_cmdline>
J2VwaWtfcHl0aG9uJywgJy1waCcsICc3LjAnLCAnLXRuJywgJzgnLCAnLW1hJywgJzIwMCcsICctbWV0YWxfYmluZGluZycsICctaW1hZScsICc8aW5maWxlLm1hZT4nLCAnLW9tYWUnLCAnPG91dGZpbGUubWFlPic=

> <r_lp_tautomer_probability>
0.999537

> <r_epik_Ionization_Penalty>
0.00121888

> <r_epik_Ionization_Penalty_Charging>
0.00121876

> <r_epik_Ionization_Penalty_Neutral>
1.19946e-07

> <r_epik_State_Penalty>
0.000805124

> <r_epik_Charging_Adjusted_Penalty>
0.00202389

> <i_epik_Tot_Q>
0

> <i_epik_Tot_abs_Q>
0

> <r_epik_Metal_State_Penalty>
0.662472

> <b_epik_Metal_Only>
0

> <s_epik_Chemistry_Notes>
This compound contains an acetal/aminal-like group ( X-CH(R)-Y where X, Y are N, S, or O) that may be acid/base labile, releasing an aldehyde.

> <s_lp_Force_Field>
OPLS_2005

> <r_lp_Energy>
24.9707

> <b_lp_Chiralities_Consistent>
1

> <s_lp_Variant>
AV-unprocessed.smi:107-5

> <Gold.Version>
5.8.1

> <Gold.Id.Protein>
6NUR|6NUR_protein|mol2

> <Gold.PLP.Fitness>
41.5757

> <Gold.PLP.PLP>
-29.6462

> <Gold.PLP.part.hbond>
-4.6459

> <Gold.PLP.part.metal>
0.0000

> <Gold.PLP.part.buried>
-3.5677

> <Gold.PLP.part.nonpolar>
-22.3028

> <Gold.PLP.part.repulsive>
1.3893

> <Gold.PLP.ligand.clash>
0.0000

> <Gold.PLP.ligand.torsion>
0.2953

> <Gold.PLP.Chemscore.Hbond>
4.1691

> <Gold.PLP.Chemscore.CHOScore>
0.0000

> <Gold.PLP.Chemscore.Metal>
0.0000

> <Gold.Chemscore.Hbonds>
donor molecule, donor type, donor heavy atom, donor atom, acceptor molecule, acceptor atom, score
      L1  H     8    27       P1  7949  0.88
      L1  H    11    31       P1  7948  1.00
      L1  H    15    18       P1  8028  0.23
      P1  H  7989  7998       L1    14  1.00
      P1  H 10752 10765       L1     8  1.00

> <Gold.PLP.Chemscore.Internal.Correction>
0.0127

> <Gold.Rescore>
     Score         DG    S(hbond)    S(metal)    S(lipo)     H(rot)  DE(clash)    DE(int)     intcor
     13.83     -17.03       3.72        0.00      52.22       2.73       0.08       3.12       ----

> <Gold.Chemscore.Fitness>
13.8251

> <Gold.Chemscore.DG>
-17.0310

> <Gold.Chemscore.ZeroCoef>
-5.4800

> <Gold.Chemscore.Hbond>
3.7181

> <Gold.Chemscore.Metal>
0.0000

> <Gold.Chemscore.Lipo>
52.2183

> <Gold.Chemscore.Internal_Hbond>
0.0000

> <Gold.Chemscore.DEClash>
0.0837

> <Gold.Chemscore.DEInternal>
3.1222

> <Gold.Chemscore.Rot>
2.7253

> <Gold.Chemscore.Internal.Correction>
   9.000000E+99

> <Gold.Chemscore.Hbonds>
donor molecule, donor type, donor heavy atom, donor atom, acceptor molecule, acceptor atom, score
      L1  H     8    27       P1  7949  0.83
      L1  H    11    31       P1  7948  0.58
      L1  H    15    18       P1  8028  0.24
      P1  H  7989  7998       L1    14  0.92
      P1  H 10752 10765       L1     8  0.66

> <Gold.Chemscore.Hbond.Weighted>
-12.4183

> <Gold.Chemscore.Metal.Weighted>
-0.0000

> <Gold.Chemscore.Lipo.Weighted>
-6.1095

> <Gold.Chemscore.Internal_Hbond.Weighted>
0.0000

> <Gold.Chemscore.DEClash.Weighted>
0.0837

> <Gold.Chemscore.DEInternal.Weighted>
3.1222

> <Gold.Chemscore.Rot.Weighted>
6.9769

> <Gold.Chemscore.Internal.Correction.Weighted>
   9.000000E+99

> <Gold.Protein.RotatedTorsions>
[ 6907 6896 6895 6894 ] final  165.50 input  -60.11 | X-H torsion
[ 7974 7965 7964 7962 ] final -113.43 input  175.53 | X-H torsion
[ 8008 7997 7996 7995 ] final  -68.01 input   59.86 | X-H torsion
[ 10167 10162 10161 10158 ] final -112.83 input  -65.29 | X-H torsion
[ 10718 10713 10712 10709 ] final  100.11 input   66.30 | X-H torsion
[ 10763 10752 10751 10750 ] final  140.10 input  -60.55 | X-H torsion
[ 11005 11000 10999 10996 ] final   28.24 input  -57.11 | X-H torsion

> <Gold.Protein.ActiveResidues>
 VAL166  LYS551  ARG553  GLY616  TRP617  ASP618  TYR619  PRO620  LYS621  CYS622 
 ASP623  PHE694  ASN695  SER759  ASP760  ASP761  ALA762  ILE779  LEU786  VAL792 
 PHE793  MET794  SER795  GLU796  ALA797  LYS798  CYS799  TRP800  GLU811  SER814 

> <Gold.Protein.RotatedAtoms>
  151.8934  133.3521  159.3805 H   0  0  0  0  0  0  0  0  0  0  0  0  # atno 6907 bound_to 6896
  150.7097  134.4900  159.5520 H   0  0  0  0  0  0  0  0  0  0  0  0  # atno 6908 bound_to 6896
  152.2475  134.8167  160.0502 H   0  0  0  0  0  0  0  0  0  0  0  0  # atno 6909 bound_to 6896
  145.1321  140.8730  143.3752 H   0  0  0  0  0  0  0  0  0  0  0  0  # atno 7974 bound_to 7965
  154.4838  140.0881  156.7440 H   0  0  0  0  0  0  0  0  0  0  0  0  # atno 8008 bound_to 7997
  155.4402  140.3453  155.4271 H   0  0  0  0  0  0  0  0  0  0  0  0  # atno 8009 bound_to 7997
  156.1231  140.1480  156.9163 H   0  0  0  0  0  0  0  0  0  0  0  0  # atno 8010 bound_to 7997
  140.1184  143.4465  152.1707 H   0  0  0  0  0  0  0  0  0  0  0  0  # atno 10167 bound_to 10162
  157.6861  131.0689  150.5051 H   0  0  0  0  0  0  0  0  0  0  0  0  # atno 10718 bound_to 10713
  153.9170  135.3005  155.3448 H   0  0  0  0  0  0  0  0  0  0  0  0  # atno 10763 bound_to 10752
  154.7594  135.4941  153.9439 H   0  0  0  0  0  0  0  0  0  0  0  0  # atno 10764 bound_to 10752
  153.1162  135.6771  153.9517 H   0  0  0  0  0  0  0  0  0  0  0  0  # atno 10765 bound_to 10752
  140.3177  134.2578  155.7722 H   0  0  0  0  0  0  0  0  0  0  0  0  # atno 11005 bound_to 11000
  145.0624  139.3095  143.5873 LP  0  0  0  0  0  0  0  0  0  0  0  0  # atno 17320 bound_to 7965
  146.3513  140.0070  142.8670 LP  0  0  0  0  0  0  0  0  0  0  0  0  # atno 17321 bound_to 7965
  139.5581  144.7387  151.4233 LP  0  0  0  0  0  0  0  0  0  0  0  0  # atno 17342 bound_to 10162
  140.6886  143.7915  150.7222 LP  0  0  0  0  0  0  0  0  0  0  0  0  # atno 17343 bound_to 10162
  156.5371  130.4199  149.6172 LP  0  0  0  0  0  0  0  0  0  0  0  0  # atno 17370 bound_to 10713
  156.3018  130.7181  151.2054 LP  0  0  0  0  0  0  0  0  0  0  0  0  # atno 17371 bound_to 10713
  141.2094  133.7751  157.0001 LP  0  0  0  0  0  0  0  0  0  0  0  0  # atno 17394 bound_to 11000
  140.0969  134.9559  157.1863 LP  0  0  0  0  0  0  0  0  0  0  0  0  # atno 17395 bound_to 11000

$$$$
