AV-unprocessed.smi:39|AV-procd|sdf|352|dock9
  -GOLD-   2262016193D 1   1.00000     0.00000
 Structure written by MMmdl.
 32 33  0  0  0  0  0  0  0  0  3 V2000
  152.5527  142.8911  159.9022 C   0  0  0  0  0  0  0  0  0  0  0  0
  152.0311  142.3739  158.5716 C   0  0  0  0  0  0  0  0  0  0  0  0
  152.2599  141.1055  158.1436 C   0  0  0  0  0  0  0  0  0  0  0  0
  151.7947  140.6043  156.9328 N   0  0  0  0  0  0  0  0  0  0  0  0
  152.0710  139.1871  156.4682 C   0  0  2  0  0  0  0  0  0  0  0  0
  150.8378  138.2926  156.6814 C   0  0  0  0  0  0  0  0  0  0  0  0
  151.4136  137.1024  157.4291 C   0  0  2  0  0  0  0  0  0  0  0  0
  150.4126  136.4683  158.2924 N   0  0  0  0  0  0  0  0  0  0  0  0
  149.4390  137.1599  158.6189 N   0  3  0  0  0  0  0  0  0  0  0  0
  148.5271  137.8175  158.7958 N   0  5  0  0  0  0  0  0  0  0  0  0
  152.5594  137.7546  158.2072 C   0  0  1  0  0  0  0  0  0  0  0  0
  153.6466  136.7753  158.6763 C   0  0  0  0  0  0  0  0  0  0  0  0
  153.1178  135.9070  159.6552 O   0  0  0  0  0  0  0  0  0  0  0  0
  153.1044  138.6276  157.2237 O   0  0  0  0  0  0  0  0  0  0  0  0
  151.0549  141.4482  156.0790 C   0  0  0  0  0  0  0  0  0  0  0  0
  150.6226  141.0767  154.9884 O   0  0  0  0  0  0  0  0  0  0  0  0
  150.8195  142.7496  156.5180 N   0  0  0  0  0  0  0  0  0  0  0  0
  151.2589  143.2903  157.7281 C   0  0  0  0  0  0  0  0  0  0  0  0
  150.9863  144.4569  158.0067 O   0  0  0  0  0  0  0  0  0  0  0  0
  152.3901  139.2722  155.4276 H   0  0  0  0  0  0  0  0  0  0  0  0
  151.8201  136.4007  156.6966 H   0  0  0  0  0  0  0  0  0  0  0  0
  152.1569  138.3285  159.0446 H   0  0  0  0  0  0  0  0  0  0  0  0
  150.2872  143.3538  155.9092 H   0  0  0  0  0  0  0  0  0  0  0  0
  153.0964  142.1221  160.4518 H   0  0  0  0  0  0  0  0  0  0  0  0
  151.7275  143.2289  160.5303 H   0  0  0  0  0  0  0  0  0  0  0  0
  153.2298  143.7313  159.7447 H   0  0  0  0  0  0  0  0  0  0  0  0
  152.8384  140.4671  158.7939 H   0  0  0  0  0  0  0  0  0  0  0  0
  150.0972  138.8164  157.2888 H   0  0  0  0  0  0  0  0  0  0  0  0
  150.3829  138.0209  155.7284 H   0  0  0  0  0  0  0  0  0  0  0  0
  153.9875  136.1565  157.8468 H   0  0  0  0  0  0  0  0  0  0  0  0
  154.5174  137.3040  159.0652 H   0  0  0  0  0  0  0  0  0  0  0  0
  153.7933  135.7215  160.2893 H   0  0  0  0  0  0  0  0  0  0  0  0
  1  2  1  0  0  0  0
  1 24  1  0  0  0  0
  1 25  1  0  0  0  0
  1 26  1  0  0  0  0
  2 18  1  0  0  0  0
  2  3  2  0  0  0  0
  3  4  1  0  0  0  0
  3 27  1  0  0  0  0
  4  5  1  0  0  0  0
  4 15  1  0  0  0  0
  5 20  1  0  0  0  0
  5 14  1  0  0  0  0
  5  6  1  0  0  0  0
  6  7  1  0  0  0  0
  6 28  1  0  0  0  0
  6 29  1  0  0  0  0
  7 21  1  0  0  0  0
  7  8  1  0  0  0  0
  7 11  1  0  0  0  0
  8  9  2  0  0  0  0
  9 10  2  0  0  0  0
 11 22  1  0  0  0  0
 11 12  1  0  0  0  0
 11 14  1  0  0  0  0
 12 13  1  0  0  0  0
 12 30  1  0  0  0  0
 12 31  1  0  0  0  0
 13 32  1  0  0  0  0
 15 16  2  0  0  0  0
 15 17  1  0  0  0  0
 17 23  1  0  0  0  0
 17 18  1  0  0  0  0
 18 19  2  0  0  0  0
M  CHG  1   9   1
M  CHG  1  10  -1
M  END
> <s_m_source_file>
AV-unprocessed.smi

> <i_m_source_file_index>
39

> <i_lp_mmshare_version>
43012

> <i_f3d_flags>
0

> <s_epik_input>
Tz1jMVtuSF1jKD1PKW4oW2NIXWMxW0NIM10pW0NASF0yW0NIMl1bQ0BIXShOPVtOK109W04tXSlbQ0BIXShPMilbQ0gyXVtPSF0=

> <s_epik_cmdline>
J2VwaWtfcHl0aG9uJywgJy1waCcsICc3LjAnLCAnLXRuJywgJzgnLCAnLW1hJywgJzIwMCcsICctbWV0YWxfYmluZGluZycsICctaW1hZScsICc8aW5maWxlLm1hZT4nLCAnLW9tYWUnLCAnPG91dGZpbGUubWFlPic=

> <r_lp_tautomer_probability>
0.999537

> <r_epik_Ionization_Penalty>
0.00127512

> <r_epik_Ionization_Penalty_Charging>
0.00127507

> <r_epik_Ionization_Penalty_Neutral>
5.43433e-08

> <r_epik_State_Penalty>
0.000844892

> <r_epik_Charging_Adjusted_Penalty>
0.00211996

> <i_epik_Tot_Q>
0

> <i_epik_Tot_abs_Q>
2

> <r_epik_Metal_State_Penalty>
0.680636

> <b_epik_Metal_Only>
0

> <s_epik_Chemistry_Notes>
This compound contains an acetal/aminal-like group ( X-CH(R)-Y where X, Y are N, S, or O) that may be acid/base labile, releasing an aldehyde.

> <s_lp_Force_Field>
OPLS_2005

> <r_lp_Energy>
24.5803

> <b_lp_Chiralities_Consistent>
1

> <s_lp_Variant>
AV-unprocessed.smi:39-2

> <Gold.Version>
5.8.1

> <Gold.Id.Protein>
6NUR|6NUR_protein|mol2

> <Gold.PLP.Fitness>
39.3904

> <Gold.PLP.PLP>
-27.2236

> <Gold.PLP.part.hbond>
-6.6358

> <Gold.PLP.part.metal>
0.0000

> <Gold.PLP.part.buried>
-5.4015

> <Gold.PLP.part.nonpolar>
-15.4328

> <Gold.PLP.part.repulsive>
0.3269

> <Gold.PLP.ligand.clash>
0.0000

> <Gold.PLP.ligand.torsion>
0.8123

> <Gold.PLP.Chemscore.Hbond>
4.5840

> <Gold.PLP.Chemscore.CHOScore>
0.0000

> <Gold.PLP.Chemscore.Metal>
0.0000

> <Gold.Chemscore.Hbonds>
donor molecule, donor type, donor heavy atom, donor atom, acceptor molecule, acceptor atom, score
      L1  H    17    23       P1  8028  1.00
      P1  H  6896  6907       L1    13  0.35
      P1  H  6896  6909       L1     8  0.55
      P1  H  7989  7998       L1    16  0.67
      P1  H  7997  8008       L1    14  1.00

> <Gold.PLP.Chemscore.Internal.Correction>
0.0394

> <Gold.Rescore>
     Score         DG    S(hbond)    S(metal)    S(lipo)     H(rot)  DE(clash)    DE(int)     intcor
     15.46     -16.70       3.97        0.00      42.84       2.75       0.11       1.13       ----

> <Gold.Chemscore.Fitness>
15.4572

> <Gold.Chemscore.DG>
-16.7017

> <Gold.Chemscore.ZeroCoef>
-5.4800

> <Gold.Chemscore.Hbond>
3.9688

> <Gold.Chemscore.Metal>
0.0000

> <Gold.Chemscore.Lipo>
42.8372

> <Gold.Chemscore.Internal_Hbond>
0.0000

> <Gold.Chemscore.DEClash>
0.1123

> <Gold.Chemscore.DEInternal>
1.1322

> <Gold.Chemscore.Rot>
2.7524

> <Gold.Chemscore.Internal.Correction>
   9.000000E+99

> <Gold.Chemscore.Hbonds>
donor molecule, donor type, donor heavy atom, donor atom, acceptor molecule, acceptor atom, score
      L1  H    17    23       P1  8028  0.93
      P1  H  6896  6907       L1    13  0.02
      P1  H  6896  6909       L1     8  0.48
      P1  H  7989  7998       L1    16  0.68
      P1  H  7997  8008       L1    14  0.24

> <Gold.Chemscore.Hbond.Weighted>
-13.2558

> <Gold.Chemscore.Metal.Weighted>
-0.0000

> <Gold.Chemscore.Lipo.Weighted>
-5.0120

> <Gold.Chemscore.Internal_Hbond.Weighted>
0.0000

> <Gold.Chemscore.DEClash.Weighted>
0.1123

> <Gold.Chemscore.DEInternal.Weighted>
1.1322

> <Gold.Chemscore.Rot.Weighted>
7.0461

> <Gold.Chemscore.Internal.Correction.Weighted>
   9.000000E+99

> <Gold.Protein.RotatedTorsions>
[ 6907 6896 6895 6894 ] final   66.55 input  -60.11 | X-H torsion
[ 7974 7965 7964 7962 ] final  156.83 input  175.53 | X-H torsion
[ 8008 7997 7996 7995 ] final  -80.89 input   59.86 | X-H torsion
[ 10167 10162 10161 10158 ] final  177.87 input  -65.29 | X-H torsion
[ 10718 10713 10712 10709 ] final  145.12 input   66.30 | X-H torsion
[ 10763 10752 10751 10750 ] final   98.15 input  -60.55 | X-H torsion
[ 11005 11000 10999 10996 ] final  121.85 input  -57.11 | X-H torsion

> <Gold.Protein.ActiveResidues>
 VAL166  LYS551  ARG553  GLY616  TRP617  ASP618  TYR619  PRO620  LYS621  CYS622 
 ASP623  PHE694  ASN695  SER759  ASP760  ASP761  ALA762  ILE779  LEU786  VAL792 
 PHE793  MET794  SER795  GLU796  ALA797  LYS798  CYS799  TRP800  GLU811  SER814 

> <Gold.Protein.RotatedAtoms>
  152.4489  134.5436  159.9846 H   0  0  0  0  0  0  0  0  0  0  0  0  # atno 6907 bound_to 6896
  151.5514  133.3411  159.2961 H   0  0  0  0  0  0  0  0  0  0  0  0  # atno 6908 bound_to 6896
  150.8412  134.7737  159.6997 H   0  0  0  0  0  0  0  0  0  0  0  0  # atno 6909 bound_to 6896
  144.7940  139.7257  143.6210 H   0  0  0  0  0  0  0  0  0  0  0  0  # atno 7974 bound_to 7965
  154.5929  140.0656  156.9263 H   0  0  0  0  0  0  0  0  0  0  0  0  # atno 8008 bound_to 7997
  155.2265  140.3334  155.4290 H   0  0  0  0  0  0  0  0  0  0  0  0  # atno 8009 bound_to 7997
  156.2267  140.1822  156.7328 H   0  0  0  0  0  0  0  0  0  0  0  0  # atno 8010 bound_to 7997
  139.5271  144.2747  152.0598 H   0  0  0  0  0  0  0  0  0  0  0  0  # atno 10167 bound_to 10162
  157.3490  131.0948  151.1016 H   0  0  0  0  0  0  0  0  0  0  0  0  # atno 10718 bound_to 10713
  153.2855  135.4158  155.1119 H   0  0  0  0  0  0  0  0  0  0  0  0  # atno 10763 bound_to 10752
  154.8503  135.3505  154.6053 H   0  0  0  0  0  0  0  0  0  0  0  0  # atno 10764 bound_to 10752
  153.6474  135.7054  153.5278 H   0  0  0  0  0  0  0  0  0  0  0  0  # atno 10765 bound_to 10752
  139.9243  134.9640  156.8020 H   0  0  0  0  0  0  0  0  0  0  0  0  # atno 11005 bound_to 11000
  146.2201  139.5621  142.9624 LP  0  0  0  0  0  0  0  0  0  0  0  0  # atno 17320 bound_to 7965
  145.5722  141.0393  143.2168 LP  0  0  0  0  0  0  0  0  0  0  0  0  # atno 17321 bound_to 7965
  140.2205  144.4471  150.6344 LP  0  0  0  0  0  0  0  0  0  0  0  0  # atno 17342 bound_to 10162
  140.6422  143.2206  151.6265 LP  0  0  0  0  0  0  0  0  0  0  0  0  # atno 17343 bound_to 10162
  157.2199  130.6476  149.5807 LP  0  0  0  0  0  0  0  0  0  0  0  0  # atno 17370 bound_to 10713
  155.9718  130.4632  150.6175 LP  0  0  0  0  0  0  0  0  0  0  0  0  # atno 17371 bound_to 10713
  140.6382  133.9843  155.7694 LP  0  0  0  0  0  0  0  0  0  0  0  0  # atno 17394 bound_to 11000
  141.0789  134.0093  157.3416 LP  0  0  0  0  0  0  0  0  0  0  0  0  # atno 17395 bound_to 11000

$$$$
