AV-unprocessed.smi:265|AV-procd|sdf|2018|dock4
  -GOLD-   2262021223D 1   1.00000     0.00000
 Structure written by MMmdl.
 52 56  0  0  0  0  0  0  0  0  1 V2000
  149.6816  132.1617  154.0472 C   0  0  0  0  0  0  0  0  0  0  0  0
  148.5635  133.1887  154.2850 C   0  0  1  0  0  0  0  0  0  0  0  0
  147.6044  132.5853  155.1504 O   0  0  0  0  0  0  0  0  0  0  0  0
  147.0178  133.5866  155.9630 C   0  0  0  0  0  0  0  0  0  0  0  0
  148.2034  134.4814  156.2884 C   0  0  0  0  0  0  0  0  0  0  0  0
  148.9734  134.5223  154.9715 C   0  0  2  0  0  0  0  0  0  0  0  0
  148.4475  135.5845  154.1923 O   0  0  0  0  0  0  0  0  0  0  0  0
  150.4949  134.7679  155.1479 C   0  0  0  0  0  0  0  0  0  0  0  0
  150.8045  136.0050  155.8489 N   0  0  0  0  0  0  0  0  0  0  0  0
  151.2390  136.1251  157.1495 C   0  0  0  0  0  0  0  0  0  0  0  0
  151.4510  137.3470  157.5550 N   0  0  0  0  0  0  0  0  0  0  0  0
  151.1293  138.1311  156.4535 C   0  0  0  0  0  0  0  0  0  0  0  0
  151.1340  139.5319  156.1994 C   0  0  0  0  0  0  0  0  0  0  0  0
  151.4812  140.4454  157.1407 N   0  0  0  0  0  0  0  0  0  0  0  0
  150.4672  141.4230  157.5512 C   0  0  0  0  0  0  0  0  0  0  0  0
  151.0985  142.5860  158.3404 C   0  0  0  0  0  0  0  0  0  0  0  0
  151.9235  142.0360  159.5113 C   0  0  2  0  0  0  0  0  0  0  0  0
  152.6099  143.0632  160.2107 O   0  0  0  0  0  0  0  0  0  0  0  0
  153.2605  142.6027  161.4004 C   0  0  0  0  0  0  0  0  0  0  0  0
  154.0747  141.3105  161.1759 C   0  0  0  0  0  0  0  0  0  0  0  0
  154.8764  140.9362  162.0285 O   0  0  0  0  0  0  0  0  0  0  0  0
  153.8464  140.6033  160.0572 N   0  0  0  0  0  0  0  0  0  0  0  0
  152.9970  141.0774  158.9731 C   0  0  1  0  0  0  0  0  0  0  0  0
  152.3318  139.9214  158.2117 C   0  0  0  0  0  0  0  0  0  0  0  0
  150.7661  139.9437  154.9565 N   0  0  0  0  0  0  0  0  0  0  0  0
  150.4035  139.0516  154.0300 C   0  0  0  0  0  0  0  0  0  0  0  0
  150.3412  137.7226  154.1308 N   0  0  0  0  0  0  0  0  0  0  0  0
  150.7228  137.3014  155.3705 C   0  0  0  0  0  0  0  0  0  0  0  0
  151.2524  141.5163  160.1992 H   0  0  0  0  0  0  0  0  0  0  0  0
  153.6451  141.6195  158.2817 H   0  0  0  0  0  0  0  0  0  0  0  0
  150.4470  132.5526  153.3767 H   0  0  0  0  0  0  0  0  0  0  0  0
  149.2804  131.2575  153.5891 H   0  0  0  0  0  0  0  0  0  0  0  0
  150.1617  131.8690  154.9813 H   0  0  0  0  0  0  0  0  0  0  0  0
  148.0712  133.3867  153.3310 H   0  0  0  0  0  0  0  0  0  0  0  0
  146.2582  134.1269  155.3961 H   0  0  0  0  0  0  0  0  0  0  0  0
  146.5520  133.1620  156.8525 H   0  0  0  0  0  0  0  0  0  0  0  0
  147.9133  135.4637  156.6638 H   0  0  0  0  0  0  0  0  0  0  0  0
  148.8031  133.9947  157.0581 H   0  0  0  0  0  0  0  0  0  0  0  0
  148.8249  135.5352  153.3273 H   0  0  0  0  0  0  0  0  0  0  0  0
  150.9546  133.9492  155.7019 H   0  0  0  0  0  0  0  0  0  0  0  0
  150.9885  134.7995  154.1757 H   0  0  0  0  0  0  0  0  0  0  0  0
  151.4010  135.2703  157.7900 H   0  0  0  0  0  0  0  0  0  0  0  0
  149.9525  141.8181  156.6742 H   0  0  0  0  0  0  0  0  0  0  0  0
  149.7176  140.9239  158.1671 H   0  0  0  0  0  0  0  0  0  0  0  0
  151.7370  143.1747  157.6804 H   0  0  0  0  0  0  0  0  0  0  0  0
  150.3220  143.2577  158.7066 H   0  0  0  0  0  0  0  0  0  0  0  0
  153.9139  143.3903  161.7765 H   0  0  0  0  0  0  0  0  0  0  0  0
  152.5103  142.4123  162.1687 H   0  0  0  0  0  0  0  0  0  0  0  0
  154.3491  139.7387  159.9176 H   0  0  0  0  0  0  0  0  0  0  0  0
  151.7172  139.3275  158.8898 H   0  0  0  0  0  0  0  0  0  0  0  0
  153.1006  139.2556  157.8212 H   0  0  0  0  0  0  0  0  0  0  0  0
  150.1212  139.4618  153.0717 H   0  0  0  0  0  0  0  0  0  0  0  0
  1  2  1  0  0  0  0
  1 31  1  0  0  0  0
  1 32  1  0  0  0  0
  1 33  1  0  0  0  0
  2  6  1  0  0  0  0
  2  3  1  0  0  0  0
  2 34  1  0  0  0  0
  3  4  1  0  0  0  0
  4  5  1  0  0  0  0
  4 35  1  0  0  0  0
  4 36  1  0  0  0  0
  5  6  1  0  0  0  0
  5 37  1  0  0  0  0
  5 38  1  0  0  0  0
  6  7  1  0  0  0  0
  6  8  1  0  0  0  0
  7 39  1  0  0  0  0
  8  9  1  0  0  0  0
  8 40  1  0  0  0  0
  8 41  1  0  0  0  0
  9 28  1  0  0  0  0
  9 10  1  0  0  0  0
 10 11  2  0  0  0  0
 10 42  1  0  0  0  0
 11 12  1  0  0  0  0
 12 28  2  0  0  0  0
 12 13  1  0  0  0  0
 13 14  1  0  0  0  0
 13 25  2  0  0  0  0
 14 24  1  0  0  0  0
 14 15  1  0  0  0  0
 15 16  1  0  0  0  0
 15 43  1  0  0  0  0
 15 44  1  0  0  0  0
 16 17  1  0  0  0  0
 16 45  1  0  0  0  0
 16 46  1  0  0  0  0
 17 29  1  0  0  0  0
 17 23  1  0  0  0  0
 17 18  1  0  0  0  0
 18 19  1  0  0  0  0
 19 20  1  0  0  0  0
 19 47  1  0  0  0  0
 19 48  1  0  0  0  0
 20 21  2  0  0  0  0
 20 22  1  0  0  0  0
 22 23  1  0  0  0  0
 22 49  1  0  0  0  0
 23 30  1  0  0  0  0
 23 24  1  0  0  0  0
 24 50  1  0  0  0  0
 24 51  1  0  0  0  0
 25 26  1  0  0  0  0
 26 27  2  0  0  0  0
 26 52  1  0  0  0  0
 27 28  1  0  0  0  0
M  END
> <s_m_source_file>
AV-unprocessed.smi

> <i_m_source_file_index>
265

> <i_lp_mmshare_version>
43012

> <i_f3d_flags>
0

> <s_epik_input>
W0NIMl0xW0NIMl1PW0NAQEhdKFtDSDNdKVtDQEBdMShbT0hdKVtDSDJdbihbY0hdbjIpYyhjMjMpbltjSF1uYzNOKFtDSDJdW0NIMl00KVtDSDJdW0NAQEhdKFtDQEhdNDUpW05IXUMoPU8pW0NIMl1PNQ==

> <s_epik_cmdline>
J2VwaWtfcHl0aG9uJywgJy1waCcsICc3LjAnLCAnLXRuJywgJzgnLCAnLW1hJywgJzIwMCcsICctbWV0YWxfYmluZGluZycsICctaW1hZScsICc8aW5maWxlLm1hZT4nLCAnLW9tYWUnLCAnPG91dGZpbGUubWFlPic=

> <r_lp_tautomer_probability>
1

> <r_epik_Ionization_Penalty>
0.00221504

> <r_epik_Ionization_Penalty_Charging>
0

> <r_epik_Ionization_Penalty_Neutral>
0.00221504

> <r_epik_State_Penalty>
-0

> <r_epik_Charging_Adjusted_Penalty>
0

> <i_epik_Tot_Q>
0

> <i_epik_Tot_abs_Q>
0

> <r_epik_Metal_State_Penalty>
-0

> <b_epik_Metal_Only>
0

> <s_lp_Force_Field>
OPLS_2005

> <r_lp_Energy>
44.0648

> <b_lp_Chiralities_Consistent>
1

> <s_lp_Variant>
AV-unprocessed.smi:265-4

> <Gold.Version>
5.8.1

> <Gold.Id.Protein>
6NUR|6NUR_protein|mol2

> <Gold.PLP.Fitness>
43.4703

> <Gold.PLP.PLP>
-37.1882

> <Gold.PLP.part.hbond>
-2.7766

> <Gold.PLP.part.metal>
0.0000

> <Gold.PLP.part.buried>
-7.3966

> <Gold.PLP.part.nonpolar>
-28.3019

> <Gold.PLP.part.repulsive>
1.1726

> <Gold.PLP.ligand.clash>
0.0000

> <Gold.PLP.ligand.torsion>
0.5102

> <Gold.PLP.Chemscore.Hbond>
1.2920

> <Gold.PLP.Chemscore.CHOScore>
1.0000

> <Gold.PLP.Chemscore.Metal>
0.0000

> <Gold.Chemscore.Hbonds>
donor molecule, donor type, donor heavy atom, donor atom, acceptor molecule, acceptor atom, score
      L1  H     7    39       P1  7948  0.96
      P1  H  7989  7998       L1    25  0.25
      L1  C    26    52       P1  7957  1.00

> <Gold.PLP.Chemscore.Internal.Correction>
0.4266

> <Gold.Rescore>
     Score         DG    S(hbond)    S(metal)    S(lipo)     H(rot)  DE(clash)    DE(int)     intcor
      8.85     -11.76       1.00        0.00      74.32       2.25       0.01       2.90       ----

> <Gold.Chemscore.Fitness>
8.8549

> <Gold.Chemscore.DG>
-11.7637

> <Gold.Chemscore.ZeroCoef>
-5.4800

> <Gold.Chemscore.Hbond>
0.9989

> <Gold.Chemscore.Metal>
0.0000

> <Gold.Chemscore.Lipo>
74.3182

> <Gold.Chemscore.Internal_Hbond>
0.0000

> <Gold.Chemscore.DEClash>
0.0121

> <Gold.Chemscore.DEInternal>
2.8966

> <Gold.Chemscore.Rot>
2.2453

> <Gold.Chemscore.Internal.Correction>
   9.000000E+99

> <Gold.Chemscore.Hbonds>
donor molecule, donor type, donor heavy atom, donor atom, acceptor molecule, acceptor atom, score
      L1  H     7    39       P1  7948  0.80

> <Gold.Chemscore.Hbond.Weighted>
-3.3364

> <Gold.Chemscore.Metal.Weighted>
-0.0000

> <Gold.Chemscore.Lipo.Weighted>
-8.6952

> <Gold.Chemscore.Internal_Hbond.Weighted>
0.0000

> <Gold.Chemscore.DEClash.Weighted>
0.0121

> <Gold.Chemscore.DEInternal.Weighted>
2.8966

> <Gold.Chemscore.Rot.Weighted>
5.7479

> <Gold.Chemscore.Internal.Correction.Weighted>
   9.000000E+99

> <Gold.Protein.RotatedTorsions>
[ 6907 6896 6895 6894 ] final  145.33 input  -60.11 | X-H torsion
[ 7974 7965 7964 7962 ] final   18.93 input  175.53 | X-H torsion
[ 8008 7997 7996 7995 ] final   51.85 input   59.86 | X-H torsion
[ 10167 10162 10161 10158 ] final -156.41 input  -65.29 | X-H torsion
[ 10718 10713 10712 10709 ] final -171.54 input   66.30 | X-H torsion
[ 10763 10752 10751 10750 ] final   63.73 input  -60.55 | X-H torsion
[ 11005 11000 10999 10996 ] final   35.16 input  -57.11 | X-H torsion

> <Gold.Protein.ActiveResidues>
 VAL166  LYS551  ARG553  GLY616  TRP617  ASP618  TYR619  PRO620  LYS621  CYS622 
 ASP623  PHE694  ASN695  SER759  ASP760  ASP761  ALA762  ILE779  LEU786  VAL792 
 PHE793  MET794  SER795  GLU796  ALA797  LYS798  CYS799  TRP800  GLU811  SER814 

> <Gold.Protein.RotatedAtoms>
  152.1822  133.4715  159.4963 H   0  0  0  0  0  0  0  0  0  0  0  0  # atno 6907 bound_to 6896
  150.6936  134.1818  159.4261 H   0  0  0  0  0  0  0  0  0  0  0  0  # atno 6908 bound_to 6896
  151.9730  135.0067  160.0604 H   0  0  0  0  0  0  0  0  0  0  0  0  # atno 6909 bound_to 6896
  146.2167  139.8386  142.8645 H   0  0  0  0  0  0  0  0  0  0  0  0  # atno 7974 bound_to 7965
  155.4420  140.3455  155.4291 H   0  0  0  0  0  0  0  0  0  0  0  0  # atno 8008 bound_to 7997
  156.1273  140.1504  156.9148 H   0  0  0  0  0  0  0  0  0  0  0  0  # atno 8009 bound_to 7997
  154.4867  140.0853  156.7483 H   0  0  0  0  0  0  0  0  0  0  0  0  # atno 8010 bound_to 7997
  139.6852  143.9513  152.2357 H   0  0  0  0  0  0  0  0  0  0  0  0  # atno 10167 bound_to 10162
  156.7424  130.9347  151.3111 H   0  0  0  0  0  0  0  0  0  0  0  0  # atno 10718 bound_to 10713
  153.0029  135.5418  154.6398 H   0  0  0  0  0  0  0  0  0  0  0  0  # atno 10763 bound_to 10752
  154.5656  135.2837  155.0879 H   0  0  0  0  0  0  0  0  0  0  0  0  # atno 10764 bound_to 10752
  154.2065  135.6475  153.5155 H   0  0  0  0  0  0  0  0  0  0  0  0  # atno 10765 bound_to 10752
  140.2455  134.3364  155.7909 H   0  0  0  0  0  0  0  0  0  0  0  0  # atno 11005 bound_to 11000
  145.2922  141.0170  143.3656 LP  0  0  0  0  0  0  0  0  0  0  0  0  # atno 17320 bound_to 7965
  144.9068  139.4579  143.6606 LP  0  0  0  0  0  0  0  0  0  0  0  0  # atno 17321 bound_to 7965
  139.9314  144.6739  150.8359 LP  0  0  0  0  0  0  0  0  0  0  0  0  # atno 17342 bound_to 10162
  140.7665  143.3306  151.2419 LP  0  0  0  0  0  0  0  0  0  0  0  0  # atno 17343 bound_to 10162
  157.6812  130.9142  150.0273 LP  0  0  0  0  0  0  0  0  0  0  0  0  # atno 17370 bound_to 10713
  156.1455  130.3642  149.9516 LP  0  0  0  0  0  0  0  0  0  0  0  0  # atno 17371 bound_to 10713
  141.2206  133.7323  156.8954 LP  0  0  0  0  0  0  0  0  0  0  0  0  # atno 17394 bound_to 11000
  140.1610  134.9165  157.2715 LP  0  0  0  0  0  0  0  0  0  0  0  0  # atno 17395 bound_to 11000

$$$$
