AV-unprocessed.smi:1459|AV-procd|sdf|5925|dock4
  -GOLD-   22720 6 03D 1   1.00000     0.00000
 Structure written by MMmdl.
 34 35  0  0  0  0  0  0  0  0  1 V2000
  151.4765  141.2292  156.2224 C   0  0  0  0  0  0  0  0  0  0  0  0
  151.4876  139.8784  155.5937 C   0  0  0  0  0  0  0  0  0  0  0  0
  150.5009  138.9768  155.3087 C   0  0  0  0  0  0  0  0  0  0  0  0
  151.2127  137.9021  154.7130 C   0  0  0  0  0  0  0  0  0  0  0  0
  150.5346  136.7387  154.2687 N   0  0  0  0  0  0  0  0  0  0  0  0
  150.6101  135.4997  154.7834 C   0  0  0  0  0  0  0  0  0  0  0  0
  151.3081  135.1733  155.7438 O   0  0  0  0  0  0  0  0  0  0  0  0
  149.8244  134.6467  154.1093 N   0  0  0  0  0  0  0  0  0  0  0  0
  149.6888  133.2177  154.3829 C   0  0  1  0  0  0  0  0  0  0  0  0
  149.0287  133.0436  155.7594 C   0  0  0  0  0  0  0  0  0  0  0  0
  148.8819  132.5438  153.2536 C   0  0  2  0  0  0  0  0  0  0  0  0
  147.5316  133.2004  152.9589 C   0  0  0  0  0  0  0  0  0  0  0  0
  146.7563  132.0555  152.3503 C   0  0  0  0  0  0  0  0  0  0  0  0
  147.2265  130.8812  153.2011 C   0  0  0  0  0  0  0  0  0  0  0  0
  148.5584  131.1964  153.5966 O   0  0  0  0  0  0  0  0  0  0  0  0
  152.5159  138.1267  154.6411 N   0  0  0  0  0  0  0  0  0  0  0  0
  152.6986  139.3948  155.2051 O   0  0  0  0  0  0  0  0  0  0  0  0
  150.4657  141.5149  156.5138 H   0  0  0  0  0  0  0  0  0  0  0  0
  151.8549  141.9811  155.5296 H   0  0  0  0  0  0  0  0  0  0  0  0
  152.1027  141.2447  157.1146 H   0  0  0  0  0  0  0  0  0  0  0  0
  149.4419  139.0740  155.4967 H   0  0  0  0  0  0  0  0  0  0  0  0
  149.9287  136.8621  153.4714 H   0  0  0  0  0  0  0  0  0  0  0  0
  149.2905  135.0087  153.3331 H   0  0  0  0  0  0  0  0  0  0  0  0
  150.6763  132.7550  154.4307 H   0  0  0  0  0  0  0  0  0  0  0  0
  148.9602  131.9921  156.0380 H   0  0  0  0  0  0  0  0  0  0  0  0
  148.0203  133.4584  155.7725 H   0  0  0  0  0  0  0  0  0  0  0  0
  149.6059  133.5462  156.5363 H   0  0  0  0  0  0  0  0  0  0  0  0
  149.4705  132.5149  152.3349 H   0  0  0  0  0  0  0  0  0  0  0  0
  147.0506  133.5249  153.8830 H   0  0  0  0  0  0  0  0  0  0  0  0
  147.6118  134.0607  152.2940 H   0  0  0  0  0  0  0  0  0  0  0  0
  145.6762  132.2006  152.3814 H   0  0  0  0  0  0  0  0  0  0  0  0
  147.0549  131.9119  151.3110 H   0  0  0  0  0  0  0  0  0  0  0  0
  146.6129  130.7902  154.0983 H   0  0  0  0  0  0  0  0  0  0  0  0
  147.1833  129.9339  152.6631 H   0  0  0  0  0  0  0  0  0  0  0  0
  1  2  1  0  0  0  0
  1 18  1  0  0  0  0
  1 19  1  0  0  0  0
  1 20  1  0  0  0  0
  2 17  1  0  0  0  0
  2  3  2  0  0  0  0
  3  4  1  0  0  0  0
  3 21  1  0  0  0  0
  4  5  1  0  0  0  0
  4 16  2  0  0  0  0
  5  6  1  0  0  0  0
  5 22  1  0  0  0  0
  6  7  2  0  0  0  0
  6  8  1  0  0  0  0
  8  9  1  0  0  0  0
  8 23  1  0  0  0  0
  9 10  1  0  0  0  0
  9 11  1  0  0  0  0
  9 24  1  0  0  0  0
 10 25  1  0  0  0  0
 10 26  1  0  0  0  0
 10 27  1  0  0  0  0
 11 15  1  0  0  0  0
 11 12  1  0  0  0  0
 11 28  1  0  0  0  0
 12 13  1  0  0  0  0
 12 29  1  0  0  0  0
 12 30  1  0  0  0  0
 13 14  1  0  0  0  0
 13 31  1  0  0  0  0
 13 32  1  0  0  0  0
 14 15  1  0  0  0  0
 14 33  1  0  0  0  0
 14 34  1  0  0  0  0
 16 17  1  0  0  0  0
M  END
> <s_m_source_file>
AV-unprocessed.smi

> <i_m_source_file_index>
1459

> <i_lp_mmshare_version>
43012

> <i_f3d_flags>
0

> <s_epik_input>
W0NIM11jMVtjSF1jKG5vMSlbTkhdQyg9TylbTkhdW0NASF0oW0NIM10pW0NAQEhdMltDSDJdW0NIMl1bQ0gyXU8y

> <s_epik_cmdline>
J2VwaWtfcHl0aG9uJywgJy1waCcsICc3LjAnLCAnLXRuJywgJzgnLCAnLW1hJywgJzIwMCcsICctbWV0YWxfYmluZGluZycsICctaW1hZScsICc8aW5maWxlLm1hZT4nLCAnLW9tYWUnLCAnPG91dGZpbGUubWFlPic=

> <r_lp_tautomer_probability>
1

> <r_epik_Ionization_Penalty>
2.20869e-05

> <r_epik_Ionization_Penalty_Charging>
0

> <r_epik_Ionization_Penalty_Neutral>
2.20869e-05

> <r_epik_State_Penalty>
-0

> <r_epik_Charging_Adjusted_Penalty>
0

> <i_epik_Tot_Q>
0

> <i_epik_Tot_abs_Q>
0

> <r_epik_Metal_State_Penalty>
-0

> <b_epik_Metal_Only>
0

> <s_lp_Force_Field>
OPLS_2005

> <r_lp_Energy>
15.9423

> <b_lp_Chiralities_Consistent>
1

> <s_lp_Variant>
AV-unprocessed.smi:1459-2

> <Gold.Version>
5.8.1

> <Gold.Id.Protein>
6NUR|6NUR_protein|mol2

> <Gold.PLP.Fitness>
38.5959

> <Gold.PLP.PLP>
-28.9161

> <Gold.PLP.part.hbond>
-6.0182

> <Gold.PLP.part.metal>
0.0000

> <Gold.PLP.part.buried>
-3.3179

> <Gold.PLP.part.nonpolar>
-20.4265

> <Gold.PLP.part.repulsive>
0.3089

> <Gold.PLP.ligand.clash>
0.0000

> <Gold.PLP.ligand.torsion>
0.7785

> <Gold.PLP.Chemscore.Hbond>
3.7420

> <Gold.PLP.Chemscore.CHOScore>
0.0000

> <Gold.PLP.Chemscore.Metal>
0.0000

> <Gold.Chemscore.Hbonds>
donor molecule, donor type, donor heavy atom, donor atom, acceptor molecule, acceptor atom, score
      L1  H     5    22       P1  7948  1.00
      L1  H     8    23       P1  7948  0.70
      P1  H  7997  8008       L1    17  0.99
      P1  H 10752 10763       L1     7  0.98

> <Gold.PLP.Chemscore.Internal.Correction>
0.0107

> <Gold.Rescore>
     Score         DG    S(hbond)    S(metal)    S(lipo)     H(rot)  DE(clash)    DE(int)     intcor
     15.18     -16.84       2.57        0.00      51.70       1.28       0.95       0.71       ----

> <Gold.Chemscore.Fitness>
15.1750

> <Gold.Chemscore.DG>
-16.8370

> <Gold.Chemscore.ZeroCoef>
-5.4800

> <Gold.Chemscore.Hbond>
2.5683

> <Gold.Chemscore.Metal>
0.0000

> <Gold.Chemscore.Lipo>
51.7050

> <Gold.Chemscore.Internal_Hbond>
0.0000

> <Gold.Chemscore.DEClash>
0.9544

> <Gold.Chemscore.DEInternal>
0.7075

> <Gold.Chemscore.Rot>
1.2776

> <Gold.Chemscore.Internal.Correction>
   9.000000E+99

> <Gold.Chemscore.Hbonds>
donor molecule, donor type, donor heavy atom, donor atom, acceptor molecule, acceptor atom, score
      L1  H     5    22       P1  7948  0.29
      L1  H     8    23       P1  7948  0.07
      P1  H  7997  8008       L1    17  0.89
      P1  H 10752 10763       L1     7  0.27

> <Gold.Chemscore.Hbond.Weighted>
-8.5782

> <Gold.Chemscore.Metal.Weighted>
-0.0000

> <Gold.Chemscore.Lipo.Weighted>
-6.0495

> <Gold.Chemscore.Internal_Hbond.Weighted>
0.0000

> <Gold.Chemscore.DEClash.Weighted>
0.9544

> <Gold.Chemscore.DEInternal.Weighted>
0.7075

> <Gold.Chemscore.Rot.Weighted>
3.2707

> <Gold.Chemscore.Internal.Correction.Weighted>
   9.000000E+99

> <Gold.Protein.RotatedTorsions>
[ 6907 6896 6895 6894 ] final -110.81 input  -60.11 | X-H torsion
[ 7974 7965 7964 7962 ] final   89.70 input  175.53 | X-H torsion
[ 8008 7997 7996 7995 ] final  -24.85 input   59.86 | X-H torsion
[ 10167 10162 10161 10158 ] final  165.66 input  -65.29 | X-H torsion
[ 10718 10713 10712 10709 ] final   86.11 input   66.30 | X-H torsion
[ 10763 10752 10751 10750 ] final   88.14 input  -60.55 | X-H torsion
[ 11005 11000 10999 10996 ] final -154.69 input  -57.11 | X-H torsion

> <Gold.Protein.ActiveResidues>
 VAL166  LYS551  ARG553  GLY616  TRP617  ASP618  TYR619  PRO620  LYS621  CYS622 
 ASP623  PHE694  ASN695  SER759  ASP760  ASP761  ALA762  ILE779  LEU786  VAL792 
 PHE793  MET794  SER795  GLU796  ALA797  LYS798  CYS799  TRP800  GLU811  SER814 

> <Gold.Protein.RotatedAtoms>
  150.7649  133.9326  159.3431 H   0  0  0  0  0  0  0  0  0  0  0  0  # atno 6907 bound_to 6896
  151.7227  135.0889  160.0296 H   0  0  0  0  0  0  0  0  0  0  0  0  # atno 6908 bound_to 6896
  152.3640  133.6295  159.6072 H   0  0  0  0  0  0  0  0  0  0  0  0  # atno 6909 bound_to 6896
  145.5289  139.2282  143.2630 H   0  0  0  0  0  0  0  0  0  0  0  0  # atno 7974 bound_to 7965
  154.4507  140.1942  156.0529 H   0  0  0  0  0  0  0  0  0  0  0  0  # atno 8008 bound_to 7997
  156.0641  140.3293  155.7469 H   0  0  0  0  0  0  0  0  0  0  0  0  # atno 8009 bound_to 7997
  155.5366  140.0582  157.2869 H   0  0  0  0  0  0  0  0  0  0  0  0  # atno 8010 bound_to 7997
  139.4910  144.4108  151.9301 H   0  0  0  0  0  0  0  0  0  0  0  0  # atno 10167 bound_to 10162
  157.6924  131.0202  150.2924 H   0  0  0  0  0  0  0  0  0  0  0  0  # atno 10718 bound_to 10713
  153.1739  135.4518  154.9939 H   0  0  0  0  0  0  0  0  0  0  0  0  # atno 10763 bound_to 10752
  154.7984  135.3246  154.7612 H   0  0  0  0  0  0  0  0  0  0  0  0  # atno 10764 bound_to 10752
  153.8084  135.6957  153.4899 H   0  0  0  0  0  0  0  0  0  0  0  0  # atno 10765 bound_to 10752
  140.6946  134.4004  157.5216 H   0  0  0  0  0  0  0  0  0  0  0  0  # atno 11005 bound_to 11000
  146.2057  140.6104  142.9082 LP  0  0  0  0  0  0  0  0  0  0  0  0  # atno 17320 bound_to 7965
  144.7636  140.5480  143.6718 LP  0  0  0  0  0  0  0  0  0  0  0  0  # atno 17321 bound_to 7965
  140.3550  144.3043  150.5943 LP  0  0  0  0  0  0  0  0  0  0  0  0  # atno 17342 bound_to 10162
  140.5453  143.2216  151.8018 LP  0  0  0  0  0  0  0  0  0  0  0  0  # atno 17343 bound_to 10162
  156.3453  130.3822  149.7375 LP  0  0  0  0  0  0  0  0  0  0  0  0  # atno 17370 bound_to 10713
  156.4870  130.8067  151.3079 LP  0  0  0  0  0  0  0  0  0  0  0  0  # atno 17371 bound_to 10713
  139.8914  134.8781  156.2323 LP  0  0  0  0  0  0  0  0  0  0  0  0  # atno 17394 bound_to 11000
  141.0213  133.7039  156.1273 LP  0  0  0  0  0  0  0  0  0  0  0  0  # atno 17395 bound_to 11000

$$$$
