AV-unprocessed.smi:1307|AV-procd|sdf|5436|dock6
  -GOLD-   22720 5 03D 1   1.00000     0.00000
 Structure written by MMmdl.
 41 41  0  0  0  0  0  0  0  0  1 V2000
  152.0715  144.3660  158.4384 C   0  0  0  0  0  0  0  0  0  0  0  0
  151.1846  143.7479  159.5348 C   0  0  0  0  0  0  0  0  0  0  0  0
  150.9960  144.7676  160.6756 C   0  0  0  0  0  0  0  0  0  0  0  0
  151.7365  142.3860  160.0380 C   0  0  2  0  0  0  0  0  0  0  0  0
  153.2246  142.4365  160.4247 C   0  0  0  0  0  0  0  0  0  0  0  0
  151.5733  141.3520  159.0157 N   0  0  0  0  0  0  0  0  0  0  0  0
  151.9959  140.0811  159.1013 C   0  0  0  0  0  0  0  0  0  0  0  0
  152.5838  139.6257  160.0834 O   0  0  0  0  0  0  0  0  0  0  0  0
  151.6769  139.1915  157.8883 C   0  0  0  0  0  0  0  0  0  0  0  0
  150.2576  138.7615  157.8152 N   0  0  0  0  0  0  0  0  0  0  0  0
  149.4429  139.1695  156.7126 C   0  0  0  0  0  0  0  0  0  0  0  0
  150.0333  140.0946  155.6380 C   0  0  0  0  0  0  0  0  0  0  0  0
  149.1290  140.3828  154.7009 F   0  0  0  0  0  0  0  0  0  0  0  0
  150.4368  141.2592  156.1452 F   0  0  0  0  0  0  0  0  0  0  0  0
  151.0578  139.5073  155.0187 F   0  0  0  0  0  0  0  0  0  0  0  0
  148.1600  138.7690  156.6451 C   0  0  0  0  0  0  0  0  0  0  0  0
  147.6098  137.9271  157.6711 C   0  0  0  0  0  0  0  0  0  0  0  0
  148.3648  137.5375  158.7233 C   0  0  0  0  0  0  0  0  0  0  0  0
  147.8427  136.6709  159.8045 C   0  0  0  0  0  0  0  0  0  0  0  0
  148.5732  135.5713  160.0286 N   0  0  0  0  0  0  0  0  0  0  0  0
  146.8354  136.8616  160.4860 O   0  0  0  0  0  0  0  0  0  0  0  0
  149.7822  137.9680  158.8360 C   0  0  0  0  0  0  0  0  0  0  0  0
  150.5226  137.6580  159.7745 O   0  0  0  0  0  0  0  0  0  0  0  0
  153.0934  144.5103  158.7904 H   0  0  0  0  0  0  0  0  0  0  0  0
  151.6894  145.3384  158.1262 H   0  0  0  0  0  0  0  0  0  0  0  0
  152.1088  143.7425  157.5460 H   0  0  0  0  0  0  0  0  0  0  0  0
  150.2010  143.5732  159.0965 H   0  0  0  0  0  0  0  0  0  0  0  0
  151.9320  144.9450  161.2061 H   0  0  0  0  0  0  0  0  0  0  0  0
  150.2588  144.4310  161.4046 H   0  0  0  0  0  0  0  0  0  0  0  0
  150.6450  145.7263  160.2927 H   0  0  0  0  0  0  0  0  0  0  0  0
  151.1788  142.1077  160.9339 H   0  0  0  0  0  0  0  0  0  0  0  0
  153.4012  143.0977  161.2723 H   0  0  0  0  0  0  0  0  0  0  0  0
  153.8403  142.7829  159.5939 H   0  0  0  0  0  0  0  0  0  0  0  0
  153.5855  141.4490  160.7151 H   0  0  0  0  0  0  0  0  0  0  0  0
  151.0951  141.6280  158.1705 H   0  0  0  0  0  0  0  0  0  0  0  0
  152.0090  139.7048  156.9908 H   0  0  0  0  0  0  0  0  0  0  0  0
  152.3361  138.3218  157.9209 H   0  0  0  0  0  0  0  0  0  0  0  0
  147.5237  139.0742  155.8277 H   0  0  0  0  0  0  0  0  0  0  0  0
  146.5789  137.6254  157.5601 H   0  0  0  0  0  0  0  0  0  0  0  0
  148.3004  134.9207  160.7508 H   0  0  0  0  0  0  0  0  0  0  0  0
  149.4004  135.4007  159.4752 H   0  0  0  0  0  0  0  0  0  0  0  0
  1  2  1  0  0  0  0
  1 24  1  0  0  0  0
  1 25  1  0  0  0  0
  1 26  1  0  0  0  0
  2  3  1  0  0  0  0
  2  4  1  0  0  0  0
  2 27  1  0  0  0  0
  3 28  1  0  0  0  0
  3 29  1  0  0  0  0
  3 30  1  0  0  0  0
  4  5  1  0  0  0  0
  4  6  1  0  0  0  0
  4 31  1  0  0  0  0
  5 32  1  0  0  0  0
  5 33  1  0  0  0  0
  5 34  1  0  0  0  0
  6  7  1  0  0  0  0
  6 35  1  0  0  0  0
  7  8  2  0  0  0  0
  7  9  1  0  0  0  0
  9 10  1  0  0  0  0
  9 36  1  0  0  0  0
  9 37  1  0  0  0  0
 10 22  1  0  0  0  0
 10 11  1  0  0  0  0
 11 12  1  0  0  0  0
 11 16  2  0  0  0  0
 12 13  1  0  0  0  0
 12 14  1  0  0  0  0
 12 15  1  0  0  0  0
 16 17  1  0  0  0  0
 16 38  1  0  0  0  0
 17 18  2  0  0  0  0
 17 39  1  0  0  0  0
 18 19  1  0  0  0  0
 18 22  1  0  0  0  0
 19 20  1  0  0  0  0
 19 21  2  0  0  0  0
 20 40  1  0  0  0  0
 20 41  1  0  0  0  0
 22 23  2  0  0  0  0
M  END
> <s_m_source_file>
AV-unprocessed.smi

> <i_m_source_file_index>
1307

> <i_lp_mmshare_version>
43012

> <i_f3d_flags>
0

> <s_epik_input>
W0NIM11bQ0hdKFtDSDNdKVtDQEhdKFtDSDNdKVtOSF1DKD1PKVtDSDJdbjFjKEMoRikoRilGKVtjSF1bY0hdYyhjMT1PKUMoPU8pW05IMl0=

> <s_epik_cmdline>
J2VwaWtfcHl0aG9uJywgJy1waCcsICc3LjAnLCAnLXRuJywgJzgnLCAnLW1hJywgJzIwMCcsICctbWV0YWxfYmluZGluZycsICctaW1hZScsICc8aW5maWxlLm1hZT4nLCAnLW9tYWUnLCAnPG91dGZpbGUubWFlPic=

> <r_lp_tautomer_probability>
1

> <r_epik_Ionization_Penalty>
2.05992e-06

> <r_epik_Ionization_Penalty_Charging>
8.21357e-10

> <r_epik_Ionization_Penalty_Neutral>
2.0591e-06

> <r_epik_State_Penalty>
-0

> <r_epik_Charging_Adjusted_Penalty>
8.21357e-10

> <i_epik_Tot_Q>
0

> <i_epik_Tot_abs_Q>
0

> <r_epik_Metal_State_Penalty>
-0

> <b_epik_Metal_Only>
0

> <s_lp_Force_Field>
OPLS_2005

> <r_lp_Energy>
26.4012

> <b_lp_Chiralities_Consistent>
1

> <s_lp_Variant>
AV-unprocessed.smi:1307-1

> <Gold.Version>
5.8.1

> <Gold.Id.Protein>
6NUR|6NUR_protein|mol2

> <Gold.PLP.Fitness>
40.7516

> <Gold.PLP.PLP>
-40.4657

> <Gold.PLP.part.hbond>
-1.7439

> <Gold.PLP.part.metal>
0.0000

> <Gold.PLP.part.buried>
-4.4282

> <Gold.PLP.part.nonpolar>
-35.3223

> <Gold.PLP.part.repulsive>
0.2715

> <Gold.PLP.ligand.clash>
3.9762

> <Gold.PLP.ligand.torsion>
1.3883

> <Gold.PLP.Chemscore.Hbond>
1.0000

> <Gold.PLP.Chemscore.CHOScore>
0.0000

> <Gold.PLP.Chemscore.Metal>
0.0000

> <Gold.Chemscore.Hbonds>
donor molecule, donor type, donor heavy atom, donor atom, acceptor molecule, acceptor atom, score
      P1  H  6934  6947       L1    21  0.45

> <Gold.PLP.Chemscore.Internal.Correction>
4.0386

> <Gold.Rescore>
     Score         DG    S(hbond)    S(metal)    S(lipo)     H(rot)  DE(clash)    DE(int)     intcor
      5.40     -13.29       1.12        0.00      77.98       1.97       0.83       7.06       ----

> <Gold.Chemscore.Fitness>
5.3997

> <Gold.Chemscore.DG>
-13.2923

> <Gold.Chemscore.ZeroCoef>
-5.4800

> <Gold.Chemscore.Hbond>
1.1191

> <Gold.Chemscore.Metal>
0.0000

> <Gold.Chemscore.Lipo>
77.9774

> <Gold.Chemscore.Internal_Hbond>
0.0000

> <Gold.Chemscore.DEClash>
0.8282

> <Gold.Chemscore.DEInternal>
7.0643

> <Gold.Chemscore.Rot>
1.9723

> <Gold.Chemscore.Internal.Correction>
   9.000000E+99

> <Gold.Chemscore.Hbonds>
donor molecule, donor type, donor heavy atom, donor atom, acceptor molecule, acceptor atom, score
      P1  H  6934  6947       L1    21  0.09

> <Gold.Chemscore.Hbond.Weighted>
-3.7379

> <Gold.Chemscore.Metal.Weighted>
-0.0000

> <Gold.Chemscore.Lipo.Weighted>
-9.1234

> <Gold.Chemscore.Internal_Hbond.Weighted>
0.0000

> <Gold.Chemscore.DEClash.Weighted>
0.8282

> <Gold.Chemscore.DEInternal.Weighted>
7.0643

> <Gold.Chemscore.Rot.Weighted>
5.0490

> <Gold.Chemscore.Internal.Correction.Weighted>
   9.000000E+99

> <Gold.Protein.RotatedTorsions>
[ 6907 6896 6895 6894 ] final  178.58 input  -60.11 | X-H torsion
[ 7974 7965 7964 7962 ] final   -8.64 input  175.53 | X-H torsion
[ 8008 7997 7996 7995 ] final  127.89 input   59.86 | X-H torsion
[ 10167 10162 10161 10158 ] final  168.95 input  -65.29 | X-H torsion
[ 10718 10713 10712 10709 ] final   71.20 input   66.30 | X-H torsion
[ 10763 10752 10751 10750 ] final  167.96 input  -60.55 | X-H torsion
[ 11005 11000 10999 10996 ] final  -61.15 input  -57.11 | X-H torsion

> <Gold.Protein.ActiveResidues>
 VAL166  LYS551  ARG553  GLY616  TRP617  ASP618  TYR619  PRO620  LYS621  CYS622 
 ASP623  PHE694  ASN695  SER759  ASP760  ASP761  ALA762  ILE779  LEU786  VAL792 
 PHE793  MET794  SER795  GLU796  ALA797  LYS798  CYS799  TRP800  GLU811  SER814 

> <Gold.Protein.RotatedAtoms>
  151.6856  133.3311  159.3229 H   0  0  0  0  0  0  0  0  0  0  0  0  # atno 6907 bound_to 6896
  150.7802  134.6743  159.6418 H   0  0  0  0  0  0  0  0  0  0  0  0  # atno 6908 bound_to 6896
  152.3858  134.6523  160.0178 H   0  0  0  0  0  0  0  0  0  0  0  0  # atno 6909 bound_to 6896
  146.2274  140.2499  142.8347 H   0  0  0  0  0  0  0  0  0  0  0  0  # atno 7974 bound_to 7965
  156.2902  140.2658  156.2346 H   0  0  0  0  0  0  0  0  0  0  0  0  # atno 8008 bound_to 7997
  155.0038  140.0387  157.2389 H   0  0  0  0  0  0  0  0  0  0  0  0  # atno 8009 bound_to 7997
  154.7578  140.2755  155.6244 H   0  0  0  0  0  0  0  0  0  0  0  0  # atno 8010 bound_to 7997
  139.4980  144.3759  151.9675 H   0  0  0  0  0  0  0  0  0  0  0  0  # atno 10167 bound_to 10162
  157.6439  130.9516  150.0756 H   0  0  0  0  0  0  0  0  0  0  0  0  # atno 10718 bound_to 10713
  154.3616  135.2753  155.2317 H   0  0  0  0  0  0  0  0  0  0  0  0  # atno 10763 bound_to 10752
  154.4503  135.5932  153.6190 H   0  0  0  0  0  0  0  0  0  0  0  0  # atno 10764 bound_to 10752
  152.9843  135.6040  154.3837 H   0  0  0  0  0  0  0  0  0  0  0  0  # atno 10765 bound_to 10752
  141.1313  133.6627  156.5331 H   0  0  0  0  0  0  0  0  0  0  0  0  # atno 11005 bound_to 11000
  144.9420  140.8088  143.5625 LP  0  0  0  0  0  0  0  0  0  0  0  0  # atno 17320 bound_to 7965
  145.2451  139.2055  143.4972 LP  0  0  0  0  0  0  0  0  0  0  0  0  # atno 17321 bound_to 7965
  140.3195  144.3444  150.6013 LP  0  0  0  0  0  0  0  0  0  0  0  0  # atno 17342 bound_to 10162
  140.5734  143.2178  151.7558 LP  0  0  0  0  0  0  0  0  0  0  0  0  # atno 17343 bound_to 10162
  156.1747  130.3647  149.9116 LP  0  0  0  0  0  0  0  0  0  0  0  0  # atno 17370 bound_to 10713
  156.7083  130.8960  151.3607 LP  0  0  0  0  0  0  0  0  0  0  0  0  # atno 17371 bound_to 10713
  140.4200  134.7196  157.4884 LP  0  0  0  0  0  0  0  0  0  0  0  0  # atno 17394 bound_to 11000
  140.0367  134.6327  155.9035 LP  0  0  0  0  0  0  0  0  0  0  0  0  # atno 17395 bound_to 11000

$$$$
