AV-unprocessed.smi:1507|AV-procd|sdf|6085|dock1
  -GOLD-   22720 6203D 1   1.00000     0.00000
 Structure written by MMmdl.
 33 34  0  0  0  0  0  0  0  0  4 V2000
  150.5469  135.6329  154.3162 N   0  5  0  0  0  0  0  0  0  0  0  0
  151.0811  136.8100  155.2913 S   0  0  0  0  0  0  0  0  0  0  0  0
  150.0446  137.1398  156.2807 O   0  0  0  0  0  0  0  0  0  0  0  0
  152.4043  136.4805  155.8503 O   0  0  0  0  0  0  0  0  0  0  0  0
  151.1402  137.9697  154.1422 N   0  5  0  0  0  0  0  0  0  0  0  0
  150.2819  139.1530  154.1642 C   0  0  0  0  0  0  0  0  0  0  0  0
  150.6603  140.1327  155.2669 C   0  0  0  0  0  0  0  0  0  0  0  0
  151.5604  139.7604  156.2906 C   0  0  0  0  0  0  0  0  0  0  0  0
  151.8622  140.6780  157.3182 C   0  0  0  0  0  0  0  0  0  0  0  0
  151.2646  141.9618  157.3183 C   0  0  0  0  0  0  0  0  0  0  0  0
  151.5211  142.9163  158.3269 N   0  0  0  0  0  0  0  0  0  0  0  0
  152.2163  142.4663  159.5316 C   0  0  0  0  0  0  0  0  0  0  0  0
  152.6692  143.6709  160.3728 C   0  0  0  0  0  0  0  0  0  0  0  0
  151.5499  144.5024  160.6579 O   0  0  0  0  0  0  0  0  0  0  0  0
  150.9660  145.0273  159.4708 C   0  0  0  0  0  0  0  0  0  0  0  0
  150.4514  143.8759  158.5900 C   0  0  0  0  0  0  0  0  0  0  0  0
  150.4078  142.2701  156.3132 N   0  3  0  0  0  0  0  0  0  0  0  0
  150.0902  141.4236  155.3094 C   0  0  0  0  0  0  0  0  0  0  0  0
  149.9797  136.0616  153.5753 H   0  0  0  0  0  0  0  0  0  0  0  0
  150.3380  139.6942  153.2191 H   0  0  0  0  0  0  0  0  0  0  0  0
  149.2296  138.8893  154.2759 H   0  0  0  0  0  0  0  0  0  0  0  0
  152.0095  138.7768  156.3123 H   0  0  0  0  0  0  0  0  0  0  0  0
  152.5312  140.3705  158.1071 H   0  0  0  0  0  0  0  0  0  0  0  0
  151.5496  141.8310  160.1162 H   0  0  0  0  0  0  0  0  0  0  0  0
  153.0891  141.8686  159.2657 H   0  0  0  0  0  0  0  0  0  0  0  0
  153.1074  143.3300  161.3108 H   0  0  0  0  0  0  0  0  0  0  0  0
  153.4388  144.2429  159.8517 H   0  0  0  0  0  0  0  0  0  0  0  0
  150.1426  145.6876  159.7429 H   0  0  0  0  0  0  0  0  0  0  0  0
  151.6948  145.6341  158.9311 H   0  0  0  0  0  0  0  0  0  0  0  0
  150.0469  144.2944  157.6699 H   0  0  0  0  0  0  0  0  0  0  0  0
  149.6323  143.3595  159.0922 H   0  0  0  0  0  0  0  0  0  0  0  0
  149.3774  141.8041  154.5903 H   0  0  0  0  0  0  0  0  0  0  0  0
  149.9681  143.1901  156.3174 H   0  0  0  0  0  0  0  0  0  0  0  0
  1  2  1  0  0  0  0
  1 19  1  0  0  0  0
  2  3  2  0  0  0  0
  2  4  2  0  0  0  0
  2  5  1  0  0  0  0
  5  6  1  0  0  0  0
  6  7  1  0  0  0  0
  6 20  1  0  0  0  0
  6 21  1  0  0  0  0
  7 18  1  0  0  0  0
  7  8  2  0  0  0  0
  8  9  1  0  0  0  0
  8 22  1  0  0  0  0
  9 10  2  0  0  0  0
  9 23  1  0  0  0  0
 10 11  1  0  0  0  0
 10 17  1  0  0  0  0
 11 16  1  0  0  0  0
 11 12  1  0  0  0  0
 12 13  1  0  0  0  0
 12 24  1  0  0  0  0
 12 25  1  0  0  0  0
 13 14  1  0  0  0  0
 13 26  1  0  0  0  0
 13 27  1  0  0  0  0
 14 15  1  0  0  0  0
 15 16  1  0  0  0  0
 15 28  1  0  0  0  0
 15 29  1  0  0  0  0
 16 30  1  0  0  0  0
 16 31  1  0  0  0  0
 17 18  2  0  0  0  0
 17 33  1  0  0  0  0
 18 32  1  0  0  0  0
M  CHG  1   1  -1
M  CHG  1   5  -1
M  CHG  1  17   1
M  END
> <s_m_source_file>
AV-unprocessed.smi

> <i_m_source_file_index>
1507

> <i_lp_mmshare_version>
43012

> <i_f3d_flags>
0

> <s_epik_input>
W05IMl1TKD1PKSg9TylbTkhdW0NIMl1jMVtjSF1bY0hdYyhuW2NIXTEpTjJbQ0gyXVtDSDJdT1tDSDJdW0NIMl0y

> <s_epik_cmdline>
J2VwaWtfcHl0aG9uJywgJy1waCcsICc3LjAnLCAnLXRuJywgJzgnLCAnLW1hJywgJzIwMCcsICctbWV0YWxfYmluZGluZycsICctaW1hZScsICc8aW5maWxlLm1hZT4nLCAnLW9tYWUnLCAnPG91dGZpbGUubWFlPic=

> <r_epik_Ionization_Penalty>
8.77184

> <r_epik_Ionization_Penalty_Charging>
8.77184

> <r_epik_Ionization_Penalty_Neutral>
3.18726e-12

> <r_epik_State_Penalty>
5.60098

> <r_epik_Charging_Adjusted_Penalty>
14.3728

> <i_epik_Tot_Q>
-1

> <i_epik_Tot_abs_Q>
3

> <r_epik_Metal_State_Penalty>
2.46454

> <b_epik_Metal_Only>
1

> <s_lp_Force_Field>
OPLS_2005

> <r_lp_Energy>
15.9769

> <b_lp_Chiralities_Consistent>
1

> <s_lp_Variant>
AV-unprocessed.smi:1507-6

> <Gold.Version>
5.8.1

> <Gold.Id.Protein>
6NUR|6NUR_protein|mol2

> <Gold.PLP.Fitness>
44.4340

> <Gold.PLP.PLP>
-33.4420

> <Gold.PLP.part.hbond>
-3.9805

> <Gold.PLP.part.metal>
0.0000

> <Gold.PLP.part.buried>
-4.2445

> <Gold.PLP.part.nonpolar>
-25.5032

> <Gold.PLP.part.repulsive>
0.5407

> <Gold.PLP.ligand.clash>
0.0000

> <Gold.PLP.ligand.torsion>
1.2116

> <Gold.PLP.Chemscore.Hbond>
4.0000

> <Gold.PLP.Chemscore.CHOScore>
0.0000

> <Gold.PLP.Chemscore.Metal>
0.0000

> <Gold.Chemscore.Hbonds>
donor molecule, donor type, donor heavy atom, donor atom, acceptor molecule, acceptor atom, score
      L1  H     1    19       P1  7948  0.65
      L1  H    17    33       P1  8028  2.00
      P1  H 10752 10765       L1     4  0.91

> <Gold.PLP.Chemscore.Internal.Correction>
1.4152

> <Gold.Rescore>
     Score         DG    S(hbond)    S(metal)    S(lipo)     H(rot)  DE(clash)    DE(int)     intcor
     17.72     -18.88       2.72        0.00      78.35       1.89       0.14       1.02       ----

> <Gold.Chemscore.Fitness>
17.7179

> <Gold.Chemscore.DG>
-18.8763

> <Gold.Chemscore.ZeroCoef>
-5.4800

> <Gold.Chemscore.Hbond>
2.7165

> <Gold.Chemscore.Metal>
0.0000

> <Gold.Chemscore.Lipo>
78.3533

> <Gold.Chemscore.Internal_Hbond>
0.0000

> <Gold.Chemscore.DEClash>
0.1415

> <Gold.Chemscore.DEInternal>
1.0169

> <Gold.Chemscore.Rot>
1.8922

> <Gold.Chemscore.Internal.Correction>
   9.000000E+99

> <Gold.Chemscore.Hbonds>
donor molecule, donor type, donor heavy atom, donor atom, acceptor molecule, acceptor atom, score
      L1  H     1    19       P1  7948  0.06
      L1  H    17    33       P1  8028  0.97
      P1  H 10752 10765       L1     4  0.37

> <Gold.Chemscore.Hbond.Weighted>
-9.0731

> <Gold.Chemscore.Metal.Weighted>
-0.0000

> <Gold.Chemscore.Lipo.Weighted>
-9.1673

> <Gold.Chemscore.Internal_Hbond.Weighted>
0.0000

> <Gold.Chemscore.DEClash.Weighted>
0.1415

> <Gold.Chemscore.DEInternal.Weighted>
1.0169

> <Gold.Chemscore.Rot.Weighted>
4.8441

> <Gold.Chemscore.Internal.Correction.Weighted>
   9.000000E+99

> <Gold.Protein.RotatedTorsions>
[ 6907 6896 6895 6894 ] final   56.28 input  -60.11 | X-H torsion
[ 7974 7965 7964 7962 ] final   92.87 input  175.53 | X-H torsion
[ 8008 7997 7996 7995 ] final    5.52 input   59.86 | X-H torsion
[ 10167 10162 10161 10158 ] final  -62.38 input  -65.29 | X-H torsion
[ 10718 10713 10712 10709 ] final  168.41 input   66.30 | X-H torsion
[ 10763 10752 10751 10750 ] final -167.52 input  -60.55 | X-H torsion
[ 11005 11000 10999 10996 ] final -122.35 input  -57.11 | X-H torsion

> <Gold.Protein.ActiveResidues>
 VAL166  LYS551  ARG553  GLY616  TRP617  ASP618  TYR619  PRO620  LYS621  CYS622 
 ASP623  PHE694  ASN695  SER759  ASP760  ASP761  ALA762  ILE779  LEU786  VAL792 
 PHE793  MET794  SER795  GLU796  ALA797  LYS798  CYS799  TRP800  GLU811  SER814 

> <Gold.Protein.RotatedAtoms>
  152.3621  134.6857  160.0203 H   0  0  0  0  0  0  0  0  0  0  0  0  # atno 6907 bound_to 6896
  151.7177  133.3308  159.3315 H   0  0  0  0  0  0  0  0  0  0  0  0  # atno 6908 bound_to 6896
  150.7612  134.6410  159.6281 H   0  0  0  0  0  0  0  0  0  0  0  0  # atno 6909 bound_to 6896
  145.4865  139.2277  143.2853 H   0  0  0  0  0  0  0  0  0  0  0  0  # atno 7974 bound_to 7965
  154.7294  140.2727  155.6470 H   0  0  0  0  0  0  0  0  0  0  0  0  # atno 8008 bound_to 7997
  156.2845  140.2719  156.1914 H   0  0  0  0  0  0  0  0  0  0  0  0  # atno 8009 bound_to 7997
  155.0402  140.0371  157.2496 H   0  0  0  0  0  0  0  0  0  0  0  0  # atno 8010 bound_to 7997
  140.5942  143.2347  151.6072 H   0  0  0  0  0  0  0  0  0  0  0  0  # atno 10167 bound_to 10162
  157.0374  131.0277  151.2724 H   0  0  0  0  0  0  0  0  0  0  0  0  # atno 10718 bound_to 10713
  154.6723  135.2941  154.9725 H   0  0  0  0  0  0  0  0  0  0  0  0  # atno 10763 bound_to 10752
  154.0748  135.6613  153.4833 H   0  0  0  0  0  0  0  0  0  0  0  0  # atno 10764 bound_to 10752
  153.0494  135.5183  154.7725 H   0  0  0  0  0  0  0  0  0  0  0  0  # atno 10765 bound_to 10752
  141.0002  134.0414  157.3547 H   0  0  0  0  0  0  0  0  0  0  0  0  # atno 11005 bound_to 11000
  146.2309  140.5656  142.8975 LP  0  0  0  0  0  0  0  0  0  0  0  0  # atno 17320 bound_to 7965
  144.7858  140.5934  143.6574 LP  0  0  0  0  0  0  0  0  0  0  0  0  # atno 17321 bound_to 7965
  139.5247  144.3095  152.1005 LP  0  0  0  0  0  0  0  0  0  0  0  0  # atno 17342 bound_to 10162
  140.2264  144.4413  150.6319 LP  0  0  0  0  0  0  0  0  0  0  0  0  # atno 17343 bound_to 10162
  157.5130  130.7950  149.7726 LP  0  0  0  0  0  0  0  0  0  0  0  0  # atno 17370 bound_to 10713
  156.0049  130.3861  150.2468 LP  0  0  0  0  0  0  0  0  0  0  0  0  # atno 17371 bound_to 10713
  139.9035  135.0172  156.7378 LP  0  0  0  0  0  0  0  0  0  0  0  0  # atno 17394 bound_to 11000
  140.6901  133.9397  155.7961 LP  0  0  0  0  0  0  0  0  0  0  0  0  # atno 17395 bound_to 11000

$$$$
