AV-unprocessed.smi:8|AV-procd|sdf|45|dock7
  -GOLD-   2262015163D 1   1.00000     0.00000
 Structure written by MMmdl.
 34 35  0  0  0  0  0  0  0  0  1 V2000
  152.8250  143.2024  159.7696 C   0  0  0  0  0  0  0  0  0  0  0  0
  153.7053  142.2770  160.6231 C   0  0  0  0  0  0  0  0  0  0  0  0
  153.4413  140.8783  160.3901 N   0  0  0  0  0  0  0  0  0  0  0  0
  152.5272  140.4410  159.4439 C   0  0  0  0  0  0  0  0  0  0  0  0
  152.2424  139.1328  159.2207 C   0  0  0  0  0  0  0  0  0  0  0  0
  151.2487  138.6997  158.1539 C   0  0  0  0  0  0  0  0  0  0  0  0
  151.7017  138.9978  156.8013 N   0  0  0  0  0  0  0  0  0  0  0  0
  150.9441  139.8309  155.9642 C   0  0  0  0  0  0  0  0  0  0  0  0
  150.8282  141.1439  156.2765 N   0  0  0  0  0  0  0  0  0  0  0  0
  150.1010  141.9079  155.4579 C   0  0  0  0  0  0  0  0  0  0  0  0
  149.4671  141.5140  154.3517 N   0  0  0  0  0  0  0  0  0  0  0  0
  149.5741  140.2087  154.0252 C   0  0  0  0  0  0  0  0  0  0  0  0
  150.3157  139.3008  154.8117 C   0  0  0  0  0  0  0  0  0  0  0  0
  150.4213  137.8365  154.4261 C   0  0  0  0  0  0  0  0  0  0  0  0
  152.9418  138.1039  159.9990 C   0  0  0  0  0  0  0  0  0  0  0  0
  152.7856  136.8899  159.8791 O   0  0  0  0  0  0  0  0  0  0  0  0
  153.8494  138.5908  160.9444 N   0  0  0  0  0  0  0  0  0  0  0  0
  154.1302  139.9348  161.1846 C   0  0  0  0  0  0  0  0  0  0  0  0
  154.9434  140.2470  162.0547 O   0  0  0  0  0  0  0  0  0  0  0  0
  154.3437  137.9103  161.5032 H   0  0  0  0  0  0  0  0  0  0  0  0
  153.0806  144.2475  159.9450 H   0  0  0  0  0  0  0  0  0  0  0  0
  151.7671  143.0789  160.0023 H   0  0  0  0  0  0  0  0  0  0  0  0
  152.9595  143.0019  158.7064 H   0  0  0  0  0  0  0  0  0  0  0  0
  154.7604  142.4324  160.3933 H   0  0  0  0  0  0  0  0  0  0  0  0
  153.5956  142.4643  161.6934 H   0  0  0  0  0  0  0  0  0  0  0  0
  152.0078  141.1832  158.8543 H   0  0  0  0  0  0  0  0  0  0  0  0
  151.0651  137.6278  158.2358 H   0  0  0  0  0  0  0  0  0  0  0  0
  150.2969  139.1991  158.3411 H   0  0  0  0  0  0  0  0  0  0  0  0
  152.4227  138.4202  156.3939 H   0  0  0  0  0  0  0  0  0  0  0  0
  150.0154  142.9522  155.7194 H   0  0  0  0  0  0  0  0  0  0  0  0
  149.0626  139.8888  153.1293 H   0  0  0  0  0  0  0  0  0  0  0  0
  149.8665  137.6289  153.5108 H   0  0  0  0  0  0  0  0  0  0  0  0
  150.0179  137.2047  155.2178 H   0  0  0  0  0  0  0  0  0  0  0  0
  151.4632  137.5614  154.2604 H   0  0  0  0  0  0  0  0  0  0  0  0
  1  2  1  0  0  0  0
  1 21  1  0  0  0  0
  1 22  1  0  0  0  0
  1 23  1  0  0  0  0
  2  3  1  0  0  0  0
  2 24  1  0  0  0  0
  2 25  1  0  0  0  0
  3 18  1  0  0  0  0
  3  4  1  0  0  0  0
  4  5  2  0  0  0  0
  4 26  1  0  0  0  0
  5  6  1  0  0  0  0
  5 15  1  0  0  0  0
  6  7  1  0  0  0  0
  6 27  1  0  0  0  0
  6 28  1  0  0  0  0
  7  8  1  0  0  0  0
  7 29  1  0  0  0  0
  8 13  1  0  0  0  0
  8  9  2  0  0  0  0
  9 10  1  0  0  0  0
 10 11  2  0  0  0  0
 10 30  1  0  0  0  0
 11 12  1  0  0  0  0
 12 13  2  0  0  0  0
 12 31  1  0  0  0  0
 13 14  1  0  0  0  0
 14 32  1  0  0  0  0
 14 33  1  0  0  0  0
 14 34  1  0  0  0  0
 15 16  2  0  0  0  0
 15 17  1  0  0  0  0
 17 20  1  0  0  0  0
 17 18  1  0  0  0  0
 18 19  2  0  0  0  0
M  END
> <s_m_source_file>
AV-unprocessed.smi

> <i_m_source_file_index>
8

> <i_lp_mmshare_version>
43012

> <i_f3d_flags>
0

> <s_epik_input>
W0NIM11bQ0gyXW4xW2NIXWMoYyg9TylbbkhdYzE9TylbQ0gyXVtOSF1jMm5bY0hdbltjSF1jMltDSDNd

> <s_epik_cmdline>
J2VwaWtfcHl0aG9uJywgJy1waCcsICc3LjAnLCAnLXRuJywgJzgnLCAnLW1hJywgJzIwMCcsICctbWV0YWxfYmluZGluZycsICctaW1hZScsICc8aW5maWxlLm1hZT4nLCAnLW9tYWUnLCAnPG91dGZpbGUubWFlPic=

> <r_lp_tautomer_probability>
0.999537

> <r_epik_Ionization_Penalty>
0.0165471

> <r_epik_Ionization_Penalty_Charging>
0.000694205

> <r_epik_Ionization_Penalty_Neutral>
0.0158529

> <r_epik_State_Penalty>
0.0119799

> <r_epik_Charging_Adjusted_Penalty>
0.0126741

> <i_epik_Tot_Q>
0

> <i_epik_Tot_abs_Q>
0

> <r_epik_Metal_State_Penalty>
0.262409

> <b_epik_Metal_Only>
0

> <s_lp_Force_Field>
OPLS_2005

> <r_lp_Energy>
9.23324

> <b_lp_Chiralities_Consistent>
1

> <s_lp_Variant>
AV-unprocessed.smi:8-1

> <Gold.Version>
5.8.1

> <Gold.Id.Protein>
6NUR|6NUR_protein|mol2

> <Gold.PLP.Fitness>
41.6880

> <Gold.PLP.PLP>
-33.6460

> <Gold.PLP.part.hbond>
-2.8249

> <Gold.PLP.part.metal>
0.0000

> <Gold.PLP.part.buried>
-0.9560

> <Gold.PLP.part.nonpolar>
-29.0384

> <Gold.PLP.part.repulsive>
0.2946

> <Gold.PLP.ligand.clash>
0.0000

> <Gold.PLP.ligand.torsion>
0.7047

> <Gold.PLP.Chemscore.Hbond>
1.1488

> <Gold.PLP.Chemscore.CHOScore>
2.0000

> <Gold.PLP.Chemscore.Metal>
0.0000

> <Gold.Chemscore.Hbonds>
donor molecule, donor type, donor heavy atom, donor atom, acceptor molecule, acceptor atom, score
      P1  H  6896  6908       L1    16  1.00
      P1  H  8011  8017       L1    11  0.29
      L1  C    10    30       P1  8028  1.00
      L1  C    12    31       P1  7957  1.00

> <Gold.PLP.Chemscore.Internal.Correction>
0.0049

> <Gold.Rescore>
     Score         DG    S(hbond)    S(metal)    S(lipo)     H(rot)  DE(clash)    DE(int)     intcor
     10.44     -11.46       0.99        0.00      60.55       1.73       0.26       0.76       ----

> <Gold.Chemscore.Fitness>
10.4370

> <Gold.Chemscore.DG>
-11.4556

> <Gold.Chemscore.ZeroCoef>
-5.4800

> <Gold.Chemscore.Hbond>
0.9944

> <Gold.Chemscore.Metal>
0.0000

> <Gold.Chemscore.Lipo>
60.5538

> <Gold.Chemscore.Internal_Hbond>
0.0000

> <Gold.Chemscore.DEClash>
0.2566

> <Gold.Chemscore.DEInternal>
0.7620

> <Gold.Chemscore.Rot>
1.7307

> <Gold.Chemscore.Internal.Correction>
   9.000000E+99

> <Gold.Chemscore.Hbonds>
donor molecule, donor type, donor heavy atom, donor atom, acceptor molecule, acceptor atom, score
      P1  H  6896  6908       L1    16  0.97
      P1  H  8011  8017       L1    11  0.07

> <Gold.Chemscore.Hbond.Weighted>
-3.3213

> <Gold.Chemscore.Metal.Weighted>
-0.0000

> <Gold.Chemscore.Lipo.Weighted>
-7.0848

> <Gold.Chemscore.Internal_Hbond.Weighted>
0.0000

> <Gold.Chemscore.DEClash.Weighted>
0.2566

> <Gold.Chemscore.DEInternal.Weighted>
0.7620

> <Gold.Chemscore.Rot.Weighted>
4.4305

> <Gold.Chemscore.Internal.Correction.Weighted>
   9.000000E+99

> <Gold.Protein.RotatedTorsions>
[ 6907 6896 6895 6894 ] final  -90.85 input  -60.11 | X-H torsion
[ 7974 7965 7964 7962 ] final -163.92 input  175.53 | X-H torsion
[ 8008 7997 7996 7995 ] final -134.55 input   59.86 | X-H torsion
[ 10167 10162 10161 10158 ] final  -83.51 input  -65.29 | X-H torsion
[ 10718 10713 10712 10709 ] final  115.85 input   66.30 | X-H torsion
[ 10763 10752 10751 10750 ] final -131.74 input  -60.55 | X-H torsion
[ 11005 11000 10999 10996 ] final  147.57 input  -57.11 | X-H torsion

> <Gold.Protein.ActiveResidues>
 VAL166  LYS551  ARG553  GLY616  TRP617  ASP618  TYR619  PRO620  LYS621  CYS622 
 ASP623  PHE694  ASN695  SER759  ASP760  ASP761  ALA762  ILE779  LEU786  VAL792 
 PHE793  MET794  SER795  GLU796  ALA797  LYS798  CYS799  TRP800  GLU811  SER814 

> <Gold.Protein.RotatedAtoms>
  150.6886  134.2368  159.4456 H   0  0  0  0  0  0  0  0  0  0  0  0  # atno 6907 bound_to 6896
  152.0315  134.9762  160.0582 H   0  0  0  0  0  0  0  0  0  0  0  0  # atno 6908 bound_to 6896
  152.1300  133.4367  159.4753 H   0  0  0  0  0  0  0  0  0  0  0  0  # atno 6909 bound_to 6896
  144.7311  140.3036  143.6200 H   0  0  0  0  0  0  0  0  0  0  0  0  # atno 7974 bound_to 7965
  155.3640  140.0484  157.3046 H   0  0  0  0  0  0  0  0  0  0  0  0  # atno 8008 bound_to 7997
  154.5163  140.2209  155.9022 H   0  0  0  0  0  0  0  0  0  0  0  0  # atno 8009 bound_to 7997
  156.1640  140.3110  155.8863 H   0  0  0  0  0  0  0  0  0  0  0  0  # atno 8010 bound_to 7997
  140.4219  143.2581  151.8878 H   0  0  0  0  0  0  0  0  0  0  0  0  # atno 10167 bound_to 10162
  157.6197  131.1018  150.7388 H   0  0  0  0  0  0  0  0  0  0  0  0  # atno 10718 bound_to 10713
  154.8748  135.3820  154.4296 H   0  0  0  0  0  0  0  0  0  0  0  0  # atno 10763 bound_to 10752
  153.4991  135.7030  153.5846 H   0  0  0  0  0  0  0  0  0  0  0  0  # atno 10764 bound_to 10752
  153.4186  135.3907  155.2063 H   0  0  0  0  0  0  0  0  0  0  0  0  # atno 10765 bound_to 10752
  140.0887  134.9054  157.1616 H   0  0  0  0  0  0  0  0  0  0  0  0  # atno 11005 bound_to 11000
  145.7735  139.1866  143.2198 LP  0  0  0  0  0  0  0  0  0  0  0  0  # atno 17320 bound_to 7965
  146.0891  140.7676  142.9604 LP  0  0  0  0  0  0  0  0  0  0  0  0  # atno 17321 bound_to 7965
  139.4783  144.5428  151.8503 LP  0  0  0  0  0  0  0  0  0  0  0  0  # atno 17342 bound_to 10162
  140.4524  144.1837  150.5898 LP  0  0  0  0  0  0  0  0  0  0  0  0  # atno 17343 bound_to 10162
  156.7748  130.4840  149.5411 LP  0  0  0  0  0  0  0  0  0  0  0  0  # atno 17370 bound_to 10713
  156.1336  130.6195  151.0368 LP  0  0  0  0  0  0  0  0  0  0  0  0  # atno 17371 bound_to 10713
  140.3383  134.2732  155.7216 LP  0  0  0  0  0  0  0  0  0  0  0  0  # atno 17394 bound_to 11000
  141.2071  133.7815  157.0139 LP  0  0  0  0  0  0  0  0  0  0  0  0  # atno 17395 bound_to 11000

$$$$
