AV-unprocessed.smi:3201|AV-procd|sdf|12239|dock3
  -GOLD-   2272018 73D 1   1.00000     0.00000
 Structure written by MMmdl.
 41 43  0  0  0  0  0  0  0  0  2 V2000
  152.7847  141.1956  159.7550 C   0  0  0  0  0  0  0  0  0  0  0  0
  152.3867  142.6142  160.0067 C   0  0  0  0  0  0  0  0  0  0  0  0
  151.8527  143.5558  159.1681 C   0  0  0  0  0  0  0  0  0  0  0  0
  151.5011  143.4364  157.7106 C   0  0  0  0  0  0  0  0  0  0  0  0
  150.4879  142.3103  157.4672 C   0  0  0  0  0  0  0  0  0  0  0  0
  149.9604  142.3614  156.0886 N   0  3  0  0  0  0  0  0  0  0  0  0
  148.9535  141.3246  155.7704 C   0  0  2  0  0  0  0  0  0  0  0  0
  149.1571  140.7604  154.3464 C   0  0  0  0  0  0  0  0  0  0  0  0
  147.7946  141.0120  153.6752 C   0  0  1  0  0  0  0  0  0  0  0  0
  146.7322  140.0891  154.3001 C   0  0  0  0  0  0  0  0  0  0  0  0
  146.5209  140.7107  155.6936 C   0  0  0  0  0  0  0  0  0  0  0  0
  147.5142  141.8882  155.6959 C   0  0  2  0  0  0  0  0  0  0  0  0
  147.4140  142.3696  154.2514 C   0  0  0  0  0  0  0  0  0  0  0  0
  151.7023  144.7012  159.9999 C   0  0  0  0  0  0  0  0  0  0  0  0
  152.1067  144.4918  161.2397 N   0  0  0  0  0  0  0  0  0  0  0  0
  152.5251  143.2094  161.2468 N   0  0  0  0  0  0  0  0  0  0  0  0
  153.0430  142.6366  162.4741 C   0  0  0  0  0  0  0  0  0  0  0  0
  152.7015  140.9426  158.6985 H   0  0  0  0  0  0  0  0  0  0  0  0
  152.1474  140.5106  160.3144 H   0  0  0  0  0  0  0  0  0  0  0  0
  153.8172  141.0219  160.0588 H   0  0  0  0  0  0  0  0  0  0  0  0
  151.0937  144.3773  157.3385 H   0  0  0  0  0  0  0  0  0  0  0  0
  152.3971  143.2486  157.1176 H   0  0  0  0  0  0  0  0  0  0  0  0
  150.9615  141.3418  157.6340 H   0  0  0  0  0  0  0  0  0  0  0  0
  149.6664  142.3928  158.1788 H   0  0  0  0  0  0  0  0  0  0  0  0
  149.5538  143.2705  155.9206 H   0  0  0  0  0  0  0  0  0  0  0  0
  149.0278  140.5238  156.5081 H   0  0  0  0  0  0  0  0  0  0  0  0
  149.9455  141.2922  153.8112 H   0  0  0  0  0  0  0  0  0  0  0  0
  149.4223  139.7024  154.3551 H   0  0  0  0  0  0  0  0  0  0  0  0
  147.8284  140.9662  152.5862 H   0  0  0  0  0  0  0  0  0  0  0  0
  145.8058  140.1152  153.7248 H   0  0  0  0  0  0  0  0  0  0  0  0
  147.0645  139.0516  154.3523 H   0  0  0  0  0  0  0  0  0  0  0  0
  145.4960  141.0689  155.7998 H   0  0  0  0  0  0  0  0  0  0  0  0
  146.7106  140.0021  156.5007 H   0  0  0  0  0  0  0  0  0  0  0  0
  147.2781  142.6414  156.4476 H   0  0  0  0  0  0  0  0  0  0  0  0
  148.1247  143.1603  154.0048 H   0  0  0  0  0  0  0  0  0  0  0  0
  146.4095  142.6921  153.9709 H   0  0  0  0  0  0  0  0  0  0  0  0
  151.3144  145.6748  159.7389 H   0  0  0  0  0  0  0  0  0  0  0  0
  152.5159  141.7090  162.6984 H   0  0  0  0  0  0  0  0  0  0  0  0
  152.9093  143.3267  163.3086 H   0  0  0  0  0  0  0  0  0  0  0  0
  154.1059  142.4238  162.3585 H   0  0  0  0  0  0  0  0  0  0  0  0
  150.7416  142.2380  155.4604 H   0  0  0  0  0  0  0  0  0  0  0  0
  1  2  1  0  0  0  0
  1 18  1  0  0  0  0
  1 19  1  0  0  0  0
  1 20  1  0  0  0  0
  2 16  1  0  0  0  0
  2  3  2  0  0  0  0
  3  4  1  0  0  0  0
  3 14  1  0  0  0  0
  4  5  1  0  0  0  0
  4 21  1  0  0  0  0
  4 22  1  0  0  0  0
  5  6  1  0  0  0  0
  5 23  1  0  0  0  0
  5 24  1  0  0  0  0
  6  7  1  0  0  0  0
  6 25  1  0  0  0  0
  6 41  1  0  0  0  0
  7 12  1  0  0  0  0
  7  8  1  0  0  0  0
  7 26  1  0  0  0  0
  8  9  1  0  0  0  0
  8 27  1  0  0  0  0
  8 28  1  0  0  0  0
  9 13  1  0  0  0  0
  9 10  1  0  0  0  0
  9 29  1  0  0  0  0
 10 11  1  0  0  0  0
 10 30  1  0  0  0  0
 10 31  1  0  0  0  0
 11 12  1  0  0  0  0
 11 32  1  0  0  0  0
 11 33  1  0  0  0  0
 12 13  1  0  0  0  0
 12 34  1  0  0  0  0
 13 35  1  0  0  0  0
 13 36  1  0  0  0  0
 14 15  2  0  0  0  0
 14 37  1  0  0  0  0
 15 16  1  0  0  0  0
 16 17  1  0  0  0  0
 17 38  1  0  0  0  0
 17 39  1  0  0  0  0
 17 40  1  0  0  0  0
M  CHG  1   6   1
M  END
> <s_m_source_file>
AV-unprocessed.smi

> <i_m_source_file_index>
3201

> <i_lp_mmshare_version>
43012

> <i_f3d_flags>
0

> <s_epik_input>
W0NIM11uMW5bY0hdYyhjMVtDSDNdKVtDSDJdW0NIMl1bTkhdW0NASF0oW0NIMl1bQ0BIXTIzKVtDQEhdKFtDSDJdMylbQ0gyXVtDSDJdMg==

> <s_epik_cmdline>
J2VwaWtfcHl0aG9uJywgJy1waCcsICc3LjAnLCAnLXRuJywgJzgnLCAnLW1hJywgJzIwMCcsICctbWV0YWxfYmluZGluZycsICctaW1hZScsICc8aW5maWxlLm1hZT4nLCAnLW9tYWUnLCAnPG91dGZpbGUubWFlPic=

> <r_lp_tautomer_probability>
1

> <r_epik_Ionization_Penalty>
0.000331174

> <r_epik_Ionization_Penalty_Charging>
0.000242709

> <r_epik_Ionization_Penalty_Neutral>
8.84659e-05

> <r_epik_State_Penalty>
-0

> <r_epik_Charging_Adjusted_Penalty>
0.000242709

> <i_epik_Tot_Q>
1

> <i_epik_Tot_abs_Q>
1

> <r_epik_Metal_State_Penalty>
-0

> <b_epik_Metal_Only>
0

> <s_lp_Force_Field>
OPLS_2005

> <r_lp_Energy>
49.8246

> <b_lp_Chiralities_Consistent>
1

> <s_lp_Variant>
AV-unprocessed.smi:3201-3

> <Gold.Version>
5.8.1

> <Gold.Id.Protein>
6NUR|6NUR_protein|mol2

> <Gold.PLP.Fitness>
46.8330

> <Gold.PLP.PLP>
-42.0767

> <Gold.PLP.part.hbond>
-1.0000

> <Gold.PLP.part.metal>
0.0000

> <Gold.PLP.part.buried>
-3.3578

> <Gold.PLP.part.nonpolar>
-38.5059

> <Gold.PLP.part.repulsive>
0.2889

> <Gold.PLP.ligand.clash>
0.0000

> <Gold.PLP.ligand.torsion>
0.6369

> <Gold.PLP.Chemscore.Hbond>
2.0000

> <Gold.PLP.Chemscore.CHOScore>
0.0000

> <Gold.PLP.Chemscore.Metal>
0.0000

> <Gold.Chemscore.Hbonds>
donor molecule, donor type, donor heavy atom, donor atom, acceptor molecule, acceptor atom, score
      L1  H     6    25       P1  8028  2.00

> <Gold.PLP.Chemscore.Internal.Correction>
0.0301

> <Gold.Rescore>
     Score         DG    S(hbond)    S(metal)    S(lipo)     H(rot)  DE(clash)    DE(int)     intcor
     17.88     -18.74       0.99        0.00     114.92       1.36       0.17       0.69       ----

> <Gold.Chemscore.Fitness>
17.8841

> <Gold.Chemscore.DG>
-18.7412

> <Gold.Chemscore.ZeroCoef>
-5.4800

> <Gold.Chemscore.Hbond>
0.9863

> <Gold.Chemscore.Metal>
0.0000

> <Gold.Chemscore.Lipo>
114.9183

> <Gold.Chemscore.Internal_Hbond>
0.0000

> <Gold.Chemscore.DEClash>
0.1689

> <Gold.Chemscore.DEInternal>
0.6882

> <Gold.Chemscore.Rot>
1.3588

> <Gold.Chemscore.Internal.Correction>
   9.000000E+99

> <Gold.Chemscore.Hbonds>
donor molecule, donor type, donor heavy atom, donor atom, acceptor molecule, acceptor atom, score
      L1  H     6    25       P1  8028  0.99

> <Gold.Chemscore.Hbond.Weighted>
-3.2944

> <Gold.Chemscore.Metal.Weighted>
-0.0000

> <Gold.Chemscore.Lipo.Weighted>
-13.4454

> <Gold.Chemscore.Internal_Hbond.Weighted>
0.0000

> <Gold.Chemscore.DEClash.Weighted>
0.1689

> <Gold.Chemscore.DEInternal.Weighted>
0.6882

> <Gold.Chemscore.Rot.Weighted>
3.4786

> <Gold.Chemscore.Internal.Correction.Weighted>
   9.000000E+99

> <Gold.Protein.RotatedTorsions>
[ 6907 6896 6895 6894 ] final  -35.18 input  -60.11 | X-H torsion
[ 7974 7965 7964 7962 ] final -178.59 input  175.53 | X-H torsion
[ 8008 7997 7996 7995 ] final   84.59 input   59.86 | X-H torsion
[ 10167 10162 10161 10158 ] final  -77.73 input  -65.29 | X-H torsion
[ 10718 10713 10712 10709 ] final   69.68 input   66.30 | X-H torsion
[ 10763 10752 10751 10750 ] final   37.55 input  -60.55 | X-H torsion
[ 11005 11000 10999 10996 ] final   84.16 input  -57.11 | X-H torsion

> <Gold.Protein.ActiveResidues>
 VAL166  LYS551  ARG553  GLY616  TRP617  ASP618  TYR619  PRO620  LYS621  CYS622 
 ASP623  PHE694  ASN695  SER759  ASP760  ASP761  ALA762  ILE779  LEU786  VAL792 
 PHE793  MET794  SER795  GLU796  ALA797  LYS798  CYS799  TRP800  GLU811  SER814 

> <Gold.Protein.RotatedAtoms>
  151.0431  134.9621  159.8172 H   0  0  0  0  0  0  0  0  0  0  0  0  # atno 6907 bound_to 6896
  152.5368  134.2632  159.8953 H   0  0  0  0  0  0  0  0  0  0  0  0  # atno 6908 bound_to 6896
  151.2645  133.4243  159.2652 H   0  0  0  0  0  0  0  0  0  0  0  0  # atno 6909 bound_to 6896
  144.7132  140.0845  143.6424 H   0  0  0  0  0  0  0  0  0  0  0  0  # atno 7974 bound_to 7965
  155.9390  140.3409  155.6312 H   0  0  0  0  0  0  0  0  0  0  0  0  # atno 8008 bound_to 7997
  155.7063  140.0766  157.2408 H   0  0  0  0  0  0  0  0  0  0  0  0  # atno 8009 bound_to 7997
  154.4099  140.1631  156.2234 H   0  0  0  0  0  0  0  0  0  0  0  0  # atno 8010 bound_to 7997
  140.4745  143.2418  151.8155 H   0  0  0  0  0  0  0  0  0  0  0  0  # atno 10167 bound_to 10162
  157.6359  130.9438  150.0547 H   0  0  0  0  0  0  0  0  0  0  0  0  # atno 10718 bound_to 10713
  153.0033  135.6275  154.2162 H   0  0  0  0  0  0  0  0  0  0  0  0  # atno 10763 bound_to 10752
  154.1905  135.2809  155.3025 H   0  0  0  0  0  0  0  0  0  0  0  0  # atno 10764 bound_to 10752
  154.5763  135.5661  153.7202 H   0  0  0  0  0  0  0  0  0  0  0  0  # atno 10765 bound_to 10752
  139.9009  134.8196  156.2407 H   0  0  0  0  0  0  0  0  0  0  0  0  # atno 11005 bound_to 11000
  145.9673  139.2844  143.1120 LP  0  0  0  0  0  0  0  0  0  0  0  0  # atno 17320 bound_to 7965
  145.9155  140.9151  143.0432 LP  0  0  0  0  0  0  0  0  0  0  0  0  # atno 17321 bound_to 7965
  139.4823  144.4851  151.9257 LP  0  0  0  0  0  0  0  0  0  0  0  0  # atno 17342 bound_to 10162
  140.3936  144.2584  150.5898 LP  0  0  0  0  0  0  0  0  0  0  0  0  # atno 17343 bound_to 10162
  156.1598  130.3643  149.9316 LP  0  0  0  0  0  0  0  0  0  0  0  0  # atno 17370 bound_to 10713
  156.7317  130.9046  151.3626 LP  0  0  0  0  0  0  0  0  0  0  0  0  # atno 17371 bound_to 10713
  141.0287  133.7001  156.1392 LP  0  0  0  0  0  0  0  0  0  0  0  0  # atno 17394 bound_to 11000
  140.7128  134.4442  157.5580 LP  0  0  0  0  0  0  0  0  0  0  0  0  # atno 17395 bound_to 11000

$$$$
