AV-unprocessed.smi:1251|AV-procd|sdf|5262|dock2
  -GOLD-   22720 4373D 1   1.00000     0.00000
 Structure written by MMmdl.
 38 39  0  0  0  0  0  0  0  0  2 V2000
  150.4520  142.8979  158.5251 C   0  0  0  0  0  0  0  0  0  0  0  0
  150.9609  141.5827  157.9256 C   0  0  0  0  0  0  0  0  0  0  0  0
  150.9708  141.5992  156.3907 C   0  0  0  0  0  0  0  0  0  0  0  0
  151.3239  140.2724  155.8065 C   0  0  0  0  0  0  0  0  0  0  0  0
  152.4057  140.0798  155.0475 N   0  0  0  0  0  0  0  0  0  0  0  0
  152.5358  138.7575  154.6487 N   0  0  0  0  0  0  0  0  0  0  0  0
  151.5579  137.9686  155.1159 C   0  0  0  0  0  0  0  0  0  0  0  0
  151.5054  136.6531  154.8499 N   0  5  0  0  0  0  0  0  0  0  0  0
  150.7950  135.8284  155.6528 C   0  0  0  0  0  0  0  0  0  0  0  0
  150.2733  136.1279  156.7292 O   0  0  0  0  0  0  0  0  0  0  0  0
  150.6838  134.5800  155.1777 N   0  0  0  0  0  0  0  0  0  0  0  0
  149.9634  133.4726  155.8051 C   0  0  2  0  0  0  0  0  0  0  0  0
  150.9190  132.3023  156.0885 C   0  0  0  0  0  0  0  0  0  0  0  0
  148.7657  133.0480  154.9308 C   0  0  1  0  0  0  0  0  0  0  0  0
  149.1490  132.5181  153.5373 C   0  0  0  0  0  0  0  0  0  0  0  0
  148.7291  131.0616  153.5716 C   0  0  0  0  0  0  0  0  0  0  0  0
  147.5875  131.0833  154.5764 C   0  0  0  0  0  0  0  0  0  0  0  0
  148.0472  131.9898  155.5653 O   0  0  0  0  0  0  0  0  0  0  0  0
  150.3881  138.8213  156.1230 S   0  0  0  0  0  0  0  0  0  0  0  0
  150.4612  142.8568  159.6144 H   0  0  0  0  0  0  0  0  0  0  0  0
  149.4295  143.1051  158.2084 H   0  0  0  0  0  0  0  0  0  0  0  0
  151.0758  143.7379  158.2185 H   0  0  0  0  0  0  0  0  0  0  0  0
  151.9677  141.3848  158.2953 H   0  0  0  0  0  0  0  0  0  0  0  0
  150.3357  140.7616  158.2783 H   0  0  0  0  0  0  0  0  0  0  0  0
  149.9915  141.8939  156.0129 H   0  0  0  0  0  0  0  0  0  0  0  0
  151.6814  142.3428  156.0276 H   0  0  0  0  0  0  0  0  0  0  0  0
  151.1306  134.3822  154.2942 H   0  0  0  0  0  0  0  0  0  0  0  0
  149.5584  133.8102  156.7606 H   0  0  0  0  0  0  0  0  0  0  0  0
  150.3956  131.4777  156.5724 H   0  0  0  0  0  0  0  0  0  0  0  0
  151.7310  132.6080  156.7490 H   0  0  0  0  0  0  0  0  0  0  0  0
  151.3650  131.9209  155.1694 H   0  0  0  0  0  0  0  0  0  0  0  0
  148.0875  133.8938  154.8082 H   0  0  0  0  0  0  0  0  0  0  0  0
  148.5817  133.0501  152.7728 H   0  0  0  0  0  0  0  0  0  0  0  0
  150.2074  132.6360  153.3014 H   0  0  0  0  0  0  0  0  0  0  0  0
  148.4340  130.6767  152.5953 H   0  0  0  0  0  0  0  0  0  0  0  0
  149.5465  130.4465  153.9504 H   0  0  0  0  0  0  0  0  0  0  0  0
  146.6744  131.4702  154.1214 H   0  0  0  0  0  0  0  0  0  0  0  0
  147.3759  130.1007  154.9985 H   0  0  0  0  0  0  0  0  0  0  0  0
  1  2  1  0  0  0  0
  1 20  1  0  0  0  0
  1 21  1  0  0  0  0
  1 22  1  0  0  0  0
  2  3  1  0  0  0  0
  2 23  1  0  0  0  0
  2 24  1  0  0  0  0
  3  4  1  0  0  0  0
  3 25  1  0  0  0  0
  3 26  1  0  0  0  0
  4 19  1  0  0  0  0
  4  5  2  0  0  0  0
  5  6  1  0  0  0  0
  6  7  2  0  0  0  0
  7  8  1  0  0  0  0
  7 19  1  0  0  0  0
  8  9  1  0  0  0  0
  9 10  2  0  0  0  0
  9 11  1  0  0  0  0
 11 12  1  0  0  0  0
 11 27  1  0  0  0  0
 12 13  1  0  0  0  0
 12 14  1  0  0  0  0
 12 28  1  0  0  0  0
 13 29  1  0  0  0  0
 13 30  1  0  0  0  0
 13 31  1  0  0  0  0
 14 18  1  0  0  0  0
 14 15  1  0  0  0  0
 14 32  1  0  0  0  0
 15 16  1  0  0  0  0
 15 33  1  0  0  0  0
 15 34  1  0  0  0  0
 16 17  1  0  0  0  0
 16 35  1  0  0  0  0
 16 36  1  0  0  0  0
 17 18  1  0  0  0  0
 17 37  1  0  0  0  0
 17 38  1  0  0  0  0
M  CHG  1   8  -1
M  END
> <s_m_source_file>
AV-unprocessed.smi

> <i_m_source_file_index>
1251

> <i_lp_mmshare_version>
43012

> <i_f3d_flags>
0

> <s_epik_input>
W0NIM11bQ0gyXVtDSDJdYzFubmMoczEpW05IXUMoPU8pW05IXVtDQEhdKFtDSDNdKVtDQEBIXTJbQ0gyXVtDSDJdW0NIMl1PMg==

> <s_epik_cmdline>
J2VwaWtfcHl0aG9uJywgJy1waCcsICc3LjAnLCAnLXRuJywgJzgnLCAnLW1hJywgJzIwMCcsICctbWV0YWxfYmluZGluZycsICctaW1hZScsICc8aW5maWxlLm1hZT4nLCAnLW9tYWUnLCAnPG91dGZpbGUubWFlPic=

> <r_lp_tautomer_probability>
1

> <r_epik_Ionization_Penalty>
4.22551

> <r_epik_Ionization_Penalty_Charging>
4.21437

> <r_epik_Ionization_Penalty_Neutral>
0.0111434

> <r_epik_State_Penalty>
4.21389

> <r_epik_Charging_Adjusted_Penalty>
8.42826

> <i_epik_Tot_Q>
-1

> <i_epik_Tot_abs_Q>
1

> <r_epik_Metal_State_Penalty>
0.69377

> <b_epik_Metal_Only>
1

> <s_lp_Force_Field>
OPLS_2005

> <r_lp_Energy>
12.7313

> <b_lp_Chiralities_Consistent>
1

> <s_lp_Variant>
AV-unprocessed.smi:1251-7

> <Gold.Version>
5.8.1

> <Gold.Id.Protein>
6NUR|6NUR_protein|mol2

> <Gold.PLP.Fitness>
36.6176

> <Gold.PLP.PLP>
-27.0855

> <Gold.PLP.part.hbond>
-2.9981

> <Gold.PLP.part.metal>
0.0000

> <Gold.PLP.part.buried>
-3.8305

> <Gold.PLP.part.nonpolar>
-21.0999

> <Gold.PLP.part.repulsive>
0.2711

> <Gold.PLP.ligand.clash>
0.0000

> <Gold.PLP.ligand.torsion>
0.1398

> <Gold.PLP.Chemscore.Hbond>
3.1828

> <Gold.PLP.Chemscore.CHOScore>
0.0000

> <Gold.PLP.Chemscore.Metal>
0.0000

> <Gold.Chemscore.Hbonds>
donor molecule, donor type, donor heavy atom, donor atom, acceptor molecule, acceptor atom, score
      P1  H  7989  7998       L1     5  0.49
      P1  H  7997  8010       L1     5  0.41
      P1  H 10752 10764       L1     8  2.00

> <Gold.PLP.Chemscore.Internal.Correction>
0.2633

> <Gold.Rescore>
     Score         DG    S(hbond)    S(metal)    S(lipo)     H(rot)  DE(clash)    DE(int)     intcor
     11.61     -14.69       1.69        0.00      64.35       1.55       1.49       1.59       ----

> <Gold.Chemscore.Fitness>
11.6136

> <Gold.Chemscore.DG>
-14.6890

> <Gold.Chemscore.ZeroCoef>
-5.4800

> <Gold.Chemscore.Hbond>
1.6885

> <Gold.Chemscore.Metal>
0.0000

> <Gold.Chemscore.Lipo>
64.3527

> <Gold.Chemscore.Internal_Hbond>
0.0000

> <Gold.Chemscore.DEClash>
1.4877

> <Gold.Chemscore.DEInternal>
1.5877

> <Gold.Chemscore.Rot>
1.5469

> <Gold.Chemscore.Internal.Correction>
   9.000000E+99

> <Gold.Chemscore.Hbonds>
donor molecule, donor type, donor heavy atom, donor atom, acceptor molecule, acceptor atom, score
      P1  H  7989  7998       L1     5  0.02
      P1  H  7997  8010       L1     5  0.05
      P1  H 10752 10764       L1     8  0.40

> <Gold.Chemscore.Hbond.Weighted>
-5.6397

> <Gold.Chemscore.Metal.Weighted>
-0.0000

> <Gold.Chemscore.Lipo.Weighted>
-7.5293

> <Gold.Chemscore.Internal_Hbond.Weighted>
0.0000

> <Gold.Chemscore.DEClash.Weighted>
1.4877

> <Gold.Chemscore.DEInternal.Weighted>
1.5877

> <Gold.Chemscore.Rot.Weighted>
3.9600

> <Gold.Chemscore.Internal.Correction.Weighted>
   9.000000E+99

> <Gold.Protein.RotatedTorsions>
[ 6907 6896 6895 6894 ] final   77.25 input  -60.11 | X-H torsion
[ 7974 7965 7964 7962 ] final  135.47 input  175.53 | X-H torsion
[ 8008 7997 7996 7995 ] final   96.69 input   59.86 | X-H torsion
[ 10167 10162 10161 10158 ] final  108.37 input  -65.29 | X-H torsion
[ 10718 10713 10712 10709 ] final -110.10 input   66.30 | X-H torsion
[ 10763 10752 10751 10750 ] final  -71.41 input  -60.55 | X-H torsion
[ 11005 11000 10999 10996 ] final  -88.20 input  -57.11 | X-H torsion

> <Gold.Protein.ActiveResidues>
 VAL166  LYS551  ARG553  GLY616  TRP617  ASP618  TYR619  PRO620  LYS621  CYS622 
 ASP623  PHE694  ASN695  SER759  ASP760  ASP761  ALA762  ILE779  LEU786  VAL792 
 PHE793  MET794  SER795  GLU796  ALA797  LYS798  CYS799  TRP800  GLU811  SER814 

> <Gold.Protein.RotatedAtoms>
  152.5109  134.3846  159.9362 H   0  0  0  0  0  0  0  0  0  0  0  0  # atno 6907 bound_to 6896
  151.3804  133.3817  159.2717 H   0  0  0  0  0  0  0  0  0  0  0  0  # atno 6908 bound_to 6896
  150.9509  134.8929  159.7730 H   0  0  0  0  0  0  0  0  0  0  0  0  # atno 6909 bound_to 6896
  144.9660  139.4658  143.5456 H   0  0  0  0  0  0  0  0  0  0  0  0  # atno 7974 bound_to 7965
  156.0823  140.3269  155.7709 H   0  0  0  0  0  0  0  0  0  0  0  0  # atno 8008 bound_to 7997
  155.5133  140.0579  157.2937 H   0  0  0  0  0  0  0  0  0  0  0  0  # atno 8009 bound_to 7997
  154.4589  140.1957  156.0317 H   0  0  0  0  0  0  0  0  0  0  0  0  # atno 8010 bound_to 7997
  139.6851  144.7114  151.1446 H   0  0  0  0  0  0  0  0  0  0  0  0  # atno 10167 bound_to 10162
  156.0572  130.5798  150.8190 H   0  0  0  0  0  0  0  0  0  0  0  0  # atno 10718 bound_to 10713
  154.4313  135.5963  153.6070 H   0  0  0  0  0  0  0  0  0  0  0  0  # atno 10763 bound_to 10752
  152.9799  135.5976  154.3836 H   0  0  0  0  0  0  0  0  0  0  0  0  # atno 10764 bound_to 10752
  154.3674  135.2841  155.2264 H   0  0  0  0  0  0  0  0  0  0  0  0  # atno 10765 bound_to 10752
  141.1605  133.7556  156.9416 H   0  0  0  0  0  0  0  0  0  0  0  0  # atno 11005 bound_to 11000
  146.3368  139.8841  142.8819 LP  0  0  0  0  0  0  0  0  0  0  0  0  # atno 17320 bound_to 7965
  145.2629  141.0083  143.3816 LP  0  0  0  0  0  0  0  0  0  0  0  0  # atno 17321 bound_to 7965
  140.7665  143.5641  150.9067 LP  0  0  0  0  0  0  0  0  0  0  0  0  # atno 17342 bound_to 10162
  139.9315  143.6488  152.3075 LP  0  0  0  0  0  0  0  0  0  0  0  0  # atno 17343 bound_to 10162
  157.5552  131.0945  150.9638 LP  0  0  0  0  0  0  0  0  0  0  0  0  # atno 17370 bound_to 10713
  156.9889  130.5555  149.5302 LP  0  0  0  0  0  0  0  0  0  0  0  0  # atno 17371 bound_to 10713
  140.1317  134.9351  157.2346 LP  0  0  0  0  0  0  0  0  0  0  0  0  # atno 17394 bound_to 11000
  140.2944  134.3203  155.7306 LP  0  0  0  0  0  0  0  0  0  0  0  0  # atno 17395 bound_to 11000

$$$$
