AV-unprocessed.smi:1866|AV-procd|sdf|7556|dock2
  -GOLD-   22720 9273D 1   1.00000     0.00000
 Structure written by MMmdl.
 30 31  0  0  0  0  0  0  0  0  1 V2000
  147.1567  141.9558  155.1857 C   0  0  0  0  0  0  0  0  0  0  0  0
  146.7858  140.5948  154.7039 C   0  0  0  0  0  0  0  0  0  0  0  0
  145.6873  139.9524  155.1198 N   0  0  0  0  0  0  0  0  0  0  0  0
  145.5561  138.7012  154.5338 N   0  0  0  0  0  0  0  0  0  0  0  0
  146.5634  138.4361  153.6905 C   0  0  0  0  0  0  0  0  0  0  0  0
  146.6801  137.2262  152.9561 N   0  0  0  0  0  0  0  0  0  0  0  0
  145.8253  136.1889  152.9183 C   0  0  0  0  0  0  0  0  0  0  0  0
  144.7615  136.1195  153.5347 O   0  0  0  0  0  0  0  0  0  0  0  0
  146.2780  135.2170  152.1131 N   0  0  0  0  0  0  0  0  0  0  0  0
  145.5817  133.9657  151.8203 C   0  0  2  0  0  0  0  0  0  0  0  0
  146.4789  133.0099  151.0110 C   0  0  0  0  0  0  0  0  0  0  0  0
  145.6753  131.7915  150.5477 C   0  0  0  0  0  0  0  0  0  0  0  0
  144.4687  132.2329  149.7035 C   0  0  0  0  0  0  0  0  0  0  0  0
  143.7288  133.3503  150.2919 N   0  0  0  0  0  0  0  0  0  0  0  0
  144.1961  134.2236  151.2017 C   0  0  0  0  0  0  0  0  0  0  0  0
  143.5244  135.1870  151.5676 O   0  0  0  0  0  0  0  0  0  0  0  0
  147.7662  139.7062  153.5444 S   0  0  0  0  0  0  0  0  0  0  0  0
  146.3155  142.4255  155.6969 H   0  0  0  0  0  0  0  0  0  0  0  0
  147.4472  142.5841  154.3436 H   0  0  0  0  0  0  0  0  0  0  0  0
  147.9949  141.8889  155.8794 H   0  0  0  0  0  0  0  0  0  0  0  0
  147.5123  137.1416  152.3917 H   0  0  0  0  0  0  0  0  0  0  0  0
  147.1592  135.3607  151.6421 H   0  0  0  0  0  0  0  0  0  0  0  0
  145.3614  133.4757  152.7709 H   0  0  0  0  0  0  0  0  0  0  0  0
  146.8903  133.5265  150.1423 H   0  0  0  0  0  0  0  0  0  0  0  0
  147.3291  132.6864  151.6127 H   0  0  0  0  0  0  0  0  0  0  0  0
  146.3075  131.1126  149.9750 H   0  0  0  0  0  0  0  0  0  0  0  0
  145.3293  131.2336  151.4189 H   0  0  0  0  0  0  0  0  0  0  0  0
  144.8084  132.5448  148.7153 H   0  0  0  0  0  0  0  0  0  0  0  0
  143.7892  131.3941  149.5502 H   0  0  0  0  0  0  0  0  0  0  0  0
  142.8010  133.5145  149.9284 H   0  0  0  0  0  0  0  0  0  0  0  0
  1  2  1  0  0  0  0
  1 18  1  0  0  0  0
  1 19  1  0  0  0  0
  1 20  1  0  0  0  0
  2 17  1  0  0  0  0
  2  3  2  0  0  0  0
  3  4  1  0  0  0  0
  4  5  2  0  0  0  0
  5  6  1  0  0  0  0
  5 17  1  0  0  0  0
  6  7  1  0  0  0  0
  6 21  1  0  0  0  0
  7  8  2  0  0  0  0
  7  9  1  0  0  0  0
  9 10  1  0  0  0  0
  9 22  1  0  0  0  0
 10 15  1  0  0  0  0
 10 11  1  0  0  0  0
 10 23  1  0  0  0  0
 11 12  1  0  0  0  0
 11 24  1  0  0  0  0
 11 25  1  0  0  0  0
 12 13  1  0  0  0  0
 12 26  1  0  0  0  0
 12 27  1  0  0  0  0
 13 14  1  0  0  0  0
 13 28  1  0  0  0  0
 13 29  1  0  0  0  0
 14 15  1  0  0  0  0
 14 30  1  0  0  0  0
 15 16  2  0  0  0  0
M  END
> <s_m_source_file>
AV-unprocessed.smi

> <i_m_source_file_index>
1866

> <i_lp_mmshare_version>
43012

> <i_f3d_flags>
0

> <s_epik_input>
W0NIM11jMW5uYyhzMSlbTkhdQyg9TylbTkhdW0NAQEhdMltDSDJdW0NIMl1bQ0gyXVtOSF1DMj1P

> <s_epik_cmdline>
J2VwaWtfcHl0aG9uJywgJy1waCcsICc3LjAnLCAnLXRuJywgJzgnLCAnLW1hJywgJzIwMCcsICctbWV0YWxfYmluZGluZycsICctaW1hZScsICc8aW5maWxlLm1hZT4nLCAnLW9tYWUnLCAnPG91dGZpbGUubWFlPic=

> <r_lp_tautomer_probability>
1

> <r_epik_Ionization_Penalty>
0.00093002

> <r_epik_Ionization_Penalty_Charging>
0

> <r_epik_Ionization_Penalty_Neutral>
0.00093002

> <r_epik_State_Penalty>
-0

> <r_epik_Charging_Adjusted_Penalty>
0

> <i_epik_Tot_Q>
0

> <i_epik_Tot_abs_Q>
0

> <r_epik_Metal_State_Penalty>
0.280775

> <b_epik_Metal_Only>
0

> <s_lp_Force_Field>
OPLS_2005

> <r_lp_Energy>
8.18213

> <b_lp_Chiralities_Consistent>
1

> <s_lp_Variant>
AV-unprocessed.smi:1866-1

> <Gold.Version>
5.8.1

> <Gold.Id.Protein>
6NUR|6NUR_protein|mol2

> <Gold.PLP.Fitness>
31.6370

> <Gold.PLP.PLP>
-23.0887

> <Gold.PLP.part.hbond>
-3.0000

> <Gold.PLP.part.metal>
0.0000

> <Gold.PLP.part.buried>
-3.3084

> <Gold.PLP.part.nonpolar>
-18.0479

> <Gold.PLP.part.repulsive>
0.5373

> <Gold.PLP.ligand.clash>
0.0000

> <Gold.PLP.ligand.torsion>
0.0310

> <Gold.PLP.Chemscore.Hbond>
2.8560

> <Gold.PLP.Chemscore.CHOScore>
0.0000

> <Gold.PLP.Chemscore.Metal>
0.0000

> <Gold.Chemscore.Hbonds>
donor molecule, donor type, donor heavy atom, donor atom, acceptor molecule, acceptor atom, score
      L1  H     6    21       P1  7948  1.00
      L1  H     9    22       P1  7948  0.88
      L1  H    14    30       P1 10186  0.96

> <Gold.PLP.Chemscore.Internal.Correction>
0.0424

> <Gold.Rescore>
     Score         DG    S(hbond)    S(metal)    S(lipo)     H(rot)  DE(clash)    DE(int)     intcor
     13.59     -17.86       2.88        0.00      45.47       1.00       0.00       4.28       ----

> <Gold.Chemscore.Fitness>
13.5855

> <Gold.Chemscore.DG>
-17.8639

> <Gold.Chemscore.ZeroCoef>
-5.4800

> <Gold.Chemscore.Hbond>
2.8813

> <Gold.Chemscore.Metal>
0.0000

> <Gold.Chemscore.Lipo>
45.4720

> <Gold.Chemscore.Internal_Hbond>
0.0000

> <Gold.Chemscore.DEClash>
0.0000

> <Gold.Chemscore.DEInternal>
4.2784

> <Gold.Chemscore.Rot>
1.0000

> <Gold.Chemscore.Internal.Correction>
   9.000000E+99

> <Gold.Chemscore.Hbonds>
donor molecule, donor type, donor heavy atom, donor atom, acceptor molecule, acceptor atom, score
      L1  H     6    21       P1  7948  0.96
      L1  H     9    22       P1  7948  0.83
      L1  H    14    30       P1 10186  0.91

> <Gold.Chemscore.Hbond.Weighted>
-9.6237

> <Gold.Chemscore.Metal.Weighted>
-0.0000

> <Gold.Chemscore.Lipo.Weighted>
-5.3202

> <Gold.Chemscore.Internal_Hbond.Weighted>
0.0000

> <Gold.Chemscore.DEClash.Weighted>
0.0000

> <Gold.Chemscore.DEInternal.Weighted>
4.2784

> <Gold.Chemscore.Rot.Weighted>
2.5600

> <Gold.Chemscore.Internal.Correction.Weighted>
   9.000000E+99

> <Gold.Protein.RotatedTorsions>
[ 6907 6896 6895 6894 ] final   22.57 input  -60.11 | X-H torsion
[ 7974 7965 7964 7962 ] final   65.71 input  175.53 | X-H torsion
[ 8008 7997 7996 7995 ] final -136.45 input   59.86 | X-H torsion
[ 10167 10162 10161 10158 ] final   11.47 input  -65.29 | X-H torsion
[ 10718 10713 10712 10709 ] final  178.04 input   66.30 | X-H torsion
[ 10763 10752 10751 10750 ] final  106.82 input  -60.55 | X-H torsion
[ 11005 11000 10999 10996 ] final   37.59 input  -57.11 | X-H torsion

> <Gold.Protein.ActiveResidues>
 VAL166  LYS551  ARG553  GLY616  TRP617  ASP618  TYR619  PRO620  LYS621  CYS622 
 ASP623  PHE694  ASN695  SER759  ASP760  ASP761  ALA762  ILE779  LEU786  VAL792 
 PHE793  MET794  SER795  GLU796  ALA797  LYS798  CYS799  TRP800  GLU811  SER814 

> <Gold.Protein.RotatedAtoms>
  151.9291  135.0264  160.0527 H   0  0  0  0  0  0  0  0  0  0  0  0  # atno 6907 bound_to 6896
  152.2133  133.4923  159.5130 H   0  0  0  0  0  0  0  0  0  0  0  0  # atno 6908 bound_to 6896
  150.6981  134.1355  159.4128 H   0  0  0  0  0  0  0  0  0  0  0  0  # atno 6909 bound_to 6896
  145.8352  139.3163  143.0964 H   0  0  0  0  0  0  0  0  0  0  0  0  # atno 7974 bound_to 7965
  155.3954  140.0502  157.3039 H   0  0  0  0  0  0  0  0  0  0  0  0  # atno 8008 bound_to 7997
  154.5016  140.2159  155.9296 H   0  0  0  0  0  0  0  0  0  0  0  0  # atno 8009 bound_to 7997
  156.1474  140.3142  155.8598 H   0  0  0  0  0  0  0  0  0  0  0  0  # atno 8010 bound_to 7997
  140.6129  143.8369  150.7086 H   0  0  0  0  0  0  0  0  0  0  0  0  # atno 10167 bound_to 10162
  156.8965  130.9864  151.3042 H   0  0  0  0  0  0  0  0  0  0  0  0  # atno 10718 bound_to 10713
  153.3983  135.3864  155.1970 H   0  0  0  0  0  0  0  0  0  0  0  0  # atno 10763 bound_to 10752
  154.8726  135.3765  154.4651 H   0  0  0  0  0  0  0  0  0  0  0  0  # atno 10764 bound_to 10752
  153.5145  135.7087  153.5825 H   0  0  0  0  0  0  0  0  0  0  0  0  # atno 10765 bound_to 10752
  140.2210  134.3641  155.8005 H   0  0  0  0  0  0  0  0  0  0  0  0  # atno 11005 bound_to 11000
  145.9526  140.8897  143.0251 LP  0  0  0  0  0  0  0  0  0  0  0  0  # atno 17320 bound_to 7965
  144.6737  140.1701  143.7415 LP  0  0  0  0  0  0  0  0  0  0  0  0  # atno 17321 bound_to 7965
  140.1941  143.4012  152.1841 LP  0  0  0  0  0  0  0  0  0  0  0  0  # atno 17342 bound_to 10162
  139.5376  144.7225  151.4842 LP  0  0  0  0  0  0  0  0  0  0  0  0  # atno 17343 bound_to 10162
  157.6052  130.8542  149.8864 LP  0  0  0  0  0  0  0  0  0  0  0  0  # atno 17370 bound_to 10713
  156.0603  130.3701  150.0997 LP  0  0  0  0  0  0  0  0  0  0  0  0  # atno 17371 bound_to 10713
  141.2223  133.7194  156.8576 LP  0  0  0  0  0  0  0  0  0  0  0  0  # atno 17394 bound_to 11000
  140.1849  134.9007  157.2993 LP  0  0  0  0  0  0  0  0  0  0  0  0  # atno 17395 bound_to 11000

$$$$
