AV-unprocessed.smi:3341|AV-procd|sdf|12885|dock3
  -GOLD-   2272019293D 1   1.00000     0.00000
 Structure written by MMmdl.
 46 47  0  0  0  0  0  0  0  0  2 V2000
  151.2169  140.1921  158.2430 C   0  0  0  0  0  0  0  0  0  0  0  0
  151.9709  140.1811  156.9080 C   0  0  0  0  0  0  0  0  0  0  0  0
  151.2883  139.3791  155.9115 N   0  0  0  0  0  0  0  0  0  0  0  0
  150.9850  138.0329  155.9606 C   0  0  0  0  0  0  0  0  0  0  0  0
  150.3425  137.7561  154.7870 C   0  0  0  0  0  0  0  0  0  0  0  0
  149.8187  136.5256  154.3160 N   0  0  0  0  0  0  0  0  0  0  0  0
  149.5225  135.4347  155.0408 C   0  0  0  0  0  0  0  0  0  0  0  0
  149.6479  135.3382  156.2617 O   0  0  0  0  0  0  0  0  0  0  0  0
  149.0584  134.4446  154.2656 N   0  0  0  0  0  0  0  0  0  0  0  0
  148.6511  133.1288  154.7447 C   0  0  0  0  0  0  0  0  0  0  0  0
  148.9452  132.0318  153.7032 C   0  0  0  0  0  0  0  0  0  0  0  0
  147.7865  131.7707  152.8123 N   0  3  1  0  0  0  0  0  0  0  0  0
  146.9727  130.6165  153.2743 C   0  0  0  0  0  0  0  0  0  0  0  0
  145.8743  130.2690  152.2574 C   0  0  0  0  0  0  0  0  0  0  0  0
  144.9861  131.4866  151.9669 C   0  0  0  0  0  0  0  0  0  0  0  0
  145.8289  132.7045  151.5459 C   0  0  2  0  0  0  0  0  0  0  0  0
  146.3804  132.5834  150.1142 C   0  0  0  0  0  0  0  0  0  0  0  0
  146.9428  132.9748  152.5786 C   0  0  0  0  0  0  0  0  0  0  0  0
  150.2925  138.9824  154.0745 C   0  0  0  0  0  0  0  0  0  0  0  0
  150.8648  139.9594  154.7613 N   0  0  0  0  0  0  0  0  0  0  0  0
  151.7473  140.7919  158.9826 H   0  0  0  0  0  0  0  0  0  0  0  0
  151.1132  139.1835  158.6444 H   0  0  0  0  0  0  0  0  0  0  0  0
  150.2173  140.6125  158.1289 H   0  0  0  0  0  0  0  0  0  0  0  0
  152.0824  141.1968  156.5260 H   0  0  0  0  0  0  0  0  0  0  0  0
  152.9766  139.7826  157.0470 H   0  0  0  0  0  0  0  0  0  0  0  0
  151.2508  137.4158  156.8062 H   0  0  0  0  0  0  0  0  0  0  0  0
  149.6545  136.4716  153.3214 H   0  0  0  0  0  0  0  0  0  0  0  0
  148.9896  134.6107  153.2719 H   0  0  0  0  0  0  0  0  0  0  0  0
  149.1925  132.9433  155.6713 H   0  0  0  0  0  0  0  0  0  0  0  0
  147.5903  133.1375  155.0016 H   0  0  0  0  0  0  0  0  0  0  0  0
  149.7919  132.3557  153.0963 H   0  0  0  0  0  0  0  0  0  0  0  0
  149.2540  131.1055  154.1900 H   0  0  0  0  0  0  0  0  0  0  0  0
  147.6123  129.7444  153.4157 H   0  0  0  0  0  0  0  0  0  0  0  0
  146.5305  130.8469  154.2449 H   0  0  0  0  0  0  0  0  0  0  0  0
  146.3283  129.9088  151.3336 H   0  0  0  0  0  0  0  0  0  0  0  0
  145.2644  129.4485  152.6366 H   0  0  0  0  0  0  0  0  0  0  0  0
  144.2497  131.2451  151.1997 H   0  0  0  0  0  0  0  0  0  0  0  0
  144.4196  131.7359  152.8654 H   0  0  0  0  0  0  0  0  0  0  0  0
  145.1666  133.5714  151.5459 H   0  0  0  0  0  0  0  0  0  0  0  0
  147.0788  131.7526  150.0145 H   0  0  0  0  0  0  0  0  0  0  0  0
  146.9075  133.4917  149.8207 H   0  0  0  0  0  0  0  0  0  0  0  0
  145.5749  132.4276  149.3961 H   0  0  0  0  0  0  0  0  0  0  0  0
  146.4979  133.2844  153.5258 H   0  0  0  0  0  0  0  0  0  0  0  0
  147.5507  133.8118  152.2371 H   0  0  0  0  0  0  0  0  0  0  0  0
  149.8695  139.1923  153.1032 H   0  0  0  0  0  0  0  0  0  0  0  0
  148.1703  131.5009  151.9178 H   0  0  0  0  0  0  0  0  0  0  0  0
  1  2  1  0  0  0  0
  1 21  1  0  0  0  0
  1 22  1  0  0  0  0
  1 23  1  0  0  0  0
  2  3  1  0  0  0  0
  2 24  1  0  0  0  0
  2 25  1  0  0  0  0
  3 20  1  0  0  0  0
  3  4  1  0  0  0  0
  4  5  2  0  0  0  0
  4 26  1  0  0  0  0
  5  6  1  0  0  0  0
  5 19  1  0  0  0  0
  6  7  1  0  0  0  0
  6 27  1  0  0  0  0
  7  8  2  0  0  0  0
  7  9  1  0  0  0  0
  9 10  1  0  0  0  0
  9 28  1  0  0  0  0
 10 11  1  0  0  0  0
 10 29  1  0  0  0  0
 10 30  1  0  0  0  0
 11 12  1  0  0  0  0
 11 31  1  0  0  0  0
 11 32  1  0  0  0  0
 12 18  1  0  0  0  0
 12 13  1  0  0  0  0
 12 46  1  0  0  0  0
 13 14  1  0  0  0  0
 13 33  1  0  0  0  0
 13 34  1  0  0  0  0
 14 15  1  0  0  0  0
 14 35  1  0  0  0  0
 14 36  1  0  0  0  0
 15 16  1  0  0  0  0
 15 37  1  0  0  0  0
 15 38  1  0  0  0  0
 16 17  1  0  0  0  0
 16 18  1  0  0  0  0
 16 39  1  0  0  0  0
 17 40  1  0  0  0  0
 17 41  1  0  0  0  0
 17 42  1  0  0  0  0
 18 43  1  0  0  0  0
 18 44  1  0  0  0  0
 19 20  2  0  0  0  0
 19 45  1  0  0  0  0
M  CHG  1  12   1
M  END
> <s_m_source_file>
AV-unprocessed.smi

> <i_m_source_file_index>
3341

> <i_lp_mmshare_version>
43012

> <i_f3d_flags>
0

> <s_epik_input>
W0NIM11bQ0gyXW4xW2NIXWMoW2NIXW4xKVtOSF1DKD1PKVtOSF1bQ0gyXVtDSDJdTjJbQ0gyXVtDSDJdW0NIMl1bQ0BASF0oW0NIM10pW0NIMl0y

> <s_epik_cmdline>
J2VwaWtfcHl0aG9uJywgJy1waCcsICc3LjAnLCAnLXRuJywgJzgnLCAnLW1hJywgJzIwMCcsICctbWV0YWxfYmluZGluZycsICctaW1hZScsICc8aW5maWxlLm1hZT4nLCAnLW9tYWUnLCAnPG91dGZpbGUubWFlPic=

> <r_lp_tautomer_probability>
1

> <r_epik_Ionization_Penalty>
0.00203389

> <r_epik_Ionization_Penalty_Charging>
0.00188267

> <r_epik_Ionization_Penalty_Neutral>
0.000151224

> <r_epik_State_Penalty>
0.0012808

> <r_epik_Charging_Adjusted_Penalty>
0.00316346

> <i_epik_Tot_Q>
1

> <i_epik_Tot_abs_Q>
1

> <r_epik_Metal_State_Penalty>
-0

> <b_epik_Metal_Only>
0

> <s_lp_Force_Field>
OPLS_2005

> <r_lp_Energy>
23.1635

> <b_lp_Chiralities_Consistent>
1

> <s_lp_Variant>
AV-unprocessed.smi:3341-3

> <Gold.Version>
5.8.1

> <Gold.Id.Protein>
6NUR|6NUR_protein|mol2

> <Gold.PLP.Fitness>
47.1039

> <Gold.PLP.PLP>
-35.2961

> <Gold.PLP.part.hbond>
-4.8905

> <Gold.PLP.part.metal>
0.0000

> <Gold.PLP.part.buried>
-2.0892

> <Gold.PLP.part.nonpolar>
-27.4181

> <Gold.PLP.part.repulsive>
0.1563

> <Gold.PLP.ligand.clash>
0.0000

> <Gold.PLP.ligand.torsion>
0.9012

> <Gold.PLP.Chemscore.Hbond>
3.5184

> <Gold.PLP.Chemscore.CHOScore>
1.0000

> <Gold.PLP.Chemscore.Metal>
0.0000

> <Gold.Chemscore.Hbonds>
donor molecule, donor type, donor heavy atom, donor atom, acceptor molecule, acceptor atom, score
      L1  H     6    27       P1  7948  1.00
      L1  H     9    28       P1  7948  0.51
      L1  H    12    46       P1 10747  1.00
      P1  H  7989  7998       L1    20  1.00
      L1  C    19    45       P1  7957  1.00

> <Gold.PLP.Chemscore.Internal.Correction>
0.0550

> <Gold.Rescore>
     Score         DG    S(hbond)    S(metal)    S(lipo)     H(rot)  DE(clash)    DE(int)     intcor
     16.44     -18.06       2.16        0.00      80.72       1.59       0.01       1.60       ----

> <Gold.Chemscore.Fitness>
16.4419

> <Gold.Chemscore.DG>
-18.0553

> <Gold.Chemscore.ZeroCoef>
-5.4800

> <Gold.Chemscore.Hbond>
2.1569

> <Gold.Chemscore.Metal>
0.0000

> <Gold.Chemscore.Lipo>
80.7174

> <Gold.Chemscore.Internal_Hbond>
0.0000

> <Gold.Chemscore.DEClash>
0.0149

> <Gold.Chemscore.DEInternal>
1.5986

> <Gold.Chemscore.Rot>
1.5909

> <Gold.Chemscore.Internal.Correction>
   9.000000E+99

> <Gold.Chemscore.Hbonds>
donor molecule, donor type, donor heavy atom, donor atom, acceptor molecule, acceptor atom, score
      L1  H     6    27       P1  7948  0.39
      L1  H     9    28       P1  7948  0.06
      L1  H    12    46       P1 10747  0.99
      P1  H  7989  7998       L1    20  0.35

> <Gold.Chemscore.Hbond.Weighted>
-7.2042

> <Gold.Chemscore.Metal.Weighted>
-0.0000

> <Gold.Chemscore.Lipo.Weighted>
-9.4439

> <Gold.Chemscore.Internal_Hbond.Weighted>
0.0000

> <Gold.Chemscore.DEClash.Weighted>
0.0149

> <Gold.Chemscore.DEInternal.Weighted>
1.5986

> <Gold.Chemscore.Rot.Weighted>
4.0728

> <Gold.Chemscore.Internal.Correction.Weighted>
   9.000000E+99

> <Gold.Protein.RotatedTorsions>
[ 6907 6896 6895 6894 ] final  -86.56 input  -60.11 | X-H torsion
[ 7974 7965 7964 7962 ] final -146.14 input  175.53 | X-H torsion
[ 8008 7997 7996 7995 ] final -172.75 input   59.86 | X-H torsion
[ 10167 10162 10161 10158 ] final   74.73 input  -65.29 | X-H torsion
[ 10718 10713 10712 10709 ] final  102.16 input   66.30 | X-H torsion
[ 10763 10752 10751 10750 ] final   31.07 input  -60.55 | X-H torsion
[ 11005 11000 10999 10996 ] final -152.86 input  -57.11 | X-H torsion

> <Gold.Protein.ActiveResidues>
 VAL166  LYS551  ARG553  GLY616  TRP617  ASP618  TYR619  PRO620  LYS621  CYS622 
 ASP623  PHE694  ASN695  SER759  ASP760  ASP761  ALA762  ILE779  LEU786  VAL792 
 PHE793  MET794  SER795  GLU796  ALA797  LYS798  CYS799  TRP800  GLU811  SER814 

> <Gold.Protein.RotatedAtoms>
  150.6867  134.3032  159.4714 H   0  0  0  0  0  0  0  0  0  0  0  0  # atno 6907 bound_to 6896
  152.0926  134.9394  160.0581 H   0  0  0  0  0  0  0  0  0  0  0  0  # atno 6908 bound_to 6896
  152.0704  133.4069  159.4494 H   0  0  0  0  0  0  0  0  0  0  0  0  # atno 6909 bound_to 6896
  144.8179  140.5493  143.5598 H   0  0  0  0  0  0  0  0  0  0  0  0  # atno 7974 bound_to 7965
  155.9487  140.1122  157.0995 H   0  0  0  0  0  0  0  0  0  0  0  0  # atno 8008 bound_to 7997
  154.4105  140.1205  156.5089 H   0  0  0  0  0  0  0  0  0  0  0  0  # atno 8009 bound_to 7997
  155.6870  140.3473  155.4880 H   0  0  0  0  0  0  0  0  0  0  0  0  # atno 8010 bound_to 7997
  140.0105  144.5617  150.7662 H   0  0  0  0  0  0  0  0  0  0  0  0  # atno 10167 bound_to 10162
  157.6810  131.0745  150.5362 H   0  0  0  0  0  0  0  0  0  0  0  0  # atno 10718 bound_to 10713
  153.0336  135.6448  154.1142 H   0  0  0  0  0  0  0  0  0  0  0  0  # atno 10763 bound_to 10752
  154.0860  135.2870  155.3282 H   0  0  0  0  0  0  0  0  0  0  0  0  # atno 10764 bound_to 10752
  154.6497  135.5430  153.7951 H   0  0  0  0  0  0  0  0  0  0  0  0  # atno 10765 bound_to 10752
  140.7143  134.3798  157.5193 H   0  0  0  0  0  0  0  0  0  0  0  0  # atno 11005 bound_to 11000
  145.5172  139.1477  143.3572 LP  0  0  0  0  0  0  0  0  0  0  0  0  # atno 17320 bound_to 7965
  146.2483  140.5313  142.8904 LP  0  0  0  0  0  0  0  0  0  0  0  0  # atno 17321 bound_to 7965
  140.7383  143.2776  151.3694 LP  0  0  0  0  0  0  0  0  0  0  0  0  # atno 17342 bound_to 10162
  139.6208  144.0911  152.2389 LP  0  0  0  0  0  0  0  0  0  0  0  0  # atno 17343 bound_to 10162
  156.5670  130.4270  149.6037 LP  0  0  0  0  0  0  0  0  0  0  0  0  # atno 17370 bound_to 10713
  156.2773  130.7051  151.1865 LP  0  0  0  0  0  0  0  0  0  0  0  0  # atno 17371 bound_to 10713
  139.8864  134.8911  156.2589 LP  0  0  0  0  0  0  0  0  0  0  0  0  # atno 17394 bound_to 11000
  141.0058  133.7125  156.1032 LP  0  0  0  0  0  0  0  0  0  0  0  0  # atno 17395 bound_to 11000

$$$$
