AV-unprocessed.smi:365|AV-procd|sdf|2428|dock4
  -GOLD-   2262022363D 1   1.00000     0.00000
 Structure written by MMmdl.
 53 54  0  0  0  0  0  0  0  0  1 V2000
  143.9429  141.1289  157.4716 C   0  0  0  0  0  0  0  0  0  0  0  0
  143.6495  140.8270  155.9883 C   0  0  1  0  0  0  0  0  0  0  0  0
  144.8440  140.8200  155.1367 N   0  0  0  0  0  0  0  0  0  0  0  0
  146.1362  140.6844  155.4920 C   0  0  0  0  0  0  0  0  0  0  0  0
  146.4966  140.5017  156.6554 O   0  0  0  0  0  0  0  0  0  0  0  0
  147.1740  140.7460  154.3460 C   0  0  0  0  0  0  0  0  0  0  0  0
  146.9257  139.5759  153.3713 C   0  0  0  0  0  0  0  0  0  0  0  0
  148.6100  140.6261  154.9051 C   0  0  0  0  0  0  0  0  0  0  0  0
  147.0523  142.0924  153.5998 C   0  0  0  0  0  0  0  0  0  0  0  0
  142.7508  139.6013  155.7718 C   0  0  0  0  0  0  0  0  0  0  0  0
  142.4129  138.8930  156.7208 O   0  0  0  0  0  0  0  0  0  0  0  0
  142.3488  139.3774  154.5113 N   0  0  0  0  0  0  0  0  0  0  0  0
  141.4564  138.3007  154.0947 C   0  0  0  0  0  0  0  0  0  0  0  0
  142.1662  137.1300  153.4299 C   0  0  0  0  0  0  0  0  0  0  0  0
  141.7503  135.8095  153.6857 C   0  0  0  0  0  0  0  0  0  0  0  0
  142.4337  134.7422  153.0717 C   0  0  0  0  0  0  0  0  0  0  0  0
  143.5289  135.0208  152.2138 C   0  0  0  0  0  0  0  0  0  0  0  0
  144.2564  133.9971  151.5618 N   0  0  0  0  0  0  0  0  0  0  0  0
  143.4770  132.9018  150.9830 C   0  0  0  0  0  0  0  0  0  0  0  0
  144.3873  131.7154  150.6236 C   0  0  0  0  0  0  0  0  0  0  0  0
  145.4460  132.1560  149.7815 O   0  0  0  0  0  0  0  0  0  0  0  0
  146.2678  133.1163  150.4344 C   0  0  0  0  0  0  0  0  0  0  0  0
  145.4369  134.3630  150.7823 C   0  0  0  0  0  0  0  0  0  0  0  0
  143.9241  136.2954  151.9751 N   0  0  0  0  0  0  0  0  0  0  0  0
  143.2656  137.3141  152.5653 C   0  0  0  0  0  0  0  0  0  0  0  0
  143.0184  141.3200  158.0174 H   0  0  0  0  0  0  0  0  0  0  0  0
  144.5722  142.0131  157.5777 H   0  0  0  0  0  0  0  0  0  0  0  0
  144.4406  140.2980  157.9713 H   0  0  0  0  0  0  0  0  0  0  0  0
  143.0825  141.6824  155.6177 H   0  0  0  0  0  0  0  0  0  0  0  0
  144.6675  140.9439  154.1505 H   0  0  0  0  0  0  0  0  0  0  0  0
  147.6674  139.5654  152.5719 H   0  0  0  0  0  0  0  0  0  0  0  0
  145.9449  139.6405  152.8984 H   0  0  0  0  0  0  0  0  0  0  0  0
  146.9823  138.6127  153.8806 H   0  0  0  0  0  0  0  0  0  0  0  0
  148.7663  139.6756  155.4175 H   0  0  0  0  0  0  0  0  0  0  0  0
  148.8356  141.4256  155.6125 H   0  0  0  0  0  0  0  0  0  0  0  0
  149.3500  140.6849  154.1063 H   0  0  0  0  0  0  0  0  0  0  0  0
  147.8137  142.1816  152.8242 H   0  0  0  0  0  0  0  0  0  0  0  0
  147.1789  142.9375  154.2779 H   0  0  0  0  0  0  0  0  0  0  0  0
  146.0842  142.2037  153.1097 H   0  0  0  0  0  0  0  0  0  0  0  0
  142.6695  140.0090  153.7917 H   0  0  0  0  0  0  0  0  0  0  0  0
  140.9425  137.9270  154.9804 H   0  0  0  0  0  0  0  0  0  0  0  0
  140.6814  138.6907  153.4323 H   0  0  0  0  0  0  0  0  0  0  0  0
  140.9186  135.6118  154.3459 H   0  0  0  0  0  0  0  0  0  0  0  0
  142.1069  133.7358  153.2828 H   0  0  0  0  0  0  0  0  0  0  0  0
  142.7054  132.5486  151.6671 H   0  0  0  0  0  0  0  0  0  0  0  0
  142.9689  133.2674  150.0897 H   0  0  0  0  0  0  0  0  0  0  0  0
  144.7925  131.2503  151.5238 H   0  0  0  0  0  0  0  0  0  0  0  0
  143.8149  130.9492  150.1008 H   0  0  0  0  0  0  0  0  0  0  0  0
  146.7119  132.6817  151.3316 H   0  0  0  0  0  0  0  0  0  0  0  0
  147.0906  133.3870  149.7729 H   0  0  0  0  0  0  0  0  0  0  0  0
  145.1223  134.8716  149.8702 H   0  0  0  0  0  0  0  0  0  0  0  0
  146.0672  135.0513  151.3456 H   0  0  0  0  0  0  0  0  0  0  0  0
  143.6381  138.3030  152.3411 H   0  0  0  0  0  0  0  0  0  0  0  0
  1  2  1  0  0  0  0
  1 26  1  0  0  0  0
  1 27  1  0  0  0  0
  1 28  1  0  0  0  0
  2  3  1  0  0  0  0
  2 10  1  0  0  0  0
  2 29  1  0  0  0  0
  3  4  1  0  0  0  0
  3 30  1  0  0  0  0
  4  5  2  0  0  0  0
  4  6  1  0  0  0  0
  6  7  1  0  0  0  0
  6  8  1  0  0  0  0
  6  9  1  0  0  0  0
  7 31  1  0  0  0  0
  7 32  1  0  0  0  0
  7 33  1  0  0  0  0
  8 34  1  0  0  0  0
  8 35  1  0  0  0  0
  8 36  1  0  0  0  0
  9 37  1  0  0  0  0
  9 38  1  0  0  0  0
  9 39  1  0  0  0  0
 10 11  2  0  0  0  0
 10 12  1  0  0  0  0
 12 13  1  0  0  0  0
 12 40  1  0  0  0  0
 13 14  1  0  0  0  0
 13 41  1  0  0  0  0
 13 42  1  0  0  0  0
 14 25  1  0  0  0  0
 14 15  2  0  0  0  0
 15 16  1  0  0  0  0
 15 43  1  0  0  0  0
 16 17  2  0  0  0  0
 16 44  1  0  0  0  0
 17 18  1  0  0  0  0
 17 24  1  0  0  0  0
 18 23  1  0  0  0  0
 18 19  1  0  0  0  0
 19 20  1  0  0  0  0
 19 45  1  0  0  0  0
 19 46  1  0  0  0  0
 20 21  1  0  0  0  0
 20 47  1  0  0  0  0
 20 48  1  0  0  0  0
 21 22  1  0  0  0  0
 22 23  1  0  0  0  0
 22 49  1  0  0  0  0
 22 50  1  0  0  0  0
 23 51  1  0  0  0  0
 23 52  1  0  0  0  0
 24 25  2  0  0  0  0
 25 53  1  0  0  0  0
M  END
> <s_m_source_file>
AV-unprocessed.smi

> <i_m_source_file_index>
365

> <i_lp_mmshare_version>
43012

> <i_f3d_flags>
0

> <s_epik_input>
W0NIM11DKFtDSDNdKShbQ0gzXSlDKD1PKVtOSF1bQ0BASF0oW0NIM10pQyg9TylbTkhdW0NIMl1jMVtjSF1bY0hdYyhuW2NIXTEpTjJbQ0gyXVtDSDJdT1tDSDJdW0NIMl0y

> <s_epik_cmdline>
J2VwaWtfcHl0aG9uJywgJy1waCcsICc3LjAnLCAnLXRuJywgJzgnLCAnLW1hJywgJzIwMCcsICctbWV0YWxfYmluZGluZycsICctaW1hZScsICc8aW5maWxlLm1hZT4nLCAnLW9tYWUnLCAnPG91dGZpbGUubWFlPic=

> <r_lp_tautomer_probability>
1

> <r_epik_Ionization_Penalty>
0.00484327

> <r_epik_Ionization_Penalty_Charging>
0

> <r_epik_Ionization_Penalty_Neutral>
0.00484327

> <r_epik_State_Penalty>
0.0035131

> <r_epik_Charging_Adjusted_Penalty>
0.0035131

> <i_epik_Tot_Q>
0

> <i_epik_Tot_abs_Q>
0

> <r_epik_Metal_State_Penalty>
-0

> <b_epik_Metal_Only>
0

> <s_lp_Force_Field>
OPLS_2005

> <r_lp_Energy>
26.0036

> <b_lp_Chiralities_Consistent>
1

> <s_lp_Variant>
AV-unprocessed.smi:365-2

> <Gold.Version>
5.8.1

> <Gold.Id.Protein>
6NUR|6NUR_protein|mol2

> <Gold.PLP.Fitness>
45.4718

> <Gold.PLP.PLP>
-35.6326

> <Gold.PLP.part.hbond>
-2.0000

> <Gold.PLP.part.metal>
0.0000

> <Gold.PLP.part.buried>
-6.8761

> <Gold.PLP.part.nonpolar>
-27.4784

> <Gold.PLP.part.repulsive>
0.4695

> <Gold.PLP.ligand.clash>
0.0000

> <Gold.PLP.ligand.torsion>
0.9454

> <Gold.PLP.Chemscore.Hbond>
2.0000

> <Gold.PLP.Chemscore.CHOScore>
1.6539

> <Gold.PLP.Chemscore.Metal>
0.0000

> <Gold.Chemscore.Hbonds>
donor molecule, donor type, donor heavy atom, donor atom, acceptor molecule, acceptor atom, score
      L1  H     3    30       P1 10175  1.00
      L1  H    12    40       P1 10175  1.00
      L1  C    25    53       P1 10171  0.59
      L1  C    25    53       P1 10175  1.00

> <Gold.PLP.Chemscore.Internal.Correction>
0.7684

> <Gold.Rescore>
     Score         DG    S(hbond)    S(metal)    S(lipo)     H(rot)  DE(clash)    DE(int)     intcor
     12.81     -16.61       1.95        0.00      83.89       2.04       1.43       2.37       ----

> <Gold.Chemscore.Fitness>
12.8085

> <Gold.Chemscore.DG>
-16.6053

> <Gold.Chemscore.ZeroCoef>
-5.4800

> <Gold.Chemscore.Hbond>
1.9535

> <Gold.Chemscore.Metal>
0.0000

> <Gold.Chemscore.Lipo>
83.8855

> <Gold.Chemscore.Internal_Hbond>
0.0000

> <Gold.Chemscore.DEClash>
1.4295

> <Gold.Chemscore.DEInternal>
2.3673

> <Gold.Chemscore.Rot>
2.0367

> <Gold.Chemscore.Internal.Correction>
   9.000000E+99

> <Gold.Chemscore.Hbonds>
donor molecule, donor type, donor heavy atom, donor atom, acceptor molecule, acceptor atom, score
      L1  H     3    30       P1 10175  0.86
      L1  H    12    40       P1 10175  0.98

> <Gold.Chemscore.Hbond.Weighted>
-6.5247

> <Gold.Chemscore.Metal.Weighted>
-0.0000

> <Gold.Chemscore.Lipo.Weighted>
-9.8146

> <Gold.Chemscore.Internal_Hbond.Weighted>
0.0000

> <Gold.Chemscore.DEClash.Weighted>
1.4295

> <Gold.Chemscore.DEInternal.Weighted>
2.3673

> <Gold.Chemscore.Rot.Weighted>
5.2140

> <Gold.Chemscore.Internal.Correction.Weighted>
   9.000000E+99

> <Gold.Protein.RotatedTorsions>
[ 6907 6896 6895 6894 ] final  150.68 input  -60.11 | X-H torsion
[ 7974 7965 7964 7962 ] final -136.29 input  175.53 | X-H torsion
[ 8008 7997 7996 7995 ] final -141.76 input   59.86 | X-H torsion
[ 10167 10162 10161 10158 ] final  -83.58 input  -65.29 | X-H torsion
[ 10718 10713 10712 10709 ] final  146.88 input   66.30 | X-H torsion
[ 10763 10752 10751 10750 ] final  -94.20 input  -60.55 | X-H torsion
[ 11005 11000 10999 10996 ] final  157.85 input  -57.11 | X-H torsion

> <Gold.Protein.ActiveResidues>
 VAL166  LYS551  ARG553  GLY616  TRP617  ASP618  TYR619  PRO620  LYS621  CYS622 
 ASP623  PHE694  ASN695  SER759  ASP760  ASP761  ALA762  ILE779  LEU786  VAL792 
 PHE793  MET794  SER795  GLU796  ALA797  LYS798  CYS799  TRP800  GLU811  SER814 

> <Gold.Protein.RotatedAtoms>
  152.1111  133.4301  159.4631 H   0  0  0  0  0  0  0  0  0  0  0  0  # atno 6907 bound_to 6896
  150.6867  134.2647  159.4572 H   0  0  0  0  0  0  0  0  0  0  0  0  # atno 6908 bound_to 6896
  152.0515  134.9650  160.0625 H   0  0  0  0  0  0  0  0  0  0  0  0  # atno 6909 bound_to 6896
  144.8940  140.6681  143.5127 H   0  0  0  0  0  0  0  0  0  0  0  0  # atno 7974 bound_to 7965
  155.4831  140.0562  157.2964 H   0  0  0  0  0  0  0  0  0  0  0  0  # atno 8008 bound_to 7997
  154.4652  140.2015  156.0088 H   0  0  0  0  0  0  0  0  0  0  0  0  # atno 8009 bound_to 7997
  156.0962  140.3226  155.7885 H   0  0  0  0  0  0  0  0  0  0  0  0  # atno 8010 bound_to 7997
  140.4213  143.2583  151.8886 H   0  0  0  0  0  0  0  0  0  0  0  0  # atno 10167 bound_to 10162
  157.3278  131.0915  151.1188 H   0  0  0  0  0  0  0  0  0  0  0  0  # atno 10718 bound_to 10713
  154.7032  135.5166  153.8558 H   0  0  0  0  0  0  0  0  0  0  0  0  # atno 10763 bound_to 10752
  153.0721  135.6604  154.0234 H   0  0  0  0  0  0  0  0  0  0  0  0  # atno 10764 bound_to 10752
  154.0090  135.3004  155.3374 H   0  0  0  0  0  0  0  0  0  0  0  0  # atno 10765 bound_to 10752
  140.1809  134.8476  157.2801 H   0  0  0  0  0  0  0  0  0  0  0  0  # atno 11005 bound_to 11000
  145.3733  139.1653  143.4320 LP  0  0  0  0  0  0  0  0  0  0  0  0  # atno 17320 bound_to 7965
  146.3070  140.3807  142.8684 LP  0  0  0  0  0  0  0  0  0  0  0  0  # atno 17321 bound_to 7965
  139.4782  144.5434  151.8494 LP  0  0  0  0  0  0  0  0  0  0  0  0  # atno 17342 bound_to 10162
  140.4530  144.1828  150.5899 LP  0  0  0  0  0  0  0  0  0  0  0  0  # atno 17343 bound_to 10162
  157.2448  130.6586  149.5905 LP  0  0  0  0  0  0  0  0  0  0  0  0  # atno 17370 bound_to 10713
  155.9692  130.4557  150.5897 LP  0  0  0  0  0  0  0  0  0  0  0  0  # atno 17371 bound_to 10713
  140.2269  134.3956  155.7540 LP  0  0  0  0  0  0  0  0  0  0  0  0  # atno 17394 bound_to 11000
  141.2223  133.7194  156.8578 LP  0  0  0  0  0  0  0  0  0  0  0  0  # atno 17395 bound_to 11000

$$$$
