AV-unprocessed.smi:3228|AV-procd|sdf|12325|dock10
  -GOLD-   2272018173D 1   1.00000     0.00000
 Structure written by MMmdl.
 30 31  0  0  0  0  0  0  0  0  2 V2000
  150.6848  141.0067  157.6911 O   0  0  0  0  0  0  0  0  0  0  0  0
  151.8628  140.6413  157.6845 C   0  0  0  0  0  0  0  0  0  0  0  0
  152.6695  140.9666  158.7048 N   0  0  0  0  0  0  0  0  0  0  0  0
  152.2956  141.7601  159.8716 C   0  0  0  0  0  0  0  0  0  0  0  0
  152.5255  143.2691  159.6402 C   0  0  2  0  0  0  0  0  0  0  0  0
  152.0325  144.1845  160.7672 C   0  0  0  0  0  0  0  0  0  0  0  0
  151.8857  145.5744  160.1307 C   0  0  0  0  0  0  0  0  0  0  0  0
  151.9401  145.3674  158.6077 C   0  0  0  0  0  0  0  0  0  0  0  0
  151.8745  143.8526  158.3781 C   0  0  2  0  0  0  0  0  0  0  0  0
  150.5177  143.4633  158.2647 O   0  0  0  0  0  0  0  0  0  0  0  0
  152.4722  139.9183  156.7175 N   0  5  0  0  0  0  0  0  0  0  0  0
  151.7388  139.1808  155.8678 C   0  0  0  0  0  0  0  0  0  0  0  0
  150.9613  139.7163  154.9197 N   0  0  0  0  0  0  0  0  0  0  0  0
  150.2844  138.7650  154.1541 C   0  0  0  0  0  0  0  0  0  0  0  0
  150.5450  137.4752  154.5346 C   0  0  0  0  0  0  0  0  0  0  0  0
  151.6558  137.4166  155.8734 S   0  0  0  0  0  0  0  0  0  0  0  0
  153.6257  140.6463  158.6582 H   0  0  0  0  0  0  0  0  0  0  0  0
  151.2532  141.5704  160.1315 H   0  0  0  0  0  0  0  0  0  0  0  0
  152.8921  141.4072  160.7128 H   0  0  0  0  0  0  0  0  0  0  0  0
  153.5997  143.4339  159.5396 H   0  0  0  0  0  0  0  0  0  0  0  0
  151.0595  143.8433  161.1236 H   0  0  0  0  0  0  0  0  0  0  0  0
  152.7104  144.1891  161.6214 H   0  0  0  0  0  0  0  0  0  0  0  0
  150.9457  146.0364  160.4342 H   0  0  0  0  0  0  0  0  0  0  0  0
  152.6916  146.2358  160.4509 H   0  0  0  0  0  0  0  0  0  0  0  0
  151.1545  145.9122  158.0822 H   0  0  0  0  0  0  0  0  0  0  0  0
  152.8934  145.7437  158.2341 H   0  0  0  0  0  0  0  0  0  0  0  0
  152.4032  143.5549  157.4719 H   0  0  0  0  0  0  0  0  0  0  0  0
  150.1739  143.8114  157.4561 H   0  0  0  0  0  0  0  0  0  0  0  0
  149.6343  139.0963  153.3581 H   0  0  0  0  0  0  0  0  0  0  0  0
  150.1533  136.5616  154.1137 H   0  0  0  0  0  0  0  0  0  0  0  0
  1  2  2  0  0  0  0
  2  3  1  0  0  0  0
  2 11  1  0  0  0  0
  3  4  1  0  0  0  0
  3 17  1  0  0  0  0
  4  5  1  0  0  0  0
  4 18  1  0  0  0  0
  4 19  1  0  0  0  0
  5  9  1  0  0  0  0
  5  6  1  0  0  0  0
  5 20  1  0  0  0  0
  6  7  1  0  0  0  0
  6 21  1  0  0  0  0
  6 22  1  0  0  0  0
  7  8  1  0  0  0  0
  7 23  1  0  0  0  0
  7 24  1  0  0  0  0
  8  9  1  0  0  0  0
  8 25  1  0  0  0  0
  8 26  1  0  0  0  0
  9 10  1  0  0  0  0
  9 27  1  0  0  0  0
 10 28  1  0  0  0  0
 11 12  1  0  0  0  0
 12 16  1  0  0  0  0
 12 13  2  0  0  0  0
 13 14  1  0  0  0  0
 14 15  2  0  0  0  0
 14 29  1  0  0  0  0
 15 16  1  0  0  0  0
 15 30  1  0  0  0  0
M  CHG  1  11  -1
M  END
> <s_m_source_file>
AV-unprocessed.smi

> <i_m_source_file_index>
3228

> <i_lp_mmshare_version>
43012

> <i_f3d_flags>
0

> <s_epik_input>
czFbY0hdW2NIXW5jMVtOSF1DKD1PKVtOSF1bQ0gyXVtDQEBIXTJbQ0gyXVtDSDJdW0NIMl1bQ0BIXTJbT0hd

> <s_epik_cmdline>
J2VwaWtfcHl0aG9uJywgJy1waCcsICc3LjAnLCAnLXRuJywgJzgnLCAnLW1hJywgJzIwMCcsICctbWV0YWxfYmluZGluZycsICctaW1hZScsICc8aW5maWxlLm1hZT4nLCAnLW9tYWUnLCAnPG91dGZpbGUubWFlPic=

> <r_lp_tautomer_probability>
0.999

> <r_epik_Ionization_Penalty>
8.49756

> <r_epik_Ionization_Penalty_Charging>
6.79645

> <r_epik_Ionization_Penalty_Neutral>
1.70111

> <r_epik_State_Penalty>
6.79662

> <r_epik_Charging_Adjusted_Penalty>
13.5931

> <i_epik_Tot_Q>
-1

> <i_epik_Tot_abs_Q>
1

> <r_epik_Metal_State_Penalty>
2.71629

> <b_epik_Metal_Only>
1

> <s_lp_Force_Field>
OPLS_2005

> <r_lp_Energy>
19.9343

> <b_lp_Chiralities_Consistent>
1

> <s_lp_Variant>
AV-unprocessed.smi:3228-7

> <Gold.Version>
5.8.1

> <Gold.Id.Protein>
6NUR|6NUR_protein|mol2

> <Gold.PLP.Fitness>
50.3550

> <Gold.PLP.PLP>
-36.4276

> <Gold.PLP.part.hbond>
-2.3682

> <Gold.PLP.part.metal>
0.0000

> <Gold.PLP.part.buried>
-4.4346

> <Gold.PLP.part.nonpolar>
-30.1402

> <Gold.PLP.part.repulsive>
0.1778

> <Gold.PLP.ligand.clash>
0.0000

> <Gold.PLP.ligand.torsion>
0.9738

> <Gold.PLP.Chemscore.Hbond>
3.3250

> <Gold.PLP.Chemscore.CHOScore>
1.9640

> <Gold.PLP.Chemscore.Metal>
0.0000

> <Gold.Chemscore.Hbonds>
donor molecule, donor type, donor heavy atom, donor atom, acceptor molecule, acceptor atom, score
      L1  H    10    28       P1  8028  0.15
      P1  H  7989  7998       L1    13  1.00
      P1  H  7997  8009       L1    11  2.00
      L1  C    14    29       P1  7957  1.00
      L1  C    15    30       P1  7948  0.93
      L1  C    15    30       P1  7949  0.02

> <Gold.PLP.Chemscore.Internal.Correction>
0.0080

> <Gold.Rescore>
     Score         DG    S(hbond)    S(metal)    S(lipo)     H(rot)  DE(clash)    DE(int)     intcor
     18.41     -20.88       2.80        0.00      92.28       1.85       1.40       1.08       ----

> <Gold.Chemscore.Fitness>
18.4050

> <Gold.Chemscore.DG>
-20.8846

> <Gold.Chemscore.ZeroCoef>
-5.4800

> <Gold.Chemscore.Hbond>
2.7961

> <Gold.Chemscore.Metal>
0.0000

> <Gold.Chemscore.Lipo>
92.2821

> <Gold.Chemscore.Internal_Hbond>
0.0000

> <Gold.Chemscore.DEClash>
1.3962

> <Gold.Chemscore.DEInternal>
1.0834

> <Gold.Chemscore.Rot>
1.8481

> <Gold.Chemscore.Internal.Correction>
   9.000000E+99

> <Gold.Chemscore.Hbonds>
donor molecule, donor type, donor heavy atom, donor atom, acceptor molecule, acceptor atom, score
      L1  H    10    28       P1  8028  0.15
      P1  H  7989  7998       L1    13  0.25
      P1  H  7997  8009       L1    11  0.94

> <Gold.Chemscore.Hbond.Weighted>
-9.3389

> <Gold.Chemscore.Metal.Weighted>
-0.0000

> <Gold.Chemscore.Lipo.Weighted>
-10.7970

> <Gold.Chemscore.Internal_Hbond.Weighted>
0.0000

> <Gold.Chemscore.DEClash.Weighted>
1.3962

> <Gold.Chemscore.DEInternal.Weighted>
1.0834

> <Gold.Chemscore.Rot.Weighted>
4.7313

> <Gold.Chemscore.Internal.Correction.Weighted>
   9.000000E+99

> <Gold.Protein.RotatedTorsions>
[ 6907 6896 6895 6894 ] final  -84.56 input  -60.11 | X-H torsion
[ 7974 7965 7964 7962 ] final -103.76 input  175.53 | X-H torsion
[ 8008 7997 7996 7995 ] final -171.29 input   59.86 | X-H torsion
[ 10167 10162 10161 10158 ] final  -78.01 input  -65.29 | X-H torsion
[ 10718 10713 10712 10709 ] final -100.86 input   66.30 | X-H torsion
[ 10763 10752 10751 10750 ] final  147.57 input  -60.55 | X-H torsion
[ 11005 11000 10999 10996 ] final  135.32 input  -57.11 | X-H torsion

> <Gold.Protein.ActiveResidues>
 VAL166  LYS551  ARG553  GLY616  TRP617  ASP618  TYR619  PRO620  LYS621  CYS622 
 ASP623  PHE694  ASN695  SER759  ASP760  ASP761  ALA762  ILE779  LEU786  VAL792 
 PHE793  MET794  SER795  GLU796  ALA797  LYS798  CYS799  TRP800  GLU811  SER814 

> <Gold.Protein.RotatedAtoms>
  150.6875  134.3339  159.4838 H   0  0  0  0  0  0  0  0  0  0  0  0  # atno 6907 bound_to 6896
  152.1201  134.9209  160.0572 H   0  0  0  0  0  0  0  0  0  0  0  0  # atno 6908 bound_to 6896
  152.0419  133.3946  159.4377 H   0  0  0  0  0  0  0  0  0  0  0  0  # atno 6909 bound_to 6896
  145.2518  140.9240  143.3091 H   0  0  0  0  0  0  0  0  0  0  0  0  # atno 7974 bound_to 7965
  155.9295  140.1089  157.1143 H   0  0  0  0  0  0  0  0  0  0  0  0  # atno 8008 bound_to 7997
  154.4068  140.1240  156.4850 H   0  0  0  0  0  0  0  0  0  0  0  0  # atno 8009 bound_to 7997
  155.7097  140.3471  155.4970 H   0  0  0  0  0  0  0  0  0  0  0  0  # atno 8010 bound_to 7997
  140.4719  143.2424  151.8191 H   0  0  0  0  0  0  0  0  0  0  0  0  # atno 10167 bound_to 10162
  156.0176  130.5347  150.6879 H   0  0  0  0  0  0  0  0  0  0  0  0  # atno 10718 bound_to 10713
  154.0406  135.2890  155.3355 H   0  0  0  0  0  0  0  0  0  0  0  0  # atno 10763 bound_to 10752
  154.6932  135.5218  153.8424 H   0  0  0  0  0  0  0  0  0  0  0  0  # atno 10764 bound_to 10752
  153.0602  135.6610  154.0610 H   0  0  0  0  0  0  0  0  0  0  0  0  # atno 10765 bound_to 10752
  139.9972  134.9492  156.9991 H   0  0  0  0  0  0  0  0  0  0  0  0  # atno 11005 bound_to 11000
  144.9496  139.4097  143.6409 LP  0  0  0  0  0  0  0  0  0  0  0  0  # atno 17320 bound_to 7965
  146.3300  139.8497  142.8875 LP  0  0  0  0  0  0  0  0  0  0  0  0  # atno 17321 bound_to 7965
  139.4820  144.4881  151.9221 LP  0  0  0  0  0  0  0  0  0  0  0  0  # atno 17342 bound_to 10162
  140.3966  144.2547  150.5896 LP  0  0  0  0  0  0  0  0  0  0  0  0  # atno 17343 bound_to 10162
  157.4567  131.0878  151.0789 LP  0  0  0  0  0  0  0  0  0  0  0  0  # atno 17370 bound_to 10713
  157.1289  130.6093  149.5524 LP  0  0  0  0  0  0  0  0  0  0  0  0  # atno 17371 bound_to 10713
  140.4795  134.1304  155.7215 LP  0  0  0  0  0  0  0  0  0  0  0  0  # atno 17394 bound_to 11000
  141.1614  133.8786  157.1838 LP  0  0  0  0  0  0  0  0  0  0  0  0  # atno 17395 bound_to 11000

$$$$
