AV-unprocessed.smi:438|AV-procd|sdf|2576|dock1
  -GOLD-   2262022553D 1   1.00000     0.00000
 Structure written by MMmdl.
 48 49  0  0  0  0  0  0  0  0  1 V2000
  149.6416  142.3493  156.2617 C   0  0  0  0  0  0  0  0  0  0  0  0
  149.6881  140.9018  155.8083 C   0  0  0  0  0  0  0  0  0  0  0  0
  150.5000  140.0885  156.5190 N   0  0  0  0  0  0  0  0  0  0  0  0
  150.5582  138.8153  156.1307 C   0  0  0  0  0  0  0  0  0  0  0  0
  151.6551  137.7767  157.0769 S   0  0  0  0  0  0  0  0  0  0  0  0
  151.7067  138.6327  158.6902 C   0  0  0  0  0  0  0  0  0  0  0  0
  152.8550  139.6319  158.8839 C   0  0  0  0  0  0  0  0  0  0  0  0
  154.0151  139.2224  158.8870 O   0  0  0  0  0  0  0  0  0  0  0  0
  152.5360  140.9251  159.0520 N   0  0  0  0  0  0  0  0  0  0  0  0
  153.4714  142.0295  159.2634 C   0  0  1  0  0  0  0  0  0  0  0  0
  152.8903  143.3722  158.7641 C   0  0  0  0  0  0  0  0  0  0  0  0
  151.7166  143.8553  159.6311 C   0  0  0  0  0  0  0  0  0  0  0  0
  152.1160  143.9443  161.1112 C   0  0  0  0  0  0  0  0  0  0  0  0
  152.6824  142.6095  161.6207 C   0  0  0  0  0  0  0  0  0  0  0  0
  153.8684  142.1280  160.7576 C   0  0  1  0  0  0  0  0  0  0  0  0
  154.4689  140.8211  161.3039 C   0  0  0  0  0  0  0  0  0  0  0  0
  149.8944  138.2471  155.1227 N   0  0  0  0  0  0  0  0  0  0  0  0
  149.0803  139.0461  154.4013 C   0  0  0  0  0  0  0  0  0  0  0  0
  148.3926  138.4864  153.3643 O   0  0  0  0  0  0  0  0  0  0  0  0
  148.9370  140.4232  154.7041 C   0  0  0  0  0  0  0  0  0  0  0  0
  148.0231  141.3258  153.8861 C   0  0  0  0  0  0  0  0  0  0  0  0
  146.7151  141.6423  154.6229 C   0  0  0  0  0  0  0  0  0  0  0  0
  145.8085  140.5732  154.4655 O   0  0  0  0  0  0  0  0  0  0  0  0
  148.6120  142.6672  156.4256 H   0  0  0  0  0  0  0  0  0  0  0  0
  150.0884  142.9967  155.5073 H   0  0  0  0  0  0  0  0  0  0  0  0
  150.1888  142.4926  157.1943 H   0  0  0  0  0  0  0  0  0  0  0  0
  150.7678  139.1732  158.8106 H   0  0  0  0  0  0  0  0  0  0  0  0
  151.7368  137.8908  159.4887 H   0  0  0  0  0  0  0  0  0  0  0  0
  151.5556  141.1672  159.0370 H   0  0  0  0  0  0  0  0  0  0  0  0
  154.3729  141.8123  158.6874 H   0  0  0  0  0  0  0  0  0  0  0  0
  153.6767  144.1277  158.7806 H   0  0  0  0  0  0  0  0  0  0  0  0
  152.5745  143.2949  157.7233 H   0  0  0  0  0  0  0  0  0  0  0  0
  151.3688  144.8272  159.2806 H   0  0  0  0  0  0  0  0  0  0  0  0
  150.8773  143.1714  159.5177 H   0  0  0  0  0  0  0  0  0  0  0  0
  152.8618  144.7295  161.2406 H   0  0  0  0  0  0  0  0  0  0  0  0
  151.2540  144.2354  161.7117 H   0  0  0  0  0  0  0  0  0  0  0  0
  152.9997  142.7238  162.6578 H   0  0  0  0  0  0  0  0  0  0  0  0
  151.8929  141.8567  161.6250 H   0  0  0  0  0  0  0  0  0  0  0  0
  154.6497  142.8860  160.8322 H   0  0  0  0  0  0  0  0  0  0  0  0
  153.7357  140.0143  161.3218 H   0  0  0  0  0  0  0  0  0  0  0  0
  154.8322  140.9557  162.3229 H   0  0  0  0  0  0  0  0  0  0  0  0
  155.3121  140.4929  160.6954 H   0  0  0  0  0  0  0  0  0  0  0  0
  148.7427  137.6476  153.1068 H   0  0  0  0  0  0  0  0  0  0  0  0
  148.5420  142.2495  153.6296 H   0  0  0  0  0  0  0  0  0  0  0  0
  147.8046  140.8441  152.9321 H   0  0  0  0  0  0  0  0  0  0  0  0
  146.8988  141.7981  155.6865 H   0  0  0  0  0  0  0  0  0  0  0  0
  146.2605  142.5533  154.2328 H   0  0  0  0  0  0  0  0  0  0  0  0
  145.1269  140.8426  153.8689 H   0  0  0  0  0  0  0  0  0  0  0  0
  1  2  1  0  0  0  0
  1 24  1  0  0  0  0
  1 25  1  0  0  0  0
  1 26  1  0  0  0  0
  2 20  1  0  0  0  0
  2  3  2  0  0  0  0
  3  4  1  0  0  0  0
  4  5  1  0  0  0  0
  4 17  2  0  0  0  0
  5  6  1  0  0  0  0
  6  7  1  0  0  0  0
  6 27  1  0  0  0  0
  6 28  1  0  0  0  0
  7  8  2  0  0  0  0
  7  9  1  0  0  0  0
  9 10  1  0  0  0  0
  9 29  1  0  0  0  0
 10 15  1  0  0  0  0
 10 11  1  0  0  0  0
 10 30  1  0  0  0  0
 11 12  1  0  0  0  0
 11 31  1  0  0  0  0
 11 32  1  0  0  0  0
 12 13  1  0  0  0  0
 12 33  1  0  0  0  0
 12 34  1  0  0  0  0
 13 14  1  0  0  0  0
 13 35  1  0  0  0  0
 13 36  1  0  0  0  0
 14 15  1  0  0  0  0
 14 37  1  0  0  0  0
 14 38  1  0  0  0  0
 15 16  1  0  0  0  0
 15 39  1  0  0  0  0
 16 40  1  0  0  0  0
 16 41  1  0  0  0  0
 16 42  1  0  0  0  0
 17 18  1  0  0  0  0
 18 19  1  0  0  0  0
 18 20  2  0  0  0  0
 19 43  1  0  0  0  0
 20 21  1  0  0  0  0
 21 22  1  0  0  0  0
 21 44  1  0  0  0  0
 21 45  1  0  0  0  0
 22 23  1  0  0  0  0
 22 46  1  0  0  0  0
 22 47  1  0  0  0  0
 23 48  1  0  0  0  0
M  END
> <s_m_source_file>
AV-unprocessed.smi

> <i_m_source_file_index>
438

> <i_lp_mmshare_version>
43012

> <i_f3d_flags>
0

> <s_epik_input>
W09IXVtDSDJdW0NIMl1jMWMoW09IXSluYyhuYzFbQ0gzXSlTW0NIMl1DKD1PKVtOSF1bQ0BASF0yW0NIMl1bQ0gyXVtDSDJdW0NIMl1bQ0BIXTJbQ0gzXQ==

> <s_epik_cmdline>
J2VwaWtfcHl0aG9uJywgJy1waCcsICc3LjAnLCAnLXRuJywgJzgnLCAnLW1hJywgJzIwMCcsICctbWV0YWxfYmluZGluZycsICctaW1hZScsICc8aW5maWxlLm1hZT4nLCAnLW9tYWUnLCAnPG91dGZpbGUubWFlPic=

> <r_lp_tautomer_probability>
0.0660145

> <r_epik_Ionization_Penalty>
2.91405

> <r_epik_Ionization_Penalty_Charging>
0

> <r_epik_Ionization_Penalty_Neutral>
2.91405

> <r_epik_State_Penalty>
2.44767

> <r_epik_Charging_Adjusted_Penalty>
2.44767

> <i_epik_Tot_Q>
0

> <i_epik_Tot_abs_Q>
0

> <r_epik_Metal_State_Penalty>
3.04288

> <b_epik_Metal_Only>
0

> <s_lp_Force_Field>
OPLS_2005

> <r_lp_Energy>
-3.37475

> <b_lp_Chiralities_Consistent>
1

> <s_lp_Variant>
AV-unprocessed.smi:438-14

> <Gold.Version>
5.8.1

> <Gold.Id.Protein>
6NUR|6NUR_protein|mol2

> <Gold.PLP.Fitness>
50.3245

> <Gold.PLP.PLP>
-43.7413

> <Gold.PLP.part.hbond>
-4.0000

> <Gold.PLP.part.metal>
0.0000

> <Gold.PLP.part.buried>
-1.2626

> <Gold.PLP.part.nonpolar>
-39.5291

> <Gold.PLP.part.repulsive>
0.2521

> <Gold.PLP.ligand.clash>
0.0000

> <Gold.PLP.ligand.torsion>
1.2534

> <Gold.PLP.Chemscore.Hbond>
3.0000

> <Gold.PLP.Chemscore.CHOScore>
0.0000

> <Gold.PLP.Chemscore.Metal>
0.0000

> <Gold.Chemscore.Hbonds>
donor molecule, donor type, donor heavy atom, donor atom, acceptor molecule, acceptor atom, score
      L1  H    19    43       P1  7948  1.00
      L1  H    23    48       P1 10175  1.00
      P1  H  7997  8008       L1     8  1.00

> <Gold.PLP.Chemscore.Internal.Correction>
0.0900

> <Gold.Rescore>
     Score         DG    S(hbond)    S(metal)    S(lipo)     H(rot)  DE(clash)    DE(int)     intcor
     17.59     -20.30       2.92        0.00     118.54       3.44       1.53       1.19       ----

> <Gold.Chemscore.Fitness>
17.5898

> <Gold.Chemscore.DG>
-20.3035

> <Gold.Chemscore.ZeroCoef>
-5.4800

> <Gold.Chemscore.Hbond>
2.9192

> <Gold.Chemscore.Metal>
0.0000

> <Gold.Chemscore.Lipo>
118.5401

> <Gold.Chemscore.Internal_Hbond>
0.0000

> <Gold.Chemscore.DEClash>
1.5286

> <Gold.Chemscore.DEInternal>
1.1850

> <Gold.Chemscore.Rot>
3.4359

> <Gold.Chemscore.Internal.Correction>
   9.000000E+99

> <Gold.Chemscore.Hbonds>
donor molecule, donor type, donor heavy atom, donor atom, acceptor molecule, acceptor atom, score
      L1  H    19    43       P1  7948  0.96
      L1  H    23    48       P1 10175  0.84
      P1  H  7997  8008       L1     8  0.57

> <Gold.Chemscore.Hbond.Weighted>
-9.7503

> <Gold.Chemscore.Metal.Weighted>
-0.0000

> <Gold.Chemscore.Lipo.Weighted>
-13.8692

> <Gold.Chemscore.Internal_Hbond.Weighted>
0.0000

> <Gold.Chemscore.DEClash.Weighted>
1.5286

> <Gold.Chemscore.DEInternal.Weighted>
1.1850

> <Gold.Chemscore.Rot.Weighted>
8.7960

> <Gold.Chemscore.Internal.Correction.Weighted>
   9.000000E+99

> <Gold.Protein.RotatedTorsions>
[ 6907 6896 6895 6894 ] final   50.47 input  -60.11 | X-H torsion
[ 7974 7965 7964 7962 ] final  162.75 input  175.53 | X-H torsion
[ 8008 7997 7996 7995 ] final -109.13 input   59.86 | X-H torsion
[ 10167 10162 10161 10158 ] final  141.35 input  -65.29 | X-H torsion
[ 10718 10713 10712 10709 ] final   34.46 input   66.30 | X-H torsion
[ 10763 10752 10751 10750 ] final  -69.36 input  -60.55 | X-H torsion
[ 11005 11000 10999 10996 ] final   83.71 input  -57.11 | X-H torsion

> <Gold.Protein.ActiveResidues>
 VAL166  LYS551  ARG553  GLY616  TRP617  ASP618  TYR619  PRO620  LYS621  CYS622 
 ASP623  PHE694  ASN695  SER759  ASP760  ASP761  ALA762  ILE779  LEU786  VAL792 
 PHE793  MET794  SER795  GLU796  ALA797  LYS798  CYS799  TRP800  GLU811  SER814 

> <Gold.Protein.RotatedAtoms>
  152.3021  134.7598  160.0355 H   0  0  0  0  0  0  0  0  0  0  0  0  # atno 6907 bound_to 6896
  151.8108  133.3376  159.3563 H   0  0  0  0  0  0  0  0  0  0  0  0  # atno 6908 bound_to 6896
  150.7279  134.5595  159.5879 H   0  0  0  0  0  0  0  0  0  0  0  0  # atno 6909 bound_to 6896
  144.7622  139.8085  143.6328 H   0  0  0  0  0  0  0  0  0  0  0  0  # atno 7974 bound_to 7965
  154.9548  140.0400  157.2161 H   0  0  0  0  0  0  0  0  0  0  0  0  # atno 8008 bound_to 7997
  154.7945  140.2841  155.5945 H   0  0  0  0  0  0  0  0  0  0  0  0  # atno 8009 bound_to 7997
  156.2954  140.2567  156.2799 H   0  0  0  0  0  0  0  0  0  0  0  0  # atno 8010 bound_to 7997
  139.5023  144.6177  151.6125 H   0  0  0  0  0  0  0  0  0  0  0  0  # atno 10167 bound_to 10162
  157.3106  130.7397  149.6722 H   0  0  0  0  0  0  0  0  0  0  0  0  # atno 10718 bound_to 10713
  154.4022  135.6028  153.5904 H   0  0  0  0  0  0  0  0  0  0  0  0  # atno 10763 bound_to 10752
  152.9788  135.5909  154.4170 H   0  0  0  0  0  0  0  0  0  0  0  0  # atno 10764 bound_to 10752
  154.3970  135.2842  155.2098 H   0  0  0  0  0  0  0  0  0  0  0  0  # atno 10765 bound_to 10752
  139.9022  134.8164  156.2346 H   0  0  0  0  0  0  0  0  0  0  0  0  # atno 11005 bound_to 11000
  146.1695  139.4840  142.9936 LP  0  0  0  0  0  0  0  0  0  0  0  0  # atno 17320 bound_to 7965
  145.6584  141.0246  143.1722 LP  0  0  0  0  0  0  0  0  0  0  0  0  # atno 17321 bound_to 7965
  140.5870  143.9847  150.6301 LP  0  0  0  0  0  0  0  0  0  0  0  0  # atno 17342 bound_to 10162
  140.3015  143.3257  152.0967 LP  0  0  0  0  0  0  0  0  0  0  0  0  # atno 17343 bound_to 10162
  155.9677  130.4252  150.4645 LP  0  0  0  0  0  0  0  0  0  0  0  0  # atno 17370 bound_to 10713
  157.2643  131.0573  151.2301 LP  0  0  0  0  0  0  0  0  0  0  0  0  # atno 17371 bound_to 10713
  141.0324  133.6982  156.1453 LP  0  0  0  0  0  0  0  0  0  0  0  0  # atno 17394 bound_to 11000
  140.7077  134.4495  157.5583 LP  0  0  0  0  0  0  0  0  0  0  0  0  # atno 17395 bound_to 11000

$$$$
