AV-unprocessed.smi:3308|AV-procd|sdf|12709|dock10
  -GOLD-   2272019 43D 1   1.00000     0.00000
 Structure written by MMmdl.
 41 42  0  0  0  0  0  0  0  0  2 V2000
  147.5577  142.0379  154.0793 C   0  0  0  0  0  0  0  0  0  0  0  0
  148.8579  141.3412  154.5197 C   0  0  1  0  0  0  0  0  0  0  0  0
  149.2635  141.8797  155.8374 N   0  3  0  0  0  0  0  0  0  0  0  0
  150.7134  141.8110  156.1213 C   0  0  0  0  0  0  0  0  0  0  0  0
  151.0059  141.4434  157.5827 C   0  0  0  0  0  0  0  0  0  0  0  0
  150.7068  140.3239  158.0015 O   0  0  0  0  0  0  0  0  0  0  0  0
  151.5893  142.3716  158.3686 N   0  0  0  0  0  0  0  0  0  0  0  0
  151.9420  143.7136  157.9093 C   0  0  0  0  0  0  0  0  0  0  0  0
  152.3196  144.4956  159.1677 C   0  0  0  0  0  0  0  0  0  0  0  0
  152.7787  143.4248  160.1474 C   0  0  0  0  0  0  0  0  0  0  0  0
  151.9487  142.1953  159.7756 C   0  0  0  0  0  0  0  0  0  0  0  0
  148.7303  139.7947  154.5817 C   0  0  2  0  0  0  0  0  0  0  0  0
  147.5650  139.3239  155.4729 C   0  0  0  0  0  0  0  0  0  0  0  0
  149.9703  139.1570  155.0064 N   0  0  0  0  0  0  0  0  0  0  0  0
  150.1436  138.1815  155.9669 C   0  0  0  0  0  0  0  0  0  0  0  0
  151.4776  137.8967  156.0242 C   0  0  0  0  0  0  0  0  0  0  0  0
  152.0503  138.7606  155.0502 C   0  0  0  0  0  0  0  0  0  0  0  0
  151.1472  139.5139  154.4436 N   0  0  0  0  0  0  0  0  0  0  0  0
  147.2663  141.7526  153.0682 H   0  0  0  0  0  0  0  0  0  0  0  0
  147.6750  143.1220  154.0817 H   0  0  0  0  0  0  0  0  0  0  0  0
  146.7307  141.7918  154.7461 H   0  0  0  0  0  0  0  0  0  0  0  0
  149.6207  141.5976  153.7820 H   0  0  0  0  0  0  0  0  0  0  0  0
  148.9857  142.8497  155.8857 H   0  0  0  0  0  0  0  0  0  0  0  0
  151.1738  141.0708  155.4661 H   0  0  0  0  0  0  0  0  0  0  0  0
  151.1629  142.7793  155.8969 H   0  0  0  0  0  0  0  0  0  0  0  0
  152.7941  143.6439  157.2315 H   0  0  0  0  0  0  0  0  0  0  0  0
  151.1219  144.1955  157.3745 H   0  0  0  0  0  0  0  0  0  0  0  0
  153.0805  145.2543  158.9818 H   0  0  0  0  0  0  0  0  0  0  0  0
  151.4369  144.9984  159.5652 H   0  0  0  0  0  0  0  0  0  0  0  0
  153.8369  143.2146  159.9859 H   0  0  0  0  0  0  0  0  0  0  0  0
  152.6530  143.7220  161.1891 H   0  0  0  0  0  0  0  0  0  0  0  0
  151.0378  142.1570  160.3746 H   0  0  0  0  0  0  0  0  0  0  0  0
  152.5122  141.2778  159.9502 H   0  0  0  0  0  0  0  0  0  0  0  0
  148.5311  139.4366  153.5704 H   0  0  0  0  0  0  0  0  0  0  0  0
  146.6029  139.6599  155.0861 H   0  0  0  0  0  0  0  0  0  0  0  0
  147.6630  139.6990  156.4922 H   0  0  0  0  0  0  0  0  0  0  0  0
  147.5269  138.2352  155.5227 H   0  0  0  0  0  0  0  0  0  0  0  0
  149.3130  137.7744  156.5244 H   0  0  0  0  0  0  0  0  0  0  0  0
  151.9705  137.1812  156.6656 H   0  0  0  0  0  0  0  0  0  0  0  0
  153.0880  138.8621  154.7686 H   0  0  0  0  0  0  0  0  0  0  0  0
  148.7695  141.3737  156.5586 H   0  0  0  0  0  0  0  0  0  0  0  0
  1  2  1  0  0  0  0
  1 19  1  0  0  0  0
  1 20  1  0  0  0  0
  1 21  1  0  0  0  0
  2  3  1  0  0  0  0
  2 12  1  0  0  0  0
  2 22  1  0  0  0  0
  3  4  1  0  0  0  0
  3 23  1  0  0  0  0
  3 41  1  0  0  0  0
  4  5  1  0  0  0  0
  4 24  1  0  0  0  0
  4 25  1  0  0  0  0
  5  6  2  0  0  0  0
  5  7  1  0  0  0  0
  7 11  1  0  0  0  0
  7  8  1  0  0  0  0
  8  9  1  0  0  0  0
  8 26  1  0  0  0  0
  8 27  1  0  0  0  0
  9 10  1  0  0  0  0
  9 28  1  0  0  0  0
  9 29  1  0  0  0  0
 10 11  1  0  0  0  0
 10 30  1  0  0  0  0
 10 31  1  0  0  0  0
 11 32  1  0  0  0  0
 11 33  1  0  0  0  0
 12 13  1  0  0  0  0
 12 14  1  0  0  0  0
 12 34  1  0  0  0  0
 13 35  1  0  0  0  0
 13 36  1  0  0  0  0
 13 37  1  0  0  0  0
 14 18  1  0  0  0  0
 14 15  1  0  0  0  0
 15 16  2  0  0  0  0
 15 38  1  0  0  0  0
 16 17  1  0  0  0  0
 16 39  1  0  0  0  0
 17 18  2  0  0  0  0
 17 40  1  0  0  0  0
M  CHG  1   3   1
M  END
> <s_m_source_file>
AV-unprocessed.smi

> <i_m_source_file_index>
3308

> <i_lp_mmshare_version>
43012

> <i_f3d_flags>
0

> <s_epik_input>
bjFbY0hdW2NIXVtjSF1uMVtDQEBIXShbQ0gzXSlbQ0BIXShbQ0gzXSlbTkhdW0NIMl1DKD1PKU4yW0NIMl1bQ0gyXVtDSDJdW0NIMl0y

> <s_epik_cmdline>
J2VwaWtfcHl0aG9uJywgJy1waCcsICc3LjAnLCAnLXRuJywgJzgnLCAnLW1hJywgJzIwMCcsICctbWV0YWxfYmluZGluZycsICctaW1hZScsICc8aW5maWxlLm1hZT4nLCAnLW9tYWUnLCAnPG91dGZpbGUubWFlPic=

> <r_lp_tautomer_probability>
1

> <r_epik_Ionization_Penalty>
0.141739

> <r_epik_Ionization_Penalty_Charging>
0.141731

> <r_epik_Ionization_Penalty_Neutral>
8.82171e-06

> <r_epik_State_Penalty>
0.131043

> <r_epik_Charging_Adjusted_Penalty>
0.272773

> <i_epik_Tot_Q>
1

> <i_epik_Tot_abs_Q>
1

> <r_epik_Metal_State_Penalty>
0.131385

> <b_epik_Metal_Only>
0

> <s_lp_Force_Field>
OPLS_2005

> <r_lp_Energy>
34.0204

> <b_lp_Chiralities_Consistent>
1

> <s_lp_Variant>
AV-unprocessed.smi:3308-2

> <Gold.Version>
5.8.1

> <Gold.Id.Protein>
6NUR|6NUR_protein|mol2

> <Gold.PLP.Fitness>
47.9292

> <Gold.PLP.PLP>
-40.3765

> <Gold.PLP.part.hbond>
-2.0000

> <Gold.PLP.part.metal>
0.0000

> <Gold.PLP.part.buried>
-5.4248

> <Gold.PLP.part.nonpolar>
-33.7595

> <Gold.PLP.part.repulsive>
0.2308

> <Gold.PLP.ligand.clash>
0.0000

> <Gold.PLP.ligand.torsion>
0.7672

> <Gold.PLP.Chemscore.Hbond>
3.0000

> <Gold.PLP.Chemscore.CHOScore>
0.0000

> <Gold.PLP.Chemscore.Metal>
0.0000

> <Gold.Chemscore.Hbonds>
donor molecule, donor type, donor heavy atom, donor atom, acceptor molecule, acceptor atom, score
      L1  H     3    23       P1  8028  2.00
      P1  H  7989  7998       L1    18  1.00

> <Gold.PLP.Chemscore.Internal.Correction>
0.0871

> <Gold.Rescore>
     Score         DG    S(hbond)    S(metal)    S(lipo)     H(rot)  DE(clash)    DE(int)     intcor
     18.32     -19.41       1.99        0.00     101.35       1.78       0.33       0.76       ----

> <Gold.Chemscore.Fitness>
18.3157

> <Gold.Chemscore.DG>
-19.4075

> <Gold.Chemscore.ZeroCoef>
-5.4800

> <Gold.Chemscore.Hbond>
1.9866

> <Gold.Chemscore.Metal>
0.0000

> <Gold.Chemscore.Lipo>
101.3524

> <Gold.Chemscore.Internal_Hbond>
0.0000

> <Gold.Chemscore.DEClash>
0.3313

> <Gold.Chemscore.DEInternal>
0.7605

> <Gold.Chemscore.Rot>
1.7836

> <Gold.Chemscore.Internal.Correction>
   9.000000E+99

> <Gold.Chemscore.Hbonds>
donor molecule, donor type, donor heavy atom, donor atom, acceptor molecule, acceptor atom, score
      L1  H     3    23       P1  8028  1.00
      P1  H  7989  7998       L1    18  0.98

> <Gold.Chemscore.Hbond.Weighted>
-6.6353

> <Gold.Chemscore.Metal.Weighted>
-0.0000

> <Gold.Chemscore.Lipo.Weighted>
-11.8582

> <Gold.Chemscore.Internal_Hbond.Weighted>
0.0000

> <Gold.Chemscore.DEClash.Weighted>
0.3313

> <Gold.Chemscore.DEInternal.Weighted>
0.7605

> <Gold.Chemscore.Rot.Weighted>
4.5660

> <Gold.Chemscore.Internal.Correction.Weighted>
   9.000000E+99

> <Gold.Protein.RotatedTorsions>
[ 6907 6896 6895 6894 ] final  -95.14 input  -60.11 | X-H torsion
[ 7974 7965 7964 7962 ] final  118.25 input  175.53 | X-H torsion
[ 8008 7997 7996 7995 ] final   52.02 input   59.86 | X-H torsion
[ 10167 10162 10161 10158 ] final  103.70 input  -65.29 | X-H torsion
[ 10718 10713 10712 10709 ] final  -36.93 input   66.30 | X-H torsion
[ 10763 10752 10751 10750 ] final -116.04 input  -60.55 | X-H torsion
[ 11005 11000 10999 10996 ] final  177.85 input  -57.11 | X-H torsion

> <Gold.Protein.ActiveResidues>
 VAL166  LYS551  ARG553  GLY616  TRP617  ASP618  TYR619  PRO620  LYS621  CYS622 
 ASP623  PHE694  ASN695  SER759  ASP760  ASP761  ALA762  ILE779  LEU786  VAL792 
 PHE793  MET794  SER795  GLU796  ALA797  LYS798  CYS799  TRP800  GLU811  SER814 

> <Gold.Protein.RotatedAtoms>
  150.6957  134.1703  159.4209 H   0  0  0  0  0  0  0  0  0  0  0  0  # atno 6907 bound_to 6896
  151.9681  135.0088  160.0560 H   0  0  0  0  0  0  0  0  0  0  0  0  # atno 6908 bound_to 6896
  152.1866  133.4709  159.5023 H   0  0  0  0  0  0  0  0  0  0  0  0  # atno 6909 bound_to 6896
  145.1574  139.3175  143.4535 H   0  0  0  0  0  0  0  0  0  0  0  0  # atno 7974 bound_to 7965
  155.4449  140.3456  155.4294 H   0  0  0  0  0  0  0  0  0  0  0  0  # atno 8008 bound_to 7997
  156.1256  140.1499  156.9171 H   0  0  0  0  0  0  0  0  0  0  0  0  # atno 8009 bound_to 7997
  154.4856  140.0856  156.7457 H   0  0  0  0  0  0  0  0  0  0  0  0  # atno 8010 bound_to 7997
  139.7241  144.7051  151.0826 H   0  0  0  0  0  0  0  0  0  0  0  0  # atno 10167 bound_to 10162
  156.3212  130.4266  149.7959 H   0  0  0  0  0  0  0  0  0  0  0  0  # atno 10718 bound_to 10713
  154.8504  135.4360  154.1758 H   0  0  0  0  0  0  0  0  0  0  0  0  # atno 10763 bound_to 10752
  153.2860  135.6957  153.7345 H   0  0  0  0  0  0  0  0  0  0  0  0  # atno 10764 bound_to 10752
  153.6530  135.3448  155.3080 H   0  0  0  0  0  0  0  0  0  0  0  0  # atno 10765 bound_to 10752
  140.3886  134.6882  157.4494 H   0  0  0  0  0  0  0  0  0  0  0  0  # atno 11005 bound_to 11000
  146.3487  140.1672  142.8590 LP  0  0  0  0  0  0  0  0  0  0  0  0  # atno 17320 bound_to 7965
  145.0366  140.8913  143.5077 LP  0  0  0  0  0  0  0  0  0  0  0  0  # atno 17321 bound_to 7965
  140.7759  143.5128  150.9631 LP  0  0  0  0  0  0  0  0  0  0  0  0  # atno 17342 bound_to 10162
  139.8816  143.7065  152.3156 LP  0  0  0  0  0  0  0  0  0  0  0  0  # atno 17343 bound_to 10162
  156.5266  130.8239  151.3222 LP  0  0  0  0  0  0  0  0  0  0  0  0  # atno 17370 bound_to 10713
  157.7412  130.9865  150.2429 LP  0  0  0  0  0  0  0  0  0  0  0  0  # atno 17371 bound_to 10713
  140.0423  134.6249  155.8964 LP  0  0  0  0  0  0  0  0  0  0  0  0  # atno 17394 bound_to 11000
  141.1899  133.6566  156.5386 LP  0  0  0  0  0  0  0  0  0  0  0  0  # atno 17395 bound_to 11000

$$$$
