AV-unprocessed.smi:952|AV-procd|sdf|4255|dock10
  -GOLD-   22720 2163D 1   1.00000     0.00000
 Structure written by MMmdl.
 35 35  0  0  0  0  0  0  0  0  1 V2000
  151.4263  139.1493  154.9102 C   0  0  0  0  0  0  0  0  0  0  0  0
  150.7319  137.9924  154.1844 C   0  0  0  0  0  0  0  0  0  0  0  0
  150.9530  136.6421  154.8857 C   0  0  0  0  0  0  0  0  0  0  0  0
  150.0417  135.6202  154.3838 N   0  0  0  0  0  0  0  0  0  0  0  0
  149.9161  134.3847  154.8909 C   0  0  0  0  0  0  0  0  0  0  0  0
  150.5855  133.9736  155.8404 O   0  0  0  0  0  0  0  0  0  0  0  0
  148.8931  133.4721  154.2040 C   0  0  0  0  0  0  0  0  0  0  0  0
  148.0869  134.1931  153.2235 N   0  0  0  0  0  0  0  0  0  0  0  0
  146.7532  134.0987  153.0998 C   0  0  0  0  0  0  0  0  0  0  0  0
  146.0515  133.4374  153.8664 O   0  0  0  0  0  0  0  0  0  0  0  0
  146.1287  134.8525  151.9163 C   0  0  2  0  0  0  0  0  0  0  0  0
  145.1568  135.9634  152.3648 C   0  0  0  0  0  0  0  0  0  0  0  0
  145.5094  133.9014  150.9996 N   0  0  0  0  0  0  0  0  0  0  0  0
  146.0971  132.8141  150.3846 C   0  0  0  0  0  0  0  0  0  0  0  0
  145.1296  132.1755  149.6633 C   0  0  0  0  0  0  0  0  0  0  0  0
  143.9600  132.9455  149.9128 C   0  0  0  0  0  0  0  0  0  0  0  0
  144.1871  133.9700  150.7179 N   0  0  0  0  0  0  0  0  0  0  0  0
  151.2534  140.0925  154.3915 H   0  0  0  0  0  0  0  0  0  0  0  0
  152.5037  138.9910  154.9639 H   0  0  0  0  0  0  0  0  0  0  0  0
  151.0512  139.2562  155.9285 H   0  0  0  0  0  0  0  0  0  0  0  0
  149.6642  138.2059  154.1167 H   0  0  0  0  0  0  0  0  0  0  0  0
  151.1004  137.9380  153.1593 H   0  0  0  0  0  0  0  0  0  0  0  0
  151.9733  136.2981  154.7143 H   0  0  0  0  0  0  0  0  0  0  0  0
  150.8388  136.7482  155.9660 H   0  0  0  0  0  0  0  0  0  0  0  0
  149.4571  135.8741  153.6006 H   0  0  0  0  0  0  0  0  0  0  0  0
  149.3945  132.6227  153.7363 H   0  0  0  0  0  0  0  0  0  0  0  0
  148.2271  133.0640  154.9642 H   0  0  0  0  0  0  0  0  0  0  0  0
  148.5871  134.7549  152.5500 H   0  0  0  0  0  0  0  0  0  0  0  0
  146.9395  135.3385  151.3710 H   0  0  0  0  0  0  0  0  0  0  0  0
  145.6625  136.6945  152.9964 H   0  0  0  0  0  0  0  0  0  0  0  0
  144.3114  135.5691  152.9303 H   0  0  0  0  0  0  0  0  0  0  0  0
  144.7563  136.4987  151.5034 H   0  0  0  0  0  0  0  0  0  0  0  0
  147.1449  132.5852  150.5129 H   0  0  0  0  0  0  0  0  0  0  0  0
  145.2388  131.2886  149.0571 H   0  0  0  0  0  0  0  0  0  0  0  0
  142.9584  132.7879  149.5404 H   0  0  0  0  0  0  0  0  0  0  0  0
  1  2  1  0  0  0  0
  1 18  1  0  0  0  0
  1 19  1  0  0  0  0
  1 20  1  0  0  0  0
  2  3  1  0  0  0  0
  2 21  1  0  0  0  0
  2 22  1  0  0  0  0
  3  4  1  0  0  0  0
  3 23  1  0  0  0  0
  3 24  1  0  0  0  0
  4  5  1  0  0  0  0
  4 25  1  0  0  0  0
  5  6  2  0  0  0  0
  5  7  1  0  0  0  0
  7  8  1  0  0  0  0
  7 26  1  0  0  0  0
  7 27  1  0  0  0  0
  8  9  1  0  0  0  0
  8 28  1  0  0  0  0
  9 10  2  0  0  0  0
  9 11  1  0  0  0  0
 11 12  1  0  0  0  0
 11 13  1  0  0  0  0
 11 29  1  0  0  0  0
 12 30  1  0  0  0  0
 12 31  1  0  0  0  0
 12 32  1  0  0  0  0
 13 17  1  0  0  0  0
 13 14  1  0  0  0  0
 14 15  2  0  0  0  0
 14 33  1  0  0  0  0
 15 16  1  0  0  0  0
 15 34  1  0  0  0  0
 16 17  2  0  0  0  0
 16 35  1  0  0  0  0
M  END
> <s_m_source_file>
AV-unprocessed.smi

> <i_m_source_file_index>
952

> <i_lp_mmshare_version>
43012

> <i_f3d_flags>
0

> <s_epik_input>
W0NIM11bQ0gyXVtDSDJdW05IXUMoPU8pW0NIMl1bTkhdQyg9TylbQ0BIXShbQ0gzXSluMVtjSF1bY0hdW2NIXW4x

> <s_epik_cmdline>
J2VwaWtfcHl0aG9uJywgJy1waCcsICc3LjAnLCAnLXRuJywgJzgnLCAnLW1hJywgJzIwMCcsICctbWV0YWxfYmluZGluZycsICctaW1hZScsICc8aW5maWxlLm1hZT4nLCAnLW9tYWUnLCAnPG91dGZpbGUubWFlPic=

> <r_lp_tautomer_probability>
1

> <r_epik_Ionization_Penalty>
2.62173e-05

> <r_epik_Ionization_Penalty_Charging>
0

> <r_epik_Ionization_Penalty_Neutral>
2.62173e-05

> <r_epik_State_Penalty>
-0

> <r_epik_Charging_Adjusted_Penalty>
0

> <i_epik_Tot_Q>
0

> <i_epik_Tot_abs_Q>
0

> <r_epik_Metal_State_Penalty>
-0

> <b_epik_Metal_Only>
0

> <s_lp_Force_Field>
OPLS_2005

> <r_lp_Energy>
2.54984

> <b_lp_Chiralities_Consistent>
1

> <s_lp_Variant>
AV-unprocessed.smi:952-1

> <Gold.Version>
5.8.1

> <Gold.Id.Protein>
6NUR|6NUR_protein|mol2

> <Gold.PLP.Fitness>
41.6887

> <Gold.PLP.PLP>
-30.5020

> <Gold.PLP.part.hbond>
-2.4691

> <Gold.PLP.part.metal>
0.0000

> <Gold.PLP.part.buried>
-2.1596

> <Gold.PLP.part.nonpolar>
-26.1573

> <Gold.PLP.part.repulsive>
0.3277

> <Gold.PLP.ligand.clash>
0.0000

> <Gold.PLP.ligand.torsion>
0.2649

> <Gold.PLP.Chemscore.Hbond>
1.9500

> <Gold.PLP.Chemscore.CHOScore>
1.9091

> <Gold.PLP.Chemscore.Metal>
0.0000

> <Gold.Chemscore.Hbonds>
donor molecule, donor type, donor heavy atom, donor atom, acceptor molecule, acceptor atom, score
      L1  H     4    25       P1  7948  1.00
      L1  H     8    28       P1  7948  0.80
      L1  C    14    33       P1 10747  1.00
      L1  C    16    35       P1 10186  0.94

> <Gold.PLP.Chemscore.Internal.Correction>
0.1393

> <Gold.Rescore>
     Score         DG    S(hbond)    S(metal)    S(lipo)     H(rot)  DE(clash)    DE(int)     intcor
     12.57     -12.91       1.70        0.00      63.92       2.24       0.05       0.28       ----

> <Gold.Chemscore.Fitness>
12.5704

> <Gold.Chemscore.DG>
-12.9058

> <Gold.Chemscore.ZeroCoef>
-5.4800

> <Gold.Chemscore.Hbond>
1.6984

> <Gold.Chemscore.Metal>
0.0000

> <Gold.Chemscore.Lipo>
63.9163

> <Gold.Chemscore.Internal_Hbond>
0.0000

> <Gold.Chemscore.DEClash>
0.0515

> <Gold.Chemscore.DEInternal>
0.2840

> <Gold.Chemscore.Rot>
2.2364

> <Gold.Chemscore.Internal.Correction>
   9.000000E+99

> <Gold.Chemscore.Hbonds>
donor molecule, donor type, donor heavy atom, donor atom, acceptor molecule, acceptor atom, score
      L1  H     4    25       P1  7948  0.44
      L1  H     8    28       P1  7948  0.11

> <Gold.Chemscore.Hbond.Weighted>
-5.6728

> <Gold.Chemscore.Metal.Weighted>
-0.0000

> <Gold.Chemscore.Lipo.Weighted>
-7.4782

> <Gold.Chemscore.Internal_Hbond.Weighted>
0.0000

> <Gold.Chemscore.DEClash.Weighted>
0.0515

> <Gold.Chemscore.DEInternal.Weighted>
0.2840

> <Gold.Chemscore.Rot.Weighted>
5.7251

> <Gold.Chemscore.Internal.Correction.Weighted>
   9.000000E+99

> <Gold.Protein.RotatedTorsions>
[ 6907 6896 6895 6894 ] final   17.01 input  -60.11 | X-H torsion
[ 7974 7965 7964 7962 ] final  -39.49 input  175.53 | X-H torsion
[ 8008 7997 7996 7995 ] final  101.14 input   59.86 | X-H torsion
[ 10167 10162 10161 10158 ] final  144.59 input  -65.29 | X-H torsion
[ 10718 10713 10712 10709 ] final   73.75 input   66.30 | X-H torsion
[ 10763 10752 10751 10750 ] final  152.07 input  -60.55 | X-H torsion
[ 11005 11000 10999 10996 ] final   -9.37 input  -57.11 | X-H torsion

> <Gold.Protein.ActiveResidues>
 VAL166  LYS551  ARG553  GLY616  TRP617  ASP618  TYR619  PRO620  LYS621  CYS622 
 ASP623  PHE694  ASN695  SER759  ASP760  ASP761  ALA762  ILE779  LEU786  VAL792 
 PHE793  MET794  SER795  GLU796  ALA797  LYS798  CYS799  TRP800  GLU811  SER814 

> <Gold.Protein.RotatedAtoms>
  151.8429  135.0584  160.0449 H   0  0  0  0  0  0  0  0  0  0  0  0  # atno 6907 bound_to 6896
  152.2795  133.5453  159.5497 H   0  0  0  0  0  0  0  0  0  0  0  0  # atno 6908 bound_to 6896
  150.7184  134.0500  159.3837 H   0  0  0  0  0  0  0  0  0  0  0  0  # atno 6909 bound_to 6896
  146.0391  140.6632  142.9095 H   0  0  0  0  0  0  0  0  0  0  0  0  # atno 7974 bound_to 7965
  156.1270  140.3202  155.8293 H   0  0  0  0  0  0  0  0  0  0  0  0  # atno 8008 bound_to 7997
  155.4401  140.0525  157.3028 H   0  0  0  0  0  0  0  0  0  0  0  0  # atno 8009 bound_to 7997
  154.4870  140.2077  155.9646 H   0  0  0  0  0  0  0  0  0  0  0  0  # atno 8010 bound_to 7997
  139.4944  144.5961  151.6579 H   0  0  0  0  0  0  0  0  0  0  0  0  # atno 10167 bound_to 10162
  157.6562  130.9644  150.1114 H   0  0  0  0  0  0  0  0  0  0  0  0  # atno 10718 bound_to 10713
  154.1140  135.2837  155.3224 H   0  0  0  0  0  0  0  0  0  0  0  0  # atno 10763 bound_to 10752
  154.6470  135.5382  153.7859 H   0  0  0  0  0  0  0  0  0  0  0  0  # atno 10764 bound_to 10752
  153.0335  135.6500  154.1297 H   0  0  0  0  0  0  0  0  0  0  0  0  # atno 10765 bound_to 10752
  140.7334  133.8730  155.8911 H   0  0  0  0  0  0  0  0  0  0  0  0  # atno 11005 bound_to 11000
  144.7066  140.3876  143.7113 LP  0  0  0  0  0  0  0  0  0  0  0  0  # atno 17320 bound_to 7965
  145.6914  139.1640  143.2645 LP  0  0  0  0  0  0  0  0  0  0  0  0  # atno 17321 bound_to 7965
  140.5600  144.0285  150.6165 LP  0  0  0  0  0  0  0  0  0  0  0  0  # atno 17342 bound_to 10162
  140.3368  143.3044  152.0630 LP  0  0  0  0  0  0  0  0  0  0  0  0  # atno 17343 bound_to 10162
  156.2010  130.3660  149.8789 LP  0  0  0  0  0  0  0  0  0  0  0  0  # atno 17370 bound_to 10713
  156.6693  130.8813  151.3559 LP  0  0  0  0  0  0  0  0  0  0  0  0  # atno 17371 bound_to 10713
  140.9900  134.1291  157.4416 LP  0  0  0  0  0  0  0  0  0  0  0  0  # atno 17394 bound_to 11000
  139.8821  135.0037  156.6206 LP  0  0  0  0  0  0  0  0  0  0  0  0  # atno 17395 bound_to 11000

$$$$
