AV-unprocessed.smi:1908|AV-procd|sdf|7734|dock1
  -GOLD-   22720 9473D 1   1.00000     0.00000
 Structure written by MMmdl.
 27 27  0  0  0  0  0  0  0  0  2 V2000
  145.3497  143.0239  154.3775 C   0  0  0  0  0  0  0  0  0  0  0  0
  146.1160  142.3151  155.5018 C   0  0  0  0  0  0  0  0  0  0  0  0
  145.8721  142.9816  156.8645 C   0  0  0  0  0  0  0  0  0  0  0  0
  147.5414  142.3058  155.1873 N   0  0  0  0  0  0  0  0  0  0  0  0
  148.3127  141.2110  155.1020 C   0  0  0  0  0  0  0  0  0  0  0  0
  147.8946  140.0708  155.3082 O   0  0  0  0  0  0  0  0  0  0  0  0
  149.7901  141.4494  154.7631 C   0  0  0  0  0  0  0  0  0  0  0  0
  150.6805  141.2114  155.9105 N   0  0  0  0  0  0  0  0  0  0  0  0
  150.4936  141.9996  157.0599 C   0  0  0  0  0  0  0  0  0  0  0  0
  151.2570  141.8457  158.1585 C   0  0  0  0  0  0  0  0  0  0  0  0
  152.3008  140.8284  158.1369 C   0  0  0  0  0  0  0  0  0  0  0  0
  153.0096  140.6766  159.1300 O   0  0  0  0  0  0  0  0  0  0  0  0
  152.4404  140.0864  156.9995 N   0  5  0  0  0  0  0  0  0  0  0  0
  151.6554  140.2529  155.8899 C   0  0  0  0  0  0  0  0  0  0  0  0
  151.7969  139.5707  154.8742 O   0  0  0  0  0  0  0  0  0  0  0  0
  144.2767  143.0186  154.5716 H   0  0  0  0  0  0  0  0  0  0  0  0
  145.5126  142.5289  153.4195 H   0  0  0  0  0  0  0  0  0  0  0  0
  145.6640  144.0629  154.2743 H   0  0  0  0  0  0  0  0  0  0  0  0
  145.7545  141.2865  155.5491 H   0  0  0  0  0  0  0  0  0  0  0  0
  144.8106  142.9864  157.1129 H   0  0  0  0  0  0  0  0  0  0  0  0
  146.2192  144.0153  156.8683 H   0  0  0  0  0  0  0  0  0  0  0  0
  146.3922  142.4513  157.6630 H   0  0  0  0  0  0  0  0  0  0  0  0
  147.9729  143.1998  155.0025 H   0  0  0  0  0  0  0  0  0  0  0  0
  150.0873  140.8226  153.9200 H   0  0  0  0  0  0  0  0  0  0  0  0
  149.8937  142.4750  154.4069 H   0  0  0  0  0  0  0  0  0  0  0  0
  149.6950  142.7238  156.9963 H   0  0  0  0  0  0  0  0  0  0  0  0
  151.0988  142.4566  159.0350 H   0  0  0  0  0  0  0  0  0  0  0  0
  1  2  1  0  0  0  0
  1 16  1  0  0  0  0
  1 17  1  0  0  0  0
  1 18  1  0  0  0  0
  2  3  1  0  0  0  0
  2  4  1  0  0  0  0
  2 19  1  0  0  0  0
  3 20  1  0  0  0  0
  3 21  1  0  0  0  0
  3 22  1  0  0  0  0
  4  5  1  0  0  0  0
  4 23  1  0  0  0  0
  5  6  2  0  0  0  0
  5  7  1  0  0  0  0
  7  8  1  0  0  0  0
  7 24  1  0  0  0  0
  7 25  1  0  0  0  0
  8 14  1  0  0  0  0
  8  9  1  0  0  0  0
  9 10  2  0  0  0  0
  9 26  1  0  0  0  0
 10 11  1  0  0  0  0
 10 27  1  0  0  0  0
 11 12  2  0  0  0  0
 11 13  1  0  0  0  0
 13 14  1  0  0  0  0
 14 15  2  0  0  0  0
M  CHG  1  13  -1
M  END
> <s_m_source_file>
AV-unprocessed.smi

> <i_m_source_file_index>
1908

> <i_lp_mmshare_version>
43012

> <i_f3d_flags>
0

> <s_epik_input>
W0NIM11bQ0hdKFtDSDNdKVtOSF1DKD1PKVtDSDJdbjFbY0hdW2NIXWMoPU8pW25IXWMxPU8=

> <s_epik_cmdline>
J2VwaWtfcHl0aG9uJywgJy1waCcsICc3LjAnLCAnLXRuJywgJzgnLCAnLW1hJywgJzIwMCcsICctbWV0YWxfYmluZGluZycsICctaW1hZScsICc8aW5maWxlLm1hZT4nLCAnLW9tYWUnLCAnPG91dGZpbGUubWFlPic=

> <r_lp_tautomer_probability>
0.999537

> <r_epik_Ionization_Penalty>
3.07884

> <r_epik_Ionization_Penalty_Charging>
2.69291e-08

> <r_epik_Ionization_Penalty_Neutral>
3.07884

> <r_epik_State_Penalty>
3.07787

> <r_epik_Charging_Adjusted_Penalty>
3.07787

> <i_epik_Tot_Q>
-1

> <i_epik_Tot_abs_Q>
1

> <r_epik_Metal_State_Penalty>
0.459857

> <b_epik_Metal_Only>
1

> <s_lp_Force_Field>
OPLS_2005

> <r_lp_Energy>
10.6939

> <b_lp_Chiralities_Consistent>
1

> <s_lp_Variant>
AV-unprocessed.smi:1908-2

> <Gold.Version>
5.8.1

> <Gold.Id.Protein>
6NUR|6NUR_protein|mol2

> <Gold.PLP.Fitness>
40.3680

> <Gold.PLP.PLP>
-25.6696

> <Gold.PLP.part.hbond>
-3.0000

> <Gold.PLP.part.metal>
0.0000

> <Gold.PLP.part.buried>
-3.1803

> <Gold.PLP.part.nonpolar>
-19.3857

> <Gold.PLP.part.repulsive>
0.1663

> <Gold.PLP.ligand.clash>
0.0000

> <Gold.PLP.ligand.torsion>
0.1387

> <Gold.PLP.Chemscore.Hbond>
3.9920

> <Gold.PLP.Chemscore.CHOScore>
0.9971

> <Gold.PLP.Chemscore.Metal>
0.0000

> <Gold.Chemscore.Hbonds>
donor molecule, donor type, donor heavy atom, donor atom, acceptor molecule, acceptor atom, score
      L1  H     4    23       P1  8028  0.99
      P1  H  7989  7998       L1    15  1.00
      P1  H  7997  8008       L1    13  2.00
      L1  C     9    26       P1  8028  1.00

> <Gold.PLP.Chemscore.Internal.Correction>
0.0087

> <Gold.Rescore>
     Score         DG    S(hbond)    S(metal)    S(lipo)     H(rot)  DE(clash)    DE(int)     intcor
     11.91     -12.20       2.20        0.00      32.42       1.72       0.24       0.04       ----

> <Gold.Chemscore.Fitness>
11.9109

> <Gold.Chemscore.DG>
-12.1972

> <Gold.Chemscore.ZeroCoef>
-5.4800

> <Gold.Chemscore.Hbond>
2.1966

> <Gold.Chemscore.Metal>
0.0000

> <Gold.Chemscore.Lipo>
32.4172

> <Gold.Chemscore.Internal_Hbond>
0.0000

> <Gold.Chemscore.DEClash>
0.2419

> <Gold.Chemscore.DEInternal>
0.0444

> <Gold.Chemscore.Rot>
1.7236

> <Gold.Chemscore.Internal.Correction>
   9.000000E+99

> <Gold.Chemscore.Hbonds>
donor molecule, donor type, donor heavy atom, donor atom, acceptor molecule, acceptor atom, score
      L1  H     4    23       P1  8028  0.78
      P1  H  7989  7998       L1    15  0.33
      P1  H  7997  8008       L1    13  0.44

> <Gold.Chemscore.Hbond.Weighted>
-7.3368

> <Gold.Chemscore.Metal.Weighted>
-0.0000

> <Gold.Chemscore.Lipo.Weighted>
-3.7928

> <Gold.Chemscore.Internal_Hbond.Weighted>
0.0000

> <Gold.Chemscore.DEClash.Weighted>
0.2419

> <Gold.Chemscore.DEInternal.Weighted>
0.0444

> <Gold.Chemscore.Rot.Weighted>
4.4124

> <Gold.Chemscore.Internal.Correction.Weighted>
   9.000000E+99

> <Gold.Protein.RotatedTorsions>
[ 6907 6896 6895 6894 ] final   44.26 input  -60.11 | X-H torsion
[ 7974 7965 7964 7962 ] final   16.24 input  175.53 | X-H torsion
[ 8008 7997 7996 7995 ] final  -55.26 input   59.86 | X-H torsion
[ 10167 10162 10161 10158 ] final  101.53 input  -65.29 | X-H torsion
[ 10718 10713 10712 10709 ] final  151.19 input   66.30 | X-H torsion
[ 10763 10752 10751 10750 ] final  -17.47 input  -60.55 | X-H torsion
[ 11005 11000 10999 10996 ] final  107.58 input  -57.11 | X-H torsion

> <Gold.Protein.ActiveResidues>
 VAL166  LYS551  ARG553  GLY616  TRP617  ASP618  TYR619  PRO620  LYS621  CYS622 
 ASP623  PHE694  ASN695  SER759  ASP760  ASP761  ALA762  ILE779  LEU786  VAL792 
 PHE793  MET794  SER795  GLU796  ALA797  LYS798  CYS799  TRP800  GLU811  SER814 

> <Gold.Protein.RotatedAtoms>
  152.2304  134.8328  160.0474 H   0  0  0  0  0  0  0  0  0  0  0  0  # atno 6907 bound_to 6896
  151.9079  133.3549  159.3861 H   0  0  0  0  0  0  0  0  0  0  0  0  # atno 6908 bound_to 6896
  150.7024  134.4688  159.5459 H   0  0  0  0  0  0  0  0  0  0  0  0  # atno 6909 bound_to 6896
  146.2255  139.8777  142.8576 H   0  0  0  0  0  0  0  0  0  0  0  0  # atno 7974 bound_to 7965
  154.4189  140.1157  156.5448 H   0  0  0  0  0  0  0  0  0  0  0  0  # atno 8008 bound_to 7997
  155.6471  140.3496  155.4716 H   0  0  0  0  0  0  0  0  0  0  0  0  # atno 8009 bound_to 7997
  155.9823  140.1163  157.0704 H   0  0  0  0  0  0  0  0  0  0  0  0  # atno 8010 bound_to 7997
  139.7430  144.7006  151.0547 H   0  0  0  0  0  0  0  0  0  0  0  0  # atno 10167 bound_to 10162
  157.2738  131.0822  151.1581 H   0  0  0  0  0  0  0  0  0  0  0  0  # atno 10718 bound_to 10713
  153.5744  135.7006  153.5490 H   0  0  0  0  0  0  0  0  0  0  0  0  # atno 10763 bound_to 10752
  153.3316  135.4045  155.1500 H   0  0  0  0  0  0  0  0  0  0  0  0  # atno 10764 bound_to 10752
  154.8628  135.3720  154.5268 H   0  0  0  0  0  0  0  0  0  0  0  0  # atno 10765 bound_to 10752
  139.8830  134.9405  156.5841 H   0  0  0  0  0  0  0  0  0  0  0  0  # atno 11005 bound_to 11000
  145.2544  141.0055  143.3863 LP  0  0  0  0  0  0  0  0  0  0  0  0  # atno 17320 bound_to 7965
  144.9349  139.4256  143.6477 LP  0  0  0  0  0  0  0  0  0  0  0  0  # atno 17321 bound_to 7965
  140.7788  143.4901  150.9904 LP  0  0  0  0  0  0  0  0  0  0  0  0  # atno 17342 bound_to 10162
  139.8590  143.7340  152.3174 LP  0  0  0  0  0  0  0  0  0  0  0  0  # atno 17343 bound_to 10162
  157.3042  130.6857  149.6180 LP  0  0  0  0  0  0  0  0  0  0  0  0  # atno 17370 bound_to 10713
  155.9663  130.4383  150.5211 LP  0  0  0  0  0  0  0  0  0  0  0  0  # atno 17371 bound_to 10713
  140.8005  133.8509  155.8722 LP  0  0  0  0  0  0  0  0  0  0  0  0  # atno 17394 bound_to 11000
  140.9597  134.1672  157.4664 LP  0  0  0  0  0  0  0  0  0  0  0  0  # atno 17395 bound_to 11000

$$$$
