AV-unprocessed.smi:3314|AV-procd|sdf|12746|dock7
  -GOLD-   2272019 83D 1   1.00000     0.00000
 Structure written by MMmdl.
 37 38  0  0  0  0  0  0  0  0  3 V2000
  151.9836  144.7774  158.4620 C   0  0  0  0  0  0  0  0  0  0  0  0
  152.1180  143.2707  158.5274 C   0  0  0  0  0  0  0  0  0  0  0  0
  152.9816  142.6687  159.4616 C   0  0  0  0  0  0  0  0  0  0  0  0
  153.0614  141.2628  159.4808 C   0  0  0  0  0  0  0  0  0  0  0  0
  153.9729  140.5525  160.4591 C   0  0  0  0  0  0  0  0  0  0  0  0
  152.3540  140.4716  158.6452 N   0  0  0  0  0  0  0  0  0  0  0  0
  151.5252  141.0384  157.7366 C   0  0  0  0  0  0  0  0  0  0  0  0
  150.8212  140.2412  156.9204 N   0  5  0  0  0  0  0  0  0  0  0  0
  151.3419  139.8646  155.7266 C   0  0  0  0  0  0  0  0  0  0  0  0
  152.4907  140.0099  155.3038 O   0  0  0  0  0  0  0  0  0  0  0  0
  150.2875  139.1829  154.8442 C   0  0  1  0  0  0  0  0  0  0  0  0
  149.8396  137.8355  155.4514 C   0  0  0  0  0  0  0  0  0  0  0  0
  148.7636  137.2325  154.6333 N   0  3  1  0  0  0  0  0  0  0  0  0
  148.3279  135.9159  155.1451 C   0  0  0  0  0  0  0  0  0  0  0  0
  147.6395  138.1793  154.4576 C   0  0  0  0  0  0  0  0  0  0  0  0
  148.1508  139.5091  153.8805 C   0  0  0  0  0  0  0  0  0  0  0  0
  149.1546  140.0427  154.7339 O   0  0  0  0  0  0  0  0  0  0  0  0
  151.3783  142.4431  157.6587 C   0  0  0  0  0  0  0  0  0  0  0  0
  152.9419  145.2586  158.6599 H   0  0  0  0  0  0  0  0  0  0  0  0
  151.2640  145.1227  159.2045 H   0  0  0  0  0  0  0  0  0  0  0  0
  151.6419  145.0965  157.4770 H   0  0  0  0  0  0  0  0  0  0  0  0
  153.5649  143.2680  160.1451 H   0  0  0  0  0  0  0  0  0  0  0  0
  154.1638  141.1727  161.3351 H   0  0  0  0  0  0  0  0  0  0  0  0
  154.9273  140.3249  159.9842 H   0  0  0  0  0  0  0  0  0  0  0  0
  153.5259  139.6175  160.7987 H   0  0  0  0  0  0  0  0  0  0  0  0
  150.7020  139.0255  153.8453 H   0  0  0  0  0  0  0  0  0  0  0  0
  150.6832  137.1453  155.4994 H   0  0  0  0  0  0  0  0  0  0  0  0
  149.4837  137.9783  156.4737 H   0  0  0  0  0  0  0  0  0  0  0  0
  147.8937  136.0074  156.1416 H   0  0  0  0  0  0  0  0  0  0  0  0
  149.1715  135.2272  155.2006 H   0  0  0  0  0  0  0  0  0  0  0  0
  147.5805  135.4749  154.4848 H   0  0  0  0  0  0  0  0  0  0  0  0
  146.8933  137.7468  153.7901 H   0  0  0  0  0  0  0  0  0  0  0  0
  147.1517  138.3521  155.4182 H   0  0  0  0  0  0  0  0  0  0  0  0
  148.5469  139.3719  152.8731 H   0  0  0  0  0  0  0  0  0  0  0  0
  147.3331  140.2260  153.8063 H   0  0  0  0  0  0  0  0  0  0  0  0
  150.7060  142.8807  156.9347 H   0  0  0  0  0  0  0  0  0  0  0  0
  149.1563  137.0742  153.7162 H   0  0  0  0  0  0  0  0  0  0  0  0
  1  2  1  0  0  0  0
  1 19  1  0  0  0  0
  1 20  1  0  0  0  0
  1 21  1  0  0  0  0
  2 18  2  0  0  0  0
  2  3  1  0  0  0  0
  3  4  2  0  0  0  0
  3 22  1  0  0  0  0
  4  5  1  0  0  0  0
  4  6  1  0  0  0  0
  5 23  1  0  0  0  0
  5 24  1  0  0  0  0
  5 25  1  0  0  0  0
  6  7  2  0  0  0  0
  7  8  1  0  0  0  0
  7 18  1  0  0  0  0
  8  9  1  0  0  0  0
  9 10  2  0  0  0  0
  9 11  1  0  0  0  0
 11 17  1  0  0  0  0
 11 12  1  0  0  0  0
 11 26  1  0  0  0  0
 12 13  1  0  0  0  0
 12 27  1  0  0  0  0
 12 28  1  0  0  0  0
 13 14  1  0  0  0  0
 13 15  1  0  0  0  0
 13 37  1  0  0  0  0
 14 29  1  0  0  0  0
 14 30  1  0  0  0  0
 14 31  1  0  0  0  0
 15 16  1  0  0  0  0
 15 32  1  0  0  0  0
 15 33  1  0  0  0  0
 16 17  1  0  0  0  0
 16 34  1  0  0  0  0
 16 35  1  0  0  0  0
 18 36  1  0  0  0  0
M  CHG  1   8  -1
M  CHG  1  13   1
M  END
> <s_m_source_file>
AV-unprocessed.smi

> <i_m_source_file_index>
3314

> <i_lp_mmshare_version>
43012

> <i_f3d_flags>
0

> <s_epik_input>
W0NIM11jMVtjSF1jKFtDSDNdKW5jKFtjSF0xKVtOSF1DKD1PKVtDQEBIXTJbQ0gyXU4oW0NIM10pW0NIMl1bQ0gyXU8y

> <s_epik_cmdline>
J2VwaWtfcHl0aG9uJywgJy1waCcsICc3LjAnLCAnLXRuJywgJzgnLCAnLW1hJywgJzIwMCcsICctbWV0YWxfYmluZGluZycsICctaW1hZScsICc8aW5maWxlLm1hZT4nLCAnLW9tYWUnLCAnPG91dGZpbGUubWFlPic=

> <r_epik_Ionization_Penalty>
13.8964

> <r_epik_Ionization_Penalty_Charging>
7.88995

> <r_epik_Ionization_Penalty_Neutral>
6.00641

> <r_epik_State_Penalty>
8.39989

> <r_epik_Charging_Adjusted_Penalty>
16.2898

> <i_epik_Tot_Q>
0

> <i_epik_Tot_abs_Q>
2

> <r_epik_Metal_State_Penalty>
4.31145

> <b_epik_Metal_Only>
1

> <s_lp_Force_Field>
OPLS_2005

> <r_lp_Energy>
9.09812

> <b_lp_Chiralities_Consistent>
1

> <s_lp_Variant>
AV-unprocessed.smi:3314-16

> <Gold.Version>
5.8.1

> <Gold.Id.Protein>
6NUR|6NUR_protein|mol2

> <Gold.PLP.Fitness>
41.3026

> <Gold.PLP.PLP>
-33.4987

> <Gold.PLP.part.hbond>
-3.0000

> <Gold.PLP.part.metal>
0.0000

> <Gold.PLP.part.buried>
-3.5147

> <Gold.PLP.part.nonpolar>
-27.9630

> <Gold.PLP.part.repulsive>
0.0972

> <Gold.PLP.ligand.clash>
0.0000

> <Gold.PLP.ligand.torsion>
0.8515

> <Gold.PLP.Chemscore.Hbond>
3.1658

> <Gold.PLP.Chemscore.CHOScore>
0.0000

> <Gold.PLP.Chemscore.Metal>
0.0000

> <Gold.Chemscore.Hbonds>
donor molecule, donor type, donor heavy atom, donor atom, acceptor molecule, acceptor atom, score
      L1  H    13    37       P1  7948  1.98
      P1  H  7989  7998       L1    10  0.19
      P1  H  7997  8010       L1    10  0.98

> <Gold.PLP.Chemscore.Internal.Correction>
0.0094

> <Gold.Rescore>
     Score         DG    S(hbond)    S(metal)    S(lipo)     H(rot)  DE(clash)    DE(int)     intcor
     18.16     -19.14       1.83        0.00      86.54       1.00       0.06       0.93       ----

> <Gold.Chemscore.Fitness>
18.1552

> <Gold.Chemscore.DG>
-19.1443

> <Gold.Chemscore.ZeroCoef>
-5.4800

> <Gold.Chemscore.Hbond>
1.8260

> <Gold.Chemscore.Metal>
0.0000

> <Gold.Chemscore.Lipo>
86.5425

> <Gold.Chemscore.Internal_Hbond>
0.0000

> <Gold.Chemscore.DEClash>
0.0563

> <Gold.Chemscore.DEInternal>
0.9328

> <Gold.Chemscore.Rot>
1.0000

> <Gold.Chemscore.Internal.Correction>
   9.000000E+99

> <Gold.Chemscore.Hbonds>
donor molecule, donor type, donor heavy atom, donor atom, acceptor molecule, acceptor atom, score
      L1  H    13    37       P1  7948  0.87
      P1  H  7989  7998       L1    10  0.01
      P1  H  7997  8010       L1    10  0.92

> <Gold.Chemscore.Hbond.Weighted>
-6.0989

> <Gold.Chemscore.Metal.Weighted>
-0.0000

> <Gold.Chemscore.Lipo.Weighted>
-10.1255

> <Gold.Chemscore.Internal_Hbond.Weighted>
0.0000

> <Gold.Chemscore.DEClash.Weighted>
0.0563

> <Gold.Chemscore.DEInternal.Weighted>
0.9328

> <Gold.Chemscore.Rot.Weighted>
2.5600

> <Gold.Chemscore.Internal.Correction.Weighted>
   9.000000E+99

> <Gold.Protein.RotatedTorsions>
[ 6907 6896 6895 6894 ] final -115.19 input  -60.11 | X-H torsion
[ 7974 7965 7964 7962 ] final   50.00 input  175.53 | X-H torsion
[ 8008 7997 7996 7995 ] final   94.24 input   59.86 | X-H torsion
[ 10167 10162 10161 10158 ] final  -21.82 input  -65.29 | X-H torsion
[ 10718 10713 10712 10709 ] final -178.98 input   66.30 | X-H torsion
[ 10763 10752 10751 10750 ] final   -0.94 input  -60.55 | X-H torsion
[ 11005 11000 10999 10996 ] final   22.60 input  -57.11 | X-H torsion

> <Gold.Protein.ActiveResidues>
 VAL166  LYS551  ARG553  GLY616  TRP617  ASP618  TYR619  PRO620  LYS621  CYS622 
 ASP623  PHE694  ASN695  SER759  ASP760  ASP761  ALA762  ILE779  LEU786  VAL792 
 PHE793  MET794  SER795  GLU796  ALA797  LYS798  CYS799  TRP800  GLU811  SER814 

> <Gold.Protein.RotatedAtoms>
  150.7959  133.8693  159.3253 H   0  0  0  0  0  0  0  0  0  0  0  0  # atno 6907 bound_to 6896
  151.6519  135.0998  160.0172 H   0  0  0  0  0  0  0  0  0  0  0  0  # atno 6908 bound_to 6896
  152.4041  133.6822  159.6376 H   0  0  0  0  0  0  0  0  0  0  0  0  # atno 6909 bound_to 6896
  146.0054  139.4485  142.9989 H   0  0  0  0  0  0  0  0  0  0  0  0  # atno 7974 bound_to 7965
  156.0558  140.3302  155.7403 H   0  0  0  0  0  0  0  0  0  0  0  0  # atno 8008 bound_to 7997
  155.5531  140.0612  157.2863 H   0  0  0  0  0  0  0  0  0  0  0  0  # atno 8009 bound_to 7997
  154.4457  140.1890  156.0695 H   0  0  0  0  0  0  0  0  0  0  0  0  # atno 8010 bound_to 7997
  140.7283  143.4592  151.0404 H   0  0  0  0  0  0  0  0  0  0  0  0  # atno 10167 bound_to 10162
  156.8523  130.9723  151.3091 H   0  0  0  0  0  0  0  0  0  0  0  0  # atno 10718 bound_to 10713
  153.3383  135.6979  153.6888 H   0  0  0  0  0  0  0  0  0  0  0  0  # atno 10763 bound_to 10752
  153.5663  135.3525  155.2820 H   0  0  0  0  0  0  0  0  0  0  0  0  # atno 10764 bound_to 10752
  154.8632  135.4261  154.2590 H   0  0  0  0  0  0  0  0  0  0  0  0  # atno 10765 bound_to 10752
  140.3788  134.1943  155.7664 H   0  0  0  0  0  0  0  0  0  0  0  0  # atno 11005 bound_to 11000
  145.7423  141.0003  143.1294 LP  0  0  0  0  0  0  0  0  0  0  0  0  # atno 17320 bound_to 7965
  144.6934  139.9114  143.7463 LP  0  0  0  0  0  0  0  0  0  0  0  0  # atno 17321 bound_to 7965
  139.8275  143.7736  152.3179 LP  0  0  0  0  0  0  0  0  0  0  0  0  # atno 17342 bound_to 10162
  139.7840  144.7434  151.0048 LP  0  0  0  0  0  0  0  0  0  0  0  0  # atno 17343 bound_to 10162
  157.6297  130.8719  149.9251 LP  0  0  0  0  0  0  0  0  0  0  0  0  # atno 17370 bound_to 10713
  156.0822  130.3672  150.0559 LP  0  0  0  0  0  0  0  0  0  0  0  0  # atno 17371 bound_to 10713
  141.1930  133.8160  157.0815 LP  0  0  0  0  0  0  0  0  0  0  0  0  # atno 17394 bound_to 11000
  140.0494  134.9813  157.1109 LP  0  0  0  0  0  0  0  0  0  0  0  0  # atno 17395 bound_to 11000

$$$$
