AV-unprocessed.smi:866|AV-procd|sdf|3992|dock9
  -GOLD-   22720 1473D 1   1.00000     0.00000
 Structure written by MMmdl.
 34 34  0  0  0  0  0  0  0  0  2 V2000
  153.8041  141.2643  159.9028 C   0  0  0  0  0  0  0  0  0  0  0  0
  152.5712  141.8910  159.3180 C   0  0  0  0  0  0  0  0  0  0  0  0
  152.3596  143.2585  158.9828 C   0  0  0  0  0  0  0  0  0  0  0  0
  151.1551  143.4851  158.4845 N   0  0  0  0  0  0  0  0  0  0  0  0
  150.5564  142.2758  158.4861 N   0  0  0  0  0  0  0  0  0  0  0  0
  149.1976  142.1463  157.9966 C   0  0  0  0  0  0  0  0  0  0  0  0
  149.1124  141.1825  156.8046 C   0  0  0  0  0  0  0  0  0  0  0  0
  149.6546  141.8081  155.5813 N   0  3  0  0  0  0  0  0  0  0  0  0
  149.0299  141.3643  154.3117 C   0  0  2  0  0  0  0  0  0  0  0  0
  147.5954  141.9054  154.1859 C   0  0  0  0  0  0  0  0  0  0  0  0
  149.0394  139.8210  154.2073 C   0  0  0  0  0  0  0  0  0  0  0  0
  150.4217  139.1977  153.9651 C   0  0  0  0  0  0  0  0  0  0  0  0
  150.4505  138.0653  153.2589 N   0  0  0  0  0  0  0  0  0  0  0  0
  151.4459  139.7197  154.4020 O   0  0  0  0  0  0  0  0  0  0  0  0
  151.3894  141.2945  158.9802 C   0  0  0  0  0  0  0  0  0  0  0  0
  154.6090  141.9894  160.0249 H   0  0  0  0  0  0  0  0  0  0  0  0
  154.1872  140.4635  159.2702 H   0  0  0  0  0  0  0  0  0  0  0  0
  153.6086  140.8339  160.8852 H   0  0  0  0  0  0  0  0  0  0  0  0
  153.0424  144.0890  159.0870 H   0  0  0  0  0  0  0  0  0  0  0  0
  148.5662  141.7999  158.8163 H   0  0  0  0  0  0  0  0  0  0  0  0
  148.8357  143.1353  157.7128 H   0  0  0  0  0  0  0  0  0  0  0  0
  149.6636  140.2698  157.0310 H   0  0  0  0  0  0  0  0  0  0  0  0
  148.0737  140.8986  156.6291 H   0  0  0  0  0  0  0  0  0  0  0  0
  149.4924  142.8021  155.6629 H   0  0  0  0  0  0  0  0  0  0  0  0
  149.6165  141.7631  153.4821 H   0  0  0  0  0  0  0  0  0  0  0  0
  147.1302  141.5642  153.2605 H   0  0  0  0  0  0  0  0  0  0  0  0
  147.5717  142.9949  154.1700 H   0  0  0  0  0  0  0  0  0  0  0  0
  146.9697  141.5692  155.0134 H   0  0  0  0  0  0  0  0  0  0  0  0
  148.6136  139.3876  155.1136 H   0  0  0  0  0  0  0  0  0  0  0  0
  148.3932  139.5092  153.3855 H   0  0  0  0  0  0  0  0  0  0  0  0
  151.3297  137.6038  153.0748 H   0  0  0  0  0  0  0  0  0  0  0  0
  149.5878  137.6664  152.9166 H   0  0  0  0  0  0  0  0  0  0  0  0
  151.0761  140.2635  159.0521 H   0  0  0  0  0  0  0  0  0  0  0  0
  150.6506  141.6485  155.5341 H   0  0  0  0  0  0  0  0  0  0  0  0
  1  2  1  0  0  0  0
  1 16  1  0  0  0  0
  1 17  1  0  0  0  0
  1 18  1  0  0  0  0
  2 15  2  0  0  0  0
  2  3  1  0  0  0  0
  3  4  2  0  0  0  0
  3 19  1  0  0  0  0
  4  5  1  0  0  0  0
  5  6  1  0  0  0  0
  5 15  1  0  0  0  0
  6  7  1  0  0  0  0
  6 20  1  0  0  0  0
  6 21  1  0  0  0  0
  7  8  1  0  0  0  0
  7 22  1  0  0  0  0
  7 23  1  0  0  0  0
  8  9  1  0  0  0  0
  8 24  1  0  0  0  0
  8 34  1  0  0  0  0
  9 10  1  0  0  0  0
  9 11  1  0  0  0  0
  9 25  1  0  0  0  0
 10 26  1  0  0  0  0
 10 27  1  0  0  0  0
 10 28  1  0  0  0  0
 11 12  1  0  0  0  0
 11 29  1  0  0  0  0
 11 30  1  0  0  0  0
 12 13  1  0  0  0  0
 12 14  2  0  0  0  0
 13 31  1  0  0  0  0
 13 32  1  0  0  0  0
 15 33  1  0  0  0  0
M  CHG  1   8   1
M  END
> <s_m_source_file>
AV-unprocessed.smi

> <i_m_source_file_index>
866

> <i_lp_mmshare_version>
43012

> <i_f3d_flags>
0

> <s_epik_input>
W0NIM11jMVtjSF1ubihbY0hdMSlbQ0gyXVtDSDJdW05IXVtDQEhdKFtDSDNdKVtDSDJdQyg9TylbTkgyXQ==

> <s_epik_cmdline>
J2VwaWtfcHl0aG9uJywgJy1waCcsICc3LjAnLCAnLXRuJywgJzgnLCAnLW1hJywgJzIwMCcsICctbWV0YWxfYmluZGluZycsICctaW1hZScsICc8aW5maWxlLm1hZT4nLCAnLW9tYWUnLCAnPG91dGZpbGUubWFlPic=

> <r_lp_tautomer_probability>
1

> <r_epik_Ionization_Penalty>
0.0061413

> <r_epik_Ionization_Penalty_Charging>
0.00613574

> <r_epik_Ionization_Penalty_Neutral>
5.56035e-06

> <r_epik_State_Penalty>
0.00452343

> <r_epik_Charging_Adjusted_Penalty>
0.0106592

> <i_epik_Tot_Q>
1

> <i_epik_Tot_abs_Q>
1

> <r_epik_Metal_State_Penalty>
-0

> <b_epik_Metal_Only>
0

> <s_lp_Force_Field>
OPLS_2005

> <r_lp_Energy>
1.4749

> <b_lp_Chiralities_Consistent>
1

> <s_lp_Variant>
AV-unprocessed.smi:866-1

> <Gold.Version>
5.8.1

> <Gold.Id.Protein>
6NUR|6NUR_protein|mol2

> <Gold.PLP.Fitness>
44.2977

> <Gold.PLP.PLP>
-35.3326

> <Gold.PLP.part.hbond>
-3.9093

> <Gold.PLP.part.metal>
0.0000

> <Gold.PLP.part.buried>
-4.1258

> <Gold.PLP.part.nonpolar>
-27.7013

> <Gold.PLP.part.repulsive>
0.4019

> <Gold.PLP.ligand.clash>
0.0000

> <Gold.PLP.ligand.torsion>
0.7505

> <Gold.PLP.Chemscore.Hbond>
3.4632

> <Gold.PLP.Chemscore.CHOScore>
0.0000

> <Gold.PLP.Chemscore.Metal>
0.0000

> <Gold.Chemscore.Hbonds>
donor molecule, donor type, donor heavy atom, donor atom, acceptor molecule, acceptor atom, score
      L1  H     8    24       P1  8028  2.00
      L1  H    13    31       P1  7949  0.10
      L1  H    13    32       P1  7948  0.78
      P1  H  7989  7998       L1    14  0.84

> <Gold.PLP.Chemscore.Internal.Correction>
0.0763

> <Gold.Rescore>
     Score         DG    S(hbond)    S(metal)    S(lipo)     H(rot)  DE(clash)    DE(int)     intcor
     12.86     -13.62       1.96        0.00      74.48       2.77       0.01       0.75       ----

> <Gold.Chemscore.Fitness>
12.8611

> <Gold.Chemscore.DG>
-13.6238

> <Gold.Chemscore.ZeroCoef>
-5.4800

> <Gold.Chemscore.Hbond>
1.9555

> <Gold.Chemscore.Metal>
0.0000

> <Gold.Chemscore.Lipo>
74.4789

> <Gold.Chemscore.Internal_Hbond>
0.0000

> <Gold.Chemscore.DEClash>
0.0144

> <Gold.Chemscore.DEInternal>
0.7483

> <Gold.Chemscore.Rot>
2.7740

> <Gold.Chemscore.Internal.Correction>
   9.000000E+99

> <Gold.Chemscore.Hbonds>
donor molecule, donor type, donor heavy atom, donor atom, acceptor molecule, acceptor atom, score
      L1  H     8    24       P1  8028  0.95
      L1  H    13    31       P1  7949  0.08
      L1  H    13    32       P1  7948  0.58
      P1  H  7989  7998       L1    14  0.33

> <Gold.Chemscore.Hbond.Weighted>
-6.5312

> <Gold.Chemscore.Metal.Weighted>
-0.0000

> <Gold.Chemscore.Lipo.Weighted>
-8.7140

> <Gold.Chemscore.Internal_Hbond.Weighted>
0.0000

> <Gold.Chemscore.DEClash.Weighted>
0.0144

> <Gold.Chemscore.DEInternal.Weighted>
0.7483

> <Gold.Chemscore.Rot.Weighted>
7.1014

> <Gold.Chemscore.Internal.Correction.Weighted>
   9.000000E+99

> <Gold.Protein.RotatedTorsions>
[ 6907 6896 6895 6894 ] final  -57.62 input  -60.11 | X-H torsion
[ 7974 7965 7964 7962 ] final -133.10 input  175.53 | X-H torsion
[ 8008 7997 7996 7995 ] final -159.78 input   59.86 | X-H torsion
[ 10167 10162 10161 10158 ] final   31.72 input  -65.29 | X-H torsion
[ 10718 10713 10712 10709 ] final -177.49 input   66.30 | X-H torsion
[ 10763 10752 10751 10750 ] final  163.77 input  -60.55 | X-H torsion
[ 11005 11000 10999 10996 ] final -130.11 input  -57.11 | X-H torsion

> <Gold.Protein.ActiveResidues>
 VAL166  LYS551  ARG553  GLY616  TRP617  ASP618  TYR619  PRO620  LYS621  CYS622 
 ASP623  PHE694  ASN695  SER759  ASP760  ASP761  ALA762  ILE779  LEU786  VAL792 
 PHE793  MET794  SER795  GLU796  ALA797  LYS798  CYS799  TRP800  GLU811  SER814 

> <Gold.Protein.RotatedAtoms>
  150.8071  134.7203  159.6653 H   0  0  0  0  0  0  0  0  0  0  0  0  # atno 6907 bound_to 6896
  152.4191  134.5985  160.0003 H   0  0  0  0  0  0  0  0  0  0  0  0  # atno 6908 bound_to 6896
  151.6206  133.3302  159.3123 H   0  0  0  0  0  0  0  0  0  0  0  0  # atno 6909 bound_to 6896
  144.9225  140.7031  143.4956 H   0  0  0  0  0  0  0  0  0  0  0  0  # atno 7974 bound_to 7965
  155.7676  140.0847  157.2124 H   0  0  0  0  0  0  0  0  0  0  0  0  # atno 8008 bound_to 7997
  154.3998  140.1531  156.2961 H   0  0  0  0  0  0  0  0  0  0  0  0  # atno 8009 bound_to 7997
  155.8779  140.3422  155.5869 H   0  0  0  0  0  0  0  0  0  0  0  0  # atno 8010 bound_to 7997
  140.4563  144.0973  150.6202 H   0  0  0  0  0  0  0  0  0  0  0  0  # atno 10167 bound_to 10162
  156.8302  130.9650  151.3107 H   0  0  0  0  0  0  0  0  0  0  0  0  # atno 10718 bound_to 10713
  154.2988  135.2759  155.2621 H   0  0  0  0  0  0  0  0  0  0  0  0  # atno 10763 bound_to 10752
  154.5067  135.5793  153.6576 H   0  0  0  0  0  0  0  0  0  0  0  0  # atno 10764 bound_to 10752
  152.9903  135.6171  154.3157 H   0  0  0  0  0  0  0  0  0  0  0  0  # atno 10765 bound_to 10752
  140.9374  134.1238  157.4181 H   0  0  0  0  0  0  0  0  0  0  0  0  # atno 11005 bound_to 11000
  145.3273  139.1770  143.4555 LP  0  0  0  0  0  0  0  0  0  0  0  0  # atno 17320 bound_to 7965
  146.3211  140.3299  142.8639 LP  0  0  0  0  0  0  0  0  0  0  0  0  # atno 17321 bound_to 7965
  140.4147  143.2640  151.9790 LP  0  0  0  0  0  0  0  0  0  0  0  0  # atno 17342 bound_to 10162
  139.4801  144.5885  151.7813 LP  0  0  0  0  0  0  0  0  0  0  0  0  # atno 17343 bound_to 10162
  157.6411  130.8806  149.9449 LP  0  0  0  0  0  0  0  0  0  0  0  0  # atno 17370 bound_to 10713
  156.0938  130.3661  150.0344 LP  0  0  0  0  0  0  0  0  0  0  0  0  # atno 17371 bound_to 10713
  139.8811  135.0025  156.6133 LP  0  0  0  0  0  0  0  0  0  0  0  0  # atno 17394 bound_to 11000
  140.7780  133.8683  155.8545 LP  0  0  0  0  0  0  0  0  0  0  0  0  # atno 17395 bound_to 11000

$$$$
