AV-unprocessed.smi:2169|AV-procd|sdf|8823|dock5
  -GOLD-   2272012 13D 1   1.00000     0.00000
 Structure written by MMmdl.
 45 46  0  0  0  0  0  0  0  0  2 V2000
  152.3108  140.2362  158.9950 C   0  0  0  0  0  0  0  0  0  0  0  0
  151.9283  139.0896  157.6085 S   0  0  0  0  0  0  0  0  0  0  0  0
  153.0863  139.0636  156.7018 O   0  0  0  0  0  0  0  0  0  0  0  0
  151.4218  137.8324  158.1800 O   0  0  0  0  0  0  0  0  0  0  0  0
  150.6128  139.8608  156.7699 N   0  0  0  0  0  0  0  0  0  0  0  0
  150.7824  140.2894  155.3669 C   0  0  0  0  0  0  0  0  0  0  0  0
  150.1261  139.3015  154.3860 C   0  0  0  0  0  0  0  0  0  0  0  0
  148.6493  139.0562  154.7402 C   0  0  0  0  0  0  0  0  0  0  0  0
  148.0572  138.0592  153.8531 N   0  0  0  0  0  0  0  0  0  0  0  0
  146.7731  137.6762  153.8703 C   0  0  0  0  0  0  0  0  0  0  0  0
  145.9247  138.1348  154.6359 O   0  0  0  0  0  0  0  0  0  0  0  0
  146.5230  136.7288  152.9557 N   0  0  0  0  0  0  0  0  0  0  0  0
  145.2229  136.1064  152.7361 C   0  0  0  0  0  0  0  0  0  0  0  0
  145.0094  135.7462  151.2563 C   0  0  0  0  0  0  0  0  0  0  0  0
  145.2194  134.2683  150.9913 C   0  0  0  0  0  0  0  0  0  0  0  0
  144.1302  133.4327  150.6583 C   0  0  0  0  0  0  0  0  0  0  0  0
  144.3589  132.0614  150.4190 C   0  0  0  0  0  0  0  0  0  0  0  0
  145.6716  131.5566  150.5191 C   0  0  0  0  0  0  0  0  0  0  0  0
  146.6884  132.3865  150.8407 N   0  3  0  0  0  0  0  0  0  0  0  0
  146.5109  133.7051  151.0767 C   0  0  0  0  0  0  0  0  0  0  0  0
  148.5496  138.5793  156.1964 C   0  0  0  0  0  0  0  0  0  0  0  0
  149.2179  139.5742  157.1614 C   0  0  0  0  0  0  0  0  0  0  0  0
  153.1353  139.8267  159.5778 H   0  0  0  0  0  0  0  0  0  0  0  0
  151.4406  140.3404  159.6406 H   0  0  0  0  0  0  0  0  0  0  0  0
  152.6047  141.2083  158.6032 H   0  0  0  0  0  0  0  0  0  0  0  0
  150.3265  141.2733  155.2509 H   0  0  0  0  0  0  0  0  0  0  0  0
  151.8393  140.4115  155.1318 H   0  0  0  0  0  0  0  0  0  0  0  0
  150.2083  139.6946  153.3720 H   0  0  0  0  0  0  0  0  0  0  0  0
  150.6700  138.3574  154.3892 H   0  0  0  0  0  0  0  0  0  0  0  0
  148.0972  139.9935  154.6456 H   0  0  0  0  0  0  0  0  0  0  0  0
  148.6751  137.6227  153.1845 H   0  0  0  0  0  0  0  0  0  0  0  0
  147.2845  136.4165  152.3707 H   0  0  0  0  0  0  0  0  0  0  0  0
  145.1261  135.2200  153.3655 H   0  0  0  0  0  0  0  0  0  0  0  0
  144.4531  136.8059  153.0637 H   0  0  0  0  0  0  0  0  0  0  0  0
  144.0030  136.0283  150.9439 H   0  0  0  0  0  0  0  0  0  0  0  0
  145.6960  136.3121  150.6251 H   0  0  0  0  0  0  0  0  0  0  0  0
  143.1302  133.8357  150.5871 H   0  0  0  0  0  0  0  0  0  0  0  0
  143.5385  131.4069  150.1623 H   0  0  0  0  0  0  0  0  0  0  0  0
  145.9369  130.5225  150.3532 H   0  0  0  0  0  0  0  0  0  0  0  0
  147.4008  134.2649  151.3264 H   0  0  0  0  0  0  0  0  0  0  0  0
  147.5026  138.4531  156.4751 H   0  0  0  0  0  0  0  0  0  0  0  0
  149.0109  137.5976  156.2983 H   0  0  0  0  0  0  0  0  0  0  0  0
  149.1791  139.1963  158.1827 H   0  0  0  0  0  0  0  0  0  0  0  0
  148.6615  140.5121  157.1600 H   0  0  0  0  0  0  0  0  0  0  0  0
  147.6308  132.0010  150.9080 H   0  0  0  0  0  0  0  0  0  0  0  0
  1  2  1  0  0  0  0
  1 23  1  0  0  0  0
  1 24  1  0  0  0  0
  1 25  1  0  0  0  0
  2  3  2  0  0  0  0
  2  4  2  0  0  0  0
  2  5  1  0  0  0  0
  5 22  1  0  0  0  0
  5  6  1  0  0  0  0
  6  7  1  0  0  0  0
  6 26  1  0  0  0  0
  6 27  1  0  0  0  0
  7  8  1  0  0  0  0
  7 28  1  0  0  0  0
  7 29  1  0  0  0  0
  8  9  1  0  0  0  0
  8 21  1  0  0  0  0
  8 30  1  0  0  0  0
  9 10  1  0  0  0  0
  9 31  1  0  0  0  0
 10 11  2  0  0  0  0
 10 12  1  0  0  0  0
 12 13  1  0  0  0  0
 12 32  1  0  0  0  0
 13 14  1  0  0  0  0
 13 33  1  0  0  0  0
 13 34  1  0  0  0  0
 14 15  1  0  0  0  0
 14 35  1  0  0  0  0
 14 36  1  0  0  0  0
 15 20  1  0  0  0  0
 15 16  2  0  0  0  0
 16 17  1  0  0  0  0
 16 37  1  0  0  0  0
 17 18  2  0  0  0  0
 17 38  1  0  0  0  0
 18 19  1  0  0  0  0
 18 39  1  0  0  0  0
 19 20  2  0  0  0  0
 19 45  1  0  0  0  0
 20 40  1  0  0  0  0
 21 22  1  0  0  0  0
 21 41  1  0  0  0  0
 21 42  1  0  0  0  0
 22 43  1  0  0  0  0
 22 44  1  0  0  0  0
M  CHG  1  19   1
M  END
> <s_m_source_file>
AV-unprocessed.smi

> <i_m_source_file_index>
2169

> <i_lp_mmshare_version>
43012

> <i_f3d_flags>
0

> <s_epik_input>
W0NIM11TKD1PKSg9TylOMVtDSDJdW0NIMl1bQ0hdKFtDSDJdW0NIMl0xKVtOSF1DKD1PKVtOSF1bQ0gyXVtDSDJdYzJbY0hdW2NIXVtjSF1uW2NIXTI=

> <s_epik_cmdline>
J2VwaWtfcHl0aG9uJywgJy1waCcsICc3LjAnLCAnLXRuJywgJzgnLCAnLW1hJywgJzIwMCcsICctbWV0YWxfYmluZGluZycsICctaW1hZScsICc8aW5maWxlLm1hZT4nLCAnLW9tYWUnLCAnPG91dGZpbGUubWFlPic=

> <r_epik_Ionization_Penalty>
2.21124

> <r_epik_Ionization_Penalty_Charging>
2.21119

> <r_epik_Ionization_Penalty_Neutral>
4.90089e-05

> <r_epik_State_Penalty>
2.35542

> <r_epik_Charging_Adjusted_Penalty>
4.56661

> <i_epik_Tot_Q>
1

> <i_epik_Tot_abs_Q>
1

> <r_epik_Metal_State_Penalty>
2.36951

> <b_epik_Metal_Only>
0

> <s_lp_Force_Field>
OPLS_2005

> <r_lp_Energy>
3.64161

> <b_lp_Chiralities_Consistent>
1

> <s_lp_Variant>
AV-unprocessed.smi:2169-2

> <Gold.Version>
5.8.1

> <Gold.Id.Protein>
6NUR|6NUR_protein|mol2

> <Gold.PLP.Fitness>
45.5128

> <Gold.PLP.PLP>
-34.6829

> <Gold.PLP.part.hbond>
-4.0000

> <Gold.PLP.part.metal>
0.0000

> <Gold.PLP.part.buried>
-5.6914

> <Gold.PLP.part.nonpolar>
-25.9724

> <Gold.PLP.part.repulsive>
0.1712

> <Gold.PLP.ligand.clash>
0.0000

> <Gold.PLP.ligand.torsion>
1.6084

> <Gold.PLP.Chemscore.Hbond>
3.9920

> <Gold.PLP.Chemscore.CHOScore>
0.0000

> <Gold.PLP.Chemscore.Metal>
0.0000

> <Gold.Chemscore.Hbonds>
donor molecule, donor type, donor heavy atom, donor atom, acceptor molecule, acceptor atom, score
      L1  H     9    31       P1  7948  0.99
      L1  H    12    32       P1  7948  1.00
      L1  H    19    45       P1 10747  1.00
      P1  H  7997  8009       L1     3  1.00

> <Gold.PLP.Chemscore.Internal.Correction>
2.0708

> <Gold.Rescore>
     Score         DG    S(hbond)    S(metal)    S(lipo)     H(rot)  DE(clash)    DE(int)     intcor
     21.74     -23.44       3.92        0.00      79.44       1.73       0.02       1.67       ----

> <Gold.Chemscore.Fitness>
21.7443

> <Gold.Chemscore.DG>
-23.4398

> <Gold.Chemscore.ZeroCoef>
-5.4800

> <Gold.Chemscore.Hbond>
3.9202

> <Gold.Chemscore.Metal>
0.0000

> <Gold.Chemscore.Lipo>
79.4396

> <Gold.Chemscore.Internal_Hbond>
0.0000

> <Gold.Chemscore.DEClash>
0.0240

> <Gold.Chemscore.DEInternal>
1.6716

> <Gold.Chemscore.Rot>
1.7297

> <Gold.Chemscore.Internal.Correction>
   9.000000E+99

> <Gold.Chemscore.Hbonds>
donor molecule, donor type, donor heavy atom, donor atom, acceptor molecule, acceptor atom, score
      L1  H     9    31       P1  7948  0.93
      L1  H    12    32       P1  7948  0.99
      L1  H    19    45       P1 10747  0.95
      P1  H  7997  8009       L1     3  0.99

> <Gold.Chemscore.Hbond.Weighted>
-13.0934

> <Gold.Chemscore.Metal.Weighted>
-0.0000

> <Gold.Chemscore.Lipo.Weighted>
-9.2944

> <Gold.Chemscore.Internal_Hbond.Weighted>
0.0000

> <Gold.Chemscore.DEClash.Weighted>
0.0240

> <Gold.Chemscore.DEInternal.Weighted>
1.6716

> <Gold.Chemscore.Rot.Weighted>
4.4280

> <Gold.Chemscore.Internal.Correction.Weighted>
   9.000000E+99

> <Gold.Protein.RotatedTorsions>
[ 6907 6896 6895 6894 ] final  -22.30 input  -60.11 | X-H torsion
[ 7974 7965 7964 7962 ] final  -75.56 input  175.53 | X-H torsion
[ 8008 7997 7996 7995 ] final -171.60 input   59.86 | X-H torsion
[ 10167 10162 10161 10158 ] final  -18.06 input  -65.29 | X-H torsion
[ 10718 10713 10712 10709 ] final -152.74 input   66.30 | X-H torsion
[ 10763 10752 10751 10750 ] final   10.21 input  -60.55 | X-H torsion
[ 11005 11000 10999 10996 ] final  138.96 input  -57.11 | X-H torsion

> <Gold.Protein.ActiveResidues>
 VAL166  LYS551  ARG553  GLY616  TRP617  ASP618  TYR619  PRO620  LYS621  CYS622 
 ASP623  PHE694  ASN695  SER759  ASP760  ASP761  ALA762  ILE779  LEU786  VAL792 
 PHE793  MET794  SER795  GLU796  ALA797  LYS798  CYS799  TRP800  GLU811  SER814 

> <Gold.Protein.RotatedAtoms>
  151.2207  135.0517  159.8948 H   0  0  0  0  0  0  0  0  0  0  0  0  # atno 6907 bound_to 6896
  152.5415  134.0644  159.8176 H   0  0  0  0  0  0  0  0  0  0  0  0  # atno 6908 bound_to 6896
  151.0810  133.5342  159.2652 H   0  0  0  0  0  0  0  0  0  0  0  0  # atno 6909 bound_to 6896
  145.6244  140.9354  143.1120 H   0  0  0  0  0  0  0  0  0  0  0  0  # atno 7974 bound_to 7965
  155.9337  140.1096  157.1112 H   0  0  0  0  0  0  0  0  0  0  0  0  # atno 8008 bound_to 7997
  154.4075  140.1232  156.4902 H   0  0  0  0  0  0  0  0  0  0  0  0  # atno 8009 bound_to 7997
  155.7048  140.3471  155.4951 H   0  0  0  0  0  0  0  0  0  0  0  0  # atno 8010 bound_to 7997
  140.7254  143.4954  150.9938 H   0  0  0  0  0  0  0  0  0  0  0  0  # atno 10167 bound_to 10162
  156.4766  130.8283  151.2511 H   0  0  0  0  0  0  0  0  0  0  0  0  # atno 10718 bound_to 10713
  153.2056  135.6862  153.8177 H   0  0  0  0  0  0  0  0  0  0  0  0  # atno 10763 bound_to 10752
  153.7428  135.3235  155.3308 H   0  0  0  0  0  0  0  0  0  0  0  0  # atno 10764 bound_to 10752
  154.8195  135.4662  154.0841 H   0  0  0  0  0  0  0  0  0  0  0  0  # atno 10765 bound_to 10752
  140.0221  134.9392  157.0494 H   0  0  0  0  0  0  0  0  0  0  0  0  # atno 11005 bound_to 11000
  144.7218  139.8005  143.7379 LP  0  0  0  0  0  0  0  0  0  0  0  0  # atno 17320 bound_to 7965
  146.1406  139.4461  143.0111 LP  0  0  0  0  0  0  0  0  0  0  0  0  # atno 17321 bound_to 7965
  139.8660  143.7253  152.3170 LP  0  0  0  0  0  0  0  0  0  0  0  0  # atno 17342 bound_to 10162
  139.7485  144.7540  151.0543 LP  0  0  0  0  0  0  0  0  0  0  0  0  # atno 17343 bound_to 10162
  157.7487  131.0059  150.3130 LP  0  0  0  0  0  0  0  0  0  0  0  0  # atno 17370 bound_to 10713
  156.3564  130.3839  149.7287 LP  0  0  0  0  0  0  0  0  0  0  0  0  # atno 17371 bound_to 10713
  140.4370  134.1721  155.7171 LP  0  0  0  0  0  0  0  0  0  0  0  0  # atno 17394 bound_to 11000
  141.1780  133.8474  157.1356 LP  0  0  0  0  0  0  0  0  0  0  0  0  # atno 17395 bound_to 11000

$$$$
