AV-unprocessed.smi:438|AV-procd|sdf|2565|dock10
  -GOLD-   2262022543D 1   1.00000     0.00000
 Structure written by MMmdl.
 48 49  0  0  0  0  0  0  0  0  1 V2000
  145.9403  129.8645  152.3223 C   0  0  0  0  0  0  0  0  0  0  0  0
  146.3205  131.3339  152.2852 C   0  0  0  0  0  0  0  0  0  0  0  0
  147.5557  131.6543  152.8626 N   0  0  0  0  0  0  0  0  0  0  0  0
  147.9675  132.8815  152.8756 C   0  0  0  0  0  0  0  0  0  0  0  0
  149.5120  133.5685  153.5354 S   0  0  0  0  0  0  0  0  0  0  0  0
  149.3370  133.2039  155.3054 C   0  0  0  0  0  0  0  0  0  0  0  0
  149.8944  134.3241  156.1772 C   0  0  0  0  0  0  0  0  0  0  0  0
  150.1180  134.1270  157.3711 O   0  0  0  0  0  0  0  0  0  0  0  0
  150.1051  135.4990  155.5645 N   0  0  0  0  0  0  0  0  0  0  0  0
  150.5747  136.7269  156.2050 C   0  0  2  0  0  0  0  0  0  0  0  0
  149.6561  137.1124  157.3852 C   0  0  0  0  0  0  0  0  0  0  0  0
  148.2649  137.5676  156.9109 C   0  0  0  0  0  0  0  0  0  0  0  0
  148.3722  138.7173  155.8980 C   0  0  0  0  0  0  0  0  0  0  0  0
  149.2733  138.3380  154.7117 C   0  0  0  0  0  0  0  0  0  0  0  0
  150.6721  137.8852  155.1814 C   0  0  2  0  0  0  0  0  0  0  0  0
  151.5891  137.5540  153.9913 C   0  0  0  0  0  0  0  0  0  0  0  0
  147.1856  133.8965  152.3231 N   0  0  0  0  0  0  0  0  0  0  0  0
  145.9805  133.6926  151.7466 C   0  0  0  0  0  0  0  0  0  0  0  0
  145.3431  134.6369  151.2833 O   0  0  0  0  0  0  0  0  0  0  0  0
  145.5250  132.2924  151.7328 C   0  0  0  0  0  0  0  0  0  0  0  0
  144.1834  131.9886  151.0717 C   0  0  0  0  0  0  0  0  0  0  0  0
  144.1216  132.4950  149.6234 C   0  0  0  0  0  0  0  0  0  0  0  0
  142.8694  132.1732  149.0583 O   0  0  0  0  0  0  0  0  0  0  0  0
  144.9475  129.7342  152.7535 H   0  0  0  0  0  0  0  0  0  0  0  0
  146.6430  129.2889  152.9262 H   0  0  0  0  0  0  0  0  0  0  0  0
  145.9411  129.4454  151.3159 H   0  0  0  0  0  0  0  0  0  0  0  0
  149.8639  132.2784  155.5402 H   0  0  0  0  0  0  0  0  0  0  0  0
  148.2831  133.0433  155.5364 H   0  0  0  0  0  0  0  0  0  0  0  0
  149.8941  135.5587  154.5788 H   0  0  0  0  0  0  0  0  0  0  0  0
  151.5767  136.5436  156.5975 H   0  0  0  0  0  0  0  0  0  0  0  0
  149.5576  136.2792  158.0821 H   0  0  0  0  0  0  0  0  0  0  0  0
  150.1215  137.9211  157.9496 H   0  0  0  0  0  0  0  0  0  0  0  0
  147.7351  136.7282  156.4586 H   0  0  0  0  0  0  0  0  0  0  0  0
  147.6667  137.8822  157.7664 H   0  0  0  0  0  0  0  0  0  0  0  0
  147.3795  138.9895  155.5383 H   0  0  0  0  0  0  0  0  0  0  0  0
  148.7742  139.6026  156.3926 H   0  0  0  0  0  0  0  0  0  0  0  0
  148.7984  137.5447  154.1328 H   0  0  0  0  0  0  0  0  0  0  0  0
  149.3652  139.1923  154.0400 H   0  0  0  0  0  0  0  0  0  0  0  0
  151.1270  138.7309  155.6995 H   0  0  0  0  0  0  0  0  0  0  0  0
  151.1797  136.7541  153.3736 H   0  0  0  0  0  0  0  0  0  0  0  0
  152.5757  137.2399  154.3328 H   0  0  0  0  0  0  0  0  0  0  0  0
  151.7261  138.4256  153.3508 H   0  0  0  0  0  0  0  0  0  0  0  0
  147.5341  134.8435  152.3544 H   0  0  0  0  0  0  0  0  0  0  0  0
  143.3706  132.4308  151.6476 H   0  0  0  0  0  0  0  0  0  0  0  0
  144.0006  130.9134  151.1012 H   0  0  0  0  0  0  0  0  0  0  0  0
  144.2607  133.5758  149.5867 H   0  0  0  0  0  0  0  0  0  0  0  0
  144.9088  132.0429  149.0193 H   0  0  0  0  0  0  0  0  0  0  0  0
  142.2791  132.8969  149.2031 H   0  0  0  0  0  0  0  0  0  0  0  0
  1 24  1  0  0  0  0
  1 25  1  0  0  0  0
  1 26  1  0  0  0  0
  1  2  1  0  0  0  0
  2 20  2  0  0  0  0
  2  3  1  0  0  0  0
  3  4  2  0  0  0  0
  4  5  1  0  0  0  0
  4 17  1  0  0  0  0
  5  6  1  0  0  0  0
  6  7  1  0  0  0  0
  6 27  1  0  0  0  0
  6 28  1  0  0  0  0
  7  8  2  0  0  0  0
  7  9  1  0  0  0  0
  9 10  1  0  0  0  0
  9 29  1  0  0  0  0
 10 15  1  0  0  0  0
 10 11  1  0  0  0  0
 10 30  1  0  0  0  0
 11 12  1  0  0  0  0
 11 31  1  0  0  0  0
 11 32  1  0  0  0  0
 12 13  1  0  0  0  0
 12 33  1  0  0  0  0
 12 34  1  0  0  0  0
 13 14  1  0  0  0  0
 13 35  1  0  0  0  0
 13 36  1  0  0  0  0
 14 15  1  0  0  0  0
 14 37  1  0  0  0  0
 14 38  1  0  0  0  0
 15 16  1  0  0  0  0
 15 39  1  0  0  0  0
 16 40  1  0  0  0  0
 16 41  1  0  0  0  0
 16 42  1  0  0  0  0
 17 43  1  0  0  0  0
 17 18  1  0  0  0  0
 18 19  2  0  0  0  0
 18 20  1  0  0  0  0
 20 21  1  0  0  0  0
 21 22  1  0  0  0  0
 21 44  1  0  0  0  0
 21 45  1  0  0  0  0
 22 23  1  0  0  0  0
 22 46  1  0  0  0  0
 22 47  1  0  0  0  0
 23 48  1  0  0  0  0
M  END
> <s_m_source_file>
AV-unprocessed.smi

> <i_m_source_file_index>
438

> <i_lp_mmshare_version>
43012

> <i_f3d_flags>
0

> <s_epik_input>
W09IXVtDSDJdW0NIMl1jMWMoW09IXSluYyhuYzFbQ0gzXSlTW0NIMl1DKD1PKVtOSF1bQ0BASF0yW0NIMl1bQ0gyXVtDSDJdW0NIMl1bQ0BIXTJbQ0gzXQ==

> <s_epik_cmdline>
J2VwaWtfcHl0aG9uJywgJy1waCcsICc3LjAnLCAnLXRuJywgJzgnLCAnLW1hJywgJzIwMCcsICctbWV0YWxfYmluZGluZycsICctaW1hZScsICc8aW5maWxlLm1hZT4nLCAnLW9tYWUnLCAnPG91dGZpbGUubWFlPic=

> <r_lp_tautomer_probability>
0.660323

> <r_epik_Ionization_Penalty>
0.00860626

> <r_epik_Ionization_Penalty_Charging>
0.00860522

> <r_epik_Ionization_Penalty_Neutral>
1.04215e-06

> <r_epik_State_Penalty>
0.156825

> <r_epik_Charging_Adjusted_Penalty>
0.16543

> <i_epik_Tot_Q>
0

> <i_epik_Tot_abs_Q>
0

> <r_epik_Metal_State_Penalty>
0.752038

> <b_epik_Metal_Only>
0

> <s_lp_Force_Field>
OPLS_2005

> <r_lp_Energy>
12.4019

> <b_lp_Chiralities_Consistent>
1

> <s_lp_Variant>
AV-unprocessed.smi:438-3

> <Gold.Version>
5.8.1

> <Gold.Id.Protein>
6NUR|6NUR_protein|mol2

> <Gold.PLP.Fitness>
46.3216

> <Gold.PLP.PLP>
-35.9364

> <Gold.PLP.part.hbond>
-5.0000

> <Gold.PLP.part.metal>
0.0000

> <Gold.PLP.part.buried>
-5.5397

> <Gold.PLP.part.nonpolar>
-26.1180

> <Gold.PLP.part.repulsive>
0.3499

> <Gold.PLP.ligand.clash>
0.0000

> <Gold.PLP.ligand.torsion>
0.5024

> <Gold.PLP.Chemscore.Hbond>
3.7893

> <Gold.PLP.Chemscore.CHOScore>
0.0000

> <Gold.PLP.Chemscore.Metal>
0.0000

> <Gold.Chemscore.Hbonds>
donor molecule, donor type, donor heavy atom, donor atom, acceptor molecule, acceptor atom, score
      L1  H    17    43       P1  7948  0.98
      L1  H    23    48       P1 10186  1.00
      P1  H  6896  6908       L1     8  0.85
      P1  H 10785 10796       L1    23  0.83

> <Gold.PLP.Chemscore.Internal.Correction>
0.0222

> <Gold.Rescore>
     Score         DG    S(hbond)    S(metal)    S(lipo)     H(rot)  DE(clash)    DE(int)     intcor
     14.74     -18.25       3.33        0.00      76.71       2.86       0.43       3.07       ----

> <Gold.Chemscore.Fitness>
14.7448

> <Gold.Chemscore.DG>
-18.2474

> <Gold.Chemscore.ZeroCoef>
-5.4800

> <Gold.Chemscore.Hbond>
3.3308

> <Gold.Chemscore.Metal>
0.0000

> <Gold.Chemscore.Lipo>
76.7133

> <Gold.Chemscore.Internal_Hbond>
0.0000

> <Gold.Chemscore.DEClash>
0.4301

> <Gold.Chemscore.DEInternal>
3.0725

> <Gold.Chemscore.Rot>
2.8645

> <Gold.Chemscore.Internal.Correction>
   9.000000E+99

> <Gold.Chemscore.Hbonds>
donor molecule, donor type, donor heavy atom, donor atom, acceptor molecule, acceptor atom, score
      L1  H    17    43       P1  7948  0.82
      L1  H    23    48       P1 10186  0.96
      P1  H  6896  6908       L1     8  0.78
      P1  H 10785 10796       L1    23  0.18

> <Gold.Chemscore.Hbond.Weighted>
-11.1250

> <Gold.Chemscore.Metal.Weighted>
-0.0000

> <Gold.Chemscore.Lipo.Weighted>
-8.9755

> <Gold.Chemscore.Internal_Hbond.Weighted>
0.0000

> <Gold.Chemscore.DEClash.Weighted>
0.4301

> <Gold.Chemscore.DEInternal.Weighted>
3.0725

> <Gold.Chemscore.Rot.Weighted>
7.3331

> <Gold.Chemscore.Internal.Correction.Weighted>
   9.000000E+99

> <Gold.Protein.RotatedTorsions>
[ 6907 6896 6895 6894 ] final  135.34 input  -60.11 | X-H torsion
[ 7974 7965 7964 7962 ] final  103.37 input  175.53 | X-H torsion
[ 8008 7997 7996 7995 ] final  132.93 input   59.86 | X-H torsion
[ 10167 10162 10161 10158 ] final -169.02 input  -65.29 | X-H torsion
[ 10718 10713 10712 10709 ] final  141.38 input   66.30 | X-H torsion
[ 10763 10752 10751 10750 ] final  -27.27 input  -60.55 | X-H torsion
[ 11005 11000 10999 10996 ] final   72.03 input  -57.11 | X-H torsion

> <Gold.Protein.ActiveResidues>
 VAL166  LYS551  ARG553  GLY616  TRP617  ASP618  TYR619  PRO620  LYS621  CYS622 
 ASP623  PHE694  ASN695  SER759  ASP760  ASP761  ALA762  ILE779  LEU786  VAL792 
 PHE793  MET794  SER795  GLU796  ALA797  LYS798  CYS799  TRP800  GLU811  SER814 

> <Gold.Protein.RotatedAtoms>
  152.3015  133.5660  159.5621 H   0  0  0  0  0  0  0  0  0  0  0  0  # atno 6907 bound_to 6896
  150.7280  134.0284  159.3734 H   0  0  0  0  0  0  0  0  0  0  0  0  # atno 6908 bound_to 6896
  151.8183  135.0660  160.0473 H   0  0  0  0  0  0  0  0  0  0  0  0  # atno 6909 bound_to 6896
  145.3468  139.2449  143.3580 H   0  0  0  0  0  0  0  0  0  0  0  0  # atno 7974 bound_to 7965
  156.2987  140.2534  156.3170 H   0  0  0  0  0  0  0  0  0  0  0  0  # atno 8008 bound_to 7997
  154.9271  140.0399  157.2048 H   0  0  0  0  0  0  0  0  0  0  0  0  # atno 8009 bound_to 7997
  154.8254  140.2867  155.5762 H   0  0  0  0  0  0  0  0  0  0  0  0  # atno 8010 bound_to 7997
  139.5949  144.1134  152.1677 H   0  0  0  0  0  0  0  0  0  0  0  0  # atno 10167 bound_to 10162
  157.3927  131.1007  151.0631 H   0  0  0  0  0  0  0  0  0  0  0  0  # atno 10718 bound_to 10713
  153.7294  135.6940  153.4993 H   0  0  0  0  0  0  0  0  0  0  0  0  # atno 10763 bound_to 10752
  153.2147  135.4390  155.0419 H   0  0  0  0  0  0  0  0  0  0  0  0  # atno 10764 bound_to 10752
  154.8258  135.3445  154.6824 H   0  0  0  0  0  0  0  0  0  0  0  0  # atno 10765 bound_to 10752
  139.9512  134.7224  156.0858 H   0  0  0  0  0  0  0  0  0  0  0  0  # atno 11005 bound_to 11000
  146.2985  140.4076  142.8713 LP  0  0  0  0  0  0  0  0  0  0  0  0  # atno 17320 bound_to 7965
  144.8748  140.7321  143.6024 LP  0  0  0  0  0  0  0  0  0  0  0  0  # atno 17321 bound_to 7965
  140.0717  144.5774  150.7187 LP  0  0  0  0  0  0  0  0  0  0  0  0  # atno 17342 bound_to 10162
  140.7203  143.2583  151.4299 LP  0  0  0  0  0  0  0  0  0  0  0  0  # atno 17343 bound_to 10162
  157.1658  130.6246  149.5625 LP  0  0  0  0  0  0  0  0  0  0  0  0  # atno 17370 bound_to 10713
  155.9802  130.4801  150.6761 LP  0  0  0  0  0  0  0  0  0  0  0  0  # atno 17371 bound_to 10713
  141.1175  133.6623  156.3131 LP  0  0  0  0  0  0  0  0  0  0  0  0  # atno 17394 bound_to 11000
  140.5715  134.5836  157.5458 LP  0  0  0  0  0  0  0  0  0  0  0  0  # atno 17395 bound_to 11000

$$$$
