AV-unprocessed.smi:438|AV-procd|sdf|2563|dock4
  -GOLD-   2262022533D 1   1.00000     0.00000
 Structure written by MMmdl.
 48 49  0  0  0  0  0  0  0  0  1 V2000
  145.2874  136.6807  155.4175 C   0  0  0  0  0  0  0  0  0  0  0  0
  146.0240  137.5658  154.4277 C   0  0  0  0  0  0  0  0  0  0  0  0
  147.0053  138.4010  154.9758 N   0  0  0  0  0  0  0  0  0  0  0  0
  147.6896  139.1893  154.2098 C   0  0  0  0  0  0  0  0  0  0  0  0
  149.0058  140.3597  154.6501 S   0  0  0  0  0  0  0  0  0  0  0  0
  150.2109  139.2532  155.4356 C   0  0  0  0  0  0  0  0  0  0  0  0
  151.3806  140.0141  156.0542 C   0  0  0  0  0  0  0  0  0  0  0  0
  152.3079  140.4012  155.3433 O   0  0  0  0  0  0  0  0  0  0  0  0
  151.3276  140.2189  157.3794 N   0  0  0  0  0  0  0  0  0  0  0  0
  152.3327  140.9259  158.1702 C   0  0  2  0  0  0  0  0  0  0  0  0
  152.9656  139.9578  159.1928 C   0  0  0  0  0  0  0  0  0  0  0  0
  153.9791  140.6706  160.0993 C   0  0  0  0  0  0  0  0  0  0  0  0
  153.3344  141.8687  160.8085 C   0  0  0  0  0  0  0  0  0  0  0  0
  152.7243  142.8455  159.7925 C   0  0  0  0  0  0  0  0  0  0  0  0
  151.6981  142.1523  158.8735 C   0  0  1  0  0  0  0  0  0  0  0  0
  151.1005  143.1610  157.8757 C   0  0  0  0  0  0  0  0  0  0  0  0
  147.4565  139.2172  152.8342 N   0  0  0  0  0  0  0  0  0  0  0  0
  146.5283  138.4583  152.2100 C   0  0  0  0  0  0  0  0  0  0  0  0
  146.3694  138.5425  150.9932 O   0  0  0  0  0  0  0  0  0  0  0  0
  145.7587  137.5644  153.0913 C   0  0  0  0  0  0  0  0  0  0  0  0
  144.7098  136.6615  152.4481 C   0  0  0  0  0  0  0  0  0  0  0  0
  145.3149  135.7468  151.3734 C   0  0  0  0  0  0  0  0  0  0  0  0
  146.4361  135.0696  151.8977 O   0  0  0  0  0  0  0  0  0  0  0  0
  144.2085  136.7847  155.3003 H   0  0  0  0  0  0  0  0  0  0  0  0
  145.5368  136.9436  156.4462 H   0  0  0  0  0  0  0  0  0  0  0  0
  145.5552  135.6352  155.2634 H   0  0  0  0  0  0  0  0  0  0  0  0
  150.5751  138.5389  154.6955 H   0  0  0  0  0  0  0  0  0  0  0  0
  149.7122  138.6791  156.2171 H   0  0  0  0  0  0  0  0  0  0  0  0
  150.5266  139.8627  157.8801 H   0  0  0  0  0  0  0  0  0  0  0  0
  153.1182  141.2892  157.5044 H   0  0  0  0  0  0  0  0  0  0  0  0
  152.1849  139.5097  159.8091 H   0  0  0  0  0  0  0  0  0  0  0  0
  153.4594  139.1340  158.6759 H   0  0  0  0  0  0  0  0  0  0  0  0
  154.3758  139.9712  160.8357 H   0  0  0  0  0  0  0  0  0  0  0  0
  154.8282  141.0096  159.5043 H   0  0  0  0  0  0  0  0  0  0  0  0
  152.5598  141.5180  161.4916 H   0  0  0  0  0  0  0  0  0  0  0  0
  154.0771  142.3826  161.4195 H   0  0  0  0  0  0  0  0  0  0  0  0
  152.2500  143.6714  160.3241 H   0  0  0  0  0  0  0  0  0  0  0  0
  153.5204  143.2852  159.1900 H   0  0  0  0  0  0  0  0  0  0  0  0
  150.8823  141.7950  159.5042 H   0  0  0  0  0  0  0  0  0  0  0  0
  151.8619  143.5393  157.1929 H   0  0  0  0  0  0  0  0  0  0  0  0
  150.6677  144.0158  158.3962 H   0  0  0  0  0  0  0  0  0  0  0  0
  150.3076  142.7148  157.2751 H   0  0  0  0  0  0  0  0  0  0  0  0
  148.0065  139.8445  152.2654 H   0  0  0  0  0  0  0  0  0  0  0  0
  143.9138  137.2633  152.0101 H   0  0  0  0  0  0  0  0  0  0  0  0
  144.2223  136.0624  153.2188 H   0  0  0  0  0  0  0  0  0  0  0  0
  144.5834  135.0125  151.0348 H   0  0  0  0  0  0  0  0  0  0  0  0
  145.6257  136.3246  150.5023 H   0  0  0  0  0  0  0  0  0  0  0  0
  147.2187  135.4809  151.5642 H   0  0  0  0  0  0  0  0  0  0  0  0
  1 24  1  0  0  0  0
  1 25  1  0  0  0  0
  1 26  1  0  0  0  0
  1  2  1  0  0  0  0
  2 20  2  0  0  0  0
  2  3  1  0  0  0  0
  3  4  2  0  0  0  0
  4  5  1  0  0  0  0
  4 17  1  0  0  0  0
  5  6  1  0  0  0  0
  6  7  1  0  0  0  0
  6 27  1  0  0  0  0
  6 28  1  0  0  0  0
  7  8  2  0  0  0  0
  7  9  1  0  0  0  0
  9 10  1  0  0  0  0
  9 29  1  0  0  0  0
 10 15  1  0  0  0  0
 10 11  1  0  0  0  0
 10 30  1  0  0  0  0
 11 12  1  0  0  0  0
 11 31  1  0  0  0  0
 11 32  1  0  0  0  0
 12 13  1  0  0  0  0
 12 33  1  0  0  0  0
 12 34  1  0  0  0  0
 13 14  1  0  0  0  0
 13 35  1  0  0  0  0
 13 36  1  0  0  0  0
 14 15  1  0  0  0  0
 14 37  1  0  0  0  0
 14 38  1  0  0  0  0
 15 16  1  0  0  0  0
 15 39  1  0  0  0  0
 16 40  1  0  0  0  0
 16 41  1  0  0  0  0
 16 42  1  0  0  0  0
 17 43  1  0  0  0  0
 17 18  1  0  0  0  0
 18 19  2  0  0  0  0
 18 20  1  0  0  0  0
 20 21  1  0  0  0  0
 21 22  1  0  0  0  0
 21 44  1  0  0  0  0
 21 45  1  0  0  0  0
 22 23  1  0  0  0  0
 22 46  1  0  0  0  0
 22 47  1  0  0  0  0
 23 48  1  0  0  0  0
M  END
> <s_m_source_file>
AV-unprocessed.smi

> <i_m_source_file_index>
438

> <i_lp_mmshare_version>
43012

> <i_f3d_flags>
0

> <s_epik_input>
W09IXVtDSDJdW0NIMl1jMWMoW09IXSluYyhuYzFbQ0gzXSlTW0NIMl1DKD1PKVtOSF1bQ0BASF0yW0NIMl1bQ0gyXVtDSDJdW0NIMl1bQ0BIXTJbQ0gzXQ==

> <s_epik_cmdline>
J2VwaWtfcHl0aG9uJywgJy1waCcsICc3LjAnLCAnLXRuJywgJzgnLCAnLW1hJywgJzIwMCcsICctbWV0YWxfYmluZGluZycsICctaW1hZScsICc8aW5maWxlLm1hZT4nLCAnLW9tYWUnLCAnPG91dGZpbGUubWFlPic=

> <r_lp_tautomer_probability>
0.660323

> <r_epik_Ionization_Penalty>
0.00860626

> <r_epik_Ionization_Penalty_Charging>
0.00860522

> <r_epik_Ionization_Penalty_Neutral>
1.04215e-06

> <r_epik_State_Penalty>
0.156825

> <r_epik_Charging_Adjusted_Penalty>
0.16543

> <i_epik_Tot_Q>
0

> <i_epik_Tot_abs_Q>
0

> <r_epik_Metal_State_Penalty>
0.752038

> <b_epik_Metal_Only>
0

> <s_lp_Force_Field>
OPLS_2005

> <r_lp_Energy>
14.035

> <b_lp_Chiralities_Consistent>
1

> <s_lp_Variant>
AV-unprocessed.smi:438-1

> <Gold.Version>
5.8.1

> <Gold.Id.Protein>
6NUR|6NUR_protein|mol2

> <Gold.PLP.Fitness>
53.8597

> <Gold.PLP.PLP>
-41.2995

> <Gold.PLP.part.hbond>
-5.2532

> <Gold.PLP.part.metal>
0.0000

> <Gold.PLP.part.buried>
-2.8791

> <Gold.PLP.part.nonpolar>
-34.6737

> <Gold.PLP.part.repulsive>
1.3957

> <Gold.PLP.ligand.clash>
0.0000

> <Gold.PLP.ligand.torsion>
0.3318

> <Gold.PLP.Chemscore.Hbond>
4.3768

> <Gold.PLP.Chemscore.CHOScore>
0.0000

> <Gold.PLP.Chemscore.Metal>
0.0000

> <Gold.Chemscore.Hbonds>
donor molecule, donor type, donor heavy atom, donor atom, acceptor molecule, acceptor atom, score
      L1  H    17    43       P1  7957  0.91
      L1  H    23    48       P1  7948  1.00
      P1  H  7954  7966       L1    19  0.56
      P1  H  7989  7998       L1     8  0.56
      P1  H  7997  8008       L1     8  0.57

> <Gold.PLP.Chemscore.Internal.Correction>
0.0935

> <Gold.Rescore>
     Score         DG    S(hbond)    S(metal)    S(lipo)     H(rot)  DE(clash)    DE(int)     intcor
     21.19     -22.94       3.97        0.00      98.58       2.86       1.39       0.35       ----

> <Gold.Chemscore.Fitness>
21.1924

> <Gold.Chemscore.DG>
-22.9421

> <Gold.Chemscore.ZeroCoef>
-5.4800

> <Gold.Chemscore.Hbond>
3.9703

> <Gold.Chemscore.Metal>
0.0000

> <Gold.Chemscore.Lipo>
98.5838

> <Gold.Chemscore.Internal_Hbond>
0.0000

> <Gold.Chemscore.DEClash>
1.3948

> <Gold.Chemscore.DEInternal>
0.3549

> <Gold.Chemscore.Rot>
2.8645

> <Gold.Chemscore.Internal.Correction>
   9.000000E+99

> <Gold.Chemscore.Hbonds>
donor molecule, donor type, donor heavy atom, donor atom, acceptor molecule, acceptor atom, score
      L1  H    17    43       P1  7957  0.89
      L1  H    23    48       P1  7948  0.94
      P1  H  7954  7966       L1    19  0.43
      P1  H  7989  7998       L1     8  0.44
      P1  H  7997  8008       L1     8  0.53

> <Gold.Chemscore.Hbond.Weighted>
-13.2609

> <Gold.Chemscore.Metal.Weighted>
-0.0000

> <Gold.Chemscore.Lipo.Weighted>
-11.5343

> <Gold.Chemscore.Internal_Hbond.Weighted>
0.0000

> <Gold.Chemscore.DEClash.Weighted>
1.3948

> <Gold.Chemscore.DEInternal.Weighted>
0.3549

> <Gold.Chemscore.Rot.Weighted>
7.3331

> <Gold.Chemscore.Internal.Correction.Weighted>
   9.000000E+99

> <Gold.Protein.RotatedTorsions>
[ 6907 6896 6895 6894 ] final   69.02 input  -60.11 | X-H torsion
[ 7974 7965 7964 7962 ] final -115.96 input  175.53 | X-H torsion
[ 8008 7997 7996 7995 ] final  -30.16 input   59.86 | X-H torsion
[ 10167 10162 10161 10158 ] final   49.18 input  -65.29 | X-H torsion
[ 10718 10713 10712 10709 ] final -122.44 input   66.30 | X-H torsion
[ 10763 10752 10751 10750 ] final  -26.63 input  -60.55 | X-H torsion
[ 11005 11000 10999 10996 ] final  -47.76 input  -57.11 | X-H torsion

> <Gold.Protein.ActiveResidues>
 VAL166  LYS551  ARG553  GLY616  TRP617  ASP618  TYR619  PRO620  LYS621  CYS622 
 ASP623  PHE694  ASN695  SER759  ASP760  ASP761  ALA762  ILE779  LEU786  VAL792 
 PHE793  MET794  SER795  GLU796  ALA797  LYS798  CYS799  TRP800  GLU811  SER814 

> <Gold.Protein.RotatedAtoms>
  152.4659  134.5077  159.9744 H   0  0  0  0  0  0  0  0  0  0  0  0  # atno 6907 bound_to 6896
  151.5115  133.3478  159.2893 H   0  0  0  0  0  0  0  0  0  0  0  0  # atno 6908 bound_to 6896
  150.8643  134.8031  159.7168 H   0  0  0  0  0  0  0  0  0  0  0  0  # atno 6909 bound_to 6896
  145.1024  140.8560  143.3918 H   0  0  0  0  0  0  0  0  0  0  0  0  # atno 7974 bound_to 7965
  154.4261  140.1798  156.1363 H   0  0  0  0  0  0  0  0  0  0  0  0  # atno 8008 bound_to 7997
  156.0027  140.3358  155.6837 H   0  0  0  0  0  0  0  0  0  0  0  0  # atno 8009 bound_to 7997
  155.6220  140.0661  157.2666 H   0  0  0  0  0  0  0  0  0  0  0  0  # atno 8010 bound_to 7997
  140.2856  144.3106  150.6253 H   0  0  0  0  0  0  0  0  0  0  0  0  # atno 10167 bound_to 10162
  156.1418  130.6471  150.9783 H   0  0  0  0  0  0  0  0  0  0  0  0  # atno 10718 bound_to 10713
  153.7191  135.6946  153.5017 H   0  0  0  0  0  0  0  0  0  0  0  0  # atno 10763 bound_to 10752
  153.2217  135.4367  155.0495 H   0  0  0  0  0  0  0  0  0  0  0  0  # atno 10764 bound_to 10752
  154.8290  135.3462  154.6725 H   0  0  0  0  0  0  0  0  0  0  0  0  # atno 10765 bound_to 10752
  141.0660  133.6693  156.3344 H   0  0  0  0  0  0  0  0  0  0  0  0  # atno 11005 bound_to 11000
  145.0941  139.2869  143.5720 LP  0  0  0  0  0  0  0  0  0  0  0  0  # atno 17320 bound_to 7965
  146.3529  140.0487  142.8637 LP  0  0  0  0  0  0  0  0  0  0  0  0  # atno 17321 bound_to 7965
  140.5775  143.2175  151.7488 LP  0  0  0  0  0  0  0  0  0  0  0  0  # atno 17342 bound_to 10162
  139.4951  144.4128  152.0062 LP  0  0  0  0  0  0  0  0  0  0  0  0  # atno 17343 bound_to 10162
  157.6582  131.0885  150.7898 LP  0  0  0  0  0  0  0  0  0  0  0  0  # atno 17370 bound_to 10713
  156.7973  130.4909  149.5375 LP  0  0  0  0  0  0  0  0  0  0  0  0  # atno 17371 bound_to 10713
  140.5772  134.5782  157.5471 LP  0  0  0  0  0  0  0  0  0  0  0  0  # atno 17394 bound_to 11000
  139.9477  134.7672  156.0522 LP  0  0  0  0  0  0  0  0  0  0  0  0  # atno 17395 bound_to 11000

$$$$
