AV-unprocessed.smi:287|AV-procd|sdf|2184|dock10
  -GOLD-   2262021563D 1   1.00000     0.00000
 Structure written by MMmdl.
 55 58  0  0  0  0  0  0  0  0  1 V2000
  141.9418  134.8853  162.7596 C   0  0  0  0  0  0  0  0  0  0  0  0
  143.2057  135.5715  162.3675 C   0  0  0  0  0  0  0  0  0  0  0  0
  144.5286  135.2825  162.5356 C   0  0  0  0  0  0  0  0  0  0  0  0
  145.2758  136.3353  161.9280 C   0  0  0  0  0  0  0  0  0  0  0  0
  146.7948  136.4298  161.8694 C   0  0  2  0  0  0  0  0  0  0  0  0
  147.4244  135.2299  162.5971 C   0  0  0  0  0  0  0  0  0  0  0  0
  147.3031  137.5721  162.5309 O   0  0  0  0  0  0  0  0  0  0  0  0
  147.3192  136.5046  160.4178 C   0  0  0  0  0  0  0  0  0  0  0  0
  148.7743  136.5111  160.3400 N   0  0  0  0  0  0  0  0  0  0  0  0
  149.4115  137.0543  159.2820 C   0  0  0  0  0  0  0  0  0  0  0  0
  150.7646  137.0236  159.3383 N   0  0  0  0  0  0  0  0  0  0  0  0
  151.4915  137.5396  158.3434 C   0  0  0  0  0  0  0  0  0  0  0  0
  151.0717  138.1236  157.2197 N   0  0  0  0  0  0  0  0  0  0  0  0
  149.7091  138.1550  157.1541 C   0  0  0  0  0  0  0  0  0  0  0  0
  148.8080  137.6475  158.1334 C   0  0  0  0  0  0  0  0  0  0  0  0
  147.5017  137.8663  157.7075 N   0  0  0  0  0  0  0  0  0  0  0  0
  147.6308  138.4667  156.5558 C   0  0  0  0  0  0  0  0  0  0  0  0
  148.9290  138.6834  156.1495 N   0  0  0  0  0  0  0  0  0  0  0  0
  149.4331  139.3366  154.8996 C   0  0  1  0  0  0  0  0  0  0  0  0
  148.8202  138.7006  153.8173 O   0  0  0  0  0  0  0  0  0  0  0  0
  148.0696  139.6286  153.0339 C   0  0  1  0  0  0  0  0  0  0  0  0
  146.8318  138.9556  152.4144 C   0  0  0  0  0  0  0  0  0  0  0  0
  147.2272  138.0369  151.4186 O   0  0  0  0  0  0  0  0  0  0  0  0
  147.7834  140.8032  153.9809 C   0  0  1  0  0  0  0  0  0  0  0  0
  146.6125  140.5781  154.7485 O   0  0  0  0  0  0  0  0  0  0  0  0
  149.0451  140.8256  154.8318 C   0  0  1  0  0  0  0  0  0  0  0  0
  148.8641  141.4757  156.0788 O   0  0  0  0  0  0  0  0  0  0  0  0
  144.3269  137.1978  161.4326 C   0  0  0  0  0  0  0  0  0  0  0  0
  144.3856  138.4904  160.6870 C   0  0  0  0  0  0  0  0  0  0  0  0
  143.0703  136.7418  161.6954 O   0  0  0  0  0  0  0  0  0  0  0  0
  150.5095  139.1609  154.9087 H   0  0  0  0  0  0  0  0  0  0  0  0
  148.7259  139.9980  152.2437 H   0  0  0  0  0  0  0  0  0  0  0  0
  147.6527  141.7378  153.4346 H   0  0  0  0  0  0  0  0  0  0  0  0
  149.8353  141.3381  154.2815 H   0  0  0  0  0  0  0  0  0  0  0  0
  142.1319  133.8476  163.0346 H   0  0  0  0  0  0  0  0  0  0  0  0
  141.2260  134.8904  161.9373 H   0  0  0  0  0  0  0  0  0  0  0  0
  141.4813  135.3827  163.6131 H   0  0  0  0  0  0  0  0  0  0  0  0
  144.9201  134.4092  163.0359 H   0  0  0  0  0  0  0  0  0  0  0  0
  147.1324  134.2868  162.1339 H   0  0  0  0  0  0  0  0  0  0  0  0
  147.1133  135.1918  163.6420 H   0  0  0  0  0  0  0  0  0  0  0  0
  148.5140  135.2773  162.5781 H   0  0  0  0  0  0  0  0  0  0  0  0
  147.5220  137.3321  163.4183 H   0  0  0  0  0  0  0  0  0  0  0  0
  146.9081  135.6935  159.8150 H   0  0  0  0  0  0  0  0  0  0  0  0
  146.9713  137.4385  159.9741 H   0  0  0  0  0  0  0  0  0  0  0  0
  149.2563  136.1315  161.1421 H   0  0  0  0  0  0  0  0  0  0  0  0
  152.5627  137.4759  158.4660 H   0  0  0  0  0  0  0  0  0  0  0  0
  146.7748  138.7697  155.9709 H   0  0  0  0  0  0  0  0  0  0  0  0
  146.2286  138.4548  153.1721 H   0  0  0  0  0  0  0  0  0  0  0  0
  146.1984  139.7020  151.9340 H   0  0  0  0  0  0  0  0  0  0  0  0
  147.3703  137.1963  151.8257 H   0  0  0  0  0  0  0  0  0  0  0  0
  146.6356  141.1542  155.4978 H   0  0  0  0  0  0  0  0  0  0  0  0
  148.2756  140.9551  156.6045 H   0  0  0  0  0  0  0  0  0  0  0  0
  144.9193  139.2450  161.2646 H   0  0  0  0  0  0  0  0  0  0  0  0
  143.3860  138.8729  160.4789 H   0  0  0  0  0  0  0  0  0  0  0  0
  144.9006  138.3637  159.7348 H   0  0  0  0  0  0  0  0  0  0  0  0
  1  2  1  0  0  0  0
  1 35  1  0  0  0  0
  1 36  1  0  0  0  0
  1 37  1  0  0  0  0
  2 30  1  0  0  0  0
  2  3  2  0  0  0  0
  3  4  1  0  0  0  0
  3 38  1  0  0  0  0
  4  5  1  0  0  0  0
  4 28  2  0  0  0  0
  5  6  1  0  0  0  0
  5  7  1  0  0  0  0
  5  8  1  0  0  0  0
  6 39  1  0  0  0  0
  6 40  1  0  0  0  0
  6 41  1  0  0  0  0
  7 42  1  0  0  0  0
  8  9  1  0  0  0  0
  8 43  1  0  0  0  0
  8 44  1  0  0  0  0
  9 10  1  0  0  0  0
  9 45  1  0  0  0  0
 10 15  1  0  0  0  0
 10 11  2  0  0  0  0
 11 12  1  0  0  0  0
 12 13  2  0  0  0  0
 12 46  1  0  0  0  0
 13 14  1  0  0  0  0
 14 18  1  0  0  0  0
 14 15  2  0  0  0  0
 15 16  1  0  0  0  0
 16 17  2  0  0  0  0
 17 18  1  0  0  0  0
 17 47  1  0  0  0  0
 18 19  1  0  0  0  0
 19 31  1  0  0  0  0
 19 26  1  0  0  0  0
 19 20  1  0  0  0  0
 20 21  1  0  0  0  0
 21 32  1  0  0  0  0
 21 22  1  0  0  0  0
 21 24  1  0  0  0  0
 22 23  1  0  0  0  0
 22 48  1  0  0  0  0
 22 49  1  0  0  0  0
 23 50  1  0  0  0  0
 24 33  1  0  0  0  0
 24 25  1  0  0  0  0
 24 26  1  0  0  0  0
 25 51  1  0  0  0  0
 26 34  1  0  0  0  0
 26 27  1  0  0  0  0
 27 52  1  0  0  0  0
 28 29  1  0  0  0  0
 28 30  1  0  0  0  0
 29 53  1  0  0  0  0
 29 54  1  0  0  0  0
 29 55  1  0  0  0  0
M  END
> <s_m_source_file>
AV-unprocessed.smi

> <i_m_source_file_index>
287

> <i_lp_mmshare_version>
43012

> <i_f3d_flags>
0

> <s_epik_input>
W0NIM11jMVtjSF1jKGMobzEpW0NIM10pW0NAQF0oW0NIM10pKFtPSF0pW0NIMl1bTkhdYyhuW2NIXW4yKWMoYzIzKW5bY0hdbjNbQ0BASF00T1tDQEhdKFtDSDJdW09IXSlbQ0BASF0oW09IXSlbQ0BIXTRbT0hd

> <s_epik_cmdline>
J2VwaWtfcHl0aG9uJywgJy1waCcsICc3LjAnLCAnLXRuJywgJzgnLCAnLW1hJywgJzIwMCcsICctbWV0YWxfYmluZGluZycsICctaW1hZScsICc8aW5maWxlLm1hZT4nLCAnLW9tYWUnLCAnPG91dGZpbGUubWFlPic=

> <r_lp_tautomer_probability>
1

> <r_epik_Ionization_Penalty>
0.000992612

> <r_epik_Ionization_Penalty_Charging>
0

> <r_epik_Ionization_Penalty_Neutral>
0.000992612

> <r_epik_State_Penalty>
-0

> <r_epik_Charging_Adjusted_Penalty>
0

> <i_epik_Tot_Q>
0

> <i_epik_Tot_abs_Q>
0

> <r_epik_Metal_State_Penalty>
-0

> <b_epik_Metal_Only>
0

> <s_epik_Chemistry_Notes>
This compound contains an acetal/aminal-like group ( X-CH(R)-Y where X, Y are N, S, or O) that may be acid/base labile, releasing an aldehyde.

> <s_lp_Force_Field>
OPLS_2005

> <r_lp_Energy>
46.5399

> <b_lp_Chiralities_Consistent>
1

> <s_lp_Variant>
AV-unprocessed.smi:287-8

> <Gold.Version>
5.8.1

> <Gold.Id.Protein>
6NUR|6NUR_protein|mol2

> <Gold.PLP.Fitness>
49.6564

> <Gold.PLP.PLP>
-40.6309

> <Gold.PLP.part.hbond>
-6.0821

> <Gold.PLP.part.metal>
0.0000

> <Gold.PLP.part.buried>
-4.1190

> <Gold.PLP.part.nonpolar>
-31.7017

> <Gold.PLP.part.repulsive>
0.7511

> <Gold.PLP.ligand.clash>
1.3272

> <Gold.PLP.ligand.torsion>
0.3046

> <Gold.PLP.Chemscore.Hbond>
3.3886

> <Gold.PLP.Chemscore.CHOScore>
0.0000

> <Gold.PLP.Chemscore.Metal>
0.0000

> <Gold.Chemscore.Hbonds>
donor molecule, donor type, donor heavy atom, donor atom, acceptor molecule, acceptor atom, score
      L1  H    23    50       P1  7948  0.51
      P1  H  6896  6907       L1    11  0.99
      P1  H  6931  6943       L1     7  0.59
      P1  H  6934  6947       L1     7  0.32
      P1  H  7954  7966       L1    23  1.00

> <Gold.PLP.Chemscore.Internal.Correction>
0.7960

> <Gold.Rescore>
     Score         DG    S(hbond)    S(metal)    S(lipo)     H(rot)  DE(clash)    DE(int)     intcor
      5.60     -10.11       2.57        0.00      81.51       5.27       2.24       2.27       ----

> <Gold.Chemscore.Fitness>
5.5998

> <Gold.Chemscore.DG>
-10.1056

> <Gold.Chemscore.ZeroCoef>
-5.4800

> <Gold.Chemscore.Hbond>
2.5669

> <Gold.Chemscore.Metal>
0.0000

> <Gold.Chemscore.Lipo>
81.5050

> <Gold.Chemscore.Internal_Hbond>
0.0000

> <Gold.Chemscore.DEClash>
2.2361

> <Gold.Chemscore.DEInternal>
2.2698

> <Gold.Chemscore.Rot>
5.2672

> <Gold.Chemscore.Internal.Correction>
   9.000000E+99

> <Gold.Chemscore.Hbonds>
donor molecule, donor type, donor heavy atom, donor atom, acceptor molecule, acceptor atom, score
      L1  H    23    50       P1  7948  0.52
      P1  H  6896  6907       L1    11  0.30
      P1  H  6931  6943       L1     7  0.15
      P1  H  6934  6947       L1     7  0.10
      P1  H  7954  7966       L1    23  0.35

> <Gold.Chemscore.Hbond.Weighted>
-8.5735

> <Gold.Chemscore.Metal.Weighted>
-0.0000

> <Gold.Chemscore.Lipo.Weighted>
-9.5361

> <Gold.Chemscore.Internal_Hbond.Weighted>
0.0000

> <Gold.Chemscore.DEClash.Weighted>
2.2361

> <Gold.Chemscore.DEInternal.Weighted>
2.2698

> <Gold.Chemscore.Rot.Weighted>
13.4839

> <Gold.Chemscore.Internal.Correction.Weighted>
   9.000000E+99

> <Gold.Protein.RotatedTorsions>
[ 6907 6896 6895 6894 ] final  -27.56 input  -60.11 | X-H torsion
[ 7974 7965 7964 7962 ] final  151.05 input  175.53 | X-H torsion
[ 8008 7997 7996 7995 ] final  -78.24 input   59.86 | X-H torsion
[ 10167 10162 10161 10158 ] final  156.00 input  -65.29 | X-H torsion
[ 10718 10713 10712 10709 ] final  109.74 input   66.30 | X-H torsion
[ 10763 10752 10751 10750 ] final  -43.97 input  -60.55 | X-H torsion
[ 11005 11000 10999 10996 ] final -179.32 input  -57.11 | X-H torsion

> <Gold.Protein.ActiveResidues>
 VAL166  LYS551  ARG553  GLY616  TRP617  ASP618  TYR619  PRO620  LYS621  CYS622 
 ASP623  PHE694  ASN695  SER759  ASP760  ASP761  ALA762  ILE779  LEU786  VAL792 
 PHE793  MET794  SER795  GLU796  ALA797  LYS798  CYS799  TRP800  GLU811  SER814 

> <Gold.Protein.RotatedAtoms>
  151.1452  135.0199  159.8643 H   0  0  0  0  0  0  0  0  0  0  0  0  # atno 6907 bound_to 6896
  152.5453  134.1453  159.8506 H   0  0  0  0  0  0  0  0  0  0  0  0  # atno 6908 bound_to 6896
  151.1532  133.4848  159.2628 H   0  0  0  0  0  0  0  0  0  0  0  0  # atno 6909 bound_to 6896
  144.8320  139.6487  143.6054 H   0  0  0  0  0  0  0  0  0  0  0  0  # atno 7974 bound_to 7965
  154.5671  140.0697  156.8908 H   0  0  0  0  0  0  0  0  0  0  0  0  # atno 8008 bound_to 7997
  155.2703  140.3364  155.4247 H   0  0  0  0  0  0  0  0  0  0  0  0  # atno 8009 bound_to 7997
  156.2089  140.1751  156.7724 H   0  0  0  0  0  0  0  0  0  0  0  0  # atno 8010 bound_to 7997
  139.4821  144.5048  151.8114 H   0  0  0  0  0  0  0  0  0  0  0  0  # atno 10167 bound_to 10162
  157.6527  131.0919  150.6498 H   0  0  0  0  0  0  0  0  0  0  0  0  # atno 10718 bound_to 10713
  154.0043  135.6689  153.4761 H   0  0  0  0  0  0  0  0  0  0  0  0  # atno 10763 bound_to 10752
  153.0648  135.5007  154.8172 H   0  0  0  0  0  0  0  0  0  0  0  0  # atno 10764 bound_to 10752
  154.7034  135.3083  154.9271 H   0  0  0  0  0  0  0  0  0  0  0  0  # atno 10765 bound_to 10752
  140.4200  134.6614  157.4659 H   0  0  0  0  0  0  0  0  0  0  0  0  # atno 11005 bound_to 11000
  146.2622  139.6437  142.9354 LP  0  0  0  0  0  0  0  0  0  0  0  0  # atno 17320 bound_to 7965
  145.4875  141.0438  143.2612 LP  0  0  0  0  0  0  0  0  0  0  0  0  # atno 17321 bound_to 7965
  140.4545  144.1808  150.5900 LP  0  0  0  0  0  0  0  0  0  0  0  0  # atno 17342 bound_to 10162
  140.4550  143.2471  151.9297 LP  0  0  0  0  0  0  0  0  0  0  0  0  # atno 17343 bound_to 10162
  156.6807  130.4566  149.5628 LP  0  0  0  0  0  0  0  0  0  0  0  0  # atno 17370 bound_to 10713
  156.1931  130.6572  151.1084 LP  0  0  0  0  0  0  0  0  0  0  0  0  # atno 17371 bound_to 10713
  140.0207  134.6552  155.9244 LP  0  0  0  0  0  0  0  0  0  0  0  0  # atno 17394 bound_to 11000
  141.1788  133.6543  156.4934 LP  0  0  0  0  0  0  0  0  0  0  0  0  # atno 17395 bound_to 11000

$$$$
