AV-unprocessed.smi:3031|AV-procd|sdf|11556|dock5
  -GOLD-   2272016523D 1   1.00000     0.00000
 Structure written by MMmdl.
 46 47  0  0  0  0  0  0  0  0  1 V2000
  151.7245  143.6885  158.3871 C   0  0  0  0  0  0  0  0  0  0  0  0
  151.4298  142.3917  157.6902 C   0  0  0  0  0  0  0  0  0  0  0  0
  151.6540  141.0708  158.1713 C   0  0  0  0  0  0  0  0  0  0  0  0
  151.2939  140.1396  157.3036 N   0  0  0  0  0  0  0  0  0  0  0  0
  150.8103  140.8285  156.2477 N   0  0  0  0  0  0  0  0  0  0  0  0
  150.3415  140.1138  155.0718 C   0  0  0  0  0  0  0  0  0  0  0  0
  148.8466  140.3545  154.7476 C   0  0  1  0  0  0  0  0  0  0  0  0
  148.6043  141.8288  154.3949 C   0  0  0  0  0  0  0  0  0  0  0  0
  148.3579  139.5272  153.6395 N   0  0  0  0  0  0  0  0  0  0  0  0
  146.9572  139.7084  153.2618 C   0  0  0  0  0  0  0  0  0  0  0  0
  146.5090  138.6465  152.2401 C   0  0  1  0  0  0  0  0  0  0  0  0
  147.6138  138.3839  151.4012 O   0  0  0  0  0  0  0  0  0  0  0  0
  146.1014  137.2973  152.8755 C   0  0  0  0  0  0  0  0  0  0  0  0
  145.1098  136.5144  152.1360 N   0  0  0  0  0  0  0  0  0  0  0  0
  144.6036  135.4074  152.9388 C   0  0  0  0  0  0  0  0  0  0  0  0
  143.5433  134.5896  152.1812 C   0  0  0  0  0  0  0  0  0  0  0  0
  144.0925  134.1161  150.9557 O   0  0  0  0  0  0  0  0  0  0  0  0
  144.5635  135.1694  150.1213 C   0  0  0  0  0  0  0  0  0  0  0  0
  145.6259  135.9897  150.8736 C   0  0  0  0  0  0  0  0  0  0  0  0
  150.8969  142.1906  156.4486 C   0  0  0  0  0  0  0  0  0  0  0  0
  151.6682  143.5867  159.4710 H   0  0  0  0  0  0  0  0  0  0  0  0
  151.0202  144.4702  158.1020 H   0  0  0  0  0  0  0  0  0  0  0  0
  152.7241  144.0527  158.1500 H   0  0  0  0  0  0  0  0  0  0  0  0
  152.0715  140.7631  159.1186 H   0  0  0  0  0  0  0  0  0  0  0  0
  150.9589  140.4528  154.2388 H   0  0  0  0  0  0  0  0  0  0  0  0
  150.5428  139.0467  155.1830 H   0  0  0  0  0  0  0  0  0  0  0  0
  148.2503  140.1465  155.6365 H   0  0  0  0  0  0  0  0  0  0  0  0
  148.8924  142.4829  155.2185 H   0  0  0  0  0  0  0  0  0  0  0  0
  147.5505  142.0155  154.1846 H   0  0  0  0  0  0  0  0  0  0  0  0
  149.1775  142.1272  153.5162 H   0  0  0  0  0  0  0  0  0  0  0  0
  148.9417  139.6823  152.8228 H   0  0  0  0  0  0  0  0  0  0  0  0
  146.3291  139.6277  154.1472 H   0  0  0  0  0  0  0  0  0  0  0  0
  146.7985  140.7061  152.8506 H   0  0  0  0  0  0  0  0  0  0  0  0
  145.7178  139.0420  151.6030 H   0  0  0  0  0  0  0  0  0  0  0  0
  148.3154  138.9709  151.6388 H   0  0  0  0  0  0  0  0  0  0  0  0
  146.9947  136.6880  153.0238 H   0  0  0  0  0  0  0  0  0  0  0  0
  145.7156  137.5019  153.8754 H   0  0  0  0  0  0  0  0  0  0  0  0
  145.4270  134.7520  153.2270 H   0  0  0  0  0  0  0  0  0  0  0  0
  144.1699  135.7889  153.8640 H   0  0  0  0  0  0  0  0  0  0  0  0
  143.2205  133.7382  152.7804 H   0  0  0  0  0  0  0  0  0  0  0  0
  142.6583  135.1960  151.9809 H   0  0  0  0  0  0  0  0  0  0  0  0
  144.9860  134.7429  149.2114 H   0  0  0  0  0  0  0  0  0  0  0  0
  143.7288  135.8048  149.8200 H   0  0  0  0  0  0  0  0  0  0  0  0
  145.9544  136.8036  150.2286 H   0  0  0  0  0  0  0  0  0  0  0  0
  146.5007  135.3652  151.0610 H   0  0  0  0  0  0  0  0  0  0  0  0
  150.5749  142.8985  155.6990 H   0  0  0  0  0  0  0  0  0  0  0  0
  1  2  1  0  0  0  0
  1 21  1  0  0  0  0
  1 22  1  0  0  0  0
  1 23  1  0  0  0  0
  2 20  2  0  0  0  0
  2  3  1  0  0  0  0
  3  4  2  0  0  0  0
  3 24  1  0  0  0  0
  4  5  1  0  0  0  0
  5  6  1  0  0  0  0
  5 20  1  0  0  0  0
  6  7  1  0  0  0  0
  6 25  1  0  0  0  0
  6 26  1  0  0  0  0
  7  8  1  0  0  0  0
  7  9  1  0  0  0  0
  7 27  1  0  0  0  0
  8 28  1  0  0  0  0
  8 29  1  0  0  0  0
  8 30  1  0  0  0  0
  9 10  1  0  0  0  0
  9 31  1  0  0  0  0
 10 11  1  0  0  0  0
 10 32  1  0  0  0  0
 10 33  1  0  0  0  0
 11 12  1  0  0  0  0
 11 13  1  0  0  0  0
 11 34  1  0  0  0  0
 12 35  1  0  0  0  0
 13 14  1  0  0  0  0
 13 36  1  0  0  0  0
 13 37  1  0  0  0  0
 14 19  1  0  0  0  0
 14 15  1  0  0  0  0
 15 16  1  0  0  0  0
 15 38  1  0  0  0  0
 15 39  1  0  0  0  0
 16 17  1  0  0  0  0
 16 40  1  0  0  0  0
 16 41  1  0  0  0  0
 17 18  1  0  0  0  0
 18 19  1  0  0  0  0
 18 42  1  0  0  0  0
 18 43  1  0  0  0  0
 19 44  1  0  0  0  0
 19 45  1  0  0  0  0
 20 46  1  0  0  0  0
M  END
> <s_m_source_file>
AV-unprocessed.smi

> <i_m_source_file_index>
3031

> <i_lp_mmshare_version>
43012

> <i_f3d_flags>
0

> <s_epik_input>
W0NIM11jMVtjSF1ubihbY0hdMSlbQ0gyXVtDQEhdKFtDSDNdKVtOSF1bQ0gyXVtDQEhdKFtPSF0pW0NIMl1OMltDSDJdW0NIMl1PW0NIMl1bQ0gyXTI=

> <s_epik_cmdline>
J2VwaWtfcHl0aG9uJywgJy1waCcsICc3LjAnLCAnLXRuJywgJzgnLCAnLW1hJywgJzIwMCcsICctbWV0YWxfYmluZGluZycsICctaW1hZScsICc8aW5maWxlLm1hZT4nLCAnLW9tYWUnLCAnPG91dGZpbGUubWFlPic=

> <r_lp_tautomer_probability>
1

> <r_epik_Ionization_Penalty>
2.8101

> <r_epik_Ionization_Penalty_Charging>
0

> <r_epik_Ionization_Penalty_Neutral>
2.8101

> <r_epik_State_Penalty>
2.12351

> <r_epik_Charging_Adjusted_Penalty>
2.12351

> <i_epik_Tot_Q>
0

> <i_epik_Tot_abs_Q>
0

> <r_epik_Metal_State_Penalty>
2.12345

> <b_epik_Metal_Only>
0

> <s_lp_Force_Field>
OPLS_2005

> <r_lp_Energy>
29.6213

> <b_lp_Chiralities_Consistent>
1

> <s_lp_Variant>
AV-unprocessed.smi:3031-16

> <Gold.Version>
5.8.1

> <Gold.Id.Protein>
6NUR|6NUR_protein|mol2

> <Gold.PLP.Fitness>
49.1718

> <Gold.PLP.PLP>
-38.8296

> <Gold.PLP.part.hbond>
-4.0000

> <Gold.PLP.part.metal>
0.0000

> <Gold.PLP.part.buried>
0.1390

> <Gold.PLP.part.nonpolar>
-33.5685

> <Gold.PLP.part.repulsive>
0.3604

> <Gold.PLP.ligand.clash>
0.0000

> <Gold.PLP.ligand.torsion>
0.7047

> <Gold.PLP.Chemscore.Hbond>
2.8760

> <Gold.PLP.Chemscore.CHOScore>
1.0000

> <Gold.PLP.Chemscore.Metal>
0.0000

> <Gold.Chemscore.Hbonds>
donor molecule, donor type, donor heavy atom, donor atom, acceptor molecule, acceptor atom, score
      L1  H     9    31       P1  7957  1.00
      L1  H    12    35       P1  7957  0.94
      P1  H  7954  7966       L1    12  0.95
      L1  C    20    46       P1  8028  1.00

> <Gold.PLP.Chemscore.Internal.Correction>
0.1236

> <Gold.Rescore>
     Score         DG    S(hbond)    S(metal)    S(lipo)     H(rot)  DE(clash)    DE(int)     intcor
     15.91     -16.98       1.88        0.00      99.99       2.53       0.36       0.71       ----

> <Gold.Chemscore.Fitness>
15.9094

> <Gold.Chemscore.DG>
-16.9796

> <Gold.Chemscore.ZeroCoef>
-5.4800

> <Gold.Chemscore.Hbond>
1.8822

> <Gold.Chemscore.Metal>
0.0000

> <Gold.Chemscore.Lipo>
99.9857

> <Gold.Chemscore.Internal_Hbond>
0.0000

> <Gold.Chemscore.DEClash>
0.3620

> <Gold.Chemscore.DEInternal>
0.7082

> <Gold.Chemscore.Rot>
2.5333

> <Gold.Chemscore.Internal.Correction>
   9.000000E+99

> <Gold.Chemscore.Hbonds>
donor molecule, donor type, donor heavy atom, donor atom, acceptor molecule, acceptor atom, score
      L1  H     9    31       P1  7957  1.00
      L1  H    12    35       P1  7957  0.75
      P1  H  7954  7966       L1    12  0.21

> <Gold.Chemscore.Hbond.Weighted>
-6.2865

> <Gold.Chemscore.Metal.Weighted>
-0.0000

> <Gold.Chemscore.Lipo.Weighted>
-11.6983

> <Gold.Chemscore.Internal_Hbond.Weighted>
0.0000

> <Gold.Chemscore.DEClash.Weighted>
0.3620

> <Gold.Chemscore.DEInternal.Weighted>
0.7082

> <Gold.Chemscore.Rot.Weighted>
6.4852

> <Gold.Chemscore.Internal.Correction.Weighted>
   9.000000E+99

> <Gold.Protein.RotatedTorsions>
[ 6907 6896 6895 6894 ] final   27.48 input  -60.11 | X-H torsion
[ 7974 7965 7964 7962 ] final  142.39 input  175.53 | X-H torsion
[ 8008 7997 7996 7995 ] final  -11.81 input   59.86 | X-H torsion
[ 10167 10162 10161 10158 ] final  119.01 input  -65.29 | X-H torsion
[ 10718 10713 10712 10709 ] final  129.44 input   66.30 | X-H torsion
[ 10763 10752 10751 10750 ] final -158.24 input  -60.55 | X-H torsion
[ 11005 11000 10999 10996 ] final  -80.36 input  -57.11 | X-H torsion

> <Gold.Protein.ActiveResidues>
 VAL166  LYS551  ARG553  GLY616  TRP617  ASP618  TYR619  PRO620  LYS621  CYS622 
 ASP623  PHE694  ASN695  SER759  ASP760  ASP761  ALA762  ILE779  LEU786  VAL792 
 PHE793  MET794  SER795  GLU796  ALA797  LYS798  CYS799  TRP800  GLU811  SER814 

> <Gold.Protein.RotatedAtoms>
  152.0030  134.9918  160.0565 H   0  0  0  0  0  0  0  0  0  0  0  0  # atno 6907 bound_to 6896
  152.1502  133.4512  159.4818 H   0  0  0  0  0  0  0  0  0  0  0  0  # atno 6908 bound_to 6896
  150.6874  134.2117  159.4405 H   0  0  0  0  0  0  0  0  0  0  0  0  # atno 6909 bound_to 6896
  144.9012  139.5421  143.5753 H   0  0  0  0  0  0  0  0  0  0  0  0  # atno 7974 bound_to 7965
  154.5432  140.2292  155.8607 H   0  0  0  0  0  0  0  0  0  0  0  0  # atno 8008 bound_to 7997
  156.1878  140.3084  155.9234 H   0  0  0  0  0  0  0  0  0  0  0  0  # atno 8009 bound_to 7997
  155.3217  140.0441  157.3030 H   0  0  0  0  0  0  0  0  0  0  0  0  # atno 8010 bound_to 7997
  139.6074  144.7073  151.2922 H   0  0  0  0  0  0  0  0  0  0  0  0  # atno 10167 bound_to 10162
  157.5154  131.1097  150.9232 H   0  0  0  0  0  0  0  0  0  0  0  0  # atno 10718 bound_to 10713
  154.7572  135.3108  154.8447 H   0  0  0  0  0  0  0  0  0  0  0  0  # atno 10763 bound_to 10752
  153.9217  135.6795  153.4752 H   0  0  0  0  0  0  0  0  0  0  0  0  # atno 10764 bound_to 10752
  153.1170  135.4840  154.9063 H   0  0  0  0  0  0  0  0  0  0  0  0  # atno 10765 bound_to 10752
  141.1668  133.7147  156.8262 H   0  0  0  0  0  0  0  0  0  0  0  0  # atno 11005 bound_to 11000
  146.3109  139.7743  142.9020 LP  0  0  0  0  0  0  0  0  0  0  0  0  # atno 17320 bound_to 7965
  145.3613  141.0326  143.3283 LP  0  0  0  0  0  0  0  0  0  0  0  0  # atno 17321 bound_to 7965
  140.7294  143.6907  150.7924 LP  0  0  0  0  0  0  0  0  0  0  0  0  # atno 17342 bound_to 10162
  140.0496  143.5263  152.2680 LP  0  0  0  0  0  0  0  0  0  0  0  0  # atno 17343 bound_to 10162
  156.9859  130.5545  149.5299 LP  0  0  0  0  0  0  0  0  0  0  0  0  # atno 17370 bound_to 10713
  156.0317  130.5407  150.8550 LP  0  0  0  0  0  0  0  0  0  0  0  0  # atno 17371 bound_to 10713
  140.2084  134.8846  157.3247 LP  0  0  0  0  0  0  0  0  0  0  0  0  # atno 17394 bound_to 11000
  140.2113  134.4135  155.7611 LP  0  0  0  0  0  0  0  0  0  0  0  0  # atno 17395 bound_to 11000

$$$$
