AV-unprocessed.smi:2651|AV-procd|sdf|10292|dock8
  -GOLD-   2272014303D 1   1.00000     0.00000
 Structure written by MMmdl.
 43 44  0  0  0  0  0  0  0  0  1 V2000
  147.4578  135.1678  162.7864 C   0  0  0  0  0  0  0  0  0  0  0  0
  147.4974  135.5276  161.3409 C   0  0  0  0  0  0  0  0  0  0  0  0
  148.4387  136.1364  160.5596 C   0  0  0  0  0  0  0  0  0  0  0  0
  147.8208  136.1685  159.2813 C   0  0  0  0  0  0  0  0  0  0  0  0
  148.4854  136.7408  158.1673 N   0  0  0  0  0  0  0  0  0  0  0  0
  149.8009  136.9756  158.0281 C   0  0  0  0  0  0  0  0  0  0  0  0
  150.6548  136.7342  158.8812 O   0  0  0  0  0  0  0  0  0  0  0  0
  150.0656  137.5072  156.8229 N   0  0  0  0  0  0  0  0  0  0  0  0
  151.3613  137.8952  156.2446 C   0  0  1  0  0  0  0  0  0  0  0  0
  152.4885  137.0145  156.8415 C   0  0  0  0  0  0  0  0  0  0  0  0
  151.3232  137.6710  154.7040 C   0  0  0  0  0  0  0  0  0  0  0  0
  151.2855  136.2999  154.3617 O   0  0  0  0  0  0  0  0  0  0  0  0
  151.5966  139.4060  156.6045 C   0  0  0  0  0  0  0  0  0  0  0  0
  151.6294  139.6811  158.1330 C   0  0  0  0  0  0  0  0  0  0  0  0
  151.9055  141.1586  158.4553 C   0  0  0  0  0  0  0  0  0  0  0  0
  150.8758  142.0766  157.7858 C   0  0  0  0  0  0  0  0  0  0  0  0
  150.8466  141.8403  156.2711 C   0  0  0  0  0  0  0  0  0  0  0  0
  150.5701  140.3648  155.9409 C   0  0  0  0  0  0  0  0  0  0  0  0
  146.6143  135.6230  159.2806 N   0  0  0  0  0  0  0  0  0  0  0  0
  146.4008  135.2096  160.6008 O   0  0  0  0  0  0  0  0  0  0  0  0
  148.2708  135.6493  163.3302 H   0  0  0  0  0  0  0  0  0  0  0  0
  147.5535  134.0901  162.9186 H   0  0  0  0  0  0  0  0  0  0  0  0
  146.5170  135.4830  163.2385 H   0  0  0  0  0  0  0  0  0  0  0  0
  149.4097  136.5024  160.8582 H   0  0  0  0  0  0  0  0  0  0  0  0
  147.8968  136.9827  157.3841 H   0  0  0  0  0  0  0  0  0  0  0  0
  149.2718  137.6572  156.2176 H   0  0  0  0  0  0  0  0  0  0  0  0
  153.4733  137.4059  156.5846 H   0  0  0  0  0  0  0  0  0  0  0  0
  152.4484  135.9919  156.4657 H   0  0  0  0  0  0  0  0  0  0  0  0
  152.4304  136.9499  157.9277 H   0  0  0  0  0  0  0  0  0  0  0  0
  150.4461  138.1414  154.2592 H   0  0  0  0  0  0  0  0  0  0  0  0
  152.1844  138.1269  154.2154 H   0  0  0  0  0  0  0  0  0  0  0  0
  150.9994  136.2227  153.4643 H   0  0  0  0  0  0  0  0  0  0  0  0
  152.5807  139.6841  156.2246 H   0  0  0  0  0  0  0  0  0  0  0  0
  150.6844  139.3893  158.5918 H   0  0  0  0  0  0  0  0  0  0  0  0
  152.4022  139.0853  158.6164 H   0  0  0  0  0  0  0  0  0  0  0  0
  151.8915  141.3116  159.5347 H   0  0  0  0  0  0  0  0  0  0  0  0
  152.9082  141.4254  158.1189 H   0  0  0  0  0  0  0  0  0  0  0  0
  149.8870  141.8894  158.2070 H   0  0  0  0  0  0  0  0  0  0  0  0
  151.1119  143.1200  157.9970 H   0  0  0  0  0  0  0  0  0  0  0  0
  150.0848  142.4714  155.8125 H   0  0  0  0  0  0  0  0  0  0  0  0
  151.7999  142.1406  155.8343 H   0  0  0  0  0  0  0  0  0  0  0  0
  150.5860  140.2581  154.8573 H   0  0  0  0  0  0  0  0  0  0  0  0
  149.5580  140.1139  156.2598 H   0  0  0  0  0  0  0  0  0  0  0  0
  1  2  1  0  0  0  0
  1 21  1  0  0  0  0
  1 22  1  0  0  0  0
  1 23  1  0  0  0  0
  2 20  1  0  0  0  0
  2  3  2  0  0  0  0
  3  4  1  0  0  0  0
  3 24  1  0  0  0  0
  4  5  1  0  0  0  0
  4 19  2  0  0  0  0
  5  6  1  0  0  0  0
  5 25  1  0  0  0  0
  6  7  2  0  0  0  0
  6  8  1  0  0  0  0
  8  9  1  0  0  0  0
  8 26  1  0  0  0  0
  9 10  1  0  0  0  0
  9 11  1  0  0  0  0
  9 13  1  0  0  0  0
 10 27  1  0  0  0  0
 10 28  1  0  0  0  0
 10 29  1  0  0  0  0
 11 12  1  0  0  0  0
 11 30  1  0  0  0  0
 11 31  1  0  0  0  0
 12 32  1  0  0  0  0
 13 18  1  0  0  0  0
 13 14  1  0  0  0  0
 13 33  1  0  0  0  0
 14 15  1  0  0  0  0
 14 34  1  0  0  0  0
 14 35  1  0  0  0  0
 15 16  1  0  0  0  0
 15 36  1  0  0  0  0
 15 37  1  0  0  0  0
 16 17  1  0  0  0  0
 16 38  1  0  0  0  0
 16 39  1  0  0  0  0
 17 18  1  0  0  0  0
 17 40  1  0  0  0  0
 17 41  1  0  0  0  0
 18 42  1  0  0  0  0
 18 43  1  0  0  0  0
 19 20  1  0  0  0  0
M  END
> <s_m_source_file>
AV-unprocessed.smi

> <i_m_source_file_index>
2651

> <i_lp_mmshare_version>
43012

> <i_f3d_flags>
0

> <s_epik_input>
W0NIM11jMVtjSF1jKG5vMSlbTkhdQyg9TylbTkhdW0NAQF0oW0NIM10pKFtDSDJdW09IXSlbQ0hdMltDSDJdW0NIMl1bQ0gyXVtDSDJdW0NIMl0y

> <s_epik_cmdline>
J2VwaWtfcHl0aG9uJywgJy1waCcsICc3LjAnLCAnLXRuJywgJzgnLCAnLW1hJywgJzIwMCcsICctbWV0YWxfYmluZGluZycsICctaW1hZScsICc8aW5maWxlLm1hZT4nLCAnLW9tYWUnLCAnPG91dGZpbGUubWFlPic=

> <r_lp_tautomer_probability>
1

> <r_epik_Ionization_Penalty>
2.26451e-05

> <r_epik_Ionization_Penalty_Charging>
0

> <r_epik_Ionization_Penalty_Neutral>
2.26451e-05

> <r_epik_State_Penalty>
-0

> <r_epik_Charging_Adjusted_Penalty>
0

> <i_epik_Tot_Q>
0

> <i_epik_Tot_abs_Q>
0

> <r_epik_Metal_State_Penalty>
-0

> <b_epik_Metal_Only>
0

> <s_lp_Force_Field>
OPLS_2005

> <r_lp_Energy>
17.1045

> <b_lp_Chiralities_Consistent>
1

> <s_lp_Variant>
AV-unprocessed.smi:2651-1

> <Gold.Version>
5.8.1

> <Gold.Id.Protein>
6NUR|6NUR_protein|mol2

> <Gold.PLP.Fitness>
39.9702

> <Gold.PLP.PLP>
-32.5042

> <Gold.PLP.part.hbond>
-3.0000

> <Gold.PLP.part.metal>
0.0000

> <Gold.PLP.part.buried>
-5.7732

> <Gold.PLP.part.nonpolar>
-24.6665

> <Gold.PLP.part.repulsive>
0.0845

> <Gold.PLP.ligand.clash>
0.0000

> <Gold.PLP.ligand.torsion>
0.7210

> <Gold.PLP.Chemscore.Hbond>
2.9588

> <Gold.PLP.Chemscore.CHOScore>
0.0000

> <Gold.PLP.Chemscore.Metal>
0.0000

> <Gold.Chemscore.Hbonds>
donor molecule, donor type, donor heavy atom, donor atom, acceptor molecule, acceptor atom, score
      L1  H    12    32       P1  7949  0.95
      P1  H  6896  6907       L1     7  1.00
      P1  H 10752 10763       L1    12  1.00

> <Gold.PLP.Chemscore.Internal.Correction>
0.0318

> <Gold.Rescore>
     Score         DG    S(hbond)    S(metal)    S(lipo)     H(rot)  DE(clash)    DE(int)     intcor
     13.64     -17.15       2.47        0.00      74.96       2.09       0.06       3.46       ----

> <Gold.Chemscore.Fitness>
13.6380

> <Gold.Chemscore.DG>
-17.1541

> <Gold.Chemscore.ZeroCoef>
-5.4800

> <Gold.Chemscore.Hbond>
2.4740

> <Gold.Chemscore.Metal>
0.0000

> <Gold.Chemscore.Lipo>
74.9606

> <Gold.Chemscore.Internal_Hbond>
0.0000

> <Gold.Chemscore.DEClash>
0.0588

> <Gold.Chemscore.DEInternal>
3.4574

> <Gold.Chemscore.Rot>
2.0935

> <Gold.Chemscore.Internal.Correction>
   9.000000E+99

> <Gold.Chemscore.Hbonds>
donor molecule, donor type, donor heavy atom, donor atom, acceptor molecule, acceptor atom, score
      L1  H    12    32       P1  7949  0.21
      P1  H  6896  6907       L1     7  0.97
      P1  H 10752 10763       L1    12  0.26

> <Gold.Chemscore.Hbond.Weighted>
-8.2631

> <Gold.Chemscore.Metal.Weighted>
-0.0000

> <Gold.Chemscore.Lipo.Weighted>
-8.7704

> <Gold.Chemscore.Internal_Hbond.Weighted>
0.0000

> <Gold.Chemscore.DEClash.Weighted>
0.0588

> <Gold.Chemscore.DEInternal.Weighted>
3.4574

> <Gold.Chemscore.Rot.Weighted>
5.3594

> <Gold.Chemscore.Internal.Correction.Weighted>
   9.000000E+99

> <Gold.Protein.RotatedTorsions>
[ 6907 6896 6895 6894 ] final  -28.90 input  -60.11 | X-H torsion
[ 7974 7965 7964 7962 ] final  -39.78 input  175.53 | X-H torsion
[ 8008 7997 7996 7995 ] final -104.62 input   59.86 | X-H torsion
[ 10167 10162 10161 10158 ] final  109.21 input  -65.29 | X-H torsion
[ 10718 10713 10712 10709 ] final   29.69 input   66.30 | X-H torsion
[ 10763 10752 10751 10750 ] final   41.22 input  -60.55 | X-H torsion
[ 11005 11000 10999 10996 ] final   62.48 input  -57.11 | X-H torsion

> <Gold.Protein.ActiveResidues>
 VAL166  LYS551  ARG553  GLY616  TRP617  ASP618  TYR619  PRO620  LYS621  CYS622 
 ASP623  PHE694  ASN695  SER759  ASP760  ASP761  ALA762  ILE779  LEU786  VAL792 
 PHE793  MET794  SER795  GLU796  ALA797  LYS798  CYS799  TRP800  GLU811  SER814 

> <Gold.Protein.RotatedAtoms>
  151.1266  135.0108  159.8562 H   0  0  0  0  0  0  0  0  0  0  0  0  # atno 6907 bound_to 6896
  152.5449  134.1660  159.8587 H   0  0  0  0  0  0  0  0  0  0  0  0  # atno 6908 bound_to 6896
  151.1723  133.4732  159.2627 H   0  0  0  0  0  0  0  0  0  0  0  0  # atno 6909 bound_to 6896
  146.0365  140.6664  142.9107 H   0  0  0  0  0  0  0  0  0  0  0  0  # atno 7974 bound_to 7965
  154.8880  140.0417  157.1821 H   0  0  0  0  0  0  0  0  0  0  0  0  # atno 8008 bound_to 7997
  154.8570  140.2938  155.5541 H   0  0  0  0  0  0  0  0  0  0  0  0  # atno 8009 bound_to 7997
  156.2997  140.2454  156.3539 H   0  0  0  0  0  0  0  0  0  0  0  0  # atno 8010 bound_to 7997
  139.6784  144.7120  151.1560 H   0  0  0  0  0  0  0  0  0  0  0  0  # atno 10167 bound_to 10162
  157.2499  130.7110  149.6400 H   0  0  0  0  0  0  0  0  0  0  0  0  # atno 10718 bound_to 10713
  152.9914  135.6168  154.2752 H   0  0  0  0  0  0  0  0  0  0  0  0  # atno 10763 bound_to 10752
  154.2483  135.2786  155.2828 H   0  0  0  0  0  0  0  0  0  0  0  0  # atno 10764 bound_to 10752
  154.5310  135.5788  153.6816 H   0  0  0  0  0  0  0  0  0  0  0  0  # atno 10765 bound_to 10752
  140.0089  134.6327  155.9812 H   0  0  0  0  0  0  0  0  0  0  0  0  # atno 11005 bound_to 11000
  144.7054  140.3830  143.7122 LP  0  0  0  0  0  0  0  0  0  0  0  0  # atno 17320 bound_to 7965
  145.6955  139.1649  143.2622 LP  0  0  0  0  0  0  0  0  0  0  0  0  # atno 17321 bound_to 7965
  140.7643  143.5736  150.8969 LP  0  0  0  0  0  0  0  0  0  0  0  0  # atno 17342 bound_to 10162
  139.9407  143.6386  152.3054 LP  0  0  0  0  0  0  0  0  0  0  0  0  # atno 17343 bound_to 10162
  155.9666  130.4431  150.5408 LP  0  0  0  0  0  0  0  0  0  0  0  0  # atno 17370 bound_to 10713
  157.3289  131.0696  151.1875 LP  0  0  0  0  0  0  0  0  0  0  0  0  # atno 17371 bound_to 10713
  141.1697  133.6537  156.4606 LP  0  0  0  0  0  0  0  0  0  0  0  0  # atno 17394 bound_to 11000
  140.4591  134.6858  157.5076 LP  0  0  0  0  0  0  0  0  0  0  0  0  # atno 17395 bound_to 11000

$$$$
