AV-unprocessed.smi:697|AV-procd|sdf|3393|dock3
  -GOLD-   22720 0373D 1   1.00000     0.00000
 Structure written by MMmdl.
 43 44  0  0  0  0  0  0  0  0  2 V2000
  158.1179  134.9251  164.3741 C   0  0  0  0  0  0  0  0  0  0  0  0
  157.0054  135.7655  164.6522 O   0  0  0  0  0  0  0  0  0  0  0  0
  157.1314  137.1332  164.2593 C   0  0  1  0  0  0  0  0  0  0  0  0
  158.3178  137.7813  164.9904 C   0  0  0  0  0  0  0  0  0  0  0  0
  157.0397  137.3134  162.7327 C   0  0  0  0  0  0  0  0  0  0  0  0
  156.1337  138.5087  163.0179 C   0  0  1  0  0  0  0  0  0  0  0  0
  155.0595  138.6461  162.0410 N   0  0  0  0  0  0  0  0  0  0  0  0
  154.7136  139.7989  161.4530 C   0  0  0  0  0  0  0  0  0  0  0  0
  155.2842  140.8658  161.6787 O   0  0  0  0  0  0  0  0  0  0  0  0
  153.6911  139.6105  160.5995 N   0  0  0  0  0  0  0  0  0  0  0  0
  153.0095  140.5429  159.7985 C   0  0  0  0  0  0  0  0  0  0  0  0
  152.7165  141.8210  160.1670 C   0  0  0  0  0  0  0  0  0  0  0  0
  151.9966  142.7394  159.2939 C   0  0  0  0  0  0  0  0  0  0  0  0
  151.7398  144.1975  159.6307 C   0  0  0  0  0  0  0  0  0  0  0  0
  150.4363  144.4752  159.5952 F   0  0  0  0  0  0  0  0  0  0  0  0
  152.1880  144.4658  160.8561 F   0  0  0  0  0  0  0  0  0  0  0  0
  152.3651  145.0043  158.7733 F   0  0  0  0  0  0  0  0  0  0  0  0
  151.6714  142.1635  158.0813 C   0  0  0  0  0  0  0  0  0  0  0  0
  151.8982  140.9035  157.6498 N   0  5  0  0  0  0  0  0  0  0  0  0
  152.5696  140.0521  158.4757 C   0  0  0  0  0  0  0  0  0  0  0  0
  152.8131  138.8912  158.1436 O   0  0  0  0  0  0  0  0  0  0  0  0
  155.7271  137.8153  164.3436 C   0  0  0  0  0  0  0  0  0  0  0  0
  154.5085  136.8713  164.2894 C   0  0  0  0  0  0  0  0  0  0  0  0
  155.4803  138.7469  165.5343 C   0  0  0  0  0  0  0  0  0  0  0  0
  157.8640  133.8990  164.6393 H   0  0  0  0  0  0  0  0  0  0  0  0
  158.9940  135.2021  164.9594 H   0  0  0  0  0  0  0  0  0  0  0  0
  158.3835  134.9351  163.3169 H   0  0  0  0  0  0  0  0  0  0  0  0
  158.3618  138.8567  164.8202 H   0  0  0  0  0  0  0  0  0  0  0  0
  159.2726  137.3798  164.6524 H   0  0  0  0  0  0  0  0  0  0  0  0
  158.2534  137.6239  166.0673 H   0  0  0  0  0  0  0  0  0  0  0  0
  157.9803  137.5681  162.2437 H   0  0  0  0  0  0  0  0  0  0  0  0
  156.5342  136.4913  162.2224 H   0  0  0  0  0  0  0  0  0  0  0  0
  156.7092  139.4243  163.1725 H   0  0  0  0  0  0  0  0  0  0  0  0
  154.5456  137.8113  161.7997 H   0  0  0  0  0  0  0  0  0  0  0  0
  153.3752  138.6586  160.4830 H   0  0  0  0  0  0  0  0  0  0  0  0
  152.9953  142.1961  161.1376 H   0  0  0  0  0  0  0  0  0  0  0  0
  151.1536  142.8151  157.3454 H   0  0  0  0  0  0  0  0  0  0  0  0
  153.5769  137.4229  164.1584 H   0  0  0  0  0  0  0  0  0  0  0  0
  154.4118  136.2928  165.2088 H   0  0  0  0  0  0  0  0  0  0  0  0
  154.5733  136.1564  163.4692 H   0  0  0  0  0  0  0  0  0  0  0  0
  154.5123  139.2433  165.4601 H   0  0  0  0  0  0  0  0  0  0  0  0
  156.2295  139.5356  165.5984 H   0  0  0  0  0  0  0  0  0  0  0  0
  155.4993  138.2013  166.4784 H   0  0  0  0  0  0  0  0  0  0  0  0
  1  2  1  0  0  0  0
  1 25  1  0  0  0  0
  1 26  1  0  0  0  0
  1 27  1  0  0  0  0
  2  3  1  0  0  0  0
  3 22  1  0  0  0  0
  3  4  1  0  0  0  0
  3  5  1  0  0  0  0
  4 28  1  0  0  0  0
  4 29  1  0  0  0  0
  4 30  1  0  0  0  0
  5  6  1  0  0  0  0
  5 31  1  0  0  0  0
  5 32  1  0  0  0  0
  6  7  1  0  0  0  0
  6 22  1  0  0  0  0
  6 33  1  0  0  0  0
  7  8  1  0  0  0  0
  7 34  1  0  0  0  0
  8  9  2  0  0  0  0
  8 10  1  0  0  0  0
 10 11  1  0  0  0  0
 10 35  1  0  0  0  0
 11 20  1  0  0  0  0
 11 12  2  0  0  0  0
 12 13  1  0  0  0  0
 12 36  1  0  0  0  0
 13 14  1  0  0  0  0
 13 18  2  0  0  0  0
 14 15  1  0  0  0  0
 14 16  1  0  0  0  0
 14 17  1  0  0  0  0
 18 19  1  0  0  0  0
 18 37  1  0  0  0  0
 19 20  1  0  0  0  0
 20 21  2  0  0  0  0
 22 23  1  0  0  0  0
 22 24  1  0  0  0  0
 23 38  1  0  0  0  0
 23 39  1  0  0  0  0
 23 40  1  0  0  0  0
 24 41  1  0  0  0  0
 24 42  1  0  0  0  0
 24 43  1  0  0  0  0
M  CHG  1  19  -1
M  END
> <s_m_source_file>
AV-unprocessed.smi

> <i_m_source_file_index>
697

> <i_lp_mmshare_version>
43012

> <i_f3d_flags>
0

> <s_epik_input>
W0NIM11PW0NAQF0xKFtDSDNdKVtDSDJdW0NASF0oQzEoW0NIM10pW0NIM10pW05IXUMoPU8pW05IXWMyW2NIXWMoQyhGKShGKUYpW2NIXVtuSF1jMj1P

> <s_epik_cmdline>
J2VwaWtfcHl0aG9uJywgJy1waCcsICc3LjAnLCAnLXRuJywgJzgnLCAnLW1hJywgJzIwMCcsICctbWV0YWxfYmluZGluZycsICctaW1hZScsICc8aW5maWxlLm1hZT4nLCAnLW9tYWUnLCAnPG91dGZpbGUubWFlPic=

> <r_lp_tautomer_probability>
1

> <r_epik_Ionization_Penalty>
3.20094

> <r_epik_Ionization_Penalty_Charging>
0.180017

> <r_epik_Ionization_Penalty_Neutral>
3.02092

> <r_epik_State_Penalty>
3.01726

> <r_epik_Charging_Adjusted_Penalty>
3.19727

> <i_epik_Tot_Q>
-1

> <i_epik_Tot_abs_Q>
1

> <r_epik_Metal_State_Penalty>
0.455096

> <b_epik_Metal_Only>
1

> <s_lp_Force_Field>
OPLS_2005

> <r_lp_Energy>
36.1164

> <b_lp_Chiralities_Consistent>
1

> <s_lp_Variant>
AV-unprocessed.smi:697-5

> <Gold.Version>
5.8.1

> <Gold.Id.Protein>
6NUR|6NUR_protein|mol2

> <Gold.PLP.Fitness>
40.2600

> <Gold.PLP.PLP>
-40.7922

> <Gold.PLP.part.hbond>
-1.0000

> <Gold.PLP.part.metal>
0.0000

> <Gold.PLP.part.buried>
-6.9339

> <Gold.PLP.part.nonpolar>
-32.7733

> <Gold.PLP.part.repulsive>
0.1031

> <Gold.PLP.ligand.clash>
0.0000

> <Gold.PLP.ligand.torsion>
0.4810

> <Gold.PLP.Chemscore.Hbond>
0.0000

> <Gold.PLP.Chemscore.CHOScore>
0.0000

> <Gold.PLP.Chemscore.Metal>
0.0000

> <Gold.PLP.Chemscore.Internal.Correction>
0.4298

> <Gold.Rescore>
     Score         DG    S(hbond)    S(metal)    S(lipo)     H(rot)  DE(clash)    DE(int)     intcor
     10.41     -11.12       0.00        0.00      76.61       1.30       0.24       0.47       ----

> <Gold.Chemscore.Fitness>
10.4120

> <Gold.Chemscore.DG>
-11.1220

> <Gold.Chemscore.ZeroCoef>
-5.4800

> <Gold.Chemscore.Hbond>
0.0000

> <Gold.Chemscore.Metal>
0.0000

> <Gold.Chemscore.Lipo>
76.6069

> <Gold.Chemscore.Internal_Hbond>
0.0000

> <Gold.Chemscore.DEClash>
0.2386

> <Gold.Chemscore.DEInternal>
0.4714

> <Gold.Chemscore.Rot>
1.2973

> <Gold.Chemscore.Internal.Correction>
   9.000000E+99

> <Gold.Chemscore.Hbond.Weighted>
-0.0000

> <Gold.Chemscore.Metal.Weighted>
-0.0000

> <Gold.Chemscore.Lipo.Weighted>
-8.9630

> <Gold.Chemscore.Internal_Hbond.Weighted>
0.0000

> <Gold.Chemscore.DEClash.Weighted>
0.2386

> <Gold.Chemscore.DEInternal.Weighted>
0.4714

> <Gold.Chemscore.Rot.Weighted>
3.3210

> <Gold.Chemscore.Internal.Correction.Weighted>
   9.000000E+99

> <Gold.Protein.RotatedTorsions>
[ 6907 6896 6895 6894 ] final   99.86 input  -60.11 | X-H torsion
[ 7974 7965 7964 7962 ] final  135.30 input  175.53 | X-H torsion
[ 8008 7997 7996 7995 ] final  -85.88 input   59.86 | X-H torsion
[ 10167 10162 10161 10158 ] final  -78.11 input  -65.29 | X-H torsion
[ 10718 10713 10712 10709 ] final  -19.78 input   66.30 | X-H torsion
[ 10763 10752 10751 10750 ] final   12.03 input  -60.55 | X-H torsion
[ 11005 11000 10999 10996 ] final   61.09 input  -57.11 | X-H torsion

> <Gold.Protein.ActiveResidues>
 VAL166  LYS551  ARG553  GLY616  TRP617  ASP618  TYR619  PRO620  LYS621  CYS622 
 ASP623  PHE694  ASN695  SER759  ASP760  ASP761  ALA762  ILE779  LEU786  VAL792 
 PHE793  MET794  SER795  GLU796  ALA797  LYS798  CYS799  TRP800  GLU811  SER814 

> <Gold.Protein.RotatedAtoms>
  152.5384  134.0365  159.8047 H   0  0  0  0  0  0  0  0  0  0  0  0  # atno 6907 bound_to 6896
  151.0528  133.5602  159.2648 H   0  0  0  0  0  0  0  0  0  0  0  0  # atno 6908 bound_to 6896
  151.2530  135.0636  159.9123 H   0  0  0  0  0  0  0  0  0  0  0  0  # atno 6909 bound_to 6896
  144.9677  139.4639  143.5448 H   0  0  0  0  0  0  0  0  0  0  0  0  # atno 7974 bound_to 7965
  154.6457  140.0585  156.9897 H   0  0  0  0  0  0  0  0  0  0  0  0  # atno 8008 bound_to 7997
  155.1449  140.3269  155.4425 H   0  0  0  0  0  0  0  0  0  0  0  0  # atno 8009 bound_to 7997
  156.2552  140.1957  156.6563 H   0  0  0  0  0  0  0  0  0  0  0  0  # atno 8010 bound_to 7997
  140.4711  143.2426  151.8204 H   0  0  0  0  0  0  0  0  0  0  0  0  # atno 10167 bound_to 10162
  156.5409  130.4678  149.6499 H   0  0  0  0  0  0  0  0  0  0  0  0  # atno 10718 bound_to 10713
  153.1864  135.6836  153.8409 H   0  0  0  0  0  0  0  0  0  0  0  0  # atno 10763 bound_to 10752
  153.7723  135.3194  155.3355 H   0  0  0  0  0  0  0  0  0  0  0  0  # atno 10764 bound_to 10752
  154.8091  135.4729  154.0566 H   0  0  0  0  0  0  0  0  0  0  0  0  # atno 10765 bound_to 10752
  140.0186  134.6187  155.9673 H   0  0  0  0  0  0  0  0  0  0  0  0  # atno 11005 bound_to 11000
  146.3373  139.8869  142.8815 LP  0  0  0  0  0  0  0  0  0  0  0  0  # atno 17320 bound_to 7965
  145.2604  141.0075  143.3829 LP  0  0  0  0  0  0  0  0  0  0  0  0  # atno 17321 bound_to 7965
  139.4818  144.4891  151.9209 LP  0  0  0  0  0  0  0  0  0  0  0  0  # atno 17342 bound_to 10162
  140.3976  144.2535  150.5895 LP  0  0  0  0  0  0  0  0  0  0  0  0  # atno 17343 bound_to 10162
  156.2973  130.7157  151.2020 LP  0  0  0  0  0  0  0  0  0  0  0  0  # atno 17370 bound_to 10713
  157.7405  131.0515  150.5159 LP  0  0  0  0  0  0  0  0  0  0  0  0  # atno 17371 bound_to 10713
  141.1759  133.6540  156.4827 LP  0  0  0  0  0  0  0  0  0  0  0  0  # atno 17394 bound_to 11000
  140.4427  134.7000  157.5000 LP  0  0  0  0  0  0  0  0  0  0  0  0  # atno 17395 bound_to 11000

$$$$
