AV-unprocessed.smi:2908|AV-procd|sdf|11170|dock6
  -GOLD-   2272016 63D 1   1.00000     0.00000
 Structure written by MMmdl.
 44 45  0  0  0  0  0  0  0  0  2 V2000
  146.7396  140.3316  156.8034 O   0  0  0  0  0  0  0  0  0  0  0  0
  147.6830  139.7119  157.2973 C   0  0  0  0  0  0  0  0  0  0  0  0
  148.8948  140.2706  157.4637 N   0  0  0  0  0  0  0  0  0  0  0  0
  149.2622  141.6401  157.1107 C   0  0  0  0  0  0  0  0  0  0  0  0
  150.7702  141.9097  157.2829 C   0  0  0  0  0  0  0  0  0  0  0  0
  151.0801  143.1037  158.1688 C   0  0  0  0  0  0  0  0  0  0  0  0
  151.9280  143.0065  159.2940 C   0  0  0  0  0  0  0  0  0  0  0  0
  152.1951  144.1624  160.0566 C   0  0  0  0  0  0  0  0  0  0  0  0
  151.6080  145.3885  159.6813 C   0  0  0  0  0  0  0  0  0  0  0  0
  150.7665  145.4276  158.5510 C   0  0  0  0  0  0  0  0  0  0  0  0
  150.5348  144.2988  157.8457 N   0  3  0  0  0  0  0  0  0  0  0  0
  147.6040  138.4080  157.6640 N   0  0  0  0  0  0  0  0  0  0  0  0
  148.7184  137.5610  158.1189 C   0  0  0  0  0  0  0  0  0  0  0  0
  148.6020  137.3692  159.6412 C   0  0  0  0  0  0  0  0  0  0  0  0
  147.2344  136.7610  160.0361 C   0  0  0  0  0  0  0  0  0  0  0  0
  147.1081  136.6016  161.5744 C   0  0  1  0  0  0  0  0  0  0  0  0
  146.7544  137.8363  162.1686 O   0  0  0  0  0  0  0  0  0  0  0  0
  146.1284  135.5072  162.0523 C   0  0  0  0  0  0  0  0  0  0  0  0
  146.1718  135.4202  163.3819 F   0  0  0  0  0  0  0  0  0  0  0  0
  144.8752  135.7598  161.6759 F   0  0  0  0  0  0  0  0  0  0  0  0
  146.4953  134.3266  161.5542 F   0  0  0  0  0  0  0  0  0  0  0  0
  146.0734  137.5419  159.3698 C   0  0  0  0  0  0  0  0  0  0  0  0
  146.3163  137.7330  157.8613 C   0  0  0  0  0  0  0  0  0  0  0  0
  149.6213  139.6969  157.8672 H   0  0  0  0  0  0  0  0  0  0  0  0
  148.9510  141.8709  156.0904 H   0  0  0  0  0  0  0  0  0  0  0  0
  148.6986  142.3137  157.7563 H   0  0  0  0  0  0  0  0  0  0  0  0
  151.2529  141.0273  157.7048 H   0  0  0  0  0  0  0  0  0  0  0  0
  151.2286  142.0649  156.3052 H   0  0  0  0  0  0  0  0  0  0  0  0
  152.3774  142.0618  159.5639 H   0  0  0  0  0  0  0  0  0  0  0  0
  152.8451  144.1096  160.9178 H   0  0  0  0  0  0  0  0  0  0  0  0
  151.8020  146.2859  160.2505 H   0  0  0  0  0  0  0  0  0  0  0  0
  150.2783  146.3211  158.1903 H   0  0  0  0  0  0  0  0  0  0  0  0
  148.6623  136.5937  157.6170 H   0  0  0  0  0  0  0  0  0  0  0  0
  149.7044  137.9550  157.8730 H   0  0  0  0  0  0  0  0  0  0  0  0
  149.4106  136.7270  159.9916 H   0  0  0  0  0  0  0  0  0  0  0  0
  148.7395  138.3332  160.1330 H   0  0  0  0  0  0  0  0  0  0  0  0
  147.2191  135.7564  159.6113 H   0  0  0  0  0  0  0  0  0  0  0  0
  148.0947  136.3394  161.9598 H   0  0  0  0  0  0  0  0  0  0  0  0
  145.9134  137.7358  162.5881 H   0  0  0  0  0  0  0  0  0  0  0  0
  145.1302  137.0146  159.5046 H   0  0  0  0  0  0  0  0  0  0  0  0
  145.9559  138.5191  159.8396 H   0  0  0  0  0  0  0  0  0  0  0  0
  145.4828  138.2776  157.4154 H   0  0  0  0  0  0  0  0  0  0  0  0
  146.3348  136.7644  157.3596 H   0  0  0  0  0  0  0  0  0  0  0  0
  149.9284  144.3521  157.0270 H   0  0  0  0  0  0  0  0  0  0  0  0
  1  2  2  0  0  0  0
  2  3  1  0  0  0  0
  2 12  1  0  0  0  0
  3  4  1  0  0  0  0
  3 24  1  0  0  0  0
  4  5  1  0  0  0  0
  4 25  1  0  0  0  0
  4 26  1  0  0  0  0
  5  6  1  0  0  0  0
  5 27  1  0  0  0  0
  5 28  1  0  0  0  0
  6 11  1  0  0  0  0
  6  7  2  0  0  0  0
  7  8  1  0  0  0  0
  7 29  1  0  0  0  0
  8  9  2  0  0  0  0
  8 30  1  0  0  0  0
  9 10  1  0  0  0  0
  9 31  1  0  0  0  0
 10 11  2  0  0  0  0
 10 32  1  0  0  0  0
 11 44  1  0  0  0  0
 12 23  1  0  0  0  0
 12 13  1  0  0  0  0
 13 14  1  0  0  0  0
 13 33  1  0  0  0  0
 13 34  1  0  0  0  0
 14 15  1  0  0  0  0
 14 35  1  0  0  0  0
 14 36  1  0  0  0  0
 15 16  1  0  0  0  0
 15 22  1  0  0  0  0
 15 37  1  0  0  0  0
 16 17  1  0  0  0  0
 16 18  1  0  0  0  0
 16 38  1  0  0  0  0
 17 39  1  0  0  0  0
 18 19  1  0  0  0  0
 18 20  1  0  0  0  0
 18 21  1  0  0  0  0
 22 23  1  0  0  0  0
 22 40  1  0  0  0  0
 22 41  1  0  0  0  0
 23 42  1  0  0  0  0
 23 43  1  0  0  0  0
M  CHG  1  11   1
M  END
> <s_m_source_file>
AV-unprocessed.smi

> <i_m_source_file_index>
2908

> <i_lp_mmshare_version>
43012

> <i_f3d_flags>
0

> <s_epik_input>
RkMoRikoRilbQ0BASF0oW09IXSlbQ0hdKFtDSDJdW0NIMl0xKVtDSDJdW0NIMl1OMUMoPU8pW05IXVtDSDJdW0NIMl1jMltjSF1bY0hdW2NIXVtjSF1uMg==

> <s_epik_cmdline>
J2VwaWtfcHl0aG9uJywgJy1waCcsICc3LjAnLCAnLXRuJywgJzgnLCAnLW1hJywgJzIwMCcsICctbWV0YWxfYmluZGluZycsICctaW1hZScsICc8aW5maWxlLm1hZT4nLCAnLW9tYWUnLCAnPG91dGZpbGUubWFlPic=

> <r_epik_Ionization_Penalty>
1.55054

> <r_epik_Ionization_Penalty_Charging>
1.55036

> <r_epik_Ionization_Penalty_Neutral>
0.00017404

> <r_epik_State_Penalty>
1.64453

> <r_epik_Charging_Adjusted_Penalty>
3.19489

> <i_epik_Tot_Q>
1

> <i_epik_Tot_abs_Q>
1

> <r_epik_Metal_State_Penalty>
1.68672

> <b_epik_Metal_Only>
0

> <s_lp_Force_Field>
OPLS_2005

> <r_lp_Energy>
43.524

> <b_lp_Chiralities_Consistent>
1

> <s_lp_Variant>
AV-unprocessed.smi:2908-4

> <Gold.Version>
5.8.1

> <Gold.Id.Protein>
6NUR|6NUR_protein|mol2

> <Gold.PLP.Fitness>
51.8282

> <Gold.PLP.PLP>
-43.3961

> <Gold.PLP.part.hbond>
-3.0000

> <Gold.PLP.part.metal>
0.0000

> <Gold.PLP.part.buried>
-5.3342

> <Gold.PLP.part.nonpolar>
-35.1032

> <Gold.PLP.part.repulsive>
0.1169

> <Gold.PLP.ligand.clash>
0.0000

> <Gold.PLP.ligand.torsion>
0.8581

> <Gold.PLP.Chemscore.Hbond>
3.3182

> <Gold.PLP.Chemscore.CHOScore>
0.0000

> <Gold.PLP.Chemscore.Metal>
0.0000

> <Gold.Chemscore.Hbonds>
donor molecule, donor type, donor heavy atom, donor atom, acceptor molecule, acceptor atom, score
      L1  H    11    44       P1  8028  2.00
      P1  H  6931  6943       L1    17  0.02
      P1  H  6934  6947       L1    17  0.59

> <Gold.PLP.Chemscore.Internal.Correction>
0.1936

> <Gold.Rescore>
     Score         DG    S(hbond)    S(metal)    S(lipo)     H(rot)  DE(clash)    DE(int)     intcor
     16.91     -17.74       2.05        0.00      98.79       2.40       0.05       0.78       ----

> <Gold.Chemscore.Fitness>
16.9068

> <Gold.Chemscore.DG>
-17.7381

> <Gold.Chemscore.ZeroCoef>
-5.4800

> <Gold.Chemscore.Hbond>
2.0509

> <Gold.Chemscore.Metal>
0.0000

> <Gold.Chemscore.Lipo>
98.7938

> <Gold.Chemscore.Internal_Hbond>
0.0000

> <Gold.Chemscore.DEClash>
0.0502

> <Gold.Chemscore.DEInternal>
0.7811

> <Gold.Chemscore.Rot>
2.4026

> <Gold.Chemscore.Internal.Correction>
   9.000000E+99

> <Gold.Chemscore.Hbonds>
donor molecule, donor type, donor heavy atom, donor atom, acceptor molecule, acceptor atom, score
      L1  H    11    44       P1  8028  0.65
      P1  H  6934  6947       L1    17  0.29

> <Gold.Chemscore.Hbond.Weighted>
-6.8500

> <Gold.Chemscore.Metal.Weighted>
-0.0000

> <Gold.Chemscore.Lipo.Weighted>
-11.5589

> <Gold.Chemscore.Internal_Hbond.Weighted>
0.0000

> <Gold.Chemscore.DEClash.Weighted>
0.0502

> <Gold.Chemscore.DEInternal.Weighted>
0.7811

> <Gold.Chemscore.Rot.Weighted>
6.1508

> <Gold.Chemscore.Internal.Correction.Weighted>
   9.000000E+99

> <Gold.Protein.RotatedTorsions>
[ 6907 6896 6895 6894 ] final  102.01 input  -60.11 | X-H torsion
[ 7974 7965 7964 7962 ] final  -21.66 input  175.53 | X-H torsion
[ 8008 7997 7996 7995 ] final  143.74 input   59.86 | X-H torsion
[ 10167 10162 10161 10158 ] final    5.62 input  -65.29 | X-H torsion
[ 10718 10713 10712 10709 ] final  126.82 input   66.30 | X-H torsion
[ 10763 10752 10751 10750 ] final  -29.18 input  -60.55 | X-H torsion
[ 11005 11000 10999 10996 ] final  -44.16 input  -57.11 | X-H torsion

> <Gold.Protein.ActiveResidues>
 VAL166  LYS551  ARG553  GLY616  TRP617  ASP618  TYR619  PRO620  LYS621  CYS622 
 ASP623  PHE694  ASN695  SER759  ASP760  ASP761  ALA762  ILE779  LEU786  VAL792 
 PHE793  MET794  SER795  GLU796  ALA797  LYS798  CYS799  TRP800  GLU811  SER814 

> <Gold.Protein.RotatedAtoms>
  152.5335  134.0039  159.7907 H   0  0  0  0  0  0  0  0  0  0  0  0  # atno 6907 bound_to 6896
  151.0253  133.5831  159.2674 H   0  0  0  0  0  0  0  0  0  0  0  0  # atno 6908 bound_to 6896
  151.2856  135.0734  159.9239 H   0  0  0  0  0  0  0  0  0  0  0  0  # atno 6909 bound_to 6896
  146.1720  140.4372  142.8528 H   0  0  0  0  0  0  0  0  0  0  0  0  # atno 7974 bound_to 7965
  156.2924  140.2254  156.4939 H   0  0  0  0  0  0  0  0  0  0  0  0  # atno 8008 bound_to 7997
  154.7747  140.0464  157.1101 H   0  0  0  0  0  0  0  0  0  0  0  0  # atno 8009 bound_to 7997
  154.9831  140.3081  155.4941 H   0  0  0  0  0  0  0  0  0  0  0  0  # atno 8010 bound_to 7997
  140.6472  143.7632  150.7518 H   0  0  0  0  0  0  0  0  0  0  0  0  # atno 10167 bound_to 10162
  157.5386  131.1097  150.8895 H   0  0  0  0  0  0  0  0  0  0  0  0  # atno 10718 bound_to 10713
  153.7604  135.6919  153.4926 H   0  0  0  0  0  0  0  0  0  0  0  0  # atno 10763 bound_to 10752
  153.1942  135.4460  155.0186 H   0  0  0  0  0  0  0  0  0  0  0  0  # atno 10764 bound_to 10752
  154.8155  135.3397  154.7120 H   0  0  0  0  0  0  0  0  0  0  0  0  # atno 10765 bound_to 10752
  141.0432  133.6772  156.2833 H   0  0  0  0  0  0  0  0  0  0  0  0  # atno 11005 bound_to 11000
  144.8178  140.6497  143.6373 LP  0  0  0  0  0  0  0  0  0  0  0  0  # atno 17320 bound_to 7965
  145.4314  139.1548  143.4020 LP  0  0  0  0  0  0  0  0  0  0  0  0  # atno 17321 bound_to 7965
  140.1276  143.4555  152.2274 LP  0  0  0  0  0  0  0  0  0  0  0  0  # atno 17342 bound_to 10162
  139.5684  144.7448  151.3958 LP  0  0  0  0  0  0  0  0  0  0  0  0  # atno 17343 bound_to 10162
  156.9454  130.5400  149.5281 LP  0  0  0  0  0  0  0  0  0  0  0  0  # atno 17370 bound_to 10713
  156.0479  130.5552  150.8922 LP  0  0  0  0  0  0  0  0  0  0  0  0  # atno 17371 bound_to 10713
  140.6196  134.5375  157.5545 LP  0  0  0  0  0  0  0  0  0  0  0  0  # atno 17394 bound_to 11000
  139.9291  134.7998  156.0981 LP  0  0  0  0  0  0  0  0  0  0  0  0  # atno 17395 bound_to 11000

$$$$
