AV-unprocessed.smi:1284|AV-procd|sdf|5365|dock9
  -GOLD-   22720 4503D 1   1.00000     0.00000
 Structure written by MMmdl.
 40 42  0  0  0  0  0  0  0  0  2 V2000
  149.9941  135.9909  154.4908 N   0  0  0  0  0  0  0  0  0  0  0  0
  151.0448  136.6023  155.0437 C   0  0  0  0  0  0  0  0  0  0  0  0
  151.6381  136.1393  156.0159 O   0  0  0  0  0  0  0  0  0  0  0  0
  151.4964  137.9256  154.4213 C   0  0  0  0  0  0  0  0  0  0  0  0
  150.3528  138.8914  154.3262 C   0  0  0  0  0  0  0  0  0  0  0  0
  149.2520  138.7440  153.5325 N   0  3  0  0  0  0  0  0  0  0  0  0
  148.3975  139.8338  153.6950 C   0  0  0  0  0  0  0  0  0  0  0  0
  147.1751  140.1302  153.1002 C   0  0  0  0  0  0  0  0  0  0  0  0
  146.5586  141.3376  153.4897 C   0  0  0  0  0  0  0  0  0  0  0  0
  147.1569  142.1957  154.4352 C   0  0  0  0  0  0  0  0  0  0  0  0
  148.3956  141.8827  155.0329 C   0  0  0  0  0  0  0  0  0  0  0  0
  148.9983  140.6869  154.6424 C   0  0  0  0  0  0  0  0  0  0  0  0
  150.1955  140.0632  155.0124 N   0  0  0  0  0  0  0  0  0  0  0  0
  151.0500  140.7149  156.0192 C   0  0  0  0  0  0  0  0  0  0  0  0
  151.0096  140.0152  157.3921 C   0  0  2  0  0  0  0  0  0  0  0  0
  149.6680  139.7876  157.7776 O   0  0  0  0  0  0  0  0  0  0  0  0
  151.7817  140.8079  158.4345 C   0  0  0  0  0  0  0  0  0  0  0  0
  152.8860  140.2211  159.0892 C   0  0  0  0  0  0  0  0  0  0  0  0
  153.6128  140.9520  160.0494 C   0  0  0  0  0  0  0  0  0  0  0  0
  153.2406  142.2742  160.3588 C   0  0  0  0  0  0  0  0  0  0  0  0
  152.1424  142.8663  159.7063 C   0  0  0  0  0  0  0  0  0  0  0  0
  151.4157  142.1364  158.7458 C   0  0  0  0  0  0  0  0  0  0  0  0
  149.6613  135.1186  154.8764 H   0  0  0  0  0  0  0  0  0  0  0  0
  149.5303  136.4033  153.6935 H   0  0  0  0  0  0  0  0  0  0  0  0
  152.2833  138.3650  155.0352 H   0  0  0  0  0  0  0  0  0  0  0  0
  151.9292  137.7420  153.4383 H   0  0  0  0  0  0  0  0  0  0  0  0
  146.7157  139.4743  152.3752 H   0  0  0  0  0  0  0  0  0  0  0  0
  145.6084  141.6111  153.0539 H   0  0  0  0  0  0  0  0  0  0  0  0
  146.6557  143.1130  154.7081 H   0  0  0  0  0  0  0  0  0  0  0  0
  148.8455  142.5476  155.7553 H   0  0  0  0  0  0  0  0  0  0  0  0
  152.0697  140.7468  155.6334 H   0  0  0  0  0  0  0  0  0  0  0  0
  150.7365  141.7547  156.1090 H   0  0  0  0  0  0  0  0  0  0  0  0
  151.4740  139.0327  157.3017 H   0  0  0  0  0  0  0  0  0  0  0  0
  149.6534  139.0716  158.3948 H   0  0  0  0  0  0  0  0  0  0  0  0
  153.1815  139.2084  158.8572 H   0  0  0  0  0  0  0  0  0  0  0  0
  154.4564  140.4984  160.5484 H   0  0  0  0  0  0  0  0  0  0  0  0
  153.7983  142.8343  161.0949 H   0  0  0  0  0  0  0  0  0  0  0  0
  151.8578  143.8812  159.9421 H   0  0  0  0  0  0  0  0  0  0  0  0
  150.5777  142.6011  158.2473 H   0  0  0  0  0  0  0  0  0  0  0  0
  149.1057  137.9543  152.9164 H   0  0  0  0  0  0  0  0  0  0  0  0
  1  2  1  0  0  0  0
  1 23  1  0  0  0  0
  1 24  1  0  0  0  0
  2  3  2  0  0  0  0
  2  4  1  0  0  0  0
  4  5  1  0  0  0  0
  4 25  1  0  0  0  0
  4 26  1  0  0  0  0
  5 13  1  0  0  0  0
  5  6  2  0  0  0  0
  6  7  1  0  0  0  0
  6 40  1  0  0  0  0
  7 12  2  0  0  0  0
  7  8  1  0  0  0  0
  8  9  2  0  0  0  0
  8 27  1  0  0  0  0
  9 10  1  0  0  0  0
  9 28  1  0  0  0  0
 10 11  2  0  0  0  0
 10 29  1  0  0  0  0
 11 12  1  0  0  0  0
 11 30  1  0  0  0  0
 12 13  1  0  0  0  0
 13 14  1  0  0  0  0
 14 15  1  0  0  0  0
 14 31  1  0  0  0  0
 14 32  1  0  0  0  0
 15 16  1  0  0  0  0
 15 17  1  0  0  0  0
 15 33  1  0  0  0  0
 16 34  1  0  0  0  0
 17 22  1  0  0  0  0
 17 18  2  0  0  0  0
 18 19  1  0  0  0  0
 18 35  1  0  0  0  0
 19 20  2  0  0  0  0
 19 36  1  0  0  0  0
 20 21  1  0  0  0  0
 20 37  1  0  0  0  0
 21 22  2  0  0  0  0
 21 38  1  0  0  0  0
 22 39  1  0  0  0  0
M  CHG  1   6   1
M  END
> <s_m_source_file>
AV-unprocessed.smi

> <i_m_source_file_index>
1284

> <i_lp_mmshare_version>
43012

> <i_f3d_flags>
0

> <s_epik_input>
W2NIXTFbY0hdW2NIXVtjSF1jKGMxMiluKGMobjIpW0NIMl1DKD1PKVtOSDJdKVtDSDJdW0NASF0oW09IXSljM1tjSF1bY0hdW2NIXVtjSF1bY0hdMw==

> <s_epik_cmdline>
J2VwaWtfcHl0aG9uJywgJy1waCcsICc3LjAnLCAnLXRuJywgJzgnLCAnLW1hJywgJzIwMCcsICctbWV0YWxfYmluZGluZycsICctaW1hZScsICc8aW5maWxlLm1hZT4nLCAnLW9tYWUnLCAnPG91dGZpbGUubWFlPic=

> <r_epik_Ionization_Penalty>
1.66646

> <r_epik_Ionization_Penalty_Charging>
1.66645

> <r_epik_Ionization_Penalty_Neutral>
1.67657e-06

> <r_epik_State_Penalty>
1.76975

> <r_epik_Charging_Adjusted_Penalty>
3.43621

> <i_epik_Tot_Q>
1

> <i_epik_Tot_abs_Q>
1

> <r_epik_Metal_State_Penalty>
1.80493

> <b_epik_Metal_Only>
0

> <s_lp_Force_Field>
OPLS_2005

> <r_lp_Energy>
13.978

> <b_lp_Chiralities_Consistent>
1

> <s_lp_Variant>
AV-unprocessed.smi:1284-3

> <Gold.Version>
5.8.1

> <Gold.Id.Protein>
6NUR|6NUR_protein|mol2

> <Gold.PLP.Fitness>
57.1523

> <Gold.PLP.PLP>
-46.5502

> <Gold.PLP.part.hbond>
-4.4806

> <Gold.PLP.part.metal>
0.0000

> <Gold.PLP.part.buried>
2.4896

> <Gold.PLP.part.nonpolar>
-45.0148

> <Gold.PLP.part.repulsive>
0.1629

> <Gold.PLP.ligand.clash>
0.0000

> <Gold.PLP.ligand.torsion>
0.3061

> <Gold.PLP.Chemscore.Hbond>
3.7280

> <Gold.PLP.Chemscore.CHOScore>
0.0000

> <Gold.PLP.Chemscore.Metal>
0.0000

> <Gold.Chemscore.Hbonds>
donor molecule, donor type, donor heavy atom, donor atom, acceptor molecule, acceptor atom, score
      L1  H     1    24       P1  7948  0.94
      L1  H     6    40       P1  7948  2.00
      P1  H 10752 10764       L1     3  0.70

> <Gold.PLP.Chemscore.Internal.Correction>
0.0304

> <Gold.Rescore>
     Score         DG    S(hbond)    S(metal)    S(lipo)     H(rot)  DE(clash)    DE(int)     intcor
     15.28     -17.54       1.84        0.00     114.62       2.92       1.01       1.24       ----

> <Gold.Chemscore.Fitness>
15.2845

> <Gold.Chemscore.DG>
-17.5402

> <Gold.Chemscore.ZeroCoef>
-5.4800

> <Gold.Chemscore.Hbond>
1.8354

> <Gold.Chemscore.Metal>
0.0000

> <Gold.Chemscore.Lipo>
114.6241

> <Gold.Chemscore.Internal_Hbond>
0.0000

> <Gold.Chemscore.DEClash>
1.0149

> <Gold.Chemscore.DEInternal>
1.2408

> <Gold.Chemscore.Rot>
2.9223

> <Gold.Chemscore.Internal.Correction>
   9.000000E+99

> <Gold.Chemscore.Hbonds>
donor molecule, donor type, donor heavy atom, donor atom, acceptor molecule, acceptor atom, score
      L1  H     1    24       P1  7948  0.64
      L1  H     6    40       P1  7948  0.96
      P1  H 10752 10764       L1     3  0.07

> <Gold.Chemscore.Hbond.Weighted>
-6.1303

> <Gold.Chemscore.Metal.Weighted>
-0.0000

> <Gold.Chemscore.Lipo.Weighted>
-13.4110

> <Gold.Chemscore.Internal_Hbond.Weighted>
0.0000

> <Gold.Chemscore.DEClash.Weighted>
1.0149

> <Gold.Chemscore.DEInternal.Weighted>
1.2408

> <Gold.Chemscore.Rot.Weighted>
7.4812

> <Gold.Chemscore.Internal.Correction.Weighted>
   9.000000E+99

> <Gold.Protein.RotatedTorsions>
[ 6907 6896 6895 6894 ] final   89.02 input  -60.11 | X-H torsion
[ 7974 7965 7964 7962 ] final  163.04 input  175.53 | X-H torsion
[ 8008 7997 7996 7995 ] final  160.23 input   59.86 | X-H torsion
[ 10167 10162 10161 10158 ] final   -8.30 input  -65.29 | X-H torsion
[ 10718 10713 10712 10709 ] final -156.96 input   66.30 | X-H torsion
[ 10763 10752 10751 10750 ] final  -34.13 input  -60.55 | X-H torsion
[ 11005 11000 10999 10996 ] final -176.65 input  -57.11 | X-H torsion

> <Gold.Protein.ActiveResidues>
 VAL166  LYS551  ARG553  GLY616  TRP617  ASP618  TYR619  PRO620  LYS621  CYS622 
 ASP623  PHE694  ASN695  SER759  ASP760  ASP761  ALA762  ILE779  LEU786  VAL792 
 PHE793  MET794  SER795  GLU796  ALA797  LYS798  CYS799  TRP800  GLU811  SER814 

> <Gold.Protein.RotatedAtoms>
  152.5432  134.2030  159.8719 H   0  0  0  0  0  0  0  0  0  0  0  0  # atno 6907 bound_to 6896
  151.2018  133.4599  159.2604 H   0  0  0  0  0  0  0  0  0  0  0  0  # atno 6908 bound_to 6896
  151.0982  134.9969  159.8491 H   0  0  0  0  0  0  0  0  0  0  0  0  # atno 6909 bound_to 6896
  144.7608  139.8126  143.6333 H   0  0  0  0  0  0  0  0  0  0  0  0  # atno 7974 bound_to 7965
  156.2186  140.1810  156.7531 H   0  0  0  0  0  0  0  0  0  0  0  0  # atno 8008 bound_to 7997
  154.5830  140.0663  156.9159 H   0  0  0  0  0  0  0  0  0  0  0  0  # atno 8009 bound_to 7997
  155.2469  140.3326  155.4288 H   0  0  0  0  0  0  0  0  0  0  0  0  # atno 8010 bound_to 7997
  140.7055  143.5984  150.8822 H   0  0  0  0  0  0  0  0  0  0  0  0  # atno 10167 bound_to 10162
  156.5337  130.8532  151.2725 H   0  0  0  0  0  0  0  0  0  0  0  0  # atno 10718 bound_to 10713
  153.8416  135.6857  153.4802 H   0  0  0  0  0  0  0  0  0  0  0  0  # atno 10763 bound_to 10752
  153.1450  135.4641  154.9551 H   0  0  0  0  0  0  0  0  0  0  0  0  # atno 10764 bound_to 10752
  154.7842  135.3279  154.7869 H   0  0  0  0  0  0  0  0  0  0  0  0  # atno 10765 bound_to 10752
  140.4498  134.6354  157.4796 H   0  0  0  0  0  0  0  0  0  0  0  0  # atno 11005 bound_to 11000
  146.1669  139.4804  142.9953 LP  0  0  0  0  0  0  0  0  0  0  0  0  # atno 17320 bound_to 7965
  145.6626  141.0237  143.1701 LP  0  0  0  0  0  0  0  0  0  0  0  0  # atno 17321 bound_to 7965
  139.9709  143.6058  152.2974 LP  0  0  0  0  0  0  0  0  0  0  0  0  # atno 17342 bound_to 10162
  139.6644  144.7662  151.1901 LP  0  0  0  0  0  0  0  0  0  0  0  0  # atno 17343 bound_to 10162
  157.7417  130.9876  150.2466 LP  0  0  0  0  0  0  0  0  0  0  0  0  # atno 17370 bound_to 10713
  156.3036  130.3762  149.7727 LP  0  0  0  0  0  0  0  0  0  0  0  0  # atno 17371 bound_to 10713
  140.0014  134.6830  155.9524 LP  0  0  0  0  0  0  0  0  0  0  0  0  # atno 17394 bound_to 11000
  141.1669  133.6537  156.4512 LP  0  0  0  0  0  0  0  0  0  0  0  0  # atno 17395 bound_to 11000

$$$$
