AV-unprocessed.smi:1978|AV-procd|sdf|8015|dock10
  -GOLD-   2272010203D 1   1.00000     0.00000
 Structure written by MMmdl.
 44 45  0  0  0  0  0  0  0  0  3 V2000
  153.2460  139.0007  154.8893 C   0  0  0  0  0  0  0  0  0  0  0  0
  151.8114  138.6053  154.8125 C   0  0  0  0  0  0  0  0  0  0  0  0
  151.1578  137.4279  155.0430 C   0  0  0  0  0  0  0  0  0  0  0  0
  149.8019  137.7557  154.7764 C   0  0  0  0  0  0  0  0  0  0  0  0
  148.7835  136.7738  154.8980 N   0  0  0  0  0  0  0  0  0  0  0  0
  148.9092  135.4484  155.0925 C   0  0  0  0  0  0  0  0  0  0  0  0
  150.0301  134.9305  155.1591 O   0  0  0  0  0  0  0  0  0  0  0  0
  147.7020  134.8286  155.1982 N   0  5  0  0  0  0  0  0  0  0  0  0
  146.6849  134.7856  154.1471 C   0  0  0  0  0  0  0  0  0  0  0  0
  147.1492  133.8677  152.9875 C   0  0  1  0  0  0  0  0  0  0  0  0
  148.1590  132.7725  153.4252 C   0  0  0  0  0  0  0  0  0  0  0  0
  145.9531  133.3243  152.2682 N   0  3  2  0  0  0  0  0  0  0  0  0
  146.2184  132.3583  151.1609 C   0  0  0  0  0  0  0  0  0  0  0  0
  144.9278  131.6411  150.7351 C   0  0  0  0  0  0  0  0  0  0  0  0
  143.8408  132.6483  150.3418 C   0  0  0  0  0  0  0  0  0  0  0  0
  143.6059  133.6417  151.4889 C   0  0  0  0  0  0  0  0  0  0  0  0
  144.9089  134.3401  151.9311 C   0  0  2  0  0  0  0  0  0  0  0  0
  145.3841  135.3961  150.9113 C   0  0  0  0  0  0  0  0  0  0  0  0
  149.6427  139.0218  154.4195 N   0  0  0  0  0  0  0  0  0  0  0  0
  150.9295  139.5724  154.4412 O   0  0  0  0  0  0  0  0  0  0  0  0
  153.8780  138.1368  155.0966 H   0  0  0  0  0  0  0  0  0  0  0  0
  153.4031  139.7326  155.6817 H   0  0  0  0  0  0  0  0  0  0  0  0
  153.5758  139.4421  153.9486 H   0  0  0  0  0  0  0  0  0  0  0  0
  151.5831  136.4837  155.3488 H   0  0  0  0  0  0  0  0  0  0  0  0
  147.8371  137.1206  154.8513 H   0  0  0  0  0  0  0  0  0  0  0  0
  145.7273  134.4278  154.5261 H   0  0  0  0  0  0  0  0  0  0  0  0
  146.4801  135.7751  153.7350 H   0  0  0  0  0  0  0  0  0  0  0  0
  147.6761  134.5171  152.2863 H   0  0  0  0  0  0  0  0  0  0  0  0
  149.0835  133.2060  153.8115 H   0  0  0  0  0  0  0  0  0  0  0  0
  148.4469  132.1410  152.5855 H   0  0  0  0  0  0  0  0  0  0  0  0
  147.7640  132.1163  154.2026 H   0  0  0  0  0  0  0  0  0  0  0  0
  146.6590  132.8681  150.3040 H   0  0  0  0  0  0  0  0  0  0  0  0
  146.9405  131.6089  151.4865 H   0  0  0  0  0  0  0  0  0  0  0  0
  145.1323  130.9687  149.9014 H   0  0  0  0  0  0  0  0  0  0  0  0
  144.5694  131.0170  151.5549 H   0  0  0  0  0  0  0  0  0  0  0  0
  144.1363  133.1809  149.4374 H   0  0  0  0  0  0  0  0  0  0  0  0
  142.9140  132.1252  150.1040 H   0  0  0  0  0  0  0  0  0  0  0  0
  142.8588  134.3810  151.1983 H   0  0  0  0  0  0  0  0  0  0  0  0
  143.1829  133.1053  152.3394 H   0  0  0  0  0  0  0  0  0  0  0  0
  144.6705  134.8737  152.8526 H   0  0  0  0  0  0  0  0  0  0  0  0
  144.5865  136.1070  150.6945 H   0  0  0  0  0  0  0  0  0  0  0  0
  145.6889  134.9516  149.9645 H   0  0  0  0  0  0  0  0  0  0  0  0
  146.2244  135.9743  151.2939 H   0  0  0  0  0  0  0  0  0  0  0  0
  145.5065  132.7635  152.9802 H   0  0  0  0  0  0  0  0  0  0  0  0
  1  2  1  0  0  0  0
  1 21  1  0  0  0  0
  1 22  1  0  0  0  0
  1 23  1  0  0  0  0
  2 20  1  0  0  0  0
  2  3  2  0  0  0  0
  3  4  1  0  0  0  0
  3 24  1  0  0  0  0
  4  5  1  0  0  0  0
  4 19  2  0  0  0  0
  5  6  1  0  0  0  0
  5 25  1  0  0  0  0
  6  7  2  0  0  0  0
  6  8  1  0  0  0  0
  8  9  1  0  0  0  0
  9 10  1  0  0  0  0
  9 26  1  0  0  0  0
  9 27  1  0  0  0  0
 10 11  1  0  0  0  0
 10 12  1  0  0  0  0
 10 28  1  0  0  0  0
 11 29  1  0  0  0  0
 11 30  1  0  0  0  0
 11 31  1  0  0  0  0
 12 17  1  0  0  0  0
 12 13  1  0  0  0  0
 12 44  1  0  0  0  0
 13 14  1  0  0  0  0
 13 32  1  0  0  0  0
 13 33  1  0  0  0  0
 14 15  1  0  0  0  0
 14 34  1  0  0  0  0
 14 35  1  0  0  0  0
 15 16  1  0  0  0  0
 15 36  1  0  0  0  0
 15 37  1  0  0  0  0
 16 17  1  0  0  0  0
 16 38  1  0  0  0  0
 16 39  1  0  0  0  0
 17 18  1  0  0  0  0
 17 40  1  0  0  0  0
 18 41  1  0  0  0  0
 18 42  1  0  0  0  0
 18 43  1  0  0  0  0
 19 20  1  0  0  0  0
M  CHG  1   8  -1
M  CHG  1  12   1
M  END
> <s_m_source_file>
AV-unprocessed.smi

> <i_m_source_file_index>
1978

> <i_lp_mmshare_version>
43012

> <i_f3d_flags>
0

> <s_epik_input>
W0NIM11jMVtjSF1jKG5vMSlbTkhdQyg9TylbTkhdW0NIMl1bQ0BIXShbQ0gzXSlOMltDSDJdW0NIMl1bQ0gyXVtDSDJdW0NASF0yW0NIM10=

> <s_epik_cmdline>
J2VwaWtfcHl0aG9uJywgJy1waCcsICc3LjAnLCAnLXRuJywgJzgnLCAnLW1hJywgJzIwMCcsICctbWV0YWxfYmluZGluZycsICctaW1hZScsICc8aW5maWxlLm1hZT4nLCAnLW9tYWUnLCAnPG91dGZpbGUubWFlPic=

> <r_epik_Ionization_Penalty>
6.7666

> <r_epik_Ionization_Penalty_Charging>
6.7666

> <r_epik_Ionization_Penalty_Neutral>
5.77131e-06

> <r_epik_State_Penalty>
6.79217

> <r_epik_Charging_Adjusted_Penalty>
13.5588

> <i_epik_Tot_Q>
0

> <i_epik_Tot_abs_Q>
2

> <r_epik_Metal_State_Penalty>
2.72569

> <b_epik_Metal_Only>
1

> <s_lp_Force_Field>
OPLS_2005

> <r_lp_Energy>
20.871

> <b_lp_Chiralities_Consistent>
1

> <s_lp_Variant>
AV-unprocessed.smi:1978-24

> <Gold.Version>
5.8.1

> <Gold.Id.Protein>
6NUR|6NUR_protein|mol2

> <Gold.PLP.Fitness>
35.2465

> <Gold.PLP.PLP>
-34.5047

> <Gold.PLP.part.hbond>
-2.0000

> <Gold.PLP.part.metal>
0.0000

> <Gold.PLP.part.buried>
-2.5127

> <Gold.PLP.part.nonpolar>
-29.8783

> <Gold.PLP.part.repulsive>
0.5099

> <Gold.PLP.ligand.clash>
0.2643

> <Gold.PLP.ligand.torsion>
1.1136

> <Gold.PLP.Chemscore.Hbond>
1.0000

> <Gold.PLP.Chemscore.CHOScore>
0.0000

> <Gold.PLP.Chemscore.Metal>
0.0000

> <Gold.Chemscore.Hbonds>
donor molecule, donor type, donor heavy atom, donor atom, acceptor molecule, acceptor atom, score
      P1  H  7989  7998       L1    20  1.00

> <Gold.PLP.Chemscore.Internal.Correction>
0.2333

> <Gold.Rescore>
     Score         DG    S(hbond)    S(metal)    S(lipo)     H(rot)  DE(clash)    DE(int)     intcor
     11.87     -14.56       0.97        0.00      83.26       1.52       0.17       2.53       ----

> <Gold.Chemscore.Fitness>
11.8667

> <Gold.Chemscore.DG>
-14.5614

> <Gold.Chemscore.ZeroCoef>
-5.4800

> <Gold.Chemscore.Hbond>
0.9666

> <Gold.Chemscore.Metal>
0.0000

> <Gold.Chemscore.Lipo>
83.2607

> <Gold.Chemscore.Internal_Hbond>
0.0000

> <Gold.Chemscore.DEClash>
0.1696

> <Gold.Chemscore.DEInternal>
2.5251

> <Gold.Chemscore.Rot>
1.5190

> <Gold.Chemscore.Internal.Correction>
   9.000000E+99

> <Gold.Chemscore.Hbonds>
donor molecule, donor type, donor heavy atom, donor atom, acceptor molecule, acceptor atom, score
      P1  H  7989  7998       L1    20  0.88

> <Gold.Chemscore.Hbond.Weighted>
-3.2285

> <Gold.Chemscore.Metal.Weighted>
-0.0000

> <Gold.Chemscore.Lipo.Weighted>
-9.7415

> <Gold.Chemscore.Internal_Hbond.Weighted>
0.0000

> <Gold.Chemscore.DEClash.Weighted>
0.1696

> <Gold.Chemscore.DEInternal.Weighted>
2.5251

> <Gold.Chemscore.Rot.Weighted>
3.8886

> <Gold.Chemscore.Internal.Correction.Weighted>
   9.000000E+99

> <Gold.Protein.RotatedTorsions>
[ 6907 6896 6895 6894 ] final   -9.44 input  -60.11 | X-H torsion
[ 7974 7965 7964 7962 ] final   50.03 input  175.53 | X-H torsion
[ 8008 7997 7996 7995 ] final   97.94 input   59.86 | X-H torsion
[ 10167 10162 10161 10158 ] final  -82.27 input  -65.29 | X-H torsion
[ 10718 10713 10712 10709 ] final -152.09 input   66.30 | X-H torsion
[ 10763 10752 10751 10750 ] final  177.90 input  -60.55 | X-H torsion
[ 11005 11000 10999 10996 ] final   38.58 input  -57.11 | X-H torsion

> <Gold.Protein.ActiveResidues>
 VAL166  LYS551  ARG553  GLY616  TRP617  ASP618  TYR619  PRO620  LYS621  CYS622 
 ASP623  PHE694  ASN695  SER759  ASP760  ASP761  ALA762  ILE779  LEU786  VAL792 
 PHE793  MET794  SER795  GLU796  ALA797  LYS798  CYS799  TRP800  GLU811  SER814 

> <Gold.Protein.RotatedAtoms>
  151.4177  135.0993  159.9604 H   0  0  0  0  0  0  0  0  0  0  0  0  # atno 6907 bound_to 6896
  152.4999  133.8737  159.7322 H   0  0  0  0  0  0  0  0  0  0  0  0  # atno 6908 bound_to 6896
  150.9246  133.6782  159.2852 H   0  0  0  0  0  0  0  0  0  0  0  0  # atno 6909 bound_to 6896
  146.0051  139.4482  142.9991 H   0  0  0  0  0  0  0  0  0  0  0  0  # atno 7974 bound_to 7965
  156.0954  140.3251  155.7870 H   0  0  0  0  0  0  0  0  0  0  0  0  # atno 8008 bound_to 7997
  155.4927  140.0563  157.2968 H   0  0  0  0  0  0  0  0  0  0  0  0  # atno 8009 bound_to 7997
  154.4663  140.1990  156.0126 H   0  0  0  0  0  0  0  0  0  0  0  0  # atno 8010 bound_to 7997
  140.4335  143.2540  151.8726 H   0  0  0  0  0  0  0  0  0  0  0  0  # atno 10167 bound_to 10162
  156.4679  130.8244  151.2474 H   0  0  0  0  0  0  0  0  0  0  0  0  # atno 10718 bound_to 10713
  154.5006  135.2783  155.1423 H   0  0  0  0  0  0  0  0  0  0  0  0  # atno 10763 bound_to 10752
  154.3058  135.6239  153.5448 H   0  0  0  0  0  0  0  0  0  0  0  0  # atno 10764 bound_to 10752
  152.9902  135.5708  154.5448 H   0  0  0  0  0  0  0  0  0  0  0  0  # atno 10765 bound_to 10752
  140.2112  134.3753  155.8048 H   0  0  0  0  0  0  0  0  0  0  0  0  # atno 11005 bound_to 11000
  145.7428  141.0002  143.1292 LP  0  0  0  0  0  0  0  0  0  0  0  0  # atno 17320 bound_to 7965
  144.6933  139.9119  143.7464 LP  0  0  0  0  0  0  0  0  0  0  0  0  # atno 17321 bound_to 7965
  139.4786  144.5308  151.8669 LP  0  0  0  0  0  0  0  0  0  0  0  0  # atno 17342 bound_to 10162
  140.4400  144.1999  150.5891 LP  0  0  0  0  0  0  0  0  0  0  0  0  # atno 17343 bound_to 10162
  157.7493  131.0086  150.3234 LP  0  0  0  0  0  0  0  0  0  0  0  0  # atno 17370 bound_to 10713
  156.3649  130.3853  149.7222 LP  0  0  0  0  0  0  0  0  0  0  0  0  # atno 17371 bound_to 10713
  141.2226  133.7144  156.8420 LP  0  0  0  0  0  0  0  0  0  0  0  0  # atno 17394 bound_to 11000
  140.1949  134.8939  157.3103 LP  0  0  0  0  0  0  0  0  0  0  0  0  # atno 17395 bound_to 11000

$$$$
