AV-unprocessed.smi:356|AV-procd|sdf|2415|dock9
  -GOLD-   2262022353D 1   1.00000     0.00000
 Structure written by MMmdl.
 43 45  0  0  0  0  0  0  0  0  3 V2000
  149.1852  141.3789  154.3291 C   0  0  0  0  0  0  0  0  0  0  0  0
  149.9941  141.3575  155.5823 C   0  0  0  0  0  0  0  0  0  0  0  0
  149.9646  142.2944  156.5712 N   0  3  0  0  0  0  0  0  0  0  0  0
  150.8537  141.9381  157.5859 C   0  0  0  0  0  0  0  0  0  0  0  0
  151.1685  142.5725  158.7838 C   0  0  0  0  0  0  0  0  0  0  0  0
  152.1293  141.9416  159.6007 C   0  0  0  0  0  0  0  0  0  0  0  0
  152.7354  140.7279  159.2167 C   0  0  0  0  0  0  0  0  0  0  0  0
  152.4065  140.0928  158.0009 C   0  0  0  0  0  0  0  0  0  0  0  0
  151.4561  140.7234  157.1972 C   0  0  0  0  0  0  0  0  0  0  0  0
  150.8961  140.4040  155.9530 N   0  0  0  0  0  0  0  0  0  0  0  0
  151.3143  139.1795  155.2509 C   0  0  0  0  0  0  0  0  0  0  0  0
  150.1337  138.2395  154.9343 C   0  0  1  0  0  0  0  0  0  0  0  0
  149.6594  138.4969  153.6266 O   0  0  0  0  0  0  0  0  0  0  0  0
  150.5389  136.7551  155.0316 C   0  0  0  0  0  0  0  0  0  0  0  0
  149.4263  135.8355  154.6798 N   0  3  0  0  0  0  0  0  0  0  0  0
  149.8168  134.4087  154.7737 C   0  0  0  0  0  0  0  0  0  0  0  0
  148.6535  133.5027  154.3357 C   0  0  0  0  0  0  0  0  0  0  0  0
  147.5086  133.7772  155.1333 O   0  0  0  0  0  0  0  0  0  0  0  0
  147.0693  135.1220  154.9889 C   0  0  0  0  0  0  0  0  0  0  0  0
  148.1808  136.0813  155.4486 C   0  0  0  0  0  0  0  0  0  0  0  0
  148.5811  142.2850  154.2779 H   0  0  0  0  0  0  0  0  0  0  0  0
  148.5196  140.5162  154.2971 H   0  0  0  0  0  0  0  0  0  0  0  0
  149.8382  141.3488  153.4570 H   0  0  0  0  0  0  0  0  0  0  0  0
  150.7049  143.5024  159.0798 H   0  0  0  0  0  0  0  0  0  0  0  0
  152.4072  142.3981  160.5399 H   0  0  0  0  0  0  0  0  0  0  0  0
  153.4687  140.2749  159.8683 H   0  0  0  0  0  0  0  0  0  0  0  0
  152.8806  139.1647  157.7199 H   0  0  0  0  0  0  0  0  0  0  0  0
  151.8632  139.4481  154.3481 H   0  0  0  0  0  0  0  0  0  0  0  0
  152.0297  138.6694  155.8970 H   0  0  0  0  0  0  0  0  0  0  0  0
  149.3263  138.4552  155.6332 H   0  0  0  0  0  0  0  0  0  0  0  0
  149.5471  137.6733  153.1769 H   0  0  0  0  0  0  0  0  0  0  0  0
  151.3832  136.5831  154.3619 H   0  0  0  0  0  0  0  0  0  0  0  0
  150.8963  136.5192  156.0353 H   0  0  0  0  0  0  0  0  0  0  0  0
  150.6846  134.2185  154.1411 H   0  0  0  0  0  0  0  0  0  0  0  0
  150.1080  134.1757  155.7994 H   0  0  0  0  0  0  0  0  0  0  0  0
  148.4209  133.6487  153.2795 H   0  0  0  0  0  0  0  0  0  0  0  0
  148.9268  132.4547  154.4595 H   0  0  0  0  0  0  0  0  0  0  0  0
  146.7883  135.3173  153.9528 H   0  0  0  0  0  0  0  0  0  0  0  0
  146.1742  135.2669  155.5939 H   0  0  0  0  0  0  0  0  0  0  0  0
  148.3736  135.9422  156.5136 H   0  0  0  0  0  0  0  0  0  0  0  0
  147.8443  137.1089  155.3172 H   0  0  0  0  0  0  0  0  0  0  0  0
  149.2127  136.0057  153.7069 H   0  0  0  0  0  0  0  0  0  0  0  0
  149.3780  143.1189  156.5512 H   0  0  0  0  0  0  0  0  0  0  0  0
  1  2  1  0  0  0  0
  1 21  1  0  0  0  0
  1 22  1  0  0  0  0
  1 23  1  0  0  0  0
  2 10  1  0  0  0  0
  2  3  2  0  0  0  0
  3  4  1  0  0  0  0
  3 43  1  0  0  0  0
  4  9  2  0  0  0  0
  4  5  1  0  0  0  0
  5  6  2  0  0  0  0
  5 24  1  0  0  0  0
  6  7  1  0  0  0  0
  6 25  1  0  0  0  0
  7  8  2  0  0  0  0
  7 26  1  0  0  0  0
  8  9  1  0  0  0  0
  8 27  1  0  0  0  0
  9 10  1  0  0  0  0
 10 11  1  0  0  0  0
 11 12  1  0  0  0  0
 11 28  1  0  0  0  0
 11 29  1  0  0  0  0
 12 13  1  0  0  0  0
 12 14  1  0  0  0  0
 12 30  1  0  0  0  0
 13 31  1  0  0  0  0
 14 15  1  0  0  0  0
 14 32  1  0  0  0  0
 14 33  1  0  0  0  0
 15 20  1  0  0  0  0
 15 16  1  0  0  0  0
 15 42  1  0  0  0  0
 16 17  1  0  0  0  0
 16 34  1  0  0  0  0
 16 35  1  0  0  0  0
 17 18  1  0  0  0  0
 17 36  1  0  0  0  0
 17 37  1  0  0  0  0
 18 19  1  0  0  0  0
 19 20  1  0  0  0  0
 19 38  1  0  0  0  0
 19 39  1  0  0  0  0
 20 40  1  0  0  0  0
 20 41  1  0  0  0  0
M  CHG  1   3   1
M  CHG  1  15   1
M  END
> <s_m_source_file>
AV-unprocessed.smi

> <i_m_source_file_index>
356

> <i_lp_mmshare_version>
43012

> <i_f3d_flags>
0

> <s_epik_input>
W2NIXTFbY0hdW2NIXVtjSF1jKGMxMiluKGMobjIpW0NIM10pW0NIMl1bQ0BIXShbT0hdKVtDSDJdTjNbQ0gyXVtDSDJdT1tDSDJdW0NIMl0z

> <s_epik_cmdline>
J2VwaWtfcHl0aG9uJywgJy1waCcsICc3LjAnLCAnLXRuJywgJzgnLCAnLW1hJywgJzIwMCcsICctbWV0YWxfYmluZGluZycsICctaW1hZScsICc8aW5maWxlLm1hZT4nLCAnLW9tYWUnLCAnPG91dGZpbGUubWFlPic=

> <r_epik_Ionization_Penalty>
1.81899

> <r_epik_Ionization_Penalty_Charging>
1.81898

> <r_epik_Ionization_Penalty_Neutral>
1.42224e-05

> <r_epik_State_Penalty>
1.87399

> <r_epik_Charging_Adjusted_Penalty>
3.69296

> <i_epik_Tot_Q>
2

> <i_epik_Tot_abs_Q>
2

> <r_epik_Metal_State_Penalty>
5.87601

> <b_epik_Metal_Only>
0

> <s_lp_Force_Field>
OPLS_2005

> <r_lp_Energy>
27.965

> <b_lp_Chiralities_Consistent>
1

> <s_lp_Variant>
AV-unprocessed.smi:356-8

> <Gold.Version>
5.8.1

> <Gold.Id.Protein>
6NUR|6NUR_protein|mol2

> <Gold.PLP.Fitness>
51.5327

> <Gold.PLP.PLP>
-37.5326

> <Gold.PLP.part.hbond>
-4.0000

> <Gold.PLP.part.metal>
0.0000

> <Gold.PLP.part.buried>
-1.0235

> <Gold.PLP.part.nonpolar>
-31.1509

> <Gold.PLP.part.repulsive>
0.1510

> <Gold.PLP.ligand.clash>
0.0000

> <Gold.PLP.ligand.torsion>
0.4887

> <Gold.PLP.Chemscore.Hbond>
4.9840

> <Gold.PLP.Chemscore.CHOScore>
0.0000

> <Gold.PLP.Chemscore.Metal>
0.0000

> <Gold.Chemscore.Hbonds>
donor molecule, donor type, donor heavy atom, donor atom, acceptor molecule, acceptor atom, score
      L1  H     3    43       P1  8028  1.92
      L1  H    13    31       P1  7948  1.00
      L1  H    15    42       P1  7948  2.00

> <Gold.PLP.Chemscore.Internal.Correction>
0.0255

> <Gold.Rescore>
     Score         DG    S(hbond)    S(metal)    S(lipo)     H(rot)  DE(clash)    DE(int)     intcor
     18.77     -19.57       2.85        0.00      85.80       2.13       0.25       0.55       ----

> <Gold.Chemscore.Fitness>
18.7695

> <Gold.Chemscore.DG>
-19.5736

> <Gold.Chemscore.ZeroCoef>
-5.4800

> <Gold.Chemscore.Hbond>
2.8488

> <Gold.Chemscore.Metal>
0.0000

> <Gold.Chemscore.Lipo>
85.7953

> <Gold.Chemscore.Internal_Hbond>
0.0000

> <Gold.Chemscore.DEClash>
0.2503

> <Gold.Chemscore.DEInternal>
0.5538

> <Gold.Chemscore.Rot>
2.1327

> <Gold.Chemscore.Internal.Correction>
   9.000000E+99

> <Gold.Chemscore.Hbonds>
donor molecule, donor type, donor heavy atom, donor atom, acceptor molecule, acceptor atom, score
      L1  H     3    43       P1  8028  0.92
      L1  H    13    31       P1  7948  0.82
      L1  H    15    42       P1  7948  0.85

> <Gold.Chemscore.Hbond.Weighted>
-9.5151

> <Gold.Chemscore.Metal.Weighted>
-0.0000

> <Gold.Chemscore.Lipo.Weighted>
-10.0381

> <Gold.Chemscore.Internal_Hbond.Weighted>
0.0000

> <Gold.Chemscore.DEClash.Weighted>
0.2503

> <Gold.Chemscore.DEInternal.Weighted>
0.5538

> <Gold.Chemscore.Rot.Weighted>
5.4596

> <Gold.Chemscore.Internal.Correction.Weighted>
   9.000000E+99

> <Gold.Protein.RotatedTorsions>
[ 6907 6896 6895 6894 ] final -167.56 input  -60.11 | X-H torsion
[ 7974 7965 7964 7962 ] final  105.57 input  175.53 | X-H torsion
[ 8008 7997 7996 7995 ] final -148.28 input   59.86 | X-H torsion
[ 10167 10162 10161 10158 ] final -141.04 input  -65.29 | X-H torsion
[ 10718 10713 10712 10709 ] final  113.03 input   66.30 | X-H torsion
[ 10763 10752 10751 10750 ] final  -10.94 input  -60.55 | X-H torsion
[ 11005 11000 10999 10996 ] final  156.90 input  -57.11 | X-H torsion

> <Gold.Protein.ActiveResidues>
 VAL166  LYS551  ARG553  GLY616  TRP617  ASP618  TYR619  PRO620  LYS621  CYS622 
 ASP623  PHE694  ASN695  SER759  ASP760  ASP761  ALA762  ILE779  LEU786  VAL792 
 PHE793  MET794  SER795  GLU796  ALA797  LYS798  CYS799  TRP800  GLU811  SER814 

> <Gold.Protein.RotatedAtoms>
  151.4615  133.3591  159.2809 H   0  0  0  0  0  0  0  0  0  0  0  0  # atno 6907 bound_to 6896
  150.9022  134.8437  159.7379 H   0  0  0  0  0  0  0  0  0  0  0  0  # atno 6908 bound_to 6896
  152.4886  134.4536  159.9634 H   0  0  0  0  0  0  0  0  0  0  0  0  # atno 6909 bound_to 6896
  145.3179  139.2521  143.3728 H   0  0  0  0  0  0  0  0  0  0  0  0  # atno 7974 bound_to 7965
  155.5891  140.0651  157.2763 H   0  0  0  0  0  0  0  0  0  0  0  0  # atno 8008 bound_to 7997
  154.4310  140.1838  156.1103 H   0  0  0  0  0  0  0  0  0  0  0  0  # atno 8009 bound_to 7997
  156.0246  140.3313  155.7078 H   0  0  0  0  0  0  0  0  0  0  0  0  # atno 8010 bound_to 7997
  139.8223  143.7557  152.2666 H   0  0  0  0  0  0  0  0  0  0  0  0  # atno 10167 bound_to 10162
  157.6360  131.0977  150.6981 H   0  0  0  0  0  0  0  0  0  0  0  0  # atno 10718 bound_to 10713
  153.4766  135.7017  153.5962 H   0  0  0  0  0  0  0  0  0  0  0  0  # atno 10763 bound_to 10752
  153.4194  135.3829  155.2101 H   0  0  0  0  0  0  0  0  0  0  0  0  # atno 10764 bound_to 10752
  154.8723  135.3924  154.4210 H   0  0  0  0  0  0  0  0  0  0  0  0  # atno 10765 bound_to 10752
  140.1718  134.8537  157.2700 H   0  0  0  0  0  0  0  0  0  0  0  0  # atno 11005 bound_to 11000
  146.3093  140.3730  142.8676 LP  0  0  0  0  0  0  0  0  0  0  0  0  # atno 17320 bound_to 7965
  144.8963  140.7587  143.5895 LP  0  0  0  0  0  0  0  0  0  0  0  0  # atno 17321 bound_to 7965
  139.7739  144.7467  151.0184 LP  0  0  0  0  0  0  0  0  0  0  0  0  # atno 17342 bound_to 10162
  140.7812  143.4614  151.0272 LP  0  0  0  0  0  0  0  0  0  0  0  0  # atno 17343 bound_to 10162
  156.7313  130.4710  149.5499 LP  0  0  0  0  0  0  0  0  0  0  0  0  # atno 17370 bound_to 10713
  156.1600  130.6368  151.0707 LP  0  0  0  0  0  0  0  0  0  0  0  0  # atno 17371 bound_to 10713
  140.2368  134.3843  155.7498 LP  0  0  0  0  0  0  0  0  0  0  0  0  # atno 17394 bound_to 11000
  141.2218  133.7244  156.8727 LP  0  0  0  0  0  0  0  0  0  0  0  0  # atno 17395 bound_to 11000

$$$$
