AV-unprocessed.smi:53|AV-procd|sdf|517|dock3
  -GOLD-   2262016393D 1   1.00000     0.00000
 Structure written by MMmdl.
 30 31  0  0  0  0  0  0  0  0  1 V2000
  146.7752  133.1427  156.5967 N   0  0  0  0  0  0  0  0  0  0  0  0
  147.5346  134.2435  156.5095 C   0  0  0  0  0  0  0  0  0  0  0  0
  147.4225  135.1185  155.3645 C   0  0  0  0  0  0  0  0  0  0  0  0
  148.2203  136.2087  155.3502 C   0  0  0  0  0  0  0  0  0  0  0  0
  149.1048  136.4918  156.3814 N   0  0  0  0  0  0  0  0  0  0  0  0
  149.9908  137.7191  156.3302 C   0  0  2  0  0  0  0  0  0  0  0  0
  149.1784  138.8507  156.2335 O   0  0  0  0  0  0  0  0  0  0  0  0
  149.7592  139.7689  155.3163 C   0  0  2  0  0  0  0  0  0  0  0  0
  148.7203  140.7879  154.8155 C   0  0  0  0  0  0  0  0  0  0  0  0
  148.9983  141.1539  153.4807 O   0  0  0  0  0  0  0  0  0  0  0  0
  150.4212  138.8683  154.2636 C   0  0  2  0  0  0  0  0  0  0  0  0
  149.4806  138.4356  153.2944 O   0  0  0  0  0  0  0  0  0  0  0  0
  150.9510  137.7197  155.1186 C   0  0  2  0  0  0  0  0  0  0  0  0
  151.0557  136.4945  154.4117 O   0  0  0  0  0  0  0  0  0  0  0  0
  149.2025  135.6079  157.4834 C   0  0  0  0  0  0  0  0  0  0  0  0
  149.9968  135.8001  158.4033 O   0  0  0  0  0  0  0  0  0  0  0  0
  148.3846  134.5100  157.4824 N   0  0  0  0  0  0  0  0  0  0  0  0
  150.5167  137.7725  157.2849 H   0  0  0  0  0  0  0  0  0  0  0  0
  150.5419  140.3006  155.8612 H   0  0  0  0  0  0  0  0  0  0  0  0
  151.2266  139.3868  153.7425 H   0  0  0  0  0  0  0  0  0  0  0  0
  151.9400  137.9840  155.4953 H   0  0  0  0  0  0  0  0  0  0  0  0
  146.8570  132.5317  157.3963 H   0  0  0  0  0  0  0  0  0  0  0  0
  146.1186  132.9270  155.8602 H   0  0  0  0  0  0  0  0  0  0  0  0
  146.7445  134.9393  154.5424 H   0  0  0  0  0  0  0  0  0  0  0  0
  148.1536  136.8708  154.4997 H   0  0  0  0  0  0  0  0  0  0  0  0
  147.7042  140.4004  154.8899 H   0  0  0  0  0  0  0  0  0  0  0  0
  148.7596  141.6880  155.4292 H   0  0  0  0  0  0  0  0  0  0  0  0
  148.8027  140.4182  152.9205 H   0  0  0  0  0  0  0  0  0  0  0  0
  149.3455  139.1371  152.6761 H   0  0  0  0  0  0  0  0  0  0  0  0
  150.5887  136.5809  153.5943 H   0  0  0  0  0  0  0  0  0  0  0  0
  1  2  1  0  0  0  0
  1 22  1  0  0  0  0
  1 23  1  0  0  0  0
  2 17  2  0  0  0  0
  2  3  1  0  0  0  0
  3  4  2  0  0  0  0
  3 24  1  0  0  0  0
  4  5  1  0  0  0  0
  4 25  1  0  0  0  0
  5  6  1  0  0  0  0
  5 15  1  0  0  0  0
  6 18  1  0  0  0  0
  6 13  1  0  0  0  0
  6  7  1  0  0  0  0
  7  8  1  0  0  0  0
  8 19  1  0  0  0  0
  8  9  1  0  0  0  0
  8 11  1  0  0  0  0
  9 10  1  0  0  0  0
  9 26  1  0  0  0  0
  9 27  1  0  0  0  0
 10 28  1  0  0  0  0
 11 20  1  0  0  0  0
 11 12  1  0  0  0  0
 11 13  1  0  0  0  0
 12 29  1  0  0  0  0
 13 21  1  0  0  0  0
 13 14  1  0  0  0  0
 14 30  1  0  0  0  0
 15 16  2  0  0  0  0
 15 17  1  0  0  0  0
M  END
> <s_m_source_file>
AV-unprocessed.smi

> <i_m_source_file_index>
53

> <i_lp_mmshare_version>
43012

> <i_f3d_flags>
0

> <s_epik_input>
W05IMl1jMVtjSF1bY0hdbihjKD1PKW4xKVtDQEBIXTJPW0NASF0oW0NIMl1bT0hdKVtDQEBIXShbT0hdKVtDQEBIXTJbT0hd

> <s_epik_cmdline>
J2VwaWtfcHl0aG9uJywgJy1waCcsICc3LjAnLCAnLXRuJywgJzgnLCAnLW1hJywgJzIwMCcsICctbWV0YWxfYmluZGluZycsICctaW1hZScsICc8aW5maWxlLm1hZT4nLCAnLW9tYWUnLCAnPG91dGZpbGUubWFlPic=

> <r_lp_tautomer_probability>
0.99996

> <r_epik_Ionization_Penalty>
0.00069087

> <r_epik_Ionization_Penalty_Charging>
2.61959e-08

> <r_epik_Ionization_Penalty_Neutral>
0.000690844

> <r_epik_State_Penalty>
1.15523e-05

> <r_epik_Charging_Adjusted_Penalty>
1.15785e-05

> <i_epik_Tot_Q>
0

> <i_epik_Tot_abs_Q>
0

> <r_epik_Metal_State_Penalty>
-0

> <b_epik_Metal_Only>
0

> <s_epik_Chemistry_Notes>
This compound contains an acetal/aminal-like group ( X-CH(R)-Y where X, Y are N, S, or O) that may be acid/base labile, releasing an aldehyde.

> <s_lp_Force_Field>
OPLS_2005

> <r_lp_Energy>
39.6979

> <b_lp_Chiralities_Consistent>
1

> <s_lp_Variant>
AV-unprocessed.smi:53-5

> <Gold.Version>
5.8.1

> <Gold.Id.Protein>
6NUR|6NUR_protein|mol2

> <Gold.PLP.Fitness>
37.6063

> <Gold.PLP.PLP>
-20.1996

> <Gold.PLP.part.hbond>
-7.8544

> <Gold.PLP.part.metal>
0.0000

> <Gold.PLP.part.buried>
-1.4154

> <Gold.PLP.part.nonpolar>
-9.5455

> <Gold.PLP.part.repulsive>
0.0000

> <Gold.PLP.ligand.clash>
0.0000

> <Gold.PLP.ligand.torsion>
0.4329

> <Gold.PLP.Chemscore.Hbond>
5.2322

> <Gold.PLP.Chemscore.CHOScore>
0.8520

> <Gold.PLP.Chemscore.Metal>
0.0000

> <Gold.Chemscore.Hbonds>
donor molecule, donor type, donor heavy atom, donor atom, acceptor molecule, acceptor atom, score
      L1  H    10    28       P1  7957  0.53
      L1  H    12    29       P1  7957  1.00
      L1  H    14    30       P1  7949  0.14
      P1  H  6896  6909       L1    16  0.99
      P1  H  8011  8017       L1    10  1.00
      P1  H 10752 10765       L1    14  0.71
      L1  C     4    25       P1  7948  0.24

> <Gold.PLP.Chemscore.Internal.Correction>
0.0200

> <Gold.Rescore>
     Score         DG    S(hbond)    S(metal)    S(lipo)     H(rot)  DE(clash)    DE(int)     intcor
     12.52     -13.80       4.19        0.00      32.67       3.71       0.00       1.28       ----

> <Gold.Chemscore.Fitness>
12.5180

> <Gold.Chemscore.DG>
-13.7958

> <Gold.Chemscore.ZeroCoef>
-5.4800

> <Gold.Chemscore.Hbond>
4.1885

> <Gold.Chemscore.Metal>
0.0000

> <Gold.Chemscore.Lipo>
32.6711

> <Gold.Chemscore.Internal_Hbond>
0.0000

> <Gold.Chemscore.DEClash>
0.0024

> <Gold.Chemscore.DEInternal>
1.2754

> <Gold.Chemscore.Rot>
3.7095

> <Gold.Chemscore.Internal.Correction>
   9.000000E+99

> <Gold.Chemscore.Hbonds>
donor molecule, donor type, donor heavy atom, donor atom, acceptor molecule, acceptor atom, score
      L1  H    10    28       P1  7957  0.51
      L1  H    12    29       P1  7957  0.97
      L1  H    14    30       P1  7949  0.01
      P1  H  6896  6909       L1    16  0.93
      P1  H  8011  8017       L1    10  0.42
      P1  H 10752 10765       L1    14  0.48

> <Gold.Chemscore.Hbond.Weighted>
-13.9897

> <Gold.Chemscore.Metal.Weighted>
-0.0000

> <Gold.Chemscore.Lipo.Weighted>
-3.8225

> <Gold.Chemscore.Internal_Hbond.Weighted>
0.0000

> <Gold.Chemscore.DEClash.Weighted>
0.0024

> <Gold.Chemscore.DEInternal.Weighted>
1.2754

> <Gold.Chemscore.Rot.Weighted>
9.4964

> <Gold.Chemscore.Internal.Correction.Weighted>
   9.000000E+99

> <Gold.Protein.RotatedTorsions>
[ 6907 6896 6895 6894 ] final   50.74 input  -60.11 | X-H torsion
[ 7974 7965 7964 7962 ] final    2.70 input  175.53 | X-H torsion
[ 8008 7997 7996 7995 ] final -100.03 input   59.86 | X-H torsion
[ 10167 10162 10161 10158 ] final  -63.61 input  -65.29 | X-H torsion
[ 10718 10713 10712 10709 ] final   -7.10 input   66.30 | X-H torsion
[ 10763 10752 10751 10750 ] final  145.75 input  -60.55 | X-H torsion
[ 11005 11000 10999 10996 ] final    4.94 input  -57.11 | X-H torsion

> <Gold.Protein.ActiveResidues>
 VAL166  LYS551  ARG553  GLY616  TRP617  ASP618  TYR619  PRO620  LYS621  CYS622 
 ASP623  PHE694  ASN695  SER759  ASP760  ASP761  ALA762  ILE779  LEU786  VAL792 
 PHE793  MET794  SER795  GLU796  ALA797  LYS798  CYS799  TRP800  GLU811  SER814 

> <Gold.Protein.RotatedAtoms>
  152.3051  134.7565  160.0348 H   0  0  0  0  0  0  0  0  0  0  0  0  # atno 6907 bound_to 6896
  151.8065  133.3371  159.3550 H   0  0  0  0  0  0  0  0  0  0  0  0  # atno 6908 bound_to 6896
  150.7292  134.5634  159.5898 H   0  0  0  0  0  0  0  0  0  0  0  0  # atno 6909 bound_to 6896
  146.2444  140.0797  142.8358 H   0  0  0  0  0  0  0  0  0  0  0  0  # atno 7974 bound_to 7965
  154.8230  140.0443  157.1424 H   0  0  0  0  0  0  0  0  0  0  0  0  # atno 8008 bound_to 7997
  154.9238  140.3030  155.5182 H   0  0  0  0  0  0  0  0  0  0  0  0  # atno 8009 bound_to 7997
  156.2981  140.2335  156.4291 H   0  0  0  0  0  0  0  0  0  0  0  0  # atno 8010 bound_to 7997
  140.5859  143.2334  151.6244 H   0  0  0  0  0  0  0  0  0  0  0  0  # atno 10167 bound_to 10162
  156.7222  130.5154  149.5865 H   0  0  0  0  0  0  0  0  0  0  0  0  # atno 10718 bound_to 10713
  154.0105  135.2915  155.3393 H   0  0  0  0  0  0  0  0  0  0  0  0  # atno 10763 bound_to 10752
  154.7106  135.5151  153.8663 H   0  0  0  0  0  0  0  0  0  0  0  0  # atno 10764 bound_to 10752
  153.0725  135.6652  154.0337 H   0  0  0  0  0  0  0  0  0  0  0  0  # atno 10765 bound_to 10752
  140.5763  134.0055  155.8029 H   0  0  0  0  0  0  0  0  0  0  0  0  # atno 11005 bound_to 11000
  145.0744  140.9178  143.4863 LP  0  0  0  0  0  0  0  0  0  0  0  0  # atno 17320 bound_to 7965
  145.0937  139.2872  143.5722 LP  0  0  0  0  0  0  0  0  0  0  0  0  # atno 17321 bound_to 7965
  139.5197  144.3245  152.0881 LP  0  0  0  0  0  0  0  0  0  0  0  0  # atno 17342 bound_to 10162
  140.2402  144.4278  150.6263 LP  0  0  0  0  0  0  0  0  0  0  0  0  # atno 17343 bound_to 10162
  156.1586  130.6359  151.0690 LP  0  0  0  0  0  0  0  0  0  0  0  0  # atno 17370 bound_to 10713
  157.6893  131.0815  150.7153 LP  0  0  0  0  0  0  0  0  0  0  0  0  # atno 17371 bound_to 10713
  141.1024  133.9746  157.3055 LP  0  0  0  0  0  0  0  0  0  0  0  0  # atno 17394 bound_to 11000
  139.9338  135.0198  156.8489 LP  0  0  0  0  0  0  0  0  0  0  0  0  # atno 17395 bound_to 11000

$$$$
