AV-unprocessed.smi:3029|AV-procd|sdf|11527|dock1
  -GOLD-   2272016473D 1   1.00000     0.00000
 Structure written by MMmdl.
 42 43  0  0  0  0  0  0  0  0  4 V2000
  150.3858  144.8390  159.6777 O   0  0  0  0  0  0  0  0  0  0  0  0
  151.2358  143.9593  159.8143 C   0  0  0  0  0  0  0  0  0  0  0  0
  152.1074  143.8922  160.9917 C   0  0  0  0  0  0  0  0  0  0  0  0
  153.0230  142.9146  161.1402 C   0  0  0  0  0  0  0  0  0  0  0  0
  153.1723  141.8868  160.1281 C   0  0  0  0  0  0  0  0  0  0  0  0
  154.1413  140.8242  160.2837 N   0  3  0  0  0  0  0  0  0  0  0  0
  154.7846  140.7541  161.3267 O   0  0  0  0  0  0  0  0  0  0  0  0
  154.2900  140.0244  159.3657 O   0  5  0  0  0  0  0  0  0  0  0  0
  152.3749  141.9550  159.0438 C   0  0  0  0  0  0  0  0  0  0  0  0
  151.4238  142.9803  158.8785 N   0  0  0  0  0  0  0  0  0  0  0  0
  150.6126  142.9484  157.6540 C   0  0  0  0  0  0  0  0  0  0  0  0
  149.3518  142.0884  157.8366 C   0  0  0  0  0  0  0  0  0  0  0  0
  148.2804  142.5279  156.9191 N   0  3  0  0  0  0  0  0  0  0  0  0
  147.5120  141.4409  156.2655 C   0  0  2  0  0  0  0  0  0  0  0  0
  148.4226  140.5567  155.3839 C   0  0  0  0  0  0  0  0  0  0  0  0
  148.9374  141.3113  154.1460 C   0  0  0  0  0  0  0  0  0  0  0  0
  147.7759  141.8864  153.3224 C   0  0  0  0  0  0  0  0  0  0  0  0
  146.8550  142.7663  154.1832 C   0  0  0  0  0  0  0  0  0  0  0  0
  146.3361  142.0038  155.4228 C   0  0  2  0  0  0  0  0  0  0  0  0
  145.3151  142.8254  156.2430 C   0  0  0  0  0  0  0  0  0  0  0  0
  144.7093  142.0751  157.1637 F   0  0  0  0  0  0  0  0  0  0  0  0
  145.9375  143.8305  156.8580 F   0  0  0  0  0  0  0  0  0  0  0  0
  144.3916  143.3425  155.4331 F   0  0  0  0  0  0  0  0  0  0  0  0
  152.0122  144.6472  161.7583 H   0  0  0  0  0  0  0  0  0  0  0  0
  153.6434  142.9078  162.0243 H   0  0  0  0  0  0  0  0  0  0  0  0
  152.4042  141.2357  158.2378 H   0  0  0  0  0  0  0  0  0  0  0  0
  150.3366  143.9616  157.3548 H   0  0  0  0  0  0  0  0  0  0  0  0
  151.2036  142.5607  156.8225 H   0  0  0  0  0  0  0  0  0  0  0  0
  149.5931  141.0417  157.6529 H   0  0  0  0  0  0  0  0  0  0  0  0
  148.9925  142.1615  158.8639 H   0  0  0  0  0  0  0  0  0  0  0  0
  147.6286  143.0743  157.4647 H   0  0  0  0  0  0  0  0  0  0  0  0
  147.0891  140.8166  157.0539 H   0  0  0  0  0  0  0  0  0  0  0  0
  149.2612  140.1596  155.9551 H   0  0  0  0  0  0  0  0  0  0  0  0
  147.8564  139.6851  155.0527 H   0  0  0  0  0  0  0  0  0  0  0  0
  149.6045  142.1173  154.4536 H   0  0  0  0  0  0  0  0  0  0  0  0
  149.5334  140.6415  153.5254 H   0  0  0  0  0  0  0  0  0  0  0  0
  148.1650  142.4646  152.4837 H   0  0  0  0  0  0  0  0  0  0  0  0
  147.1975  141.0690  152.8900 H   0  0  0  0  0  0  0  0  0  0  0  0
  147.3904  143.6646  154.4923 H   0  0  0  0  0  0  0  0  0  0  0  0
  146.0163  143.1065  153.5751 H   0  0  0  0  0  0  0  0  0  0  0  0
  145.7872  141.1382  155.0475 H   0  0  0  0  0  0  0  0  0  0  0  0
  148.6741  143.1232  156.2043 H   0  0  0  0  0  0  0  0  0  0  0  0
  1  2  2  0  0  0  0
  2 10  1  0  0  0  0
  2  3  1  0  0  0  0
  3  4  2  0  0  0  0
  3 24  1  0  0  0  0
  4  5  1  0  0  0  0
  4 25  1  0  0  0  0
  5  6  1  0  0  0  0
  5  9  2  0  0  0  0
  6  7  2  0  0  0  0
  6  8  1  0  0  0  0
  9 10  1  0  0  0  0
  9 26  1  0  0  0  0
 10 11  1  0  0  0  0
 11 12  1  0  0  0  0
 11 27  1  0  0  0  0
 11 28  1  0  0  0  0
 12 13  1  0  0  0  0
 12 29  1  0  0  0  0
 12 30  1  0  0  0  0
 13 14  1  0  0  0  0
 13 31  1  0  0  0  0
 13 42  1  0  0  0  0
 14 19  1  0  0  0  0
 14 15  1  0  0  0  0
 14 32  1  0  0  0  0
 15 16  1  0  0  0  0
 15 33  1  0  0  0  0
 15 34  1  0  0  0  0
 16 17  1  0  0  0  0
 16 35  1  0  0  0  0
 16 36  1  0  0  0  0
 17 18  1  0  0  0  0
 17 37  1  0  0  0  0
 17 38  1  0  0  0  0
 18 19  1  0  0  0  0
 18 39  1  0  0  0  0
 18 40  1  0  0  0  0
 19 20  1  0  0  0  0
 19 41  1  0  0  0  0
 20 21  1  0  0  0  0
 20 22  1  0  0  0  0
 20 23  1  0  0  0  0
M  CHG  1   6   1
M  CHG  1   8  -1
M  CHG  1  13   1
M  END
> <s_m_source_file>
AV-unprocessed.smi

> <i_m_source_file_index>
3029

> <i_lp_mmshare_version>
43012

> <i_f3d_flags>
0

> <s_epik_input>
Tz1jMVtjSF1bY0hdYyhbTitdKD1PKVtPLV0pW2NIXW4xW0NIMl1bQ0gyXVtOSF1bQ0BASF0yW0NIMl1bQ0gyXVtDSDJdW0NIMl1bQ0BIXTJDKEYpKEYpRg==

> <s_epik_cmdline>
J2VwaWtfcHl0aG9uJywgJy1waCcsICc3LjAnLCAnLXRuJywgJzgnLCAnLW1hJywgJzIwMCcsICctbWV0YWxfYmluZGluZycsICctaW1hZScsICc8aW5maWxlLm1hZT4nLCAnLW9tYWUnLCAnPG91dGZpbGUubWFlPic=

> <r_lp_tautomer_probability>
1

> <r_epik_Ionization_Penalty>
0.037386

> <r_epik_Ionization_Penalty_Charging>
0.037386

> <r_epik_Ionization_Penalty_Neutral>
0

> <r_epik_State_Penalty>
0.0312892

> <r_epik_Charging_Adjusted_Penalty>
0.0686752

> <i_epik_Tot_Q>
1

> <i_epik_Tot_abs_Q>
3

> <r_epik_Metal_State_Penalty>
0.0312892

> <b_epik_Metal_Only>
0

> <s_lp_Force_Field>
OPLS_2005

> <r_lp_Energy>
34.7992

> <b_lp_Chiralities_Consistent>
1

> <s_lp_Variant>
AV-unprocessed.smi:3029-3

> <Gold.Version>
5.8.1

> <Gold.Id.Protein>
6NUR|6NUR_protein|mol2

> <Gold.PLP.Fitness>
49.0243

> <Gold.PLP.PLP>
-41.6652

> <Gold.PLP.part.hbond>
-3.0000

> <Gold.PLP.part.metal>
0.0000

> <Gold.PLP.part.buried>
-4.6980

> <Gold.PLP.part.nonpolar>
-32.5152

> <Gold.PLP.part.repulsive>
0.1939

> <Gold.PLP.ligand.clash>
0.0000

> <Gold.PLP.ligand.torsion>
0.9330

> <Gold.PLP.Chemscore.Hbond>
2.9760

> <Gold.PLP.Chemscore.CHOScore>
0.0000

> <Gold.PLP.Chemscore.Metal>
0.0000

> <Gold.Chemscore.Hbonds>
donor molecule, donor type, donor heavy atom, donor atom, acceptor molecule, acceptor atom, score
      L1  H    13    42       P1  8028  1.82
      P1  H  7997  8008       L1     8  0.62

> <Gold.PLP.Chemscore.Internal.Correction>
0.2972

> <Gold.Rescore>
     Score         DG    S(hbond)    S(metal)    S(lipo)     H(rot)  DE(clash)    DE(int)     intcor
     14.13     -17.00       1.80        0.00      88.81       1.90       0.48       2.40       ----

> <Gold.Chemscore.Fitness>
14.1283

> <Gold.Chemscore.DG>
-17.0011

> <Gold.Chemscore.ZeroCoef>
-5.4800

> <Gold.Chemscore.Hbond>
1.7977

> <Gold.Chemscore.Metal>
0.0000

> <Gold.Chemscore.Lipo>
88.8064

> <Gold.Chemscore.Internal_Hbond>
0.0000

> <Gold.Chemscore.DEClash>
0.4777

> <Gold.Chemscore.DEInternal>
2.3950

> <Gold.Chemscore.Rot>
1.9037

> <Gold.Chemscore.Internal.Correction>
   9.000000E+99

> <Gold.Chemscore.Hbonds>
donor molecule, donor type, donor heavy atom, donor atom, acceptor molecule, acceptor atom, score
      L1  H    13    42       P1  8028  0.86
      P1  H  7997  8008       L1     8  0.59

> <Gold.Chemscore.Hbond.Weighted>
-6.0043

> <Gold.Chemscore.Metal.Weighted>
-0.0000

> <Gold.Chemscore.Lipo.Weighted>
-10.3904

> <Gold.Chemscore.Internal_Hbond.Weighted>
0.0000

> <Gold.Chemscore.DEClash.Weighted>
0.4777

> <Gold.Chemscore.DEInternal.Weighted>
2.3950

> <Gold.Chemscore.Rot.Weighted>
4.8736

> <Gold.Chemscore.Internal.Correction.Weighted>
   9.000000E+99

> <Gold.Protein.RotatedTorsions>
[ 6907 6896 6895 6894 ] final -111.42 input  -60.11 | X-H torsion
[ 7974 7965 7964 7962 ] final  -31.52 input  175.53 | X-H torsion
[ 8008 7997 7996 7995 ] final -120.94 input   59.86 | X-H torsion
[ 10167 10162 10161 10158 ] final  -78.19 input  -65.29 | X-H torsion
[ 10718 10713 10712 10709 ] final  -52.37 input   66.30 | X-H torsion
[ 10763 10752 10751 10750 ] final  171.38 input  -60.55 | X-H torsion
[ 11005 11000 10999 10996 ] final  -17.47 input  -57.11 | X-H torsion

> <Gold.Protein.ActiveResidues>
 VAL166  LYS551  ARG553  GLY616  TRP617  ASP618  TYR619  PRO620  LYS621  CYS622 
 ASP623  PHE694  ASN695  SER759  ASP760  ASP761  ALA762  ILE779  LEU786  VAL792 
 PHE793  MET794  SER795  GLU796  ALA797  LYS798  CYS799  TRP800  GLU811  SER814 

> <Gold.Protein.RotatedAtoms>
  150.7689  133.9238  159.3405 H   0  0  0  0  0  0  0  0  0  0  0  0  # atno 6907 bound_to 6896
  151.7130  135.0907  160.0280 H   0  0  0  0  0  0  0  0  0  0  0  0  # atno 6908 bound_to 6896
  152.3698  133.6365  159.6114 H   0  0  0  0  0  0  0  0  0  0  0  0  # atno 6909 bound_to 6896
  146.1061  140.5678  142.8799 H   0  0  0  0  0  0  0  0  0  0  0  0  # atno 7974 bound_to 7965
  155.1400  140.0401  157.2796 H   0  0  0  0  0  0  0  0  0  0  0  0  # atno 8008 bound_to 7997
  154.6480  140.2562  155.7219 H   0  0  0  0  0  0  0  0  0  0  0  0  # atno 8009 bound_to 7997
  156.2564  140.2842  156.0902 H   0  0  0  0  0  0  0  0  0  0  0  0  # atno 8010 bound_to 7997
  140.4704  143.2428  151.8213 H   0  0  0  0  0  0  0  0  0  0  0  0  # atno 10167 bound_to 10162
  156.1628  130.4149  149.9767 H   0  0  0  0  0  0  0  0  0  0  0  0  # atno 10718 bound_to 10713
  154.4111  135.2756  155.2036 H   0  0  0  0  0  0  0  0  0  0  0  0  # atno 10763 bound_to 10752
  154.4022  135.6042  153.5907 H   0  0  0  0  0  0  0  0  0  0  0  0  # atno 10764 bound_to 10752
  152.9831  135.5929  154.4392 H   0  0  0  0  0  0  0  0  0  0  0  0  # atno 10765 bound_to 10752
  140.8171  133.8096  155.9622 H   0  0  0  0  0  0  0  0  0  0  0  0  # atno 11005 bound_to 11000
  144.7472  140.5097  143.6827 LP  0  0  0  0  0  0  0  0  0  0  0  0  # atno 17320 bound_to 7965
  145.5759  139.1486  143.3262 LP  0  0  0  0  0  0  0  0  0  0  0  0  # atno 17321 bound_to 7965
  139.4818  144.4899  151.9199 LP  0  0  0  0  0  0  0  0  0  0  0  0  # atno 17342 bound_to 10162
  140.3984  144.2525  150.5894 LP  0  0  0  0  0  0  0  0  0  0  0  0  # atno 17343 bound_to 10162
  156.7591  130.9144  151.3640 LP  0  0  0  0  0  0  0  0  0  0  0  0  # atno 17370 bound_to 10713
  157.6745  130.9081  150.0118 LP  0  0  0  0  0  0  0  0  0  0  0  0  # atno 17371 bound_to 10713
  140.9137  134.2228  157.4970 LP  0  0  0  0  0  0  0  0  0  0  0  0  # atno 17394 bound_to 11000
  139.8710  134.9762  156.4910 LP  0  0  0  0  0  0  0  0  0  0  0  0  # atno 17395 bound_to 11000

$$$$
