AV-unprocessed.smi:2105|AV-procd|sdf|8592|dock1
  -GOLD-   2272011323D 1   1.00000     0.00000
 Structure written by MMmdl.
 43 44  0  0  0  0  0  0  0  0  2 V2000
  151.5617  140.5564  156.8322 C   0  0  0  0  0  0  0  0  0  0  0  0
  151.8640  139.5502  155.7272 C   0  0  0  0  0  0  0  0  0  0  0  0
  152.7269  139.7977  154.8856 O   0  0  0  0  0  0  0  0  0  0  0  0
  151.1446  138.4180  155.7421 N   0  0  0  0  0  0  0  0  0  0  0  0
  151.2818  137.3203  154.7900 C   0  0  0  0  0  0  0  0  0  0  0  0
  150.6419  136.0171  155.3082 C   0  0  0  0  0  0  0  0  0  0  0  0
  149.7254  135.4292  154.3361 N   0  0  0  0  0  0  0  0  0  0  0  0
  149.2282  134.1860  154.3983 C   0  0  0  0  0  0  0  0  0  0  0  0
  149.4894  133.3924  155.3022 O   0  0  0  0  0  0  0  0  0  0  0  0
  148.4343  133.9245  153.3463 N   0  0  0  0  0  0  0  0  0  0  0  0
  147.7476  132.7138  153.0449 C   0  0  0  0  0  0  0  0  0  0  0  0
  148.1724  131.4733  153.5872 C   0  0  0  0  0  0  0  0  0  0  0  0
  147.4884  130.2890  153.2553 C   0  0  0  0  0  0  0  0  0  0  0  0
  146.3847  130.3616  152.3889 C   0  0  0  0  0  0  0  0  0  0  0  0
  145.9916  131.5583  151.9062 N   0  3  0  0  0  0  0  0  0  0  0  0
  146.5993  132.7353  152.2001 C   0  0  0  0  0  0  0  0  0  0  0  0
  146.0640  133.9128  151.6293 N   0  0  0  0  0  0  0  0  0  0  0  0
  145.0552  133.8313  150.5793 C   0  0  0  0  0  0  0  0  0  0  0  0
  144.4831  135.2419  150.4704 C   0  0  0  0  0  0  0  0  0  0  0  0
  144.5202  135.7227  151.9180 C   0  0  0  0  0  0  0  0  0  0  0  0
  145.7733  135.0531  152.4926 C   0  0  0  0  0  0  0  0  0  0  0  0
  150.4974  140.7917  156.8562 H   0  0  0  0  0  0  0  0  0  0  0  0
  152.1121  141.4842  156.6728 H   0  0  0  0  0  0  0  0  0  0  0  0
  151.8493  140.1514  157.8028 H   0  0  0  0  0  0  0  0  0  0  0  0
  150.4596  138.3021  156.4749 H   0  0  0  0  0  0  0  0  0  0  0  0
  150.8126  137.6073  153.8476 H   0  0  0  0  0  0  0  0  0  0  0  0
  152.3388  137.1745  154.5659 H   0  0  0  0  0  0  0  0  0  0  0  0
  151.4053  135.2824  155.5658 H   0  0  0  0  0  0  0  0  0  0  0  0
  150.0982  136.2198  156.2323 H   0  0  0  0  0  0  0  0  0  0  0  0
  149.4600  136.0125  153.5562 H   0  0  0  0  0  0  0  0  0  0  0  0
  148.3969  134.6366  152.6318 H   0  0  0  0  0  0  0  0  0  0  0  0
  149.0136  131.4116  154.2608 H   0  0  0  0  0  0  0  0  0  0  0  0
  147.8076  129.3393  153.6596 H   0  0  0  0  0  0  0  0  0  0  0  0
  145.8023  129.5072  152.0759 H   0  0  0  0  0  0  0  0  0  0  0  0
  145.4868  133.4955  149.6360 H   0  0  0  0  0  0  0  0  0  0  0  0
  144.2635  133.1370  150.8638 H   0  0  0  0  0  0  0  0  0  0  0  0
  145.1350  135.8631  149.8543 H   0  0  0  0  0  0  0  0  0  0  0  0
  143.4830  135.2637  150.0367 H   0  0  0  0  0  0  0  0  0  0  0  0
  144.5418  136.8095  152.0059 H   0  0  0  0  0  0  0  0  0  0  0  0
  143.6363  135.3609  152.4452 H   0  0  0  0  0  0  0  0  0  0  0  0
  145.6223  134.7547  153.5310 H   0  0  0  0  0  0  0  0  0  0  0  0
  146.6150  135.7454  152.4550 H   0  0  0  0  0  0  0  0  0  0  0  0
  145.1808  131.5792  151.2877 H   0  0  0  0  0  0  0  0  0  0  0  0
  1  2  1  0  0  0  0
  1 22  1  0  0  0  0
  1 23  1  0  0  0  0
  1 24  1  0  0  0  0
  2  3  2  0  0  0  0
  2  4  1  0  0  0  0
  4  5  1  0  0  0  0
  4 25  1  0  0  0  0
  5  6  1  0  0  0  0
  5 26  1  0  0  0  0
  5 27  1  0  0  0  0
  6  7  1  0  0  0  0
  6 28  1  0  0  0  0
  6 29  1  0  0  0  0
  7  8  1  0  0  0  0
  7 30  1  0  0  0  0
  8  9  2  0  0  0  0
  8 10  1  0  0  0  0
 10 11  1  0  0  0  0
 10 31  1  0  0  0  0
 11 16  1  0  0  0  0
 11 12  2  0  0  0  0
 12 13  1  0  0  0  0
 12 32  1  0  0  0  0
 13 14  2  0  0  0  0
 13 33  1  0  0  0  0
 14 15  1  0  0  0  0
 14 34  1  0  0  0  0
 15 16  2  0  0  0  0
 15 43  1  0  0  0  0
 16 17  1  0  0  0  0
 17 21  1  0  0  0  0
 17 18  1  0  0  0  0
 18 19  1  0  0  0  0
 18 35  1  0  0  0  0
 18 36  1  0  0  0  0
 19 20  1  0  0  0  0
 19 37  1  0  0  0  0
 19 38  1  0  0  0  0
 20 21  1  0  0  0  0
 20 39  1  0  0  0  0
 20 40  1  0  0  0  0
 21 41  1  0  0  0  0
 21 42  1  0  0  0  0
M  CHG  1  15   1
M  END
> <s_m_source_file>
AV-unprocessed.smi

> <i_m_source_file_index>
2105

> <i_lp_mmshare_version>
43012

> <i_f3d_flags>
0

> <s_epik_input>
W0NIM11DKD1PKVtOSF1bQ0gyXVtDSDJdW05IXUMoPU8pW05IXWMxW2NIXVtjSF1bY0hdbmMxTjJbQ0gyXVtDSDJdW0NIMl1bQ0gyXTI=

> <s_epik_cmdline>
J2VwaWtfcHl0aG9uJywgJy1waCcsICc3LjAnLCAnLXRuJywgJzgnLCAnLW1hJywgJzIwMCcsICctbWV0YWxfYmluZGluZycsICctaW1hZScsICc8aW5maWxlLm1hZT4nLCAnLW9tYWUnLCAnPG91dGZpbGUubWFlPic=

> <r_lp_tautomer_probability>
0.999994

> <r_epik_Ionization_Penalty>
1.12691

> <r_epik_Ionization_Penalty_Charging>
1.12689

> <r_epik_Ionization_Penalty_Neutral>
1.95207e-05

> <r_epik_State_Penalty>
1.18624

> <r_epik_Charging_Adjusted_Penalty>
2.31313

> <i_epik_Tot_Q>
1

> <i_epik_Tot_abs_Q>
1

> <r_epik_Metal_State_Penalty>
1.26987

> <b_epik_Metal_Only>
0

> <s_lp_Force_Field>
OPLS_2005

> <r_lp_Energy>
38.5687

> <b_lp_Chiralities_Consistent>
1

> <s_lp_Variant>
AV-unprocessed.smi:2105-2

> <Gold.Version>
5.8.1

> <Gold.Id.Protein>
6NUR|6NUR_protein|mol2

> <Gold.PLP.Fitness>
44.5157

> <Gold.PLP.PLP>
-35.3321

> <Gold.PLP.part.hbond>
-4.3957

> <Gold.PLP.part.metal>
0.0000

> <Gold.PLP.part.buried>
-3.7048

> <Gold.PLP.part.nonpolar>
-27.6336

> <Gold.PLP.part.repulsive>
0.3300

> <Gold.PLP.ligand.clash>
0.0000

> <Gold.PLP.ligand.torsion>
0.8518

> <Gold.PLP.Chemscore.Hbond>
3.4917

> <Gold.PLP.Chemscore.CHOScore>
0.0000

> <Gold.PLP.Chemscore.Metal>
0.0000

> <Gold.Chemscore.Hbonds>
donor molecule, donor type, donor heavy atom, donor atom, acceptor molecule, acceptor atom, score
      L1  H     7    30       P1  7948  1.00
      L1  H    10    31       P1  7948  1.00
      P1  H  7989  7998       L1     3  0.49
      P1  H  7997  8008       L1     3  0.99

> <Gold.PLP.Chemscore.Internal.Correction>
0.4123

> <Gold.Rescore>
     Score         DG    S(hbond)    S(metal)    S(lipo)     H(rot)  DE(clash)    DE(int)     intcor
     12.55     -15.46       2.38        0.00      60.54       1.98       0.01       2.90       ----

> <Gold.Chemscore.Fitness>
12.5513

> <Gold.Chemscore.DG>
-15.4606

> <Gold.Chemscore.ZeroCoef>
-5.4800

> <Gold.Chemscore.Hbond>
2.3820

> <Gold.Chemscore.Metal>
0.0000

> <Gold.Chemscore.Lipo>
60.5407

> <Gold.Chemscore.Internal_Hbond>
0.0000

> <Gold.Chemscore.DEClash>
0.0095

> <Gold.Chemscore.DEInternal>
2.8998

> <Gold.Chemscore.Rot>
1.9760

> <Gold.Chemscore.Internal.Correction>
   9.000000E+99

> <Gold.Chemscore.Hbonds>
donor molecule, donor type, donor heavy atom, donor atom, acceptor molecule, acceptor atom, score
      L1  H     7    30       P1  7948  0.48
      L1  H    10    31       P1  7948  0.25
      P1  H  7989  7998       L1     3  0.18
      P1  H  7997  8008       L1     3  0.51

> <Gold.Chemscore.Hbond.Weighted>
-7.9559

> <Gold.Chemscore.Metal.Weighted>
-0.0000

> <Gold.Chemscore.Lipo.Weighted>
-7.0833

> <Gold.Chemscore.Internal_Hbond.Weighted>
0.0000

> <Gold.Chemscore.DEClash.Weighted>
0.0095

> <Gold.Chemscore.DEInternal.Weighted>
2.8998

> <Gold.Chemscore.Rot.Weighted>
5.0585

> <Gold.Chemscore.Internal.Correction.Weighted>
   9.000000E+99

> <Gold.Protein.RotatedTorsions>
[ 6907 6896 6895 6894 ] final -106.91 input  -60.11 | X-H torsion
[ 7974 7965 7964 7962 ] final  171.94 input  175.53 | X-H torsion
[ 8008 7997 7996 7995 ] final  -18.12 input   59.86 | X-H torsion
[ 10167 10162 10161 10158 ] final  173.17 input  -65.29 | X-H torsion
[ 10718 10713 10712 10709 ] final  -21.98 input   66.30 | X-H torsion
[ 10763 10752 10751 10750 ] final  -46.11 input  -60.55 | X-H torsion
[ 11005 11000 10999 10996 ] final   44.46 input  -57.11 | X-H torsion

> <Gold.Protein.ActiveResidues>
 VAL166  LYS551  ARG553  GLY616  TRP617  ASP618  TYR619  PRO620  LYS621  CYS622 
 ASP623  PHE694  ASN695  SER759  ASP760  ASP761  ALA762  ILE779  LEU786  VAL792 
 PHE793  MET794  SER795  GLU796  ALA797  LYS798  CYS799  TRP800  GLU811  SER814 

> <Gold.Protein.RotatedAtoms>
  150.7415  133.9905  159.3605 H   0  0  0  0  0  0  0  0  0  0  0  0  # atno 6907 bound_to 6896
  151.7852  135.0748  160.0389 H   0  0  0  0  0  0  0  0  0  0  0  0  # atno 6908 bound_to 6896
  152.3246  133.5854  159.5804 H   0  0  0  0  0  0  0  0  0  0  0  0  # atno 6909 bound_to 6896
  144.7281  139.9425  143.6429 H   0  0  0  0  0  0  0  0  0  0  0  0  # atno 7974 bound_to 7965
  154.4929  140.2124  155.9510 H   0  0  0  0  0  0  0  0  0  0  0  0  # atno 8008 bound_to 7997
  156.1330  140.3193  155.8346 H   0  0  0  0  0  0  0  0  0  0  0  0  # atno 8009 bound_to 7997
  155.4261  140.0500  157.3013 H   0  0  0  0  0  0  0  0  0  0  0  0  # atno 8010 bound_to 7997
  139.5100  144.3291  152.0129 H   0  0  0  0  0  0  0  0  0  0  0  0  # atno 10167 bound_to 10162
  156.5108  130.4609  149.6649 H   0  0  0  0  0  0  0  0  0  0  0  0  # atno 10718 bound_to 10713
  154.0397  135.6646  153.4789 H   0  0  0  0  0  0  0  0  0  0  0  0  # atno 10763 bound_to 10752
  153.0507  135.5086  154.7854 H   0  0  0  0  0  0  0  0  0  0  0  0  # atno 10764 bound_to 10752
  154.6826  135.3047  154.9557 H   0  0  0  0  0  0  0  0  0  0  0  0  # atno 10765 bound_to 10752
  140.1550  134.4414  155.8356 H   0  0  0  0  0  0  0  0  0  0  0  0  # atno 11005 bound_to 11000
  146.0774  139.3762  143.0485 LP  0  0  0  0  0  0  0  0  0  0  0  0  # atno 17320 bound_to 7965
  145.7887  140.9824  143.1060 LP  0  0  0  0  0  0  0  0  0  0  0  0  # atno 17321 bound_to 7965
  140.2731  144.3943  150.6144 LP  0  0  0  0  0  0  0  0  0  0  0  0  # atno 17342 bound_to 10162
  140.6074  143.2168  151.6954 LP  0  0  0  0  0  0  0  0  0  0  0  0  # atno 17343 bound_to 10162
  156.3242  130.7297  151.2214 LP  0  0  0  0  0  0  0  0  0  0  0  0  # atno 17370 bound_to 10713
  157.7451  131.0447  150.4808 LP  0  0  0  0  0  0  0  0  0  0  0  0  # atno 17371 bound_to 10713
  141.2203  133.6888  156.7490 LP  0  0  0  0  0  0  0  0  0  0  0  0  # atno 17394 bound_to 11000
  140.2559  134.8505  157.3712 LP  0  0  0  0  0  0  0  0  0  0  0  0  # atno 17395 bound_to 11000

$$$$
