AV-unprocessed.smi:1282|AV-procd|sdf|5360|dock8
  -GOLD-   22720 4503D 1   1.00000     0.00000
 Structure written by MMmdl.
 36 37  0  0  0  0  0  0  0  0  1 V2000
  153.6046  135.3340  164.4720 C   0  0  0  0  0  0  0  0  0  0  0  0
  153.8486  135.1174  163.0933 O   0  0  0  0  0  0  0  0  0  0  0  0
  153.9876  136.3290  162.3707 C   0  0  0  0  0  0  0  0  0  0  0  0
  154.2054  136.0088  160.8893 C   0  0  0  0  0  0  0  0  0  0  0  0
  153.0514  136.4194  160.1627 O   0  0  0  0  0  0  0  0  0  0  0  0
  152.8385  137.7688  159.9693 C   0  0  0  0  0  0  0  0  0  0  0  0
  151.8336  138.1683  159.0664 C   0  0  0  0  0  0  0  0  0  0  0  0
  151.6099  139.5430  158.8600 C   0  0  0  0  0  0  0  0  0  0  0  0
  152.4089  140.4788  159.5595 C   0  0  0  0  0  0  0  0  0  0  0  0
  152.2709  141.8893  159.4530 N   0  0  0  0  0  0  0  0  0  0  0  0
  152.6614  142.8416  160.3195 C   0  0  0  0  0  0  0  0  0  0  0  0
  153.1994  142.6206  161.4045 O   0  0  0  0  0  0  0  0  0  0  0  0
  152.3657  144.2835  159.8844 C   0  0  0  0  0  0  0  0  0  0  0  0
  150.8749  144.5901  159.6558 C   0  0  0  0  0  0  0  0  0  0  0  0
  151.2691  145.3429  158.3815 C   0  0  0  0  0  0  0  0  0  0  0  0
  152.5880  144.5641  158.3872 C   0  0  0  0  0  0  0  0  0  0  0  0
  153.3784  139.9753  160.4518 C   0  0  0  0  0  0  0  0  0  0  0  0
  153.5974  138.6589  160.6548 N   0  0  0  0  0  0  0  0  0  0  0  0
  153.5127  134.3758  164.9833 H   0  0  0  0  0  0  0  0  0  0  0  0
  152.6772  135.8873  164.6257 H   0  0  0  0  0  0  0  0  0  0  0  0
  154.4226  135.8862  164.9363 H   0  0  0  0  0  0  0  0  0  0  0  0
  153.0927  136.9418  162.4902 H   0  0  0  0  0  0  0  0  0  0  0  0
  154.8335  136.8996  162.7573 H   0  0  0  0  0  0  0  0  0  0  0  0
  155.0892  136.5347  160.5239 H   0  0  0  0  0  0  0  0  0  0  0  0
  154.3735  134.9374  160.7669 H   0  0  0  0  0  0  0  0  0  0  0  0
  151.2405  137.4324  158.5437 H   0  0  0  0  0  0  0  0  0  0  0  0
  150.8260  139.8472  158.1845 H   0  0  0  0  0  0  0  0  0  0  0  0
  151.7646  142.2136  158.6418 H   0  0  0  0  0  0  0  0  0  0  0  0
  152.8438  145.0363  160.5145 H   0  0  0  0  0  0  0  0  0  0  0  0
  150.2607  143.7107  159.4525 H   0  0  0  0  0  0  0  0  0  0  0  0
  150.4230  145.2214  160.4213 H   0  0  0  0  0  0  0  0  0  0  0  0
  150.6287  145.1490  157.5206 H   0  0  0  0  0  0  0  0  0  0  0  0
  151.4097  146.4116  158.5502 H   0  0  0  0  0  0  0  0  0  0  0  0
  153.4643  145.1753  158.1695 H   0  0  0  0  0  0  0  0  0  0  0  0
  152.5552  143.6772  157.7517 H   0  0  0  0  0  0  0  0  0  0  0  0
  154.0033  140.6494  161.0193 H   0  0  0  0  0  0  0  0  0  0  0  0
  1  2  1  0  0  0  0
  1 19  1  0  0  0  0
  1 20  1  0  0  0  0
  1 21  1  0  0  0  0
  2  3  1  0  0  0  0
  3  4  1  0  0  0  0
  3 22  1  0  0  0  0
  3 23  1  0  0  0  0
  4  5  1  0  0  0  0
  4 24  1  0  0  0  0
  4 25  1  0  0  0  0
  5  6  1  0  0  0  0
  6 18  1  0  0  0  0
  6  7  2  0  0  0  0
  7  8  1  0  0  0  0
  7 26  1  0  0  0  0
  8  9  2  0  0  0  0
  8 27  1  0  0  0  0
  9 10  1  0  0  0  0
  9 17  1  0  0  0  0
 10 11  1  0  0  0  0
 10 28  1  0  0  0  0
 11 12  2  0  0  0  0
 11 13  1  0  0  0  0
 13 16  1  0  0  0  0
 13 14  1  0  0  0  0
 13 29  1  0  0  0  0
 14 15  1  0  0  0  0
 14 30  1  0  0  0  0
 14 31  1  0  0  0  0
 15 16  1  0  0  0  0
 15 32  1  0  0  0  0
 15 33  1  0  0  0  0
 16 34  1  0  0  0  0
 16 35  1  0  0  0  0
 17 18  2  0  0  0  0
 17 36  1  0  0  0  0
M  END
> <s_m_source_file>
AV-unprocessed.smi

> <i_m_source_file_index>
1282

> <i_lp_mmshare_version>
43012

> <i_f3d_flags>
0

> <s_epik_input>
W0NIM11PW0NIMl1bQ0gyXU9jMVtjSF1bY0hdYyhbY0hdbjEpW05IXUMoPU8pW0NIXTJbQ0gyXVtDSDJdW0NIMl0y

> <s_epik_cmdline>
J2VwaWtfcHl0aG9uJywgJy1waCcsICc3LjAnLCAnLXRuJywgJzgnLCAnLW1hJywgJzIwMCcsICctbWV0YWxfYmluZGluZycsICctaW1hZScsICc8aW5maWxlLm1hZT4nLCAnLW9tYWUnLCAnPG91dGZpbGUubWFlPic=

> <r_lp_tautomer_probability>
1

> <r_epik_Ionization_Penalty>
2.67646e-05

> <r_epik_Ionization_Penalty_Charging>
0

> <r_epik_Ionization_Penalty_Neutral>
2.67646e-05

> <r_epik_State_Penalty>
-0

> <r_epik_Charging_Adjusted_Penalty>
0

> <i_epik_Tot_Q>
0

> <i_epik_Tot_abs_Q>
0

> <r_epik_Metal_State_Penalty>
-0

> <b_epik_Metal_Only>
0

> <s_lp_Force_Field>
OPLS_2005

> <r_lp_Energy>
17.3297

> <b_lp_Chiralities_Consistent>
1

> <s_lp_Variant>
AV-unprocessed.smi:1282-1

> <Gold.Version>
5.8.1

> <Gold.Id.Protein>
6NUR|6NUR_protein|mol2

> <Gold.PLP.Fitness>
38.4180

> <Gold.PLP.PLP>
-36.7972

> <Gold.PLP.part.hbond>
-1.0000

> <Gold.PLP.part.metal>
0.0000

> <Gold.PLP.part.buried>
-5.8195

> <Gold.PLP.part.nonpolar>
-29.5583

> <Gold.PLP.part.repulsive>
0.1297

> <Gold.PLP.ligand.clash>
0.0000

> <Gold.PLP.ligand.torsion>
0.8991

> <Gold.PLP.Chemscore.Hbond>
1.0000

> <Gold.PLP.Chemscore.CHOScore>
0.0000

> <Gold.PLP.Chemscore.Metal>
0.0000

> <Gold.Chemscore.Hbonds>
donor molecule, donor type, donor heavy atom, donor atom, acceptor molecule, acceptor atom, score
      P1  H  6896  6907       L1     5  1.00

> <Gold.PLP.Chemscore.Internal.Correction>
0.4191

> <Gold.Rescore>
     Score         DG    S(hbond)    S(metal)    S(lipo)     H(rot)  DE(clash)    DE(int)     intcor
     13.34     -15.67       0.97        0.00      98.06       1.76       0.05       2.28       ----

> <Gold.Chemscore.Fitness>
13.3385

> <Gold.Chemscore.DG>
-15.6673

> <Gold.Chemscore.ZeroCoef>
-5.4800

> <Gold.Chemscore.Hbond>
0.9665

> <Gold.Chemscore.Metal>
0.0000

> <Gold.Chemscore.Lipo>
98.0640

> <Gold.Chemscore.Internal_Hbond>
0.0000

> <Gold.Chemscore.DEClash>
0.0521

> <Gold.Chemscore.DEInternal>
2.2767

> <Gold.Chemscore.Rot>
1.7634

> <Gold.Chemscore.Internal.Correction>
   9.000000E+99

> <Gold.Chemscore.Hbonds>
donor molecule, donor type, donor heavy atom, donor atom, acceptor molecule, acceptor atom, score
      P1  H  6896  6907       L1     5  0.40

> <Gold.Chemscore.Hbond.Weighted>
-3.2280

> <Gold.Chemscore.Metal.Weighted>
-0.0000

> <Gold.Chemscore.Lipo.Weighted>
-11.4735

> <Gold.Chemscore.Internal_Hbond.Weighted>
0.0000

> <Gold.Chemscore.DEClash.Weighted>
0.0521

> <Gold.Chemscore.DEInternal.Weighted>
2.2767

> <Gold.Chemscore.Rot.Weighted>
4.5142

> <Gold.Chemscore.Internal.Correction.Weighted>
   9.000000E+99

> <Gold.Protein.RotatedTorsions>
[ 6907 6896 6895 6894 ] final   33.48 input  -60.11 | X-H torsion
[ 7974 7965 7964 7962 ] final   99.91 input  175.53 | X-H torsion
[ 8008 7997 7996 7995 ] final   84.95 input   59.86 | X-H torsion
[ 10167 10162 10161 10158 ] final -179.38 input  -65.29 | X-H torsion
[ 10718 10713 10712 10709 ] final -152.57 input   66.30 | X-H torsion
[ 10763 10752 10751 10750 ] final  -33.00 input  -60.55 | X-H torsion
[ 11005 11000 10999 10996 ] final  167.35 input  -57.11 | X-H torsion

> <Gold.Protein.ActiveResidues>
 VAL166  LYS551  ARG553  GLY616  TRP617  ASP618  TYR619  PRO620  LYS621  CYS622 
 ASP623  PHE694  ASN695  SER759  ASP760  ASP761  ALA762  ILE779  LEU786  VAL792 
 PHE793  MET794  SER795  GLU796  ALA797  LYS798  CYS799  TRP800  GLU811  SER814 

> <Gold.Protein.RotatedAtoms>
  152.0891  134.9419  160.0571 H   0  0  0  0  0  0  0  0  0  0  0  0  # atno 6907 bound_to 6896
  152.0678  133.4087  159.4454 H   0  0  0  0  0  0  0  0  0  0  0  0  # atno 6908 bound_to 6896
  150.6836  134.3046  159.4764 H   0  0  0  0  0  0  0  0  0  0  0  0  # atno 6909 bound_to 6896
  145.3925  139.2360  143.3344 H   0  0  0  0  0  0  0  0  0  0  0  0  # atno 7974 bound_to 7965
  155.9437  140.3406  155.6349 H   0  0  0  0  0  0  0  0  0  0  0  0  # atno 8008 bound_to 7997
  155.7007  140.0760  157.2430 H   0  0  0  0  0  0  0  0  0  0  0  0  # atno 8009 bound_to 7997
  154.4107  140.1640  156.2175 H   0  0  0  0  0  0  0  0  0  0  0  0  # atno 8010 bound_to 7997
  139.5389  144.2420  152.0853 H   0  0  0  0  0  0  0  0  0  0  0  0  # atno 10167 bound_to 10162
  156.4742  130.8273  151.2501 H   0  0  0  0  0  0  0  0  0  0  0  0  # atno 10718 bound_to 10713
  153.8230  135.6872  153.4824 H   0  0  0  0  0  0  0  0  0  0  0  0  # atno 10763 bound_to 10752
  153.1558  135.4600  154.9700 H   0  0  0  0  0  0  0  0  0  0  0  0  # atno 10764 bound_to 10752
  154.7919  135.3305  154.7700 H   0  0  0  0  0  0  0  0  0  0  0  0  # atno 10765 bound_to 10752
  140.2759  134.7790  157.3716 H   0  0  0  0  0  0  0  0  0  0  0  0  # atno 11005 bound_to 11000
  146.2790  140.4610  142.8784 LP  0  0  0  0  0  0  0  0  0  0  0  0  # atno 17320 bound_to 7965
  144.8430  140.6886  143.6217 LP  0  0  0  0  0  0  0  0  0  0  0  0  # atno 17321 bound_to 7965
  140.1895  144.4766  150.6486 LP  0  0  0  0  0  0  0  0  0  0  0  0  # atno 17342 bound_to 10162
  140.6609  143.2252  151.5858 LP  0  0  0  0  0  0  0  0  0  0  0  0  # atno 17343 bound_to 10162
  157.7489  131.0066  150.3158 LP  0  0  0  0  0  0  0  0  0  0  0  0  # atno 17370 bound_to 10713
  156.3587  130.3843  149.7269 LP  0  0  0  0  0  0  0  0  0  0  0  0  # atno 17371 bound_to 10713
  140.1329  134.5071  155.8091 LP  0  0  0  0  0  0  0  0  0  0  0  0  # atno 17394 bound_to 11000
  141.2170  133.6796  156.7072 LP  0  0  0  0  0  0  0  0  0  0  0  0  # atno 17395 bound_to 11000

$$$$
