AV-unprocessed.smi:183|AV-procd|sdf|1457|dock7
  -GOLD-   2262019263D 1   1.00000     0.00000
 Structure written by MMmdl.
 55 57  0  0  0  0  0  0  0  0  1 V2000
  148.2848  134.8199  160.3900 C   0  0  0  0  0  0  0  0  0  0  0  0
  148.4906  136.1972  159.7691 C   0  0  0  0  0  0  0  0  0  0  0  0
  148.2523  137.2119  160.4236 O   0  0  0  0  0  0  0  0  0  0  0  0
  148.9359  136.2173  158.5038 N   0  0  0  0  0  0  0  0  0  0  0  0
  149.1920  137.4243  157.7290 C   0  0  0  0  0  0  0  0  0  0  0  0
  148.6148  137.3064  156.3045 C   0  0  0  0  0  0  0  0  0  0  0  0
  148.0339  138.5550  155.8025 N   0  0  0  0  0  0  0  0  0  0  0  0
  147.3929  138.3650  154.6231 C   0  0  0  0  0  0  0  0  0  0  0  0
  147.7425  139.1743  153.5918 N   0  0  0  0  0  0  0  0  0  0  0  0
  147.1430  139.0447  152.4046 C   0  0  0  0  0  0  0  0  0  0  0  0
  146.1837  138.1906  152.0424 N   0  0  0  0  0  0  0  0  0  0  0  0
  145.8222  137.3816  153.0793 C   0  0  0  0  0  0  0  0  0  0  0  0
  146.3675  137.4021  154.3940 C   0  0  0  0  0  0  0  0  0  0  0  0
  145.7380  136.4442  155.1807 N   0  0  0  0  0  0  0  0  0  0  0  0
  144.8756  135.8866  154.3764 C   0  0  0  0  0  0  0  0  0  0  0  0
  144.8654  136.3816  153.0920 N   0  0  0  0  0  0  0  0  0  0  0  0
  144.0134  135.9461  151.9962 C   0  0  0  0  0  0  0  0  0  0  0  0
  144.7410  135.0361  150.9718 C   0  0  1  0  0  0  0  0  0  0  0  0
  144.7266  135.6899  149.7138 O   0  0  0  0  0  0  0  0  0  0  0  0
  146.1977  134.7545  151.3319 C   0  0  0  0  0  0  0  0  0  0  0  0
  146.4477  133.3883  150.7119 C   0  0  0  0  0  0  0  0  0  0  0  0
  145.2321  132.7100  150.9722 O   0  0  0  0  0  0  0  0  0  0  0  0
  144.1474  133.6127  150.7708 C   0  0  1  0  0  0  0  0  0  0  0  0
  143.0119  133.1945  151.7185 C   0  0  0  0  0  0  0  0  0  0  0  0
  148.7391  139.8332  156.0024 C   0  0  0  0  0  0  0  0  0  0  0  0
  147.8191  141.0414  155.7438 C   0  0  0  0  0  0  0  0  0  0  0  0
  149.9901  139.9640  155.1056 C   0  0  0  0  0  0  0  0  0  0  0  0
  149.2438  134.3218  160.5339 H   0  0  0  0  0  0  0  0  0  0  0  0
  147.6643  134.1972  159.7448 H   0  0  0  0  0  0  0  0  0  0  0  0
  147.7923  134.9015  161.3594 H   0  0  0  0  0  0  0  0  0  0  0  0
  149.1074  135.3341  158.0454 H   0  0  0  0  0  0  0  0  0  0  0  0
  148.7369  138.2625  158.2561 H   0  0  0  0  0  0  0  0  0  0  0  0
  150.2647  137.6196  157.7022 H   0  0  0  0  0  0  0  0  0  0  0  0
  149.3980  136.9719  155.6220 H   0  0  0  0  0  0  0  0  0  0  0  0
  147.8591  136.5218  156.2725 H   0  0  0  0  0  0  0  0  0  0  0  0
  147.4798  139.7232  151.6347 H   0  0  0  0  0  0  0  0  0  0  0  0
  144.2207  135.0910  154.7003 H   0  0  0  0  0  0  0  0  0  0  0  0
  143.1614  135.4245  152.4325 H   0  0  0  0  0  0  0  0  0  0  0  0
  143.6135  136.8325  151.5022 H   0  0  0  0  0  0  0  0  0  0  0  0
  145.3903  135.3000  149.1655 H   0  0  0  0  0  0  0  0  0  0  0  0
  146.8952  135.5186  150.9853 H   0  0  0  0  0  0  0  0  0  0  0  0
  146.3073  134.6714  152.4139 H   0  0  0  0  0  0  0  0  0  0  0  0
  146.6061  133.4656  149.6351 H   0  0  0  0  0  0  0  0  0  0  0  0
  147.3004  132.8725  151.1534 H   0  0  0  0  0  0  0  0  0  0  0  0
  143.8003  133.4870  149.7434 H   0  0  0  0  0  0  0  0  0  0  0  0
  142.1405  133.8396  151.6059 H   0  0  0  0  0  0  0  0  0  0  0  0
  143.3286  133.2248  152.7613 H   0  0  0  0  0  0  0  0  0  0  0  0
  142.6909  132.1747  151.5059 H   0  0  0  0  0  0  0  0  0  0  0  0
  149.0618  139.8870  157.0419 H   0  0  0  0  0  0  0  0  0  0  0  0
  148.3672  141.9790  155.8407 H   0  0  0  0  0  0  0  0  0  0  0  0
  146.9966  141.0864  156.4573 H   0  0  0  0  0  0  0  0  0  0  0  0
  147.3946  141.0090  154.7398 H   0  0  0  0  0  0  0  0  0  0  0  0
  150.4705  140.9325  155.2458 H   0  0  0  0  0  0  0  0  0  0  0  0
  149.7289  139.8755  154.0506 H   0  0  0  0  0  0  0  0  0  0  0  0
  150.7444  139.2090  155.3252 H   0  0  0  0  0  0  0  0  0  0  0  0
  1  2  1  0  0  0  0
  1 28  1  0  0  0  0
  1 29  1  0  0  0  0
  1 30  1  0  0  0  0
  2  3  2  0  0  0  0
  2  4  1  0  0  0  0
  4  5  1  0  0  0  0
  4 31  1  0  0  0  0
  5  6  1  0  0  0  0
  5 32  1  0  0  0  0
  5 33  1  0  0  0  0
  6  7  1  0  0  0  0
  6 34  1  0  0  0  0
  6 35  1  0  0  0  0
  7  8  1  0  0  0  0
  7 25  1  0  0  0  0
  8 13  1  0  0  0  0
  8  9  2  0  0  0  0
  9 10  1  0  0  0  0
 10 11  2  0  0  0  0
 10 36  1  0  0  0  0
 11 12  1  0  0  0  0
 12 16  1  0  0  0  0
 12 13  2  0  0  0  0
 13 14  1  0  0  0  0
 14 15  2  0  0  0  0
 15 16  1  0  0  0  0
 15 37  1  0  0  0  0
 16 17  1  0  0  0  0
 17 18  1  0  0  0  0
 17 38  1  0  0  0  0
 17 39  1  0  0  0  0
 18 23  1  0  0  0  0
 18 19  1  0  0  0  0
 18 20  1  0  0  0  0
 19 40  1  0  0  0  0
 20 21  1  0  0  0  0
 20 41  1  0  0  0  0
 20 42  1  0  0  0  0
 21 22  1  0  0  0  0
 21 43  1  0  0  0  0
 21 44  1  0  0  0  0
 22 23  1  0  0  0  0
 23 24  1  0  0  0  0
 23 45  1  0  0  0  0
 24 46  1  0  0  0  0
 24 47  1  0  0  0  0
 24 48  1  0  0  0  0
 25 26  1  0  0  0  0
 25 27  1  0  0  0  0
 25 49  1  0  0  0  0
 26 50  1  0  0  0  0
 26 51  1  0  0  0  0
 26 52  1  0  0  0  0
 27 53  1  0  0  0  0
 27 54  1  0  0  0  0
 27 55  1  0  0  0  0
M  END
> <s_m_source_file>
AV-unprocessed.smi

> <i_m_source_file_index>
183

> <i_lp_mmshare_version>
43012

> <i_f3d_flags>
0

> <s_epik_input>
W0NIM11DKD1PKVtOSF1bQ0gyXVtDSDJdTihbQ0hdKFtDSDNdKVtDSDNdKWMobltjSF1uMSljKGMxMiluW2NIXW4yW0NIMl1bQ0BAXTMoW09IXSlbQ0gyXVtDSDJdT1tDQEhdM1tDSDNd

> <s_epik_cmdline>
J2VwaWtfcHl0aG9uJywgJy1waCcsICc3LjAnLCAnLXRuJywgJzgnLCAnLW1hJywgJzIwMCcsICctbWV0YWxfYmluZGluZycsICctaW1hZScsICc8aW5maWxlLm1hZT4nLCAnLW9tYWUnLCAnPG91dGZpbGUubWFlPic=

> <r_lp_tautomer_probability>
1

> <r_epik_Ionization_Penalty>
0.00156158

> <r_epik_Ionization_Penalty_Charging>
0

> <r_epik_Ionization_Penalty_Neutral>
0.00156158

> <r_epik_State_Penalty>
0.000865808

> <r_epik_Charging_Adjusted_Penalty>
0.000865808

> <i_epik_Tot_Q>
0

> <i_epik_Tot_abs_Q>
0

> <r_epik_Metal_State_Penalty>
-0

> <b_epik_Metal_Only>
0

> <s_lp_Force_Field>
OPLS_2005

> <r_lp_Energy>
29.4164

> <b_lp_Chiralities_Consistent>
1

> <s_lp_Variant>
AV-unprocessed.smi:183-1

> <Gold.Version>
5.8.1

> <Gold.Id.Protein>
6NUR|6NUR_protein|mol2

> <Gold.PLP.Fitness>
37.5712

> <Gold.PLP.PLP>
-30.6994

> <Gold.PLP.part.hbond>
-4.0000

> <Gold.PLP.part.metal>
0.0000

> <Gold.PLP.part.buried>
-4.0209

> <Gold.PLP.part.nonpolar>
-23.6893

> <Gold.PLP.part.repulsive>
0.7614

> <Gold.PLP.ligand.clash>
0.0000

> <Gold.PLP.ligand.torsion>
2.2129

> <Gold.PLP.Chemscore.Hbond>
2.4617

> <Gold.PLP.Chemscore.CHOScore>
0.9305

> <Gold.PLP.Chemscore.Metal>
0.0000

> <Gold.Chemscore.Hbonds>
donor molecule, donor type, donor heavy atom, donor atom, acceptor molecule, acceptor atom, score
      L1  H    19    40       P1  7921  1.00
      P1  H  6931  6943       L1     3  0.72
      P1  H  6934  6947       L1     3  0.45
      L1  C    10    36       P1  7957  0.88

> <Gold.PLP.Chemscore.Internal.Correction>
1.1212

> <Gold.Rescore>
     Score         DG    S(hbond)    S(metal)    S(lipo)     H(rot)  DE(clash)    DE(int)     intcor
      5.78     -11.31       2.37        0.00      57.66       3.45       0.59       4.94       ----

> <Gold.Chemscore.Fitness>
5.7833

> <Gold.Chemscore.DG>
-11.3075

> <Gold.Chemscore.ZeroCoef>
-5.4800

> <Gold.Chemscore.Hbond>
2.3655

> <Gold.Chemscore.Metal>
0.0000

> <Gold.Chemscore.Lipo>
57.6597

> <Gold.Chemscore.Internal_Hbond>
0.0000

> <Gold.Chemscore.DEClash>
0.5878

> <Gold.Chemscore.DEInternal>
4.9364

> <Gold.Chemscore.Rot>
3.4451

> <Gold.Chemscore.Internal.Correction>
   9.000000E+99

> <Gold.Chemscore.Hbonds>
donor molecule, donor type, donor heavy atom, donor atom, acceptor molecule, acceptor atom, score
      L1  H    19    40       P1  7921  0.98
      P1  H  6931  6943       L1     3  0.71
      P1  H  6934  6947       L1     3  0.44

> <Gold.Chemscore.Hbond.Weighted>
-7.9007

> <Gold.Chemscore.Metal.Weighted>
-0.0000

> <Gold.Chemscore.Lipo.Weighted>
-6.7462

> <Gold.Chemscore.Internal_Hbond.Weighted>
0.0000

> <Gold.Chemscore.DEClash.Weighted>
0.5878

> <Gold.Chemscore.DEInternal.Weighted>
4.9364

> <Gold.Chemscore.Rot.Weighted>
8.8194

> <Gold.Chemscore.Internal.Correction.Weighted>
   9.000000E+99

> <Gold.Protein.RotatedTorsions>
[ 6907 6896 6895 6894 ] final  -39.52 input  -60.11 | X-H torsion
[ 7974 7965 7964 7962 ] final  -30.95 input  175.53 | X-H torsion
[ 8008 7997 7996 7995 ] final -162.88 input   59.86 | X-H torsion
[ 10167 10162 10161 10158 ] final  144.45 input  -65.29 | X-H torsion
[ 10718 10713 10712 10709 ] final  -50.87 input   66.30 | X-H torsion
[ 10763 10752 10751 10750 ] final   44.90 input  -60.55 | X-H torsion
[ 11005 11000 10999 10996 ] final  100.47 input  -57.11 | X-H torsion

> <Gold.Protein.ActiveResidues>
 VAL166  LYS551  ARG553  GLY616  TRP617  ASP618  TYR619  PRO620  LYS621  CYS622 
 ASP623  PHE694  ASN695  SER759  ASP760  ASP761  ALA762  ILE779  LEU786  VAL792 
 PHE793  MET794  SER795  GLU796  ALA797  LYS798  CYS799  TRP800  GLU811  SER814 

> <Gold.Protein.RotatedAtoms>
  150.9893  134.9231  159.7889 H   0  0  0  0  0  0  0  0  0  0  0  0  # atno 6907 bound_to 6896
  152.5246  134.3303  159.9190 H   0  0  0  0  0  0  0  0  0  0  0  0  # atno 6908 bound_to 6896
  151.3309  133.3960  159.2697 H   0  0  0  0  0  0  0  0  0  0  0  0  # atno 6909 bound_to 6896
  146.1104  140.5606  142.8780 H   0  0  0  0  0  0  0  0  0  0  0  0  # atno 7974 bound_to 7965
  155.8132  140.0908  157.1891 H   0  0  0  0  0  0  0  0  0  0  0  0  # atno 8008 bound_to 7997
  154.3979  140.1450  156.3472 H   0  0  0  0  0  0  0  0  0  0  0  0  # atno 8009 bound_to 7997
  155.8343  140.3441  155.5594 H   0  0  0  0  0  0  0  0  0  0  0  0  # atno 8010 bound_to 7997
  139.4947  144.5971  151.6560 H   0  0  0  0  0  0  0  0  0  0  0  0  # atno 10167 bound_to 10162
  156.1761  130.4150  149.9575 H   0  0  0  0  0  0  0  0  0  0  0  0  # atno 10718 bound_to 10713
  152.9833  135.6056  154.3349 H   0  0  0  0  0  0  0  0  0  0  0  0  # atno 10763 bound_to 10752
  154.3050  135.2772  155.2595 H   0  0  0  0  0  0  0  0  0  0  0  0  # atno 10764 bound_to 10752
  154.4830  135.5912  153.6459 H   0  0  0  0  0  0  0  0  0  0  0  0  # atno 10765 bound_to 10752
  139.8771  134.9141  156.4761 H   0  0  0  0  0  0  0  0  0  0  0  0  # atno 11005 bound_to 11000
  144.7506  140.5182  143.6804 LP  0  0  0  0  0  0  0  0  0  0  0  0  # atno 17320 bound_to 7965
  145.5675  139.1482  143.3307 LP  0  0  0  0  0  0  0  0  0  0  0  0  # atno 17321 bound_to 7965
  140.5611  144.0266  150.6170 LP  0  0  0  0  0  0  0  0  0  0  0  0  # atno 17342 bound_to 10162
  140.3353  143.3053  152.0645 LP  0  0  0  0  0  0  0  0  0  0  0  0  # atno 17343 bound_to 10162
  156.7360  130.9061  151.3629 LP  0  0  0  0  0  0  0  0  0  0  0  0  # atno 17370 bound_to 10713
  157.6837  130.9164  150.0331 LP  0  0  0  0  0  0  0  0  0  0  0  0  # atno 17371 bound_to 10713
  140.8761  133.7952  155.9416 LP  0  0  0  0  0  0  0  0  0  0  0  0  # atno 17394 bound_to 11000
  140.8902  134.2504  157.5098 LP  0  0  0  0  0  0  0  0  0  0  0  0  # atno 17395 bound_to 11000

$$$$
