AV-unprocessed.smi:284|AV-procd|sdf|2163|dock10
  -GOLD-   2262021523D 1   1.00000     0.00000
 Structure written by MMmdl.
 60 62  0  0  0  0  0  0  0  0  1 V2000
  145.5888  135.7731  156.2494 C   0  0  0  0  0  0  0  0  0  0  0  0
  145.8090  136.4634  154.9127 C   0  0  0  0  0  0  0  0  0  0  0  0
  145.5483  135.8509  153.7351 C   0  0  0  0  0  0  0  0  0  0  0  0
  145.7396  136.4486  152.5043 N   0  0  0  0  0  0  0  0  0  0  0  0
  145.4333  135.6984  151.2308 C   0  0  2  0  0  0  0  0  0  0  0  0
  143.9799  135.2368  151.1932 C   0  0  0  0  0  0  0  0  0  0  0  0
  144.0945  134.0676  150.2374 C   0  0  2  0  0  0  0  0  0  0  0  0
  143.0170  133.1608  150.3644 O   0  0  0  0  0  0  0  0  0  0  0  0
  145.4887  133.4934  150.5650 C   0  0  2  0  0  0  0  0  0  0  0  0
  145.5672  132.2495  151.4774 C   0  0  0  0  0  0  0  0  0  0  0  0
  146.8792  131.9836  151.9302 O   0  0  0  0  0  0  0  0  0  0  0  0
  146.2284  134.5532  151.1736 O   0  0  0  0  0  0  0  0  0  0  0  0
  146.2118  137.7746  152.4363 C   0  0  0  0  0  0  0  0  0  0  0  0
  146.3754  138.3360  151.3505 O   0  0  0  0  0  0  0  0  0  0  0  0
  146.4885  138.4456  153.6490 N   0  0  0  0  0  0  0  0  0  0  0  0
  147.0032  139.8318  153.5853 C   0  0  0  0  0  0  0  0  0  0  0  0
  148.3449  140.0235  154.3101 C   0  0  0  0  0  0  0  0  0  0  0  0
  149.3440  139.4039  153.9444 O   0  0  0  0  0  0  0  0  0  0  0  0
  148.3085  140.8685  155.3568 N   0  0  0  0  0  0  0  0  0  0  0  0
  149.3585  141.2690  156.2281 C   0  0  0  0  0  0  0  0  0  0  0  0
  150.7245  140.9734  156.0120 C   0  0  0  0  0  0  0  0  0  0  0  0
  151.7039  141.4228  156.9191 C   0  0  0  0  0  0  0  0  0  0  0  0
  151.3477  142.1853  158.0588 C   0  0  0  0  0  0  0  0  0  0  0  0
  152.3915  142.6965  159.0704 C   0  0  0  0  0  0  0  0  0  0  0  0
  153.2016  141.5041  159.6186 C   0  0  0  0  0  0  0  0  0  0  0  0
  151.7565  143.4276  160.2747 C   0  0  0  0  0  0  0  0  0  0  0  0
  153.3499  143.6887  158.3777 C   0  0  0  0  0  0  0  0  0  0  0  0
  149.9805  142.4897  158.2542 C   0  0  0  0  0  0  0  0  0  0  0  0
  149.0000  142.0400  157.3504 C   0  0  0  0  0  0  0  0  0  0  0  0
  146.3173  137.8373  154.9172 C   0  0  0  0  0  0  0  0  0  0  0  0
  146.5922  138.4505  155.9506 O   0  0  0  0  0  0  0  0  0  0  0  0
  145.2250  134.7528  156.1241 H   0  0  0  0  0  0  0  0  0  0  0  0
  144.8550  136.3187  156.8437 H   0  0  0  0  0  0  0  0  0  0  0  0
  146.5212  135.7270  156.8133 H   0  0  0  0  0  0  0  0  0  0  0  0
  145.1691  134.8402  153.7594 H   0  0  0  0  0  0  0  0  0  0  0  0
  145.7020  136.3333  150.3856 H   0  0  0  0  0  0  0  0  0  0  0  0
  143.6701  134.9082  152.1864 H   0  0  0  0  0  0  0  0  0  0  0  0
  143.3170  136.0317  150.8508 H   0  0  0  0  0  0  0  0  0  0  0  0
  144.1000  134.4517  149.2162 H   0  0  0  0  0  0  0  0  0  0  0  0
  142.2185  133.6053  150.1237 H   0  0  0  0  0  0  0  0  0  0  0  0
  145.9888  133.2451  149.6281 H   0  0  0  0  0  0  0  0  0  0  0  0
  144.9361  132.3967  152.3541 H   0  0  0  0  0  0  0  0  0  0  0  0
  145.1823  131.3723  150.9570 H   0  0  0  0  0  0  0  0  0  0  0  0
  147.2795  131.3606  151.3434 H   0  0  0  0  0  0  0  0  0  0  0  0
  147.1120  140.1526  152.5477 H   0  0  0  0  0  0  0  0  0  0  0  0
  146.2876  140.5414  154.0030 H   0  0  0  0  0  0  0  0  0  0  0  0
  147.3973  141.2374  155.5867 H   0  0  0  0  0  0  0  0  0  0  0  0
  151.0532  140.4142  155.1503 H   0  0  0  0  0  0  0  0  0  0  0  0
  152.7302  141.1673  156.7081 H   0  0  0  0  0  0  0  0  0  0  0  0
  153.9438  141.8306  160.3478 H   0  0  0  0  0  0  0  0  0  0  0  0
  153.7382  140.9762  158.8302 H   0  0  0  0  0  0  0  0  0  0  0  0
  152.5525  140.7812  160.1142 H   0  0  0  0  0  0  0  0  0  0  0  0
  151.1017  142.7703  160.8479 H   0  0  0  0  0  0  0  0  0  0  0  0
  151.1754  144.2950  159.9586 H   0  0  0  0  0  0  0  0  0  0  0  0
  152.5208  143.7899  160.9633 H   0  0  0  0  0  0  0  0  0  0  0  0
  154.0828  144.0875  159.0800 H   0  0  0  0  0  0  0  0  0  0  0  0
  152.8049  144.5352  157.9584 H   0  0  0  0  0  0  0  0  0  0  0  0
  153.9103  143.2244  157.5666 H   0  0  0  0  0  0  0  0  0  0  0  0
  149.6679  143.0773  159.1042 H   0  0  0  0  0  0  0  0  0  0  0  0
  147.9640  142.2897  157.5272 H   0  0  0  0  0  0  0  0  0  0  0  0
  1  2  1  0  0  0  0
  1 32  1  0  0  0  0
  1 33  1  0  0  0  0
  1 34  1  0  0  0  0
  2 30  1  0  0  0  0
  2  3  2  0  0  0  0
  3  4  1  0  0  0  0
  3 35  1  0  0  0  0
  4  5  1  0  0  0  0
  4 13  1  0  0  0  0
  5 12  1  0  0  0  0
  5  6  1  0  0  0  0
  5 36  1  0  0  0  0
  6  7  1  0  0  0  0
  6 37  1  0  0  0  0
  6 38  1  0  0  0  0
  7  8  1  0  0  0  0
  7  9  1  0  0  0  0
  7 39  1  0  0  0  0
  8 40  1  0  0  0  0
  9 10  1  0  0  0  0
  9 12  1  0  0  0  0
  9 41  1  0  0  0  0
 10 11  1  0  0  0  0
 10 42  1  0  0  0  0
 10 43  1  0  0  0  0
 11 44  1  0  0  0  0
 13 14  2  0  0  0  0
 13 15  1  0  0  0  0
 15 16  1  0  0  0  0
 15 30  1  0  0  0  0
 16 17  1  0  0  0  0
 16 45  1  0  0  0  0
 16 46  1  0  0  0  0
 17 18  2  0  0  0  0
 17 19  1  0  0  0  0
 19 20  1  0  0  0  0
 19 47  1  0  0  0  0
 20 29  1  0  0  0  0
 20 21  2  0  0  0  0
 21 22  1  0  0  0  0
 21 48  1  0  0  0  0
 22 23  2  0  0  0  0
 22 49  1  0  0  0  0
 23 24  1  0  0  0  0
 23 28  1  0  0  0  0
 24 25  1  0  0  0  0
 24 26  1  0  0  0  0
 24 27  1  0  0  0  0
 25 50  1  0  0  0  0
 25 51  1  0  0  0  0
 25 52  1  0  0  0  0
 26 53  1  0  0  0  0
 26 54  1  0  0  0  0
 26 55  1  0  0  0  0
 27 56  1  0  0  0  0
 27 57  1  0  0  0  0
 27 58  1  0  0  0  0
 28 29  2  0  0  0  0
 28 59  1  0  0  0  0
 29 60  1  0  0  0  0
 30 31  2  0  0  0  0
M  END
> <s_m_source_file>
AV-unprocessed.smi

> <i_m_source_file_index>
284

> <i_lp_mmshare_version>
43012

> <i_f3d_flags>
0

> <s_epik_input>
W09IXVtDSDJdW0NAQEhdKE8xKVtDQEhdKFtPSF0pW0NIMl1bQ0BIXTFuKFtjSF1jMltDSDNdKWMoPU8pbihjMj1PKVtDSDJdQyg9TylbTkhdYzNbY0hdW2NIXWMoQyhbQ0gzXSkoW0NIM10pW0NIM10pW2NIXVtjSF0z

> <s_epik_cmdline>
J2VwaWtfcHl0aG9uJywgJy1waCcsICc3LjAnLCAnLXRuJywgJzgnLCAnLW1hJywgJzIwMCcsICctbWV0YWxfYmluZGluZycsICctaW1hZScsICc8aW5maWxlLm1hZT4nLCAnLW9tYWUnLCAnPG91dGZpbGUubWFlPic=

> <r_lp_tautomer_probability>
1

> <r_epik_Ionization_Penalty>
4.92358e-06

> <r_epik_Ionization_Penalty_Charging>
1.29777e-07

> <r_epik_Ionization_Penalty_Neutral>
4.79381e-06

> <r_epik_State_Penalty>
-0

> <r_epik_Charging_Adjusted_Penalty>
1.29777e-07

> <i_epik_Tot_Q>
0

> <i_epik_Tot_abs_Q>
0

> <r_epik_Metal_State_Penalty>
-0

> <b_epik_Metal_Only>
0

> <s_epik_Chemistry_Notes>
This compound contains an acetal/aminal-like group ( X-CH(R)-Y where X, Y are N, S, or O) that may be acid/base labile, releasing an aldehyde.

> <s_lp_Force_Field>
OPLS_2005

> <r_lp_Energy>
44.8012

> <b_lp_Chiralities_Consistent>
1

> <s_lp_Variant>
AV-unprocessed.smi:284-7

> <Gold.Version>
5.8.1

> <Gold.Id.Protein>
6NUR|6NUR_protein|mol2

> <Gold.PLP.Fitness>
51.9295

> <Gold.PLP.PLP>
-43.3660

> <Gold.PLP.part.hbond>
-3.0000

> <Gold.PLP.part.metal>
0.0000

> <Gold.PLP.part.buried>
-3.2367

> <Gold.PLP.part.nonpolar>
-39.0688

> <Gold.PLP.part.repulsive>
2.9397

> <Gold.PLP.ligand.clash>
0.0000

> <Gold.PLP.ligand.torsion>
0.1718

> <Gold.PLP.Chemscore.Hbond>
2.9508

> <Gold.PLP.Chemscore.CHOScore>
0.0000

> <Gold.PLP.Chemscore.Metal>
0.0000

> <Gold.Chemscore.Hbonds>
donor molecule, donor type, donor heavy atom, donor atom, acceptor molecule, acceptor atom, score
      L1  H     8    40       P1 10186  1.00
      L1  H    11    44       P1 10747  0.84
      P1  H  7954  7966       L1    14  0.19

> <Gold.PLP.Chemscore.Internal.Correction>
0.0549

> <Gold.Rescore>
     Score         DG    S(hbond)    S(metal)    S(lipo)     H(rot)  DE(clash)    DE(int)     intcor
     14.01     -19.22       2.59        0.00     115.14       3.27       1.40       3.81       ----

> <Gold.Chemscore.Fitness>
14.0113

> <Gold.Chemscore.DG>
-19.2229

> <Gold.Chemscore.ZeroCoef>
-5.4800

> <Gold.Chemscore.Hbond>
2.5904

> <Gold.Chemscore.Metal>
0.0000

> <Gold.Chemscore.Lipo>
115.1372

> <Gold.Chemscore.Internal_Hbond>
0.0000

> <Gold.Chemscore.DEClash>
1.4029

> <Gold.Chemscore.DEInternal>
3.8088

> <Gold.Chemscore.Rot>
3.2735

> <Gold.Chemscore.Internal.Correction>
   9.000000E+99

> <Gold.Chemscore.Hbonds>
donor molecule, donor type, donor heavy atom, donor atom, acceptor molecule, acceptor atom, score
      L1  H     8    40       P1 10186  0.97
      L1  H    11    44       P1 10747  0.78
      P1  H  7954  7966       L1    14  0.21

> <Gold.Chemscore.Hbond.Weighted>
-8.6520

> <Gold.Chemscore.Metal.Weighted>
-0.0000

> <Gold.Chemscore.Lipo.Weighted>
-13.4711

> <Gold.Chemscore.Internal_Hbond.Weighted>
0.0000

> <Gold.Chemscore.DEClash.Weighted>
1.4029

> <Gold.Chemscore.DEInternal.Weighted>
3.8088

> <Gold.Chemscore.Rot.Weighted>
8.3801

> <Gold.Chemscore.Internal.Correction.Weighted>
   9.000000E+99

> <Gold.Protein.RotatedTorsions>
[ 6907 6896 6895 6894 ] final  135.94 input  -60.11 | X-H torsion
[ 7974 7965 7964 7962 ] final   61.53 input  175.53 | X-H torsion
[ 8008 7997 7996 7995 ] final  119.58 input   59.86 | X-H torsion
[ 10167 10162 10161 10158 ] final    6.82 input  -65.29 | X-H torsion
[ 10718 10713 10712 10709 ] final  -86.68 input   66.30 | X-H torsion
[ 10763 10752 10751 10750 ] final  -22.88 input  -60.55 | X-H torsion
[ 11005 11000 10999 10996 ] final -122.11 input  -57.11 | X-H torsion

> <Gold.Protein.ActiveResidues>
 VAL166  LYS551  ARG553  GLY616  TRP617  ASP618  TYR619  PRO620  LYS621  CYS622 
 ASP623  PHE694  ASN695  SER759  ASP760  ASP761  ALA762  ILE779  LEU786  VAL792 
 PHE793  MET794  SER795  GLU796  ALA797  LYS798  CYS799  TRP800  GLU811  SER814 

> <Gold.Protein.RotatedAtoms>
  152.2949  133.5598  159.5580 H   0  0  0  0  0  0  0  0  0  0  0  0  # atno 6907 bound_to 6896
  150.7251  134.0375  159.3763 H   0  0  0  0  0  0  0  0  0  0  0  0  # atno 6908 bound_to 6896
  151.8279  135.0631  160.0484 H   0  0  0  0  0  0  0  0  0  0  0  0  # atno 6909 bound_to 6896
  145.8836  139.3461  143.0691 H   0  0  0  0  0  0  0  0  0  0  0  0  # atno 7974 bound_to 7965
  156.2602  140.2850  156.1014 H   0  0  0  0  0  0  0  0  0  0  0  0  # atno 8008 bound_to 7997
  155.1356  140.0394  157.2803 H   0  0  0  0  0  0  0  0  0  0  0  0  # atno 8009 bound_to 7997
  154.6568  140.2557  155.7159 H   0  0  0  0  0  0  0  0  0  0  0  0  # atno 8010 bound_to 7997
  140.6406  143.7782  150.7423 H   0  0  0  0  0  0  0  0  0  0  0  0  # atno 10167 bound_to 10162
  155.9988  130.4773  150.4751 H   0  0  0  0  0  0  0  0  0  0  0  0  # atno 10718 bound_to 10713
  153.6590  135.6977  153.5184 H   0  0  0  0  0  0  0  0  0  0  0  0  # atno 10763 bound_to 10752
  153.2647  135.4234  155.0928 H   0  0  0  0  0  0  0  0  0  0  0  0  # atno 10764 bound_to 10752
  154.8457  135.3563  154.6135 H   0  0  0  0  0  0  0  0  0  0  0  0  # atno 10765 bound_to 10752
  141.0020  134.0390  157.3526 H   0  0  0  0  0  0  0  0  0  0  0  0  # atno 11005 bound_to 11000
  145.8993  140.9253  143.0511 LP  0  0  0  0  0  0  0  0  0  0  0  0  # atno 17320 bound_to 7965
  144.6728  140.1011  143.7460 LP  0  0  0  0  0  0  0  0  0  0  0  0  # atno 17321 bound_to 7965
  140.1413  143.4439  152.2192 LP  0  0  0  0  0  0  0  0  0  0  0  0  # atno 17342 bound_to 10162
  139.5616  144.7409  151.4140 LP  0  0  0  0  0  0  0  0  0  0  0  0  # atno 17343 bound_to 10162
  157.2762  131.0597  151.2227 LP  0  0  0  0  0  0  0  0  0  0  0  0  # atno 17370 bound_to 10713
  157.3290  130.6975  149.6313 LP  0  0  0  0  0  0  0  0  0  0  0  0  # atno 17371 bound_to 10713
  139.9043  135.0175  156.7416 LP  0  0  0  0  0  0  0  0  0  0  0  0  # atno 17394 bound_to 11000
  140.6874  133.9420  155.7946 LP  0  0  0  0  0  0  0  0  0  0  0  0  # atno 17395 bound_to 11000

$$$$
