AV-unprocessed.smi:2849|AV-procd|sdf|10960|dock1
  -GOLD-   2272015413D 1   1.00000     0.00000
 Structure written by MMmdl.
 55 58  0  0  0  0  0  0  0  0  2 V2000
  142.0076  134.4047  152.6844 C   0  0  0  0  0  0  0  0  0  0  0  0
  143.3128  134.2532  153.3705 N   0  3  2  0  0  0  0  0  0  0  0  0
  143.6170  135.3054  154.3691 C   0  0  1  0  0  0  0  0  0  0  0  0
  144.7524  134.8102  155.2937 C   0  0  0  0  0  0  0  0  0  0  0  0
  146.0057  134.3261  154.5397 C   0  0  0  0  0  0  0  0  0  0  0  0
  145.6601  133.4979  153.2865 C   0  0  0  0  0  0  0  0  0  0  0  0
  144.4725  134.0574  152.4684 C   0  0  2  0  0  0  0  0  0  0  0  0
  144.7766  135.3385  151.6510 C   0  0  0  0  0  0  0  0  0  0  0  0
  144.8086  136.6615  152.4551 C   0  0  2  0  0  0  0  0  0  0  0  0
  146.1787  137.0607  152.7683 N   0  0  0  0  0  0  0  0  0  0  0  0
  146.5431  138.0204  153.6309 C   0  0  0  0  0  0  0  0  0  0  0  0
  145.7391  138.7091  154.2577 O   0  0  0  0  0  0  0  0  0  0  0  0
  147.8815  138.1204  153.6984 N   0  0  0  0  0  0  0  0  0  0  0  0
  148.6817  138.9282  154.5518 C   0  0  0  0  0  0  0  0  0  0  0  0
  148.2991  139.3657  155.8427 C   0  0  0  0  0  0  0  0  0  0  0  0
  149.2039  140.1390  156.5951 C   0  0  0  0  0  0  0  0  0  0  0  0
  150.4640  140.4463  156.0427 C   0  0  0  0  0  0  0  0  0  0  0  0
  151.3660  141.2104  156.7987 N   0  0  0  0  0  0  0  0  0  0  0  0
  150.9488  142.5728  157.0890 C   0  0  0  0  0  0  0  0  0  0  0  0
  151.8768  143.0499  158.2074 C   0  0  0  0  0  0  0  0  0  0  0  0
  152.3601  141.7642  158.8893 C   0  0  0  0  0  0  0  0  0  0  0  0
  151.7368  140.6251  158.0763 C   0  0  0  0  0  0  0  0  0  0  0  0
  150.8363  140.0308  154.8087 N   0  0  0  0  0  0  0  0  0  0  0  0
  149.9646  139.2911  154.0922 C   0  0  0  0  0  0  0  0  0  0  0  0
  143.8699  136.6761  153.6924 C   0  0  0  0  0  0  0  0  0  0  0  0
  141.9609  135.3100  152.0794 H   0  0  0  0  0  0  0  0  0  0  0  0
  141.1981  134.4446  153.4136 H   0  0  0  0  0  0  0  0  0  0  0  0
  141.8206  133.5522  152.0309 H   0  0  0  0  0  0  0  0  0  0  0  0
  142.7383  135.4204  155.0057 H   0  0  0  0  0  0  0  0  0  0  0  0
  145.0238  135.5836  156.0130 H   0  0  0  0  0  0  0  0  0  0  0  0
  144.3698  133.9765  155.8843 H   0  0  0  0  0  0  0  0  0  0  0  0
  146.6355  135.1688  154.2758 H   0  0  0  0  0  0  0  0  0  0  0  0
  146.6233  133.7281  155.2107 H   0  0  0  0  0  0  0  0  0  0  0  0
  146.5422  133.3888  152.6547 H   0  0  0  0  0  0  0  0  0  0  0  0
  145.4013  132.4890  153.6110 H   0  0  0  0  0  0  0  0  0  0  0  0
  144.2058  133.2781  151.7528 H   0  0  0  0  0  0  0  0  0  0  0  0
  145.6969  135.2116  151.0793 H   0  0  0  0  0  0  0  0  0  0  0  0
  143.9974  135.4361  150.8943 H   0  0  0  0  0  0  0  0  0  0  0  0
  144.4460  137.4349  151.7747 H   0  0  0  0  0  0  0  0  0  0  0  0
  146.9136  136.5568  152.2933 H   0  0  0  0  0  0  0  0  0  0  0  0
  148.3989  137.5355  153.0587 H   0  0  0  0  0  0  0  0  0  0  0  0
  147.3454  139.1174  156.2799 H   0  0  0  0  0  0  0  0  0  0  0  0
  148.9355  140.4817  157.5838 H   0  0  0  0  0  0  0  0  0  0  0  0
  151.0271  143.2052  156.2042 H   0  0  0  0  0  0  0  0  0  0  0  0
  149.9129  142.5966  157.4300 H   0  0  0  0  0  0  0  0  0  0  0  0
  152.7275  143.5875  157.7863 H   0  0  0  0  0  0  0  0  0  0  0  0
  151.3664  143.7226  158.8969 H   0  0  0  0  0  0  0  0  0  0  0  0
  153.4487  141.7090  158.8540 H   0  0  0  0  0  0  0  0  0  0  0  0
  152.0586  141.7150  159.9360 H   0  0  0  0  0  0  0  0  0  0  0  0
  150.8550  140.2377  158.5890 H   0  0  0  0  0  0  0  0  0  0  0  0
  152.4363  139.7999  157.9407 H   0  0  0  0  0  0  0  0  0  0  0  0
  150.3067  138.9759  153.1172 H   0  0  0  0  0  0  0  0  0  0  0  0
  142.9042  137.0574  153.3590 H   0  0  0  0  0  0  0  0  0  0  0  0
  144.2044  137.4014  154.4349 H   0  0  0  0  0  0  0  0  0  0  0  0
  143.2283  133.3948  153.8962 H   0  0  0  0  0  0  0  0  0  0  0  0
  1  2  1  0  0  0  0
  1 26  1  0  0  0  0
  1 27  1  0  0  0  0
  1 28  1  0  0  0  0
  2  7  1  0  0  0  0
  2  3  1  0  0  0  0
  2 55  1  0  0  0  0
  3 25  1  0  0  0  0
  3  4  1  0  0  0  0
  3 29  1  0  0  0  0
  4  5  1  0  0  0  0
  4 30  1  0  0  0  0
  4 31  1  0  0  0  0
  5  6  1  0  0  0  0
  5 32  1  0  0  0  0
  5 33  1  0  0  0  0
  6  7  1  0  0  0  0
  6 34  1  0  0  0  0
  6 35  1  0  0  0  0
  7  8  1  0  0  0  0
  7 36  1  0  0  0  0
  8  9  1  0  0  0  0
  8 37  1  0  0  0  0
  8 38  1  0  0  0  0
  9 10  1  0  0  0  0
  9 25  1  0  0  0  0
  9 39  1  0  0  0  0
 10 11  1  0  0  0  0
 10 40  1  0  0  0  0
 11 12  2  0  0  0  0
 11 13  1  0  0  0  0
 13 14  1  0  0  0  0
 13 41  1  0  0  0  0
 14 24  1  0  0  0  0
 14 15  2  0  0  0  0
 15 16  1  0  0  0  0
 15 42  1  0  0  0  0
 16 17  2  0  0  0  0
 16 43  1  0  0  0  0
 17 18  1  0  0  0  0
 17 23  1  0  0  0  0
 18 22  1  0  0  0  0
 18 19  1  0  0  0  0
 19 20  1  0  0  0  0
 19 44  1  0  0  0  0
 19 45  1  0  0  0  0
 20 21  1  0  0  0  0
 20 46  1  0  0  0  0
 20 47  1  0  0  0  0
 21 22  1  0  0  0  0
 21 48  1  0  0  0  0
 21 49  1  0  0  0  0
 22 50  1  0  0  0  0
 22 51  1  0  0  0  0
 23 24  2  0  0  0  0
 24 52  1  0  0  0  0
 25 53  1  0  0  0  0
 25 54  1  0  0  0  0
M  CHG  1   2   1
M  END
> <s_m_source_file>
AV-unprocessed.smi

> <i_m_source_file_index>
2849

> <i_lp_mmshare_version>
43012

> <i_f3d_flags>
0

> <s_epik_input>
W0NIMl0xW0NIMl1bQ0gyXVtDQEhdKE4oW0NIM10pW0NIXTEyKVtDSDJdW0NASF0oW0NIMl0yKVtOSF1DKD1PKVtOSF1jM1tjSF1bY0hdYyhuW2NIXTMpTjRbQ0gyXVtDSDJdW0NIMl1bQ0gyXTQ=

> <s_epik_cmdline>
J2VwaWtfcHl0aG9uJywgJy1waCcsICc3LjAnLCAnLXRuJywgJzgnLCAnLW1hJywgJzIwMCcsICctbWV0YWxfYmluZGluZycsICctaW1hZScsICc8aW5maWxlLm1hZT4nLCAnLW9tYWUnLCAnPG91dGZpbGUubWFlPic=

> <r_lp_tautomer_probability>
1

> <r_epik_Ionization_Penalty>
0.07954

> <r_epik_Ionization_Penalty_Charging>
0.00089841

> <r_epik_Ionization_Penalty_Neutral>
0.0786416

> <r_epik_State_Penalty>
0.0689917

> <r_epik_Charging_Adjusted_Penalty>
0.0698901

> <i_epik_Tot_Q>
1

> <i_epik_Tot_abs_Q>
1

> <r_epik_Metal_State_Penalty>
0.060891

> <b_epik_Metal_Only>
0

> <s_lp_Force_Field>
OPLS_2005

> <r_lp_Energy>
67.2414

> <b_lp_Chiralities_Consistent>
1

> <s_lp_Variant>
AV-unprocessed.smi:2849-4

> <Gold.Version>
5.8.1

> <Gold.Id.Protein>
6NUR|6NUR_protein|mol2

> <Gold.PLP.Fitness>
48.2106

> <Gold.PLP.PLP>
-31.4534

> <Gold.PLP.part.hbond>
-4.0000

> <Gold.PLP.part.metal>
0.0000

> <Gold.PLP.part.buried>
-4.6642

> <Gold.PLP.part.nonpolar>
-23.0069

> <Gold.PLP.part.repulsive>
0.2509

> <Gold.PLP.ligand.clash>
0.0000

> <Gold.PLP.ligand.torsion>
0.3975

> <Gold.PLP.Chemscore.Hbond>
5.0000

> <Gold.PLP.Chemscore.CHOScore>
0.8273

> <Gold.PLP.Chemscore.Metal>
0.0000

> <Gold.Chemscore.Hbonds>
donor molecule, donor type, donor heavy atom, donor atom, acceptor molecule, acceptor atom, score
      L1  H     2    55       P1 10957  2.00
      L1  H    10    40       P1  7948  0.84
      L1  H    13    41       P1  7948  1.00
      P1  H  7989  7998       L1    23  0.95
      L1  C    24    52       P1  7957  0.86

> <Gold.PLP.Chemscore.Internal.Correction>
0.0702

> <Gold.Rescore>
     Score         DG    S(hbond)    S(metal)    S(lipo)     H(rot)  DE(clash)    DE(int)     intcor
     21.24     -23.73       3.48        0.00      82.57       1.18       0.84       1.65       ----

> <Gold.Chemscore.Fitness>
21.2426

> <Gold.Chemscore.DG>
-23.7348

> <Gold.Chemscore.ZeroCoef>
-5.4800

> <Gold.Chemscore.Hbond>
3.4757

> <Gold.Chemscore.Metal>
0.0000

> <Gold.Chemscore.Lipo>
82.5698

> <Gold.Chemscore.Internal_Hbond>
0.0000

> <Gold.Chemscore.DEClash>
0.8422

> <Gold.Chemscore.DEInternal>
1.6501

> <Gold.Chemscore.Rot>
1.1776

> <Gold.Chemscore.Internal.Correction>
   9.000000E+99

> <Gold.Chemscore.Hbonds>
donor molecule, donor type, donor heavy atom, donor atom, acceptor molecule, acceptor atom, score
      L1  H     2    55       P1 10957  0.99
      L1  H    10    40       P1  7948  0.79
      L1  H    13    41       P1  7948  1.00
      P1  H  7989  7998       L1    23  0.22

> <Gold.Chemscore.Hbond.Weighted>
-11.6089

> <Gold.Chemscore.Metal.Weighted>
-0.0000

> <Gold.Chemscore.Lipo.Weighted>
-9.6607

> <Gold.Chemscore.Internal_Hbond.Weighted>
0.0000

> <Gold.Chemscore.DEClash.Weighted>
0.8422

> <Gold.Chemscore.DEInternal.Weighted>
1.6501

> <Gold.Chemscore.Rot.Weighted>
3.0147

> <Gold.Chemscore.Internal.Correction.Weighted>
   9.000000E+99

> <Gold.Protein.RotatedTorsions>
[ 6907 6896 6895 6894 ] final  176.78 input  -60.11 | X-H torsion
[ 7974 7965 7964 7962 ] final -135.78 input  175.53 | X-H torsion
[ 8008 7997 7996 7995 ] final    8.70 input   59.86 | X-H torsion
[ 10167 10162 10161 10158 ] final  -13.63 input  -65.29 | X-H torsion
[ 10718 10713 10712 10709 ] final  121.72 input   66.30 | X-H torsion
[ 10763 10752 10751 10750 ] final -141.09 input  -60.55 | X-H torsion
[ 11005 11000 10999 10996 ] final  -80.36 input  -57.11 | X-H torsion

> <Gold.Protein.ActiveResidues>
 VAL166  LYS551  ARG553  GLY616  TRP617  ASP618  TYR619  PRO620  LYS621  CYS622 
 ASP623  PHE694  ASN695  SER759  ASP760  ASP761  ALA762  ILE779  LEU786  VAL792 
 PHE793  MET794  SER795  GLU796  ALA797  LYS798  CYS799  TRP800  GLU811  SER814 

> <Gold.Protein.RotatedAtoms>
  151.7146  133.3313  159.3299 H   0  0  0  0  0  0  0  0  0  0  0  0  # atno 6907 bound_to 6896
  150.7679  134.6502  159.6293 H   0  0  0  0  0  0  0  0  0  0  0  0  # atno 6908 bound_to 6896
  152.3690  134.6764  160.0234 H   0  0  0  0  0  0  0  0  0  0  0  0  # atno 6909 bound_to 6896
  144.8984  140.6738  143.5100 H   0  0  0  0  0  0  0  0  0  0  0  0  # atno 7974 bound_to 7965
  154.7703  140.2800  155.6143 H   0  0  0  0  0  0  0  0  0  0  0  0  # atno 8008 bound_to 7997
  156.2932  140.2643  156.2431 H   0  0  0  0  0  0  0  0  0  0  0  0  # atno 8009 bound_to 7997
  154.9908  140.0373  157.2308 H   0  0  0  0  0  0  0  0  0  0  0  0  # atno 8010 bound_to 7997
  140.7186  143.5406  150.9413 H   0  0  0  0  0  0  0  0  0  0  0  0  # atno 10167 bound_to 10162
  157.5796  131.1076  150.8212 H   0  0  0  0  0  0  0  0  0  0  0  0  # atno 10718 bound_to 10713
  154.8557  135.3534  154.5813 H   0  0  0  0  0  0  0  0  0  0  0  0  # atno 10763 bound_to 10752
  153.6424  135.6997  153.5242 H   0  0  0  0  0  0  0  0  0  0  0  0  # atno 10764 bound_to 10752
  153.2960  135.4220  155.1169 H   0  0  0  0  0  0  0  0  0  0  0  0  # atno 10765 bound_to 10752
  141.1668  133.7146  156.8260 H   0  0  0  0  0  0  0  0  0  0  0  0  # atno 11005 bound_to 11000
  145.3659  139.1670  143.4358 LP  0  0  0  0  0  0  0  0  0  0  0  0  # atno 17320 bound_to 7965
  146.3095  140.3726  142.8675 LP  0  0  0  0  0  0  0  0  0  0  0  0  # atno 17321 bound_to 7965
  139.9129  143.6699  152.3112 LP  0  0  0  0  0  0  0  0  0  0  0  0  # atno 17342 bound_to 10162
  139.7088  144.7623  151.1147 LP  0  0  0  0  0  0  0  0  0  0  0  0  # atno 17343 bound_to 10162
  156.8662  130.5130  149.5300 LP  0  0  0  0  0  0  0  0  0  0  0  0  # atno 17370 bound_to 10713
  156.0842  130.5844  150.9617 LP  0  0  0  0  0  0  0  0  0  0  0  0  # atno 17371 bound_to 10713
  140.2085  134.8845  157.3248 LP  0  0  0  0  0  0  0  0  0  0  0  0  # atno 17394 bound_to 11000
  140.2112  134.4136  155.7612 LP  0  0  0  0  0  0  0  0  0  0  0  0  # atno 17395 bound_to 11000

$$$$
