AV-unprocessed.smi:1619|AV-procd|sdf|6488|dock10
  -GOLD-   22720 7153D 1   1.00000     0.00000
 Structure written by MMmdl.
 44 46  0  0  0  0  0  0  0  0  2 V2000
  152.6240  143.4022  160.1651 C   0  0  0  0  0  0  0  0  0  0  0  0
  152.1605  142.5412  159.0033 C   0  0  0  0  0  0  0  0  0  0  0  0
  152.8220  141.3193  158.7470 C   0  0  0  0  0  0  0  0  0  0  0  0
  152.4234  140.4908  157.6755 C   0  0  0  0  0  0  0  0  0  0  0  0
  152.9213  139.2718  157.2488 N   0  0  0  0  0  0  0  0  0  0  0  0
  152.1370  139.0109  156.2076 C   0  0  0  0  0  0  0  0  0  0  0  0
  151.1787  139.9120  155.9162 N   0  0  0  0  0  0  0  0  0  0  0  0
  150.2084  139.8399  154.8388 C   0  0  0  0  0  0  0  0  0  0  0  0
  149.5340  141.1963  154.5516 C   0  0  1  0  0  0  0  0  0  0  0  0
  149.3220  141.2868  153.1575 O   0  0  0  0  0  0  0  0  0  0  0  0
  148.1818  141.3813  155.2745 C   0  0  0  0  0  0  0  0  0  0  0  0
  147.5765  142.7056  154.9992 N   0  3  0  0  0  0  0  0  0  0  0  0
  146.7775  142.7599  153.7591 C   0  0  0  0  0  0  0  0  0  0  0  0
  145.8386  143.9460  153.9499 C   0  0  0  0  0  0  0  0  0  0  0  0
  145.4944  143.8704  155.4342 C   0  0  0  0  0  0  0  0  0  0  0  0
  146.7410  143.2621  156.0915 C   0  0  0  0  0  0  0  0  0  0  0  0
  151.3352  140.9209  156.8609 C   0  0  0  0  0  0  0  0  0  0  0  0
  150.6701  142.1355  157.1048 C   0  0  0  0  0  0  0  0  0  0  0  0
  151.0803  142.9505  158.1806 C   0  0  0  0  0  0  0  0  0  0  0  0
  150.3543  144.2594  158.4376 C   0  0  0  0  0  0  0  0  0  0  0  0
  153.4729  142.9524  160.6806 H   0  0  0  0  0  0  0  0  0  0  0  0
  151.8207  143.5284  160.8910 H   0  0  0  0  0  0  0  0  0  0  0  0
  152.9310  144.3871  159.8130 H   0  0  0  0  0  0  0  0  0  0  0  0
  153.6455  141.0080  159.3730 H   0  0  0  0  0  0  0  0  0  0  0  0
  152.2617  138.1081  155.6273 H   0  0  0  0  0  0  0  0  0  0  0  0
  150.7180  139.4721  153.9471 H   0  0  0  0  0  0  0  0  0  0  0  0
  149.4574  139.0924  155.1001 H   0  0  0  0  0  0  0  0  0  0  0  0
  150.2196  141.9938  154.8379 H   0  0  0  0  0  0  0  0  0  0  0  0
  149.4211  140.4253  152.7802 H   0  0  0  0  0  0  0  0  0  0  0  0
  147.4921  140.5979  154.9561 H   0  0  0  0  0  0  0  0  0  0  0  0
  148.2951  141.2728  156.3540 H   0  0  0  0  0  0  0  0  0  0  0  0
  147.4090  142.8612  152.8761 H   0  0  0  0  0  0  0  0  0  0  0  0
  146.1938  141.8435  153.6551 H   0  0  0  0  0  0  0  0  0  0  0  0
  146.3669  144.8764  153.7373 H   0  0  0  0  0  0  0  0  0  0  0  0
  144.9594  143.9010  153.3061 H   0  0  0  0  0  0  0  0  0  0  0  0
  145.2288  144.8416  155.8528 H   0  0  0  0  0  0  0  0  0  0  0  0
  144.6425  143.2041  155.5777 H   0  0  0  0  0  0  0  0  0  0  0  0
  146.4532  142.4999  156.8177 H   0  0  0  0  0  0  0  0  0  0  0  0
  147.3172  144.0214  156.6214 H   0  0  0  0  0  0  0  0  0  0  0  0
  149.8518  142.4393  156.4689 H   0  0  0  0  0  0  0  0  0  0  0  0
  149.5275  144.3998  157.7407 H   0  0  0  0  0  0  0  0  0  0  0  0
  151.0357  145.1028  158.3232 H   0  0  0  0  0  0  0  0  0  0  0  0
  149.9452  144.2791  159.4481 H   0  0  0  0  0  0  0  0  0  0  0  0
  148.3387  143.3553  154.8658 H   0  0  0  0  0  0  0  0  0  0  0  0
  1  2  1  0  0  0  0
  1 21  1  0  0  0  0
  1 22  1  0  0  0  0
  1 23  1  0  0  0  0
  2 19  1  0  0  0  0
  2  3  2  0  0  0  0
  3  4  1  0  0  0  0
  3 24  1  0  0  0  0
  4 17  2  0  0  0  0
  4  5  1  0  0  0  0
  5  6  2  0  0  0  0
  6  7  1  0  0  0  0
  6 25  1  0  0  0  0
  7  8  1  0  0  0  0
  7 17  1  0  0  0  0
  8  9  1  0  0  0  0
  8 26  1  0  0  0  0
  8 27  1  0  0  0  0
  9 10  1  0  0  0  0
  9 11  1  0  0  0  0
  9 28  1  0  0  0  0
 10 29  1  0  0  0  0
 11 12  1  0  0  0  0
 11 30  1  0  0  0  0
 11 31  1  0  0  0  0
 12 16  1  0  0  0  0
 12 13  1  0  0  0  0
 12 44  1  0  0  0  0
 13 14  1  0  0  0  0
 13 32  1  0  0  0  0
 13 33  1  0  0  0  0
 14 15  1  0  0  0  0
 14 34  1  0  0  0  0
 14 35  1  0  0  0  0
 15 16  1  0  0  0  0
 15 36  1  0  0  0  0
 15 37  1  0  0  0  0
 16 38  1  0  0  0  0
 16 39  1  0  0  0  0
 17 18  1  0  0  0  0
 18 19  2  0  0  0  0
 18 40  1  0  0  0  0
 19 20  1  0  0  0  0
 20 41  1  0  0  0  0
 20 42  1  0  0  0  0
 20 43  1  0  0  0  0
M  CHG  1  12   1
M  END
> <s_m_source_file>
AV-unprocessed.smi

> <i_m_source_file_index>
1619

> <i_lp_mmshare_version>
43012

> <i_f3d_flags>
0

> <s_epik_input>
W0NIM11jKFtjSF0xKWMoW0NIM10pW2NIXWMoYzEyKW4oW2NIXW4yKVtDSDJdW0NASF0oW09IXSlbQ0gyXU4zW0NIMl1bQ0gyXVtDSDJdW0NIMl0z

> <s_epik_cmdline>
J2VwaWtfcHl0aG9uJywgJy1waCcsICc3LjAnLCAnLXRuJywgJzgnLCAnLW1hJywgJzIwMCcsICctbWV0YWxfYmluZGluZycsICctaW1hZScsICc8aW5maWxlLm1hZT4nLCAnLW9tYWUnLCAnPG91dGZpbGUubWFlPic=

> <r_epik_Ionization_Penalty>
0.0947557

> <r_epik_Ionization_Penalty_Charging>
0.00674132

> <r_epik_Ionization_Penalty_Neutral>
0.0880144

> <r_epik_State_Penalty>
0.0806172

> <r_epik_Charging_Adjusted_Penalty>
0.0873585

> <i_epik_Tot_Q>
1

> <i_epik_Tot_abs_Q>
1

> <r_epik_Metal_State_Penalty>
8.03852e-05

> <b_epik_Metal_Only>
0

> <s_lp_Force_Field>
OPLS_2005

> <r_lp_Energy>
32.1533

> <b_lp_Chiralities_Consistent>
1

> <s_lp_Variant>
AV-unprocessed.smi:1619-2

> <Gold.Version>
5.8.1

> <Gold.Id.Protein>
6NUR|6NUR_protein|mol2

> <Gold.PLP.Fitness>
53.1624

> <Gold.PLP.PLP>
-42.5900

> <Gold.PLP.part.hbond>
-4.7952

> <Gold.PLP.part.metal>
0.0000

> <Gold.PLP.part.buried>
-2.7003

> <Gold.PLP.part.nonpolar>
-34.3660

> <Gold.PLP.part.repulsive>
0.0832

> <Gold.PLP.ligand.clash>
1.7109

> <Gold.PLP.ligand.torsion>
1.0225

> <Gold.PLP.Chemscore.Hbond>
4.7680

> <Gold.PLP.Chemscore.CHOScore>
0.0000

> <Gold.PLP.Chemscore.Metal>
0.0000

> <Gold.Chemscore.Hbonds>
donor molecule, donor type, donor heavy atom, donor atom, acceptor molecule, acceptor atom, score
      L1  H    10    29       P1  7957  0.54
      L1  H    12    44       P1  8028  1.41
      P1  H  7997  8008       L1     5  0.50
      P1  H  8011  8017       L1    10  0.86

> <Gold.PLP.Chemscore.Internal.Correction>
0.0241

> <Gold.Rescore>
     Score         DG    S(hbond)    S(metal)    S(lipo)     H(rot)  DE(clash)    DE(int)     intcor
     17.96     -20.34       2.22        0.00     107.82       2.02       0.16       2.22       ----

> <Gold.Chemscore.Fitness>
17.9631

> <Gold.Chemscore.DG>
-20.3388

> <Gold.Chemscore.ZeroCoef>
-5.4800

> <Gold.Chemscore.Hbond>
2.2220

> <Gold.Chemscore.Metal>
0.0000

> <Gold.Chemscore.Lipo>
107.8239

> <Gold.Chemscore.Internal_Hbond>
0.0000

> <Gold.Chemscore.DEClash>
0.1604

> <Gold.Chemscore.DEInternal>
2.2153

> <Gold.Chemscore.Rot>
2.0227

> <Gold.Chemscore.Internal.Correction>
   9.000000E+99

> <Gold.Chemscore.Hbonds>
donor molecule, donor type, donor heavy atom, donor atom, acceptor molecule, acceptor atom, score
      L1  H    10    29       P1  7957  0.54
      L1  H    12    44       P1  8028  0.69
      P1  H  7997  8008       L1     5  0.02
      P1  H  8011  8017       L1    10  0.77

> <Gold.Chemscore.Hbond.Weighted>
-7.4214

> <Gold.Chemscore.Metal.Weighted>
-0.0000

> <Gold.Chemscore.Lipo.Weighted>
-12.6154

> <Gold.Chemscore.Internal_Hbond.Weighted>
0.0000

> <Gold.Chemscore.DEClash.Weighted>
0.1604

> <Gold.Chemscore.DEInternal.Weighted>
2.2153

> <Gold.Chemscore.Rot.Weighted>
5.1780

> <Gold.Chemscore.Internal.Correction.Weighted>
   9.000000E+99

> <Gold.Protein.RotatedTorsions>
[ 6907 6896 6895 6894 ] final  103.19 input  -60.11 | X-H torsion
[ 7974 7965 7964 7962 ] final  168.63 input  175.53 | X-H torsion
[ 8008 7997 7996 7995 ] final  -65.54 input   59.86 | X-H torsion
[ 10167 10162 10161 10158 ] final  -54.28 input  -65.29 | X-H torsion
[ 10718 10713 10712 10709 ] final -107.63 input   66.30 | X-H torsion
[ 10763 10752 10751 10750 ] final   70.96 input  -60.55 | X-H torsion
[ 11005 11000 10999 10996 ] final  148.66 input  -57.11 | X-H torsion

> <Gold.Protein.ActiveResidues>
 VAL166  LYS551  ARG553  GLY616  TRP617  ASP618  TYR619  PRO620  LYS621  CYS622 
 ASP623  PHE694  ASN695  SER759  ASP760  ASP761  ALA762  ILE779  LEU786  VAL792 
 PHE793  MET794  SER795  GLU796  ALA797  LYS798  CYS799  TRP800  GLU811  SER814 

> <Gold.Protein.RotatedAtoms>
  152.5302  133.9862  159.7829 H   0  0  0  0  0  0  0  0  0  0  0  0  # atno 6907 bound_to 6896
  151.0106  133.5960  159.2690 H   0  0  0  0  0  0  0  0  0  0  0  0  # atno 6908 bound_to 6896
  151.3036  135.0782  159.9300 H   0  0  0  0  0  0  0  0  0  0  0  0  # atno 6909 bound_to 6896
  144.7382  139.8935  143.6404 H   0  0  0  0  0  0  0  0  0  0  0  0  # atno 7974 bound_to 7965
  154.4678  140.0931  156.7066 H   0  0  0  0  0  0  0  0  0  0  0  0  # atno 8008 bound_to 7997
  155.4809  140.3467  155.4321 H   0  0  0  0  0  0  0  0  0  0  0  0  # atno 8009 bound_to 7997
  156.0987  140.1416  156.9485 H   0  0  0  0  0  0  0  0  0  0  0  0  # atno 8010 bound_to 7997
  140.6439  143.2524  151.4913 H   0  0  0  0  0  0  0  0  0  0  0  0  # atno 10167 bound_to 10162
  156.0446  130.5672  150.7848 H   0  0  0  0  0  0  0  0  0  0  0  0  # atno 10718 bound_to 10713
  153.0371  135.5155  154.7520 H   0  0  0  0  0  0  0  0  0  0  0  0  # atno 10763 bound_to 10752
  154.6487  135.2922  155.0016 H   0  0  0  0  0  0  0  0  0  0  0  0  # atno 10764 bound_to 10752
  154.0907  135.6650  153.4904 H   0  0  0  0  0  0  0  0  0  0  0  0  # atno 10765 bound_to 10752
  140.0979  134.9001  157.1751 H   0  0  0  0  0  0  0  0  0  0  0  0  # atno 11005 bound_to 11000
  146.1124  139.4131  143.0279 LP  0  0  0  0  0  0  0  0  0  0  0  0  # atno 17320 bound_to 7965
  145.7423  141.0003  143.1294 LP  0  0  0  0  0  0  0  0  0  0  0  0  # atno 17321 bound_to 7965
  139.5649  144.2067  152.1749 LP  0  0  0  0  0  0  0  0  0  0  0  0  # atno 17342 bound_to 10162
  140.1345  144.5258  150.6782 LP  0  0  0  0  0  0  0  0  0  0  0  0  # atno 17343 bound_to 10162
  157.5306  131.0936  150.9960 LP  0  0  0  0  0  0  0  0  0  0  0  0  # atno 17370 bound_to 10713
  157.0268  130.5695  149.5338 LP  0  0  0  0  0  0  0  0  0  0  0  0  # atno 17371 bound_to 10713
  140.3261  134.2862  155.7237 LP  0  0  0  0  0  0  0  0  0  0  0  0  # atno 17394 bound_to 11000
  141.2097  133.7740  156.9978 LP  0  0  0  0  0  0  0  0  0  0  0  0  # atno 17395 bound_to 11000

$$$$
