AV-unprocessed.smi:2780|AV-procd|sdf|10714|dock7
  -GOLD-   2272015153D 1   1.00000     0.00000
 Structure written by MMmdl.
 47 49  0  0  0  0  0  0  0  0  2 V2000
  151.4033  145.2992  159.5421 C   0  0  0  0  0  0  0  0  0  0  0  0
  151.9178  143.9676  160.0639 C   0  0  0  0  0  0  0  0  0  0  0  0
  152.2477  143.8425  161.3636 C   0  0  0  0  0  0  0  0  0  0  0  0
  152.8354  142.5931  161.9779 C   0  0  0  0  0  0  0  0  0  0  0  0
  153.4658  141.6990  160.9080 C   0  0  0  0  0  0  0  0  0  0  0  0
  152.5066  141.4709  159.7281 C   0  0  2  0  0  0  0  0  0  0  0  0
  153.1536  140.4951  158.7256 C   0  0  0  0  0  0  0  0  0  0  0  0
  152.0618  142.8074  159.0572 C   0  0  1  0  0  0  0  0  0  0  0  0
  150.7778  142.5804  158.2157 C   0  0  0  0  0  0  0  0  0  0  0  0
  150.9331  142.9960  156.8064 N   0  3  0  0  0  0  0  0  0  0  0  0
  150.6792  141.9211  155.8287 C   0  0  0  0  0  0  0  0  0  0  0  0
  151.1784  140.5698  156.3576 C   0  0  0  0  0  0  0  0  0  0  0  0
  151.3928  139.6201  155.2811 N   0  0  0  0  0  0  0  0  0  0  0  0
  152.5512  139.0934  154.8545 C   0  0  0  0  0  0  0  0  0  0  0  0
  152.4408  138.2278  153.8482 N   0  0  0  0  0  0  0  0  0  0  0  0
  151.0863  138.1690  153.5880 N   0  0  0  0  0  0  0  0  0  0  0  0
  150.5158  139.0167  154.4521 C   0  0  0  0  0  0  0  0  0  0  0  0
  149.0393  139.2368  154.5428 C   0  0  0  0  0  0  0  0  0  0  0  0
  148.2099  139.5194  153.3093 C   0  0  0  0  0  0  0  0  0  0  0  0
  148.4389  140.6083  154.3248 C   0  0  0  0  0  0  0  0  0  0  0  0
  151.9649  145.6073  158.6600 H   0  0  0  0  0  0  0  0  0  0  0  0
  151.5089  146.0853  160.2908 H   0  0  0  0  0  0  0  0  0  0  0  0
  150.3456  145.2356  159.2872 H   0  0  0  0  0  0  0  0  0  0  0  0
  152.1090  144.6753  162.0382 H   0  0  0  0  0  0  0  0  0  0  0  0
  153.5899  142.8761  162.7126 H   0  0  0  0  0  0  0  0  0  0  0  0
  152.0479  142.0628  162.5143 H   0  0  0  0  0  0  0  0  0  0  0  0
  154.3865  142.1593  160.5461 H   0  0  0  0  0  0  0  0  0  0  0  0
  153.7536  140.7475  161.3570 H   0  0  0  0  0  0  0  0  0  0  0  0
  151.6181  140.9856  160.1353 H   0  0  0  0  0  0  0  0  0  0  0  0
  154.0461  140.9282  158.2729 H   0  0  0  0  0  0  0  0  0  0  0  0
  152.4774  140.2143  157.9198 H   0  0  0  0  0  0  0  0  0  0  0  0
  153.4543  139.5712  159.2205 H   0  0  0  0  0  0  0  0  0  0  0  0
  152.8638  143.1094  158.3817 H   0  0  0  0  0  0  0  0  0  0  0  0
  150.4944  141.5291  158.2054 H   0  0  0  0  0  0  0  0  0  0  0  0
  149.9424  143.1170  158.6679 H   0  0  0  0  0  0  0  0  0  0  0  0
  150.2857  143.7502  156.6262 H   0  0  0  0  0  0  0  0  0  0  0  0
  149.6108  141.8729  155.6173 H   0  0  0  0  0  0  0  0  0  0  0  0
  151.1822  142.1654  154.8919 H   0  0  0  0  0  0  0  0  0  0  0  0
  152.1211  140.6973  156.8915 H   0  0  0  0  0  0  0  0  0  0  0  0
  150.4689  140.1490  157.0707 H   0  0  0  0  0  0  0  0  0  0  0  0
  153.5041  139.3476  155.2956 H   0  0  0  0  0  0  0  0  0  0  0  0
  148.6034  138.6044  155.3138 H   0  0  0  0  0  0  0  0  0  0  0  0
  148.7279  139.6075  152.3561 H   0  0  0  0  0  0  0  0  0  0  0  0
  147.2171  139.0770  153.2608 H   0  0  0  0  0  0  0  0  0  0  0  0
  147.5992  140.8943  154.9546 H   0  0  0  0  0  0  0  0  0  0  0  0
  149.1038  141.4194  154.0357 H   0  0  0  0  0  0  0  0  0  0  0  0
  151.8736  143.3399  156.6745 H   0  0  0  0  0  0  0  0  0  0  0  0
  1  2  1  0  0  0  0
  1 21  1  0  0  0  0
  1 22  1  0  0  0  0
  1 23  1  0  0  0  0
  2  8  1  0  0  0  0
  2  3  2  0  0  0  0
  3  4  1  0  0  0  0
  3 24  1  0  0  0  0
  4  5  1  0  0  0  0
  4 25  1  0  0  0  0
  4 26  1  0  0  0  0
  5  6  1  0  0  0  0
  5 27  1  0  0  0  0
  5 28  1  0  0  0  0
  6  7  1  0  0  0  0
  6  8  1  0  0  0  0
  6 29  1  0  0  0  0
  7 30  1  0  0  0  0
  7 31  1  0  0  0  0
  7 32  1  0  0  0  0
  8  9  1  0  0  0  0
  8 33  1  0  0  0  0
  9 10  1  0  0  0  0
  9 34  1  0  0  0  0
  9 35  1  0  0  0  0
 10 11  1  0  0  0  0
 10 36  1  0  0  0  0
 10 47  1  0  0  0  0
 11 12  1  0  0  0  0
 11 37  1  0  0  0  0
 11 38  1  0  0  0  0
 12 13  1  0  0  0  0
 12 39  1  0  0  0  0
 12 40  1  0  0  0  0
 13 17  1  0  0  0  0
 13 14  1  0  0  0  0
 14 15  2  0  0  0  0
 14 41  1  0  0  0  0
 15 16  1  0  0  0  0
 16 17  2  0  0  0  0
 17 18  1  0  0  0  0
 18 20  1  0  0  0  0
 18 19  1  0  0  0  0
 18 42  1  0  0  0  0
 19 20  1  0  0  0  0
 19 43  1  0  0  0  0
 19 44  1  0  0  0  0
 20 45  1  0  0  0  0
 20 46  1  0  0  0  0
M  CHG  1  10   1
M  END
> <s_m_source_file>
AV-unprocessed.smi

> <i_m_source_file_index>
2780

> <i_lp_mmshare_version>
43012

> <i_f3d_flags>
0

> <s_epik_input>
W0NIM11DMT1bQ0hdW0NIMl1bQ0gyXVtDQEBIXShbQ0gzXSlbQ0BIXTFbQ0gyXVtOSF1bQ0gyXVtDSDJdbjJbY0hdbm5jMltDSF0zW0NIMl1bQ0gyXTM=

> <s_epik_cmdline>
J2VwaWtfcHl0aG9uJywgJy1waCcsICc3LjAnLCAnLXRuJywgJzgnLCAnLW1hJywgJzIwMCcsICctbWV0YWxfYmluZGluZycsICctaW1hZScsICc8aW5maWxlLm1hZT4nLCAnLW9tYWUnLCAnPG91dGZpbGUubWFlPic=

> <r_lp_tautomer_probability>
1

> <r_epik_Ionization_Penalty>
0.00176214

> <r_epik_Ionization_Penalty_Charging>
0.00175191

> <r_epik_Ionization_Penalty_Neutral>
1.02377e-05

> <r_epik_State_Penalty>
-0

> <r_epik_Charging_Adjusted_Penalty>
0.00175191

> <i_epik_Tot_Q>
1

> <i_epik_Tot_abs_Q>
1

> <r_epik_Metal_State_Penalty>
-0

> <b_epik_Metal_Only>
0

> <s_lp_Force_Field>
OPLS_2005

> <r_lp_Energy>
22.2191

> <b_lp_Chiralities_Consistent>
1

> <s_lp_Variant>
AV-unprocessed.smi:2780-2

> <Gold.Version>
5.8.1

> <Gold.Id.Protein>
6NUR|6NUR_protein|mol2

> <Gold.PLP.Fitness>
53.8210

> <Gold.PLP.PLP>
-49.1546

> <Gold.PLP.part.hbond>
-2.0000

> <Gold.PLP.part.metal>
0.0000

> <Gold.PLP.part.buried>
-5.6490

> <Gold.PLP.part.nonpolar>
-43.0101

> <Gold.PLP.part.repulsive>
0.5704

> <Gold.PLP.ligand.clash>
0.0000

> <Gold.PLP.ligand.torsion>
1.4933

> <Gold.PLP.Chemscore.Hbond>
2.4690

> <Gold.PLP.Chemscore.CHOScore>
0.0000

> <Gold.PLP.Chemscore.Metal>
0.0000

> <Gold.Chemscore.Hbonds>
donor molecule, donor type, donor heavy atom, donor atom, acceptor molecule, acceptor atom, score
      L1  H    10    36       P1  8028  2.00

> <Gold.PLP.Chemscore.Internal.Correction>
0.2459

> <Gold.Rescore>
     Score         DG    S(hbond)    S(metal)    S(lipo)     H(rot)  DE(clash)    DE(int)     intcor
     18.87     -20.64       1.76        0.00     122.54       1.98       0.12       1.65       ----

> <Gold.Chemscore.Fitness>
18.8741

> <Gold.Chemscore.DG>
-20.6421

> <Gold.Chemscore.ZeroCoef>
-5.4800

> <Gold.Chemscore.Hbond>
1.7644

> <Gold.Chemscore.Metal>
0.0000

> <Gold.Chemscore.Lipo>
122.5433

> <Gold.Chemscore.Internal_Hbond>
0.0000

> <Gold.Chemscore.DEClash>
0.1225

> <Gold.Chemscore.DEInternal>
1.6454

> <Gold.Chemscore.Rot>
1.9799

> <Gold.Chemscore.Internal.Correction>
   9.000000E+99

> <Gold.Chemscore.Hbonds>
donor molecule, donor type, donor heavy atom, donor atom, acceptor molecule, acceptor atom, score
      L1  H    10    36       P1  8028  0.98

> <Gold.Chemscore.Hbond.Weighted>
-5.8930

> <Gold.Chemscore.Metal.Weighted>
-0.0000

> <Gold.Chemscore.Lipo.Weighted>
-14.3376

> <Gold.Chemscore.Internal_Hbond.Weighted>
0.0000

> <Gold.Chemscore.DEClash.Weighted>
0.1225

> <Gold.Chemscore.DEInternal.Weighted>
1.6454

> <Gold.Chemscore.Rot.Weighted>
5.0685

> <Gold.Chemscore.Internal.Correction.Weighted>
   9.000000E+99

> <Gold.Protein.RotatedTorsions>
[ 6907 6896 6895 6894 ] final  -53.59 input  -60.11 | X-H torsion
[ 7974 7965 7964 7962 ] final  116.85 input  175.53 | X-H torsion
[ 8008 7997 7996 7995 ] final  -93.05 input   59.86 | X-H torsion
[ 10167 10162 10161 10158 ] final   56.33 input  -65.29 | X-H torsion
[ 10718 10713 10712 10709 ] final -133.47 input   66.30 | X-H torsion
[ 10763 10752 10751 10750 ] final  151.21 input  -60.55 | X-H torsion
[ 11005 11000 10999 10996 ] final  129.26 input  -57.11 | X-H torsion

> <Gold.Protein.ActiveResidues>
 VAL166  LYS551  ARG553  GLY616  TRP617  ASP618  TYR619  PRO620  LYS621  CYS622 
 ASP623  PHE694  ASN695  SER759  ASP760  ASP761  ALA762  ILE779  LEU786  VAL792 
 PHE793  MET794  SER795  GLU796  ALA797  LYS798  CYS799  TRP800  GLU811  SER814 

> <Gold.Protein.RotatedAtoms>
  150.8413  134.7706  159.6934 H   0  0  0  0  0  0  0  0  0  0  0  0  # atno 6907 bound_to 6896
  152.4500  134.5411  159.9849 H   0  0  0  0  0  0  0  0  0  0  0  0  # atno 6908 bound_to 6896
  151.5550  133.3374  159.2996 H   0  0  0  0  0  0  0  0  0  0  0  0  # atno 6909 bound_to 6896
  145.1745  139.3083  143.4450 H   0  0  0  0  0  0  0  0  0  0  0  0  # atno 7974 bound_to 7965
  154.7307  140.0503  157.0724 H   0  0  0  0  0  0  0  0  0  0  0  0  # atno 8008 bound_to 7997
  155.0305  140.3157  155.4741 H   0  0  0  0  0  0  0  0  0  0  0  0  # atno 8009 bound_to 7997
  156.2841  140.2151  156.5426 H   0  0  0  0  0  0  0  0  0  0  0  0  # atno 8010 bound_to 7997
  140.2099  144.3900  150.6493 H   0  0  0  0  0  0  0  0  0  0  0  0  # atno 10167 bound_to 10162
  156.2452  130.7120  151.0997 H   0  0  0  0  0  0  0  0  0  0  0  0  # atno 10718 bound_to 10713
  154.1001  135.2846  155.3253 H   0  0  0  0  0  0  0  0  0  0  0  0  # atno 10763 bound_to 10752
  154.6561  135.5351  153.7963 H   0  0  0  0  0  0  0  0  0  0  0  0  # atno 10764 bound_to 10752
  153.0382  135.6522  154.1166 H   0  0  0  0  0  0  0  0  0  0  0  0  # atno 10765 bound_to 10752
  139.9606  134.9603  156.9123 H   0  0  0  0  0  0  0  0  0  0  0  0  # atno 11005 bound_to 11000
  146.3463  140.1903  142.8589 LP  0  0  0  0  0  0  0  0  0  0  0  0  # atno 17320 bound_to 7965
  145.0199  140.8785  143.5173 LP  0  0  0  0  0  0  0  0  0  0  0  0  # atno 17321 bound_to 7965
  140.6331  143.2190  151.6454 LP  0  0  0  0  0  0  0  0  0  0  0  0  # atno 17342 bound_to 10162
  139.5184  144.3286  152.0847 LP  0  0  0  0  0  0  0  0  0  0  0  0  # atno 17343 bound_to 10162
  157.7192  131.0692  150.6205 LP  0  0  0  0  0  0  0  0  0  0  0  0  # atno 17370 bound_to 10713
  156.6281  130.4424  149.5797 LP  0  0  0  0  0  0  0  0  0  0  0  0  # atno 17371 bound_to 10713
  140.5510  134.0627  155.7369 LP  0  0  0  0  0  0  0  0  0  0  0  0  # atno 17394 bound_to 11000
  141.1282  133.9347  157.2591 LP  0  0  0  0  0  0  0  0  0  0  0  0  # atno 17395 bound_to 11000

$$$$
