AV-unprocessed.smi:3289|AV-procd|sdf|12609|dock3
  -GOLD-   2272018533D 1   1.00000     0.00000
 Structure written by MMmdl.
 39 40  0  0  0  0  0  0  0  0  1 V2000
  151.1659  142.3067  157.4148 C   0  0  0  0  0  0  0  0  0  0  0  0
  150.3533  141.5059  156.3874 C   0  0  0  0  0  0  0  0  0  0  0  0
  148.9106  141.2652  156.8571 C   0  0  0  0  0  0  0  0  0  0  0  0
  151.0401  140.2166  156.0246 C   0  0  0  0  0  0  0  0  0  0  0  0
  151.4681  139.9423  154.7943 N   0  0  0  0  0  0  0  0  0  0  0  0
  152.0323  138.6759  154.8806 C   0  0  0  0  0  0  0  0  0  0  0  0
  151.9189  138.2165  156.1692 C   0  0  0  0  0  0  0  0  0  0  0  0
  151.2725  139.2093  156.8962 N   0  0  0  0  0  0  0  0  0  0  0  0
  150.9385  139.1216  158.3123 C   0  0  0  0  0  0  0  0  0  0  0  0
  150.2598  137.7968  158.6831 C   0  0  0  0  0  0  0  0  0  0  0  0
  150.9182  136.7658  158.8274 O   0  0  0  0  0  0  0  0  0  0  0  0
  148.9284  137.8451  158.8416 N   0  0  0  0  0  0  0  0  0  0  0  0
  148.0803  136.7084  159.1827 C   0  0  0  0  0  0  0  0  0  0  0  0
  148.2921  136.2616  160.6390 C   0  0  2  0  0  0  0  0  0  0  0  0
  147.4722  135.0314  161.0255 C   0  0  0  0  0  0  0  0  0  0  0  0
  147.3665  135.1918  162.5246 C   0  0  0  0  0  0  0  0  0  0  0  0
  147.1909  136.7007  162.6607 C   0  0  0  0  0  0  0  0  0  0  0  0
  147.8811  137.2757  161.5544 O   0  0  0  0  0  0  0  0  0  0  0  0
  152.1662  142.5232  157.0387 H   0  0  0  0  0  0  0  0  0  0  0  0
  151.2730  141.7583  158.3513 H   0  0  0  0  0  0  0  0  0  0  0  0
  150.6850  143.2588  157.6404 H   0  0  0  0  0  0  0  0  0  0  0  0
  150.2787  142.1263  155.4963 H   0  0  0  0  0  0  0  0  0  0  0  0
  148.3314  140.7478  156.0917 H   0  0  0  0  0  0  0  0  0  0  0  0
  148.4052  142.2070  157.0718 H   0  0  0  0  0  0  0  0  0  0  0  0
  148.8816  140.6591  157.7630 H   0  0  0  0  0  0  0  0  0  0  0  0
  152.4710  138.1979  154.0172 H   0  0  0  0  0  0  0  0  0  0  0  0
  152.2341  137.2861  156.6183 H   0  0  0  0  0  0  0  0  0  0  0  0
  151.8393  139.2607  158.9099 H   0  0  0  0  0  0  0  0  0  0  0  0
  150.2745  139.9514  158.5596 H   0  0  0  0  0  0  0  0  0  0  0  0
  148.4672  138.7330  158.7067 H   0  0  0  0  0  0  0  0  0  0  0  0
  147.0291  136.9358  158.9974 H   0  0  0  0  0  0  0  0  0  0  0  0
  148.3407  135.8910  158.5098 H   0  0  0  0  0  0  0  0  0  0  0  0
  149.3479  136.0542  160.8206 H   0  0  0  0  0  0  0  0  0  0  0  0
  146.4786  135.0733  160.5767 H   0  0  0  0  0  0  0  0  0  0  0  0
  147.9433  134.0945  160.7266 H   0  0  0  0  0  0  0  0  0  0  0  0
  146.5444  134.6253  162.9625 H   0  0  0  0  0  0  0  0  0  0  0  0
  148.2948  134.8752  163.0020 H   0  0  0  0  0  0  0  0  0  0  0  0
  146.1367  136.9706  162.5874 H   0  0  0  0  0  0  0  0  0  0  0  0
  147.5724  137.0798  163.6090 H   0  0  0  0  0  0  0  0  0  0  0  0
  1  2  1  0  0  0  0
  1 19  1  0  0  0  0
  1 20  1  0  0  0  0
  1 21  1  0  0  0  0
  2  3  1  0  0  0  0
  2  4  1  0  0  0  0
  2 22  1  0  0  0  0
  3 23  1  0  0  0  0
  3 24  1  0  0  0  0
  3 25  1  0  0  0  0
  4  8  1  0  0  0  0
  4  5  2  0  0  0  0
  5  6  1  0  0  0  0
  6  7  2  0  0  0  0
  6 26  1  0  0  0  0
  7  8  1  0  0  0  0
  7 27  1  0  0  0  0
  8  9  1  0  0  0  0
  9 10  1  0  0  0  0
  9 28  1  0  0  0  0
  9 29  1  0  0  0  0
 10 11  2  0  0  0  0
 10 12  1  0  0  0  0
 12 13  1  0  0  0  0
 12 30  1  0  0  0  0
 13 14  1  0  0  0  0
 13 31  1  0  0  0  0
 13 32  1  0  0  0  0
 14 18  1  0  0  0  0
 14 15  1  0  0  0  0
 14 33  1  0  0  0  0
 15 16  1  0  0  0  0
 15 34  1  0  0  0  0
 15 35  1  0  0  0  0
 16 17  1  0  0  0  0
 16 36  1  0  0  0  0
 16 37  1  0  0  0  0
 17 18  1  0  0  0  0
 17 38  1  0  0  0  0
 17 39  1  0  0  0  0
M  END
> <s_m_source_file>
AV-unprocessed.smi

> <i_m_source_file_index>
3289

> <i_lp_mmshare_version>
43012

> <i_f3d_flags>
0

> <s_epik_input>
W0NIM11bQ0hdKFtDSDNdKWMxbltjSF1bY0hdbjFbQ0gyXUMoPU8pW05IXVtDSDJdW0NAQEhdMltDSDJdW0NIMl1bQ0gyXU8y

> <s_epik_cmdline>
J2VwaWtfcHl0aG9uJywgJy1waCcsICc3LjAnLCAnLXRuJywgJzgnLCAnLW1hJywgJzIwMCcsICctbWV0YWxfYmluZGluZycsICctaW1hZScsICc8aW5maWxlLm1hZT4nLCAnLW9tYWUnLCAnPG91dGZpbGUubWFlPic=

> <r_lp_tautomer_probability>
1

> <r_epik_Ionization_Penalty>
0.587725

> <r_epik_Ionization_Penalty_Charging>
0.587725

> <r_epik_Ionization_Penalty_Neutral>
1.43432e-07

> <r_epik_State_Penalty>
0.601029

> <r_epik_Charging_Adjusted_Penalty>
1.18875

> <i_epik_Tot_Q>
0

> <i_epik_Tot_abs_Q>
0

> <r_epik_Metal_State_Penalty>
0.297663

> <b_epik_Metal_Only>
0

> <s_lp_Force_Field>
OPLS_2005

> <r_lp_Energy>
18.7222

> <b_lp_Chiralities_Consistent>
1

> <s_lp_Variant>
AV-unprocessed.smi:3289-3

> <Gold.Version>
5.8.1

> <Gold.Id.Protein>
6NUR|6NUR_protein|mol2

> <Gold.PLP.Fitness>
45.5556

> <Gold.PLP.PLP>
-35.5051

> <Gold.PLP.part.hbond>
-3.9091

> <Gold.PLP.part.metal>
0.0000

> <Gold.PLP.part.buried>
-5.3785

> <Gold.PLP.part.nonpolar>
-26.9405

> <Gold.PLP.part.repulsive>
0.2587

> <Gold.PLP.ligand.clash>
0.0000

> <Gold.PLP.ligand.torsion>
0.4662

> <Gold.PLP.Chemscore.Hbond>
3.6423

> <Gold.PLP.Chemscore.CHOScore>
0.0000

> <Gold.PLP.Chemscore.Metal>
0.0000

> <Gold.Chemscore.Hbonds>
donor molecule, donor type, donor heavy atom, donor atom, acceptor molecule, acceptor atom, score
      P1  H  6896  6909       L1    11  1.00
      P1  H  6931  6943       L1    18  1.00
      P1  H  6934  6947       L1    18  0.66
      P1  H  7989  7998       L1     5  1.00

> <Gold.PLP.Chemscore.Internal.Correction>
0.0561

> <Gold.Rescore>
     Score         DG    S(hbond)    S(metal)    S(lipo)     H(rot)  DE(clash)    DE(int)     intcor
     20.30     -20.78       3.51        0.00      68.21       1.72       0.00       0.48       ----

> <Gold.Chemscore.Fitness>
20.2971

> <Gold.Chemscore.DG>
-20.7817

> <Gold.Chemscore.ZeroCoef>
-5.4800

> <Gold.Chemscore.Hbond>
3.5085

> <Gold.Chemscore.Metal>
0.0000

> <Gold.Chemscore.Lipo>
68.2050

> <Gold.Chemscore.Internal_Hbond>
0.0000

> <Gold.Chemscore.DEClash>
0.0048

> <Gold.Chemscore.DEInternal>
0.4798

> <Gold.Chemscore.Rot>
1.7175

> <Gold.Chemscore.Internal.Correction>
   9.000000E+99

> <Gold.Chemscore.Hbonds>
donor molecule, donor type, donor heavy atom, donor atom, acceptor molecule, acceptor atom, score
      P1  H  6896  6909       L1    11  0.93
      P1  H  6931  6943       L1    18  0.73
      P1  H  6934  6947       L1    18  0.58
      P1  H  7989  7998       L1     5  0.97

> <Gold.Chemscore.Hbond.Weighted>
-11.7184

> <Gold.Chemscore.Metal.Weighted>
-0.0000

> <Gold.Chemscore.Lipo.Weighted>
-7.9800

> <Gold.Chemscore.Internal_Hbond.Weighted>
0.0000

> <Gold.Chemscore.DEClash.Weighted>
0.0048

> <Gold.Chemscore.DEInternal.Weighted>
0.4798

> <Gold.Chemscore.Rot.Weighted>
4.3967

> <Gold.Chemscore.Internal.Correction.Weighted>
   9.000000E+99

> <Gold.Protein.RotatedTorsions>
[ 6907 6896 6895 6894 ] final   92.96 input  -60.11 | X-H torsion
[ 7974 7965 7964 7962 ] final   69.54 input  175.53 | X-H torsion
[ 8008 7997 7996 7995 ] final  121.27 input   59.86 | X-H torsion
[ 10167 10162 10161 10158 ] final  149.78 input  -65.29 | X-H torsion
[ 10718 10713 10712 10709 ] final -135.35 input   66.30 | X-H torsion
[ 10763 10752 10751 10750 ] final  -52.70 input  -60.55 | X-H torsion
[ 11005 11000 10999 10996 ] final -102.97 input  -57.11 | X-H torsion

> <Gold.Protein.ActiveResidues>
 VAL166  LYS551  ARG553  GLY616  TRP617  ASP618  TYR619  PRO620  LYS621  CYS622 
 ASP623  PHE694  ASN695  SER759  ASP760  ASP761  ALA762  ILE779  LEU786  VAL792 
 PHE793  MET794  SER795  GLU796  ALA797  LYS798  CYS799  TRP800  GLU811  SER814 

> <Gold.Protein.RotatedAtoms>
  152.5453  134.1421  159.8482 H   0  0  0  0  0  0  0  0  0  0  0  0  # atno 6907 bound_to 6896
  151.1456  133.4934  159.2603 H   0  0  0  0  0  0  0  0  0  0  0  0  # atno 6908 bound_to 6896
  151.1526  135.0245  159.8730 H   0  0  0  0  0  0  0  0  0  0  0  0  # atno 6909 bound_to 6896
  145.7892  139.2925  143.1220 H   0  0  0  0  0  0  0  0  0  0  0  0  # atno 7974 bound_to 7965
  156.2679  140.2812  156.1282 H   0  0  0  0  0  0  0  0  0  0  0  0  # atno 8008 bound_to 7997
  155.1083  140.0390  157.2734 H   0  0  0  0  0  0  0  0  0  0  0  0  # atno 8009 bound_to 7997
  154.6762  140.2599  155.6961 H   0  0  0  0  0  0  0  0  0  0  0  0  # atno 8010 bound_to 7997
  139.4857  144.5574  151.7292 H   0  0  0  0  0  0  0  0  0  0  0  0  # atno 10167 bound_to 10162
  156.2652  130.7233  151.1181 H   0  0  0  0  0  0  0  0  0  0  0  0  # atno 10718 bound_to 10713
  154.1470  135.6496  153.4955 H   0  0  0  0  0  0  0  0  0  0  0  0  # atno 10763 bound_to 10752
  153.0149  135.5329  154.6847 H   0  0  0  0  0  0  0  0  0  0  0  0  # atno 10764 bound_to 10752
  154.6124  135.2955  155.0389 H   0  0  0  0  0  0  0  0  0  0  0  0  # atno 10765 bound_to 10752
  141.1166  133.8601  157.1426 H   0  0  0  0  0  0  0  0  0  0  0  0  # atno 11005 bound_to 11000
  145.9994  140.8533  143.0026 LP  0  0  0  0  0  0  0  0  0  0  0  0  # atno 17320 bound_to 7965
  144.6784  140.2330  143.7353 LP  0  0  0  0  0  0  0  0  0  0  0  0  # atno 17321 bound_to 7965
  140.5138  144.0984  150.6002 LP  0  0  0  0  0  0  0  0  0  0  0  0  # atno 17342 bound_to 10162
  140.3919  143.2748  152.0050 LP  0  0  0  0  0  0  0  0  0  0  0  0  # atno 17343 bound_to 10162
  157.7265  131.0646  150.5908 LP  0  0  0  0  0  0  0  0  0  0  0  0  # atno 17370 bound_to 10713
  156.5999  130.4352  149.5901 LP  0  0  0  0  0  0  0  0  0  0  0  0  # atno 17371 bound_to 10713
  140.0093  134.9995  157.0361 LP  0  0  0  0  0  0  0  0  0  0  0  0  # atno 17394 bound_to 11000
  140.4627  134.1467  155.7193 LP  0  0  0  0  0  0  0  0  0  0  0  0  # atno 17395 bound_to 11000

$$$$
