AV-unprocessed.smi:817|AV-procd|sdf|3830|dock2
  -GOLD-   22720 1273D 1   1.00000     0.00000
 Structure written by MMmdl.
 48 49  0  0  0  0  0  0  0  0  2 V2000
  147.1864  141.0817  153.4964 C   0  0  0  0  0  0  0  0  0  0  0  0
  147.4674  139.9584  154.5051 C   0  0  2  0  0  0  0  0  0  0  0  0
  147.8260  140.5306  155.8876 C   0  0  0  0  0  0  0  0  0  0  0  0
  148.1371  139.4195  156.8990 C   0  0  0  0  0  0  0  0  0  0  0  0
  149.2442  138.4906  156.3707 C   0  0  0  0  0  0  0  0  0  0  0  0
  148.9344  137.8551  154.9759 C   0  0  2  0  0  0  0  0  0  0  0  0
  147.7173  136.8888  155.1169 C   0  0  0  0  0  0  0  0  0  0  0  0
  147.5119  136.0669  153.9221 N   0  0  0  0  0  0  0  0  0  0  0  0
  146.4030  135.3903  153.5774 C   0  0  0  0  0  0  0  0  0  0  0  0
  145.3984  135.4229  154.2835 O   0  0  0  0  0  0  0  0  0  0  0  0
  146.5103  134.7185  152.4139 N   0  0  0  0  0  0  0  0  0  0  0  0
  145.5509  133.9033  151.7543 C   0  0  0  0  0  0  0  0  0  0  0  0
  144.1479  134.0686  151.8541 C   0  0  0  0  0  0  0  0  0  0  0  0
  143.3075  133.1777  151.1586 C   0  0  0  0  0  0  0  0  0  0  0  0
  143.8978  132.1519  150.3953 C   0  0  0  0  0  0  0  0  0  0  0  0
  145.2323  131.9757  150.3000 N   0  0  0  0  0  0  0  0  0  0  0  0
  146.0313  132.8337  150.9691 C   0  0  0  0  0  0  0  0  0  0  0  0
  150.1195  137.0604  154.4739 N   0  3  0  0  0  0  0  0  0  0  0  0
  150.4205  135.7939  155.1916 C   0  0  0  0  0  0  0  0  0  0  0  0
  151.3675  137.8408  154.2620 C   0  0  0  0  0  0  0  0  0  0  0  0
  148.5777  139.0118  153.9937 C   0  0  0  0  0  0  0  0  0  0  0  0
  148.0650  141.7092  153.3437 H   0  0  0  0  0  0  0  0  0  0  0  0
  146.3752  141.7240  153.8402 H   0  0  0  0  0  0  0  0  0  0  0  0
  146.8948  140.6758  152.5274 H   0  0  0  0  0  0  0  0  0  0  0  0
  146.5428  139.3898  154.6045 H   0  0  0  0  0  0  0  0  0  0  0  0
  148.6906  141.1901  155.7989 H   0  0  0  0  0  0  0  0  0  0  0  0
  147.0079  141.1466  156.2624 H   0  0  0  0  0  0  0  0  0  0  0  0
  148.4596  139.8681  157.8391 H   0  0  0  0  0  0  0  0  0  0  0  0
  147.2333  138.8600  157.1371 H   0  0  0  0  0  0  0  0  0  0  0  0
  150.1354  139.1148  156.3183 H   0  0  0  0  0  0  0  0  0  0  0  0
  149.4601  137.7176  157.1091 H   0  0  0  0  0  0  0  0  0  0  0  0
  147.8292  136.2204  155.9684 H   0  0  0  0  0  0  0  0  0  0  0  0
  146.8075  137.4516  155.3260 H   0  0  0  0  0  0  0  0  0  0  0  0
  148.2984  135.9883  153.2936 H   0  0  0  0  0  0  0  0  0  0  0  0
  147.3788  134.8436  151.9146 H   0  0  0  0  0  0  0  0  0  0  0  0
  143.6972  134.8437  152.4530 H   0  0  0  0  0  0  0  0  0  0  0  0
  142.2335  133.2767  151.2124 H   0  0  0  0  0  0  0  0  0  0  0  0
  143.2817  131.4515  149.8510 H   0  0  0  0  0  0  0  0  0  0  0  0
  147.0932  132.6604  150.8715 H   0  0  0  0  0  0  0  0  0  0  0  0
  150.5620  135.9571  156.2598 H   0  0  0  0  0  0  0  0  0  0  0  0
  151.3316  135.3363  154.8048 H   0  0  0  0  0  0  0  0  0  0  0  0
  149.6348  135.0530  155.0474 H   0  0  0  0  0  0  0  0  0  0  0  0
  151.8118  138.1517  155.2078 H   0  0  0  0  0  0  0  0  0  0  0  0
  151.2128  138.7243  153.6457 H   0  0  0  0  0  0  0  0  0  0  0  0
  152.1064  137.2315  153.7405 H   0  0  0  0  0  0  0  0  0  0  0  0
  148.2620  138.6071  153.0318 H   0  0  0  0  0  0  0  0  0  0  0  0
  149.4672  139.6086  153.7897 H   0  0  0  0  0  0  0  0  0  0  0  0
  149.8472  136.7615  153.5485 H   0  0  0  0  0  0  0  0  0  0  0  0
  1  2  1  0  0  0  0
  1 22  1  0  0  0  0
  1 23  1  0  0  0  0
  1 24  1  0  0  0  0
  2 21  1  0  0  0  0
  2  3  1  0  0  0  0
  2 25  1  0  0  0  0
  3  4  1  0  0  0  0
  3 26  1  0  0  0  0
  3 27  1  0  0  0  0
  4  5  1  0  0  0  0
  4 28  1  0  0  0  0
  4 29  1  0  0  0  0
  5  6  1  0  0  0  0
  5 30  1  0  0  0  0
  5 31  1  0  0  0  0
  6  7  1  0  0  0  0
  6 18  1  0  0  0  0
  6 21  1  0  0  0  0
  7  8  1  0  0  0  0
  7 32  1  0  0  0  0
  7 33  1  0  0  0  0
  8  9  1  0  0  0  0
  8 34  1  0  0  0  0
  9 10  2  0  0  0  0
  9 11  1  0  0  0  0
 11 12  1  0  0  0  0
 11 35  1  0  0  0  0
 12 17  1  0  0  0  0
 12 13  2  0  0  0  0
 13 14  1  0  0  0  0
 13 36  1  0  0  0  0
 14 15  2  0  0  0  0
 14 37  1  0  0  0  0
 15 16  1  0  0  0  0
 15 38  1  0  0  0  0
 16 17  2  0  0  0  0
 17 39  1  0  0  0  0
 18 19  1  0  0  0  0
 18 20  1  0  0  0  0
 18 48  1  0  0  0  0
 19 40  1  0  0  0  0
 19 41  1  0  0  0  0
 19 42  1  0  0  0  0
 20 43  1  0  0  0  0
 20 44  1  0  0  0  0
 20 45  1  0  0  0  0
 21 46  1  0  0  0  0
 21 47  1  0  0  0  0
M  CHG  1  18   1
M  END
> <s_m_source_file>
AV-unprocessed.smi

> <i_m_source_file_index>
817

> <i_lp_mmshare_version>
43012

> <i_f3d_flags>
0

> <s_epik_input>
W0NIM11bQ0BASF0oW0NIMl0xKVtDSDJdW0NIMl1bQ0gyXVtDQF0xKE4oW0NIM10pW0NIM10pW0NIMl1bTkhdQyg9TylbTkhdYzJbY0hdW2NIXVtjSF1uW2NIXTI=

> <s_epik_cmdline>
J2VwaWtfcHl0aG9uJywgJy1waCcsICc3LjAnLCAnLXRuJywgJzgnLCAnLW1hJywgJzIwMCcsICctbWV0YWxfYmluZGluZycsICctaW1hZScsICc8aW5maWxlLm1hZT4nLCAnLW9tYWUnLCAnPG91dGZpbGUubWFlPic=

> <r_lp_tautomer_probability>
1

> <r_epik_Ionization_Penalty>
0.00584939

> <r_epik_Ionization_Penalty_Charging>
0.00160539

> <r_epik_Ionization_Penalty_Neutral>
0.004244

> <r_epik_State_Penalty>
-0

> <r_epik_Charging_Adjusted_Penalty>
0.00160539

> <i_epik_Tot_Q>
1

> <i_epik_Tot_abs_Q>
1

> <r_epik_Metal_State_Penalty>
-0

> <b_epik_Metal_Only>
0

> <s_lp_Force_Field>
OPLS_2005

> <r_lp_Energy>
49.7529

> <b_lp_Chiralities_Consistent>
1

> <s_lp_Variant>
AV-unprocessed.smi:817-3

> <Gold.Version>
5.8.1

> <Gold.Id.Protein>
6NUR|6NUR_protein|mol2

> <Gold.PLP.Fitness>
43.1865

> <Gold.PLP.PLP>
-28.7745

> <Gold.PLP.part.hbond>
-2.9423

> <Gold.PLP.part.metal>
0.0000

> <Gold.PLP.part.buried>
-4.7881

> <Gold.PLP.part.nonpolar>
-21.8937

> <Gold.PLP.part.repulsive>
0.2170

> <Gold.PLP.ligand.clash>
0.0000

> <Gold.PLP.ligand.torsion>
0.4787

> <Gold.PLP.Chemscore.Hbond>
3.7771

> <Gold.PLP.Chemscore.CHOScore>
1.3020

> <Gold.PLP.Chemscore.Metal>
0.0000

> <Gold.Chemscore.Hbonds>
donor molecule, donor type, donor heavy atom, donor atom, acceptor molecule, acceptor atom, score
      L1  H     8    34       P1  7948  1.00
      L1  H    11    35       P1  7948  0.74
      L1  H    18    48       P1  7948  2.00
      L1  C    15    38       P1 10952  0.54
      L1  C    17    39       P1 10747  0.65

> <Gold.PLP.Chemscore.Internal.Correction>
0.1318

> <Gold.Rescore>
     Score         DG    S(hbond)    S(metal)    S(lipo)     H(rot)  DE(clash)    DE(int)     intcor
     16.89     -18.15       2.30        0.00      74.19       1.44       0.08       1.19       ----

> <Gold.Chemscore.Fitness>
16.8872

> <Gold.Chemscore.DG>
-18.1528

> <Gold.Chemscore.ZeroCoef>
-5.4800

> <Gold.Chemscore.Hbond>
2.2994

> <Gold.Chemscore.Metal>
0.0000

> <Gold.Chemscore.Lipo>
74.1918

> <Gold.Chemscore.Internal_Hbond>
0.0000

> <Gold.Chemscore.DEClash>
0.0757

> <Gold.Chemscore.DEInternal>
1.1900

> <Gold.Chemscore.Rot>
1.4405

> <Gold.Chemscore.Internal.Correction>
   9.000000E+99

> <Gold.Chemscore.Hbonds>
donor molecule, donor type, donor heavy atom, donor atom, acceptor molecule, acceptor atom, score
      L1  H     8    34       P1  7948  0.93
      L1  H    11    35       P1  7948  0.57
      L1  H    18    48       P1  7948  0.39

> <Gold.Chemscore.Hbond.Weighted>
-7.6801

> <Gold.Chemscore.Metal.Weighted>
-0.0000

> <Gold.Chemscore.Lipo.Weighted>
-8.6804

> <Gold.Chemscore.Internal_Hbond.Weighted>
0.0000

> <Gold.Chemscore.DEClash.Weighted>
0.0757

> <Gold.Chemscore.DEInternal.Weighted>
1.1900

> <Gold.Chemscore.Rot.Weighted>
3.6878

> <Gold.Chemscore.Internal.Correction.Weighted>
   9.000000E+99

> <Gold.Protein.RotatedTorsions>
[ 6907 6896 6895 6894 ] final   -9.26 input  -60.11 | X-H torsion
[ 7974 7965 7964 7962 ] final    0.27 input  175.53 | X-H torsion
[ 8008 7997 7996 7995 ] final  100.92 input   59.86 | X-H torsion
[ 10167 10162 10161 10158 ] final   14.10 input  -65.29 | X-H torsion
[ 10718 10713 10712 10709 ] final   99.76 input   66.30 | X-H torsion
[ 10763 10752 10751 10750 ] final  -12.98 input  -60.55 | X-H torsion
[ 11005 11000 10999 10996 ] final   22.87 input  -57.11 | X-H torsion

> <Gold.Protein.ActiveResidues>
 VAL166  LYS551  ARG553  GLY616  TRP617  ASP618  TYR619  PRO620  LYS621  CYS622 
 ASP623  PHE694  ASN695  SER759  ASP760  ASP761  ALA762  ILE779  LEU786  VAL792 
 PHE793  MET794  SER795  GLU796  ALA797  LYS798  CYS799  TRP800  GLU811  SER814 

> <Gold.Protein.RotatedAtoms>
  151.4206  135.0997  159.9612 H   0  0  0  0  0  0  0  0  0  0  0  0  # atno 6907 bound_to 6896
  152.4990  133.8711  159.7309 H   0  0  0  0  0  0  0  0  0  0  0  0  # atno 6908 bound_to 6896
  150.9226  133.6805  159.2856 H   0  0  0  0  0  0  0  0  0  0  0  0  # atno 6909 bound_to 6896
  146.2433  140.1164  142.8342 H   0  0  0  0  0  0  0  0  0  0  0  0  # atno 7974 bound_to 7965
  156.1250  140.3205  155.8264 H   0  0  0  0  0  0  0  0  0  0  0  0  # atno 8008 bound_to 7997
  155.4436  140.0527  157.3025 H   0  0  0  0  0  0  0  0  0  0  0  0  # atno 8009 bound_to 7997
  154.4855  140.2071  155.9677 H   0  0  0  0  0  0  0  0  0  0  0  0  # atno 8010 bound_to 7997
  140.5958  143.8704  150.6917 H   0  0  0  0  0  0  0  0  0  0  0  0  # atno 10167 bound_to 10162
  157.6869  131.0679  150.4997 H   0  0  0  0  0  0  0  0  0  0  0  0  # atno 10718 bound_to 10713
  153.5065  135.7017  153.5803 H   0  0  0  0  0  0  0  0  0  0  0  0  # atno 10763 bound_to 10752
  153.3912  135.3895  155.1924 H   0  0  0  0  0  0  0  0  0  0  0  0  # atno 10764 bound_to 10752
  154.8706  135.3859  154.4541 H   0  0  0  0  0  0  0  0  0  0  0  0  # atno 10765 bound_to 10752
  140.3758  134.1973  155.7665 H   0  0  0  0  0  0  0  0  0  0  0  0  # atno 11005 bound_to 11000
  145.0444  140.8970  143.5033 LP  0  0  0  0  0  0  0  0  0  0  0  0  # atno 17320 bound_to 7965
  145.1250  139.2669  143.5569 LP  0  0  0  0  0  0  0  0  0  0  0  0  # atno 17321 bound_to 7965
  140.2238  143.3788  152.1621 LP  0  0  0  0  0  0  0  0  0  0  0  0  # atno 17342 bound_to 10162
  139.5257  144.7099  151.5238 LP  0  0  0  0  0  0  0  0  0  0  0  0  # atno 17343 bound_to 10162
  156.5320  130.4187  149.6197 LP  0  0  0  0  0  0  0  0  0  0  0  0  # atno 17370 bound_to 10713
  156.3061  130.7203  151.2086 LP  0  0  0  0  0  0  0  0  0  0  0  0  # atno 17371 bound_to 10713
  141.1940  133.8139  157.0777 LP  0  0  0  0  0  0  0  0  0  0  0  0  # atno 17394 bound_to 11000
  140.0516  134.9802  157.1147 LP  0  0  0  0  0  0  0  0  0  0  0  0  # atno 17395 bound_to 11000

$$$$
