AV-unprocessed.smi:2354|AV-procd|sdf|9384|dock3
  -GOLD-   2272013 13D 1   1.00000     0.00000
 Structure written by MMmdl.
 44 45  0  0  0  0  0  0  0  0  2 V2000
  148.7041  132.9282  153.1228 C   0  0  0  0  0  0  0  0  0  0  0  0
  147.7842  134.0358  153.4639 N   0  3  0  0  0  0  0  0  0  0  0  0
  148.2013  134.7272  154.7049 C   0  0  0  0  0  0  0  0  0  0  0  0
  146.3570  133.6146  153.4732 C   0  0  0  0  0  0  0  0  0  0  0  0
  145.6683  133.7547  152.0881 C   0  0  0  0  0  0  0  0  0  0  0  0
  145.3655  135.2438  151.7429 C   0  0  0  0  0  0  0  0  0  0  0  0
  146.3640  136.1796  152.2580 N   0  0  0  0  0  0  0  0  0  0  0  0
  146.1005  137.2922  152.9588 C   0  0  0  0  0  0  0  0  0  0  0  0
  144.9612  137.6687  153.2331 O   0  0  0  0  0  0  0  0  0  0  0  0
  147.2327  137.9343  153.2942 N   0  0  0  0  0  0  0  0  0  0  0  0
  147.3722  139.1714  153.9766 C   0  0  0  0  0  0  0  0  0  0  0  0
  148.6494  139.7463  154.1911 C   0  0  0  0  0  0  0  0  0  0  0  0
  148.7170  140.9853  154.8506 C   0  0  0  0  0  0  0  0  0  0  0  0
  147.5031  141.5740  155.2432 C   0  0  0  0  0  0  0  0  0  0  0  0
  146.3069  140.9964  155.0015 N   0  0  0  0  0  0  0  0  0  0  0  0
  146.2488  139.8183  154.3716 N   0  0  0  0  0  0  0  0  0  0  0  0
  146.5303  133.0861  150.9975 C   0  0  0  0  0  0  0  0  0  0  0  0
  145.5749  132.7354  149.8527 C   0  0  0  0  0  0  0  0  0  0  0  0
  144.1897  132.5963  150.4954 C   0  0  0  0  0  0  0  0  0  0  0  0
  144.3796  132.9169  151.9836 C   0  0  0  0  0  0  0  0  0  0  0  0
  148.6619  132.1390  153.8746 H   0  0  0  0  0  0  0  0  0  0  0  0
  149.7322  133.2861  153.0589 H   0  0  0  0  0  0  0  0  0  0  0  0
  148.4459  132.4963  152.1554 H   0  0  0  0  0  0  0  0  0  0  0  0
  148.1437  134.0566  155.5634 H   0  0  0  0  0  0  0  0  0  0  0  0
  147.5752  135.5948  154.9081 H   0  0  0  0  0  0  0  0  0  0  0  0
  149.2295  135.0805  154.6198 H   0  0  0  0  0  0  0  0  0  0  0  0
  146.2840  132.5720  153.7872 H   0  0  0  0  0  0  0  0  0  0  0  0
  145.8116  134.1724  154.2365 H   0  0  0  0  0  0  0  0  0  0  0  0
  145.2434  135.3766  150.6669 H   0  0  0  0  0  0  0  0  0  0  0  0
  144.4058  135.5351  152.1701 H   0  0  0  0  0  0  0  0  0  0  0  0
  147.3320  135.9547  152.0811 H   0  0  0  0  0  0  0  0  0  0  0  0
  148.0889  137.5521  152.9210 H   0  0  0  0  0  0  0  0  0  0  0  0
  149.5599  139.2736  153.8552 H   0  0  0  0  0  0  0  0  0  0  0  0
  149.6634  141.4682  155.0439 H   0  0  0  0  0  0  0  0  0  0  0  0
  147.4892  142.5261  155.7526 H   0  0  0  0  0  0  0  0  0  0  0  0
  147.3714  133.6934  150.6654 H   0  0  0  0  0  0  0  0  0  0  0  0
  146.9554  132.1583  151.3839 H   0  0  0  0  0  0  0  0  0  0  0  0
  145.5624  133.5388  149.1148 H   0  0  0  0  0  0  0  0  0  0  0  0
  145.8831  131.8248  149.3378 H   0  0  0  0  0  0  0  0  0  0  0  0
  143.4963  133.3035  150.0385 H   0  0  0  0  0  0  0  0  0  0  0  0
  143.7743  131.5976  150.3552 H   0  0  0  0  0  0  0  0  0  0  0  0
  144.5059  131.9759  152.5209 H   0  0  0  0  0  0  0  0  0  0  0  0
  143.5096  133.4174  152.4109 H   0  0  0  0  0  0  0  0  0  0  0  0
  147.8739  134.7071  152.7145 H   0  0  0  0  0  0  0  0  0  0  0  0
  1  2  1  0  0  0  0
  1 21  1  0  0  0  0
  1 22  1  0  0  0  0
  1 23  1  0  0  0  0
  2  3  1  0  0  0  0
  2  4  1  0  0  0  0
  2 44  1  0  0  0  0
  3 24  1  0  0  0  0
  3 25  1  0  0  0  0
  3 26  1  0  0  0  0
  4  5  1  0  0  0  0
  4 27  1  0  0  0  0
  4 28  1  0  0  0  0
  5 20  1  0  0  0  0
  5  6  1  0  0  0  0
  5 17  1  0  0  0  0
  6  7  1  0  0  0  0
  6 29  1  0  0  0  0
  6 30  1  0  0  0  0
  7  8  1  0  0  0  0
  7 31  1  0  0  0  0
  8  9  2  0  0  0  0
  8 10  1  0  0  0  0
 10 11  1  0  0  0  0
 10 32  1  0  0  0  0
 11 16  1  0  0  0  0
 11 12  2  0  0  0  0
 12 13  1  0  0  0  0
 12 33  1  0  0  0  0
 13 14  2  0  0  0  0
 13 34  1  0  0  0  0
 14 15  1  0  0  0  0
 14 35  1  0  0  0  0
 15 16  2  0  0  0  0
 17 18  1  0  0  0  0
 17 36  1  0  0  0  0
 17 37  1  0  0  0  0
 18 19  1  0  0  0  0
 18 38  1  0  0  0  0
 18 39  1  0  0  0  0
 19 20  1  0  0  0  0
 19 40  1  0  0  0  0
 19 41  1  0  0  0  0
 20 42  1  0  0  0  0
 20 43  1  0  0  0  0
M  CHG  1   2   1
M  END
> <s_m_source_file>
AV-unprocessed.smi

> <i_m_source_file_index>
2354

> <i_lp_mmshare_version>
43012

> <i_f3d_flags>
0

> <s_epik_input>
W0NIMl0xW0NIMl1bQ0gyXVtDSDJdQzEoW0NIMl1OKFtDSDNdKVtDSDNdKVtDSDJdW05IXUMoPU8pW05IXWMyW2NIXVtjSF1bY0hdbm4y

> <s_epik_cmdline>
J2VwaWtfcHl0aG9uJywgJy1waCcsICc3LjAnLCAnLXRuJywgJzgnLCAnLW1hJywgJzIwMCcsICctbWV0YWxfYmluZGluZycsICctaW1hZScsICc8aW5maWxlLm1hZT4nLCAnLW9tYWUnLCAnPG91dGZpbGUubWFlPic=

> <r_lp_tautomer_probability>
1

> <r_epik_Ionization_Penalty>
0.0045793

> <r_epik_Ionization_Penalty_Charging>
0.000516438

> <r_epik_Ionization_Penalty_Neutral>
0.00406287

> <r_epik_State_Penalty>
-0

> <r_epik_Charging_Adjusted_Penalty>
0.000516438

> <i_epik_Tot_Q>
1

> <i_epik_Tot_abs_Q>
1

> <r_epik_Metal_State_Penalty>
-0

> <b_epik_Metal_Only>
0

> <s_lp_Force_Field>
OPLS_2005

> <r_lp_Energy>
45.7912

> <b_lp_Chiralities_Consistent>
1

> <s_lp_Variant>
AV-unprocessed.smi:2354-1

> <Gold.Version>
5.8.1

> <Gold.Id.Protein>
6NUR|6NUR_protein|mol2

> <Gold.PLP.Fitness>
44.1715

> <Gold.PLP.PLP>
-31.2157

> <Gold.PLP.part.hbond>
-2.7932

> <Gold.PLP.part.metal>
0.0000

> <Gold.PLP.part.buried>
-0.5183

> <Gold.PLP.part.nonpolar>
-28.6685

> <Gold.PLP.part.repulsive>
1.0445

> <Gold.PLP.ligand.clash>
0.0000

> <Gold.PLP.ligand.torsion>
1.0745

> <Gold.PLP.Chemscore.Hbond>
3.8960

> <Gold.PLP.Chemscore.CHOScore>
1.0000

> <Gold.PLP.Chemscore.Metal>
0.0000

> <Gold.Chemscore.Hbonds>
donor molecule, donor type, donor heavy atom, donor atom, acceptor molecule, acceptor atom, score
      L1  H     2    44       P1  7948  1.92
      L1  H     7    31       P1  7948  1.00
      L1  H    10    32       P1  7948  0.99
      L1  C    14    35       P1  8028  0.89

> <Gold.PLP.Chemscore.Internal.Correction>
0.4168

> <Gold.Rescore>
     Score         DG    S(hbond)    S(metal)    S(lipo)     H(rot)  DE(clash)    DE(int)     intcor
     14.16     -18.12       2.71        0.00      70.18       1.81       0.00       3.96       ----

> <Gold.Chemscore.Fitness>
14.1598

> <Gold.Chemscore.DG>
-18.1189

> <Gold.Chemscore.ZeroCoef>
-5.4800

> <Gold.Chemscore.Hbond>
2.7113

> <Gold.Chemscore.Metal>
0.0000

> <Gold.Chemscore.Lipo>
70.1850

> <Gold.Chemscore.Internal_Hbond>
0.0000

> <Gold.Chemscore.DEClash>
0.0029

> <Gold.Chemscore.DEInternal>
3.9561

> <Gold.Chemscore.Rot>
1.8080

> <Gold.Chemscore.Internal.Correction>
   9.000000E+99

> <Gold.Chemscore.Hbonds>
donor molecule, donor type, donor heavy atom, donor atom, acceptor molecule, acceptor atom, score
      L1  H     2    44       P1  7948  0.72
      L1  H     7    31       P1  7948  0.99
      L1  H    10    32       P1  7948  0.93

> <Gold.Chemscore.Hbond.Weighted>
-9.0558

> <Gold.Chemscore.Metal.Weighted>
-0.0000

> <Gold.Chemscore.Lipo.Weighted>
-8.2116

> <Gold.Chemscore.Internal_Hbond.Weighted>
0.0000

> <Gold.Chemscore.DEClash.Weighted>
0.0029

> <Gold.Chemscore.DEInternal.Weighted>
3.9561

> <Gold.Chemscore.Rot.Weighted>
4.6286

> <Gold.Chemscore.Internal.Correction.Weighted>
   9.000000E+99

> <Gold.Protein.RotatedTorsions>
[ 6907 6896 6895 6894 ] final  -22.23 input  -60.11 | X-H torsion
[ 7974 7965 7964 7962 ] final   19.06 input  175.53 | X-H torsion
[ 8008 7997 7996 7995 ] final -152.80 input   59.86 | X-H torsion
[ 10167 10162 10161 10158 ] final  119.85 input  -65.29 | X-H torsion
[ 10718 10713 10712 10709 ] final   14.59 input   66.30 | X-H torsion
[ 10763 10752 10751 10750 ] final  -17.36 input  -60.55 | X-H torsion
[ 11005 11000 10999 10996 ] final   47.00 input  -57.11 | X-H torsion

> <Gold.Protein.ActiveResidues>
 VAL166  LYS551  ARG553  GLY616  TRP617  ASP618  TYR619  PRO620  LYS621  CYS622 
 ASP623  PHE694  ASN695  SER759  ASP760  ASP761  ALA762  ILE779  LEU786  VAL792 
 PHE793  MET794  SER795  GLU796  ALA797  LYS798  CYS799  TRP800  GLU811  SER814 

> <Gold.Protein.RotatedAtoms>
  151.2216  135.0520  159.8951 H   0  0  0  0  0  0  0  0  0  0  0  0  # atno 6907 bound_to 6896
  152.5415  134.0634  159.8172 H   0  0  0  0  0  0  0  0  0  0  0  0  # atno 6908 bound_to 6896
  151.0801  133.5348  159.2653 H   0  0  0  0  0  0  0  0  0  0  0  0  # atno 6909 bound_to 6896
  146.2163  139.8367  142.8649 H   0  0  0  0  0  0  0  0  0  0  0  0  # atno 7974 bound_to 7965
  155.6608  140.0722  157.2555 H   0  0  0  0  0  0  0  0  0  0  0  0  # atno 8008 bound_to 7997
  154.4143  140.1716  156.1825 H   0  0  0  0  0  0  0  0  0  0  0  0  # atno 8009 bound_to 7997
  155.9699  140.3363  155.6569 H   0  0  0  0  0  0  0  0  0  0  0  0  # atno 8010 bound_to 7997
  139.6019  144.7059  151.3042 H   0  0  0  0  0  0  0  0  0  0  0  0  # atno 10167 bound_to 10162
  157.0413  130.6232  149.5751 H   0  0  0  0  0  0  0  0  0  0  0  0  # atno 10718 bound_to 10713
  153.5726  135.7007  153.5498 H   0  0  0  0  0  0  0  0  0  0  0  0  # atno 10763 bound_to 10752
  153.3331  135.4042  155.1511 H   0  0  0  0  0  0  0  0  0  0  0  0  # atno 10764 bound_to 10752
  154.8630  135.3723  154.5250 H   0  0  0  0  0  0  0  0  0  0  0  0  # atno 10765 bound_to 10752
  140.1319  134.4695  155.8515 H   0  0  0  0  0  0  0  0  0  0  0  0  # atno 11005 bound_to 11000
  145.2941  141.0175  143.3646 LP  0  0  0  0  0  0  0  0  0  0  0  0  # atno 17320 bound_to 7965
  144.9055  139.4594  143.6612 LP  0  0  0  0  0  0  0  0  0  0  0  0  # atno 17321 bound_to 7965
  140.7256  143.7012  150.7843 LP  0  0  0  0  0  0  0  0  0  0  0  0  # atno 17342 bound_to 10162
  140.0590  143.5173  152.2637 LP  0  0  0  0  0  0  0  0  0  0  0  0  # atno 17343 bound_to 10162
  156.0037  130.5120  150.7754 LP  0  0  0  0  0  0  0  0  0  0  0  0  # atno 17370 bound_to 10713
  157.5102  131.0925  151.0208 LP  0  0  0  0  0  0  0  0  0  0  0  0  # atno 17371 bound_to 10713
  141.2171  133.6799  156.7084 LP  0  0  0  0  0  0  0  0  0  0  0  0  # atno 17394 bound_to 11000
  140.2832  134.8300  157.3951 LP  0  0  0  0  0  0  0  0  0  0  0  0  # atno 17395 bound_to 11000

$$$$
