AV-unprocessed.smi:2290|AV-procd|sdf|9210|dock5
  -GOLD-   2272012433D 1   1.00000     0.00000
 Structure written by MMmdl.
 38 39  0  0  0  0  0  0  0  0  1 V2000
  151.7370  137.5085  159.7767 C   0  0  0  0  0  0  0  0  0  0  0  0
  151.5505  137.9863  158.3476 C   0  0  0  0  0  0  0  0  0  0  0  0
  150.2295  138.2287  157.9594 N   0  0  0  0  0  0  0  0  0  0  0  0
  149.9748  138.6392  156.7603 C   0  0  0  0  0  0  0  0  0  0  0  0
  150.9968  138.8534  155.8212 N   0  0  0  0  0  0  0  0  0  0  0  0
  150.5733  139.3294  154.4942 C   0  0  0  0  0  0  0  0  0  0  0  0
  149.5731  140.5038  154.5864 C   0  0  2  0  0  0  0  0  0  0  0  0
  149.1970  140.9390  153.2951 O   0  0  0  0  0  0  0  0  0  0  0  0
  150.1400  141.7153  155.3448 C   0  0  0  0  0  0  0  0  0  0  0  0
  150.7151  141.2957  156.5767 O   0  0  0  0  0  0  0  0  0  0  0  0
  150.1936  141.9646  157.7170 C   0  0  0  0  0  0  0  0  0  0  0  0
  151.2873  142.1240  158.7282 C   0  0  0  0  0  0  0  0  0  0  0  0
  152.0139  141.1269  159.3277 C   0  0  0  0  0  0  0  0  0  0  0  0
  152.9762  141.6145  160.2604 C   0  0  0  0  0  0  0  0  0  0  0  0
  152.9667  142.9795  160.3685 C   0  0  0  0  0  0  0  0  0  0  0  0
  151.7683  143.6952  159.3261 S   0  0  0  0  0  0  0  0  0  0  0  0
  152.3124  138.6465  156.1185 C   0  0  0  0  0  0  0  0  0  0  0  0
  153.2021  138.8494  155.2898 O   0  0  0  0  0  0  0  0  0  0  0  0
  152.5868  138.1754  157.4857 C   0  0  0  0  0  0  0  0  0  0  0  0
  154.0450  137.9284  157.8523 C   0  0  0  0  0  0  0  0  0  0  0  0
  152.2165  136.5294  159.7937 H   0  0  0  0  0  0  0  0  0  0  0  0
  150.7806  137.4210  160.2941 H   0  0  0  0  0  0  0  0  0  0  0  0
  152.3558  138.2106  160.3361 H   0  0  0  0  0  0  0  0  0  0  0  0
  148.9625  138.8465  156.4087 H   0  0  0  0  0  0  0  0  0  0  0  0
  151.4609  139.6556  153.9490 H   0  0  0  0  0  0  0  0  0  0  0  0
  150.1636  138.5253  153.8794 H   0  0  0  0  0  0  0  0  0  0  0  0
  148.6638  140.1887  155.0996 H   0  0  0  0  0  0  0  0  0  0  0  0
  149.3738  140.2441  152.6797 H   0  0  0  0  0  0  0  0  0  0  0  0
  150.8740  142.2470  154.7370 H   0  0  0  0  0  0  0  0  0  0  0  0
  149.3258  142.4141  155.5416 H   0  0  0  0  0  0  0  0  0  0  0  0
  149.8416  142.9488  157.4081 H   0  0  0  0  0  0  0  0  0  0  0  0
  149.3359  141.4335  158.1327 H   0  0  0  0  0  0  0  0  0  0  0  0
  151.8912  140.0726  159.1287 H   0  0  0  0  0  0  0  0  0  0  0  0
  153.6304  140.9564  160.8127 H   0  0  0  0  0  0  0  0  0  0  0  0
  153.5841  143.6051  160.9962 H   0  0  0  0  0  0  0  0  0  0  0  0
  154.6204  138.8485  157.7442 H   0  0  0  0  0  0  0  0  0  0  0  0
  154.4773  137.1789  157.1885 H   0  0  0  0  0  0  0  0  0  0  0  0
  154.1781  137.5769  158.8741 H   0  0  0  0  0  0  0  0  0  0  0  0
  1  2  1  0  0  0  0
  1 21  1  0  0  0  0
  1 22  1  0  0  0  0
  1 23  1  0  0  0  0
  2 19  2  0  0  0  0
  2  3  1  0  0  0  0
  3  4  2  0  0  0  0
  4  5  1  0  0  0  0
  4 24  1  0  0  0  0
  5  6  1  0  0  0  0
  5 17  1  0  0  0  0
  6  7  1  0  0  0  0
  6 25  1  0  0  0  0
  6 26  1  0  0  0  0
  7  8  1  0  0  0  0
  7  9  1  0  0  0  0
  7 27  1  0  0  0  0
  8 28  1  0  0  0  0
  9 10  1  0  0  0  0
  9 29  1  0  0  0  0
  9 30  1  0  0  0  0
 10 11  1  0  0  0  0
 11 12  1  0  0  0  0
 11 31  1  0  0  0  0
 11 32  1  0  0  0  0
 12 16  1  0  0  0  0
 12 13  2  0  0  0  0
 13 14  1  0  0  0  0
 13 33  1  0  0  0  0
 14 15  2  0  0  0  0
 14 34  1  0  0  0  0
 15 16  1  0  0  0  0
 15 35  1  0  0  0  0
 17 18  2  0  0  0  0
 17 19  1  0  0  0  0
 19 20  1  0  0  0  0
 20 36  1  0  0  0  0
 20 37  1  0  0  0  0
 20 38  1  0  0  0  0
M  END
> <s_m_source_file>
AV-unprocessed.smi

> <i_m_source_file_index>
2290

> <i_lp_mmshare_version>
43012

> <i_f3d_flags>
0

> <s_epik_input>
W0NIM11jMW5bY0hdbihjKD1PKWMxW0NIM10pW0NIMl1bQ0BIXShbT0hdKVtDSDJdT1tDSDJdYzJbY0hdW2NIXVtjSF1zMg==

> <s_epik_cmdline>
J2VwaWtfcHl0aG9uJywgJy1waCcsICc3LjAnLCAnLXRuJywgJzgnLCAnLW1hJywgJzIwMCcsICctbWV0YWxfYmluZGluZycsICctaW1hZScsICc8aW5maWxlLm1hZT4nLCAnLW9tYWUnLCAnPG91dGZpbGUubWFlPic=

> <r_lp_tautomer_probability>
1

> <r_epik_Ionization_Penalty>
4.77825e-05

> <r_epik_Ionization_Penalty_Charging>
1.20754e-07

> <r_epik_Ionization_Penalty_Neutral>
4.76618e-05

> <r_epik_State_Penalty>
-0

> <r_epik_Charging_Adjusted_Penalty>
1.20754e-07

> <i_epik_Tot_Q>
0

> <i_epik_Tot_abs_Q>
0

> <r_epik_Metal_State_Penalty>
-0

> <b_epik_Metal_Only>
0

> <s_lp_Force_Field>
OPLS_2005

> <r_lp_Energy>
18.6865

> <b_lp_Chiralities_Consistent>
1

> <s_lp_Variant>
AV-unprocessed.smi:2290-1

> <Gold.Version>
5.8.1

> <Gold.Id.Protein>
6NUR|6NUR_protein|mol2

> <Gold.PLP.Fitness>
42.9714

> <Gold.PLP.PLP>
-36.1701

> <Gold.PLP.part.hbond>
-3.5408

> <Gold.PLP.part.metal>
0.0000

> <Gold.PLP.part.buried>
-2.8602

> <Gold.PLP.part.nonpolar>
-29.3123

> <Gold.PLP.part.repulsive>
0.0509

> <Gold.PLP.ligand.clash>
0.0000

> <Gold.PLP.ligand.torsion>
0.7803

> <Gold.PLP.Chemscore.Hbond>
2.7680

> <Gold.PLP.Chemscore.CHOScore>
0.0000

> <Gold.PLP.Chemscore.Metal>
0.0000

> <Gold.Chemscore.Hbonds>
donor molecule, donor type, donor heavy atom, donor atom, acceptor molecule, acceptor atom, score
      L1  H     8    28       P1  7957  0.78
      P1  H  7997  8008       L1    18  0.96
      P1  H  8011  8017       L1     8  1.00

> <Gold.PLP.Chemscore.Internal.Correction>
0.0578

> <Gold.Rescore>
     Score         DG    S(hbond)    S(metal)    S(lipo)     H(rot)  DE(clash)    DE(int)     intcor
     12.65     -16.60       1.87        0.00      97.51       2.55       0.16       3.79       ----

> <Gold.Chemscore.Fitness>
12.6525

> <Gold.Chemscore.DG>
-16.6020

> <Gold.Chemscore.ZeroCoef>
-5.4800

> <Gold.Chemscore.Hbond>
1.8691

> <Gold.Chemscore.Metal>
0.0000

> <Gold.Chemscore.Lipo>
97.5135

> <Gold.Chemscore.Internal_Hbond>
0.0000

> <Gold.Chemscore.DEClash>
0.1565

> <Gold.Chemscore.DEInternal>
3.7930

> <Gold.Chemscore.Rot>
2.5507

> <Gold.Chemscore.Internal.Correction>
   9.000000E+99

> <Gold.Chemscore.Hbonds>
donor molecule, donor type, donor heavy atom, donor atom, acceptor molecule, acceptor atom, score
      L1  H     8    28       P1  7957  0.74
      P1  H  7997  8008       L1    18  0.84
      P1  H  8011  8017       L1     8  0.25

> <Gold.Chemscore.Hbond.Weighted>
-6.2428

> <Gold.Chemscore.Metal.Weighted>
-0.0000

> <Gold.Chemscore.Lipo.Weighted>
-11.4091

> <Gold.Chemscore.Internal_Hbond.Weighted>
0.0000

> <Gold.Chemscore.DEClash.Weighted>
0.1565

> <Gold.Chemscore.DEInternal.Weighted>
3.7930

> <Gold.Chemscore.Rot.Weighted>
6.5298

> <Gold.Chemscore.Internal.Correction.Weighted>
   9.000000E+99

> <Gold.Protein.RotatedTorsions>
[ 6907 6896 6895 6894 ] final -148.91 input  -60.11 | X-H torsion
[ 7974 7965 7964 7962 ] final  157.13 input  175.53 | X-H torsion
[ 8008 7997 7996 7995 ] final   -7.17 input   59.86 | X-H torsion
[ 10167 10162 10161 10158 ] final  140.38 input  -65.29 | X-H torsion
[ 10718 10713 10712 10709 ] final   26.86 input   66.30 | X-H torsion
[ 10763 10752 10751 10750 ] final  -62.15 input  -60.55 | X-H torsion
[ 11005 11000 10999 10996 ] final  171.48 input  -57.11 | X-H torsion

> <Gold.Protein.ActiveResidues>
 VAL166  LYS551  ARG553  GLY616  TRP617  ASP618  TYR619  PRO620  LYS621  CYS622 
 ASP623  PHE694  ASN695  SER759  ASP760  ASP761  ALA762  ILE779  LEU786  VAL792 
 PHE793  MET794  SER795  GLU796  ALA797  LYS798  CYS799  TRP800  GLU811  SER814 

> <Gold.Protein.RotatedAtoms>
  151.1765  133.4751  159.2593 H   0  0  0  0  0  0  0  0  0  0  0  0  # atno 6907 bound_to 6896
  151.1302  135.0126  159.8589 H   0  0  0  0  0  0  0  0  0  0  0  0  # atno 6908 bound_to 6896
  152.5459  134.1669  159.8634 H   0  0  0  0  0  0  0  0  0  0  0  0  # atno 6909 bound_to 6896
  144.7922  139.7298  143.6217 H   0  0  0  0  0  0  0  0  0  0  0  0  # atno 7974 bound_to 7965
  154.5865  140.2414  155.7980 H   0  0  0  0  0  0  0  0  0  0  0  0  # atno 8008 bound_to 7997
  156.2217  140.2995  155.9923 H   0  0  0  0  0  0  0  0  0  0  0  0  # atno 8009 bound_to 7997
  155.2449  140.0408  157.2970 H   0  0  0  0  0  0  0  0  0  0  0  0  # atno 8010 bound_to 7997
  139.5050  144.6238  151.5988 H   0  0  0  0  0  0  0  0  0  0  0  0  # atno 10167 bound_to 10162
  157.2124  130.6940  149.6234 H   0  0  0  0  0  0  0  0  0  0  0  0  # atno 10718 bound_to 10713
  154.2955  135.6245  153.5403 H   0  0  0  0  0  0  0  0  0  0  0  0  # atno 10763 bound_to 10752
  152.9847  135.5666  154.5343 H   0  0  0  0  0  0  0  0  0  0  0  0  # atno 10764 bound_to 10752
  154.4962  135.2869  155.1433 H   0  0  0  0  0  0  0  0  0  0  0  0  # atno 10765 bound_to 10752
  140.3195  134.7449  157.4053 H   0  0  0  0  0  0  0  0  0  0  0  0  # atno 11005 bound_to 11000
  146.2177  139.5579  142.9639 LP  0  0  0  0  0  0  0  0  0  0  0  0  # atno 17320 bound_to 7965
  145.5766  141.0388  143.2145 LP  0  0  0  0  0  0  0  0  0  0  0  0  # atno 17321 bound_to 7965
  140.5948  143.9715  150.6347 LP  0  0  0  0  0  0  0  0  0  0  0  0  # atno 17342 bound_to 10162
  140.2908  143.3326  152.1064 LP  0  0  0  0  0  0  0  0  0  0  0  0  # atno 17343 bound_to 10162
  155.9689  130.4547  150.5858 LP  0  0  0  0  0  0  0  0  0  0  0  0  # atno 17370 bound_to 10713
  157.3658  131.0757  151.1598 LP  0  0  0  0  0  0  0  0  0  0  0  0  # atno 17371 bound_to 10713
  140.0954  134.5544  155.8403 LP  0  0  0  0  0  0  0  0  0  0  0  0  # atno 17394 bound_to 11000
  141.2090  133.6679  156.6408 LP  0  0  0  0  0  0  0  0  0  0  0  0  # atno 17395 bound_to 11000

$$$$
