AV-unprocessed.smi:175|AV-procd|sdf|1429|dock3
  -GOLD-   2262019203D 1   1.00000     0.00000
 Structure written by MMmdl.
 47 50  0  0  0  0  0  0  0  0  1 V2000
  144.9079  132.5253  150.6622 C   0  0  0  0  0  0  0  0  0  0  0  0
  146.0635  131.7544  151.3191 C   0  0  2  0  0  0  0  0  0  0  0  0
  145.5934  130.4386  151.6032 O   0  0  0  0  0  0  0  0  0  0  0  0
  146.2368  129.9585  152.7705 C   0  0  0  0  0  0  0  0  0  0  0  0
  146.2783  131.1946  153.6554 C   0  0  0  0  0  0  0  0  0  0  0  0
  146.5998  132.3126  152.6678 C   0  0  1  0  0  0  0  0  0  0  0  0
  148.0111  132.4059  152.5625 O   0  0  0  0  0  0  0  0  0  0  0  0
  146.0633  133.7015  153.1029 C   0  0  0  0  0  0  0  0  0  0  0  0
  146.2513  133.9758  154.5197 N   0  0  0  0  0  0  0  0  0  0  0  0
  145.2938  133.9089  155.5050 C   0  0  0  0  0  0  0  0  0  0  0  0
  145.7115  134.2029  156.7054 N   0  0  0  0  0  0  0  0  0  0  0  0
  147.0632  134.4886  156.5427 C   0  0  0  0  0  0  0  0  0  0  0  0
  148.1196  134.8758  157.4207 C   0  0  0  0  0  0  0  0  0  0  0  0
  147.9853  135.0603  158.7597 N   0  0  0  0  0  0  0  0  0  0  0  0
  148.5447  136.1896  159.4881 C   0  0  0  0  0  0  0  0  0  0  0  0
  147.9856  135.9566  160.8799 C   0  0  0  0  0  0  0  0  0  0  0  0
  148.2416  136.6855  161.8368 O   0  0  0  0  0  0  0  0  0  0  0  0
  147.2052  134.8701  160.8953 N   0  0  0  0  0  0  0  0  0  0  0  0
  146.4954  134.3186  162.0474 C   0  0  0  0  0  0  0  0  0  0  0  0
  145.0277  134.7791  162.1087 C   0  0  0  0  0  0  0  0  0  0  0  0
  144.4163  134.1452  163.1084 F   0  0  0  0  0  0  0  0  0  0  0  0
  144.9421  136.0910  162.3261 F   0  0  0  0  0  0  0  0  0  0  0  0
  144.4002  134.4817  160.9709 F   0  0  0  0  0  0  0  0  0  0  0  0
  147.1383  134.2190  159.5975 C   0  0  0  0  0  0  0  0  0  0  0  0
  149.3451  135.0748  156.8671 N   0  0  0  0  0  0  0  0  0  0  0  0
  149.5359  134.9032  155.5565 C   0  0  0  0  0  0  0  0  0  0  0  0
  148.6516  134.5421  154.6266 N   0  0  0  0  0  0  0  0  0  0  0  0
  147.4161  134.3465  155.1690 C   0  0  0  0  0  0  0  0  0  0  0  0
  145.2013  133.5437  150.4068 H   0  0  0  0  0  0  0  0  0  0  0  0
  144.0361  132.5733  151.3152 H   0  0  0  0  0  0  0  0  0  0  0  0
  144.5966  132.0360  149.7392 H   0  0  0  0  0  0  0  0  0  0  0  0
  146.8745  131.6675  150.5932 H   0  0  0  0  0  0  0  0  0  0  0  0
  145.6876  129.1329  153.2233 H   0  0  0  0  0  0  0  0  0  0  0  0
  147.2427  129.6143  152.5246 H   0  0  0  0  0  0  0  0  0  0  0  0
  145.2876  131.3465  154.0854 H   0  0  0  0  0  0  0  0  0  0  0  0
  146.9895  131.1127  154.4787 H   0  0  0  0  0  0  0  0  0  0  0  0
  148.2791  131.9866  151.7590 H   0  0  0  0  0  0  0  0  0  0  0  0
  146.5544  134.4938  152.5363 H   0  0  0  0  0  0  0  0  0  0  0  0
  144.9976  133.7848  152.8891 H   0  0  0  0  0  0  0  0  0  0  0  0
  144.2675  133.6385  155.3025 H   0  0  0  0  0  0  0  0  0  0  0  0
  149.6349  136.1627  159.4983 H   0  0  0  0  0  0  0  0  0  0  0  0
  148.1954  137.1429  159.0895 H   0  0  0  0  0  0  0  0  0  0  0  0
  146.5349  133.2298  161.9990 H   0  0  0  0  0  0  0  0  0  0  0  0
  147.0147  134.6003  162.9648 H   0  0  0  0  0  0  0  0  0  0  0  0
  146.1107  134.1971  159.2318 H   0  0  0  0  0  0  0  0  0  0  0  0
  147.5267  133.2009  159.6516 H   0  0  0  0  0  0  0  0  0  0  0  0
  150.5407  135.0808  155.2029 H   0  0  0  0  0  0  0  0  0  0  0  0
  1  2  1  0  0  0  0
  1 29  1  0  0  0  0
  1 30  1  0  0  0  0
  1 31  1  0  0  0  0
  2  6  1  0  0  0  0
  2  3  1  0  0  0  0
  2 32  1  0  0  0  0
  3  4  1  0  0  0  0
  4  5  1  0  0  0  0
  4 33  1  0  0  0  0
  4 34  1  0  0  0  0
  5  6  1  0  0  0  0
  5 35  1  0  0  0  0
  5 36  1  0  0  0  0
  6  7  1  0  0  0  0
  6  8  1  0  0  0  0
  7 37  1  0  0  0  0
  8  9  1  0  0  0  0
  8 38  1  0  0  0  0
  8 39  1  0  0  0  0
  9 28  1  0  0  0  0
  9 10  1  0  0  0  0
 10 11  2  0  0  0  0
 10 40  1  0  0  0  0
 11 12  1  0  0  0  0
 12 28  2  0  0  0  0
 12 13  1  0  0  0  0
 13 14  1  0  0  0  0
 13 25  2  0  0  0  0
 14 24  1  0  0  0  0
 14 15  1  0  0  0  0
 15 16  1  0  0  0  0
 15 41  1  0  0  0  0
 15 42  1  0  0  0  0
 16 17  2  0  0  0  0
 16 18  1  0  0  0  0
 18 19  1  0  0  0  0
 18 24  1  0  0  0  0
 19 20  1  0  0  0  0
 19 43  1  0  0  0  0
 19 44  1  0  0  0  0
 20 21  1  0  0  0  0
 20 22  1  0  0  0  0
 20 23  1  0  0  0  0
 24 45  1  0  0  0  0
 24 46  1  0  0  0  0
 25 26  1  0  0  0  0
 26 27  2  0  0  0  0
 26 47  1  0  0  0  0
 27 28  1  0  0  0  0
M  END
> <s_m_source_file>
AV-unprocessed.smi

> <i_m_source_file_index>
175

> <i_lp_mmshare_version>
43012

> <i_f3d_flags>
0

> <s_epik_input>
W0NIMl0xW0NIMl1PW0NAQEhdKFtDSDNdKVtDQEBdMShbT0hdKVtDSDJdbihbY0hdbjIpYyhjMjMpbltjSF1uYzNONFtDSDJdQyg9TylOKFtDSDJdNClbQ0gyXUMoRikoRilG

> <s_epik_cmdline>
J2VwaWtfcHl0aG9uJywgJy1waCcsICc3LjAnLCAnLXRuJywgJzgnLCAnLW1hJywgJzIwMCcsICctbWV0YWxfYmluZGluZycsICctaW1hZScsICc8aW5maWxlLm1hZT4nLCAnLW9tYWUnLCAnPG91dGZpbGUubWFlPic=

> <r_lp_tautomer_probability>
1

> <r_epik_Ionization_Penalty>
0.000307802

> <r_epik_Ionization_Penalty_Charging>
0

> <r_epik_Ionization_Penalty_Neutral>
0.000307802

> <r_epik_State_Penalty>
-0

> <r_epik_Charging_Adjusted_Penalty>
0

> <i_epik_Tot_Q>
0

> <i_epik_Tot_abs_Q>
0

> <r_epik_Metal_State_Penalty>
-0

> <b_epik_Metal_Only>
0

> <s_epik_Chemistry_Notes>
This compound contains an acetal/aminal-like group ( X-CH(R)-Y where X, Y are N, S, or O) that may be acid/base labile, releasing an aldehyde.

> <s_lp_Force_Field>
OPLS_2005

> <r_lp_Energy>
32.9701

> <b_lp_Chiralities_Consistent>
1

> <s_lp_Variant>
AV-unprocessed.smi:175-1

> <Gold.Version>
5.8.1

> <Gold.Id.Protein>
6NUR|6NUR_protein|mol2

> <Gold.PLP.Fitness>
41.4787

> <Gold.PLP.PLP>
-35.2307

> <Gold.PLP.part.hbond>
-2.0000

> <Gold.PLP.part.metal>
0.0000

> <Gold.PLP.part.buried>
-7.2581

> <Gold.PLP.part.nonpolar>
-26.7284

> <Gold.PLP.part.repulsive>
0.3140

> <Gold.PLP.ligand.clash>
0.0000

> <Gold.PLP.ligand.torsion>
1.4733

> <Gold.PLP.Chemscore.Hbond>
2.0000

> <Gold.PLP.Chemscore.CHOScore>
1.0000

> <Gold.PLP.Chemscore.Metal>
0.0000

> <Gold.Chemscore.Hbonds>
donor molecule, donor type, donor heavy atom, donor atom, acceptor molecule, acceptor atom, score
      L1  H     7    37       P1 10747  1.00
      P1  H  6931  6943       L1    17  1.00
      L1  C    10    40       P1 10957  1.00

> <Gold.PLP.Chemscore.Internal.Correction>
0.1945

> <Gold.Rescore>
     Score         DG    S(hbond)    S(metal)    S(lipo)     H(rot)  DE(clash)    DE(int)     intcor
     12.95     -14.66       2.76        0.00      55.30       2.54       0.06       1.64       ----

> <Gold.Chemscore.Fitness>
12.9540

> <Gold.Chemscore.DG>
-14.6579

> <Gold.Chemscore.ZeroCoef>
-5.4800

> <Gold.Chemscore.Hbond>
2.7557

> <Gold.Chemscore.Metal>
0.0000

> <Gold.Chemscore.Lipo>
55.2978

> <Gold.Chemscore.Internal_Hbond>
0.0000

> <Gold.Chemscore.DEClash>
0.0614

> <Gold.Chemscore.DEInternal>
1.6426

> <Gold.Chemscore.Rot>
2.5375

> <Gold.Chemscore.Internal.Correction>
   9.000000E+99

> <Gold.Chemscore.Hbonds>
donor molecule, donor type, donor heavy atom, donor atom, acceptor molecule, acceptor atom, score
      L1  H     7    37       P1 10747  0.97
      P1  H  6931  6943       L1    17  1.00

> <Gold.Chemscore.Hbond.Weighted>
-9.2041

> <Gold.Chemscore.Metal.Weighted>
-0.0000

> <Gold.Chemscore.Lipo.Weighted>
-6.4698

> <Gold.Chemscore.Internal_Hbond.Weighted>
0.0000

> <Gold.Chemscore.DEClash.Weighted>
0.0614

> <Gold.Chemscore.DEInternal.Weighted>
1.6426

> <Gold.Chemscore.Rot.Weighted>
6.4961

> <Gold.Chemscore.Internal.Correction.Weighted>
   9.000000E+99

> <Gold.Protein.RotatedTorsions>
[ 6907 6896 6895 6894 ] final    5.11 input  -60.11 | X-H torsion
[ 7974 7965 7964 7962 ] final  168.29 input  175.53 | X-H torsion
[ 8008 7997 7996 7995 ] final  126.72 input   59.86 | X-H torsion
[ 10167 10162 10161 10158 ] final  -33.63 input  -65.29 | X-H torsion
[ 10718 10713 10712 10709 ] final  -80.98 input   66.30 | X-H torsion
[ 10763 10752 10751 10750 ] final  101.82 input  -60.55 | X-H torsion
[ 11005 11000 10999 10996 ] final  -69.18 input  -57.11 | X-H torsion

> <Gold.Protein.ActiveResidues>
 VAL166  LYS551  ARG553  GLY616  TRP617  ASP618  TYR619  PRO620  LYS621  CYS622 
 ASP623  PHE694  ASN695  SER759  ASP760  ASP761  ALA762  ILE779  LEU786  VAL792 
 PHE793  MET794  SER795  GLU796  ALA797  LYS798  CYS799  TRP800  GLU811  SER814 

> <Gold.Protein.RotatedAtoms>
  151.6522  135.1000  160.0162 H   0  0  0  0  0  0  0  0  0  0  0  0  # atno 6907 bound_to 6896
  152.3994  133.6791  159.6312 H   0  0  0  0  0  0  0  0  0  0  0  0  # atno 6908 bound_to 6896
  150.7896  133.8734  159.3306 H   0  0  0  0  0  0  0  0  0  0  0  0  # atno 6909 bound_to 6896
  144.7394  139.8886  143.6401 H   0  0  0  0  0  0  0  0  0  0  0  0  # atno 7974 bound_to 7965
  156.2871  140.2686  156.2156 H   0  0  0  0  0  0  0  0  0  0  0  0  # atno 8008 bound_to 7997
  155.0220  140.0386  157.2459 H   0  0  0  0  0  0  0  0  0  0  0  0  # atno 8009 bound_to 7997
  154.7428  140.2728  155.6364 H   0  0  0  0  0  0  0  0  0  0  0  0  # atno 8010 bound_to 7997
  140.7201  143.3606  151.1970 H   0  0  0  0  0  0  0  0  0  0  0  0  # atno 10167 bound_to 10162
  156.0059  130.4590  150.3882 H   0  0  0  0  0  0  0  0  0  0  0  0  # atno 10718 bound_to 10713
  153.3316  135.4031  155.1500 H   0  0  0  0  0  0  0  0  0  0  0  0  # atno 10763 bound_to 10752
  154.8624  135.3612  154.5463 H   0  0  0  0  0  0  0  0  0  0  0  0  # atno 10764 bound_to 10752
  153.5902  135.7074  153.5486 H   0  0  0  0  0  0  0  0  0  0  0  0  # atno 10765 bound_to 10752
  141.1548  133.6758  156.6559 H   0  0  0  0  0  0  0  0  0  0  0  0  # atno 11005 bound_to 11000
  146.1158  139.4169  143.0259 LP  0  0  0  0  0  0  0  0  0  0  0  0  # atno 17320 bound_to 7965
  145.7376  141.0020  143.1318 LP  0  0  0  0  0  0  0  0  0  0  0  0  # atno 17321 bound_to 7965
  139.7157  143.9304  152.2966 LP  0  0  0  0  0  0  0  0  0  0  0  0  # atno 17342 bound_to 10162
  139.9044  144.6893  150.8630 LP  0  0  0  0  0  0  0  0  0  0  0  0  # atno 17343 bound_to 10162
  157.1958  131.0426  151.2676 LP  0  0  0  0  0  0  0  0  0  0  0  0  # atno 17370 bound_to 10713
  157.4020  130.7338  149.6774 LP  0  0  0  0  0  0  0  0  0  0  0  0  # atno 17371 bound_to 10713
  140.3284  134.7949  157.4307 LP  0  0  0  0  0  0  0  0  0  0  0  0  # atno 17394 bound_to 11000
  140.1037  134.5438  155.8329 LP  0  0  0  0  0  0  0  0  0  0  0  0  # atno 17395 bound_to 11000

$$$$
