AV-unprocessed.smi:2853|AV-procd|sdf|10973|dock1
  -GOLD-   2272015423D 1   1.00000     0.00000
 Structure written by MMmdl.
 43 44  0  0  0  0  0  0  0  0  1 V2000
  149.6530  129.2818  154.7989 C   0  0  0  0  0  0  0  0  0  0  0  0
  149.3368  130.7039  154.4851 C   0  0  0  0  0  0  0  0  0  0  0  0
  148.3467  131.0818  153.6782 N   0  0  0  0  0  0  0  0  0  0  0  0
  148.2598  132.4703  153.5402 C   0  0  0  0  0  0  0  0  0  0  0  0
  147.1892  133.0428  152.6522 C   0  0  0  0  0  0  0  0  0  0  0  0
  145.9990  133.6400  153.4312 C   0  0  0  0  0  0  0  0  0  0  0  0
  144.7349  133.7701  152.5639 C   0  0  0  0  0  0  0  0  0  0  0  0
  146.3756  134.9941  154.0508 C   0  0  0  0  0  0  0  0  0  0  0  0
  149.2072  133.1699  154.2564 C   0  0  0  0  0  0  0  0  0  0  0  0
  149.3329  134.5238  154.2511 N   0  0  0  0  0  0  0  0  0  0  0  0
  150.0189  135.3181  155.0910 C   0  0  0  0  0  0  0  0  0  0  0  0
  150.5889  134.9489  156.1173 O   0  0  0  0  0  0  0  0  0  0  0  0
  149.9895  136.5935  154.6683 N   0  0  0  0  0  0  0  0  0  0  0  0
  150.6070  137.7774  155.2818 C   0  0  1  0  0  0  0  0  0  0  0  0
  150.0174  137.9233  156.6970 C   0  0  0  0  0  0  0  0  0  0  0  0
  152.1419  137.6885  155.3451 C   0  0  0  0  0  0  0  0  0  0  0  0
  152.6238  138.8514  154.4798 C   0  0  0  0  0  0  0  0  0  0  0  0
  151.5697  139.7934  154.5769 O   0  0  0  0  0  0  0  0  0  0  0  0
  150.3586  139.0633  154.4631 C   0  0  0  0  0  0  0  0  0  0  0  0
  150.2415  132.0568  155.1389 S   0  0  0  0  0  0  0  0  0  0  0  0
  148.8955  128.6179  154.3812 H   0  0  0  0  0  0  0  0  0  0  0  0
  149.6873  129.1368  155.8788 H   0  0  0  0  0  0  0  0  0  0  0  0
  150.6225  129.0151  154.3782 H   0  0  0  0  0  0  0  0  0  0  0  0
  147.6277  133.8194  152.0239 H   0  0  0  0  0  0  0  0  0  0  0  0
  146.8259  132.2855  151.9566 H   0  0  0  0  0  0  0  0  0  0  0  0
  145.7666  132.9655  154.2568 H   0  0  0  0  0  0  0  0  0  0  0  0
  144.9134  134.4067  151.6966 H   0  0  0  0  0  0  0  0  0  0  0  0
  143.9128  134.2059  153.1324 H   0  0  0  0  0  0  0  0  0  0  0  0
  144.3962  132.7997  152.2011 H   0  0  0  0  0  0  0  0  0  0  0  0
  146.6232  135.7268  153.2819 H   0  0  0  0  0  0  0  0  0  0  0  0
  147.2385  134.8990  154.7106 H   0  0  0  0  0  0  0  0  0  0  0  0
  145.5541  135.3981  154.6433 H   0  0  0  0  0  0  0  0  0  0  0  0
  148.8707  134.9907  153.4849 H   0  0  0  0  0  0  0  0  0  0  0  0
  149.4833  136.7703  153.8132 H   0  0  0  0  0  0  0  0  0  0  0  0
  150.4114  138.8061  157.2023 H   0  0  0  0  0  0  0  0  0  0  0  0
  150.2517  137.0565  157.3162 H   0  0  0  0  0  0  0  0  0  0  0  0
  148.9316  138.0229  156.6662 H   0  0  0  0  0  0  0  0  0  0  0  0
  152.4953  137.8331  156.3669 H   0  0  0  0  0  0  0  0  0  0  0  0
  152.5488  136.7355  155.0054 H   0  0  0  0  0  0  0  0  0  0  0  0
  153.5699  139.2685  154.8254 H   0  0  0  0  0  0  0  0  0  0  0  0
  152.7446  138.5436  153.4402 H   0  0  0  0  0  0  0  0  0  0  0  0
  150.1779  138.8645  153.4063 H   0  0  0  0  0  0  0  0  0  0  0  0
  149.5140  139.6477  154.8294 H   0  0  0  0  0  0  0  0  0  0  0  0
  1  2  1  0  0  0  0
  1 21  1  0  0  0  0
  1 22  1  0  0  0  0
  1 23  1  0  0  0  0
  2 20  1  0  0  0  0
  2  3  2  0  0  0  0
  3  4  1  0  0  0  0
  4  5  1  0  0  0  0
  4  9  2  0  0  0  0
  5  6  1  0  0  0  0
  5 24  1  0  0  0  0
  5 25  1  0  0  0  0
  6  7  1  0  0  0  0
  6  8  1  0  0  0  0
  6 26  1  0  0  0  0
  7 27  1  0  0  0  0
  7 28  1  0  0  0  0
  7 29  1  0  0  0  0
  8 30  1  0  0  0  0
  8 31  1  0  0  0  0
  8 32  1  0  0  0  0
  9 10  1  0  0  0  0
  9 20  1  0  0  0  0
 10 11  1  0  0  0  0
 10 33  1  0  0  0  0
 11 12  2  0  0  0  0
 11 13  1  0  0  0  0
 13 14  1  0  0  0  0
 13 34  1  0  0  0  0
 14 19  1  0  0  0  0
 14 15  1  0  0  0  0
 14 16  1  0  0  0  0
 15 35  1  0  0  0  0
 15 36  1  0  0  0  0
 15 37  1  0  0  0  0
 16 17  1  0  0  0  0
 16 38  1  0  0  0  0
 16 39  1  0  0  0  0
 17 18  1  0  0  0  0
 17 40  1  0  0  0  0
 17 41  1  0  0  0  0
 18 19  1  0  0  0  0
 19 42  1  0  0  0  0
 19 43  1  0  0  0  0
M  END
> <s_m_source_file>
AV-unprocessed.smi

> <i_m_source_file_index>
2853

> <i_lp_mmshare_version>
43012

> <i_f3d_flags>
0

> <s_epik_input>
W0NIM11jMW5jKFtDSDJdW0NIXShbQ0gzXSlbQ0gzXSljKHMxKVtOSF1DKD1PKVtOSF1bQ0BAXTIoW0NIM10pW0NIMl1bQ0gyXU9bQ0gyXTI=

> <s_epik_cmdline>
J2VwaWtfcHl0aG9uJywgJy1waCcsICc3LjAnLCAnLXRuJywgJzgnLCAnLW1hJywgJzIwMCcsICctbWV0YWxfYmluZGluZycsICctaW1hZScsICc8aW5maWxlLm1hZT4nLCAnLW9tYWUnLCAnPG91dGZpbGUubWFlPic=

> <r_epik_Ionization_Penalty>
0.000723394

> <r_epik_Ionization_Penalty_Charging>
0

> <r_epik_Ionization_Penalty_Neutral>
0.000723394

> <r_epik_State_Penalty>
0.000446791

> <r_epik_Charging_Adjusted_Penalty>
0.000446791

> <i_epik_Tot_Q>
0

> <i_epik_Tot_abs_Q>
0

> <r_epik_Metal_State_Penalty>
-0

> <b_epik_Metal_Only>
0

> <s_lp_Force_Field>
OPLS_2005

> <r_lp_Energy>
15.1609

> <b_lp_Chiralities_Consistent>
1

> <s_lp_Variant>
AV-unprocessed.smi:2853-1

> <Gold.Version>
5.8.1

> <Gold.Id.Protein>
6NUR|6NUR_protein|mol2

> <Gold.PLP.Fitness>
41.9598

> <Gold.PLP.PLP>
-33.7497

> <Gold.PLP.part.hbond>
-3.0000

> <Gold.PLP.part.metal>
0.0000

> <Gold.PLP.part.buried>
-4.6490

> <Gold.PLP.part.nonpolar>
-27.2162

> <Gold.PLP.part.repulsive>
0.2606

> <Gold.PLP.ligand.clash>
0.0000

> <Gold.PLP.ligand.torsion>
0.4223

> <Gold.PLP.Chemscore.Hbond>
3.0000

> <Gold.PLP.Chemscore.CHOScore>
0.0000

> <Gold.PLP.Chemscore.Metal>
0.0000

> <Gold.Chemscore.Hbonds>
donor molecule, donor type, donor heavy atom, donor atom, acceptor molecule, acceptor atom, score
      L1  H    10    33       P1  7948  0.98
      L1  H    13    34       P1  7948  0.90
      P1  H  7989  7998       L1    18  0.98

> <Gold.PLP.Chemscore.Internal.Correction>
0.0547

> <Gold.Rescore>
     Score         DG    S(hbond)    S(metal)    S(lipo)     H(rot)  DE(clash)    DE(int)     intcor
     16.51     -17.19       2.08        0.00      68.66       1.28       0.01       0.67       ----

> <Gold.Chemscore.Fitness>
16.5112

> <Gold.Chemscore.DG>
-17.1928

> <Gold.Chemscore.ZeroCoef>
-5.4800

> <Gold.Chemscore.Hbond>
2.0792

> <Gold.Chemscore.Metal>
0.0000

> <Gold.Chemscore.Lipo>
68.6570

> <Gold.Chemscore.Internal_Hbond>
0.0000

> <Gold.Chemscore.DEClash>
0.0086

> <Gold.Chemscore.DEInternal>
0.6730

> <Gold.Chemscore.Rot>
1.2753

> <Gold.Chemscore.Internal.Correction>
   9.000000E+99

> <Gold.Chemscore.Hbonds>
donor molecule, donor type, donor heavy atom, donor atom, acceptor molecule, acceptor atom, score
      L1  H    10    33       P1  7948  0.40
      L1  H    13    34       P1  7948  0.73
      P1  H  7989  7998       L1    18  0.58

> <Gold.Chemscore.Hbond.Weighted>
-6.9446

> <Gold.Chemscore.Metal.Weighted>
-0.0000

> <Gold.Chemscore.Lipo.Weighted>
-8.0329

> <Gold.Chemscore.Internal_Hbond.Weighted>
0.0000

> <Gold.Chemscore.DEClash.Weighted>
0.0086

> <Gold.Chemscore.DEInternal.Weighted>
0.6730

> <Gold.Chemscore.Rot.Weighted>
3.2646

> <Gold.Chemscore.Internal.Correction.Weighted>
   9.000000E+99

> <Gold.Protein.RotatedTorsions>
[ 6907 6896 6895 6894 ] final  142.85 input  -60.11 | X-H torsion
[ 7974 7965 7964 7962 ] final  -66.88 input  175.53 | X-H torsion
[ 8008 7997 7996 7995 ] final -139.97 input   59.86 | X-H torsion
[ 10167 10162 10161 10158 ] final  -56.47 input  -65.29 | X-H torsion
[ 10718 10713 10712 10709 ] final   15.35 input   66.30 | X-H torsion
[ 10763 10752 10751 10750 ] final   71.82 input  -60.55 | X-H torsion
[ 11005 11000 10999 10996 ] final   40.63 input  -57.11 | X-H torsion

> <Gold.Protein.ActiveResidues>
 VAL166  LYS551  ARG553  GLY616  TRP617  ASP618  TYR619  PRO620  LYS621  CYS622 
 ASP623  PHE694  ASN695  SER759  ASP760  ASP761  ALA762  ILE779  LEU786  VAL792 
 PHE793  MET794  SER795  GLU796  ALA797  LYS798  CYS799  TRP800  GLU811  SER814 

> <Gold.Protein.RotatedAtoms>
  152.2135  133.4929  159.5123 H   0  0  0  0  0  0  0  0  0  0  0  0  # atno 6907 bound_to 6896
  150.6996  134.1435  159.4123 H   0  0  0  0  0  0  0  0  0  0  0  0  # atno 6908 bound_to 6896
  151.9355  135.0237  160.0583 H   0  0  0  0  0  0  0  0  0  0  0  0  # atno 6909 bound_to 6896
  145.7362  140.8974  143.0554 H   0  0  0  0  0  0  0  0  0  0  0  0  # atno 7974 bound_to 7965
  155.4537  140.0540  157.2998 H   0  0  0  0  0  0  0  0  0  0  0  0  # atno 8008 bound_to 7997
  154.4766  140.2063  155.9818 H   0  0  0  0  0  0  0  0  0  0  0  0  # atno 8009 bound_to 7997
  156.1142  140.3199  155.8120 H   0  0  0  0  0  0  0  0  0  0  0  0  # atno 8010 bound_to 7997
  140.6315  143.2462  151.5228 H   0  0  0  0  0  0  0  0  0  0  0  0  # atno 10167 bound_to 10162
  157.0522  130.6274  149.5770 H   0  0  0  0  0  0  0  0  0  0  0  0  # atno 10718 bound_to 10713
  153.0422  135.5123  154.7651 H   0  0  0  0  0  0  0  0  0  0  0  0  # atno 10763 bound_to 10752
  154.6580  135.2934  154.9906 H   0  0  0  0  0  0  0  0  0  0  0  0  # atno 10764 bound_to 10752
  154.0767  135.6670  153.4884 H   0  0  0  0  0  0  0  0  0  0  0  0  # atno 10765 bound_to 10752
  140.1913  134.3984  155.8145 H   0  0  0  0  0  0  0  0  0  0  0  0  # atno 11005 bound_to 11000
  144.6881  139.9398  143.7474 LP  0  0  0  0  0  0  0  0  0  0  0  0  # atno 17320 bound_to 7965
  146.0491  139.3494  143.0650 LP  0  0  0  0  0  0  0  0  0  0  0  0  # atno 17321 bound_to 7965
  139.5529  144.2349  152.1562 LP  0  0  0  0  0  0  0  0  0  0  0  0  # atno 17342 bound_to 10162
  140.1594  144.5039  150.6641 LP  0  0  0  0  0  0  0  0  0  0  0  0  # atno 17343 bound_to 10162
  156.0004  130.5082  150.7641 LP  0  0  0  0  0  0  0  0  0  0  0  0  # atno 17370 bound_to 10713
  157.5021  131.0919  151.0302 LP  0  0  0  0  0  0  0  0  0  0  0  0  # atno 17371 bound_to 10713
  141.2226  133.7047  156.8099 LP  0  0  0  0  0  0  0  0  0  0  0  0  # atno 17394 bound_to 11000
  140.2157  134.8794  157.3323 LP  0  0  0  0  0  0  0  0  0  0  0  0  # atno 17395 bound_to 11000

$$$$
