AV-unprocessed.smi:2750|AV-procd|sdf|10592|dock1
  -GOLD-   2272015 43D 1   1.00000     0.00000
 Structure written by MMmdl.
 24 25  0  0  0  0  0  0  0  0  3 V2000
  152.6173  136.9644  156.7706 O   0  0  0  0  0  0  0  0  0  0  0  0
  152.5831  137.9969  156.0655 C   0  0  0  0  0  0  0  0  0  0  0  0
  153.2737  139.0242  156.2438 O   0  5  0  0  0  0  0  0  0  0  0  0
  151.6168  138.0023  154.8809 C   0  0  0  0  0  0  0  0  0  0  0  0
  150.7155  139.1392  154.9187 N   0  0  0  0  0  0  0  0  0  0  0  0
  149.7026  139.4623  154.0396 C   0  0  0  0  0  0  0  0  0  0  0  0
  149.1915  140.6185  154.5562 C   0  0  0  0  0  0  0  0  0  0  0  0
  148.0691  141.4701  154.0435 C   0  0  0  0  0  0  0  0  0  0  0  0
  146.7717  140.6686  153.8182 C   0  0  1  0  0  0  0  0  0  0  0  0
  146.7501  140.0657  152.5022 N   0  0  0  0  0  0  0  0  0  0  0  0
  146.6285  138.7421  152.5759 C   0  0  0  0  0  0  0  0  0  0  0  0
  146.5740  138.0411  151.5681 O   0  0  0  0  0  0  0  0  0  0  0  0
  146.5856  138.3512  153.8643 N   0  5  0  0  0  0  0  0  0  0  0  0
  146.6715  139.4171  154.6894 C   0  0  0  0  0  0  0  0  0  0  0  0
  146.6705  139.4734  155.9180 O   0  0  0  0  0  0  0  0  0  0  0  0
  149.9020  140.9463  155.7104 N   0  0  0  0  0  0  0  0  0  0  0  0
  150.8134  140.0485  155.9187 N   0  0  0  0  0  0  0  0  0  0  0  0
  152.1725  138.0127  153.9418 H   0  0  0  0  0  0  0  0  0  0  0  0
  151.0248  137.0862  154.8882 H   0  0  0  0  0  0  0  0  0  0  0  0
  149.4498  138.8710  153.1721 H   0  0  0  0  0  0  0  0  0  0  0  0
  147.8831  142.2967  154.7312 H   0  0  0  0  0  0  0  0  0  0  0  0
  148.3724  141.9329  153.1035 H   0  0  0  0  0  0  0  0  0  0  0  0
  145.8873  141.2910  153.9622 H   0  0  0  0  0  0  0  0  0  0  0  0
  146.8022  140.5967  151.6454 H   0  0  0  0  0  0  0  0  0  0  0  0
  1  2  2  0  0  0  0
  2  3  1  0  0  0  0
  2  4  1  0  0  0  0
  4  5  1  0  0  0  0
  4 18  1  0  0  0  0
  4 19  1  0  0  0  0
  5 17  1  0  0  0  0
  5  6  1  0  0  0  0
  6  7  2  0  0  0  0
  6 20  1  0  0  0  0
  7  8  1  0  0  0  0
  7 16  1  0  0  0  0
  8  9  1  0  0  0  0
  8 21  1  0  0  0  0
  8 22  1  0  0  0  0
  9 14  1  0  0  0  0
  9 10  1  0  0  0  0
  9 23  1  0  0  0  0
 10 11  1  0  0  0  0
 10 24  1  0  0  0  0
 11 12  2  0  0  0  0
 11 13  1  0  0  0  0
 13 14  1  0  0  0  0
 14 15  2  0  0  0  0
 16 17  2  0  0  0  0
M  CHG  1   3  -1
M  CHG  1  13  -1
M  END
> <s_m_source_file>
AV-unprocessed.smi

> <i_m_source_file_index>
2750

> <i_lp_mmshare_version>
43012

> <i_f3d_flags>
0

> <s_epik_input>
Tz1DKFtPSF0pW0NIMl1uMVtjSF1jKG5uMSlbQ0gyXVtDQEBIXTJbTkhdQyg9TylbTkhdQzI9Tw==

> <s_epik_cmdline>
J2VwaWtfcHl0aG9uJywgJy1waCcsICc3LjAnLCAnLXRuJywgJzgnLCAnLW1hJywgJzIwMCcsICctbWV0YWxfYmluZGluZycsICctaW1hZScsICc8aW5maWxlLm1hZT4nLCAnLW9tYWUnLCAnPG91dGZpbGUubWFlPic=

> <r_lp_tautomer_probability>
1

> <r_epik_Ionization_Penalty>
2.03209

> <r_epik_Ionization_Penalty_Charging>
2.03208

> <r_epik_Ionization_Penalty_Neutral>
1.30912e-05

> <r_epik_State_Penalty>
2.16313

> <r_epik_Charging_Adjusted_Penalty>
4.19521

> <i_epik_Tot_Q>
-2

> <i_epik_Tot_abs_Q>
2

> <r_epik_Metal_State_Penalty>
0.529162

> <b_epik_Metal_Only>
0

> <s_lp_Force_Field>
OPLS_2005

> <r_lp_Energy>
6.41301

> <b_lp_Chiralities_Consistent>
1

> <s_lp_Variant>
AV-unprocessed.smi:2750-4

> <Gold.Version>
5.8.1

> <Gold.Id.Protein>
6NUR|6NUR_protein|mol2

> <Gold.PLP.Fitness>
43.9564

> <Gold.PLP.PLP>
-26.9720

> <Gold.PLP.part.hbond>
-4.4867

> <Gold.PLP.part.metal>
0.0000

> <Gold.PLP.part.buried>
-1.7832

> <Gold.PLP.part.nonpolar>
-22.2722

> <Gold.PLP.part.repulsive>
0.7161

> <Gold.PLP.ligand.clash>
0.0000

> <Gold.PLP.ligand.torsion>
0.4573

> <Gold.PLP.Chemscore.Hbond>
5.0000

> <Gold.PLP.Chemscore.CHOScore>
0.9547

> <Gold.PLP.Chemscore.Metal>
0.0000

> <Gold.Chemscore.Hbonds>
donor molecule, donor type, donor heavy atom, donor atom, acceptor molecule, acceptor atom, score
      P1  H  7954  7966       L1    12  0.29
      P1  H  7997  8009       L1     3  1.95
      P1  H 10752 10765       L1     1  0.71
      L1  C     6    20       P1  7957  0.69

> <Gold.PLP.Chemscore.Internal.Correction>
0.0350

> <Gold.Rescore>
     Score         DG    S(hbond)    S(metal)    S(lipo)     H(rot)  DE(clash)    DE(int)     intcor
      8.47     -12.41       2.92        0.00      37.19       2.80       2.10       1.84       ----

> <Gold.Chemscore.Fitness>
8.4736

> <Gold.Chemscore.DG>
-12.4122

> <Gold.Chemscore.ZeroCoef>
-5.4800

> <Gold.Chemscore.Hbond>
2.9169

> <Gold.Chemscore.Metal>
0.0000

> <Gold.Chemscore.Lipo>
37.1859

> <Gold.Chemscore.Internal_Hbond>
0.0000

> <Gold.Chemscore.DEClash>
2.0957

> <Gold.Chemscore.DEInternal>
1.8430

> <Gold.Chemscore.Rot>
2.7973

> <Gold.Chemscore.Internal.Correction>
   9.000000E+99

> <Gold.Chemscore.Hbonds>
donor molecule, donor type, donor heavy atom, donor atom, acceptor molecule, acceptor atom, score
      P1  H  7954  7966       L1    12  0.29
      P1  H  7997  8009       L1     3  0.90
      P1  H 10752 10765       L1     1  0.09

> <Gold.Chemscore.Hbond.Weighted>
-9.7426

> <Gold.Chemscore.Metal.Weighted>
-0.0000

> <Gold.Chemscore.Lipo.Weighted>
-4.3508

> <Gold.Chemscore.Internal_Hbond.Weighted>
0.0000

> <Gold.Chemscore.DEClash.Weighted>
2.0957

> <Gold.Chemscore.DEInternal.Weighted>
1.8430

> <Gold.Chemscore.Rot.Weighted>
7.1611

> <Gold.Chemscore.Internal.Correction.Weighted>
   9.000000E+99

> <Gold.Protein.RotatedTorsions>
[ 6907 6896 6895 6894 ] final   60.91 input  -60.11 | X-H torsion
[ 7974 7965 7964 7962 ] final  -79.30 input  175.53 | X-H torsion
[ 8008 7997 7996 7995 ] final -164.10 input   59.86 | X-H torsion
[ 10167 10162 10161 10158 ] final  143.49 input  -65.29 | X-H torsion
[ 10718 10713 10712 10709 ] final  157.82 input   66.30 | X-H torsion
[ 10763 10752 10751 10750 ] final -133.57 input  -60.55 | X-H torsion
[ 11005 11000 10999 10996 ] final  -73.85 input  -57.11 | X-H torsion

> <Gold.Protein.ActiveResidues>
 VAL166  LYS551  ARG553  GLY616  TRP617  ASP618  TYR619  PRO620  LYS621  CYS622 
 ASP623  PHE694  ASN695  SER759  ASP760  ASP761  ALA762  ILE779  LEU786  VAL792 
 PHE793  MET794  SER795  GLU796  ALA797  LYS798  CYS799  TRP800  GLU811  SER814 

> <Gold.Protein.RotatedAtoms>
  152.4044  134.6232  160.0056 H   0  0  0  0  0  0  0  0  0  0  0  0  # atno 6907 bound_to 6896
  151.6428  133.3319  159.3142 H   0  0  0  0  0  0  0  0  0  0  0  0  # atno 6908 bound_to 6896
  150.7940  134.7028  159.6604 H   0  0  0  0  0  0  0  0  0  0  0  0  # atno 6909 bound_to 6896
  145.5751  140.9459  143.1374 H   0  0  0  0  0  0  0  0  0  0  0  0  # atno 7974 bound_to 7965
  155.8308  140.0933  157.1794 H   0  0  0  0  0  0  0  0  0  0  0  0  # atno 8008 bound_to 7997
  154.3980  140.1419  156.3672 H   0  0  0  0  0  0  0  0  0  0  0  0  # atno 8009 bound_to 7997
  155.8168  140.3448  155.5493 H   0  0  0  0  0  0  0  0  0  0  0  0  # atno 8010 bound_to 7997
  139.4968  144.6037  151.6426 H   0  0  0  0  0  0  0  0  0  0  0  0  # atno 10167 bound_to 10162
  157.1863  131.0644  151.2104 H   0  0  0  0  0  0  0  0  0  0  0  0  # atno 10718 bound_to 10713
  154.8731  135.3762  154.4594 H   0  0  0  0  0  0  0  0  0  0  0  0  # atno 10763 bound_to 10752
  153.5264  135.7028  153.5710 H   0  0  0  0  0  0  0  0  0  0  0  0  # atno 10764 bound_to 10752
  153.3935  135.3966  155.1904 H   0  0  0  0  0  0  0  0  0  0  0  0  # atno 10765 bound_to 10752
  141.1628  133.6892  156.7274 H   0  0  0  0  0  0  0  0  0  0  0  0  # atno 11005 bound_to 11000
  144.7420  139.7424  143.7307 LP  0  0  0  0  0  0  0  0  0  0  0  0  # atno 17320 bound_to 7965
  146.1756  139.4926  142.9899 LP  0  0  0  0  0  0  0  0  0  0  0  0  # atno 17321 bound_to 7965
  140.5693  144.0136  150.6208 LP  0  0  0  0  0  0  0  0  0  0  0  0  # atno 17342 bound_to 10162
  140.3249  143.3114  152.0747 LP  0  0  0  0  0  0  0  0  0  0  0  0  # atno 17343 bound_to 10162
  157.3904  130.7279  149.6693 LP  0  0  0  0  0  0  0  0  0  0  0  0  # atno 17370 bound_to 10713
  155.9717  130.4148  150.4150 LP  0  0  0  0  0  0  0  0  0  0  0  0  # atno 17371 bound_to 10713
  140.2770  134.8347  157.3899 LP  0  0  0  0  0  0  0  0  0  0  0  0  # atno 17394 bound_to 11000
  140.1468  134.4901  155.7990 LP  0  0  0  0  0  0  0  0  0  0  0  0  # atno 17395 bound_to 11000

$$$$
