AV-unprocessed.smi:3234|AV-procd|sdf|12350|dock1
  -GOLD-   2272018213D 1   1.00000     0.00000
 Structure written by MMmdl.
 37 39  0  0  0  0  0  0  0  0  2 V2000
  146.2841  136.7946  153.1391 O   0  0  0  0  0  0  0  0  0  0  0  0
  145.6181  137.7883  152.8496 C   0  0  0  0  0  0  0  0  0  0  0  0
  146.0269  139.0639  152.9649 N   0  0  0  0  0  0  0  0  0  0  0  0
  147.2637  139.5595  153.4614 C   0  0  0  0  0  0  0  0  0  0  0  0
  147.3991  140.9554  153.6098 C   0  0  0  0  0  0  0  0  0  0  0  0
  148.6094  141.4709  154.1153 C   0  0  0  0  0  0  0  0  0  0  0  0
  149.6520  140.6946  154.4781 N   0  0  0  0  0  0  0  0  0  0  0  0
  149.5153  139.3579  154.3499 C   0  0  0  0  0  0  0  0  0  0  0  0
  148.3493  138.7401  153.8545 C   0  0  0  0  0  0  0  0  0  0  0  0
  144.3763  137.7185  152.3489 N   0  0  0  0  0  0  0  0  0  0  0  0
  143.6574  136.4756  152.0884 C   0  0  2  0  0  0  0  0  0  0  0  0
  143.8349  135.4045  153.1679 C   0  0  0  0  0  0  0  0  0  0  0  0
  143.7034  134.0699  152.4139 C   0  0  0  0  0  0  0  0  0  0  0  0
  143.6666  134.3950  150.9688 N   0  3  2  0  0  0  0  0  0  0  0  0
  144.3550  133.4124  150.1048 C   0  0  0  0  0  0  0  0  0  0  0  0
  144.0925  131.9776  150.4949 C   0  0  0  0  0  0  0  0  0  0  0  0
  145.4229  132.6208  150.8215 C   0  0  0  0  0  0  0  0  0  0  0  0
  144.1695  135.7734  150.8345 C   0  0  0  0  0  0  0  0  0  0  0  0
  145.3962  139.7659  152.6068 H   0  0  0  0  0  0  0  0  0  0  0  0
  146.5957  141.6241  153.3372 H   0  0  0  0  0  0  0  0  0  0  0  0
  148.7419  142.5363  154.2332 H   0  0  0  0  0  0  0  0  0  0  0  0
  150.3600  138.7598  154.6583 H   0  0  0  0  0  0  0  0  0  0  0  0
  148.3090  137.6634  153.8002 H   0  0  0  0  0  0  0  0  0  0  0  0
  143.8992  138.5817  152.1319 H   0  0  0  0  0  0  0  0  0  0  0  0
  142.5934  136.6853  151.9593 H   0  0  0  0  0  0  0  0  0  0  0  0
  144.8284  135.4745  153.6141 H   0  0  0  0  0  0  0  0  0  0  0  0
  143.1042  135.5038  153.9715 H   0  0  0  0  0  0  0  0  0  0  0  0
  144.5472  133.4202  152.6526 H   0  0  0  0  0  0  0  0  0  0  0  0
  142.7903  133.5411  152.6884 H   0  0  0  0  0  0  0  0  0  0  0  0
  144.4794  133.6875  149.0587 H   0  0  0  0  0  0  0  0  0  0  0  0
  143.4113  131.7842  151.3217 H   0  0  0  0  0  0  0  0  0  0  0  0
  144.0806  131.2346  149.6999 H   0  0  0  0  0  0  0  0  0  0  0  0
  146.2857  132.2999  150.2410 H   0  0  0  0  0  0  0  0  0  0  0  0
  145.6254  132.8535  151.8653 H   0  0  0  0  0  0  0  0  0  0  0  0
  143.8144  136.2422  149.9160 H   0  0  0  0  0  0  0  0  0  0  0  0
  145.2612  135.7674  150.8157 H   0  0  0  0  0  0  0  0  0  0  0  0
  142.6925  134.4165  150.7024 H   0  0  0  0  0  0  0  0  0  0  0  0
  1  2  2  0  0  0  0
  2  3  1  0  0  0  0
  2 10  1  0  0  0  0
  3  4  1  0  0  0  0
  3 19  1  0  0  0  0
  4  9  1  0  0  0  0
  4  5  2  0  0  0  0
  5  6  1  0  0  0  0
  5 20  1  0  0  0  0
  6  7  2  0  0  0  0
  6 21  1  0  0  0  0
  7  8  1  0  0  0  0
  8  9  2  0  0  0  0
  8 22  1  0  0  0  0
  9 23  1  0  0  0  0
 10 11  1  0  0  0  0
 10 24  1  0  0  0  0
 11 18  1  0  0  0  0
 11 12  1  0  0  0  0
 11 25  1  0  0  0  0
 12 13  1  0  0  0  0
 12 26  1  0  0  0  0
 12 27  1  0  0  0  0
 13 14  1  0  0  0  0
 13 28  1  0  0  0  0
 13 29  1  0  0  0  0
 14 15  1  0  0  0  0
 14 18  1  0  0  0  0
 14 37  1  0  0  0  0
 15 17  1  0  0  0  0
 15 16  1  0  0  0  0
 15 30  1  0  0  0  0
 16 17  1  0  0  0  0
 16 31  1  0  0  0  0
 16 32  1  0  0  0  0
 17 33  1  0  0  0  0
 17 34  1  0  0  0  0
 18 35  1  0  0  0  0
 18 36  1  0  0  0  0
M  CHG  1  14   1
M  END
> <s_m_source_file>
AV-unprocessed.smi

> <i_m_source_file_index>
3234

> <i_lp_mmshare_version>
43012

> <i_f3d_flags>
0

> <s_epik_input>
W2NIXTFbY0hdbltjSF1bY0hdYzFbTkhdQyg9TylbTkhdW0NAQEhdMltDSDJdW0NIMl1OKFtDSDJdMilbQ0hdM1tDSDJdW0NIMl0z

> <s_epik_cmdline>
J2VwaWtfcHl0aG9uJywgJy1waCcsICc3LjAnLCAnLXRuJywgJzgnLCAnLW1hJywgJzIwMCcsICctbWV0YWxfYmluZGluZycsICctaW1hZScsICc8aW5maWxlLm1hZT4nLCAnLW9tYWUnLCAnPG91dGZpbGUubWFlPic=

> <r_epik_Ionization_Penalty>
0.0934328

> <r_epik_Ionization_Penalty_Charging>
0.000606352

> <r_epik_Ionization_Penalty_Neutral>
0.0928265

> <r_epik_State_Penalty>
0.0830811

> <r_epik_Charging_Adjusted_Penalty>
0.0836875

> <i_epik_Tot_Q>
1

> <i_epik_Tot_abs_Q>
1

> <r_epik_Metal_State_Penalty>
0.0724491

> <b_epik_Metal_Only>
0

> <s_lp_Force_Field>
OPLS_2005

> <r_lp_Energy>
41.2347

> <b_lp_Chiralities_Consistent>
1

> <s_lp_Variant>
AV-unprocessed.smi:3234-3

> <Gold.Version>
5.8.1

> <Gold.Id.Protein>
6NUR|6NUR_protein|mol2

> <Gold.PLP.Fitness>
47.6632

> <Gold.PLP.PLP>
-32.4651

> <Gold.PLP.part.hbond>
-5.0000

> <Gold.PLP.part.metal>
0.0000

> <Gold.PLP.part.buried>
-1.5589

> <Gold.PLP.part.nonpolar>
-26.8447

> <Gold.PLP.part.repulsive>
1.1171

> <Gold.PLP.ligand.clash>
0.0000

> <Gold.PLP.ligand.torsion>
0.8827

> <Gold.PLP.Chemscore.Hbond>
4.3635

> <Gold.PLP.Chemscore.CHOScore>
0.8695

> <Gold.PLP.Chemscore.Metal>
0.0000

> <Gold.Chemscore.Hbonds>
donor molecule, donor type, donor heavy atom, donor atom, acceptor molecule, acceptor atom, score
      L1  H     3    19       P1 10175  1.00
      L1  H    10    24       P1 10175  1.00
      L1  H    14    37       P1 10186  1.98
      P1  H  7989  7998       L1     7  0.36
      L1  C     6    21       P1  8028  0.86

> <Gold.PLP.Chemscore.Internal.Correction>
1.2645

> <Gold.Rescore>
     Score         DG    S(hbond)    S(metal)    S(lipo)     H(rot)  DE(clash)    DE(int)     intcor
     16.29     -19.96       2.44        0.00      80.57       1.21       0.18       3.49       ----

> <Gold.Chemscore.Fitness>
16.2886

> <Gold.Chemscore.DG>
-19.9634

> <Gold.Chemscore.ZeroCoef>
-5.4800

> <Gold.Chemscore.Hbond>
2.4418

> <Gold.Chemscore.Metal>
0.0000

> <Gold.Chemscore.Lipo>
80.5742

> <Gold.Chemscore.Internal_Hbond>
0.0000

> <Gold.Chemscore.DEClash>
0.1838

> <Gold.Chemscore.DEInternal>
3.4910

> <Gold.Chemscore.Rot>
1.2108

> <Gold.Chemscore.Internal.Correction>
   9.000000E+99

> <Gold.Chemscore.Hbonds>
donor molecule, donor type, donor heavy atom, donor atom, acceptor molecule, acceptor atom, score
      L1  H     3    19       P1 10175  0.95
      L1  H    10    24       P1 10175  0.94
      L1  H    14    37       P1 10186  0.32
      P1  H  7989  7998       L1     7  0.07

> <Gold.Chemscore.Hbond.Weighted>
-8.1558

> <Gold.Chemscore.Metal.Weighted>
-0.0000

> <Gold.Chemscore.Lipo.Weighted>
-9.4272

> <Gold.Chemscore.Internal_Hbond.Weighted>
0.0000

> <Gold.Chemscore.DEClash.Weighted>
0.1838

> <Gold.Chemscore.DEInternal.Weighted>
3.4910

> <Gold.Chemscore.Rot.Weighted>
3.0996

> <Gold.Chemscore.Internal.Correction.Weighted>
   9.000000E+99

> <Gold.Protein.RotatedTorsions>
[ 6907 6896 6895 6894 ] final  150.01 input  -60.11 | X-H torsion
[ 7974 7965 7964 7962 ] final -127.95 input  175.53 | X-H torsion
[ 8008 7997 7996 7995 ] final -149.51 input   59.86 | X-H torsion
[ 10167 10162 10161 10158 ] final   80.48 input  -65.29 | X-H torsion
[ 10718 10713 10712 10709 ] final  157.57 input   66.30 | X-H torsion
[ 10763 10752 10751 10750 ] final  -30.73 input  -60.55 | X-H torsion
[ 11005 11000 10999 10996 ] final  158.26 input  -57.11 | X-H torsion

> <Gold.Protein.ActiveResidues>
 VAL166  LYS551  ARG553  GLY616  TRP617  ASP618  TYR619  PRO620  LYS621  CYS622 
 ASP623  PHE694  ASN695  SER759  ASP760  ASP761  ALA762  ILE779  LEU786  VAL792 
 PHE793  MET794  SER795  GLU796  ALA797  LYS798  CYS799  TRP800  GLU811  SER814 

> <Gold.Protein.RotatedAtoms>
  152.1202  133.4349  159.4671 H   0  0  0  0  0  0  0  0  0  0  0  0  # atno 6907 bound_to 6896
  150.6871  134.2544  159.4533 H   0  0  0  0  0  0  0  0  0  0  0  0  # atno 6908 bound_to 6896
  152.0420  134.9705  160.0624 H   0  0  0  0  0  0  0  0  0  0  0  0  # atno 6909 bound_to 6896
  144.9719  140.7554  143.4665 H   0  0  0  0  0  0  0  0  0  0  0  0  # atno 7974 bound_to 7965
  155.6087  140.0669  157.2712 H   0  0  0  0  0  0  0  0  0  0  0  0  # atno 8008 bound_to 7997
  154.4259  140.1805  156.1297 H   0  0  0  0  0  0  0  0  0  0  0  0  # atno 8009 bound_to 7997
  156.0102  140.3327  155.6936 H   0  0  0  0  0  0  0  0  0  0  0  0  # atno 8010 bound_to 7997
  139.9493  144.6037  150.8176 H   0  0  0  0  0  0  0  0  0  0  0  0  # atno 10167 bound_to 10162
  157.1896  131.0651  151.2086 H   0  0  0  0  0  0  0  0  0  0  0  0  # atno 10718 bound_to 10713
  153.7857  135.6901  153.4880 H   0  0  0  0  0  0  0  0  0  0  0  0  # atno 10763 bound_to 10752
  153.1782  135.4516  154.9992 H   0  0  0  0  0  0  0  0  0  0  0  0  # atno 10764 bound_to 10752
  154.8064  135.3359  154.7357 H   0  0  0  0  0  0  0  0  0  0  0  0  # atno 10765 bound_to 10752
  140.1848  134.8450  157.2844 H   0  0  0  0  0  0  0  0  0  0  0  0  # atno 11005 bound_to 11000
  145.2546  139.2017  143.4924 LP  0  0  0  0  0  0  0  0  0  0  0  0  # atno 17320 bound_to 7965
  146.3384  140.2466  142.8597 LP  0  0  0  0  0  0  0  0  0  0  0  0  # atno 17321 bound_to 7965
  140.7588  143.3114  151.2836 LP  0  0  0  0  0  0  0  0  0  0  0  0  # atno 17342 bound_to 10162
  139.6641  144.0136  152.2712 LP  0  0  0  0  0  0  0  0  0  0  0  0  # atno 17343 bound_to 10162
  157.3873  130.7263  149.6672 LP  0  0  0  0  0  0  0  0  0  0  0  0  # atno 17370 bound_to 10713
  155.9713  130.4156  150.4189 LP  0  0  0  0  0  0  0  0  0  0  0  0  # atno 17371 bound_to 10713
  140.2227  134.4004  155.7558 LP  0  0  0  0  0  0  0  0  0  0  0  0  # atno 17394 bound_to 11000
  141.2224  133.7174  156.8515 LP  0  0  0  0  0  0  0  0  0  0  0  0  # atno 17395 bound_to 11000

$$$$
