AV-unprocessed.smi:3031|AV-procd|sdf|11548|dock10
  -GOLD-   2272016503D 1   1.00000     0.00000
 Structure written by MMmdl.
 47 48  0  0  0  0  0  0  0  0  2 V2000
  151.1433  143.2682  158.8182 C   0  0  0  0  0  0  0  0  0  0  0  0
  150.9640  141.9966  158.0405 C   0  0  0  0  0  0  0  0  0  0  0  0
  151.2055  140.6633  158.4780 C   0  0  0  0  0  0  0  0  0  0  0  0
  150.9412  139.7609  157.5477 N   0  0  0  0  0  0  0  0  0  0  0  0
  150.5189  140.4833  156.4873 N   0  0  0  0  0  0  0  0  0  0  0  0
  150.1300  139.8089  155.2620 C   0  0  0  0  0  0  0  0  0  0  0  0
  148.6403  139.9935  154.8828 C   0  0  1  0  0  0  0  0  0  0  0  0
  148.3174  141.4882  154.7502 C   0  0  0  0  0  0  0  0  0  0  0  0
  148.3002  139.3226  153.6241 N   0  0  0  0  0  0  0  0  0  0  0  0
  146.9719  139.6285  153.0856 C   0  0  0  0  0  0  0  0  0  0  0  0
  146.3714  138.4429  152.3104 C   0  0  1  0  0  0  0  0  0  0  0  0
  147.2610  138.0577  151.2811 O   0  0  0  0  0  0  0  0  0  0  0  0
  146.0264  137.2371  153.2112 C   0  0  0  0  0  0  0  0  0  0  0  0
  146.0167  135.9536  152.4658 N   0  3  0  0  0  0  0  0  0  0  0  0
  145.7876  134.7856  153.3492 C   0  0  0  0  0  0  0  0  0  0  0  0
  145.8460  133.4790  152.5398 C   0  0  0  0  0  0  0  0  0  0  0  0
  144.8907  133.5253  151.4873 O   0  0  0  0  0  0  0  0  0  0  0  0
  145.1473  134.5918  150.5824 C   0  0  0  0  0  0  0  0  0  0  0  0
  145.0638  135.9341  151.3282 C   0  0  0  0  0  0  0  0  0  0  0  0
  150.5324  141.8359  156.7542 C   0  0  0  0  0  0  0  0  0  0  0  0
  151.8261  143.1367  159.6577 H   0  0  0  0  0  0  0  0  0  0  0  0
  150.1973  143.6246  159.2262 H   0  0  0  0  0  0  0  0  0  0  0  0
  151.5488  144.0679  158.1977 H   0  0  0  0  0  0  0  0  0  0  0  0
  151.5612  140.3263  159.4405 H   0  0  0  0  0  0  0  0  0  0  0  0
  150.7626  140.2025  154.4654 H   0  0  0  0  0  0  0  0  0  0  0  0
  150.3716  138.7476  155.3442 H   0  0  0  0  0  0  0  0  0  0  0  0
  148.0150  139.6015  155.6864 H   0  0  0  0  0  0  0  0  0  0  0  0
  148.5211  142.0185  155.6807 H   0  0  0  0  0  0  0  0  0  0  0  0
  147.2651  141.6437  154.5104 H   0  0  0  0  0  0  0  0  0  0  0  0
  148.9111  141.9567  153.9642 H   0  0  0  0  0  0  0  0  0  0  0  0
  149.0011  139.5412  152.9229 H   0  0  0  0  0  0  0  0  0  0  0  0
  146.2816  139.8885  153.8836 H   0  0  0  0  0  0  0  0  0  0  0  0
  147.0254  140.5060  152.4404 H   0  0  0  0  0  0  0  0  0  0  0  0
  145.4684  138.8099  151.8242 H   0  0  0  0  0  0  0  0  0  0  0  0
  147.5693  137.1826  151.4620 H   0  0  0  0  0  0  0  0  0  0  0  0
  146.7577  137.1818  154.0191 H   0  0  0  0  0  0  0  0  0  0  0  0
  145.0570  137.3824  153.6908 H   0  0  0  0  0  0  0  0  0  0  0  0
  146.5427  134.7610  154.1358 H   0  0  0  0  0  0  0  0  0  0  0  0
  144.8167  134.8806  153.8383 H   0  0  0  0  0  0  0  0  0  0  0  0
  146.8457  133.3163  152.1337 H   0  0  0  0  0  0  0  0  0  0  0  0
  145.6219  132.6282  153.1835 H   0  0  0  0  0  0  0  0  0  0  0  0
  146.1266  134.4643  150.1179 H   0  0  0  0  0  0  0  0  0  0  0  0
  144.4085  134.5610  149.7811 H   0  0  0  0  0  0  0  0  0  0  0  0
  144.0488  136.0897  151.6978 H   0  0  0  0  0  0  0  0  0  0  0  0
  145.2771  136.7455  150.6335 H   0  0  0  0  0  0  0  0  0  0  0  0
  150.2292  142.5640  156.0162 H   0  0  0  0  0  0  0  0  0  0  0  0
  146.9449  135.8411  152.0829 H   0  0  0  0  0  0  0  0  0  0  0  0
  1  2  1  0  0  0  0
  1 21  1  0  0  0  0
  1 22  1  0  0  0  0
  1 23  1  0  0  0  0
  2 20  2  0  0  0  0
  2  3  1  0  0  0  0
  3  4  2  0  0  0  0
  3 24  1  0  0  0  0
  4  5  1  0  0  0  0
  5  6  1  0  0  0  0
  5 20  1  0  0  0  0
  6  7  1  0  0  0  0
  6 25  1  0  0  0  0
  6 26  1  0  0  0  0
  7  8  1  0  0  0  0
  7  9  1  0  0  0  0
  7 27  1  0  0  0  0
  8 28  1  0  0  0  0
  8 29  1  0  0  0  0
  8 30  1  0  0  0  0
  9 10  1  0  0  0  0
  9 31  1  0  0  0  0
 10 11  1  0  0  0  0
 10 32  1  0  0  0  0
 10 33  1  0  0  0  0
 11 12  1  0  0  0  0
 11 13  1  0  0  0  0
 11 34  1  0  0  0  0
 12 35  1  0  0  0  0
 13 14  1  0  0  0  0
 13 36  1  0  0  0  0
 13 37  1  0  0  0  0
 14 19  1  0  0  0  0
 14 15  1  0  0  0  0
 14 47  1  0  0  0  0
 15 16  1  0  0  0  0
 15 38  1  0  0  0  0
 15 39  1  0  0  0  0
 16 17  1  0  0  0  0
 16 40  1  0  0  0  0
 16 41  1  0  0  0  0
 17 18  1  0  0  0  0
 18 19  1  0  0  0  0
 18 42  1  0  0  0  0
 18 43  1  0  0  0  0
 19 44  1  0  0  0  0
 19 45  1  0  0  0  0
 20 46  1  0  0  0  0
M  CHG  1  14   1
M  END
> <s_m_source_file>
AV-unprocessed.smi

> <i_m_source_file_index>
3031

> <i_lp_mmshare_version>
43012

> <i_f3d_flags>
0

> <s_epik_input>
W0NIM11jMVtjSF1ubihbY0hdMSlbQ0gyXVtDQEhdKFtDSDNdKVtOSF1bQ0gyXVtDQEhdKFtPSF0pW0NIMl1OMltDSDJdW0NIMl1PW0NIMl1bQ0gyXTI=

> <s_epik_cmdline>
J2VwaWtfcHl0aG9uJywgJy1waCcsICc3LjAnLCAnLXRuJywgJzgnLCAnLW1hJywgJzIwMCcsICctbWV0YWxfYmluZGluZycsICctaW1hZScsICc8aW5maWxlLm1hZT4nLCAnLW9tYWUnLCAnPG91dGZpbGUubWFlPic=

> <r_epik_Ionization_Penalty>
0.467051

> <r_epik_Ionization_Penalty_Charging>
0.202493

> <r_epik_Ionization_Penalty_Neutral>
0.264558

> <r_epik_State_Penalty>
1.34287

> <r_epik_Charging_Adjusted_Penalty>
1.54537

> <i_epik_Tot_Q>
1

> <i_epik_Tot_abs_Q>
1

> <r_epik_Metal_State_Penalty>
1.34281

> <b_epik_Metal_Only>
0

> <s_lp_Force_Field>
OPLS_2005

> <r_lp_Energy>
30.2263

> <b_lp_Chiralities_Consistent>
1

> <s_lp_Variant>
AV-unprocessed.smi:3031-8

> <Gold.Version>
5.8.1

> <Gold.Id.Protein>
6NUR|6NUR_protein|mol2

> <Gold.PLP.Fitness>
54.6025

> <Gold.PLP.PLP>
-40.0856

> <Gold.PLP.part.hbond>
-4.8031

> <Gold.PLP.part.metal>
0.0000

> <Gold.PLP.part.buried>
-2.2450

> <Gold.PLP.part.nonpolar>
-33.1992

> <Gold.PLP.part.repulsive>
0.1029

> <Gold.PLP.ligand.clash>
0.0000

> <Gold.PLP.ligand.torsion>
0.5989

> <Gold.PLP.Chemscore.Hbond>
4.2078

> <Gold.PLP.Chemscore.CHOScore>
0.9958

> <Gold.PLP.Chemscore.Metal>
0.0000

> <Gold.Chemscore.Hbonds>
donor molecule, donor type, donor heavy atom, donor atom, acceptor molecule, acceptor atom, score
      L1  H     9    31       P1  7957  1.00
      L1  H    12    35       P1  7948  0.88
      L1  H    14    47       P1  7948  1.98
      P1  H  7954  7966       L1    12  0.15
      L1  C    20    46       P1  8028  0.92

> <Gold.PLP.Chemscore.Internal.Correction>
0.1037

> <Gold.Rescore>
     Score         DG    S(hbond)    S(metal)    S(lipo)     H(rot)  DE(clash)    DE(int)     intcor
     17.58     -18.38       2.85        0.00      86.95       2.65       0.08       0.72       ----

> <Gold.Chemscore.Fitness>
17.5818

> <Gold.Chemscore.DG>
-18.3831

> <Gold.Chemscore.ZeroCoef>
-5.4800

> <Gold.Chemscore.Hbond>
2.8502

> <Gold.Chemscore.Metal>
0.0000

> <Gold.Chemscore.Lipo>
86.9468

> <Gold.Chemscore.Internal_Hbond>
0.0000

> <Gold.Chemscore.DEClash>
0.0816

> <Gold.Chemscore.DEInternal>
0.7196

> <Gold.Chemscore.Rot>
2.6521

> <Gold.Chemscore.Internal.Correction>
   9.000000E+99

> <Gold.Chemscore.Hbonds>
donor molecule, donor type, donor heavy atom, donor atom, acceptor molecule, acceptor atom, score
      L1  H     9    31       P1  7957  0.97
      L1  H    12    35       P1  7948  0.86
      L1  H    14    47       P1  7948  0.92

> <Gold.Chemscore.Hbond.Weighted>
-9.5196

> <Gold.Chemscore.Metal.Weighted>
-0.0000

> <Gold.Chemscore.Lipo.Weighted>
-10.1728

> <Gold.Chemscore.Internal_Hbond.Weighted>
0.0000

> <Gold.Chemscore.DEClash.Weighted>
0.0816

> <Gold.Chemscore.DEInternal.Weighted>
0.7196

> <Gold.Chemscore.Rot.Weighted>
6.7894

> <Gold.Chemscore.Internal.Correction.Weighted>
   9.000000E+99

> <Gold.Protein.RotatedTorsions>
[ 6907 6896 6895 6894 ] final  120.85 input  -60.11 | X-H torsion
[ 7974 7965 7964 7962 ] final   31.75 input  175.53 | X-H torsion
[ 8008 7997 7996 7995 ] final  -35.75 input   59.86 | X-H torsion
[ 10167 10162 10161 10158 ] final   64.89 input  -65.29 | X-H torsion
[ 10718 10713 10712 10709 ] final  174.19 input   66.30 | X-H torsion
[ 10763 10752 10751 10750 ] final  -72.98 input  -60.55 | X-H torsion
[ 11005 11000 10999 10996 ] final -128.10 input  -57.11 | X-H torsion

> <Gold.Protein.ActiveResidues>
 VAL166  LYS551  ARG553  GLY616  TRP617  ASP618  TYR619  PRO620  LYS621  CYS622 
 ASP623  PHE694  ASN695  SER759  ASP760  ASP761  ALA762  ILE779  LEU786  VAL792 
 PHE793  MET794  SER795  GLU796  ALA797  LYS798  CYS799  TRP800  GLU811  SER814 

> <Gold.Protein.RotatedAtoms>
  152.4367  133.7373  159.6620 H   0  0  0  0  0  0  0  0  0  0  0  0  # atno 6907 bound_to 6896
  150.8251  133.8175  159.3128 H   0  0  0  0  0  0  0  0  0  0  0  0  # atno 6908 bound_to 6896
  151.5845  135.1059  160.0076 H   0  0  0  0  0  0  0  0  0  0  0  0  # atno 6909 bound_to 6896
  146.1530  139.6615  142.9086 H   0  0  0  0  0  0  0  0  0  0  0  0  # atno 7974 bound_to 7965
  154.4088  140.1649  156.2261 H   0  0  0  0  0  0  0  0  0  0  0  0  # atno 8008 bound_to 7997
  155.9322  140.3414  155.6235 H   0  0  0  0  0  0  0  0  0  0  0  0  # atno 8009 bound_to 7997
  155.7092  140.0754  157.2369 H   0  0  0  0  0  0  0  0  0  0  0  0  # atno 8010 bound_to 7997
  140.1173  144.4764  150.6942 H   0  0  0  0  0  0  0  0  0  0  0  0  # atno 10167 bound_to 10162
  156.9532  131.0037  151.2944 H   0  0  0  0  0  0  0  0  0  0  0  0  # atno 10718 bound_to 10713
  154.4532  135.5912  153.6205 H   0  0  0  0  0  0  0  0  0  0  0  0  # atno 10763 bound_to 10752
  152.9815  135.6026  154.3579 H   0  0  0  0  0  0  0  0  0  0  0  0  # atno 10764 bound_to 10752
  154.3442  135.2841  155.2385 H   0  0  0  0  0  0  0  0  0  0  0  0  # atno 10765 bound_to 10752
  140.9545  134.1021  157.4030 H   0  0  0  0  0  0  0  0  0  0  0  0  # atno 11005 bound_to 11000
  145.4777  141.0437  143.2663 LP  0  0  0  0  0  0  0  0  0  0  0  0  # atno 17320 bound_to 7965
  144.7928  139.6294  143.7106 LP  0  0  0  0  0  0  0  0  0  0  0  0  # atno 17321 bound_to 7965
  140.6892  143.2366  151.5177 LP  0  0  0  0  0  0  0  0  0  0  0  0  # atno 17342 bound_to 10162
  139.5587  144.2210  152.1656 LP  0  0  0  0  0  0  0  0  0  0  0  0  # atno 17343 bound_to 10162
  157.5708  130.8309  149.8388 LP  0  0  0  0  0  0  0  0  0  0  0  0  # atno 17370 bound_to 10713
  156.0354  130.3753  150.1576 LP  0  0  0  0  0  0  0  0  0  0  0  0  # atno 17371 bound_to 10713
  139.8858  135.0075  156.6456 LP  0  0  0  0  0  0  0  0  0  0  0  0  # atno 17394 bound_to 11000
  140.7556  133.8860  155.8379 LP  0  0  0  0  0  0  0  0  0  0  0  0  # atno 17395 bound_to 11000

$$$$
