AV-unprocessed.smi:2903|AV-procd|sdf|11159|dock6
  -GOLD-   2272016 43D 1   1.00000     0.00000
 Structure written by MMmdl.
 40 41  0  0  0  0  0  0  0  0  1 V2000
  155.1077  132.6462  164.6659 C   0  0  0  0  0  0  0  0  0  0  0  0
  155.3204  133.0177  163.1995 C   0  0  0  0  0  0  0  0  0  0  0  0
  155.6106  132.1305  162.3979 O   0  0  0  0  0  0  0  0  0  0  0  0
  155.1615  134.4481  162.8197 C   0  0  0  0  0  0  0  0  0  0  0  0
  154.9086  135.4616  163.7703 C   0  0  0  0  0  0  0  0  0  0  0  0
  154.7683  136.7928  163.3333 C   0  0  0  0  0  0  0  0  0  0  0  0
  154.8837  137.0904  161.9582 C   0  0  0  0  0  0  0  0  0  0  0  0
  154.7190  138.4602  161.6244 N   0  0  0  0  0  0  0  0  0  0  0  0
  155.2835  139.1483  160.6148 C   0  0  0  0  0  0  0  0  0  0  0  0
  156.0873  138.6830  159.8069 O   0  0  0  0  0  0  0  0  0  0  0  0
  154.8800  140.6169  160.5160 C   0  0  0  0  0  0  0  0  0  0  0  0
  153.5232  140.6866  160.1002 O   0  0  0  0  0  0  0  0  0  0  0  0
  153.0742  141.9986  159.7902 C   0  0  0  0  0  0  0  0  0  0  0  0
  152.9020  142.8292  161.0792 C   0  0  0  0  0  0  0  0  0  0  0  0
  152.2895  144.2074  160.7796 C   0  0  0  0  0  0  0  0  0  0  0  0
  150.9576  144.0765  160.0234 C   0  0  0  0  0  0  0  0  0  0  0  0
  151.1263  143.2464  158.7411 C   0  0  0  0  0  0  0  0  0  0  0  0
  151.7318  141.8676  159.0499 C   0  0  0  0  0  0  0  0  0  0  0  0
  155.1285  136.1169  161.0480 N   0  0  0  0  0  0  0  0  0  0  0  0
  155.2616  134.8406  161.4669 C   0  0  0  0  0  0  0  0  0  0  0  0
  154.0984  132.9083  164.9840 H   0  0  0  0  0  0  0  0  0  0  0  0
  155.8235  133.1696  165.3001 H   0  0  0  0  0  0  0  0  0  0  0  0
  155.2434  131.5741  164.8120 H   0  0  0  0  0  0  0  0  0  0  0  0
  154.8189  135.2442  164.8241 H   0  0  0  0  0  0  0  0  0  0  0  0
  154.5733  137.5756  164.0522 H   0  0  0  0  0  0  0  0  0  0  0  0
  154.0886  138.9805  162.2170 H   0  0  0  0  0  0  0  0  0  0  0  0
  155.0228  141.0883  161.4887 H   0  0  0  0  0  0  0  0  0  0  0  0
  155.5224  141.1308  159.7987 H   0  0  0  0  0  0  0  0  0  0  0  0
  153.7851  142.4908  159.1237 H   0  0  0  0  0  0  0  0  0  0  0  0
  152.2596  142.2909  161.7773 H   0  0  0  0  0  0  0  0  0  0  0  0
  153.8595  142.9627  161.5819 H   0  0  0  0  0  0  0  0  0  0  0  0
  152.1355  144.7556  161.7095 H   0  0  0  0  0  0  0  0  0  0  0  0
  152.9903  144.7962  160.1862 H   0  0  0  0  0  0  0  0  0  0  0  0
  150.2158  143.6044  160.6687 H   0  0  0  0  0  0  0  0  0  0  0  0
  150.5698  145.0655  159.7785 H   0  0  0  0  0  0  0  0  0  0  0  0
  150.1627  143.1271  158.2452 H   0  0  0  0  0  0  0  0  0  0  0  0
  151.7705  143.7801  158.0413 H   0  0  0  0  0  0  0  0  0  0  0  0
  151.8717  141.3093  158.1237 H   0  0  0  0  0  0  0  0  0  0  0  0
  151.0317  141.2909  159.6558 H   0  0  0  0  0  0  0  0  0  0  0  0
  155.4530  134.1161  160.6887 H   0  0  0  0  0  0  0  0  0  0  0  0
  1  2  1  0  0  0  0
  1 21  1  0  0  0  0
  1 22  1  0  0  0  0
  1 23  1  0  0  0  0
  2  3  2  0  0  0  0
  2  4  1  0  0  0  0
  4 20  1  0  0  0  0
  4  5  2  0  0  0  0
  5  6  1  0  0  0  0
  5 24  1  0  0  0  0
  6  7  2  0  0  0  0
  6 25  1  0  0  0  0
  7  8  1  0  0  0  0
  7 19  1  0  0  0  0
  8  9  1  0  0  0  0
  8 26  1  0  0  0  0
  9 10  2  0  0  0  0
  9 11  1  0  0  0  0
 11 12  1  0  0  0  0
 11 27  1  0  0  0  0
 11 28  1  0  0  0  0
 12 13  1  0  0  0  0
 13 18  1  0  0  0  0
 13 14  1  0  0  0  0
 13 29  1  0  0  0  0
 14 15  1  0  0  0  0
 14 30  1  0  0  0  0
 14 31  1  0  0  0  0
 15 16  1  0  0  0  0
 15 32  1  0  0  0  0
 15 33  1  0  0  0  0
 16 17  1  0  0  0  0
 16 34  1  0  0  0  0
 16 35  1  0  0  0  0
 17 18  1  0  0  0  0
 17 36  1  0  0  0  0
 17 37  1  0  0  0  0
 18 38  1  0  0  0  0
 18 39  1  0  0  0  0
 19 20  2  0  0  0  0
 20 40  1  0  0  0  0
M  END
> <s_m_source_file>
AV-unprocessed.smi

> <i_m_source_file_index>
2903

> <i_lp_mmshare_version>
43012

> <i_f3d_flags>
0

> <s_epik_input>
W0NIM11DKD1PKWMxW2NIXVtjSF1jKG5bY0hdMSlbTkhdQyg9TylbQ0gyXU9bQ0hdMltDSDJdW0NIMl1bQ0gyXVtDSDJdW0NIMl0y

> <s_epik_cmdline>
J2VwaWtfcHl0aG9uJywgJy1waCcsICc3LjAnLCAnLXRuJywgJzgnLCAnLW1hJywgJzIwMCcsICctbWV0YWxfYmluZGluZycsICctaW1hZScsICc8aW5maWxlLm1hZT4nLCAnLW9tYWUnLCAnPG91dGZpbGUubWFlPic=

> <r_lp_tautomer_probability>
1

> <r_epik_Ionization_Penalty>
3.51143e-05

> <r_epik_Ionization_Penalty_Charging>
0

> <r_epik_Ionization_Penalty_Neutral>
3.51143e-05

> <r_epik_State_Penalty>
-0

> <r_epik_Charging_Adjusted_Penalty>
0

> <i_epik_Tot_Q>
0

> <i_epik_Tot_abs_Q>
0

> <r_epik_Metal_State_Penalty>
-0

> <b_epik_Metal_Only>
0

> <s_lp_Force_Field>
OPLS_2005

> <r_lp_Energy>
19.6274

> <b_lp_Chiralities_Consistent>
1

> <s_lp_Variant>
AV-unprocessed.smi:2903-1

> <Gold.Version>
5.8.1

> <Gold.Id.Protein>
6NUR|6NUR_protein|mol2

> <Gold.PLP.Fitness>
42.3787

> <Gold.PLP.PLP>
-43.1519

> <Gold.PLP.part.hbond>
0.0000

> <Gold.PLP.part.metal>
0.0000

> <Gold.PLP.part.buried>
-5.5775

> <Gold.PLP.part.nonpolar>
-38.1283

> <Gold.PLP.part.repulsive>
0.0033

> <Gold.PLP.ligand.clash>
0.0000

> <Gold.PLP.ligand.torsion>
0.3936

> <Gold.PLP.Chemscore.Hbond>
0.0000

> <Gold.PLP.Chemscore.CHOScore>
0.0000

> <Gold.PLP.Chemscore.Metal>
0.0000

> <Gold.PLP.Chemscore.Internal.Correction>
0.0140

> <Gold.Rescore>
     Score         DG    S(hbond)    S(metal)    S(lipo)     H(rot)  DE(clash)    DE(int)     intcor
     14.15     -15.41       0.00        0.00     116.09       1.43       0.01       1.25       ----

> <Gold.Chemscore.Fitness>
14.1486

> <Gold.Chemscore.DG>
-15.4110

> <Gold.Chemscore.ZeroCoef>
-5.4800

> <Gold.Chemscore.Hbond>
0.0000

> <Gold.Chemscore.Metal>
0.0000

> <Gold.Chemscore.Lipo>
116.0905

> <Gold.Chemscore.Internal_Hbond>
0.0000

> <Gold.Chemscore.DEClash>
0.0149

> <Gold.Chemscore.DEInternal>
1.2476

> <Gold.Chemscore.Rot>
1.4264

> <Gold.Chemscore.Internal.Correction>
   9.000000E+99

> <Gold.Chemscore.Hbond.Weighted>
-0.0000

> <Gold.Chemscore.Metal.Weighted>
-0.0000

> <Gold.Chemscore.Lipo.Weighted>
-13.5826

> <Gold.Chemscore.Internal_Hbond.Weighted>
0.0000

> <Gold.Chemscore.DEClash.Weighted>
0.0149

> <Gold.Chemscore.DEInternal.Weighted>
1.2476

> <Gold.Chemscore.Rot.Weighted>
3.6516

> <Gold.Chemscore.Internal.Correction.Weighted>
   9.000000E+99

> <Gold.Protein.RotatedTorsions>
[ 6907 6896 6895 6894 ] final   12.59 input  -60.11 | X-H torsion
[ 7974 7965 7964 7962 ] final -127.99 input  175.53 | X-H torsion
[ 8008 7997 7996 7995 ] final  177.63 input   59.86 | X-H torsion
[ 10167 10162 10161 10158 ] final   17.89 input  -65.29 | X-H torsion
[ 10718 10713 10712 10709 ] final  162.66 input   66.30 | X-H torsion
[ 10763 10752 10751 10750 ] final  -49.86 input  -60.55 | X-H torsion
[ 11005 11000 10999 10996 ] final   38.97 input  -57.11 | X-H torsion

> <Gold.Protein.ActiveResidues>
 VAL166  LYS551  ARG553  GLY616  TRP617  ASP618  TYR619  PRO620  LYS621  CYS622 
 ASP623  PHE694  ASN695  SER759  ASP760  ASP761  ALA762  ILE779  LEU786  VAL792 
 PHE793  MET794  SER795  GLU796  ALA797  LYS798  CYS799  TRP800  GLU811  SER814 

> <Gold.Protein.RotatedAtoms>
  151.7728  135.0782  160.0362 H   0  0  0  0  0  0  0  0  0  0  0  0  # atno 6907 bound_to 6896
  152.3277  133.5919  159.5796 H   0  0  0  0  0  0  0  0  0  0  0  0  # atno 6908 bound_to 6896
  150.7405  133.9832  159.3625 H   0  0  0  0  0  0  0  0  0  0  0  0  # atno 6909 bound_to 6896
  144.9716  140.7551  143.4667 H   0  0  0  0  0  0  0  0  0  0  0  0  # atno 7974 bound_to 7965
  156.0636  140.1354  156.9912 H   0  0  0  0  0  0  0  0  0  0  0  0  # atno 8008 bound_to 7997
  154.4494  140.0986  156.6625 H   0  0  0  0  0  0  0  0  0  0  0  0  # atno 8009 bound_to 7997
  155.5339  140.3459  155.4434 H   0  0  0  0  0  0  0  0  0  0  0  0  # atno 8010 bound_to 7997
  140.5693  143.9192  150.6700 H   0  0  0  0  0  0  0  0  0  0  0  0  # atno 10167 bound_to 10162
  157.1194  131.0488  151.2422 H   0  0  0  0  0  0  0  0  0  0  0  0  # atno 10718 bound_to 10713
  154.1009  135.6563  153.4868 H   0  0  0  0  0  0  0  0  0  0  0  0  # atno 10763 bound_to 10752
  153.0289  135.5225  154.7287 H   0  0  0  0  0  0  0  0  0  0  0  0  # atno 10764 bound_to 10752
  154.6439  135.2992  155.0039 H   0  0  0  0  0  0  0  0  0  0  0  0  # atno 10765 bound_to 10752
  140.2074  134.3797  155.8066 H   0  0  0  0  0  0  0  0  0  0  0  0  # atno 11005 bound_to 11000
  145.2551  139.2015  143.4922 LP  0  0  0  0  0  0  0  0  0  0  0  0  # atno 17320 bound_to 7965
  146.3383  140.2471  142.8597 LP  0  0  0  0  0  0  0  0  0  0  0  0  # atno 17321 bound_to 7965
  140.2663  143.3488  152.1278 LP  0  0  0  0  0  0  0  0  0  0  0  0  # atno 17342 bound_to 10162
  139.5109  144.6892  151.5806 LP  0  0  0  0  0  0  0  0  0  0  0  0  # atno 17343 bound_to 10162
  157.4489  130.7587  149.7134 LP  0  0  0  0  0  0  0  0  0  0  0  0  # atno 17370 bound_to 10713
  155.9832  130.4003  150.3377 LP  0  0  0  0  0  0  0  0  0  0  0  0  # atno 17371 bound_to 10713
  141.2227  133.7125  156.8360 LP  0  0  0  0  0  0  0  0  0  0  0  0  # atno 17394 bound_to 11000
  140.1988  134.8912  157.3145 LP  0  0  0  0  0  0  0  0  0  0  0  0  # atno 17395 bound_to 11000

$$$$
