AV-unprocessed.smi:1904|AV-procd|sdf|7723|dock5
  -GOLD-   22720 9463D 1   1.00000     0.00000
 Structure written by MMmdl.
 50 51  0  0  0  0  0  0  0  0  2 V2000
  148.8339  136.8754  158.6981 C   0  0  0  0  0  0  0  0  0  0  0  0
  148.3052  136.3235  159.9910 C   0  0  0  0  0  0  0  0  0  0  0  0
  148.2040  137.1204  161.0412 N   0  0  0  0  0  0  0  0  0  0  0  0
  147.7161  136.3361  162.0230 N   0  0  0  0  0  0  0  0  0  0  0  0
  147.4773  136.9054  163.3351 C   0  0  0  0  0  0  0  0  0  0  0  0
  147.5168  135.0381  161.5943 C   0  0  0  0  0  0  0  0  0  0  0  0
  146.9956  133.9713  162.5025 C   0  0  0  0  0  0  0  0  0  0  0  0
  147.8830  134.9910  160.2755 C   0  0  0  0  0  0  0  0  0  0  0  0
  147.8623  133.8142  159.3333 C   0  0  0  0  0  0  0  0  0  0  0  0
  147.0868  134.1901  158.0712 C   0  0  0  0  0  0  0  0  0  0  0  0
  145.9644  134.6876  158.1620 O   0  0  0  0  0  0  0  0  0  0  0  0
  147.6850  133.9276  156.8991 N   0  0  0  0  0  0  0  0  0  0  0  0
  147.0859  134.1496  155.5894 C   0  0  0  0  0  0  0  0  0  0  0  0
  145.6794  133.5252  155.5116 C   0  0  0  0  0  0  0  0  0  0  0  0
  145.3409  133.0447  154.1480 N   0  3  2  0  0  0  0  0  0  0  0  0
  146.3465  132.0805  153.6313 C   0  0  0  0  0  0  0  0  0  0  0  0
  145.9074  131.4846  152.2833 C   0  0  0  0  0  0  0  0  0  0  0  0
  145.6419  132.5865  151.2444 C   0  0  1  0  0  0  0  0  0  0  0  0
  145.1680  132.0025  149.9060 C   0  0  0  0  0  0  0  0  0  0  0  0
  144.6279  133.5891  151.8197 C   0  0  0  0  0  0  0  0  0  0  0  0
  145.0957  134.1435  153.1759 C   0  0  0  0  0  0  0  0  0  0  0  0
  148.2312  136.5411  157.8538 H   0  0  0  0  0  0  0  0  0  0  0  0
  149.8587  136.5458  158.5269 H   0  0  0  0  0  0  0  0  0  0  0  0
  148.8305  137.9660  158.6933 H   0  0  0  0  0  0  0  0  0  0  0  0
  146.4834  136.6236  163.6835 H   0  0  0  0  0  0  0  0  0  0  0  0
  147.5396  137.9939  163.2996 H   0  0  0  0  0  0  0  0  0  0  0  0
  148.2214  136.5300  164.0378 H   0  0  0  0  0  0  0  0  0  0  0  0
  147.0751  132.9859  162.0443 H   0  0  0  0  0  0  0  0  0  0  0  0
  145.9471  134.1476  162.7424 H   0  0  0  0  0  0  0  0  0  0  0  0
  147.5574  133.9466  163.4365 H   0  0  0  0  0  0  0  0  0  0  0  0
  148.8689  133.5085  159.0472 H   0  0  0  0  0  0  0  0  0  0  0  0
  147.4081  132.9399  159.8013 H   0  0  0  0  0  0  0  0  0  0  0  0
  148.6093  133.5211  156.9187 H   0  0  0  0  0  0  0  0  0  0  0  0
  147.0456  135.2176  155.3682 H   0  0  0  0  0  0  0  0  0  0  0  0
  147.7525  133.7038  154.8523 H   0  0  0  0  0  0  0  0  0  0  0  0
  145.5787  132.7078  156.2276 H   0  0  0  0  0  0  0  0  0  0  0  0
  144.9528  134.2835  155.8074 H   0  0  0  0  0  0  0  0  0  0  0  0
  147.3111  132.5801  153.5268 H   0  0  0  0  0  0  0  0  0  0  0  0
  146.4852  131.2709  154.3488 H   0  0  0  0  0  0  0  0  0  0  0  0
  146.6760  130.8035  151.9163 H   0  0  0  0  0  0  0  0  0  0  0  0
  145.0074  130.8848  152.4265 H   0  0  0  0  0  0  0  0  0  0  0  0
  146.5786  133.1158  151.0625 H   0  0  0  0  0  0  0  0  0  0  0  0
  144.2306  131.4572  150.0202 H   0  0  0  0  0  0  0  0  0  0  0  0
  145.9061  131.3131  149.4951 H   0  0  0  0  0  0  0  0  0  0  0  0
  145.0070  132.7897  149.1691 H   0  0  0  0  0  0  0  0  0  0  0  0
  144.4781  134.4116  151.1195 H   0  0  0  0  0  0  0  0  0  0  0  0
  143.6569  133.1063  151.9400 H   0  0  0  0  0  0  0  0  0  0  0  0
  144.3349  134.8254  153.5530 H   0  0  0  0  0  0  0  0  0  0  0  0
  146.0078  134.7284  153.0479 H   0  0  0  0  0  0  0  0  0  0  0  0
  144.4769  132.5285  154.2345 H   0  0  0  0  0  0  0  0  0  0  0  0
  1  2  1  0  0  0  0
  1 22  1  0  0  0  0
  1 23  1  0  0  0  0
  1 24  1  0  0  0  0
  2  8  1  0  0  0  0
  2  3  2  0  0  0  0
  3  4  1  0  0  0  0
  4  5  1  0  0  0  0
  4  6  1  0  0  0  0
  5 25  1  0  0  0  0
  5 26  1  0  0  0  0
  5 27  1  0  0  0  0
  6  7  1  0  0  0  0
  6  8  2  0  0  0  0
  7 28  1  0  0  0  0
  7 29  1  0  0  0  0
  7 30  1  0  0  0  0
  8  9  1  0  0  0  0
  9 10  1  0  0  0  0
  9 31  1  0  0  0  0
  9 32  1  0  0  0  0
 10 11  2  0  0  0  0
 10 12  1  0  0  0  0
 12 13  1  0  0  0  0
 12 33  1  0  0  0  0
 13 14  1  0  0  0  0
 13 34  1  0  0  0  0
 13 35  1  0  0  0  0
 14 15  1  0  0  0  0
 14 36  1  0  0  0  0
 14 37  1  0  0  0  0
 15 21  1  0  0  0  0
 15 16  1  0  0  0  0
 15 50  1  0  0  0  0
 16 17  1  0  0  0  0
 16 38  1  0  0  0  0
 16 39  1  0  0  0  0
 17 18  1  0  0  0  0
 17 40  1  0  0  0  0
 17 41  1  0  0  0  0
 18 19  1  0  0  0  0
 18 20  1  0  0  0  0
 18 42  1  0  0  0  0
 19 43  1  0  0  0  0
 19 44  1  0  0  0  0
 19 45  1  0  0  0  0
 20 21  1  0  0  0  0
 20 46  1  0  0  0  0
 20 47  1  0  0  0  0
 21 48  1  0  0  0  0
 21 49  1  0  0  0  0
M  CHG  1  15   1
M  END
> <s_m_source_file>
AV-unprocessed.smi

> <i_m_source_file_index>
1904

> <i_lp_mmshare_version>
43012

> <i_f3d_flags>
0

> <s_epik_input>
W0NIM11jMW5uKFtDSDNdKWMoW0NIM10pYzFbQ0gyXUMoPU8pW05IXVtDSDJdW0NIMl1OMltDSDJdW0NIMl1bQ0hdKFtDSDNdKVtDSDJdW0NIMl0y

> <s_epik_cmdline>
J2VwaWtfcHl0aG9uJywgJy1waCcsICc3LjAnLCAnLXRuJywgJzgnLCAnLW1hJywgJzIwMCcsICctbWV0YWxfYmluZGluZycsICctaW1hZScsICc8aW5maWxlLm1hZT4nLCAnLW9tYWUnLCAnPG91dGZpbGUubWFlPic=

> <r_lp_tautomer_probability>
1

> <r_epik_Ionization_Penalty>
0.00374255

> <r_epik_Ionization_Penalty_Charging>
0.00158211

> <r_epik_Ionization_Penalty_Neutral>
0.00216044

> <r_epik_State_Penalty>
-0

> <r_epik_Charging_Adjusted_Penalty>
0.00158211

> <i_epik_Tot_Q>
1

> <i_epik_Tot_abs_Q>
1

> <r_epik_Metal_State_Penalty>
-0

> <b_epik_Metal_Only>
0

> <s_lp_Force_Field>
OPLS_2005

> <r_lp_Energy>
10.069

> <b_lp_Chiralities_Consistent>
1

> <s_lp_Variant>
AV-unprocessed.smi:1904-1

> <Gold.Version>
5.8.1

> <Gold.Id.Protein>
6NUR|6NUR_protein|mol2

> <Gold.PLP.Fitness>
44.2916

> <Gold.PLP.PLP>
-34.7020

> <Gold.PLP.part.hbond>
-3.0000

> <Gold.PLP.part.metal>
0.0000

> <Gold.PLP.part.buried>
-4.5975

> <Gold.PLP.part.nonpolar>
-27.1649

> <Gold.PLP.part.repulsive>
0.0018

> <Gold.PLP.ligand.clash>
0.0000

> <Gold.PLP.ligand.torsion>
0.4216

> <Gold.PLP.Chemscore.Hbond>
3.4477

> <Gold.PLP.Chemscore.CHOScore>
0.0000

> <Gold.PLP.Chemscore.Metal>
0.0000

> <Gold.Chemscore.Hbonds>
donor molecule, donor type, donor heavy atom, donor atom, acceptor molecule, acceptor atom, score
      L1  H    15    50       P1 10957  2.00
      P1  H  6931  6943       L1     3  1.00
      P1  H  6934  6947       L1     3  0.46

> <Gold.PLP.Chemscore.Internal.Correction>
0.0897

> <Gold.Rescore>
     Score         DG    S(hbond)    S(metal)    S(lipo)     H(rot)  DE(clash)    DE(int)     intcor
     15.90     -18.18       2.21        0.00      80.89       1.61       0.33       1.95       ----

> <Gold.Chemscore.Fitness>
15.8951

> <Gold.Chemscore.DG>
-18.1773

> <Gold.Chemscore.ZeroCoef>
-5.4800

> <Gold.Chemscore.Hbond>
2.2053

> <Gold.Chemscore.Metal>
0.0000

> <Gold.Chemscore.Lipo>
80.8877

> <Gold.Chemscore.Internal_Hbond>
0.0000

> <Gold.Chemscore.DEClash>
0.3350

> <Gold.Chemscore.DEInternal>
1.9472

> <Gold.Chemscore.Rot>
1.6142

> <Gold.Chemscore.Internal.Correction>
   9.000000E+99

> <Gold.Chemscore.Hbonds>
donor molecule, donor type, donor heavy atom, donor atom, acceptor molecule, acceptor atom, score
      L1  H    15    50       P1 10957  0.65
      P1  H  6931  6943       L1     3  0.33
      P1  H  6934  6947       L1     3  0.37

> <Gold.Chemscore.Hbond.Weighted>
-7.3658

> <Gold.Chemscore.Metal.Weighted>
-0.0000

> <Gold.Chemscore.Lipo.Weighted>
-9.4639

> <Gold.Chemscore.Internal_Hbond.Weighted>
0.0000

> <Gold.Chemscore.DEClash.Weighted>
0.3350

> <Gold.Chemscore.DEInternal.Weighted>
1.9472

> <Gold.Chemscore.Rot.Weighted>
4.1324

> <Gold.Chemscore.Internal.Correction.Weighted>
   9.000000E+99

> <Gold.Protein.RotatedTorsions>
[ 6907 6896 6895 6894 ] final   25.44 input  -60.11 | X-H torsion
[ 7974 7965 7964 7962 ] final   -0.49 input  175.53 | X-H torsion
[ 8008 7997 7996 7995 ] final    7.36 input   59.86 | X-H torsion
[ 10167 10162 10161 10158 ] final  128.44 input  -65.29 | X-H torsion
[ 10718 10713 10712 10709 ] final    0.78 input   66.30 | X-H torsion
[ 10763 10752 10751 10750 ] final  125.69 input  -60.55 | X-H torsion
[ 11005 11000 10999 10996 ] final  107.96 input  -57.11 | X-H torsion

> <Gold.Protein.ActiveResidues>
 VAL166  LYS551  ARG553  GLY616  TRP617  ASP618  TYR619  PRO620  LYS621  CYS622 
 ASP623  PHE694  ASN695  SER759  ASP760  ASP761  ALA762  ILE779  LEU786  VAL792 
 PHE793  MET794  SER795  GLU796  ALA797  LYS798  CYS799  TRP800  GLU811  SER814 

> <Gold.Protein.RotatedAtoms>
  151.9725  135.0069  160.0553 H   0  0  0  0  0  0  0  0  0  0  0  0  # atno 6907 bound_to 6896
  152.1770  133.4677  159.4946 H   0  0  0  0  0  0  0  0  0  0  0  0  # atno 6908 bound_to 6896
  150.6911  134.1799  159.4287 H   0  0  0  0  0  0  0  0  0  0  0  0  # atno 6909 bound_to 6896
  146.2427  140.1277  142.8338 H   0  0  0  0  0  0  0  0  0  0  0  0  # atno 7974 bound_to 7965
  154.7529  140.2770  155.6277 H   0  0  0  0  0  0  0  0  0  0  0  0  # atno 8008 bound_to 7997
  156.2899  140.2675  156.2214 H   0  0  0  0  0  0  0  0  0  0  0  0  # atno 8009 bound_to 7997
  155.0114  140.0372  157.2390 H   0  0  0  0  0  0  0  0  0  0  0  0  # atno 8010 bound_to 7997
  139.5527  144.6825  151.4275 H   0  0  0  0  0  0  0  0  0  0  0  0  # atno 10167 bound_to 10162
  156.8384  130.5512  149.5680 H   0  0  0  0  0  0  0  0  0  0  0  0  # atno 10718 bound_to 10713
  153.6814  135.3314  155.3179 H   0  0  0  0  0  0  0  0  0  0  0  0  # atno 10763 bound_to 10752
  154.8465  135.4410  154.1602 H   0  0  0  0  0  0  0  0  0  0  0  0  # atno 10764 bound_to 10752
  153.2620  135.6992  153.7646 H   0  0  0  0  0  0  0  0  0  0  0  0  # atno 10765 bound_to 10752
  139.8836  134.9416  156.5899 H   0  0  0  0  0  0  0  0  0  0  0  0  # atno 11005 bound_to 11000
  145.0352  140.8902  143.5085 LP  0  0  0  0  0  0  0  0  0  0  0  0  # atno 17320 bound_to 7965
  145.1348  139.2609  143.5520 LP  0  0  0  0  0  0  0  0  0  0  0  0  # atno 17321 bound_to 7965
  140.6793  143.8118  150.7100 LP  0  0  0  0  0  0  0  0  0  0  0  0  # atno 17342 bound_to 10162
  140.1566  143.4311  152.2095 LP  0  0  0  0  0  0  0  0  0  0  0  0  # atno 17343 bound_to 10162
  156.0894  130.5884  150.9706 LP  0  0  0  0  0  0  0  0  0  0  0  0  # atno 17370 bound_to 10713
  157.6369  131.0915  150.8331 LP  0  0  0  0  0  0  0  0  0  0  0  0  # atno 17371 bound_to 10713
  140.7964  133.8541  155.8689 LP  0  0  0  0  0  0  0  0  0  0  0  0  # atno 17394 bound_to 11000
  140.9632  134.1628  157.4637 LP  0  0  0  0  0  0  0  0  0  0  0  0  # atno 17395 bound_to 11000

$$$$
