AV-unprocessed.smi:1434|AV-procd|sdf|5854|dock6
  -GOLD-   22720 5523D 1   1.00000     0.00000
 Structure written by MMmdl.
 43 44  0  0  0  0  0  0  0  0  2 V2000
  151.9378  141.9059  159.3025 C   0  0  0  0  0  0  0  0  0  0  0  0
  152.4429  140.1953  158.8352 S   0  0  0  0  0  0  0  0  0  0  0  0
  153.8274  140.0293  159.3104 O   0  0  0  0  0  0  0  0  0  0  0  0
  151.4262  139.3206  159.4387 O   0  0  0  0  0  0  0  0  0  0  0  0
  152.2995  140.2293  157.2148 N   0  5  0  0  0  0  0  0  0  0  0  0
  151.3343  139.3820  156.5277 C   0  0  1  0  0  0  0  0  0  0  0  0
  150.3478  140.2392  155.6917 C   0  0  0  0  0  0  0  0  0  0  0  0
  149.4473  139.4005  154.7424 C   0  0  0  0  0  0  0  0  0  0  0  0
  150.2561  138.3921  153.8924 C   0  0  0  0  0  0  0  0  0  0  0  0
  151.0613  137.5808  154.8314 N   0  0  0  0  0  0  0  0  0  0  0  0
  150.8758  136.2604  155.0951 C   0  0  0  0  0  0  0  0  0  0  0  0
  151.4400  135.6710  156.0181 O   0  0  0  0  0  0  0  0  0  0  0  0
  149.9367  135.6682  154.3357 N   0  0  0  0  0  0  0  0  0  0  0  0
  149.3539  134.3504  154.5780 C   0  0  0  0  0  0  0  0  0  0  0  0
  147.8240  134.4237  154.7630 C   0  0  0  0  0  0  0  0  0  0  0  0
  147.0360  134.0030  153.5322 C   0  0  0  0  0  0  0  0  0  0  0  0
  145.6257  134.0722  153.5209 C   0  0  0  0  0  0  0  0  0  0  0  0
  144.9403  133.6258  152.3746 C   0  0  0  0  0  0  0  0  0  0  0  0
  145.6875  133.1333  151.2881 C   0  0  0  0  0  0  0  0  0  0  0  0
  147.0923  133.1111  151.3957 C   0  0  0  0  0  0  0  0  0  0  0  0
  147.7600  133.5388  152.4892 N   0  0  0  0  0  0  0  0  0  0  0  0
  152.0548  138.3912  155.5723 C   0  0  0  0  0  0  0  0  0  0  0  0
  151.9194  141.9902  160.3884 H   0  0  0  0  0  0  0  0  0  0  0  0
  150.9434  142.1114  158.9072 H   0  0  0  0  0  0  0  0  0  0  0  0
  152.6461  142.6285  158.8991 H   0  0  0  0  0  0  0  0  0  0  0  0
  150.7534  138.7863  157.2323 H   0  0  0  0  0  0  0  0  0  0  0  0
  149.7236  140.8414  156.3527 H   0  0  0  0  0  0  0  0  0  0  0  0
  150.9153  140.9457  155.0837 H   0  0  0  0  0  0  0  0  0  0  0  0
  148.6986  138.8605  155.3251 H   0  0  0  0  0  0  0  0  0  0  0  0
  148.8887  140.0682  154.0863 H   0  0  0  0  0  0  0  0  0  0  0  0
  149.5937  137.8125  153.2493 H   0  0  0  0  0  0  0  0  0  0  0  0
  150.9274  138.9260  153.2182 H   0  0  0  0  0  0  0  0  0  0  0  0
  149.5141  136.2217  153.6049 H   0  0  0  0  0  0  0  0  0  0  0  0
  149.5904  133.7082  153.7297 H   0  0  0  0  0  0  0  0  0  0  0  0
  149.8109  133.8798  155.4500 H   0  0  0  0  0  0  0  0  0  0  0  0
  147.5299  133.7904  155.6011 H   0  0  0  0  0  0  0  0  0  0  0  0
  147.5354  135.4388  155.0388 H   0  0  0  0  0  0  0  0  0  0  0  0
  145.0791  134.4402  154.3764 H   0  0  0  0  0  0  0  0  0  0  0  0
  143.8614  133.6509  152.3336 H   0  0  0  0  0  0  0  0  0  0  0  0
  145.1945  132.7759  150.3961 H   0  0  0  0  0  0  0  0  0  0  0  0
  147.6959  132.7389  150.5814 H   0  0  0  0  0  0  0  0  0  0  0  0
  152.6689  138.9374  154.8543 H   0  0  0  0  0  0  0  0  0  0  0  0
  152.7508  137.7737  156.1424 H   0  0  0  0  0  0  0  0  0  0  0  0
  1  2  1  0  0  0  0
  1 23  1  0  0  0  0
  1 24  1  0  0  0  0
  1 25  1  0  0  0  0
  2  3  2  0  0  0  0
  2  4  2  0  0  0  0
  2  5  1  0  0  0  0
  5  6  1  0  0  0  0
  6 22  1  0  0  0  0
  6  7  1  0  0  0  0
  6 26  1  0  0  0  0
  7  8  1  0  0  0  0
  7 27  1  0  0  0  0
  7 28  1  0  0  0  0
  8  9  1  0  0  0  0
  8 29  1  0  0  0  0
  8 30  1  0  0  0  0
  9 10  1  0  0  0  0
  9 31  1  0  0  0  0
  9 32  1  0  0  0  0
 10 11  1  0  0  0  0
 10 22  1  0  0  0  0
 11 12  2  0  0  0  0
 11 13  1  0  0  0  0
 13 14  1  0  0  0  0
 13 33  1  0  0  0  0
 14 15  1  0  0  0  0
 14 34  1  0  0  0  0
 14 35  1  0  0  0  0
 15 16  1  0  0  0  0
 15 36  1  0  0  0  0
 15 37  1  0  0  0  0
 16 21  1  0  0  0  0
 16 17  2  0  0  0  0
 17 18  1  0  0  0  0
 17 38  1  0  0  0  0
 18 19  2  0  0  0  0
 18 39  1  0  0  0  0
 19 20  1  0  0  0  0
 19 40  1  0  0  0  0
 20 21  2  0  0  0  0
 20 41  1  0  0  0  0
 22 42  1  0  0  0  0
 22 43  1  0  0  0  0
M  CHG  1   5  -1
M  END
> <s_m_source_file>
AV-unprocessed.smi

> <i_m_source_file_index>
1434

> <i_lp_mmshare_version>
43012

> <i_f3d_flags>
0

> <s_epik_input>
W0NIM11TKD1PKSg9TylbTkhdW0NAQEhdMVtDSDJdW0NIMl1bQ0gyXU4oW0NIMl0xKUMoPU8pW05IXVtDSDJdW0NIMl1jMltjSF1bY0hdW2NIXVtjSF1uMg==

> <s_epik_cmdline>
J2VwaWtfcHl0aG9uJywgJy1waCcsICc3LjAnLCAnLXRuJywgJzgnLCAnLW1hJywgJzIwMCcsICctbWV0YWxfYmluZGluZycsICctaW1hZScsICc8aW5maWxlLm1hZT4nLCAnLW9tYWUnLCAnPG91dGZpbGUubWFlPic=

> <r_epik_Ionization_Penalty>
6.57847

> <r_epik_Ionization_Penalty_Charging>
6.53351

> <r_epik_Ionization_Penalty_Neutral>
0.0449527

> <r_epik_State_Penalty>
6.57157

> <r_epik_Charging_Adjusted_Penalty>
13.1051

> <i_epik_Tot_Q>
-1

> <i_epik_Tot_abs_Q>
1

> <r_epik_Metal_State_Penalty>
2.53928

> <b_epik_Metal_Only>
1

> <s_lp_Force_Field>
OPLS_2005

> <r_lp_Energy>
21.2682

> <b_lp_Chiralities_Consistent>
1

> <s_lp_Variant>
AV-unprocessed.smi:1434-6

> <Gold.Version>
5.8.1

> <Gold.Id.Protein>
6NUR|6NUR_protein|mol2

> <Gold.PLP.Fitness>
44.9329

> <Gold.PLP.PLP>
-31.0859

> <Gold.PLP.part.hbond>
-4.7554

> <Gold.PLP.part.metal>
0.0000

> <Gold.PLP.part.buried>
-0.6002

> <Gold.PLP.part.nonpolar>
-26.9249

> <Gold.PLP.part.repulsive>
1.3843

> <Gold.PLP.ligand.clash>
0.0000

> <Gold.PLP.ligand.torsion>
0.8585

> <Gold.PLP.Chemscore.Hbond>
3.8560

> <Gold.PLP.Chemscore.CHOScore>
1.0000

> <Gold.PLP.Chemscore.Metal>
0.0000

> <Gold.Chemscore.Hbonds>
donor molecule, donor type, donor heavy atom, donor atom, acceptor molecule, acceptor atom, score
      L1  H    13    33       P1  7948  0.88
      P1  H  7997  8008       L1     5  1.33
      P1  H 10752 10765       L1    12  0.91
      L1  C    20    41       P1 10747  1.00

> <Gold.PLP.Chemscore.Internal.Correction>
0.9960

> <Gold.Rescore>
     Score         DG    S(hbond)    S(metal)    S(lipo)     H(rot)  DE(clash)    DE(int)     intcor
     12.79     -13.78       1.49        0.00      65.12       1.68       0.01       0.99       ----

> <Gold.Chemscore.Fitness>
12.7896

> <Gold.Chemscore.DG>
-13.7850

> <Gold.Chemscore.ZeroCoef>
-5.4800

> <Gold.Chemscore.Hbond>
1.4941

> <Gold.Chemscore.Metal>
0.0000

> <Gold.Chemscore.Lipo>
65.1189

> <Gold.Chemscore.Internal_Hbond>
0.0000

> <Gold.Chemscore.DEClash>
0.0073

> <Gold.Chemscore.DEInternal>
0.9880

> <Gold.Chemscore.Rot>
1.6813

> <Gold.Chemscore.Internal.Correction>
   9.000000E+99

> <Gold.Chemscore.Hbonds>
donor molecule, donor type, donor heavy atom, donor atom, acceptor molecule, acceptor atom, score
      L1  H    13    33       P1  7948  0.52
      P1  H  7997  8008       L1     5  0.27
      P1  H 10752 10765       L1    12  0.21

> <Gold.Chemscore.Hbond.Weighted>
-4.9903

> <Gold.Chemscore.Metal.Weighted>
-0.0000

> <Gold.Chemscore.Lipo.Weighted>
-7.6189

> <Gold.Chemscore.Internal_Hbond.Weighted>
0.0000

> <Gold.Chemscore.DEClash.Weighted>
0.0073

> <Gold.Chemscore.DEInternal.Weighted>
0.9880

> <Gold.Chemscore.Rot.Weighted>
4.3042

> <Gold.Chemscore.Internal.Correction.Weighted>
   9.000000E+99

> <Gold.Protein.RotatedTorsions>
[ 6907 6896 6895 6894 ] final  119.28 input  -60.11 | X-H torsion
[ 7974 7965 7964 7962 ] final   11.79 input  175.53 | X-H torsion
[ 8008 7997 7996 7995 ] final  -52.56 input   59.86 | X-H torsion
[ 10167 10162 10161 10158 ] final   53.77 input  -65.29 | X-H torsion
[ 10718 10713 10712 10709 ] final  -47.83 input   66.30 | X-H torsion
[ 10763 10752 10751 10750 ] final -136.42 input  -60.55 | X-H torsion
[ 11005 11000 10999 10996 ] final   77.81 input  -57.11 | X-H torsion

> <Gold.Protein.ActiveResidues>
 VAL166  LYS551  ARG553  GLY616  TRP617  ASP618  TYR619  PRO620  LYS621  CYS622 
 ASP623  PHE694  ASN695  SER759  ASP760  ASP761  ALA762  ILE779  LEU786  VAL792 
 PHE793  MET794  SER795  GLU796  ALA797  LYS798  CYS799  TRP800  GLU811  SER814 

> <Gold.Protein.RotatedAtoms>
  152.4483  133.7579  159.6729 H   0  0  0  0  0  0  0  0  0  0  0  0  # atno 6907 bound_to 6896
  150.8388  133.7959  159.3075 H   0  0  0  0  0  0  0  0  0  0  0  0  # atno 6908 bound_to 6896
  151.5591  135.1068  160.0020 H   0  0  0  0  0  0  0  0  0  0  0  0  # atno 6909 bound_to 6896
  146.2364  139.9433  142.8480 H   0  0  0  0  0  0  0  0  0  0  0  0  # atno 7974 bound_to 7965
  154.4110  140.1221  156.5012 H   0  0  0  0  0  0  0  0  0  0  0  0  # atno 8008 bound_to 7997
  155.6893  140.3495  155.4867 H   0  0  0  0  0  0  0  0  0  0  0  0  # atno 8009 bound_to 7997
  155.9483  140.1100  157.0988 H   0  0  0  0  0  0  0  0  0  0  0  0  # atno 8010 bound_to 7997
  140.2372  144.3623  150.6393 H   0  0  0  0  0  0  0  0  0  0  0  0  # atno 10167 bound_to 10162
  156.2046  130.4158  149.9195 H   0  0  0  0  0  0  0  0  0  0  0  0  # atno 10718 bound_to 10713
  154.8684  135.3673  154.5058 H   0  0  0  0  0  0  0  0  0  0  0  0  # atno 10763 bound_to 10752
  153.5696  135.7021  153.5515 H   0  0  0  0  0  0  0  0  0  0  0  0  # atno 10764 bound_to 10752
  153.3554  135.4061  155.1641 H   0  0  0  0  0  0  0  0  0  0  0  0  # atno 10765 bound_to 10752
  139.9239  134.7713  156.1569 H   0  0  0  0  0  0  0  0  0  0  0  0  # atno 11005 bound_to 11000
  145.1932  140.9821  143.4199 LP  0  0  0  0  0  0  0  0  0  0  0  0  # atno 17320 bound_to 7965
  144.9839  139.3756  143.6248 LP  0  0  0  0  0  0  0  0  0  0  0  0  # atno 17321 bound_to 7965
  140.6141  143.2171  151.6827 LP  0  0  0  0  0  0  0  0  0  0  0  0  # atno 17342 bound_to 10162
  139.5089  144.3593  152.0577 LP  0  0  0  0  0  0  0  0  0  0  0  0  # atno 17343 bound_to 10162
  156.6893  130.8889  151.3586 LP  0  0  0  0  0  0  0  0  0  0  0  0  # atno 17370 bound_to 10713
  157.7005  130.9328  150.0771 LP  0  0  0  0  0  0  0  0  0  0  0  0  # atno 17371 bound_to 10713
  141.0781  133.6766  156.2279 LP  0  0  0  0  0  0  0  0  0  0  0  0  # atno 17394 bound_to 11000
  140.6394  134.5182  157.5568 LP  0  0  0  0  0  0  0  0  0  0  0  0  # atno 17395 bound_to 11000

$$$$
