AV-unprocessed.smi:2945|AV-procd|sdf|11279|dock9
  -GOLD-   2272016173D 1   1.00000     0.00000
 Structure written by MMmdl.
 36 37  0  0  0  0  0  0  0  0  1 V2000
  155.4678  144.6274  167.6486 C   0  0  0  0  0  0  0  0  0  0  0  0
  155.2876  143.7080  166.4898 C   0  0  0  0  0  0  0  0  0  0  0  0
  154.7692  143.8808  165.2372 C   0  0  0  0  0  0  0  0  0  0  0  0
  154.9065  142.5932  164.6540 C   0  0  0  0  0  0  0  0  0  0  0  0
  154.4764  142.3478  163.3251 N   0  0  0  0  0  0  0  0  0  0  0  0
  153.4590  142.9336  162.6711 C   0  0  0  0  0  0  0  0  0  0  0  0
  152.7254  143.8051  163.1384 O   0  0  0  0  0  0  0  0  0  0  0  0
  153.3386  142.4452  161.4274 N   0  0  0  0  0  0  0  0  0  0  0  0
  152.3564  142.8670  160.4288 C   0  0  1  0  0  0  0  0  0  0  0  0
  152.4387  144.3986  160.2743 C   0  0  0  0  0  0  0  0  0  0  0  0
  151.4829  144.9146  159.1893 C   0  0  0  0  0  0  0  0  0  0  0  0
  151.7506  144.2187  157.8485 C   0  0  0  0  0  0  0  0  0  0  0  0
  151.6482  142.6930  157.9911 C   0  0  0  0  0  0  0  0  0  0  0  0
  152.6003  142.1489  159.0761 C   0  0  2  0  0  0  0  0  0  0  0  0
  152.4719  140.6189  159.1837 C   0  0  0  0  0  0  0  0  0  0  0  0
  155.4599  141.7141  165.4754 N   0  0  0  0  0  0  0  0  0  0  0  0
  155.7072  142.4243  166.6562 O   0  0  0  0  0  0  0  0  0  0  0  0
  154.9996  145.5929  167.4564 H   0  0  0  0  0  0  0  0  0  0  0  0
  156.5264  144.7979  167.8452 H   0  0  0  0  0  0  0  0  0  0  0  0
  155.0192  144.2076  168.5491 H   0  0  0  0  0  0  0  0  0  0  0  0
  154.3581  144.7836  164.8105 H   0  0  0  0  0  0  0  0  0  0  0  0
  155.0012  141.6513  162.8172 H   0  0  0  0  0  0  0  0  0  0  0  0
  153.9871  141.7269  161.1405 H   0  0  0  0  0  0  0  0  0  0  0  0
  151.3476  142.6234  160.7676 H   0  0  0  0  0  0  0  0  0  0  0  0
  152.2066  144.8824  161.2239 H   0  0  0  0  0  0  0  0  0  0  0  0
  153.4592  144.6903  160.0212 H   0  0  0  0  0  0  0  0  0  0  0  0
  150.4507  144.7391  159.4953 H   0  0  0  0  0  0  0  0  0  0  0  0
  151.5946  145.9934  159.0771 H   0  0  0  0  0  0  0  0  0  0  0  0
  151.0415  144.5709  157.0988 H   0  0  0  0  0  0  0  0  0  0  0  0
  152.7436  144.4882  157.4865 H   0  0  0  0  0  0  0  0  0  0  0  0
  150.6201  142.4212  158.2347 H   0  0  0  0  0  0  0  0  0  0  0  0
  151.8699  142.2244  157.0315 H   0  0  0  0  0  0  0  0  0  0  0  0
  153.6203  142.3688  158.7566 H   0  0  0  0  0  0  0  0  0  0  0  0
  151.4816  140.3303  159.5372 H   0  0  0  0  0  0  0  0  0  0  0  0
  153.2057  140.1991  159.8715 H   0  0  0  0  0  0  0  0  0  0  0  0
  152.6306  140.1433  158.2156 H   0  0  0  0  0  0  0  0  0  0  0  0
  1  2  1  0  0  0  0
  1 18  1  0  0  0  0
  1 19  1  0  0  0  0
  1 20  1  0  0  0  0
  2 17  1  0  0  0  0
  2  3  2  0  0  0  0
  3  4  1  0  0  0  0
  3 21  1  0  0  0  0
  4  5  1  0  0  0  0
  4 16  2  0  0  0  0
  5  6  1  0  0  0  0
  5 22  1  0  0  0  0
  6  7  2  0  0  0  0
  6  8  1  0  0  0  0
  8  9  1  0  0  0  0
  8 23  1  0  0  0  0
  9 14  1  0  0  0  0
  9 10  1  0  0  0  0
  9 24  1  0  0  0  0
 10 11  1  0  0  0  0
 10 25  1  0  0  0  0
 10 26  1  0  0  0  0
 11 12  1  0  0  0  0
 11 27  1  0  0  0  0
 11 28  1  0  0  0  0
 12 13  1  0  0  0  0
 12 29  1  0  0  0  0
 12 30  1  0  0  0  0
 13 14  1  0  0  0  0
 13 31  1  0  0  0  0
 13 32  1  0  0  0  0
 14 15  1  0  0  0  0
 14 33  1  0  0  0  0
 15 34  1  0  0  0  0
 15 35  1  0  0  0  0
 15 36  1  0  0  0  0
 16 17  1  0  0  0  0
M  END
> <s_m_source_file>
AV-unprocessed.smi

> <i_m_source_file_index>
2945

> <i_lp_mmshare_version>
43012

> <i_f3d_flags>
0

> <s_epik_input>
W0NIM11jMVtjSF1jKG5vMSlbTkhdQyg9TylbTkhdW0NAQEhdMltDSDJdW0NIMl1bQ0gyXVtDSDJdW0NASF0yW0NIM10=

> <s_epik_cmdline>
J2VwaWtfcHl0aG9uJywgJy1waCcsICc3LjAnLCAnLXRuJywgJzgnLCAnLW1hJywgJzIwMCcsICctbWV0YWxfYmluZGluZycsICctaW1hZScsICc8aW5maWxlLm1hZT4nLCAnLW9tYWUnLCAnPG91dGZpbGUubWFlPic=

> <r_lp_tautomer_probability>
1

> <r_epik_Ionization_Penalty>
2.357e-05

> <r_epik_Ionization_Penalty_Charging>
0

> <r_epik_Ionization_Penalty_Neutral>
2.357e-05

> <r_epik_State_Penalty>
-0

> <r_epik_Charging_Adjusted_Penalty>
0

> <i_epik_Tot_Q>
0

> <i_epik_Tot_abs_Q>
0

> <r_epik_Metal_State_Penalty>
-0

> <b_epik_Metal_Only>
0

> <s_lp_Force_Field>
OPLS_2005

> <r_lp_Energy>
8.52615

> <b_lp_Chiralities_Consistent>
1

> <s_lp_Variant>
AV-unprocessed.smi:2945-4

> <Gold.Version>
5.8.1

> <Gold.Id.Protein>
6NUR|6NUR_protein|mol2

> <Gold.PLP.Fitness>
41.3142

> <Gold.PLP.PLP>
-41.7810

> <Gold.PLP.part.hbond>
-1.0000

> <Gold.PLP.part.metal>
0.0000

> <Gold.PLP.part.buried>
-6.1313

> <Gold.PLP.part.nonpolar>
-34.2259

> <Gold.PLP.part.repulsive>
1.4711

> <Gold.PLP.ligand.clash>
0.0000

> <Gold.PLP.ligand.torsion>
0.2353

> <Gold.PLP.Chemscore.Hbond>
0.0000

> <Gold.PLP.Chemscore.CHOScore>
0.0000

> <Gold.PLP.Chemscore.Metal>
0.0000

> <Gold.PLP.Chemscore.Internal.Correction>
0.0038

> <Gold.Rescore>
     Score         DG    S(hbond)    S(metal)    S(lipo)     H(rot)  DE(clash)    DE(int)     intcor
     10.46     -14.56       0.00        0.00      99.49       1.00       1.20       2.90       ----

> <Gold.Chemscore.Fitness>
10.4583

> <Gold.Chemscore.DG>
-14.5602

> <Gold.Chemscore.ZeroCoef>
-5.4800

> <Gold.Chemscore.Hbond>
0.0000

> <Gold.Chemscore.Metal>
0.0000

> <Gold.Chemscore.Lipo>
99.4886

> <Gold.Chemscore.Internal_Hbond>
0.0000

> <Gold.Chemscore.DEClash>
1.2046

> <Gold.Chemscore.DEInternal>
2.8973

> <Gold.Chemscore.Rot>
1.0000

> <Gold.Chemscore.Internal.Correction>
   9.000000E+99

> <Gold.Chemscore.Hbond.Weighted>
-0.0000

> <Gold.Chemscore.Metal.Weighted>
-0.0000

> <Gold.Chemscore.Lipo.Weighted>
-11.6402

> <Gold.Chemscore.Internal_Hbond.Weighted>
0.0000

> <Gold.Chemscore.DEClash.Weighted>
1.2046

> <Gold.Chemscore.DEInternal.Weighted>
2.8973

> <Gold.Chemscore.Rot.Weighted>
2.5600

> <Gold.Chemscore.Internal.Correction.Weighted>
   9.000000E+99

> <Gold.Protein.RotatedTorsions>
[ 6907 6896 6895 6894 ] final  -19.19 input  -60.11 | X-H torsion
[ 7974 7965 7964 7962 ] final   12.62 input  175.53 | X-H torsion
[ 8008 7997 7996 7995 ] final  -49.25 input   59.86 | X-H torsion
[ 10167 10162 10161 10158 ] final  122.20 input  -65.29 | X-H torsion
[ 10718 10713 10712 10709 ] final   45.46 input   66.30 | X-H torsion
[ 10763 10752 10751 10750 ] final  -26.92 input  -60.55 | X-H torsion
[ 11005 11000 10999 10996 ] final  -58.54 input  -57.11 | X-H torsion

> <Gold.Protein.ActiveResidues>
 VAL166  LYS551  ARG553  GLY616  TRP617  ASP618  TYR619  PRO620  LYS621  CYS622 
 ASP623  PHE694  ASN695  SER759  ASP760  ASP761  ALA762  ILE779  LEU786  VAL792 
 PHE793  MET794  SER795  GLU796  ALA797  LYS798  CYS799  TRP800  GLU811  SER814 

> <Gold.Protein.RotatedAtoms>
  151.2668  135.0672  159.9118 H   0  0  0  0  0  0  0  0  0  0  0  0  # atno 6907 bound_to 6896
  152.5357  134.0172  159.7976 H   0  0  0  0  0  0  0  0  0  0  0  0  # atno 6908 bound_to 6896
  151.0404  133.5661  159.2682 H   0  0  0  0  0  0  0  0  0  0  0  0  # atno 6909 bound_to 6896
  146.2347  139.9310  142.8496 H   0  0  0  0  0  0  0  0  0  0  0  0  # atno 7974 bound_to 7965
  154.4041  140.1301  156.4472 H   0  0  0  0  0  0  0  0  0  0  0  0  # atno 8008 bound_to 7997
  155.7402  140.3490  155.5080 H   0  0  0  0  0  0  0  0  0  0  0  0  # atno 8009 bound_to 7997
  155.9046  140.1025  157.1314 H   0  0  0  0  0  0  0  0  0  0  0  0  # atno 8010 bound_to 7997
  139.5873  144.7011  151.3377 H   0  0  0  0  0  0  0  0  0  0  0  0  # atno 10167 bound_to 10162
  157.4377  130.8063  149.7664 H   0  0  0  0  0  0  0  0  0  0  0  0  # atno 10718 bound_to 10713
  153.7237  135.6943  153.5006 H   0  0  0  0  0  0  0  0  0  0  0  0  # atno 10763 bound_to 10752
  153.2185  135.4378  155.0461 H   0  0  0  0  0  0  0  0  0  0  0  0  # atno 10764 bound_to 10752
  154.8276  135.3454  154.6769 H   0  0  0  0  0  0  0  0  0  0  0  0  # atno 10765 bound_to 10752
  141.1212  133.6613  156.4936 H   0  0  0  0  0  0  0  0  0  0  0  0  # atno 11005 bound_to 11000
  145.2044  140.9868  143.4137 LP  0  0  0  0  0  0  0  0  0  0  0  0  # atno 17320 bound_to 7965
  144.9745  139.3846  143.6292 LP  0  0  0  0  0  0  0  0  0  0  0  0  # atno 17321 bound_to 7965
  140.7143  143.7309  150.7624 LP  0  0  0  0  0  0  0  0  0  0  0  0  # atno 17342 bound_to 10162
  140.0856  143.4926  152.2506 LP  0  0  0  0  0  0  0  0  0  0  0  0  # atno 17343 bound_to 10162
  155.9937  130.3923  150.2890 LP  0  0  0  0  0  0  0  0  0  0  0  0  # atno 17370 bound_to 10713
  157.1052  131.0206  151.3070 LP  0  0  0  0  0  0  0  0  0  0  0  0  # atno 17371 bound_to 10713
  140.4503  134.6935  157.5036 LP  0  0  0  0  0  0  0  0  0  0  0  0  # atno 17394 bound_to 11000
  140.0170  134.6604  155.9295 LP  0  0  0  0  0  0  0  0  0  0  0  0  # atno 17395 bound_to 11000

$$$$
