AV-unprocessed.smi:1498|AV-procd|sdf|6059|dock2
  -GOLD-   22720 6173D 1   1.00000     0.00000
 Structure written by MMmdl.
 38 39  0  0  0  0  0  0  0  0  2 V2000
  146.6818  129.1647  152.3588 C   0  0  0  0  0  0  0  0  0  0  0  0
  146.7847  130.5108  151.7560 N   0  3  0  0  0  0  0  0  0  0  0  0
  146.6910  131.5958  152.7677 C   0  0  0  0  0  0  0  0  0  0  0  0
  146.7958  132.9860  152.1120 C   0  0  0  0  0  0  0  0  0  0  0  0
  145.7674  133.1013  151.0660 N   0  0  0  0  0  0  0  0  0  0  0  0
  144.6181  133.8180  151.1520 C   0  0  0  0  0  0  0  0  0  0  0  0
  143.8460  133.9484  150.2017 O   0  0  0  0  0  0  0  0  0  0  0  0
  144.4352  134.4270  152.3392 N   0  0  0  0  0  0  0  0  0  0  0  0
  143.3431  135.2370  152.7416 C   0  0  0  0  0  0  0  0  0  0  0  0
  143.2875  136.6475  152.5961 C   0  0  0  0  0  0  0  0  0  0  0  0
  142.1453  137.1328  153.0576 N   0  0  0  0  0  0  0  0  0  0  0  0
  141.4569  136.0512  153.5015 N   0  0  0  0  0  0  0  0  0  0  0  0
  140.1350  136.2261  154.0774 C   0  0  0  0  0  0  0  0  0  0  0  0
  140.1620  137.2232  155.2373 C   0  0  0  0  0  0  0  0  0  0  0  0
  140.5513  138.4707  154.9610 N   0  0  0  0  0  0  0  0  0  0  0  0
  139.8388  136.8708  156.3694 O   0  0  0  0  0  0  0  0  0  0  0  0
  142.1618  134.8762  153.3258 C   0  0  0  0  0  0  0  0  0  0  0  0
  145.9833  132.1055  150.0110 C   0  0  0  0  0  0  0  0  0  0  0  0
  145.8529  130.6946  150.6131 C   0  0  0  0  0  0  0  0  0  0  0  0
  145.7005  129.0118  152.8100 H   0  0  0  0  0  0  0  0  0  0  0  0
  147.4390  129.0307  153.1319 H   0  0  0  0  0  0  0  0  0  0  0  0
  146.8359  128.3926  151.6045 H   0  0  0  0  0  0  0  0  0  0  0  0
  145.7434  131.5112  153.3024 H   0  0  0  0  0  0  0  0  0  0  0  0
  147.4846  131.4743  153.5058 H   0  0  0  0  0  0  0  0  0  0  0  0
  146.7356  133.7556  152.8813 H   0  0  0  0  0  0  0  0  0  0  0  0
  147.7794  133.1091  151.6562 H   0  0  0  0  0  0  0  0  0  0  0  0
  145.1531  134.2845  153.0346 H   0  0  0  0  0  0  0  0  0  0  0  0
  144.0215  137.3214  152.1796 H   0  0  0  0  0  0  0  0  0  0  0  0
  139.4594  136.5801  153.2977 H   0  0  0  0  0  0  0  0  0  0  0  0
  139.7518  135.2636  154.4209 H   0  0  0  0  0  0  0  0  0  0  0  0
  140.5921  139.1601  155.6977 H   0  0  0  0  0  0  0  0  0  0  0  0
  140.8114  138.7172  154.0170 H   0  0  0  0  0  0  0  0  0  0  0  0
  141.7601  133.9192  153.6245 H   0  0  0  0  0  0  0  0  0  0  0  0
  145.2934  132.2211  149.1736 H   0  0  0  0  0  0  0  0  0  0  0  0
  146.9803  132.2416  149.5893 H   0  0  0  0  0  0  0  0  0  0  0  0
  146.0613  129.9452  149.8486 H   0  0  0  0  0  0  0  0  0  0  0  0
  144.8279  130.5299  150.9500 H   0  0  0  0  0  0  0  0  0  0  0  0
  147.7143  130.5763  151.3662 H   0  0  0  0  0  0  0  0  0  0  0  0
  1  2  1  0  0  0  0
  1 20  1  0  0  0  0
  1 21  1  0  0  0  0
  1 22  1  0  0  0  0
  2 19  1  0  0  0  0
  2  3  1  0  0  0  0
  2 38  1  0  0  0  0
  3  4  1  0  0  0  0
  3 23  1  0  0  0  0
  3 24  1  0  0  0  0
  4  5  1  0  0  0  0
  4 25  1  0  0  0  0
  4 26  1  0  0  0  0
  5  6  1  0  0  0  0
  5 18  1  0  0  0  0
  6  7  2  0  0  0  0
  6  8  1  0  0  0  0
  8  9  1  0  0  0  0
  8 27  1  0  0  0  0
  9 17  2  0  0  0  0
  9 10  1  0  0  0  0
 10 11  2  0  0  0  0
 10 28  1  0  0  0  0
 11 12  1  0  0  0  0
 12 13  1  0  0  0  0
 12 17  1  0  0  0  0
 13 14  1  0  0  0  0
 13 29  1  0  0  0  0
 13 30  1  0  0  0  0
 14 15  1  0  0  0  0
 14 16  2  0  0  0  0
 15 31  1  0  0  0  0
 15 32  1  0  0  0  0
 17 33  1  0  0  0  0
 18 19  1  0  0  0  0
 18 34  1  0  0  0  0
 18 35  1  0  0  0  0
 19 36  1  0  0  0  0
 19 37  1  0  0  0  0
M  CHG  1   2   1
M  END
> <s_m_source_file>
AV-unprocessed.smi

> <i_m_source_file_index>
1498

> <i_lp_mmshare_version>
43012

> <i_f3d_flags>
0

> <s_epik_input>
W0NIM11OMVtDSDJdW0NIMl1OKFtDSDJdW0NIMl0xKUMoPU8pW05IXWMyW2NIXW5uKFtjSF0yKVtDSDJdQyg9TylbTkgyXQ==

> <s_epik_cmdline>
J2VwaWtfcHl0aG9uJywgJy1waCcsICc3LjAnLCAnLXRuJywgJzgnLCAnLW1hJywgJzIwMCcsICctbWV0YWxfYmluZGluZycsICctaW1hZScsICc8aW5maWxlLm1hZT4nLCAnLW9tYWUnLCAnPG91dGZpbGUubWFlPic=

> <r_lp_tautomer_probability>
1

> <r_epik_Ionization_Penalty>
0.25453

> <r_epik_Ionization_Penalty_Charging>
0.254506

> <r_epik_Ionization_Penalty_Neutral>
2.46477e-05

> <r_epik_State_Penalty>
0.245983

> <r_epik_Charging_Adjusted_Penalty>
0.500488

> <i_epik_Tot_Q>
1

> <i_epik_Tot_abs_Q>
1

> <r_epik_Metal_State_Penalty>
0.245984

> <b_epik_Metal_Only>
0

> <s_lp_Force_Field>
OPLS_2005

> <r_lp_Energy>
51.0402

> <b_lp_Chiralities_Consistent>
1

> <s_lp_Variant>
AV-unprocessed.smi:1498-1

> <Gold.Version>
5.8.1

> <Gold.Id.Protein>
6NUR|6NUR_protein|mol2

> <Gold.PLP.Fitness>
37.5889

> <Gold.PLP.PLP>
-27.6130

> <Gold.PLP.part.hbond>
-2.0000

> <Gold.PLP.part.metal>
0.0000

> <Gold.PLP.part.buried>
-4.7156

> <Gold.PLP.part.nonpolar>
-23.6002

> <Gold.PLP.part.repulsive>
1.8323

> <Gold.PLP.ligand.clash>
0.0000

> <Gold.PLP.ligand.torsion>
0.8449

> <Gold.PLP.Chemscore.Hbond>
2.0000

> <Gold.PLP.Chemscore.CHOScore>
1.8704

> <Gold.PLP.Chemscore.Metal>
0.0000

> <Gold.Chemscore.Hbonds>
donor molecule, donor type, donor heavy atom, donor atom, acceptor molecule, acceptor atom, score
      L1  H     2    38       P1 10747  1.00
      P1  H 11000 11005       L1    16  1.00
      L1  C    10    28       P1 10171  0.57
      L1  C    17    33       P1 10957  0.86

> <Gold.PLP.Chemscore.Internal.Correction>
0.0545

> <Gold.Rescore>
     Score         DG    S(hbond)    S(metal)    S(lipo)     H(rot)  DE(clash)    DE(int)     intcor
     13.53     -15.51       1.98        0.00      63.19       1.55       1.18       0.79       ----

> <Gold.Chemscore.Fitness>
13.5320

> <Gold.Chemscore.DG>
-15.5099

> <Gold.Chemscore.ZeroCoef>
-5.4800

> <Gold.Chemscore.Hbond>
1.9769

> <Gold.Chemscore.Metal>
0.0000

> <Gold.Chemscore.Lipo>
63.1932

> <Gold.Chemscore.Internal_Hbond>
0.0000

> <Gold.Chemscore.DEClash>
1.1837

> <Gold.Chemscore.DEInternal>
0.7943

> <Gold.Chemscore.Rot>
1.5494

> <Gold.Chemscore.Internal.Correction>
   9.000000E+99

> <Gold.Chemscore.Hbonds>
donor molecule, donor type, donor heavy atom, donor atom, acceptor molecule, acceptor atom, score
      L1  H     2    38       P1 10747  1.00
      P1  H 11000 11005       L1    16  0.91

> <Gold.Chemscore.Hbond.Weighted>
-6.6029

> <Gold.Chemscore.Metal.Weighted>
-0.0000

> <Gold.Chemscore.Lipo.Weighted>
-7.3936

> <Gold.Chemscore.Internal_Hbond.Weighted>
0.0000

> <Gold.Chemscore.DEClash.Weighted>
1.1837

> <Gold.Chemscore.DEInternal.Weighted>
0.7943

> <Gold.Chemscore.Rot.Weighted>
3.9665

> <Gold.Chemscore.Internal.Correction.Weighted>
   9.000000E+99

> <Gold.Protein.RotatedTorsions>
[ 6907 6896 6895 6894 ] final  -69.73 input  -60.11 | X-H torsion
[ 7974 7965 7964 7962 ] final -107.19 input  175.53 | X-H torsion
[ 8008 7997 7996 7995 ] final    4.67 input   59.86 | X-H torsion
[ 10167 10162 10161 10158 ] final  155.94 input  -65.29 | X-H torsion
[ 10718 10713 10712 10709 ] final   -2.09 input   66.30 | X-H torsion
[ 10763 10752 10751 10750 ] final  -71.66 input  -60.55 | X-H torsion
[ 11005 11000 10999 10996 ] final  122.78 input  -57.11 | X-H torsion

> <Gold.Protein.ActiveResidues>
 VAL166  LYS551  ARG553  GLY616  TRP617  ASP618  TYR619  PRO620  LYS621  CYS622 
 ASP623  PHE694  ASN695  SER759  ASP760  ASP761  ALA762  ILE779  LEU786  VAL792 
 PHE793  MET794  SER795  GLU796  ALA797  LYS798  CYS799  TRP800  GLU811  SER814 

> <Gold.Protein.RotatedAtoms>
  150.7291  134.5555  159.5815 H   0  0  0  0  0  0  0  0  0  0  0  0  # atno 6907 bound_to 6896
  152.3032  134.7584  160.0362 H   0  0  0  0  0  0  0  0  0  0  0  0  # atno 6908 bound_to 6896
  151.8157  133.3352  159.3605 H   0  0  0  0  0  0  0  0  0  0  0  0  # atno 6909 bound_to 6896
  145.2084  140.9086  143.3328 H   0  0  0  0  0  0  0  0  0  0  0  0  # atno 7974 bound_to 7965
  154.7187  140.2707  155.6561 H   0  0  0  0  0  0  0  0  0  0  0  0  # atno 8008 bound_to 7997
  156.2817  140.2738  156.1777 H   0  0  0  0  0  0  0  0  0  0  0  0  # atno 8009 bound_to 7997
  155.0536  140.0371  157.2542 H   0  0  0  0  0  0  0  0  0  0  0  0  # atno 8010 bound_to 7997
  139.4821  144.5054  151.8106 H   0  0  0  0  0  0  0  0  0  0  0  0  # atno 10167 bound_to 10162
  156.7960  130.5377  149.5728 H   0  0  0  0  0  0  0  0  0  0  0  0  # atno 10718 bound_to 10713
  154.4348  135.5955  153.6091 H   0  0  0  0  0  0  0  0  0  0  0  0  # atno 10763 bound_to 10752
  152.9801  135.5984  154.3795 H   0  0  0  0  0  0  0  0  0  0  0  0  # atno 10764 bound_to 10752
  154.3637  135.2841  155.2284 H   0  0  0  0  0  0  0  0  0  0  0  0  # atno 10765 bound_to 10752
  139.9283  134.9641  156.8161 H   0  0  0  0  0  0  0  0  0  0  0  0  # atno 11005 bound_to 11000
  144.9879  139.3718  143.6229 LP  0  0  0  0  0  0  0  0  0  0  0  0  # atno 17320 bound_to 7965
  146.3403  139.9049  142.8789 LP  0  0  0  0  0  0  0  0  0  0  0  0  # atno 17321 bound_to 7965
  140.4551  144.1800  150.5901 LP  0  0  0  0  0  0  0  0  0  0  0  0  # atno 17342 bound_to 10162
  140.4544  143.2474  151.9305 LP  0  0  0  0  0  0  0  0  0  0  0  0  # atno 17343 bound_to 10162
  156.1130  130.6054  151.0077 LP  0  0  0  0  0  0  0  0  0  0  0  0  # atno 17370 bound_to 10713
  157.6577  131.0886  150.7909 LP  0  0  0  0  0  0  0  0  0  0  0  0  # atno 17371 bound_to 10713
  140.6273  133.9939  155.7645 LP  0  0  0  0  0  0  0  0  0  0  0  0  # atno 17394 bound_to 11000
  141.0856  133.9996  157.3319 LP  0  0  0  0  0  0  0  0  0  0  0  0  # atno 17395 bound_to 11000

$$$$
