AV-unprocessed.smi:2355|AV-procd|sdf|9390|dock9
  -GOLD-   2272013 23D 1   1.00000     0.00000
 Structure written by MMmdl.
 49 50  0  0  0  0  0  0  0  0  2 V2000
  145.1911  132.0981  149.9423 C   0  0  0  0  0  0  0  0  0  0  0  0
  144.8120  133.2155  150.8911 C   0  0  0  0  0  0  0  0  0  0  0  0
  143.5053  133.3004  151.4073 C   0  0  0  0  0  0  0  0  0  0  0  0
  143.2035  134.3611  152.2833 C   0  0  0  0  0  0  0  0  0  0  0  0
  141.8182  134.5105  152.8759 C   0  0  0  0  0  0  0  0  0  0  0  0
  144.1081  135.2944  152.6487 N   0  0  0  0  0  0  0  0  0  0  0  0
  145.3708  135.2213  152.1594 C   0  0  0  0  0  0  0  0  0  0  0  0
  146.3895  136.1595  152.4734 N   0  0  0  0  0  0  0  0  0  0  0  0
  146.3650  137.1215  153.4118 C   0  0  0  0  0  0  0  0  0  0  0  0
  145.4689  137.2843  154.2399 O   0  0  0  0  0  0  0  0  0  0  0  0
  147.4490  137.9085  153.3322 N   0  0  0  0  0  0  0  0  0  0  0  0
  147.7558  139.0512  154.1973 C   0  0  1  0  0  0  0  0  0  0  0  0
  146.4575  139.8506  154.3995 C   0  0  0  0  0  0  0  0  0  0  0  0
  148.4005  138.5866  155.5356 C   0  0  2  0  0  0  0  0  0  0  0  0
  147.6800  139.1415  156.7835 C   0  0  0  0  0  0  0  0  0  0  0  0
  149.8685  138.8616  155.5578 N   0  3  0  0  0  0  0  0  0  0  0  0
  150.6542  138.2701  154.4454 C   0  0  0  0  0  0  0  0  0  0  0  0
  152.1557  138.4577  154.7151 C   0  0  0  0  0  0  0  0  0  0  0  0
  152.4377  139.8452  154.8590 O   0  0  0  0  0  0  0  0  0  0  0  0
  151.7420  140.4241  155.9577 C   0  0  0  0  0  0  0  0  0  0  0  0
  150.2237  140.2878  155.7468 C   0  0  0  0  0  0  0  0  0  0  0  0
  145.7552  134.1921  151.2713 C   0  0  0  0  0  0  0  0  0  0  0  0
  144.7596  131.1528  150.2728 H   0  0  0  0  0  0  0  0  0  0  0  0
  146.2734  131.9764  149.8902 H   0  0  0  0  0  0  0  0  0  0  0  0
  144.8205  132.3139  148.9402 H   0  0  0  0  0  0  0  0  0  0  0  0
  142.7552  132.5711  151.1379 H   0  0  0  0  0  0  0  0  0  0  0  0
  141.0904  133.9103  152.3292 H   0  0  0  0  0  0  0  0  0  0  0  0
  141.4944  135.5509  152.8389 H   0  0  0  0  0  0  0  0  0  0  0  0
  141.8174  134.1861  153.9169 H   0  0  0  0  0  0  0  0  0  0  0  0
  147.2156  136.1115  151.8957 H   0  0  0  0  0  0  0  0  0  0  0  0
  148.1316  137.6921  152.6202 H   0  0  0  0  0  0  0  0  0  0  0  0
  148.4546  139.7099  153.6790 H   0  0  0  0  0  0  0  0  0  0  0  0
  146.6384  140.7894  154.9223 H   0  0  0  0  0  0  0  0  0  0  0  0
  145.7244  139.2825  154.9731 H   0  0  0  0  0  0  0  0  0  0  0  0
  146.0027  140.1059  153.4416 H   0  0  0  0  0  0  0  0  0  0  0  0
  148.2864  137.5018  155.5622 H   0  0  0  0  0  0  0  0  0  0  0  0
  146.6627  138.7586  156.8583 H   0  0  0  0  0  0  0  0  0  0  0  0
  147.6176  140.2297  156.7642 H   0  0  0  0  0  0  0  0  0  0  0  0
  148.1899  138.8512  157.7020 H   0  0  0  0  0  0  0  0  0  0  0  0
  150.4283  137.2093  154.3405 H   0  0  0  0  0  0  0  0  0  0  0  0
  150.3953  138.7491  153.5004 H   0  0  0  0  0  0  0  0  0  0  0  0
  152.4640  137.9141  155.6099 H   0  0  0  0  0  0  0  0  0  0  0  0
  152.7394  138.0617  153.8841 H   0  0  0  0  0  0  0  0  0  0  0  0
  152.0491  139.9439  156.8883 H   0  0  0  0  0  0  0  0  0  0  0  0
  152.0180  141.4757  156.0363 H   0  0  0  0  0  0  0  0  0  0  0  0
  149.9114  140.8686  154.8781 H   0  0  0  0  0  0  0  0  0  0  0  0
  149.6998  140.6942  156.6126 H   0  0  0  0  0  0  0  0  0  0  0  0
  146.7638  134.1496  150.8855 H   0  0  0  0  0  0  0  0  0  0  0  0
  150.1993  138.4007  156.3938 H   0  0  0  0  0  0  0  0  0  0  0  0
  1  2  1  0  0  0  0
  1 23  1  0  0  0  0
  1 24  1  0  0  0  0
  1 25  1  0  0  0  0
  2 22  1  0  0  0  0
  2  3  2  0  0  0  0
  3  4  1  0  0  0  0
  3 26  1  0  0  0  0
  4  5  1  0  0  0  0
  4  6  2  0  0  0  0
  5 27  1  0  0  0  0
  5 28  1  0  0  0  0
  5 29  1  0  0  0  0
  6  7  1  0  0  0  0
  7  8  1  0  0  0  0
  7 22  2  0  0  0  0
  8  9  1  0  0  0  0
  8 30  1  0  0  0  0
  9 10  2  0  0  0  0
  9 11  1  0  0  0  0
 11 12  1  0  0  0  0
 11 31  1  0  0  0  0
 12 13  1  0  0  0  0
 12 14  1  0  0  0  0
 12 32  1  0  0  0  0
 13 33  1  0  0  0  0
 13 34  1  0  0  0  0
 13 35  1  0  0  0  0
 14 15  1  0  0  0  0
 14 16  1  0  0  0  0
 14 36  1  0  0  0  0
 15 37  1  0  0  0  0
 15 38  1  0  0  0  0
 15 39  1  0  0  0  0
 16 21  1  0  0  0  0
 16 17  1  0  0  0  0
 16 49  1  0  0  0  0
 17 18  1  0  0  0  0
 17 40  1  0  0  0  0
 17 41  1  0  0  0  0
 18 19  1  0  0  0  0
 18 42  1  0  0  0  0
 18 43  1  0  0  0  0
 19 20  1  0  0  0  0
 20 21  1  0  0  0  0
 20 44  1  0  0  0  0
 20 45  1  0  0  0  0
 21 46  1  0  0  0  0
 21 47  1  0  0  0  0
 22 48  1  0  0  0  0
M  CHG  1  16   1
M  END
> <s_m_source_file>
AV-unprocessed.smi

> <i_m_source_file_index>
2355

> <i_lp_mmshare_version>
43012

> <i_f3d_flags>
0

> <s_epik_input>
W0NIM11jMVtjSF1jKFtDSDNdKW5jKFtjSF0xKVtOSF1DKD1PKVtOSF1bQ0BIXShbQ0gzXSlbQ0BIXShbQ0gzXSlOMltDSDJdW0NIMl1PW0NIMl1bQ0gyXTI=

> <s_epik_cmdline>
J2VwaWtfcHl0aG9uJywgJy1waCcsICc3LjAnLCAnLXRuJywgJzgnLCAnLW1hJywgJzIwMCcsICctbWV0YWxfYmluZGluZycsICctaW1hZScsICc8aW5maWxlLm1hZT4nLCAnLW9tYWUnLCAnPG91dGZpbGUubWFlPic=

> <r_epik_Ionization_Penalty>
0.602711

> <r_epik_Ionization_Penalty_Charging>
0.602531

> <r_epik_Ionization_Penalty_Neutral>
0.000180055

> <r_epik_State_Penalty>
0.617039

> <r_epik_Charging_Adjusted_Penalty>
1.21957

> <i_epik_Tot_Q>
1

> <i_epik_Tot_abs_Q>
1

> <r_epik_Metal_State_Penalty>
0.617075

> <b_epik_Metal_Only>
0

> <s_lp_Force_Field>
OPLS_2005

> <r_lp_Energy>
26.6532

> <b_lp_Chiralities_Consistent>
1

> <s_lp_Variant>
AV-unprocessed.smi:2355-6

> <Gold.Version>
5.8.1

> <Gold.Id.Protein>
6NUR|6NUR_protein|mol2

> <Gold.PLP.Fitness>
39.1150

> <Gold.PLP.PLP>
-34.6371

> <Gold.PLP.part.hbond>
-3.1021

> <Gold.PLP.part.metal>
0.0000

> <Gold.PLP.part.buried>
-6.4442

> <Gold.PLP.part.nonpolar>
-25.5490

> <Gold.PLP.part.repulsive>
0.2924

> <Gold.PLP.ligand.clash>
0.0000

> <Gold.PLP.ligand.torsion>
1.7449

> <Gold.PLP.Chemscore.Hbond>
2.6110

> <Gold.PLP.Chemscore.CHOScore>
0.0000

> <Gold.PLP.Chemscore.Metal>
0.0000

> <Gold.Chemscore.Hbonds>
donor molecule, donor type, donor heavy atom, donor atom, acceptor molecule, acceptor atom, score
      L1  H     8    30       P1  7948  0.94
      L1  H    11    31       P1  7948  0.82
      P1  H  7989  7998       L1    19  0.56
      P1  H  7997  8010       L1    19  0.18

> <Gold.PLP.Chemscore.Internal.Correction>
0.1347

> <Gold.Rescore>
     Score         DG    S(hbond)    S(metal)    S(lipo)     H(rot)  DE(clash)    DE(int)     intcor
     14.76     -19.35       2.48        0.00      79.35       1.45       0.09       4.50       ----

> <Gold.Chemscore.Fitness>
14.7573

> <Gold.Chemscore.DG>
-19.3493

> <Gold.Chemscore.ZeroCoef>
-5.4800

> <Gold.Chemscore.Hbond>
2.4814

> <Gold.Chemscore.Metal>
0.0000

> <Gold.Chemscore.Lipo>
79.3481

> <Gold.Chemscore.Internal_Hbond>
0.0000

> <Gold.Chemscore.DEClash>
0.0930

> <Gold.Chemscore.DEInternal>
4.4990

> <Gold.Chemscore.Rot>
1.4462

> <Gold.Chemscore.Internal.Correction>
   9.000000E+99

> <Gold.Chemscore.Hbonds>
donor molecule, donor type, donor heavy atom, donor atom, acceptor molecule, acceptor atom, score
      L1  H     8    30       P1  7948  0.91
      L1  H    11    31       P1  7948  0.81
      P1  H  7989  7998       L1    19  0.09
      P1  H  7997  8010       L1    19  0.01

> <Gold.Chemscore.Hbond.Weighted>
-8.2878

> <Gold.Chemscore.Metal.Weighted>
-0.0000

> <Gold.Chemscore.Lipo.Weighted>
-9.2837

> <Gold.Chemscore.Internal_Hbond.Weighted>
0.0000

> <Gold.Chemscore.DEClash.Weighted>
0.0930

> <Gold.Chemscore.DEInternal.Weighted>
4.4990

> <Gold.Chemscore.Rot.Weighted>
3.7023

> <Gold.Chemscore.Internal.Correction.Weighted>
   9.000000E+99

> <Gold.Protein.RotatedTorsions>
[ 6907 6896 6895 6894 ] final   97.11 input  -60.11 | X-H torsion
[ 7974 7965 7964 7962 ] final  -99.15 input  175.53 | X-H torsion
[ 8008 7997 7996 7995 ] final  102.39 input   59.86 | X-H torsion
[ 10167 10162 10161 10158 ] final -140.25 input  -65.29 | X-H torsion
[ 10718 10713 10712 10709 ] final  151.72 input   66.30 | X-H torsion
[ 10763 10752 10751 10750 ] final   56.00 input  -60.55 | X-H torsion
[ 11005 11000 10999 10996 ] final   17.10 input  -57.11 | X-H torsion

> <Gold.Protein.ActiveResidues>
 VAL166  LYS551  ARG553  GLY616  TRP617  ASP618  TYR619  PRO620  LYS621  CYS622 
 ASP623  PHE694  ASN695  SER759  ASP760  ASP761  ALA762  ILE779  LEU786  VAL792 
 PHE793  MET794  SER795  GLU796  ALA797  LYS798  CYS799  TRP800  GLU811  SER814 

> <Gold.Protein.RotatedAtoms>
  152.5427  134.0783  159.8223 H   0  0  0  0  0  0  0  0  0  0  0  0  # atno 6907 bound_to 6896
  151.0888  133.5325  159.2623 H   0  0  0  0  0  0  0  0  0  0  0  0  # atno 6908 bound_to 6896
  151.2124  135.0495  159.8970 H   0  0  0  0  0  0  0  0  0  0  0  0  # atno 6909 bound_to 6896
  145.3113  140.9401  143.2768 H   0  0  0  0  0  0  0  0  0  0  0  0  # atno 7974 bound_to 7965
  156.1388  140.3182  155.8463 H   0  0  0  0  0  0  0  0  0  0  0  0  # atno 8008 bound_to 7997
  155.4193  140.0511  157.3044 H   0  0  0  0  0  0  0  0  0  0  0  0  # atno 8009 bound_to 7997
  154.4959  140.2110  155.9461 H   0  0  0  0  0  0  0  0  0  0  0  0  # atno 8010 bound_to 7997
  139.8300  143.7459  152.2666 H   0  0  0  0  0  0  0  0  0  0  0  0  # atno 10167 bound_to 10162
  157.2670  131.0809  151.1626 H   0  0  0  0  0  0  0  0  0  0  0  0  # atno 10718 bound_to 10713
  152.9825  135.5691  154.5158 H   0  0  0  0  0  0  0  0  0  0  0  0  # atno 10763 bound_to 10752
  154.4654  135.2783  155.1684 H   0  0  0  0  0  0  0  0  0  0  0  0  # atno 10764 bound_to 10752
  154.3254  135.6260  153.5580 H   0  0  0  0  0  0  0  0  0  0  0  0  # atno 10765 bound_to 10752
  140.4397  134.1334  155.7689 H   0  0  0  0  0  0  0  0  0  0  0  0  # atno 11005 bound_to 11000
  144.9014  139.4645  143.6631 LP  0  0  0  0  0  0  0  0  0  0  0  0  # atno 17320 bound_to 7965
  146.3117  139.7769  142.9015 LP  0  0  0  0  0  0  0  0  0  0  0  0  # atno 17321 bound_to 7965
  139.7664  144.7490  151.0288 LP  0  0  0  0  0  0  0  0  0  0  0  0  # atno 17342 bound_to 10162
  140.7807  143.4694  151.0168 LP  0  0  0  0  0  0  0  0  0  0  0  0  # atno 17343 bound_to 10162
  157.3113  130.6891  149.6217 LP  0  0  0  0  0  0  0  0  0  0  0  0  # atno 17370 bound_to 10713
  155.9663  130.4363  150.5126 LP  0  0  0  0  0  0  0  0  0  0  0  0  # atno 17371 bound_to 10713
  141.1710  133.8608  157.1569 LP  0  0  0  0  0  0  0  0  0  0  0  0  # atno 17394 bound_to 11000
  140.0078  135.0001  157.0330 LP  0  0  0  0  0  0  0  0  0  0  0  0  # atno 17395 bound_to 11000

$$$$
