AV-unprocessed.smi:2399|AV-procd|sdf|9499|dock9
  -GOLD-   2272013133D 1   1.00000     0.00000
 Structure written by MMmdl.
 53 55  0  0  0  0  0  0  0  0  2 V2000
  153.0739  138.7576  158.4941 C   0  0  0  0  0  0  0  0  0  0  0  0
  152.7028  139.8766  157.7025 O   0  0  0  0  0  0  0  0  0  0  0  0
  152.5090  141.0892  158.3349 C   0  0  0  0  0  0  0  0  0  0  0  0
  153.1953  141.4782  159.5137 C   0  0  0  0  0  0  0  0  0  0  0  0
  152.9306  142.7352  160.0845 C   0  0  0  0  0  0  0  0  0  0  0  0
  151.9853  143.5646  159.4556 C   0  0  0  0  0  0  0  0  0  0  0  0
  151.6532  144.9325  160.0133 C   0  0  0  0  0  0  0  0  0  0  0  0
  151.3281  143.2066  158.3345 N   0  0  0  0  0  0  0  0  0  0  0  0
  151.5736  141.9965  157.7738 C   0  0  0  0  0  0  0  0  0  0  0  0
  150.9175  141.5462  156.5952 N   0  0  0  0  0  0  0  0  0  0  0  0
  149.7553  140.8793  156.4894 C   0  0  0  0  0  0  0  0  0  0  0  0
  149.0342  140.5453  157.4303 O   0  0  0  0  0  0  0  0  0  0  0  0
  149.4589  140.6220  155.2070 N   0  0  0  0  0  0  0  0  0  0  0  0
  148.2582  139.9301  154.7479 C   0  0  2  0  0  0  0  0  0  0  0  0
  148.2474  138.4893  155.2769 C   0  0  0  0  0  0  0  0  0  0  0  0
  147.0348  137.7085  154.7427 C   0  0  0  0  0  0  0  0  0  0  0  0
  146.9959  137.7071  153.2534 N   0  3  1  0  0  0  0  0  0  0  0  0
  145.8971  136.8658  152.6956 C   0  0  0  0  0  0  0  0  0  0  0  0
  145.9875  135.3825  153.0808 C   0  0  0  0  0  0  0  0  0  0  0  0
  145.1019  134.6610  152.0633 C   0  0  0  0  0  0  0  0  0  0  0  0
  145.1353  135.5198  150.7929 C   0  0  0  0  0  0  0  0  0  0  0  0
  145.8916  136.8029  151.1596 C   0  0  0  0  0  0  0  0  0  0  0  0
  146.9822  139.0979  152.7203 C   0  0  0  0  0  0  0  0  0  0  0  0
  148.1939  139.9052  153.2121 C   0  0  0  0  0  0  0  0  0  0  0  0
  153.2006  137.8879  157.8495 H   0  0  0  0  0  0  0  0  0  0  0  0
  152.3042  138.5145  159.2277 H   0  0  0  0  0  0  0  0  0  0  0  0
  154.0216  138.9284  159.0066 H   0  0  0  0  0  0  0  0  0  0  0  0
  153.9200  140.8377  159.9928 H   0  0  0  0  0  0  0  0  0  0  0  0
  153.4426  143.0509  160.9814 H   0  0  0  0  0  0  0  0  0  0  0  0
  152.0509  145.0546  161.0213 H   0  0  0  0  0  0  0  0  0  0  0  0
  150.5732  145.0774  160.0556 H   0  0  0  0  0  0  0  0  0  0  0  0
  152.0797  145.7110  159.3804 H   0  0  0  0  0  0  0  0  0  0  0  0
  151.3903  141.7679  155.7315 H   0  0  0  0  0  0  0  0  0  0  0  0
  150.1084  140.9311  154.4984 H   0  0  0  0  0  0  0  0  0  0  0  0
  147.3769  140.4452  155.1359 H   0  0  0  0  0  0  0  0  0  0  0  0
  149.1653  137.9774  154.9836 H   0  0  0  0  0  0  0  0  0  0  0  0
  148.2303  138.4927  156.3676 H   0  0  0  0  0  0  0  0  0  0  0  0
  147.0969  136.6912  155.1270 H   0  0  0  0  0  0  0  0  0  0  0  0
  146.1097  138.1378  155.1312 H   0  0  0  0  0  0  0  0  0  0  0  0
  144.9377  137.2585  153.0381 H   0  0  0  0  0  0  0  0  0  0  0  0
  147.0157  135.0308  152.9821 H   0  0  0  0  0  0  0  0  0  0  0  0
  145.6626  135.1859  154.1031 H   0  0  0  0  0  0  0  0  0  0  0  0
  145.4378  133.6395  151.8823 H   0  0  0  0  0  0  0  0  0  0  0  0
  144.0796  134.6068  152.4393 H   0  0  0  0  0  0  0  0  0  0  0  0
  145.6297  134.9999  149.9714 H   0  0  0  0  0  0  0  0  0  0  0  0
  144.1194  135.7481  150.4681 H   0  0  0  0  0  0  0  0  0  0  0  0
  145.4346  137.6820  150.7042 H   0  0  0  0  0  0  0  0  0  0  0  0
  146.9148  136.7329  150.7867 H   0  0  0  0  0  0  0  0  0  0  0  0
  147.0003  139.0921  151.6312 H   0  0  0  0  0  0  0  0  0  0  0  0
  146.0564  139.5932  153.0178 H   0  0  0  0  0  0  0  0  0  0  0  0
  148.1370  140.9215  152.8205 H   0  0  0  0  0  0  0  0  0  0  0  0
  149.1090  139.4695  152.8080 H   0  0  0  0  0  0  0  0  0  0  0  0
  147.8612  137.2879  152.9443 H   0  0  0  0  0  0  0  0  0  0  0  0
  1  2  1  0  0  0  0
  1 25  1  0  0  0  0
  1 26  1  0  0  0  0
  1 27  1  0  0  0  0
  2  3  1  0  0  0  0
  3  9  1  0  0  0  0
  3  4  2  0  0  0  0
  4  5  1  0  0  0  0
  4 28  1  0  0  0  0
  5  6  2  0  0  0  0
  5 29  1  0  0  0  0
  6  7  1  0  0  0  0
  6  8  1  0  0  0  0
  7 30  1  0  0  0  0
  7 31  1  0  0  0  0
  7 32  1  0  0  0  0
  8  9  2  0  0  0  0
  9 10  1  0  0  0  0
 10 11  1  0  0  0  0
 10 33  1  0  0  0  0
 11 12  2  0  0  0  0
 11 13  1  0  0  0  0
 13 14  1  0  0  0  0
 13 34  1  0  0  0  0
 14 24  1  0  0  0  0
 14 15  1  0  0  0  0
 14 35  1  0  0  0  0
 15 16  1  0  0  0  0
 15 36  1  0  0  0  0
 15 37  1  0  0  0  0
 16 17  1  0  0  0  0
 16 38  1  0  0  0  0
 16 39  1  0  0  0  0
 17 18  1  0  0  0  0
 17 23  1  0  0  0  0
 17 53  1  0  0  0  0
 18 22  1  0  0  0  0
 18 19  1  0  0  0  0
 18 40  1  0  0  0  0
 19 20  1  0  0  0  0
 19 41  1  0  0  0  0
 19 42  1  0  0  0  0
 20 21  1  0  0  0  0
 20 43  1  0  0  0  0
 20 44  1  0  0  0  0
 21 22  1  0  0  0  0
 21 45  1  0  0  0  0
 21 46  1  0  0  0  0
 22 47  1  0  0  0  0
 22 48  1  0  0  0  0
 23 24  1  0  0  0  0
 23 49  1  0  0  0  0
 23 50  1  0  0  0  0
 24 51  1  0  0  0  0
 24 52  1  0  0  0  0
M  CHG  1  17   1
M  END
> <s_m_source_file>
AV-unprocessed.smi

> <i_m_source_file_index>
2399

> <i_lp_mmshare_version>
43012

> <i_f3d_flags>
0

> <s_epik_input>
W0NIM11PYzFbY0hdW2NIXWMoW0NIM10pbmMxW05IXUMoPU8pW05IXVtDSF0yW0NIMl1bQ0gyXU4oW0NIMl1bQ0gyXTIpW0NIXTNbQ0gyXVtDSDJdW0NIMl1bQ0gyXTM=

> <s_epik_cmdline>
J2VwaWtfcHl0aG9uJywgJy1waCcsICc3LjAnLCAnLXRuJywgJzgnLCAnLW1hJywgJzIwMCcsICctbWV0YWxfYmluZGluZycsICctaW1hZScsICc8aW5maWxlLm1hZT4nLCAnLW9tYWUnLCAnPG91dGZpbGUubWFlPic=

> <r_lp_tautomer_probability>
1

> <r_epik_Ionization_Penalty>
0.00183805

> <r_epik_Ionization_Penalty_Charging>
0.00179121

> <r_epik_Ionization_Penalty_Neutral>
4.68398e-05

> <r_epik_State_Penalty>
0.00121448

> <r_epik_Charging_Adjusted_Penalty>
0.0030057

> <i_epik_Tot_Q>
1

> <i_epik_Tot_abs_Q>
1

> <r_epik_Metal_State_Penalty>
-0

> <b_epik_Metal_Only>
0

> <s_lp_Force_Field>
OPLS_2005

> <r_lp_Energy>
41.4811

> <b_lp_Chiralities_Consistent>
1

> <s_lp_Variant>
AV-unprocessed.smi:2399-1

> <Gold.Version>
5.8.1

> <Gold.Id.Protein>
6NUR|6NUR_protein|mol2

> <Gold.PLP.Fitness>
42.2930

> <Gold.PLP.PLP>
-35.5867

> <Gold.PLP.part.hbond>
-2.0000

> <Gold.PLP.part.metal>
0.0000

> <Gold.PLP.part.buried>
1.3323

> <Gold.PLP.part.nonpolar>
-34.6550

> <Gold.PLP.part.repulsive>
0.3277

> <Gold.PLP.ligand.clash>
0.0000

> <Gold.PLP.ligand.torsion>
1.1601

> <Gold.PLP.Chemscore.Hbond>
2.9920

> <Gold.PLP.Chemscore.CHOScore>
0.0000

> <Gold.PLP.Chemscore.Metal>
0.0000

> <Gold.Chemscore.Hbonds>
donor molecule, donor type, donor heavy atom, donor atom, acceptor molecule, acceptor atom, score
      L1  H    17    53       P1  7948  2.00
      P1  H  7997  8010       L1     2  0.99

> <Gold.PLP.Chemscore.Internal.Correction>
0.0504

> <Gold.Rescore>
     Score         DG    S(hbond)    S(metal)    S(lipo)     H(rot)  DE(clash)    DE(int)     intcor
     15.12     -18.01       1.13        0.00     105.13       1.38       1.70       1.20       ----

> <Gold.Chemscore.Fitness>
15.1165

> <Gold.Chemscore.DG>
-18.0118

> <Gold.Chemscore.ZeroCoef>
-5.4800

> <Gold.Chemscore.Hbond>
1.1293

> <Gold.Chemscore.Metal>
0.0000

> <Gold.Chemscore.Lipo>
105.1270

> <Gold.Chemscore.Internal_Hbond>
0.0000

> <Gold.Chemscore.DEClash>
1.6983

> <Gold.Chemscore.DEInternal>
1.1970

> <Gold.Chemscore.Rot>
1.3828

> <Gold.Chemscore.Internal.Correction>
   9.000000E+99

> <Gold.Chemscore.Hbonds>
donor molecule, donor type, donor heavy atom, donor atom, acceptor molecule, acceptor atom, score
      L1  H    17    53       P1  7948  0.98
      P1  H  7997  8010       L1     2  0.15

> <Gold.Chemscore.Hbond.Weighted>
-3.7719

> <Gold.Chemscore.Metal.Weighted>
-0.0000

> <Gold.Chemscore.Lipo.Weighted>
-12.2999

> <Gold.Chemscore.Internal_Hbond.Weighted>
0.0000

> <Gold.Chemscore.DEClash.Weighted>
1.6983

> <Gold.Chemscore.DEInternal.Weighted>
1.1970

> <Gold.Chemscore.Rot.Weighted>
3.5399

> <Gold.Chemscore.Internal.Correction.Weighted>
   9.000000E+99

> <Gold.Protein.RotatedTorsions>
[ 6907 6896 6895 6894 ] final  -40.06 input  -60.11 | X-H torsion
[ 7974 7965 7964 7962 ] final -168.64 input  175.53 | X-H torsion
[ 8008 7997 7996 7995 ] final   64.86 input   59.86 | X-H torsion
[ 10167 10162 10161 10158 ] final  123.28 input  -65.29 | X-H torsion
[ 10718 10713 10712 10709 ] final -144.73 input   66.30 | X-H torsion
[ 10763 10752 10751 10750 ] final   35.88 input  -60.55 | X-H torsion
[ 11005 11000 10999 10996 ] final  -50.42 input  -57.11 | X-H torsion

> <Gold.Protein.ActiveResidues>
 VAL166  LYS551  ARG553  GLY616  TRP617  ASP618  TYR619  PRO620  LYS621  CYS622 
 ASP623  PHE694  ASN695  SER759  ASP760  ASP761  ALA762  ILE779  LEU786  VAL792 
 PHE793  MET794  SER795  GLU796  ALA797  LYS798  CYS799  TRP800  GLU811  SER814 

> <Gold.Protein.RotatedAtoms>
  150.9829  134.9180  159.7854 H   0  0  0  0  0  0  0  0  0  0  0  0  # atno 6907 bound_to 6896
  152.5227  134.3386  159.9219 H   0  0  0  0  0  0  0  0  0  0  0  0  # atno 6908 bound_to 6896
  151.3393  133.3928  159.2704 H   0  0  0  0  0  0  0  0  0  0  0  0  # atno 6909 bound_to 6896
  144.7199  140.2340  143.6300 H   0  0  0  0  0  0  0  0  0  0  0  0  # atno 7974 bound_to 7965
  155.6526  140.3497  155.4753 H   0  0  0  0  0  0  0  0  0  0  0  0  # atno 8008 bound_to 7997
  155.9835  140.1179  157.0728 H   0  0  0  0  0  0  0  0  0  0  0  0  # atno 8009 bound_to 7997
  154.4198  140.1133  156.5454 H   0  0  0  0  0  0  0  0  0  0  0  0  # atno 8010 bound_to 7997
  139.5809  144.6985  151.3532 H   0  0  0  0  0  0  0  0  0  0  0  0  # atno 10167 bound_to 10162
  156.3737  130.7801  151.1985 H   0  0  0  0  0  0  0  0  0  0  0  0  # atno 10718 bound_to 10713
  153.0100  135.6321  154.1896 H   0  0  0  0  0  0  0  0  0  0  0  0  # atno 10763 bound_to 10752
  154.1639  135.2822  155.3102 H   0  0  0  0  0  0  0  0  0  0  0  0  # atno 10764 bound_to 10752
  154.5961  135.5602  153.7387 H   0  0  0  0  0  0  0  0  0  0  0  0  # atno 10765 bound_to 10752
  141.0815  133.6652  156.3729 H   0  0  0  0  0  0  0  0  0  0  0  0  # atno 11005 bound_to 11000
  145.8383  139.2118  143.1842 LP  0  0  0  0  0  0  0  0  0  0  0  0  # atno 17320 bound_to 7965
  146.0369  140.8203  142.9848 LP  0  0  0  0  0  0  0  0  0  0  0  0  # atno 17321 bound_to 7965
  140.7087  143.7447  150.7528 LP  0  0  0  0  0  0  0  0  0  0  0  0  # atno 17342 bound_to 10162
  140.0979  143.4816  152.2442 LP  0  0  0  0  0  0  0  0  0  0  0  0  # atno 17343 bound_to 10162
  157.7486  131.0365  150.4411 LP  0  0  0  0  0  0  0  0  0  0  0  0  # atno 17370 bound_to 10713
  156.4642  130.4038  149.6557 LP  0  0  0  0  0  0  0  0  0  0  0  0  # atno 17371 bound_to 10713
  140.5458  134.6076  157.5393 LP  0  0  0  0  0  0  0  0  0  0  0  0  # atno 17394 bound_to 11000
  139.9629  134.7421  156.0198 LP  0  0  0  0  0  0  0  0  0  0  0  0  # atno 17395 bound_to 11000

$$$$
