AV-unprocessed.smi:460|AV-procd|sdf|2627|dock8
  -GOLD-   2262023 33D 1   1.00000     0.00000
 Structure written by MMmdl.
 46 48  0  0  0  0  0  0  0  0  1 V2000
  152.2315  137.3440  156.5645 C   0  0  0  0  0  0  0  0  0  0  0  0
  152.4619  138.7058  157.2388 C   0  0  0  0  0  0  0  0  0  0  0  0
  152.4344  139.9195  156.2848 C   0  0  1  0  0  0  0  0  0  0  0  0
  153.4971  139.7899  155.3599 O   0  0  0  0  0  0  0  0  0  0  0  0
  151.1026  140.1228  155.6095 C   0  0  0  0  0  0  0  0  0  0  0  0
  150.5075  139.1631  154.8959 N   0  0  0  0  0  0  0  0  0  0  0  0
  149.3378  139.7670  154.4811 C   0  0  0  0  0  0  0  0  0  0  0  0
  148.2838  139.2740  153.6789 C   0  0  0  0  0  0  0  0  0  0  0  0
  147.1744  140.0908  153.3770 C   0  0  0  0  0  0  0  0  0  0  0  0
  147.1017  141.4079  153.8745 C   0  0  0  0  0  0  0  0  0  0  0  0
  148.1391  141.9160  154.6793 C   0  0  0  0  0  0  0  0  0  0  0  0
  149.2466  141.0983  154.9743 C   0  0  0  0  0  0  0  0  0  0  0  0
  150.4149  141.2900  155.7070 N   0  0  0  0  0  0  0  0  0  0  0  0
  150.7939  142.5114  156.4062 C   0  0  0  0  0  0  0  0  0  0  0  0
  150.4993  142.4260  157.9112 C   0  0  0  0  0  0  0  0  0  0  0  0
  151.7172  142.1663  158.5942 O   0  0  0  0  0  0  0  0  0  0  0  0
  151.8951  142.6732  159.8626 C   0  0  0  0  0  0  0  0  0  0  0  0
  151.1800  143.7850  160.3729 C   0  0  0  0  0  0  0  0  0  0  0  0
  151.4213  144.2471  161.6796 C   0  0  0  0  0  0  0  0  0  0  0  0
  152.3758  143.6048  162.4871 C   0  0  0  0  0  0  0  0  0  0  0  0
  153.0898  142.4995  161.9892 C   0  0  0  0  0  0  0  0  0  0  0  0
  152.8551  142.0259  160.6735 C   0  0  0  0  0  0  0  0  0  0  0  0
  153.5132  140.9478  160.1178 O   0  0  0  0  0  0  0  0  0  0  0  0
  154.4796  140.2686  160.9047 C   0  0  0  0  0  0  0  0  0  0  0  0
  152.3102  136.5364  157.2925 H   0  0  0  0  0  0  0  0  0  0  0  0
  152.9690  137.1574  155.7835 H   0  0  0  0  0  0  0  0  0  0  0  0
  151.2407  137.2817  156.1142 H   0  0  0  0  0  0  0  0  0  0  0  0
  151.7002  138.8374  158.0073 H   0  0  0  0  0  0  0  0  0  0  0  0
  153.4154  138.6856  157.7680 H   0  0  0  0  0  0  0  0  0  0  0  0
  152.6681  140.8153  156.8596 H   0  0  0  0  0  0  0  0  0  0  0  0
  153.1334  139.5662  154.5170 H   0  0  0  0  0  0  0  0  0  0  0  0
  148.3312  138.2669  153.2920 H   0  0  0  0  0  0  0  0  0  0  0  0
  146.3760  139.7056  152.7597 H   0  0  0  0  0  0  0  0  0  0  0  0
  146.2509  142.0292  153.6364 H   0  0  0  0  0  0  0  0  0  0  0  0
  148.0891  142.9266  155.0564 H   0  0  0  0  0  0  0  0  0  0  0  0
  151.8591  142.6817  156.2471 H   0  0  0  0  0  0  0  0  0  0  0  0
  150.2837  143.3657  155.9633 H   0  0  0  0  0  0  0  0  0  0  0  0
  150.0649  143.3655  158.2548 H   0  0  0  0  0  0  0  0  0  0  0  0
  149.7794  141.6287  158.1020 H   0  0  0  0  0  0  0  0  0  0  0  0
  150.4427  144.3028  159.7784 H   0  0  0  0  0  0  0  0  0  0  0  0
  150.8740  145.0960  162.0618 H   0  0  0  0  0  0  0  0  0  0  0  0
  152.5618  143.9604  163.4900 H   0  0  0  0  0  0  0  0  0  0  0  0
  153.8152  142.0320  162.6372 H   0  0  0  0  0  0  0  0  0  0  0  0
  154.8846  139.4342  160.3321 H   0  0  0  0  0  0  0  0  0  0  0  0
  154.0375  139.8601  161.8143 H   0  0  0  0  0  0  0  0  0  0  0  0
  155.3115  140.9233  161.1673 H   0  0  0  0  0  0  0  0  0  0  0  0
  1  2  1  0  0  0  0
  1 25  1  0  0  0  0
  1 26  1  0  0  0  0
  1 27  1  0  0  0  0
  2  3  1  0  0  0  0
  2 28  1  0  0  0  0
  2 29  1  0  0  0  0
  3  4  1  0  0  0  0
  3  5  1  0  0  0  0
  3 30  1  0  0  0  0
  4 31  1  0  0  0  0
  5 13  1  0  0  0  0
  5  6  2  0  0  0  0
  6  7  1  0  0  0  0
  7 12  2  0  0  0  0
  7  8  1  0  0  0  0
  8  9  2  0  0  0  0
  8 32  1  0  0  0  0
  9 10  1  0  0  0  0
  9 33  1  0  0  0  0
 10 11  2  0  0  0  0
 10 34  1  0  0  0  0
 11 12  1  0  0  0  0
 11 35  1  0  0  0  0
 12 13  1  0  0  0  0
 13 14  1  0  0  0  0
 14 15  1  0  0  0  0
 14 36  1  0  0  0  0
 14 37  1  0  0  0  0
 15 16  1  0  0  0  0
 15 38  1  0  0  0  0
 15 39  1  0  0  0  0
 16 17  1  0  0  0  0
 17 22  1  0  0  0  0
 17 18  2  0  0  0  0
 18 19  1  0  0  0  0
 18 40  1  0  0  0  0
 19 20  2  0  0  0  0
 19 41  1  0  0  0  0
 20 21  1  0  0  0  0
 20 42  1  0  0  0  0
 21 22  2  0  0  0  0
 21 43  1  0  0  0  0
 22 23  1  0  0  0  0
 23 24  1  0  0  0  0
 24 44  1  0  0  0  0
 24 45  1  0  0  0  0
 24 46  1  0  0  0  0
M  END
> <s_m_source_file>
AV-unprocessed.smi

> <i_m_source_file_index>
460

> <i_lp_mmshare_version>
43012

> <i_f3d_flags>
0

> <s_epik_input>
W2NIXTFbY0hdW2NIXVtjSF1jKGMxMiluKGMobjIpW0NAQEhdKFtPSF0pW0NIMl1bQ0gzXSlbQ0gyXVtDSDJdT2MzW2NIXVtjSF1bY0hdW2NIXWMzT1tDSDNd

> <s_epik_cmdline>
J2VwaWtfcHl0aG9uJywgJy1waCcsICc3LjAnLCAnLXRuJywgJzgnLCAnLW1hJywgJzIwMCcsICctbWV0YWxfYmluZGluZycsICctaW1hZScsICc8aW5maWxlLm1hZT4nLCAnLW9tYWUnLCAnPG91dGZpbGUubWFlPic=

> <r_lp_tautomer_probability>
1

> <r_epik_Ionization_Penalty>
0.0507825

> <r_epik_Ionization_Penalty_Charging>
0

> <r_epik_Ionization_Penalty_Neutral>
0.0507825

> <r_epik_State_Penalty>
0.0434615

> <r_epik_Charging_Adjusted_Penalty>
0.0434615

> <i_epik_Tot_Q>
0

> <i_epik_Tot_abs_Q>
0

> <r_epik_Metal_State_Penalty>
4.50935e-05

> <b_epik_Metal_Only>
0

> <s_lp_Force_Field>
OPLS_2005

> <r_lp_Energy>
20.6013

> <b_lp_Chiralities_Consistent>
1

> <s_lp_Variant>
AV-unprocessed.smi:460-2

> <Gold.Version>
5.8.1

> <Gold.Id.Protein>
6NUR|6NUR_protein|mol2

> <Gold.PLP.Fitness>
53.7361

> <Gold.PLP.PLP>
-52.9567

> <Gold.PLP.part.hbond>
-1.0000

> <Gold.PLP.part.metal>
0.0000

> <Gold.PLP.part.buried>
-3.8509

> <Gold.PLP.part.nonpolar>
-46.8427

> <Gold.PLP.part.repulsive>
0.1221

> <Gold.PLP.ligand.clash>
0.0000

> <Gold.PLP.ligand.torsion>
1.1935

> <Gold.PLP.Chemscore.Hbond>
1.0000

> <Gold.PLP.Chemscore.CHOScore>
0.0000

> <Gold.PLP.Chemscore.Metal>
0.0000

> <Gold.Chemscore.Hbonds>
donor molecule, donor type, donor heavy atom, donor atom, acceptor molecule, acceptor atom, score
      P1  H  7997  8008       L1     4  0.15

> <Gold.PLP.Chemscore.Internal.Correction>
0.1664

> <Gold.Rescore>
     Score         DG    S(hbond)    S(metal)    S(lipo)     H(rot)  DE(clash)    DE(int)     intcor
     17.14     -18.59       0.62        0.00     145.92       2.36       0.35       1.10       ----

> <Gold.Chemscore.Fitness>
17.1373

> <Gold.Chemscore.DG>
-18.5862

> <Gold.Chemscore.ZeroCoef>
-5.4800

> <Gold.Chemscore.Hbond>
0.6204

> <Gold.Chemscore.Metal>
0.0000

> <Gold.Chemscore.Lipo>
145.9199

> <Gold.Chemscore.Internal_Hbond>
0.0000

> <Gold.Chemscore.DEClash>
0.3519

> <Gold.Chemscore.DEInternal>
1.0970

> <Gold.Chemscore.Rot>
2.3587

> <Gold.Chemscore.Internal.Correction>
   9.000000E+99

> <Gold.Chemscore.Hbonds>
donor molecule, donor type, donor heavy atom, donor atom, acceptor molecule, acceptor atom, score
      P1  H  7997  8008       L1     4  0.15

> <Gold.Chemscore.Hbond.Weighted>
-2.0720

> <Gold.Chemscore.Metal.Weighted>
-0.0000

> <Gold.Chemscore.Lipo.Weighted>
-17.0726

> <Gold.Chemscore.Internal_Hbond.Weighted>
0.0000

> <Gold.Chemscore.DEClash.Weighted>
0.3519

> <Gold.Chemscore.DEInternal.Weighted>
1.0970

> <Gold.Chemscore.Rot.Weighted>
6.0384

> <Gold.Chemscore.Internal.Correction.Weighted>
   9.000000E+99

> <Gold.Protein.RotatedTorsions>
[ 6907 6896 6895 6894 ] final  -95.55 input  -60.11 | X-H torsion
[ 7974 7965 7964 7962 ] final -176.21 input  175.53 | X-H torsion
[ 8008 7997 7996 7995 ] final   -6.82 input   59.86 | X-H torsion
[ 10167 10162 10161 10158 ] final -166.29 input  -65.29 | X-H torsion
[ 10718 10713 10712 10709 ] final  147.91 input   66.30 | X-H torsion
[ 10763 10752 10751 10750 ] final -111.50 input  -60.55 | X-H torsion
[ 11005 11000 10999 10996 ] final  -81.29 input  -57.11 | X-H torsion

> <Gold.Protein.ActiveResidues>
 VAL166  LYS551  ARG553  GLY616  TRP617  ASP618  TYR619  PRO620  LYS621  CYS622 
 ASP623  PHE694  ASN695  SER759  ASP760  ASP761  ALA762  ILE779  LEU786  VAL792 
 PHE793  MET794  SER795  GLU796  ALA797  LYS798  CYS799  TRP800  GLU811  SER814 

> <Gold.Protein.RotatedAtoms>
  150.6966  134.1640  159.4186 H   0  0  0  0  0  0  0  0  0  0  0  0  # atno 6907 bound_to 6896
  151.9620  135.0116  160.0557 H   0  0  0  0  0  0  0  0  0  0  0  0  # atno 6908 bound_to 6896
  152.1918  133.4743  159.5049 H   0  0  0  0  0  0  0  0  0  0  0  0  # atno 6909 bound_to 6896
  144.7127  140.1205  143.6405 H   0  0  0  0  0  0  0  0  0  0  0  0  # atno 7974 bound_to 7965
  154.5899  140.2423  155.7935 H   0  0  0  0  0  0  0  0  0  0  0  0  # atno 8008 bound_to 7997
  156.2240  140.2988  155.9975 H   0  0  0  0  0  0  0  0  0  0  0  0  # atno 8009 bound_to 7997
  155.2392  140.0406  157.2963 H   0  0  0  0  0  0  0  0  0  0  0  0  # atno 8010 bound_to 7997
  139.6125  144.0786  152.1855 H   0  0  0  0  0  0  0  0  0  0  0  0  # atno 10167 bound_to 10162
  157.3152  131.0894  151.1285 H   0  0  0  0  0  0  0  0  0  0  0  0  # atno 10718 bound_to 10713
  154.8303  135.4525  154.1049 H   0  0  0  0  0  0  0  0  0  0  0  0  # atno 10763 bound_to 10752
  153.2327  135.6907  153.7877 H   0  0  0  0  0  0  0  0  0  0  0  0  # atno 10764 bound_to 10752
  153.7254  135.3335  155.3251 H   0  0  0  0  0  0  0  0  0  0  0  0  # atno 10765 bound_to 10752
  141.1667  133.7189  156.8401 H   0  0  0  0  0  0  0  0  0  0  0  0  # atno 11005 bound_to 11000
  145.9375  139.2647  143.1288 LP  0  0  0  0  0  0  0  0  0  0  0  0  # atno 17320 bound_to 7965
  145.9458  140.8946  143.0284 LP  0  0  0  0  0  0  0  0  0  0  0  0  # atno 17321 bound_to 7965
  140.0408  144.6008  150.7412 LP  0  0  0  0  0  0  0  0  0  0  0  0  # atno 17342 bound_to 10162
  140.7328  143.2710  151.3888 LP  0  0  0  0  0  0  0  0  0  0  0  0  # atno 17343 bound_to 10162
  157.2591  130.6650  149.5966 LP  0  0  0  0  0  0  0  0  0  0  0  0  # atno 17370 bound_to 10713
  155.9681  130.4514  150.5734 LP  0  0  0  0  0  0  0  0  0  0  0  0  # atno 17371 bound_to 10713
  140.1990  134.8911  157.3147 LP  0  0  0  0  0  0  0  0  0  0  0  0  # atno 17394 bound_to 11000
  140.2208  134.4025  155.7567 LP  0  0  0  0  0  0  0  0  0  0  0  0  # atno 17395 bound_to 11000

$$$$
