AV-unprocessed.smi:72|AV-procd|sdf|753|dock4
  -GOLD-   2262017 93D 1   1.00000     0.00000
 Structure written by MMmdl.
 29 30  0  0  0  0  0  0  0  0  1 V2000
  147.3166  132.4694  155.8542 N   0  0  0  0  0  0  0  0  0  0  0  0
  147.9455  133.6964  155.8908 C   0  0  0  0  0  0  0  0  0  0  0  0
  147.7240  134.5431  154.7961 N   0  0  0  0  0  0  0  0  0  0  0  0
  148.3098  135.6980  154.8273 C   0  0  0  0  0  0  0  0  0  0  0  0
  149.1543  136.0864  155.9446 N   0  0  0  0  0  0  0  0  0  0  0  0
  149.8518  137.4347  156.0118 C   0  0  2  0  0  0  0  0  0  0  0  0
  148.9454  138.4597  155.7206 O   0  0  0  0  0  0  0  0  0  0  0  0
  149.2258  139.0155  154.4391 C   0  0  1  0  0  0  0  0  0  0  0  0
  148.6573  140.4395  154.3119 C   0  0  0  0  0  0  0  0  0  0  0  0
  149.2560  141.1052  153.2204 O   0  0  0  0  0  0  0  0  0  0  0  0
  150.7521  138.9005  154.3427 C   0  0  1  0  0  0  0  0  0  0  0  0
  151.3902  139.9546  155.0411 O   0  0  0  0  0  0  0  0  0  0  0  0
  151.0343  137.5658  155.0199 C   0  0  2  0  0  0  0  0  0  0  0  0
  151.0834  136.5391  154.0441 O   0  0  0  0  0  0  0  0  0  0  0  0
  149.3379  135.1741  157.0199 C   0  0  0  0  0  0  0  0  0  0  0  0
  150.0595  135.4778  157.9699 O   0  0  0  0  0  0  0  0  0  0  0  0
  148.6798  133.9414  156.9379 N   0  0  0  0  0  0  0  0  0  0  0  0
  150.1512  137.5558  157.0542 H   0  0  0  0  0  0  0  0  0  0  0  0
  148.7941  138.3732  153.6695 H   0  0  0  0  0  0  0  0  0  0  0  0
  151.0961  138.9281  153.3078 H   0  0  0  0  0  0  0  0  0  0  0  0
  151.9778  137.5652  155.5675 H   0  0  0  0  0  0  0  0  0  0  0  0
  147.4039  131.7798  156.5864 H   0  0  0  0  0  0  0  0  0  0  0  0
  146.7251  132.1692  155.0930 H   0  0  0  0  0  0  0  0  0  0  0  0
  148.2051  136.4338  154.0301 H   0  0  0  0  0  0  0  0  0  0  0  0
  147.5729  140.4271  154.1977 H   0  0  0  0  0  0  0  0  0  0  0  0
  148.8852  141.0161  155.2089 H   0  0  0  0  0  0  0  0  0  0  0  0
  149.2251  140.5359  152.4667 H   0  0  0  0  0  0  0  0  0  0  0  0
  151.3221  139.7848  155.9681 H   0  0  0  0  0  0  0  0  0  0  0  0
  150.3440  136.6426  153.4646 H   0  0  0  0  0  0  0  0  0  0  0  0
  1  2  1  0  0  0  0
  1 22  1  0  0  0  0
  1 23  1  0  0  0  0
  2 17  2  0  0  0  0
  2  3  1  0  0  0  0
  3  4  2  0  0  0  0
  4  5  1  0  0  0  0
  4 24  1  0  0  0  0
  5  6  1  0  0  0  0
  5 15  1  0  0  0  0
  6 18  1  0  0  0  0
  6 13  1  0  0  0  0
  6  7  1  0  0  0  0
  7  8  1  0  0  0  0
  8 19  1  0  0  0  0
  8  9  1  0  0  0  0
  8 11  1  0  0  0  0
  9 10  1  0  0  0  0
  9 25  1  0  0  0  0
  9 26  1  0  0  0  0
 10 27  1  0  0  0  0
 11 20  1  0  0  0  0
 11 12  1  0  0  0  0
 11 13  1  0  0  0  0
 12 28  1  0  0  0  0
 13 21  1  0  0  0  0
 13 14  1  0  0  0  0
 14 29  1  0  0  0  0
 15 16  2  0  0  0  0
 15 17  1  0  0  0  0
M  END
> <s_m_source_file>
AV-unprocessed.smi

> <i_m_source_file_index>
72

> <i_lp_mmshare_version>
43012

> <i_f3d_flags>
0

> <s_epik_input>
W05IMl1jMW5bY0hdbihjKD1PKW4xKVtDQEBIXTJPW0NASF0oW0NIMl1bT0hdKVtDQEBIXShbT0hdKVtDQEhdMltPSF0=

> <s_epik_cmdline>
J2VwaWtfcHl0aG9uJywgJy1waCcsICc3LjAnLCAnLXRuJywgJzgnLCAnLW1hJywgJzIwMCcsICctbWV0YWxfYmluZGluZycsICctaW1hZScsICc8aW5maWxlLm1hZT4nLCAnLW9tYWUnLCAnPG91dGZpbGUubWFlPic=

> <r_lp_tautomer_probability>
4.77166e-05

> <r_epik_Ionization_Penalty>
1.3546

> <r_epik_Ionization_Penalty_Charging>
1.46833e-10

> <r_epik_Ionization_Penalty_Neutral>
1.3546

> <r_epik_State_Penalty>
3.51908

> <r_epik_Charging_Adjusted_Penalty>
3.51908

> <i_epik_Tot_Q>
0

> <i_epik_Tot_abs_Q>
0

> <r_epik_Metal_State_Penalty>
3.44088

> <b_epik_Metal_Only>
1

> <s_epik_Chemistry_Notes>
This compound contains an acetal/aminal-like group ( X-CH(R)-Y where X, Y are N, S, or O) that may be acid/base labile, releasing an aldehyde.

> <s_lp_Force_Field>
OPLS_2005

> <r_lp_Energy>
33.7938

> <b_lp_Chiralities_Consistent>
1

> <s_lp_Variant>
AV-unprocessed.smi:72-91

> <Gold.Version>
5.8.1

> <Gold.Id.Protein>
6NUR|6NUR_protein|mol2

> <Gold.PLP.Fitness>
35.7942

> <Gold.PLP.PLP>
-19.9605

> <Gold.PLP.part.hbond>
-7.1106

> <Gold.PLP.part.metal>
0.0000

> <Gold.PLP.part.buried>
-3.4675

> <Gold.PLP.part.nonpolar>
-9.9779

> <Gold.PLP.part.repulsive>
0.0880

> <Gold.PLP.ligand.clash>
0.0000

> <Gold.PLP.ligand.torsion>
0.3605

> <Gold.PLP.Chemscore.Hbond>
4.5430

> <Gold.PLP.Chemscore.CHOScore>
0.9594

> <Gold.PLP.Chemscore.Metal>
0.0000

> <Gold.Chemscore.Hbonds>
donor molecule, donor type, donor heavy atom, donor atom, acceptor molecule, acceptor atom, score
      L1  H    10    27       P1  7957  0.78
      L1  H    14    29       P1  7948  0.37
      P1  H  6896  6907       L1    16  0.85
      P1  H  7989  7998       L1    12  0.55
      P1  H  8011  8017       L1    10  0.65
      P1  H 10752 10764       L1    14  0.91
      L1  C     4    24       P1  7948  0.93

> <Gold.PLP.Chemscore.Internal.Correction>
0.0477

> <Gold.Rescore>
     Score         DG    S(hbond)    S(metal)    S(lipo)     H(rot)  DE(clash)    DE(int)     intcor
      6.73      -8.16       2.97        0.00      27.01       4.06       0.02       1.40       ----

> <Gold.Chemscore.Fitness>
6.7323

> <Gold.Chemscore.DG>
-8.1590

> <Gold.Chemscore.ZeroCoef>
-5.4800

> <Gold.Chemscore.Hbond>
2.9678

> <Gold.Chemscore.Metal>
0.0000

> <Gold.Chemscore.Lipo>
27.0113

> <Gold.Chemscore.Internal_Hbond>
0.0000

> <Gold.Chemscore.DEClash>
0.0247

> <Gold.Chemscore.DEInternal>
1.4020

> <Gold.Chemscore.Rot>
4.0600

> <Gold.Chemscore.Internal.Correction>
   9.000000E+99

> <Gold.Chemscore.Hbonds>
donor molecule, donor type, donor heavy atom, donor atom, acceptor molecule, acceptor atom, score
      L1  H    10    27       P1  7957  0.77
      L1  H    14    29       P1  7948  0.01
      P1  H  6896  6907       L1    16  0.83
      P1  H  7989  7998       L1    12  0.03
      P1  H  8011  8017       L1    10  0.06
      P1  H 10752 10764       L1    14  0.44

> <Gold.Chemscore.Hbond.Weighted>
-9.9123

> <Gold.Chemscore.Metal.Weighted>
-0.0000

> <Gold.Chemscore.Lipo.Weighted>
-3.1603

> <Gold.Chemscore.Internal_Hbond.Weighted>
0.0000

> <Gold.Chemscore.DEClash.Weighted>
0.0247

> <Gold.Chemscore.DEInternal.Weighted>
1.4020

> <Gold.Chemscore.Rot.Weighted>
10.3936

> <Gold.Chemscore.Internal.Correction.Weighted>
   9.000000E+99

> <Gold.Protein.RotatedTorsions>
[ 6907 6896 6895 6894 ] final  -65.98 input  -60.11 | X-H torsion
[ 7974 7965 7964 7962 ] final -154.29 input  175.53 | X-H torsion
[ 8008 7997 7996 7995 ] final -122.41 input   59.86 | X-H torsion
[ 10167 10162 10161 10158 ] final  157.54 input  -65.29 | X-H torsion
[ 10718 10713 10712 10709 ] final  161.21 input   66.30 | X-H torsion
[ 10763 10752 10751 10750 ] final  -76.59 input  -60.55 | X-H torsion
[ 11005 11000 10999 10996 ] final  -18.11 input  -57.11 | X-H torsion

> <Gold.Protein.ActiveResidues>
 VAL166  LYS551  ARG553  GLY616  TRP617  ASP618  TYR619  PRO620  LYS621  CYS622 
 ASP623  PHE694  ASN695  SER759  ASP760  ASP761  ALA762  ILE779  LEU786  VAL792 
 PHE793  MET794  SER795  GLU796  ALA797  LYS798  CYS799  TRP800  GLU811  SER814 

> <Gold.Protein.RotatedAtoms>
  150.7492  134.6085  159.6073 H   0  0  0  0  0  0  0  0  0  0  0  0  # atno 6907 bound_to 6896
  152.3426  134.7111  160.0268 H   0  0  0  0  0  0  0  0  0  0  0  0  # atno 6908 bound_to 6896
  151.7558  133.3294  159.3440 H   0  0  0  0  0  0  0  0  0  0  0  0  # atno 6909 bound_to 6896
  144.7697  140.4408  143.5916 H   0  0  0  0  0  0  0  0  0  0  0  0  # atno 7974 bound_to 7965
  155.1637  140.0406  157.2848 H   0  0  0  0  0  0  0  0  0  0  0  0  # atno 8008 bound_to 7997
  154.6318  140.2526  155.7398 H   0  0  0  0  0  0  0  0  0  0  0  0  # atno 8009 bound_to 7997
  156.2488  140.2873  156.0673 H   0  0  0  0  0  0  0  0  0  0  0  0  # atno 8010 bound_to 7997
  139.4823  144.4908  151.8311 H   0  0  0  0  0  0  0  0  0  0  0  0  # atno 10167 bound_to 10162
  157.1396  131.0537  151.2333 H   0  0  0  0  0  0  0  0  0  0  0  0  # atno 10718 bound_to 10713
  154.5018  135.5792  153.6537 H   0  0  0  0  0  0  0  0  0  0  0  0  # atno 10763 bound_to 10752
  152.9880  135.6137  154.2992 H   0  0  0  0  0  0  0  0  0  0  0  0  # atno 10764 bound_to 10752
  154.2900  135.2849  155.2638 H   0  0  0  0  0  0  0  0  0  0  0  0  # atno 10765 bound_to 10752
  140.8235  133.8050  155.9684 H   0  0  0  0  0  0  0  0  0  0  0  0  # atno 11005 bound_to 11000
  145.6362  139.1543  143.2941 LP  0  0  0  0  0  0  0  0  0  0  0  0  # atno 17320 bound_to 7965
  146.1833  140.6462  142.9179 LP  0  0  0  0  0  0  0  0  0  0  0  0  # atno 17321 bound_to 7965
  140.4392  144.2010  150.5890 LP  0  0  0  0  0  0  0  0  0  0  0  0  # atno 17342 bound_to 10162
  140.4700  143.2416  151.9102 LP  0  0  0  0  0  0  0  0  0  0  0  0  # atno 17343 bound_to 10162
  157.4319  130.7495  149.6997 LP  0  0  0  0  0  0  0  0  0  0  0  0  # atno 17370 bound_to 10713
  155.9791  130.4044  150.3607 LP  0  0  0  0  0  0  0  0  0  0  0  0  # atno 17371 bound_to 10713
  140.9074  134.2303  157.5006 LP  0  0  0  0  0  0  0  0  0  0  0  0  # atno 17394 bound_to 11000
  139.8707  134.9734  156.4809 LP  0  0  0  0  0  0  0  0  0  0  0  0  # atno 17395 bound_to 11000

$$$$
