AV-unprocessed.smi:750|AV-procd|sdf|3590|dock2
  -GOLD-   22720 0583D 1   1.00000     0.00000
 Structure written by MMmdl.
 22 23  0  0  0  0  0  0  0  0  2 V2000
  150.3336  139.7091  158.3546 C   0  0  0  0  0  0  0  0  0  0  0  0
  151.1447  140.6599  157.4494 C   0  0  1  0  0  0  0  0  0  0  0  0
  151.5408  141.9580  158.1735 C   0  0  0  0  0  0  0  0  0  0  0  0
  152.3315  141.9576  159.3482 C   0  0  0  0  0  0  0  0  0  0  0  0
  152.6574  143.1825  159.9610 C   0  0  0  0  0  0  0  0  0  0  0  0
  152.1823  144.3718  159.3774 C   0  0  0  0  0  0  0  0  0  0  0  0
  151.4279  144.3961  158.2597 N   0  0  0  0  0  0  0  0  0  0  0  0
  151.1210  143.2163  157.6787 C   0  0  0  0  0  0  0  0  0  0  0  0
  152.2732  139.9374  156.8934 N   0  0  0  0  0  0  0  0  0  0  0  0
  152.2135  139.8787  155.5643 C   0  0  0  0  0  0  0  0  0  0  0  0
  153.0862  139.3217  154.9023 O   0  0  0  0  0  0  0  0  0  0  0  0
  151.1011  140.4960  155.1228 N   0  5  0  0  0  0  0  0  0  0  0  0
  150.3816  140.9854  156.1563 C   0  0  0  0  0  0  0  0  0  0  0  0
  149.3044  141.5805  156.1551 O   0  0  0  0  0  0  0  0  0  0  0  0
  149.4086  140.1677  158.7050 H   0  0  0  0  0  0  0  0  0  0  0  0
  150.9106  139.4193  159.2331 H   0  0  0  0  0  0  0  0  0  0  0  0
  150.0582  138.7939  157.8283 H   0  0  0  0  0  0  0  0  0  0  0  0
  152.6937  141.0406  159.7879 H   0  0  0  0  0  0  0  0  0  0  0  0
  153.2588  143.2089  160.8575 H   0  0  0  0  0  0  0  0  0  0  0  0
  152.4148  145.3290  159.8198 H   0  0  0  0  0  0  0  0  0  0  0  0
  150.5203  143.2850  156.7841 H   0  0  0  0  0  0  0  0  0  0  0  0
  153.0141  139.5445  157.4547 H   0  0  0  0  0  0  0  0  0  0  0  0
  1  2  1  0  0  0  0
  1 15  1  0  0  0  0
  1 16  1  0  0  0  0
  1 17  1  0  0  0  0
  2 13  1  0  0  0  0
  2  3  1  0  0  0  0
  2  9  1  0  0  0  0
  3  8  1  0  0  0  0
  3  4  2  0  0  0  0
  4  5  1  0  0  0  0
  4 18  1  0  0  0  0
  5  6  2  0  0  0  0
  5 19  1  0  0  0  0
  6  7  1  0  0  0  0
  6 20  1  0  0  0  0
  7  8  2  0  0  0  0
  8 21  1  0  0  0  0
  9 10  1  0  0  0  0
  9 22  1  0  0  0  0
 10 11  2  0  0  0  0
 10 12  1  0  0  0  0
 12 13  1  0  0  0  0
 13 14  2  0  0  0  0
M  CHG  1  12  -1
M  END
> <s_m_source_file>
AV-unprocessed.smi

> <i_m_source_file_index>
750

> <i_lp_mmshare_version>
43012

> <i_f3d_flags>
0

> <s_epik_input>
Tz1DMVtOSF1DKD1PKVtOSF1bQ0BAXTEoW0NIM10pYzJbY0hdW2NIXVtjSF1uW2NIXTI=

> <s_epik_cmdline>
J2VwaWtfcHl0aG9uJywgJy1waCcsICc3LjAnLCAnLXRuJywgJzgnLCAnLW1hJywgJzIwMCcsICctbWV0YWxfYmluZGluZycsICctaW1hZScsICc8aW5maWxlLm1hZT4nLCAnLW9tYWUnLCAnPG91dGZpbGUubWFlPic=

> <r_epik_Ionization_Penalty>
1.82311

> <r_epik_Ionization_Penalty_Charging>
1.82122

> <r_epik_Ionization_Penalty_Neutral>
0.00188516

> <r_epik_State_Penalty>
1.93645

> <r_epik_Charging_Adjusted_Penalty>
3.75767

> <i_epik_Tot_Q>
-1

> <i_epik_Tot_abs_Q>
1

> <r_epik_Metal_State_Penalty>
0.533589

> <b_epik_Metal_Only>
0

> <s_lp_Force_Field>
OPLS_2005

> <r_lp_Energy>
8.30846

> <b_lp_Chiralities_Consistent>
1

> <s_lp_Variant>
AV-unprocessed.smi:750-3

> <Gold.Version>
5.8.1

> <Gold.Id.Protein>
6NUR|6NUR_protein|mol2

> <Gold.PLP.Fitness>
36.8140

> <Gold.PLP.PLP>
-27.8629

> <Gold.PLP.part.hbond>
-2.4282

> <Gold.PLP.part.metal>
0.0000

> <Gold.PLP.part.buried>
-3.8139

> <Gold.PLP.part.nonpolar>
-22.1107

> <Gold.PLP.part.repulsive>
0.5454

> <Gold.PLP.ligand.clash>
0.0000

> <Gold.PLP.ligand.torsion>
0.0417

> <Gold.PLP.Chemscore.Hbond>
1.9840

> <Gold.PLP.Chemscore.CHOScore>
1.0000

> <Gold.PLP.Chemscore.Metal>
0.0000

> <Gold.Chemscore.Hbonds>
donor molecule, donor type, donor heavy atom, donor atom, acceptor molecule, acceptor atom, score
      P1  H  7989  7998       L1    12  0.93
      P1  H  7997  8009       L1    11  1.00
      L1  C     8    21       P1  8028  1.00

> <Gold.PLP.Chemscore.Internal.Correction>
0.0826

> <Gold.Rescore>
     Score         DG    S(hbond)    S(metal)    S(lipo)     H(rot)  DE(clash)    DE(int)     intcor
     12.06     -13.39       0.98        0.00      61.50       1.00       0.01       1.32       ----

> <Gold.Chemscore.Fitness>
12.0620

> <Gold.Chemscore.DG>
-13.3910

> <Gold.Chemscore.ZeroCoef>
-5.4800

> <Gold.Chemscore.Hbond>
0.9806

> <Gold.Chemscore.Metal>
0.0000

> <Gold.Chemscore.Lipo>
61.5024

> <Gold.Chemscore.Internal_Hbond>
0.0000

> <Gold.Chemscore.DEClash>
0.0057

> <Gold.Chemscore.DEInternal>
1.3233

> <Gold.Chemscore.Rot>
1.0000

> <Gold.Chemscore.Internal.Correction>
   9.000000E+99

> <Gold.Chemscore.Hbonds>
donor molecule, donor type, donor heavy atom, donor atom, acceptor molecule, acceptor atom, score
      P1  H  7989  7998       L1    12  0.20
      P1  H  7997  8009       L1    11  0.24

> <Gold.Chemscore.Hbond.Weighted>
-3.2752

> <Gold.Chemscore.Metal.Weighted>
-0.0000

> <Gold.Chemscore.Lipo.Weighted>
-7.1958

> <Gold.Chemscore.Internal_Hbond.Weighted>
0.0000

> <Gold.Chemscore.DEClash.Weighted>
0.0057

> <Gold.Chemscore.DEInternal.Weighted>
1.3233

> <Gold.Chemscore.Rot.Weighted>
2.5600

> <Gold.Chemscore.Internal.Correction.Weighted>
   9.000000E+99

> <Gold.Protein.RotatedTorsions>
[ 6907 6896 6895 6894 ] final  179.72 input  -60.11 | X-H torsion
[ 7974 7965 7964 7962 ] final  -27.69 input  175.53 | X-H torsion
[ 8008 7997 7996 7995 ] final -113.67 input   59.86 | X-H torsion
[ 10167 10162 10161 10158 ] final  111.96 input  -65.29 | X-H torsion
[ 10718 10713 10712 10709 ] final   68.57 input   66.30 | X-H torsion
[ 10763 10752 10751 10750 ] final -144.96 input  -60.55 | X-H torsion
[ 11005 11000 10999 10996 ] final  149.12 input  -57.11 | X-H torsion

> <Gold.Protein.ActiveResidues>
 VAL166  LYS551  ARG553  GLY616  TRP617  ASP618  TYR619  PRO620  LYS621  CYS622 
 ASP623  PHE694  ASN695  SER759  ASP760  ASP761  ALA762  ILE779  LEU786  VAL792 
 PHE793  MET794  SER795  GLU796  ALA797  LYS798  CYS799  TRP800  GLU811  SER814 

> <Gold.Protein.RotatedAtoms>
  151.6671  133.3315  159.3187 H   0  0  0  0  0  0  0  0  0  0  0  0  # atno 6907 bound_to 6896
  150.7885  134.6894  159.6497 H   0  0  0  0  0  0  0  0  0  0  0  0  # atno 6908 bound_to 6896
  152.3960  134.6368  160.0141 H   0  0  0  0  0  0  0  0  0  0  0  0  # atno 6909 bound_to 6896
  146.1340  140.5185  142.8681 H   0  0  0  0  0  0  0  0  0  0  0  0  # atno 7974 bound_to 7965
  155.0243  140.0393  157.2449 H   0  0  0  0  0  0  0  0  0  0  0  0  # atno 8008 bound_to 7997
  154.7351  140.2738  155.6399 H   0  0  0  0  0  0  0  0  0  0  0  0  # atno 8009 bound_to 7997
  156.2851  140.2676  156.2062 H   0  0  0  0  0  0  0  0  0  0  0  0  # atno 8010 bound_to 7997
  139.6572  144.7129  151.1935 H   0  0  0  0  0  0  0  0  0  0  0  0  # atno 10167 bound_to 10162
  157.6297  130.9380  150.0395 H   0  0  0  0  0  0  0  0  0  0  0  0  # atno 10718 bound_to 10713
  154.8405  135.3426  154.6428 H   0  0  0  0  0  0  0  0  0  0  0  0  # atno 10763 bound_to 10752
  153.7040  135.6968  153.5060 H   0  0  0  0  0  0  0  0  0  0  0  0  # atno 10764 bound_to 10752
  153.2502  135.4356  155.0743 H   0  0  0  0  0  0  0  0  0  0  0  0  # atno 10765 bound_to 10752
  140.1017  134.8979  157.1806 H   0  0  0  0  0  0  0  0  0  0  0  0  # atno 11005 bound_to 11000
  144.7720  140.5658  143.6663 LP  0  0  0  0  0  0  0  0  0  0  0  0  # atno 17320 bound_to 7965
  145.5197  139.1477  143.3559 LP  0  0  0  0  0  0  0  0  0  0  0  0  # atno 17321 bound_to 7965
  140.7564  143.6053  150.8658 LP  0  0  0  0  0  0  0  0  0  0  0  0  # atno 17342 bound_to 10162
  139.9707  143.6059  152.2974 LP  0  0  0  0  0  0  0  0  0  0  0  0  # atno 17343 bound_to 10162
  156.1491  130.3642  149.9465 LP  0  0  0  0  0  0  0  0  0  0  0  0  # atno 17370 bound_to 10713
  156.7488  130.9107  151.3636 LP  0  0  0  0  0  0  0  0  0  0  0  0  # atno 17371 bound_to 10713
  140.3210  134.2916  155.7246 LP  0  0  0  0  0  0  0  0  0  0  0  0  # atno 17394 bound_to 11000
  141.2107  133.7710  156.9911 LP  0  0  0  0  0  0  0  0  0  0  0  0  # atno 17395 bound_to 11000

$$$$
