AV-unprocessed.smi:320|AV-procd|sdf|2333|dock10
  -GOLD-   2262022243D 1   1.00000     0.00000
 Structure written by MMmdl.
 49 52  0  0  0  0  0  0  0  0  1 V2000
  150.6067  136.6511  157.3890 C   0  0  0  0  0  0  0  0  0  0  0  0
  149.4316  137.6064  157.6739 C   0  0  1  0  0  0  0  0  0  0  0  0
  149.1236  137.5275  159.1032 N   0  0  0  0  0  0  0  0  0  0  0  0
  148.7902  136.4199  159.7840 C   0  0  0  0  0  0  0  0  0  0  0  0
  148.7297  135.3002  159.2749 O   0  0  0  0  0  0  0  0  0  0  0  0
  148.4911  136.6147  161.2766 C   0  0  0  0  0  0  0  0  0  0  0  0
  147.2227  135.9931  161.6916 N   0  0  0  0  0  0  0  0  0  0  0  0
  147.2645  134.6374  162.0743 C   0  0  0  0  0  0  0  0  0  0  0  0
  146.1635  133.9753  162.4638 C   0  0  0  0  0  0  0  0  0  0  0  0
  144.9092  134.6899  162.4858 C   0  0  0  0  0  0  0  0  0  0  0  0
  144.8577  135.9861  162.1198 C   0  0  0  0  0  0  0  0  0  0  0  0
  146.0584  136.7138  161.6922 C   0  0  0  0  0  0  0  0  0  0  0  0
  146.0201  137.8979  161.3551 O   0  0  0  0  0  0  0  0  0  0  0  0
  149.6458  139.0874  157.2212 C   0  0  0  0  0  0  0  0  0  0  0  0
  150.8334  139.7660  157.9638 C   0  0  0  0  0  0  0  0  0  0  0  0
  151.0009  141.2294  157.4990 C   0  0  2  0  0  0  0  0  0  0  0  0
  149.7146  142.0230  157.8067 C   0  0  0  0  0  0  0  0  0  0  0  0
  148.5325  141.3833  157.0503 C   0  0  1  0  0  0  0  0  0  0  0  0
  148.8021  141.4190  155.5333 C   0  0  0  0  0  0  0  0  0  0  0  0
  150.0901  140.6274  155.2333 C   0  0  1  0  0  0  0  0  0  0  0  0
  151.2791  141.2645  155.9819 C   0  0  0  0  0  0  0  0  0  0  0  0
  149.9191  139.1634  155.6913 C   0  0  0  0  0  0  0  0  0  0  0  0
  148.3608  139.9209  157.5100 C   0  0  0  0  0  0  0  0  0  0  0  0
  150.8239  136.5729  156.3248 H   0  0  0  0  0  0  0  0  0  0  0  0
  150.3711  135.6428  157.7314 H   0  0  0  0  0  0  0  0  0  0  0  0
  151.5187  136.9592  157.8999 H   0  0  0  0  0  0  0  0  0  0  0  0
  148.5852  137.2196  157.1036 H   0  0  0  0  0  0  0  0  0  0  0  0
  149.1472  138.3984  159.6136 H   0  0  0  0  0  0  0  0  0  0  0  0
  149.3273  136.2050  161.8446 H   0  0  0  0  0  0  0  0  0  0  0  0
  148.4773  137.6801  161.5156 H   0  0  0  0  0  0  0  0  0  0  0  0
  148.2390  134.1735  162.0230 H   0  0  0  0  0  0  0  0  0  0  0  0
  146.2135  132.9347  162.7487 H   0  0  0  0  0  0  0  0  0  0  0  0
  144.0074  134.1821  162.7950 H   0  0  0  0  0  0  0  0  0  0  0  0
  143.9100  136.5036  162.1410 H   0  0  0  0  0  0  0  0  0  0  0  0
  150.6769  139.7448  159.0428 H   0  0  0  0  0  0  0  0  0  0  0  0
  151.7618  139.2256  157.7795 H   0  0  0  0  0  0  0  0  0  0  0  0
  151.8392  141.6820  158.0295 H   0  0  0  0  0  0  0  0  0  0  0  0
  149.5200  142.0264  158.8799 H   0  0  0  0  0  0  0  0  0  0  0  0
  149.8331  143.0660  157.5106 H   0  0  0  0  0  0  0  0  0  0  0  0
  147.6206  141.9400  157.2682 H   0  0  0  0  0  0  0  0  0  0  0  0
  147.9592  140.9916  154.9885 H   0  0  0  0  0  0  0  0  0  0  0  0
  148.9015  142.4497  155.1903 H   0  0  0  0  0  0  0  0  0  0  0  0
  150.2853  140.6498  154.1608 H   0  0  0  0  0  0  0  0  0  0  0  0
  151.4286  142.2921  155.6485 H   0  0  0  0  0  0  0  0  0  0  0  0
  152.2015  140.7288  155.7534 H   0  0  0  0  0  0  0  0  0  0  0  0
  150.8232  138.6144  155.4296 H   0  0  0  0  0  0  0  0  0  0  0  0
  149.1045  138.6940  155.1378 H   0  0  0  0  0  0  0  0  0  0  0  0
  147.5012  139.4744  157.0080 H   0  0  0  0  0  0  0  0  0  0  0  0
  148.1233  139.9172  158.5741 H   0  0  0  0  0  0  0  0  0  0  0  0
  1  2  1  0  0  0  0
  1 24  1  0  0  0  0
  1 25  1  0  0  0  0
  1 26  1  0  0  0  0
  2  3  1  0  0  0  0
  2 14  1  0  0  0  0
  2 27  1  0  0  0  0
  3  4  1  0  0  0  0
  3 28  1  0  0  0  0
  4  5  2  0  0  0  0
  4  6  1  0  0  0  0
  6  7  1  0  0  0  0
  6 29  1  0  0  0  0
  6 30  1  0  0  0  0
  7 12  1  0  0  0  0
  7  8  1  0  0  0  0
  8  9  2  0  0  0  0
  8 31  1  0  0  0  0
  9 10  1  0  0  0  0
  9 32  1  0  0  0  0
 10 11  2  0  0  0  0
 10 33  1  0  0  0  0
 11 12  1  0  0  0  0
 11 34  1  0  0  0  0
 12 13  2  0  0  0  0
 14 22  1  0  0  0  0
 14 23  1  0  0  0  0
 14 15  1  0  0  0  0
 15 16  1  0  0  0  0
 15 35  1  0  0  0  0
 15 36  1  0  0  0  0
 16 21  1  0  0  0  0
 16 17  1  0  0  0  0
 16 37  1  0  0  0  0
 17 18  1  0  0  0  0
 17 38  1  0  0  0  0
 17 39  1  0  0  0  0
 18 19  1  0  0  0  0
 18 23  1  0  0  0  0
 18 40  1  0  0  0  0
 19 20  1  0  0  0  0
 19 41  1  0  0  0  0
 19 42  1  0  0  0  0
 20 21  1  0  0  0  0
 20 22  1  0  0  0  0
 20 43  1  0  0  0  0
 21 44  1  0  0  0  0
 21 45  1  0  0  0  0
 22 46  1  0  0  0  0
 22 47  1  0  0  0  0
 23 48  1  0  0  0  0
 23 49  1  0  0  0  0
M  END
> <s_m_source_file>
AV-unprocessed.smi

> <i_m_source_file_index>
320

> <i_lp_mmshare_version>
43012

> <i_f3d_flags>
0

> <s_epik_input>
W0NIMl0xW0NAQEhdKFtDSDJdMilbQ0gyXVtDQEBIXShbQ0gyXTMpW0NIMl1bQ0BIXTFbQ0gyXUMyM1tDQEhdKFtDSDNdKVtOSF1DKD1PKVtDSDJdbjRbY0hdW2NIXVtjSF1bY0hdYzQ9Tw==

> <s_epik_cmdline>
J2VwaWtfcHl0aG9uJywgJy1waCcsICc3LjAnLCAnLXRuJywgJzgnLCAnLW1hJywgJzIwMCcsICctbWV0YWxfYmluZGluZycsICctaW1hZScsICc8aW5maWxlLm1hZT4nLCAnLW9tYWUnLCAnPG91dGZpbGUubWFlPic=

> <r_lp_tautomer_probability>
1

> <r_epik_Ionization_Penalty>
4.15949e-07

> <r_epik_Ionization_Penalty_Charging>
3.97363e-07

> <r_epik_Ionization_Penalty_Neutral>
1.85865e-08

> <r_epik_State_Penalty>
-0

> <r_epik_Charging_Adjusted_Penalty>
3.97363e-07

> <i_epik_Tot_Q>
0

> <i_epik_Tot_abs_Q>
0

> <r_epik_Metal_State_Penalty>
-0

> <b_epik_Metal_Only>
0

> <s_lp_Force_Field>
OPLS_2005

> <r_lp_Energy>
45.3355

> <b_lp_Chiralities_Consistent>
1

> <s_lp_Variant>
AV-unprocessed.smi:320-2

> <Gold.Version>
5.8.1

> <Gold.Id.Protein>
6NUR|6NUR_protein|mol2

> <Gold.PLP.Fitness>
40.4006

> <Gold.PLP.PLP>
-35.3493

> <Gold.PLP.part.hbond>
-2.0000

> <Gold.PLP.part.metal>
0.0000

> <Gold.PLP.part.buried>
-2.8646

> <Gold.PLP.part.nonpolar>
-29.3544

> <Gold.PLP.part.repulsive>
0.2238

> <Gold.PLP.ligand.clash>
0.0000

> <Gold.PLP.ligand.torsion>
0.4824

> <Gold.PLP.Chemscore.Hbond>
1.9920

> <Gold.PLP.Chemscore.CHOScore>
0.0000

> <Gold.PLP.Chemscore.Metal>
0.0000

> <Gold.Chemscore.Hbonds>
donor molecule, donor type, donor heavy atom, donor atom, acceptor molecule, acceptor atom, score
      P1  H  6896  6907       L1     5  0.80
      P1  H  6934  6947       L1    13  0.93

> <Gold.PLP.Chemscore.Internal.Correction>
0.0402

> <Gold.Rescore>
     Score         DG    S(hbond)    S(metal)    S(lipo)     H(rot)  DE(clash)    DE(int)     intcor
     15.62     -17.56       1.89        0.00      82.65       1.52       0.34       1.60       ----

> <Gold.Chemscore.Fitness>
15.6150

> <Gold.Chemscore.DG>
-17.5574

> <Gold.Chemscore.ZeroCoef>
-5.4800

> <Gold.Chemscore.Hbond>
1.8858

> <Gold.Chemscore.Metal>
0.0000

> <Gold.Chemscore.Lipo>
82.6526

> <Gold.Chemscore.Internal_Hbond>
0.0000

> <Gold.Chemscore.DEClash>
0.3398

> <Gold.Chemscore.DEInternal>
1.6026

> <Gold.Chemscore.Rot>
1.5202

> <Gold.Chemscore.Internal.Correction>
   9.000000E+99

> <Gold.Chemscore.Hbonds>
donor molecule, donor type, donor heavy atom, donor atom, acceptor molecule, acceptor atom, score
      P1  H  6896  6907       L1     5  0.51
      P1  H  6934  6947       L1    13  0.91

> <Gold.Chemscore.Hbond.Weighted>
-6.2987

> <Gold.Chemscore.Metal.Weighted>
-0.0000

> <Gold.Chemscore.Lipo.Weighted>
-9.6703

> <Gold.Chemscore.Internal_Hbond.Weighted>
0.0000

> <Gold.Chemscore.DEClash.Weighted>
0.3398

> <Gold.Chemscore.DEInternal.Weighted>
1.6026

> <Gold.Chemscore.Rot.Weighted>
3.8916

> <Gold.Chemscore.Internal.Correction.Weighted>
   9.000000E+99

> <Gold.Protein.RotatedTorsions>
[ 6907 6896 6895 6894 ] final  -82.27 input  -60.11 | X-H torsion
[ 7974 7965 7964 7962 ] final  -88.61 input  175.53 | X-H torsion
[ 8008 7997 7996 7995 ] final -110.31 input   59.86 | X-H torsion
[ 10167 10162 10161 10158 ] final  139.86 input  -65.29 | X-H torsion
[ 10718 10713 10712 10709 ] final  -67.98 input   66.30 | X-H torsion
[ 10763 10752 10751 10750 ] final  -50.92 input  -60.55 | X-H torsion
[ 11005 11000 10999 10996 ] final  131.70 input  -57.11 | X-H torsion

> <Gold.Protein.ActiveResidues>
 VAL166  LYS551  ARG553  GLY616  TRP617  ASP618  TYR619  PRO620  LYS621  CYS622 
 ASP623  PHE694  ASN695  SER759  ASP760  ASP761  ALA762  ILE779  LEU786  VAL792 
 PHE793  MET794  SER795  GLU796  ALA797  LYS798  CYS799  TRP800  GLU811  SER814 

> <Gold.Protein.RotatedAtoms>
  150.6899  134.3690  159.4983 H   0  0  0  0  0  0  0  0  0  0  0  0  # atno 6907 bound_to 6896
  152.1508  134.8987  160.0557 H   0  0  0  0  0  0  0  0  0  0  0  0  # atno 6908 bound_to 6896
  152.0085  133.3817  159.4247 H   0  0  0  0  0  0  0  0  0  0  0  0  # atno 6909 bound_to 6896
  145.4508  140.9560  143.2023 H   0  0  0  0  0  0  0  0  0  0  0  0  # atno 7974 bound_to 7965
  154.9726  140.0397  157.2241 H   0  0  0  0  0  0  0  0  0  0  0  0  # atno 8008 bound_to 7997
  154.7787  140.2815  155.6058 H   0  0  0  0  0  0  0  0  0  0  0  0  # atno 8009 bound_to 7997
  156.2933  140.2596  156.2607 H   0  0  0  0  0  0  0  0  0  0  0  0  # atno 8010 bound_to 7997
  139.5066  144.6269  151.5914 H   0  0  0  0  0  0  0  0  0  0  0  0  # atno 10167 bound_to 10162
  156.0529  130.4287  150.1934 H   0  0  0  0  0  0  0  0  0  0  0  0  # atno 10718 bound_to 10713
  154.1182  135.6538  153.4898 H   0  0  0  0  0  0  0  0  0  0  0  0  # atno 10763 bound_to 10752
  153.0234  135.5264  154.7123 H   0  0  0  0  0  0  0  0  0  0  0  0  # atno 10764 bound_to 10752
  154.6323  135.2977  155.0172 H   0  0  0  0  0  0  0  0  0  0  0  0  # atno 10765 bound_to 10752
  139.9746  134.9567  156.9476 H   0  0  0  0  0  0  0  0  0  0  0  0  # atno 11005 bound_to 11000
  144.8063  139.6046  143.7049 LP  0  0  0  0  0  0  0  0  0  0  0  0  # atno 17320 bound_to 7965
  146.2505  139.6190  142.9430 LP  0  0  0  0  0  0  0  0  0  0  0  0  # atno 17321 bound_to 7965
  140.5989  143.9645  150.6373 LP  0  0  0  0  0  0  0  0  0  0  0  0  # atno 17342 bound_to 10162
  140.2850  143.3363  152.1116 LP  0  0  0  0  0  0  0  0  0  0  0  0  # atno 17343 bound_to 10162
  157.0014  130.9923  151.3390 LP  0  0  0  0  0  0  0  0  0  0  0  0  # atno 17370 bound_to 10713
  157.5472  130.8158  149.8101 LP  0  0  0  0  0  0  0  0  0  0  0  0  # atno 17371 bound_to 10713
  140.5222  134.0896  155.7295 LP  0  0  0  0  0  0  0  0  0  0  0  0  # atno 17394 bound_to 11000
  141.1424  133.9115  157.2295 LP  0  0  0  0  0  0  0  0  0  0  0  0  # atno 17395 bound_to 11000

$$$$
