AV-unprocessed.smi:667|AV-procd|sdf|3255|dock9
  -GOLD-   22720 0203D 1   1.00000     0.00000
 Structure written by MMmdl.
 48 49  0  0  0  0  0  0  0  0  1 V2000
  147.7995  141.9707  154.1590 C   0  0  0  0  0  0  0  0  0  0  0  0
  147.5458  140.4941  154.0528 C   0  0  0  0  0  0  0  0  0  0  0  0
  146.8787  140.0365  153.0069 N   0  0  0  0  0  0  0  0  0  0  0  0
  146.8279  138.7018  153.1867 N   0  0  0  0  0  0  0  0  0  0  0  0
  146.1651  137.8749  152.1974 C   0  0  0  0  0  0  0  0  0  0  0  0
  147.4602  138.3149  154.3516 C   0  0  0  0  0  0  0  0  0  0  0  0
  147.5478  136.8826  154.7701 C   0  0  0  0  0  0  0  0  0  0  0  0
  147.9447  139.4517  154.9423 C   0  0  0  0  0  0  0  0  0  0  0  0
  148.7435  139.5771  156.2161 C   0  0  0  0  0  0  0  0  0  0  0  0
  149.9193  140.5173  155.9584 C   0  0  0  0  0  0  0  0  0  0  0  0
  150.4550  140.5441  154.8508 O   0  0  0  0  0  0  0  0  0  0  0  0
  150.2675  141.3199  156.9761 N   0  0  0  0  0  0  0  0  0  0  0  0
  151.1731  142.4608  156.8834 C   0  0  0  0  0  0  0  0  0  0  0  0
  151.2574  143.2508  158.2088 C   0  0  2  0  0  0  0  0  0  0  0  0
  151.3339  144.7589  158.0478 C   0  0  0  0  0  0  0  0  0  0  0  0
  151.8648  145.2168  159.4076 C   0  0  0  0  0  0  0  0  0  0  0  0
  152.5053  144.0864  159.9947 O   0  0  0  0  0  0  0  0  0  0  0  0
  152.5036  143.0022  159.0741 C   0  0  1  0  0  0  0  0  0  0  0  0
  152.5846  141.6392  159.7956 C   0  0  0  0  0  0  0  0  0  0  0  0
  153.8095  141.5048  160.7169 C   0  0  0  0  0  0  0  0  0  0  0  0
  152.5343  140.4852  158.7826 C   0  0  0  0  0  0  0  0  0  0  0  0
  148.5843  142.1922  154.8817 H   0  0  0  0  0  0  0  0  0  0  0  0
  146.8997  142.4986  154.4748 H   0  0  0  0  0  0  0  0  0  0  0  0
  148.1126  142.3868  153.2006 H   0  0  0  0  0  0  0  0  0  0  0  0
  145.3636  137.3078  152.6710 H   0  0  0  0  0  0  0  0  0  0  0  0
  146.8838  137.1812  151.7606 H   0  0  0  0  0  0  0  0  0  0  0  0
  145.7404  138.4894  151.4022 H   0  0  0  0  0  0  0  0  0  0  0  0
  148.1166  136.7728  155.6931 H   0  0  0  0  0  0  0  0  0  0  0  0
  148.0411  136.2843  154.0041 H   0  0  0  0  0  0  0  0  0  0  0  0
  146.5545  136.4666  154.9375 H   0  0  0  0  0  0  0  0  0  0  0  0
  148.1400  139.9638  157.0377 H   0  0  0  0  0  0  0  0  0  0  0  0
  149.1224  138.6103  156.5489 H   0  0  0  0  0  0  0  0  0  0  0  0
  149.7741  141.2065  157.8497 H   0  0  0  0  0  0  0  0  0  0  0  0
  152.1623  142.0887  156.6157 H   0  0  0  0  0  0  0  0  0  0  0  0
  150.8784  143.1326  156.0759 H   0  0  0  0  0  0  0  0  0  0  0  0
  150.3613  143.0352  158.7907 H   0  0  0  0  0  0  0  0  0  0  0  0
  152.0460  145.0300  157.2680 H   0  0  0  0  0  0  0  0  0  0  0  0
  150.3735  145.2097  157.7969 H   0  0  0  0  0  0  0  0  0  0  0  0
  152.5602  146.0510  159.3085 H   0  0  0  0  0  0  0  0  0  0  0  0
  151.0490  145.5311  160.0590 H   0  0  0  0  0  0  0  0  0  0  0  0
  153.3961  143.1274  158.4606 H   0  0  0  0  0  0  0  0  0  0  0  0
  151.6955  141.5451  160.4201 H   0  0  0  0  0  0  0  0  0  0  0  0
  154.7403  141.6304  160.1633 H   0  0  0  0  0  0  0  0  0  0  0  0
  153.8361  140.5209  161.1860 H   0  0  0  0  0  0  0  0  0  0  0  0
  153.7951  142.2394  161.5208 H   0  0  0  0  0  0  0  0  0  0  0  0
  153.3973  140.5031  158.1167 H   0  0  0  0  0  0  0  0  0  0  0  0
  151.6380  140.5433  158.1653 H   0  0  0  0  0  0  0  0  0  0  0  0
  152.5218  139.5185  159.2867 H   0  0  0  0  0  0  0  0  0  0  0  0
  1  2  1  0  0  0  0
  1 22  1  0  0  0  0
  1 23  1  0  0  0  0
  1 24  1  0  0  0  0
  2  8  1  0  0  0  0
  2  3  2  0  0  0  0
  3  4  1  0  0  0  0
  4  5  1  0  0  0  0
  4  6  1  0  0  0  0
  5 25  1  0  0  0  0
  5 26  1  0  0  0  0
  5 27  1  0  0  0  0
  6  7  1  0  0  0  0
  6  8  2  0  0  0  0
  7 28  1  0  0  0  0
  7 29  1  0  0  0  0
  7 30  1  0  0  0  0
  8  9  1  0  0  0  0
  9 10  1  0  0  0  0
  9 31  1  0  0  0  0
  9 32  1  0  0  0  0
 10 11  2  0  0  0  0
 10 12  1  0  0  0  0
 12 13  1  0  0  0  0
 12 33  1  0  0  0  0
 13 14  1  0  0  0  0
 13 34  1  0  0  0  0
 13 35  1  0  0  0  0
 14 18  1  0  0  0  0
 14 15  1  0  0  0  0
 14 36  1  0  0  0  0
 15 16  1  0  0  0  0
 15 37  1  0  0  0  0
 15 38  1  0  0  0  0
 16 17  1  0  0  0  0
 16 39  1  0  0  0  0
 16 40  1  0  0  0  0
 17 18  1  0  0  0  0
 18 19  1  0  0  0  0
 18 41  1  0  0  0  0
 19 20  1  0  0  0  0
 19 21  1  0  0  0  0
 19 42  1  0  0  0  0
 20 43  1  0  0  0  0
 20 44  1  0  0  0  0
 20 45  1  0  0  0  0
 21 46  1  0  0  0  0
 21 47  1  0  0  0  0
 21 48  1  0  0  0  0
M  END
> <s_m_source_file>
AV-unprocessed.smi

> <i_m_source_file_index>
667

> <i_lp_mmshare_version>
43012

> <i_f3d_flags>
0

> <s_epik_input>
W0NIM11jMW5uKFtDSDNdKWMoW0NIM10pYzFbQ0gyXUMoPU8pW05IXVtDSDJdW0NAQEhdMltDSDJdW0NIMl1PW0NASF0yW0NIXShbQ0gzXSlbQ0gzXQ==

> <s_epik_cmdline>
J2VwaWtfcHl0aG9uJywgJy1waCcsICc3LjAnLCAnLXRuJywgJzgnLCAnLW1hJywgJzIwMCcsICctbWV0YWxfYmluZGluZycsICctaW1hZScsICc8aW5maWxlLm1hZT4nLCAnLW9tYWUnLCAnPG91dGZpbGUubWFlPic=

> <r_lp_tautomer_probability>
1

> <r_epik_Ionization_Penalty>
0.00315488

> <r_epik_Ionization_Penalty_Charging>
0

> <r_epik_Ionization_Penalty_Neutral>
0.00315488

> <r_epik_State_Penalty>
0.00222269

> <r_epik_Charging_Adjusted_Penalty>
0.00222269

> <i_epik_Tot_Q>
0

> <i_epik_Tot_abs_Q>
0

> <r_epik_Metal_State_Penalty>
-0

> <b_epik_Metal_Only>
0

> <s_lp_Force_Field>
OPLS_2005

> <r_lp_Energy>
14.51

> <b_lp_Chiralities_Consistent>
1

> <s_lp_Variant>
AV-unprocessed.smi:667-1

> <Gold.Version>
5.8.1

> <Gold.Id.Protein>
6NUR|6NUR_protein|mol2

> <Gold.PLP.Fitness>
41.3982

> <Gold.PLP.PLP>
-40.6137

> <Gold.PLP.part.hbond>
-1.0000

> <Gold.PLP.part.metal>
0.0000

> <Gold.PLP.part.buried>
-6.0113

> <Gold.PLP.part.nonpolar>
-34.1397

> <Gold.PLP.part.repulsive>
0.3687

> <Gold.PLP.ligand.clash>
0.0000

> <Gold.PLP.ligand.torsion>
1.1210

> <Gold.PLP.Chemscore.Hbond>
0.9920

> <Gold.PLP.Chemscore.CHOScore>
0.0000

> <Gold.PLP.Chemscore.Metal>
0.0000

> <Gold.Chemscore.Hbonds>
donor molecule, donor type, donor heavy atom, donor atom, acceptor molecule, acceptor atom, score
      P1  H  7989  7998       L1    11  0.98

> <Gold.PLP.Chemscore.Internal.Correction>
0.0506

> <Gold.Rescore>
     Score         DG    S(hbond)    S(metal)    S(lipo)     H(rot)  DE(clash)    DE(int)     intcor
     16.86     -18.07       0.94        0.00     113.90       1.52       0.06       1.14       ----

> <Gold.Chemscore.Fitness>
16.8604

> <Gold.Chemscore.DG>
-18.0662

> <Gold.Chemscore.ZeroCoef>
-5.4800

> <Gold.Chemscore.Hbond>
0.9443

> <Gold.Chemscore.Metal>
0.0000

> <Gold.Chemscore.Lipo>
113.9034

> <Gold.Chemscore.Internal_Hbond>
0.0000

> <Gold.Chemscore.DEClash>
0.0611

> <Gold.Chemscore.DEInternal>
1.1446

> <Gold.Chemscore.Rot>
1.5213

> <Gold.Chemscore.Internal.Correction>
   9.000000E+99

> <Gold.Chemscore.Hbonds>
donor molecule, donor type, donor heavy atom, donor atom, acceptor molecule, acceptor atom, score
      P1  H  7989  7998       L1    11  0.93

> <Gold.Chemscore.Hbond.Weighted>
-3.1540

> <Gold.Chemscore.Metal.Weighted>
-0.0000

> <Gold.Chemscore.Lipo.Weighted>
-13.3267

> <Gold.Chemscore.Internal_Hbond.Weighted>
0.0000

> <Gold.Chemscore.DEClash.Weighted>
0.0611

> <Gold.Chemscore.DEInternal.Weighted>
1.1446

> <Gold.Chemscore.Rot.Weighted>
3.8945

> <Gold.Chemscore.Internal.Correction.Weighted>
   9.000000E+99

> <Gold.Protein.RotatedTorsions>
[ 6907 6896 6895 6894 ] final  107.64 input  -60.11 | X-H torsion
[ 7974 7965 7964 7962 ] final   57.11 input  175.53 | X-H torsion
[ 8008 7997 7996 7995 ] final -173.73 input   59.86 | X-H torsion
[ 10167 10162 10161 10158 ] final -176.11 input  -65.29 | X-H torsion
[ 10718 10713 10712 10709 ] final  -44.75 input   66.30 | X-H torsion
[ 10763 10752 10751 10750 ] final   72.87 input  -60.55 | X-H torsion
[ 11005 11000 10999 10996 ] final -179.15 input  -57.11 | X-H torsion

> <Gold.Protein.ActiveResidues>
 VAL166  LYS551  ARG553  GLY616  TRP617  ASP618  TYR619  PRO620  LYS621  CYS622 
 ASP623  PHE694  ASN695  SER759  ASP760  ASP761  ALA762  ILE779  LEU786  VAL792 
 PHE793  MET794  SER795  GLU796  ALA797  LYS798  CYS799  TRP800  GLU811  SER814 

> <Gold.Protein.RotatedAtoms>
  152.5146  133.9204  159.7531 H   0  0  0  0  0  0  0  0  0  0  0  0  # atno 6907 bound_to 6896
  150.9577  133.6470  159.2767 H   0  0  0  0  0  0  0  0  0  0  0  0  # atno 6908 bound_to 6896
  151.3726  135.0930  159.9523 H   0  0  0  0  0  0  0  0  0  0  0  0  # atno 6909 bound_to 6896
  145.9325  139.3820  143.0412 H   0  0  0  0  0  0  0  0  0  0  0  0  # atno 7974 bound_to 7965
  155.9612  140.1145  157.0894 H   0  0  0  0  0  0  0  0  0  0  0  0  # atno 8008 bound_to 7997
  154.4132  140.1181  156.5248 H   0  0  0  0  0  0  0  0  0  0  0  0  # atno 8009 bound_to 7997
  155.6718  140.3473  155.4823 H   0  0  0  0  0  0  0  0  0  0  0  0  # atno 8010 bound_to 7997
  139.5546  144.2022  152.1137 H   0  0  0  0  0  0  0  0  0  0  0  0  # atno 10167 bound_to 10162
  156.2353  130.4175  149.8825 H   0  0  0  0  0  0  0  0  0  0  0  0  # atno 10718 bound_to 10713
  153.0486  135.5084  154.7809 H   0  0  0  0  0  0  0  0  0  0  0  0  # atno 10763 bound_to 10752
  154.6689  135.2950  154.9770 H   0  0  0  0  0  0  0  0  0  0  0  0  # atno 10764 bound_to 10752
  154.0595  135.6693  153.4863 H   0  0  0  0  0  0  0  0  0  0  0  0  # atno 10765 bound_to 10752
  140.4218  134.6599  157.4668 H   0  0  0  0  0  0  0  0  0  0  0  0  # atno 11005 bound_to 11000
  145.8407  140.9582  143.0801 LP  0  0  0  0  0  0  0  0  0  0  0  0  # atno 17320 bound_to 7965
  144.6767  140.0280  143.7483 LP  0  0  0  0  0  0  0  0  0  0  0  0  # atno 17321 bound_to 7965
  140.1523  144.5103  150.6680 LP  0  0  0  0  0  0  0  0  0  0  0  0  # atno 17342 bound_to 10162
  140.6816  143.2329  151.5368 LP  0  0  0  0  0  0  0  0  0  0  0  0  # atno 17343 bound_to 10162
  156.6425  130.8711  151.3516 LP  0  0  0  0  0  0  0  0  0  0  0  0  # atno 17370 bound_to 10713
  157.7151  130.9488  150.1228 LP  0  0  0  0  0  0  0  0  0  0  0  0  # atno 17371 bound_to 10713
  140.0195  134.6569  155.9261 LP  0  0  0  0  0  0  0  0  0  0  0  0  # atno 17394 bound_to 11000
  141.1781  133.6542  156.4908 LP  0  0  0  0  0  0  0  0  0  0  0  0  # atno 17395 bound_to 11000

$$$$
