AV-unprocessed.smi:1325|AV-procd|sdf|5473|dock3
  -GOLD-   22720 5 43D 1   1.00000     0.00000
 Structure written by MMmdl.
 35 36  0  0  0  0  0  0  0  0  1 V2000
  147.6656  141.1934  153.8938 C   0  0  0  0  0  0  0  0  0  0  0  0
  149.0362  140.7733  154.3524 C   0  0  0  0  0  0  0  0  0  0  0  0
  149.6201  141.5387  155.2147 N   0  0  0  0  0  0  0  0  0  0  0  0
  150.8804  141.2480  155.6978 N   0  0  0  0  0  0  0  0  0  0  0  0
  151.3866  142.2276  156.6676 C   0  0  0  0  0  0  0  0  0  0  0  0
  150.4058  142.4598  157.8382 C   0  0  1  0  0  0  0  0  0  0  0  0
  149.8547  141.2154  158.2233 O   0  0  0  0  0  0  0  0  0  0  0  0
  151.1037  143.1391  159.0069 C   0  0  0  0  0  0  0  0  0  0  0  0
  150.7352  144.4434  159.4053 C   0  0  0  0  0  0  0  0  0  0  0  0
  151.3802  145.0627  160.4934 C   0  0  0  0  0  0  0  0  0  0  0  0
  152.3966  144.3817  161.1905 C   0  0  0  0  0  0  0  0  0  0  0  0
  152.7661  143.0802  160.7999 C   0  0  0  0  0  0  0  0  0  0  0  0
  152.1206  142.4602  159.7122 C   0  0  0  0  0  0  0  0  0  0  0  0
  151.6203  140.1621  155.3333 C   0  0  0  0  0  0  0  0  0  0  0  0
  152.7449  139.9436  155.7869 O   0  0  0  0  0  0  0  0  0  0  0  0
  150.9517  139.2966  154.3588 C   0  0  0  0  0  0  0  0  0  0  0  0
  151.6915  138.1463  153.9506 C   0  0  0  0  0  0  0  0  0  0  0  0
  152.2796  137.2115  153.6035 N   0  0  0  0  0  0  0  0  0  0  0  0
  149.7137  139.5712  153.8772 C   0  0  0  0  0  0  0  0  0  0  0  0
  148.9759  138.7063  152.8642 C   0  0  0  0  0  0  0  0  0  0  0  0
  147.6420  141.3245  152.8122 H   0  0  0  0  0  0  0  0  0  0  0  0
  147.3570  142.1377  154.3452 H   0  0  0  0  0  0  0  0  0  0  0  0
  146.9219  140.4424  154.1600 H   0  0  0  0  0  0  0  0  0  0  0  0
  152.3691  141.9361  157.0449 H   0  0  0  0  0  0  0  0  0  0  0  0
  151.5562  143.1701  156.1430 H   0  0  0  0  0  0  0  0  0  0  0  0
  149.5811  143.0970  157.5169 H   0  0  0  0  0  0  0  0  0  0  0  0
  150.5570  140.6572  158.5202 H   0  0  0  0  0  0  0  0  0  0  0  0
  149.9543  144.9721  158.8784 H   0  0  0  0  0  0  0  0  0  0  0  0
  151.0946  146.0601  160.7936 H   0  0  0  0  0  0  0  0  0  0  0  0
  152.8911  144.8567  162.0249 H   0  0  0  0  0  0  0  0  0  0  0  0
  153.5442  142.5565  161.3354 H   0  0  0  0  0  0  0  0  0  0  0  0
  152.4095  141.4603  159.4228 H   0  0  0  0  0  0  0  0  0  0  0  0
  149.5416  137.8160  152.5915 H   0  0  0  0  0  0  0  0  0  0  0  0
  148.7865  139.2677  151.9488 H   0  0  0  0  0  0  0  0  0  0  0  0
  148.0197  138.3735  153.2686 H   0  0  0  0  0  0  0  0  0  0  0  0
  1  2  1  0  0  0  0
  1 21  1  0  0  0  0
  1 22  1  0  0  0  0
  1 23  1  0  0  0  0
  2 19  1  0  0  0  0
  2  3  2  0  0  0  0
  3  4  1  0  0  0  0
  4  5  1  0  0  0  0
  4 14  1  0  0  0  0
  5  6  1  0  0  0  0
  5 24  1  0  0  0  0
  5 25  1  0  0  0  0
  6  7  1  0  0  0  0
  6  8  1  0  0  0  0
  6 26  1  0  0  0  0
  7 27  1  0  0  0  0
  8 13  1  0  0  0  0
  8  9  2  0  0  0  0
  9 10  1  0  0  0  0
  9 28  1  0  0  0  0
 10 11  2  0  0  0  0
 10 29  1  0  0  0  0
 11 12  1  0  0  0  0
 11 30  1  0  0  0  0
 12 13  2  0  0  0  0
 12 31  1  0  0  0  0
 13 32  1  0  0  0  0
 14 15  2  0  0  0  0
 14 16  1  0  0  0  0
 16 17  1  0  0  0  0
 16 19  2  0  0  0  0
 17 18  3  0  0  0  0
 19 20  1  0  0  0  0
 20 33  1  0  0  0  0
 20 34  1  0  0  0  0
 20 35  1  0  0  0  0
M  END
> <s_m_source_file>
AV-unprocessed.smi

> <i_m_source_file_index>
1325

> <i_lp_mmshare_version>
43012

> <i_f3d_flags>
0

> <s_epik_input>
TiNDYyhjMVtDSDNdKWMoPU8pbihuYzFbQ0gzXSlbQ0gyXVtDQEhdKFtPSF0pYzJbY0hdW2NIXVtjSF1bY0hdW2NIXTI=

> <s_epik_cmdline>
J2VwaWtfcHl0aG9uJywgJy1waCcsICc3LjAnLCAnLXRuJywgJzgnLCAnLW1hJywgJzIwMCcsICctbWV0YWxfYmluZGluZycsICctaW1hZScsICc8aW5maWxlLm1hZT4nLCAnLW9tYWUnLCAnPG91dGZpbGUubWFlPic=

> <r_lp_tautomer_probability>
1

> <r_epik_Ionization_Penalty>
7.1854e-08

> <r_epik_Ionization_Penalty_Charging>
1.40848e-10

> <r_epik_Ionization_Penalty_Neutral>
7.17131e-08

> <r_epik_State_Penalty>
-0

> <r_epik_Charging_Adjusted_Penalty>
1.40848e-10

> <i_epik_Tot_Q>
0

> <i_epik_Tot_abs_Q>
0

> <r_epik_Metal_State_Penalty>
-0

> <b_epik_Metal_Only>
0

> <s_lp_Force_Field>
OPLS_2005

> <r_lp_Energy>
28.0712

> <b_lp_Chiralities_Consistent>
1

> <s_lp_Variant>
AV-unprocessed.smi:1325-2

> <Gold.Version>
5.8.1

> <Gold.Id.Protein>
6NUR|6NUR_protein|mol2

> <Gold.PLP.Fitness>
44.8705

> <Gold.PLP.PLP>
-39.3613

> <Gold.PLP.part.hbond>
-2.0000

> <Gold.PLP.part.metal>
0.0000

> <Gold.PLP.part.buried>
1.4373

> <Gold.PLP.part.nonpolar>
-39.7250

> <Gold.PLP.part.repulsive>
0.6357

> <Gold.PLP.ligand.clash>
0.0000

> <Gold.PLP.ligand.torsion>
0.2480

> <Gold.PLP.Chemscore.Hbond>
2.0000

> <Gold.PLP.Chemscore.CHOScore>
0.0000

> <Gold.PLP.Chemscore.Metal>
0.0000

> <Gold.Chemscore.Hbonds>
donor molecule, donor type, donor heavy atom, donor atom, acceptor molecule, acceptor atom, score
      P1  H  7997  8008       L1    15  1.00
      P1  H 10752 10764       L1    18  0.93

> <Gold.PLP.Chemscore.Internal.Correction>
0.0052

> <Gold.Rescore>
     Score         DG    S(hbond)    S(metal)    S(lipo)     H(rot)  DE(clash)    DE(int)     intcor
     17.14     -20.21       1.87        0.00     114.27       1.90       2.71       0.36       ----

> <Gold.Chemscore.Fitness>
17.1423

> <Gold.Chemscore.DG>
-20.2069

> <Gold.Chemscore.ZeroCoef>
-5.4800

> <Gold.Chemscore.Hbond>
1.8663

> <Gold.Chemscore.Metal>
0.0000

> <Gold.Chemscore.Lipo>
114.2693

> <Gold.Chemscore.Internal_Hbond>
0.0000

> <Gold.Chemscore.DEClash>
2.7052

> <Gold.Chemscore.DEInternal>
0.3594

> <Gold.Chemscore.Rot>
1.9047

> <Gold.Chemscore.Internal.Correction>
   9.000000E+99

> <Gold.Chemscore.Hbonds>
donor molecule, donor type, donor heavy atom, donor atom, acceptor molecule, acceptor atom, score
      P1  H  7997  8008       L1    15  1.00
      P1  H 10752 10764       L1    18  0.90

> <Gold.Chemscore.Hbond.Weighted>
-6.2334

> <Gold.Chemscore.Metal.Weighted>
-0.0000

> <Gold.Chemscore.Lipo.Weighted>
-13.3695

> <Gold.Chemscore.Internal_Hbond.Weighted>
0.0000

> <Gold.Chemscore.DEClash.Weighted>
2.7052

> <Gold.Chemscore.DEInternal.Weighted>
0.3594

> <Gold.Chemscore.Rot.Weighted>
4.8760

> <Gold.Chemscore.Internal.Correction.Weighted>
   9.000000E+99

> <Gold.Protein.RotatedTorsions>
[ 6907 6896 6895 6894 ] final    4.10 input  -60.11 | X-H torsion
[ 7974 7965 7964 7962 ] final  176.62 input  175.53 | X-H torsion
[ 8008 7997 7996 7995 ] final  -38.73 input   59.86 | X-H torsion
[ 10167 10162 10161 10158 ] final  -10.84 input  -65.29 | X-H torsion
[ 10718 10713 10712 10709 ] final  149.74 input   66.30 | X-H torsion
[ 10763 10752 10751 10750 ] final  -88.23 input  -60.55 | X-H torsion
[ 11005 11000 10999 10996 ] final  -20.65 input  -57.11 | X-H torsion

> <Gold.Protein.ActiveResidues>
 VAL166  LYS551  ARG553  GLY616  TRP617  ASP618  TYR619  PRO620  LYS621  CYS622 
 ASP623  PHE694  ASN695  SER759  ASP760  ASP761  ALA762  ILE779  LEU786  VAL792 
 PHE793  MET794  SER795  GLU796  ALA797  LYS798  CYS799  TRP800  GLU811  SER814 

> <Gold.Protein.RotatedAtoms>
  151.6358  135.1018  160.0130 H   0  0  0  0  0  0  0  0  0  0  0  0  # atno 6907 bound_to 6896
  152.4081  133.6917  159.6383 H   0  0  0  0  0  0  0  0  0  0  0  0  # atno 6908 bound_to 6896
  150.7974  133.8589  159.3267 H   0  0  0  0  0  0  0  0  0  0  0  0  # atno 6909 bound_to 6896
  144.7181  140.0124  143.6440 H   0  0  0  0  0  0  0  0  0  0  0  0  # atno 7974 bound_to 7965
  154.4032  140.1570  156.2747 H   0  0  0  0  0  0  0  0  0  0  0  0  # atno 8008 bound_to 7997
  155.8922  140.3438  155.5942 H   0  0  0  0  0  0  0  0  0  0  0  0  # atno 8009 bound_to 7997
  155.7545  140.0809  157.2176 H   0  0  0  0  0  0  0  0  0  0  0  0  # atno 8010 bound_to 7997
  140.7124  143.5704  150.9099 H   0  0  0  0  0  0  0  0  0  0  0  0  # atno 10167 bound_to 10162
  157.2923  131.0855  151.1452 H   0  0  0  0  0  0  0  0  0  0  0  0  # atno 10718 bound_to 10713
  154.6423  135.5384  153.7804 H   0  0  0  0  0  0  0  0  0  0  0  0  # atno 10763 bound_to 10752
  153.0340  135.6462  154.1141 H   0  0  0  0  0  0  0  0  0  0  0  0  # atno 10764 bound_to 10752
  154.1064  135.2929  155.3220 H   0  0  0  0  0  0  0  0  0  0  0  0  # atno 10765 bound_to 10752
  140.8485  133.7874  155.9939 H   0  0  0  0  0  0  0  0  0  0  0  0  # atno 11005 bound_to 11000
  146.0248  139.3282  143.0791 LP  0  0  0  0  0  0  0  0  0  0  0  0  # atno 17320 bound_to 7965
  145.8525  140.9521  143.0742 LP  0  0  0  0  0  0  0  0  0  0  0  0  # atno 17321 bound_to 7965
  139.9430  143.6360  152.3049 LP  0  0  0  0  0  0  0  0  0  0  0  0  # atno 17342 bound_to 10162
  139.6851  144.7652  151.1538 LP  0  0  0  0  0  0  0  0  0  0  0  0  # atno 17343 bound_to 10162
  157.2844  130.6765  149.6082 LP  0  0  0  0  0  0  0  0  0  0  0  0  # atno 17370 bound_to 10713
  155.9667  130.4440  150.5443 LP  0  0  0  0  0  0  0  0  0  0  0  0  # atno 17371 bound_to 10713
  140.8817  134.2603  157.5141 LP  0  0  0  0  0  0  0  0  0  0  0  0  # atno 17394 bound_to 11000
  139.8704  134.9618  156.4408 LP  0  0  0  0  0  0  0  0  0  0  0  0  # atno 17395 bound_to 11000

$$$$
