AV-unprocessed.smi:388|AV-procd|sdf|2475|dock2
  -GOLD-   2262022413D 1   1.00000     0.00000
 Structure written by MMmdl.
 34 35  0  0  0  0  0  0  0  0  1 V2000
  146.4741  138.2996  151.3701 C   0  0  0  0  0  0  0  0  0  0  0  0
  147.3589  139.2245  152.0615 N   0  0  0  0  0  0  0  0  0  0  0  0
  147.2209  139.5822  153.3454 C   0  0  0  0  0  0  0  0  0  0  0  0
  146.2369  139.2871  154.0271 O   0  0  0  0  0  0  0  0  0  0  0  0
  148.2839  140.2935  153.7651 N   0  0  0  0  0  0  0  0  0  0  0  0
  148.4579  140.8859  154.9642 C   0  0  0  0  0  0  0  0  0  0  0  0
  147.6538  140.8524  155.8975 O   0  0  0  0  0  0  0  0  0  0  0  0
  149.7735  141.6547  155.1367 C   0  0  0  0  0  0  0  0  0  0  0  0
  150.6783  141.0266  156.0895 N   0  0  0  0  0  0  0  0  0  0  0  0
  151.3256  139.8246  155.7019 C   0  0  0  0  0  0  0  0  0  0  0  0
  151.1496  139.3174  154.5923 O   0  0  0  0  0  0  0  0  0  0  0  0
  152.2090  139.2575  156.7185 C   0  0  0  0  0  0  0  0  0  0  0  0
  152.8504  138.0235  156.4061 C   0  0  0  0  0  0  0  0  0  0  0  0
  153.3768  137.0299  156.1320 N   0  0  0  0  0  0  0  0  0  0  0  0
  152.4024  139.8800  157.9012 C   0  0  0  0  0  0  0  0  0  0  0  0
  151.8033  141.0810  158.2207 N   0  0  0  0  0  0  0  0  0  0  0  0
  151.9217  141.6502  159.5336 C   0  0  0  0  0  0  0  0  0  0  0  0
  152.4883  143.0452  159.7164 C   0  0  0  0  0  0  0  0  0  0  0  0
  153.3001  141.8417  160.1282 C   0  0  0  0  0  0  0  0  0  0  0  0
  150.8771  141.6731  157.3343 C   0  0  0  0  0  0  0  0  0  0  0  0
  150.2722  142.7051  157.6364 O   0  0  0  0  0  0  0  0  0  0  0  0
  146.8101  138.1618  150.3424 H   0  0  0  0  0  0  0  0  0  0  0  0
  145.4536  138.6839  151.3468 H   0  0  0  0  0  0  0  0  0  0  0  0
  146.4688  137.3253  151.8607 H   0  0  0  0  0  0  0  0  0  0  0  0
  148.1209  139.6184  151.5287 H   0  0  0  0  0  0  0  0  0  0  0  0
  149.0368  140.4063  153.1019 H   0  0  0  0  0  0  0  0  0  0  0  0
  150.2999  141.7504  154.1855 H   0  0  0  0  0  0  0  0  0  0  0  0
  149.5928  142.6816  155.4581 H   0  0  0  0  0  0  0  0  0  0  0  0
  153.0612  139.4251  158.6270 H   0  0  0  0  0  0  0  0  0  0  0  0
  151.1410  141.3618  160.2352 H   0  0  0  0  0  0  0  0  0  0  0  0
  152.8198  143.5881  158.8331 H   0  0  0  0  0  0  0  0  0  0  0  0
  152.0612  143.6591  160.5064 H   0  0  0  0  0  0  0  0  0  0  0  0
  153.4170  141.6554  161.1938 H   0  0  0  0  0  0  0  0  0  0  0  0
  154.1635  141.5911  159.5145 H   0  0  0  0  0  0  0  0  0  0  0  0
  1  2  1  0  0  0  0
  1 22  1  0  0  0  0
  1 23  1  0  0  0  0
  1 24  1  0  0  0  0
  2  3  1  0  0  0  0
  2 25  1  0  0  0  0
  3  4  2  0  0  0  0
  3  5  1  0  0  0  0
  5  6  1  0  0  0  0
  5 26  1  0  0  0  0
  6  7  2  0  0  0  0
  6  8  1  0  0  0  0
  8  9  1  0  0  0  0
  8 27  1  0  0  0  0
  8 28  1  0  0  0  0
  9 20  1  0  0  0  0
  9 10  1  0  0  0  0
 10 11  2  0  0  0  0
 10 12  1  0  0  0  0
 12 13  1  0  0  0  0
 12 15  2  0  0  0  0
 13 14  3  0  0  0  0
 15 16  1  0  0  0  0
 15 29  1  0  0  0  0
 16 17  1  0  0  0  0
 16 20  1  0  0  0  0
 17 19  1  0  0  0  0
 17 18  1  0  0  0  0
 17 30  1  0  0  0  0
 18 19  1  0  0  0  0
 18 31  1  0  0  0  0
 18 32  1  0  0  0  0
 19 33  1  0  0  0  0
 19 34  1  0  0  0  0
 20 21  2  0  0  0  0
M  END
> <s_m_source_file>
AV-unprocessed.smi

> <i_m_source_file_index>
388

> <i_lp_mmshare_version>
43012

> <i_f3d_flags>
0

> <s_epik_input>
W0NIM11bTkhdQyg9TylbTkhdQyg9TylbQ0gyXW4xYyg9TyljKEMjTilbY0hdbihjMT1PKVtDSF0yW0NIMl1bQ0gyXTI=

> <s_epik_cmdline>
J2VwaWtfcHl0aG9uJywgJy1waCcsICc3LjAnLCAnLXRuJywgJzgnLCAnLW1hJywgJzIwMCcsICctbWV0YWxfYmluZGluZycsICctaW1hZScsICc8aW5maWxlLm1hZT4nLCAnLW9tYWUnLCAnPG91dGZpbGUubWFlPic=

> <r_lp_tautomer_probability>
1

> <r_epik_Ionization_Penalty>
2.95777e-05

> <r_epik_Ionization_Penalty_Charging>
6.31124e-11

> <r_epik_Ionization_Penalty_Neutral>
2.95776e-05

> <r_epik_State_Penalty>
-0

> <r_epik_Charging_Adjusted_Penalty>
6.31124e-11

> <i_epik_Tot_Q>
0

> <i_epik_Tot_abs_Q>
0

> <r_epik_Metal_State_Penalty>
-0

> <b_epik_Metal_Only>
0

> <s_lp_Force_Field>
OPLS_2005

> <r_lp_Energy>
33.5858

> <b_lp_Chiralities_Consistent>
1

> <s_lp_Variant>
AV-unprocessed.smi:388-1

> <Gold.Version>
5.8.1

> <Gold.Id.Protein>
6NUR|6NUR_protein|mol2

> <Gold.PLP.Fitness>
47.3295

> <Gold.PLP.PLP>
-37.7021

> <Gold.PLP.part.hbond>
-3.8969

> <Gold.PLP.part.metal>
0.0000

> <Gold.PLP.part.buried>
-2.3084

> <Gold.PLP.part.nonpolar>
-33.2023

> <Gold.PLP.part.repulsive>
0.7442

> <Gold.PLP.ligand.clash>
0.0000

> <Gold.PLP.ligand.torsion>
0.3810

> <Gold.PLP.Chemscore.Hbond>
3.3897

> <Gold.PLP.Chemscore.CHOScore>
0.0000

> <Gold.PLP.Chemscore.Metal>
0.0000

> <Gold.Chemscore.Hbonds>
donor molecule, donor type, donor heavy atom, donor atom, acceptor molecule, acceptor atom, score
      L1  H     2    25       P1  7957  1.00
      L1  H     5    26       P1  7957  0.83
      P1  H  7989  7998       L1    11  0.95
      P1  H 10752 10764       L1    14  0.56

> <Gold.PLP.Chemscore.Internal.Correction>
0.2203

> <Gold.Rescore>
     Score         DG    S(hbond)    S(metal)    S(lipo)     H(rot)  DE(clash)    DE(int)     intcor
     14.57     -16.47       2.63        0.00      59.69       1.87       0.13       1.77       ----

> <Gold.Chemscore.Fitness>
14.5716

> <Gold.Chemscore.DG>
-16.4713

> <Gold.Chemscore.ZeroCoef>
-5.4800

> <Gold.Chemscore.Hbond>
2.6305

> <Gold.Chemscore.Metal>
0.0000

> <Gold.Chemscore.Lipo>
59.6926

> <Gold.Chemscore.Internal_Hbond>
0.0000

> <Gold.Chemscore.DEClash>
0.1252

> <Gold.Chemscore.DEInternal>
1.7746

> <Gold.Chemscore.Rot>
1.8667

> <Gold.Chemscore.Internal.Correction>
   9.000000E+99

> <Gold.Chemscore.Hbonds>
donor molecule, donor type, donor heavy atom, donor atom, acceptor molecule, acceptor atom, score
      L1  H     2    25       P1  7957  0.95
      L1  H     5    26       P1  7957  0.78
      P1  H  7989  7998       L1    11  0.21
      P1  H 10752 10764       L1    14  0.56

> <Gold.Chemscore.Hbond.Weighted>
-8.7860

> <Gold.Chemscore.Metal.Weighted>
-0.0000

> <Gold.Chemscore.Lipo.Weighted>
-6.9840

> <Gold.Chemscore.Internal_Hbond.Weighted>
0.0000

> <Gold.Chemscore.DEClash.Weighted>
0.1252

> <Gold.Chemscore.DEInternal.Weighted>
1.7746

> <Gold.Chemscore.Rot.Weighted>
4.7787

> <Gold.Chemscore.Internal.Correction.Weighted>
   9.000000E+99

> <Gold.Protein.RotatedTorsions>
[ 6907 6896 6895 6894 ] final  -15.63 input  -60.11 | X-H torsion
[ 7974 7965 7964 7962 ] final  172.13 input  175.53 | X-H torsion
[ 8008 7997 7996 7995 ] final  162.45 input   59.86 | X-H torsion
[ 10167 10162 10161 10158 ] final  166.53 input  -65.29 | X-H torsion
[ 10718 10713 10712 10709 ] final  137.19 input   66.30 | X-H torsion
[ 10763 10752 10751 10750 ] final   -2.91 input  -60.55 | X-H torsion
[ 11005 11000 10999 10996 ] final  -77.77 input  -57.11 | X-H torsion

> <Gold.Protein.ActiveResidues>
 VAL166  LYS551  ARG553  GLY616  TRP617  ASP618  TYR619  PRO620  LYS621  CYS622 
 ASP623  PHE694  ASN695  SER759  ASP760  ASP761  ALA762  ILE779  LEU786  VAL792 
 PHE793  MET794  SER795  GLU796  ALA797  LYS798  CYS799  TRP800  GLU811  SER814 

> <Gold.Protein.RotatedAtoms>
  151.3209  135.0818  159.9305 H   0  0  0  0  0  0  0  0  0  0  0  0  # atno 6907 bound_to 6896
  152.5257  133.9639  159.7740 H   0  0  0  0  0  0  0  0  0  0  0  0  # atno 6908 bound_to 6896
  150.9960  133.6050  159.2731 H   0  0  0  0  0  0  0  0  0  0  0  0  # atno 6909 bound_to 6896
  144.7276  139.9453  143.6430 H   0  0  0  0  0  0  0  0  0  0  0  0  # atno 7974 bound_to 7965
  156.2030  140.1750  156.7859 H   0  0  0  0  0  0  0  0  0  0  0  0  # atno 8008 bound_to 7997
  154.5617  140.0698  156.8860 H   0  0  0  0  0  0  0  0  0  0  0  0  # atno 8009 bound_to 7997
  155.2836  140.3350  155.4259 H   0  0  0  0  0  0  0  0  0  0  0  0  # atno 8010 bound_to 7997
  139.4926  144.4018  151.9401 H   0  0  0  0  0  0  0  0  0  0  0  0  # atno 10167 bound_to 10162
  157.4387  131.1055  151.0168 H   0  0  0  0  0  0  0  0  0  0  0  0  # atno 10718 bound_to 10713
  153.3643  135.6991  153.6687 H   0  0  0  0  0  0  0  0  0  0  0  0  # atno 10763 bound_to 10752
  153.5363  135.3582  155.2699 H   0  0  0  0  0  0  0  0  0  0  0  0  # atno 10764 bound_to 10752
  154.8672  135.4193  154.2907 H   0  0  0  0  0  0  0  0  0  0  0  0  # atno 10765 bound_to 10752
  141.1662  133.7036  156.7871 H   0  0  0  0  0  0  0  0  0  0  0  0  # atno 11005 bound_to 11000
  146.0753  139.3741  143.0498 LP  0  0  0  0  0  0  0  0  0  0  0  0  # atno 17320 bound_to 7965
  145.7913  140.9813  143.1047 LP  0  0  0  0  0  0  0  0  0  0  0  0  # atno 17321 bound_to 7965
  140.3457  144.3150  150.5958 LP  0  0  0  0  0  0  0  0  0  0  0  0  # atno 17342 bound_to 10162
  140.5528  143.2203  151.7898 LP  0  0  0  0  0  0  0  0  0  0  0  0  # atno 17343 bound_to 10162
  157.1038  130.5993  149.5466 LP  0  0  0  0  0  0  0  0  0  0  0  0  # atno 17370 bound_to 10713
  155.9940  130.5003  150.7404 LP  0  0  0  0  0  0  0  0  0  0  0  0  # atno 17371 bound_to 10713
  140.2352  134.8655  157.3517 LP  0  0  0  0  0  0  0  0  0  0  0  0  # atno 17394 bound_to 11000
  140.1851  134.4441  155.7749 LP  0  0  0  0  0  0  0  0  0  0  0  0  # atno 17395 bound_to 11000

$$$$
