AV-unprocessed.smi:2642|AV-procd|sdf|10274|dock2
  -GOLD-   2272014283D 1   1.00000     0.00000
 Structure written by MMmdl.
 32 33  0  0  0  0  0  0  0  0  1 V2000
  144.4598  136.6817  151.9985 O   0  0  0  0  0  0  0  0  0  0  0  0
  145.6533  136.3844  151.9522 C   0  0  0  0  0  0  0  0  0  0  0  0
  146.6363  137.2175  152.3223 N   0  0  0  0  0  0  0  0  0  0  0  0
  146.4346  138.5720  152.8229 C   0  0  0  0  0  0  0  0  0  0  0  0
  147.6836  139.0893  153.5595 C   0  0  0  0  0  0  0  0  0  0  0  0
  147.4147  140.3616  154.2336 N   0  0  0  0  0  0  0  0  0  0  0  0
  146.2435  140.6810  154.7997 C   0  0  0  0  0  0  0  0  0  0  0  0
  145.2212  139.9978  154.8448 O   0  0  0  0  0  0  0  0  0  0  0  0
  146.3663  142.0608  155.4083 C   0  0  0  0  0  0  0  0  0  0  0  0
  147.7427  142.3472  155.0649 N   0  0  0  0  0  0  0  0  0  0  0  0
  148.3204  141.3442  154.3910 C   0  0  0  0  0  0  0  0  0  0  0  0
  149.4846  141.3358  153.9938 O   0  0  0  0  0  0  0  0  0  0  0  0
  146.1460  135.2141  151.5116 N   0  0  0  0  0  0  0  0  0  0  0  0
  145.4344  134.0706  151.0576 C   0  0  0  0  0  0  0  0  0  0  0  0
  146.0360  132.9583  150.4200 C   0  0  0  0  0  0  0  0  0  0  0  0
  145.2179  131.8938  149.9951 C   0  0  0  0  0  0  0  0  0  0  0  0
  143.8300  131.9816  150.2167 C   0  0  0  0  0  0  0  0  0  0  0  0
  143.2416  133.0405  150.8118 N   0  0  0  0  0  0  0  0  0  0  0  0
  144.0322  134.0579  151.2154 C   0  0  0  0  0  0  0  0  0  0  0  0
  147.5902  136.8956  152.2480 H   0  0  0  0  0  0  0  0  0  0  0  0
  146.1709  139.2375  151.9989 H   0  0  0  0  0  0  0  0  0  0  0  0
  145.5787  138.5631  153.4985 H   0  0  0  0  0  0  0  0  0  0  0  0
  148.0246  138.3475  154.2838 H   0  0  0  0  0  0  0  0  0  0  0  0
  148.5099  139.2154  152.8576 H   0  0  0  0  0  0  0  0  0  0  0  0
  145.6791  142.7692  154.9448 H   0  0  0  0  0  0  0  0  0  0  0  0
  146.2161  142.0401  156.4881 H   0  0  0  0  0  0  0  0  0  0  0  0
  148.2050  143.2091  155.3162 H   0  0  0  0  0  0  0  0  0  0  0  0
  147.1516  135.1513  151.4469 H   0  0  0  0  0  0  0  0  0  0  0  0
  147.0976  132.9067  150.2353 H   0  0  0  0  0  0  0  0  0  0  0  0
  145.6450  131.0310  149.5059 H   0  0  0  0  0  0  0  0  0  0  0  0
  143.1743  131.1832  149.9019 H   0  0  0  0  0  0  0  0  0  0  0  0
  143.5261  134.8893  151.6842 H   0  0  0  0  0  0  0  0  0  0  0  0
  1  2  2  0  0  0  0
  2  3  1  0  0  0  0
  2 13  1  0  0  0  0
  3  4  1  0  0  0  0
  3 20  1  0  0  0  0
  4  5  1  0  0  0  0
  4 21  1  0  0  0  0
  4 22  1  0  0  0  0
  5  6  1  0  0  0  0
  5 23  1  0  0  0  0
  5 24  1  0  0  0  0
  6 11  1  0  0  0  0
  6  7  1  0  0  0  0
  7  8  2  0  0  0  0
  7  9  1  0  0  0  0
  9 10  1  0  0  0  0
  9 25  1  0  0  0  0
  9 26  1  0  0  0  0
 10 11  1  0  0  0  0
 10 27  1  0  0  0  0
 11 12  2  0  0  0  0
 13 14  1  0  0  0  0
 13 28  1  0  0  0  0
 14 19  1  0  0  0  0
 14 15  2  0  0  0  0
 15 16  1  0  0  0  0
 15 29  1  0  0  0  0
 16 17  2  0  0  0  0
 16 30  1  0  0  0  0
 17 18  1  0  0  0  0
 17 31  1  0  0  0  0
 18 19  2  0  0  0  0
 19 32  1  0  0  0  0
M  END
> <s_m_source_file>
AV-unprocessed.smi

> <i_m_source_file_index>
2642

> <i_lp_mmshare_version>
43012

> <i_f3d_flags>
0

> <s_epik_input>
W2NIXTFuW2NIXVtjSF1bY0hdYzFbTkhdQyg9TylbTkhdW0NIMl1bQ0gyXU4yQyg9TylbQ0gyXVtOSF1DMj1P

> <s_epik_cmdline>
J2VwaWtfcHl0aG9uJywgJy1waCcsICc3LjAnLCAnLXRuJywgJzgnLCAnLW1hJywgJzIwMCcsICctbWV0YWxfYmluZGluZycsICctaW1hZScsICc8aW5maWxlLm1hZT4nLCAnLW9tYWUnLCAnPG91dGZpbGUubWFlPic=

> <r_lp_tautomer_probability>
1

> <r_epik_Ionization_Penalty>
0.00464634

> <r_epik_Ionization_Penalty_Charging>
0

> <r_epik_Ionization_Penalty_Neutral>
0.00464634

> <r_epik_State_Penalty>
0.00329662

> <r_epik_Charging_Adjusted_Penalty>
0.00329662

> <i_epik_Tot_Q>
0

> <i_epik_Tot_abs_Q>
0

> <r_epik_Metal_State_Penalty>
0.029405

> <b_epik_Metal_Only>
0

> <s_lp_Force_Field>
OPLS_2005

> <r_lp_Energy>
19.2502

> <b_lp_Chiralities_Consistent>
1

> <s_lp_Variant>
AV-unprocessed.smi:2642-1

> <Gold.Version>
5.8.1

> <Gold.Id.Protein>
6NUR|6NUR_protein|mol2

> <Gold.PLP.Fitness>
43.8222

> <Gold.PLP.PLP>
-30.9816

> <Gold.PLP.part.hbond>
-5.0000

> <Gold.PLP.part.metal>
0.0000

> <Gold.PLP.part.buried>
-6.1829

> <Gold.PLP.part.nonpolar>
-22.8270

> <Gold.PLP.part.repulsive>
2.4204

> <Gold.PLP.ligand.clash>
0.0000

> <Gold.PLP.ligand.torsion>
0.5160

> <Gold.PLP.Chemscore.Hbond>
3.6443

> <Gold.PLP.Chemscore.CHOScore>
0.9780

> <Gold.PLP.Chemscore.Metal>
0.0000

> <Gold.Chemscore.Hbonds>
donor molecule, donor type, donor heavy atom, donor atom, acceptor molecule, acceptor atom, score
      L1  H     3    20       P1  7948  1.00
      L1  H    10    27       P1  8028  1.00
      L1  H    13    28       P1  7948  0.74
      P1  H  7989  7998       L1    12  0.15
      P1  H  8011  8017       L1    12  0.75
      L1  C    17    31       P1 10952  1.00

> <Gold.PLP.Chemscore.Internal.Correction>
0.0056

> <Gold.Rescore>
     Score         DG    S(hbond)    S(metal)    S(lipo)     H(rot)  DE(clash)    DE(int)     intcor
     14.94     -18.51       3.43        0.00      55.78       1.93       0.19       3.38       ----

> <Gold.Chemscore.Fitness>
14.9406

> <Gold.Chemscore.DG>
-18.5121

> <Gold.Chemscore.ZeroCoef>
-5.4800

> <Gold.Chemscore.Hbond>
3.4296

> <Gold.Chemscore.Metal>
0.0000

> <Gold.Chemscore.Lipo>
55.7827

> <Gold.Chemscore.Internal_Hbond>
0.0000

> <Gold.Chemscore.DEClash>
0.1913

> <Gold.Chemscore.DEInternal>
3.3802

> <Gold.Chemscore.Rot>
1.9334

> <Gold.Chemscore.Internal.Correction>
   9.000000E+99

> <Gold.Chemscore.Hbonds>
donor molecule, donor type, donor heavy atom, donor atom, acceptor molecule, acceptor atom, score
      L1  H     3    20       P1  7948  0.95
      L1  H    10    27       P1  8028  0.94
      L1  H    13    28       P1  7948  0.62
      P1  H  7989  7998       L1    12  0.16
      P1  H  8011  8017       L1    12  0.64

> <Gold.Chemscore.Hbond.Weighted>
-11.4549

> <Gold.Chemscore.Metal.Weighted>
-0.0000

> <Gold.Chemscore.Lipo.Weighted>
-6.5266

> <Gold.Chemscore.Internal_Hbond.Weighted>
0.0000

> <Gold.Chemscore.DEClash.Weighted>
0.1913

> <Gold.Chemscore.DEInternal.Weighted>
3.3802

> <Gold.Chemscore.Rot.Weighted>
4.9494

> <Gold.Chemscore.Internal.Correction.Weighted>
   9.000000E+99

> <Gold.Protein.RotatedTorsions>
[ 6907 6896 6895 6894 ] final   38.42 input  -60.11 | X-H torsion
[ 7974 7965 7964 7962 ] final  -53.16 input  175.53 | X-H torsion
[ 8008 7997 7996 7995 ] final  132.52 input   59.86 | X-H torsion
[ 10167 10162 10161 10158 ] final  -76.22 input  -65.29 | X-H torsion
[ 10718 10713 10712 10709 ] final  -59.50 input   66.30 | X-H torsion
[ 10763 10752 10751 10750 ] final  -11.63 input  -60.55 | X-H torsion
[ 11005 11000 10999 10996 ] final  122.70 input  -57.11 | X-H torsion

> <Gold.Protein.ActiveResidues>
 VAL166  LYS551  ARG553  GLY616  TRP617  ASP618  TYR619  PRO620  LYS621  CYS622 
 ASP623  PHE694  ASN695  SER759  ASP760  ASP761  ALA762  ILE779  LEU786  VAL792 
 PHE793  MET794  SER795  GLU796  ALA797  LYS798  CYS799  TRP800  GLU811  SER814 

> <Gold.Protein.RotatedAtoms>
  152.1562  134.8949  160.0544 H   0  0  0  0  0  0  0  0  0  0  0  0  # atno 6907 bound_to 6896
  151.9962  133.3804  159.4172 H   0  0  0  0  0  0  0  0  0  0  0  0  # atno 6908 bound_to 6896
  150.6882  134.3806  159.5076 H   0  0  0  0  0  0  0  0  0  0  0  0  # atno 6909 bound_to 6896
  145.9000  140.8002  142.9748 H   0  0  0  0  0  0  0  0  0  0  0  0  # atno 7974 bound_to 7965
  156.2983  140.2544  156.3103 H   0  0  0  0  0  0  0  0  0  0  0  0  # atno 8008 bound_to 7997
  154.9332  140.0398  157.2078 H   0  0  0  0  0  0  0  0  0  0  0  0  # atno 8009 bound_to 7997
  154.8198  140.2858  155.5799 H   0  0  0  0  0  0  0  0  0  0  0  0  # atno 8010 bound_to 7997
  140.4876  143.2387  151.7959 H   0  0  0  0  0  0  0  0  0  0  0  0  # atno 10167 bound_to 10162
  156.1057  130.4181  150.0724 H   0  0  0  0  0  0  0  0  0  0  0  0  # atno 10718 bound_to 10713
  153.4865  135.7017  153.5908 H   0  0  0  0  0  0  0  0  0  0  0  0  # atno 10763 bound_to 10752
  153.4099  135.3851  155.2043 H   0  0  0  0  0  0  0  0  0  0  0  0  # atno 10764 bound_to 10752
  154.8719  135.3902  154.4321 H   0  0  0  0  0  0  0  0  0  0  0  0  # atno 10765 bound_to 10752
  139.9280  134.9641  156.8149 H   0  0  0  0  0  0  0  0  0  0  0  0  # atno 11005 bound_to 11000
  144.6735  140.1661  143.7418 LP  0  0  0  0  0  0  0  0  0  0  0  0  # atno 17320 bound_to 7965
  145.8803  139.2319  143.1609 LP  0  0  0  0  0  0  0  0  0  0  0  0  # atno 17321 bound_to 7965
  139.4845  144.4691  151.9447 LP  0  0  0  0  0  0  0  0  0  0  0  0  # atno 17342 bound_to 10162
  140.3778  144.2775  150.5912 LP  0  0  0  0  0  0  0  0  0  0  0  0  # atno 17343 bound_to 10162
  156.8700  130.9521  151.3610 LP  0  0  0  0  0  0  0  0  0  0  0  0  # atno 17370 bound_to 10713
  157.6233  130.8672  149.9146 LP  0  0  0  0  0  0  0  0  0  0  0  0  # atno 17371 bound_to 10713
  140.6282  133.9931  155.7649 LP  0  0  0  0  0  0  0  0  0  0  0  0  # atno 17394 bound_to 11000
  141.0850  134.0004  157.3327 LP  0  0  0  0  0  0  0  0  0  0  0  0  # atno 17395 bound_to 11000

$$$$
