AV-unprocessed.smi:2772|AV-procd|sdf|10674|dock6
  -GOLD-   2272015123D 1   1.00000     0.00000
 Structure written by MMmdl.
 56 58  0  0  0  0  0  0  0  0  4 V2000
  145.7585  132.3598  150.5199 C   0  0  0  0  0  0  0  0  0  0  0  0
  145.0719  133.6189  151.0054 C   0  0  0  0  0  0  0  0  0  0  0  0
  144.2626  133.6427  152.1604 C   0  0  0  0  0  0  0  0  0  0  0  0
  143.6521  134.8536  152.5481 C   0  0  0  0  0  0  0  0  0  0  0  0
  143.8505  136.0189  151.7748 C   0  0  0  0  0  0  0  0  0  0  0  0
  143.2204  137.2180  152.2097 N   0  0  0  0  0  0  0  0  0  0  0  0
  142.2195  137.3639  153.0962 C   0  0  0  0  0  0  0  0  0  0  0  0
  141.6804  136.4459  153.7134 O   0  0  0  0  0  0  0  0  0  0  0  0
  141.8826  138.6543  153.2433 N   0  0  0  0  0  0  0  0  0  0  0  0
  140.8429  139.1655  154.1349 C   0  0  2  0  0  0  0  0  0  0  0  0
  139.4575  138.7507  153.6313 C   0  0  0  0  0  0  0  0  0  0  0  0
  138.3453  139.3322  154.5205 C   0  0  0  0  0  0  0  0  0  0  0  0
  138.4148  140.8211  154.6284 N   0  3  1  0  0  0  0  0  0  0  0  0
  137.3008  141.4114  155.4504 C   0  0  2  0  0  0  0  0  0  0  0  0
  135.8927  140.8768  155.0844 C   0  0  0  0  0  0  0  0  0  0  0  0
  135.4451  141.3437  153.6865 C   0  0  0  0  0  0  0  0  0  0  0  0
  135.4426  142.8254  153.5953 N   0  3  2  0  0  0  0  0  0  0  0  0
  134.9431  143.3105  152.2904 C   0  0  0  0  0  0  0  0  0  0  0  0
  136.7563  143.4157  153.9550 C   0  0  0  0  0  0  0  0  0  0  0  0
  137.2034  142.9547  155.3548 C   0  0  0  0  0  0  0  0  0  0  0  0
  139.7711  141.2544  155.0827 C   0  0  0  0  0  0  0  0  0  0  0  0
  140.8987  140.6944  154.1992 C   0  0  0  0  0  0  0  0  0  0  0  0
  144.6865  135.9336  150.6331 C   0  0  0  0  0  0  0  0  0  0  0  0
  145.2534  134.7546  150.2965 N   0  3  0  0  0  0  0  0  0  0  0  0
  145.5189  131.5093  151.1588 H   0  0  0  0  0  0  0  0  0  0  0  0
  146.8408  132.4927  150.5205 H   0  0  0  0  0  0  0  0  0  0  0  0
  145.4413  132.1219  149.5040 H   0  0  0  0  0  0  0  0  0  0  0  0
  144.1088  132.7465  152.7440 H   0  0  0  0  0  0  0  0  0  0  0  0
  143.0306  134.8815  153.4315 H   0  0  0  0  0  0  0  0  0  0  0  0
  143.6102  138.0714  151.8364 H   0  0  0  0  0  0  0  0  0  0  0  0
  142.3851  139.3376  152.6955 H   0  0  0  0  0  0  0  0  0  0  0  0
  140.9748  138.7714  155.1444 H   0  0  0  0  0  0  0  0  0  0  0  0
  139.3162  139.0891  152.6036 H   0  0  0  0  0  0  0  0  0  0  0  0
  139.3787  137.6628  153.6117 H   0  0  0  0  0  0  0  0  0  0  0  0
  137.4042  139.0165  154.0766 H   0  0  0  0  0  0  0  0  0  0  0  0
  138.3940  138.8920  155.5177 H   0  0  0  0  0  0  0  0  0  0  0  0
  137.5011  141.1476  156.4903 H   0  0  0  0  0  0  0  0  0  0  0  0
  135.8151  139.7954  155.1769 H   0  0  0  0  0  0  0  0  0  0  0  0
  135.1770  141.2553  155.8159 H   0  0  0  0  0  0  0  0  0  0  0  0
  136.0987  140.9265  152.9189 H   0  0  0  0  0  0  0  0  0  0  0  0
  134.4407  140.9696  153.4836 H   0  0  0  0  0  0  0  0  0  0  0  0
  135.5940  142.9887  151.4765 H   0  0  0  0  0  0  0  0  0  0  0  0
  134.8924  144.3998  152.2776 H   0  0  0  0  0  0  0  0  0  0  0  0
  133.9395  142.9297  152.0971 H   0  0  0  0  0  0  0  0  0  0  0  0
  137.5026  143.1418  153.2076 H   0  0  0  0  0  0  0  0  0  0  0  0
  136.6780  144.5036  153.9392 H   0  0  0  0  0  0  0  0  0  0  0  0
  136.4665  143.3025  156.0807 H   0  0  0  0  0  0  0  0  0  0  0  0
  138.1223  143.4556  155.6520 H   0  0  0  0  0  0  0  0  0  0  0  0
  139.8670  142.3373  155.0518 H   0  0  0  0  0  0  0  0  0  0  0  0
  139.9224  140.9493  156.1193 H   0  0  0  0  0  0  0  0  0  0  0  0
  141.8646  141.0154  154.5919 H   0  0  0  0  0  0  0  0  0  0  0  0
  140.8181  141.1146  153.1954 H   0  0  0  0  0  0  0  0  0  0  0  0
  144.9366  136.7550  149.9794 H   0  0  0  0  0  0  0  0  0  0  0  0
  138.3032  141.1769  153.6900 H   0  0  0  0  0  0  0  0  0  0  0  0
  134.7842  143.1529  154.2883 H   0  0  0  0  0  0  0  0  0  0  0  0
  145.8486  134.7214  149.4683 H   0  0  0  0  0  0  0  0  0  0  0  0
  1  2  1  0  0  0  0
  1 25  1  0  0  0  0
  1 26  1  0  0  0  0
  1 27  1  0  0  0  0
  2 24  1  0  0  0  0
  2  3  2  0  0  0  0
  3  4  1  0  0  0  0
  3 28  1  0  0  0  0
  4  5  2  0  0  0  0
  4 29  1  0  0  0  0
  5  6  1  0  0  0  0
  5 23  1  0  0  0  0
  6  7  1  0  0  0  0
  6 30  1  0  0  0  0
  7  8  2  0  0  0  0
  7  9  1  0  0  0  0
  9 10  1  0  0  0  0
  9 31  1  0  0  0  0
 10 22  1  0  0  0  0
 10 11  1  0  0  0  0
 10 32  1  0  0  0  0
 11 12  1  0  0  0  0
 11 33  1  0  0  0  0
 11 34  1  0  0  0  0
 12 13  1  0  0  0  0
 12 35  1  0  0  0  0
 12 36  1  0  0  0  0
 13 14  1  0  0  0  0
 13 21  1  0  0  0  0
 13 54  1  0  0  0  0
 14 20  1  0  0  0  0
 14 15  1  0  0  0  0
 14 37  1  0  0  0  0
 15 16  1  0  0  0  0
 15 38  1  0  0  0  0
 15 39  1  0  0  0  0
 16 17  1  0  0  0  0
 16 40  1  0  0  0  0
 16 41  1  0  0  0  0
 17 18  1  0  0  0  0
 17 19  1  0  0  0  0
 17 55  1  0  0  0  0
 18 42  1  0  0  0  0
 18 43  1  0  0  0  0
 18 44  1  0  0  0  0
 19 20  1  0  0  0  0
 19 45  1  0  0  0  0
 19 46  1  0  0  0  0
 20 47  1  0  0  0  0
 20 48  1  0  0  0  0
 21 22  1  0  0  0  0
 21 49  1  0  0  0  0
 21 50  1  0  0  0  0
 22 51  1  0  0  0  0
 22 52  1  0  0  0  0
 23 24  2  0  0  0  0
 23 53  1  0  0  0  0
 24 56  1  0  0  0  0
M  CHG  1  13   1
M  CHG  1  17   1
M  CHG  1  24   1
M  END
> <s_m_source_file>
AV-unprocessed.smi

> <i_m_source_file_index>
2772

> <i_lp_mmshare_version>
43012

> <i_f3d_flags>
0

> <s_epik_input>
W0NIM11jMVtjSF1bY0hdYyhbY0hdbjEpW05IXUMoPU8pW05IXVtDSF0yW0NIMl1bQ0gyXU4oW0NIMl1bQ0gyXTIpW0NIXTNbQ0gyXVtDSDJdTihbQ0gzXSlbQ0gyXVtDSDJdMw==

> <s_epik_cmdline>
J2VwaWtfcHl0aG9uJywgJy1waCcsICc3LjAnLCAnLXRuJywgJzgnLCAnLW1hJywgJzIwMCcsICctbWV0YWxfYmluZGluZycsICctaW1hZScsICc8aW5maWxlLm1hZT4nLCAnLW9tYWUnLCAnPG91dGZpbGUubWFlPic=

> <r_epik_Ionization_Penalty>
2.34117

> <r_epik_Ionization_Penalty_Charging>
2.34115

> <r_epik_Ionization_Penalty_Neutral>
2.22786e-05

> <r_epik_State_Penalty>
2.43944

> <r_epik_Charging_Adjusted_Penalty>
4.78059

> <i_epik_Tot_Q>
3

> <i_epik_Tot_abs_Q>
3

> <r_epik_Metal_State_Penalty>
2.45906

> <b_epik_Metal_Only>
0

> <s_lp_Force_Field>
OPLS_2005

> <r_lp_Energy>
56.0688

> <b_lp_Chiralities_Consistent>
1

> <s_lp_Variant>
AV-unprocessed.smi:2772-11

> <Gold.Version>
5.8.1

> <Gold.Id.Protein>
6NUR|6NUR_protein|mol2

> <Gold.PLP.Fitness>
39.4317

> <Gold.PLP.PLP>
-32.6482

> <Gold.PLP.part.hbond>
-3.4527

> <Gold.PLP.part.metal>
0.0000

> <Gold.PLP.part.buried>
-2.5546

> <Gold.PLP.part.nonpolar>
-26.5533

> <Gold.PLP.part.repulsive>
0.2307

> <Gold.PLP.ligand.clash>
0.0000

> <Gold.PLP.ligand.torsion>
0.2065

> <Gold.PLP.Chemscore.Hbond>
2.3899

> <Gold.PLP.Chemscore.CHOScore>
0.0000

> <Gold.PLP.Chemscore.Metal>
0.0000

> <Gold.Chemscore.Hbonds>
donor molecule, donor type, donor heavy atom, donor atom, acceptor molecule, acceptor atom, score
      L1  H     6    30       P1 10171  0.47
      L1  H     9    31       P1 10175  1.00
      L1  H    24    56       P1  7921  1.00

> <Gold.PLP.Chemscore.Internal.Correction>
0.0269

> <Gold.Rescore>
     Score         DG    S(hbond)    S(metal)    S(lipo)     H(rot)  DE(clash)    DE(int)     intcor
     19.26     -21.83       2.24        0.00     102.50       1.22       0.97       1.61       ----

> <Gold.Chemscore.Fitness>
19.2579

> <Gold.Chemscore.DG>
-21.8309

> <Gold.Chemscore.ZeroCoef>
-5.4800

> <Gold.Chemscore.Hbond>
2.2416

> <Gold.Chemscore.Metal>
0.0000

> <Gold.Chemscore.Lipo>
102.5033

> <Gold.Chemscore.Internal_Hbond>
0.0000

> <Gold.Chemscore.DEClash>
0.9653

> <Gold.Chemscore.DEInternal>
1.6076

> <Gold.Chemscore.Rot>
1.2222

> <Gold.Chemscore.Internal.Correction>
   9.000000E+99

> <Gold.Chemscore.Hbonds>
donor molecule, donor type, donor heavy atom, donor atom, acceptor molecule, acceptor atom, score
      L1  H     6    30       P1 10171  0.44
      L1  H     9    31       P1 10175  0.90
      L1  H    24    56       P1  7921  0.80

> <Gold.Chemscore.Hbond.Weighted>
-7.4869

> <Gold.Chemscore.Metal.Weighted>
-0.0000

> <Gold.Chemscore.Lipo.Weighted>
-11.9929

> <Gold.Chemscore.Internal_Hbond.Weighted>
0.0000

> <Gold.Chemscore.DEClash.Weighted>
0.9653

> <Gold.Chemscore.DEInternal.Weighted>
1.6076

> <Gold.Chemscore.Rot.Weighted>
3.1289

> <Gold.Chemscore.Internal.Correction.Weighted>
   9.000000E+99

> <Gold.Protein.RotatedTorsions>
[ 6907 6896 6895 6894 ] final  -45.17 input  -60.11 | X-H torsion
[ 7974 7965 7964 7962 ] final   59.07 input  175.53 | X-H torsion
[ 8008 7997 7996 7995 ] final   36.91 input   59.86 | X-H torsion
[ 10167 10162 10161 10158 ] final  175.84 input  -65.29 | X-H torsion
[ 10718 10713 10712 10709 ] final  -58.03 input   66.30 | X-H torsion
[ 10763 10752 10751 10750 ] final  -72.37 input  -60.55 | X-H torsion
[ 11005 11000 10999 10996 ] final  -56.45 input  -57.11 | X-H torsion

> <Gold.Protein.ActiveResidues>
 VAL166  LYS551  ARG553  GLY616  TRP617  ASP618  TYR619  PRO620  LYS621  CYS622 
 ASP623  PHE694  ASN695  SER759  ASP760  ASP761  ALA762  ILE779  LEU786  VAL792 
 PHE793  MET794  SER795  GLU796  ALA797  LYS798  CYS799  TRP800  GLU811  SER814 

> <Gold.Protein.RotatedAtoms>
  150.9249  134.8665  159.7512 H   0  0  0  0  0  0  0  0  0  0  0  0  # atno 6907 bound_to 6896
  152.5010  134.4164  159.9476 H   0  0  0  0  0  0  0  0  0  0  0  0  # atno 6908 bound_to 6896
  151.4195  133.3663  159.2789 H   0  0  0  0  0  0  0  0  0  0  0  0  # atno 6909 bound_to 6896
  145.9112  139.3656  143.0534 H   0  0  0  0  0  0  0  0  0  0  0  0  # atno 7974 bound_to 7965
  155.1952  140.3311  155.4352 H   0  0  0  0  0  0  0  0  0  0  0  0  # atno 8008 bound_to 7997
  156.2427  140.1903  156.6992 H   0  0  0  0  0  0  0  0  0  0  0  0  # atno 8009 bound_to 7997
  154.6179  140.0599  156.9563 H   0  0  0  0  0  0  0  0  0  0  0  0  # atno 8010 bound_to 7997
  139.5192  144.2985  152.0400 H   0  0  0  0  0  0  0  0  0  0  0  0  # atno 10167 bound_to 10162
  156.1166  130.4170  150.0521 H   0  0  0  0  0  0  0  0  0  0  0  0  # atno 10718 bound_to 10713
  154.4448  135.5932  153.6153 H   0  0  0  0  0  0  0  0  0  0  0  0  # atno 10763 bound_to 10752
  152.9808  135.6007  154.3678 H   0  0  0  0  0  0  0  0  0  0  0  0  # atno 10764 bound_to 10752
  154.3532  135.2841  155.2339 H   0  0  0  0  0  0  0  0  0  0  0  0  # atno 10765 bound_to 10752
  141.1121  133.6610  156.4621 H   0  0  0  0  0  0  0  0  0  0  0  0  # atno 11005 bound_to 11000
  145.8669  140.9443  143.0671 LP  0  0  0  0  0  0  0  0  0  0  0  0  # atno 17320 bound_to 7965
  144.6743  140.0603  143.7476 LP  0  0  0  0  0  0  0  0  0  0  0  0  # atno 17321 bound_to 7965
  140.2434  144.4246  150.6251 LP  0  0  0  0  0  0  0  0  0  0  0  0  # atno 17342 bound_to 10162
  140.6275  143.2183  151.6566 LP  0  0  0  0  0  0  0  0  0  0  0  0  # atno 17343 bound_to 10162
  156.8470  130.9446  151.3628 LP  0  0  0  0  0  0  0  0  0  0  0  0  # atno 17370 bound_to 10713
  157.6349  130.8759  149.9341 LP  0  0  0  0  0  0  0  0  0  0  0  0  # atno 17371 bound_to 10713
  140.4748  134.6720  157.5145 LP  0  0  0  0  0  0  0  0  0  0  0  0  # atno 17394 bound_to 11000
  140.0020  134.6821  155.9515 LP  0  0  0  0  0  0  0  0  0  0  0  0  # atno 17395 bound_to 11000

$$$$
