AV-unprocessed.smi:937|AV-procd|sdf|4211|dock2
  -GOLD-   22720 2123D 1   1.00000     0.00000
 Structure written by MMmdl.
 45 46  0  0  0  0  0  0  0  0  1 V2000
  149.6488  131.3654  154.1605 C   0  0  0  0  0  0  0  0  0  0  0  0
  149.9528  132.7024  154.8032 C   0  0  0  0  0  0  0  0  0  0  0  0
  150.7773  132.7854  155.9449 C   0  0  0  0  0  0  0  0  0  0  0  0
  151.0237  134.0544  156.5027 C   0  0  0  0  0  0  0  0  0  0  0  0
  150.4388  135.1876  155.9012 C   0  0  0  0  0  0  0  0  0  0  0  0
  150.6775  136.5743  156.4655 C   0  0  0  0  0  0  0  0  0  0  0  0
  152.1715  136.8836  156.6274 C   0  0  0  0  0  0  0  0  0  0  0  0
  152.4176  137.5784  157.8829 N   0  0  0  0  0  0  0  0  0  0  0  0
  152.7914  138.8644  157.9781 C   0  0  0  0  0  0  0  0  0  0  0  0
  152.9705  139.5900  157.0018 O   0  0  0  0  0  0  0  0  0  0  0  0
  152.9600  139.3133  159.2354 N   0  0  0  0  0  0  0  0  0  0  0  0
  153.3593  140.6501  159.6805 C   0  0  2  0  0  0  0  0  0  0  0  0
  153.3855  140.7262  161.2208 C   0  0  0  0  0  0  0  0  0  0  0  0
  153.7175  142.1452  161.7034 C   0  0  0  0  0  0  0  0  0  0  0  0
  152.7365  143.1749  161.1225 C   0  0  0  0  0  0  0  0  0  0  0  0
  152.7063  143.1243  159.5803 C   0  0  2  0  0  0  0  0  0  0  0  0
  151.7344  144.1656  158.9875 C   0  0  0  0  0  0  0  0  0  0  0  0
  151.8182  144.1899  157.6570 F   0  0  0  0  0  0  0  0  0  0  0  0
  150.4814  143.8710  159.3346 F   0  0  0  0  0  0  0  0  0  0  0  0
  152.0218  145.3789  159.4593 F   0  0  0  0  0  0  0  0  0  0  0  0
  152.3813  141.6920  159.1029 C   0  0  0  0  0  0  0  0  0  0  0  0
  149.6299  134.9955  154.7612 C   0  0  0  0  0  0  0  0  0  0  0  0
  149.3874  133.7822  154.2196 N   0  0  0  0  0  0  0  0  0  0  0  0
  150.2429  130.5683  154.6082 H   0  0  0  0  0  0  0  0  0  0  0  0
  149.8707  131.3955  153.0935 H   0  0  0  0  0  0  0  0  0  0  0  0
  148.5948  131.1174  154.2865 H   0  0  0  0  0  0  0  0  0  0  0  0
  151.2121  131.8999  156.3847 H   0  0  0  0  0  0  0  0  0  0  0  0
  151.6517  134.1551  157.3758 H   0  0  0  0  0  0  0  0  0  0  0  0
  150.2099  137.3137  155.8134 H   0  0  0  0  0  0  0  0  0  0  0  0
  150.1726  136.6495  157.4296 H   0  0  0  0  0  0  0  0  0  0  0  0
  152.7492  135.9578  156.6035 H   0  0  0  0  0  0  0  0  0  0  0  0
  152.5202  137.5044  155.8005 H   0  0  0  0  0  0  0  0  0  0  0  0
  152.2926  137.0510  158.7346 H   0  0  0  0  0  0  0  0  0  0  0  0
  152.7990  138.6406  159.9713 H   0  0  0  0  0  0  0  0  0  0  0  0
  154.3538  140.8793  159.2934 H   0  0  0  0  0  0  0  0  0  0  0  0
  152.4163  140.4261  161.6218 H   0  0  0  0  0  0  0  0  0  0  0  0
  154.1162  140.0257  161.6261 H   0  0  0  0  0  0  0  0  0  0  0  0
  153.6918  142.1815  162.7928 H   0  0  0  0  0  0  0  0  0  0  0  0
  154.7358  142.4024  161.4095 H   0  0  0  0  0  0  0  0  0  0  0  0
  151.7377  142.9870  161.5183 H   0  0  0  0  0  0  0  0  0  0  0  0
  153.0182  144.1724  161.4606 H   0  0  0  0  0  0  0  0  0  0  0  0
  153.7065  143.3734  159.2219 H   0  0  0  0  0  0  0  0  0  0  0  0
  152.4104  141.6510  158.0135 H   0  0  0  0  0  0  0  0  0  0  0  0
  151.3605  141.4362  159.3915 H   0  0  0  0  0  0  0  0  0  0  0  0
  149.1642  135.8362  154.2684 H   0  0  0  0  0  0  0  0  0  0  0  0
  1  2  1  0  0  0  0
  1 24  1  0  0  0  0
  1 25  1  0  0  0  0
  1 26  1  0  0  0  0
  2 23  1  0  0  0  0
  2  3  2  0  0  0  0
  3  4  1  0  0  0  0
  3 27  1  0  0  0  0
  4  5  2  0  0  0  0
  4 28  1  0  0  0  0
  5  6  1  0  0  0  0
  5 22  1  0  0  0  0
  6  7  1  0  0  0  0
  6 29  1  0  0  0  0
  6 30  1  0  0  0  0
  7  8  1  0  0  0  0
  7 31  1  0  0  0  0
  7 32  1  0  0  0  0
  8  9  1  0  0  0  0
  8 33  1  0  0  0  0
  9 10  2  0  0  0  0
  9 11  1  0  0  0  0
 11 12  1  0  0  0  0
 11 34  1  0  0  0  0
 12 21  1  0  0  0  0
 12 13  1  0  0  0  0
 12 35  1  0  0  0  0
 13 14  1  0  0  0  0
 13 36  1  0  0  0  0
 13 37  1  0  0  0  0
 14 15  1  0  0  0  0
 14 38  1  0  0  0  0
 14 39  1  0  0  0  0
 15 16  1  0  0  0  0
 15 40  1  0  0  0  0
 15 41  1  0  0  0  0
 16 17  1  0  0  0  0
 16 21  1  0  0  0  0
 16 42  1  0  0  0  0
 17 18  1  0  0  0  0
 17 19  1  0  0  0  0
 17 20  1  0  0  0  0
 21 43  1  0  0  0  0
 21 44  1  0  0  0  0
 22 23  2  0  0  0  0
 22 45  1  0  0  0  0
M  END
> <s_m_source_file>
AV-unprocessed.smi

> <i_m_source_file_index>
937

> <i_lp_mmshare_version>
43012

> <i_f3d_flags>
0

> <s_epik_input>
W0NIM11jMVtjSF1bY0hdYyhbY0hdbjEpW0NIMl1bQ0gyXVtOSF1DKD1PKVtOSF1bQ0BASF0yW0NIMl1bQ0gyXVtDSDJdW0NAQEhdKEMoRikoRilGKVtDSDJdMg==

> <s_epik_cmdline>
J2VwaWtfcHl0aG9uJywgJy1waCcsICc3LjAnLCAnLXRuJywgJzgnLCAnLW1hJywgJzIwMCcsICctbWV0YWxfYmluZGluZycsICctaW1hZScsICc8aW5maWxlLm1hZT4nLCAnLW9tYWUnLCAnPG91dGZpbGUubWFlPic=

> <r_epik_Ionization_Penalty>
0.0563445

> <r_epik_Ionization_Penalty_Charging>
0

> <r_epik_Ionization_Penalty_Neutral>
0.0563445

> <r_epik_State_Penalty>
0.0485409

> <r_epik_Charging_Adjusted_Penalty>
0.0485409

> <i_epik_Tot_Q>
0

> <i_epik_Tot_abs_Q>
0

> <r_epik_Metal_State_Penalty>
0.0443056

> <b_epik_Metal_Only>
0

> <s_lp_Force_Field>
OPLS_2005

> <r_lp_Energy>
18.9934

> <b_lp_Chiralities_Consistent>
1

> <s_lp_Variant>
AV-unprocessed.smi:937-3

> <Gold.Version>
5.8.1

> <Gold.Id.Protein>
6NUR|6NUR_protein|mol2

> <Gold.PLP.Fitness>
51.3686

> <Gold.PLP.PLP>
-46.1887

> <Gold.PLP.part.hbond>
-0.8674

> <Gold.PLP.part.metal>
0.0000

> <Gold.PLP.part.buried>
-4.4405

> <Gold.PLP.part.nonpolar>
-39.5989

> <Gold.PLP.part.repulsive>
0.3512

> <Gold.PLP.ligand.clash>
0.0000

> <Gold.PLP.ligand.torsion>
0.4192

> <Gold.PLP.Chemscore.Hbond>
0.9920

> <Gold.PLP.Chemscore.CHOScore>
0.9837

> <Gold.PLP.Chemscore.Metal>
0.0000

> <Gold.Chemscore.Hbonds>
donor molecule, donor type, donor heavy atom, donor atom, acceptor molecule, acceptor atom, score
      P1  H  7997  8010       L1    10  0.98
      L1  C    22    45       P1  7948  0.93

> <Gold.PLP.Chemscore.Internal.Correction>
0.0912

> <Gold.Rescore>
     Score         DG    S(hbond)    S(metal)    S(lipo)     H(rot)  DE(clash)    DE(int)     intcor
     16.62     -17.53       0.97        0.00     109.92       1.58       0.38       0.52       ----

> <Gold.Chemscore.Fitness>
16.6202

> <Gold.Chemscore.DG>
-17.5260

> <Gold.Chemscore.ZeroCoef>
-5.4800

> <Gold.Chemscore.Hbond>
0.9709

> <Gold.Chemscore.Metal>
0.0000

> <Gold.Chemscore.Lipo>
109.9207

> <Gold.Chemscore.Internal_Hbond>
0.0000

> <Gold.Chemscore.DEClash>
0.3820

> <Gold.Chemscore.DEInternal>
0.5237

> <Gold.Chemscore.Rot>
1.5849

> <Gold.Chemscore.Internal.Correction>
   9.000000E+99

> <Gold.Chemscore.Hbonds>
donor molecule, donor type, donor heavy atom, donor atom, acceptor molecule, acceptor atom, score
      P1  H  7997  8010       L1    10  0.69

> <Gold.Chemscore.Hbond.Weighted>
-3.2427

> <Gold.Chemscore.Metal.Weighted>
-0.0000

> <Gold.Chemscore.Lipo.Weighted>
-12.8607

> <Gold.Chemscore.Internal_Hbond.Weighted>
0.0000

> <Gold.Chemscore.DEClash.Weighted>
0.3820

> <Gold.Chemscore.DEInternal.Weighted>
0.5237

> <Gold.Chemscore.Rot.Weighted>
4.0574

> <Gold.Chemscore.Internal.Correction.Weighted>
   9.000000E+99

> <Gold.Protein.RotatedTorsions>
[ 6907 6896 6895 6894 ] final   79.10 input  -60.11 | X-H torsion
[ 7974 7965 7964 7962 ] final   86.67 input  175.53 | X-H torsion
[ 8008 7997 7996 7995 ] final   39.43 input   59.86 | X-H torsion
[ 10167 10162 10161 10158 ] final  154.32 input  -65.29 | X-H torsion
[ 10718 10713 10712 10709 ] final  121.82 input   66.30 | X-H torsion
[ 10763 10752 10751 10750 ] final   78.44 input  -60.55 | X-H torsion
[ 11005 11000 10999 10996 ] final  122.14 input  -57.11 | X-H torsion

> <Gold.Protein.ActiveResidues>
 VAL166  LYS551  ARG553  GLY616  TRP617  ASP618  TYR619  PRO620  LYS621  CYS622 
 ASP623  PHE694  ASN695  SER759  ASP760  ASP761  ALA762  ILE779  LEU786  VAL792 
 PHE793  MET794  SER795  GLU796  ALA797  LYS798  CYS799  TRP800  GLU811  SER814 

> <Gold.Protein.RotatedAtoms>
  152.5185  134.3563  159.9268 H   0  0  0  0  0  0  0  0  0  0  0  0  # atno 6907 bound_to 6896
  151.3515  133.3917  159.2688 H   0  0  0  0  0  0  0  0  0  0  0  0  # atno 6908 bound_to 6896
  150.9724  134.9113  159.7853 H   0  0  0  0  0  0  0  0  0  0  0  0  # atno 6909 bound_to 6896
  145.5692  139.2312  143.2416 H   0  0  0  0  0  0  0  0  0  0  0  0  # atno 7974 bound_to 7965
  155.2365  140.3342  155.4297 H   0  0  0  0  0  0  0  0  0  0  0  0  # atno 8008 bound_to 7997
  156.2273  140.1835  156.7376 H   0  0  0  0  0  0  0  0  0  0  0  0  # atno 8009 bound_to 7997
  154.5920  140.0636  156.9237 H   0  0  0  0  0  0  0  0  0  0  0  0  # atno 8010 bound_to 7997
  139.4823  144.5197  151.7896 H   0  0  0  0  0  0  0  0  0  0  0  0  # atno 10167 bound_to 10162
  157.5789  131.1077  150.8226 H   0  0  0  0  0  0  0  0  0  0  0  0  # atno 10718 bound_to 10713
  153.0874  135.4877  154.8624 H   0  0  0  0  0  0  0  0  0  0  0  0  # atno 10763 bound_to 10752
  154.7228  135.3043  154.9022 H   0  0  0  0  0  0  0  0  0  0  0  0  # atno 10764 bound_to 10752
  153.9682  135.6804  153.4799 H   0  0  0  0  0  0  0  0  0  0  0  0  # atno 10765 bound_to 10752
  139.9255  134.9640  156.8064 H   0  0  0  0  0  0  0  0  0  0  0  0  # atno 11005 bound_to 11000
  146.1796  140.6518  142.9195 LP  0  0  0  0  0  0  0  0  0  0  0  0  # atno 17320 bound_to 7965
  144.7446  140.5033  143.6845 LP  0  0  0  0  0  0  0  0  0  0  0  0  # atno 17321 bound_to 7965
  140.4709  144.1588  150.5918 LP  0  0  0  0  0  0  0  0  0  0  0  0  # atno 17342 bound_to 10162
  140.4383  143.2537  151.9506 LP  0  0  0  0  0  0  0  0  0  0  0  0  # atno 17343 bound_to 10162
  156.8677  130.5135  149.5299 LP  0  0  0  0  0  0  0  0  0  0  0  0  # atno 17370 bound_to 10713
  156.0834  130.5839  150.9604 LP  0  0  0  0  0  0  0  0  0  0  0  0  # atno 17371 bound_to 10713
  140.6348  133.9873  155.7679 LP  0  0  0  0  0  0  0  0  0  0  0  0  # atno 17394 bound_to 11000
  141.0810  134.0062  157.3386 LP  0  0  0  0  0  0  0  0  0  0  0  0  # atno 17395 bound_to 11000

$$$$
