AV-unprocessed.smi:1179|AV-procd|sdf|4959|dock4
  -GOLD-   22720 3553D 1   1.00000     0.00000
 Structure written by MMmdl.
 47 48  0  0  0  0  0  0  0  0  2 V2000
  145.2515  128.7322  152.1201 C   0  0  0  0  0  0  0  0  0  0  0  0
  145.2782  130.2138  151.8848 C   0  0  0  0  0  0  0  0  0  0  0  0
  144.2239  131.0539  151.4293 C   0  0  0  0  0  0  0  0  0  0  0  0
  144.7788  132.3021  151.3908 C   0  0  0  0  0  0  0  0  0  0  0  0
  144.1794  133.6116  150.9954 C   0  0  0  0  0  0  0  0  0  0  0  0
  146.0917  132.1704  151.8069 N   0  0  0  0  0  0  0  0  0  0  0  0
  147.1164  133.1932  151.9515 C   0  0  0  0  0  0  0  0  0  0  0  0
  147.9748  132.9516  153.1946 C   0  0  0  0  0  0  0  0  0  0  0  0
  147.7505  131.9830  153.9202 O   0  0  0  0  0  0  0  0  0  0  0  0
  148.9530  133.8398  153.4317 N   0  0  0  0  0  0  0  0  0  0  0  0
  149.8724  133.7892  154.5613 C   0  0  0  0  0  0  0  0  0  0  0  0
  149.7631  135.0519  155.4386 C   0  0  0  0  0  0  0  0  0  0  0  0
  150.2277  136.2727  154.7328 N   0  3  2  0  0  0  0  0  0  0  0  0
  151.7098  136.3613  154.6787 C   0  0  0  0  0  0  0  0  0  0  0  0
  152.1665  137.5540  153.8192 C   0  0  0  0  0  0  0  0  0  0  0  0
  151.5634  138.8861  154.3006 C   0  0  2  0  0  0  0  0  0  0  0  0
  152.2149  139.4024  155.5953 C   0  0  0  0  0  0  0  0  0  0  0  0
  150.0352  138.7428  154.4197 C   0  0  0  0  0  0  0  0  0  0  0  0
  149.6276  137.5242  155.2674 C   0  0  0  0  0  0  0  0  0  0  0  0
  146.3930  130.8887  152.1116 N   0  0  0  0  0  0  0  0  0  0  0  0
  144.3087  128.2971  151.7880 H   0  0  0  0  0  0  0  0  0  0  0  0
  145.3687  128.5013  153.1791 H   0  0  0  0  0  0  0  0  0  0  0  0
  146.0550  128.2327  151.5782 H   0  0  0  0  0  0  0  0  0  0  0  0
  143.2120  130.7805  151.1689 H   0  0  0  0  0  0  0  0  0  0  0  0
  143.1350  133.4908  150.7069 H   0  0  0  0  0  0  0  0  0  0  0  0
  144.7127  134.0431  150.1482 H   0  0  0  0  0  0  0  0  0  0  0  0
  144.2187  134.3229  151.8204 H   0  0  0  0  0  0  0  0  0  0  0  0
  147.7489  133.2040  151.0623 H   0  0  0  0  0  0  0  0  0  0  0  0
  146.6372  134.1710  152.0100 H   0  0  0  0  0  0  0  0  0  0  0  0
  149.0650  134.6039  152.7799 H   0  0  0  0  0  0  0  0  0  0  0  0
  149.6331  132.9048  155.1522 H   0  0  0  0  0  0  0  0  0  0  0  0
  150.8859  133.6464  154.1855 H   0  0  0  0  0  0  0  0  0  0  0  0
  148.7413  135.2018  155.7907 H   0  0  0  0  0  0  0  0  0  0  0  0
  150.3740  134.8952  156.3290 H   0  0  0  0  0  0  0  0  0  0  0  0
  152.1109  136.4405  155.6901 H   0  0  0  0  0  0  0  0  0  0  0  0
  152.1166  135.4438  154.2516 H   0  0  0  0  0  0  0  0  0  0  0  0
  153.2555  137.6141  153.8089 H   0  0  0  0  0  0  0  0  0  0  0  0
  151.8647  137.3790  152.7855 H   0  0  0  0  0  0  0  0  0  0  0  0
  151.7655  139.6362  153.5345 H   0  0  0  0  0  0  0  0  0  0  0  0
  152.0717  138.7176  156.4305 H   0  0  0  0  0  0  0  0  0  0  0  0
  151.7960  140.3667  155.8846 H   0  0  0  0  0  0  0  0  0  0  0  0
  153.2882  139.5408  155.4631 H   0  0  0  0  0  0  0  0  0  0  0  0
  149.6019  139.6522  154.8381 H   0  0  0  0  0  0  0  0  0  0  0  0
  149.6078  138.6378  153.4215 H   0  0  0  0  0  0  0  0  0  0  0  0
  148.5410  137.4528  155.2704 H   0  0  0  0  0  0  0  0  0  0  0  0
  149.9312  137.6628  156.3060 H   0  0  0  0  0  0  0  0  0  0  0  0
  149.9188  136.1830  153.7756 H   0  0  0  0  0  0  0  0  0  0  0  0
  1  2  1  0  0  0  0
  1 21  1  0  0  0  0
  1 22  1  0  0  0  0
  1 23  1  0  0  0  0
  2 20  2  0  0  0  0
  2  3  1  0  0  0  0
  3  4  2  0  0  0  0
  3 24  1  0  0  0  0
  4  5  1  0  0  0  0
  4  6  1  0  0  0  0
  5 25  1  0  0  0  0
  5 26  1  0  0  0  0
  5 27  1  0  0  0  0
  6  7  1  0  0  0  0
  6 20  1  0  0  0  0
  7  8  1  0  0  0  0
  7 28  1  0  0  0  0
  7 29  1  0  0  0  0
  8  9  2  0  0  0  0
  8 10  1  0  0  0  0
 10 11  1  0  0  0  0
 10 30  1  0  0  0  0
 11 12  1  0  0  0  0
 11 31  1  0  0  0  0
 11 32  1  0  0  0  0
 12 13  1  0  0  0  0
 12 33  1  0  0  0  0
 12 34  1  0  0  0  0
 13 19  1  0  0  0  0
 13 14  1  0  0  0  0
 13 47  1  0  0  0  0
 14 15  1  0  0  0  0
 14 35  1  0  0  0  0
 14 36  1  0  0  0  0
 15 16  1  0  0  0  0
 15 37  1  0  0  0  0
 15 38  1  0  0  0  0
 16 17  1  0  0  0  0
 16 18  1  0  0  0  0
 16 39  1  0  0  0  0
 17 40  1  0  0  0  0
 17 41  1  0  0  0  0
 17 42  1  0  0  0  0
 18 19  1  0  0  0  0
 18 43  1  0  0  0  0
 18 44  1  0  0  0  0
 19 45  1  0  0  0  0
 19 46  1  0  0  0  0
M  CHG  1  13   1
M  END
> <s_m_source_file>
AV-unprocessed.smi

> <i_m_source_file_index>
1179

> <i_lp_mmshare_version>
43012

> <i_f3d_flags>
0

> <s_epik_input>
W0NIM11jMVtjSF1jKFtDSDNdKW4objEpW0NIMl1DKD1PKVtOSF1bQ0gyXVtDSDJdTjJbQ0gyXVtDSDJdW0NIXShbQ0gzXSlbQ0gyXVtDSDJdMg==

> <s_epik_cmdline>
J2VwaWtfcHl0aG9uJywgJy1waCcsICc3LjAnLCAnLXRuJywgJzgnLCAnLW1hJywgJzIwMCcsICctbWV0YWxfYmluZGluZycsICctaW1hZScsICc8aW5maWxlLm1hZT4nLCAnLW9tYWUnLCAnPG91dGZpbGUubWFlPic=

> <r_lp_tautomer_probability>
1

> <r_epik_Ionization_Penalty>
0.00206343

> <r_epik_Ionization_Penalty_Charging>
0.00187095

> <r_epik_Ionization_Penalty_Neutral>
0.000192474

> <r_epik_State_Penalty>
-0

> <r_epik_Charging_Adjusted_Penalty>
0.00187095

> <i_epik_Tot_Q>
1

> <i_epik_Tot_abs_Q>
1

> <r_epik_Metal_State_Penalty>
-0

> <b_epik_Metal_Only>
0

> <s_lp_Force_Field>
OPLS_2005

> <r_lp_Energy>
16.047

> <b_lp_Chiralities_Consistent>
1

> <s_lp_Variant>
AV-unprocessed.smi:1179-2

> <Gold.Version>
5.8.1

> <Gold.Id.Protein>
6NUR|6NUR_protein|mol2

> <Gold.PLP.Fitness>
45.3869

> <Gold.PLP.PLP>
-37.7005

> <Gold.PLP.part.hbond>
-1.9674

> <Gold.PLP.part.metal>
0.0000

> <Gold.PLP.part.buried>
-4.0876

> <Gold.PLP.part.nonpolar>
-32.7079

> <Gold.PLP.part.repulsive>
0.8401

> <Gold.PLP.ligand.clash>
0.0000

> <Gold.PLP.ligand.torsion>
0.5240

> <Gold.PLP.Chemscore.Hbond>
2.9000

> <Gold.PLP.Chemscore.CHOScore>
0.0000

> <Gold.PLP.Chemscore.Metal>
0.0000

> <Gold.Chemscore.Hbonds>
donor molecule, donor type, donor heavy atom, donor atom, acceptor molecule, acceptor atom, score
      L1  H    10    30       P1  7948  0.30
      L1  H    13    47       P1  7948  1.46

> <Gold.PLP.Chemscore.Internal.Correction>
0.0344

> <Gold.Rescore>
     Score         DG    S(hbond)    S(metal)    S(lipo)     H(rot)  DE(clash)    DE(int)     intcor
     12.34     -16.09       0.98        0.00      99.22       1.67       1.87       1.87       ----

> <Gold.Chemscore.Fitness>
12.3432

> <Gold.Chemscore.DG>
-16.0856

> <Gold.Chemscore.ZeroCoef>
-5.4800

> <Gold.Chemscore.Hbond>
0.9764

> <Gold.Chemscore.Metal>
0.0000

> <Gold.Chemscore.Lipo>
99.2169

> <Gold.Chemscore.Internal_Hbond>
0.0000

> <Gold.Chemscore.DEClash>
1.8735

> <Gold.Chemscore.DEInternal>
1.8689

> <Gold.Chemscore.Rot>
1.6657

> <Gold.Chemscore.Internal.Correction>
   9.000000E+99

> <Gold.Chemscore.Hbonds>
donor molecule, donor type, donor heavy atom, donor atom, acceptor molecule, acceptor atom, score
      L1  H    13    47       P1  7948  0.14

> <Gold.Chemscore.Hbond.Weighted>
-3.2613

> <Gold.Chemscore.Metal.Weighted>
-0.0000

> <Gold.Chemscore.Lipo.Weighted>
-11.6084

> <Gold.Chemscore.Internal_Hbond.Weighted>
0.0000

> <Gold.Chemscore.DEClash.Weighted>
1.8735

> <Gold.Chemscore.DEInternal.Weighted>
1.8689

> <Gold.Chemscore.Rot.Weighted>
4.2641

> <Gold.Chemscore.Internal.Correction.Weighted>
   9.000000E+99

> <Gold.Protein.RotatedTorsions>
[ 6907 6896 6895 6894 ] final   94.64 input  -60.11 | X-H torsion
[ 7974 7965 7964 7962 ] final -159.48 input  175.53 | X-H torsion
[ 8008 7997 7996 7995 ] final   11.46 input   59.86 | X-H torsion
[ 10167 10162 10161 10158 ] final  -22.99 input  -65.29 | X-H torsion
[ 10718 10713 10712 10709 ] final   86.84 input   66.30 | X-H torsion
[ 10763 10752 10751 10750 ] final -177.33 input  -60.55 | X-H torsion
[ 11005 11000 10999 10996 ] final -108.53 input  -57.11 | X-H torsion

> <Gold.Protein.ActiveResidues>
 VAL166  LYS551  ARG553  GLY616  TRP617  ASP618  TYR619  PRO620  LYS621  CYS622 
 ASP623  PHE694  ASN695  SER759  ASP760  ASP761  ALA762  ILE779  LEU786  VAL792 
 PHE793  MET794  SER795  GLU796  ALA797  LYS798  CYS799  TRP800  GLU811  SER814 

> <Gold.Protein.RotatedAtoms>
  152.5448  134.1163  159.8379 H   0  0  0  0  0  0  0  0  0  0  0  0  # atno 6907 bound_to 6896
  151.1224  133.5087  159.2609 H   0  0  0  0  0  0  0  0  0  0  0  0  # atno 6908 bound_to 6896
  151.1765  135.0351  159.8828 H   0  0  0  0  0  0  0  0  0  0  0  0  # atno 6909 bound_to 6896
  144.7463  140.3678  143.6082 H   0  0  0  0  0  0  0  0  0  0  0  0  # atno 7974 bound_to 7965
  154.8072  140.2862  155.5879 H   0  0  0  0  0  0  0  0  0  0  0  0  # atno 8008 bound_to 7997
  156.2984  140.2575  156.2882 H   0  0  0  0  0  0  0  0  0  0  0  0  # atno 8009 bound_to 7997
  154.9489  140.0380  157.2124 H   0  0  0  0  0  0  0  0  0  0  0  0  # atno 8010 bound_to 7997
  140.7287  143.4484  151.0553 H   0  0  0  0  0  0  0  0  0  0  0  0  # atno 10167 bound_to 10162
  157.6933  131.0231  150.3032 H   0  0  0  0  0  0  0  0  0  0  0  0  # atno 10718 bound_to 10713
  154.5615  135.2820  155.0915 H   0  0  0  0  0  0  0  0  0  0  0  0  # atno 10763 bound_to 10752
  154.2322  135.6372  153.5183 H   0  0  0  0  0  0  0  0  0  0  0  0  # atno 10764 bound_to 10752
  153.0030  135.5540  154.6210 H   0  0  0  0  0  0  0  0  0  0  0  0  # atno 10765 bound_to 10752
  141.0896  133.9078  157.2105 H   0  0  0  0  0  0  0  0  0  0  0  0  # atno 11005 bound_to 11000
  145.7109  139.1684  143.2539 LP  0  0  0  0  0  0  0  0  0  0  0  0  # atno 17320 bound_to 7965
  146.1347  140.7138  142.9395 LP  0  0  0  0  0  0  0  0  0  0  0  0  # atno 17321 bound_to 7965
  139.8158  143.7888  152.3174 LP  0  0  0  0  0  0  0  0  0  0  0  0  # atno 17342 bound_to 10162
  139.7953  144.7395  150.9898 LP  0  0  0  0  0  0  0  0  0  0  0  0  # atno 17343 bound_to 10162
  156.3545  130.3836  149.7301 LP  0  0  0  0  0  0  0  0  0  0  0  0  # atno 17370 bound_to 10713
  156.4768  130.8022  151.3038 LP  0  0  0  0  0  0  0  0  0  0  0  0  # atno 17371 bound_to 10713
  139.9720  135.0125  156.9536 LP  0  0  0  0  0  0  0  0  0  0  0  0  # atno 17394 bound_to 11000
  140.5282  134.0839  155.7309 LP  0  0  0  0  0  0  0  0  0  0  0  0  # atno 17395 bound_to 11000

$$$$
