AV-unprocessed.smi:109|AV-procd|sdf|1040|dock4
  -GOLD-   2262018 63D 1   1.00000     0.00000
 Structure written by MMmdl.
 58 61  0  0  0  0  0  0  0  0  1 V2000
  149.3058  141.2039  153.5795 O   0  0  0  0  0  0  0  0  0  0  0  0
  149.3833  140.9080  154.9569 C   0  0  0  0  0  0  0  0  0  0  0  0
  150.4997  141.7392  155.6091 C   0  0  0  0  0  0  0  0  0  0  0  0
  150.8627  141.2512  157.0265 C   0  0  1  0  0  0  0  0  0  0  0  0
  151.5247  139.9473  156.9538 N   0  0  0  0  0  0  0  0  0  0  0  0
  151.0239  138.8447  157.5540 C   0  0  0  0  0  0  0  0  0  0  0  0
  151.0944  138.6701  158.8998 N   0  0  0  0  0  0  0  0  0  0  0  0
  150.5853  137.5690  159.4611 C   0  0  0  0  0  0  0  0  0  0  0  0
  149.9717  136.5392  158.8732 N   0  0  0  0  0  0  0  0  0  0  0  0
  149.8995  136.7119  157.5217 C   0  0  0  0  0  0  0  0  0  0  0  0
  150.3974  137.8259  156.7914 C   0  0  0  0  0  0  0  0  0  0  0  0
  150.1380  137.6542  155.4375 N   0  0  0  0  0  0  0  0  0  0  0  0
  149.5162  136.5068  155.3780 C   0  0  0  0  0  0  0  0  0  0  0  0
  149.3307  135.8741  156.5893 N   0  0  0  0  0  0  0  0  0  0  0  0
  148.6537  134.5757  156.8833 C   0  0  2  0  0  0  0  0  0  0  0  0
  149.2720  133.5906  156.1098 O   0  0  0  0  0  0  0  0  0  0  0  0
  148.3166  132.9022  155.3085 C   0  0  2  0  0  0  0  0  0  0  0  0
  148.9551  132.3832  154.0081 C   0  0  0  0  0  0  0  0  0  0  0  0
  147.9570  131.8838  153.1442 O   0  0  0  0  0  0  0  0  0  0  0  0
  147.1729  133.9095  155.1305 C   0  0  2  0  0  0  0  0  0  0  0  0
  147.4223  134.7974  154.0550 O   0  0  0  0  0  0  0  0  0  0  0  0
  147.1810  134.6606  156.4529 C   0  0  1  0  0  0  0  0  0  0  0  0
  146.3362  134.0329  157.3963 O   0  0  0  0  0  0  0  0  0  0  0  0
  151.7152  142.2840  157.8101 C   0  0  0  0  0  0  0  0  0  0  0  0
  151.9717  141.8946  159.2854 C   0  0  0  0  0  0  0  0  0  0  0  0
  152.8658  142.9243  159.9961 C   0  0  0  0  0  0  0  0  0  0  0  0
  152.2771  144.3397  159.8992 C   0  0  0  0  0  0  0  0  0  0  0  0
  152.0297  144.7364  158.4360 C   0  0  0  0  0  0  0  0  0  0  0  0
  151.1307  143.7110  157.7271 C   0  0  0  0  0  0  0  0  0  0  0  0
  148.8096  134.4162  157.9514 H   0  0  0  0  0  0  0  0  0  0  0  0
  147.9309  132.0654  155.8942 H   0  0  0  0  0  0  0  0  0  0  0  0
  146.2205  133.4134  154.9388 H   0  0  0  0  0  0  0  0  0  0  0  0
  146.8536  135.6968  156.3505 H   0  0  0  0  0  0  0  0  0  0  0  0
  149.3604  140.3938  153.0956 H   0  0  0  0  0  0  0  0  0  0  0  0
  148.4205  141.1229  155.4214 H   0  0  0  0  0  0  0  0  0  0  0  0
  149.5715  139.8405  155.0756 H   0  0  0  0  0  0  0  0  0  0  0  0
  151.3820  141.7279  154.9683 H   0  0  0  0  0  0  0  0  0  0  0  0
  150.1715  142.7782  155.6593 H   0  0  0  0  0  0  0  0  0  0  0  0
  149.9134  141.1633  157.5546 H   0  0  0  0  0  0  0  0  0  0  0  0
  152.3785  139.9277  156.4145 H   0  0  0  0  0  0  0  0  0  0  0  0
  150.6821  137.5057  160.5350 H   0  0  0  0  0  0  0  0  0  0  0  0
  149.1682  136.0943  154.4422 H   0  0  0  0  0  0  0  0  0  0  0  0
  149.4588  133.1970  153.4859 H   0  0  0  0  0  0  0  0  0  0  0  0
  149.7004  131.6132  154.2102 H   0  0  0  0  0  0  0  0  0  0  0  0
  148.3716  131.5661  152.3566 H   0  0  0  0  0  0  0  0  0  0  0  0
  148.3103  134.6687  153.7587 H   0  0  0  0  0  0  0  0  0  0  0  0
  146.7788  134.0193  158.2314 H   0  0  0  0  0  0  0  0  0  0  0  0
  152.6874  142.3245  157.3163 H   0  0  0  0  0  0  0  0  0  0  0  0
  151.0257  141.8124  159.8221 H   0  0  0  0  0  0  0  0  0  0  0  0
  152.4464  140.9158  159.3456 H   0  0  0  0  0  0  0  0  0  0  0  0
  152.9923  142.6456  161.0428 H   0  0  0  0  0  0  0  0  0  0  0  0
  153.8614  142.9119  159.5507 H   0  0  0  0  0  0  0  0  0  0  0  0
  151.3391  144.3847  160.4542 H   0  0  0  0  0  0  0  0  0  0  0  0
  152.9508  145.0564  160.3698 H   0  0  0  0  0  0  0  0  0  0  0  0
  151.5711  145.7245  158.3917 H   0  0  0  0  0  0  0  0  0  0  0  0
  152.9827  144.8135  157.9112 H   0  0  0  0  0  0  0  0  0  0  0  0
  151.0018  144.0016  156.6840 H   0  0  0  0  0  0  0  0  0  0  0  0
  150.1388  143.7371  158.1797 H   0  0  0  0  0  0  0  0  0  0  0  0
  1  2  1  0  0  0  0
  1 34  1  0  0  0  0
  2  3  1  0  0  0  0
  2 35  1  0  0  0  0
  2 36  1  0  0  0  0
  3  4  1  0  0  0  0
  3 37  1  0  0  0  0
  3 38  1  0  0  0  0
  4  5  1  0  0  0  0
  4 24  1  0  0  0  0
  4 39  1  0  0  0  0
  5  6  1  0  0  0  0
  5 40  1  0  0  0  0
  6 11  1  0  0  0  0
  6  7  2  0  0  0  0
  7  8  1  0  0  0  0
  8  9  2  0  0  0  0
  8 41  1  0  0  0  0
  9 10  1  0  0  0  0
 10 14  1  0  0  0  0
 10 11  2  0  0  0  0
 11 12  1  0  0  0  0
 12 13  2  0  0  0  0
 13 14  1  0  0  0  0
 13 42  1  0  0  0  0
 14 15  1  0  0  0  0
 15 30  1  0  0  0  0
 15 22  1  0  0  0  0
 15 16  1  0  0  0  0
 16 17  1  0  0  0  0
 17 31  1  0  0  0  0
 17 18  1  0  0  0  0
 17 20  1  0  0  0  0
 18 19  1  0  0  0  0
 18 43  1  0  0  0  0
 18 44  1  0  0  0  0
 19 45  1  0  0  0  0
 20 32  1  0  0  0  0
 20 21  1  0  0  0  0
 20 22  1  0  0  0  0
 21 46  1  0  0  0  0
 22 33  1  0  0  0  0
 22 23  1  0  0  0  0
 23 47  1  0  0  0  0
 24 29  1  0  0  0  0
 24 25  1  0  0  0  0
 24 48  1  0  0  0  0
 25 26  1  0  0  0  0
 25 49  1  0  0  0  0
 25 50  1  0  0  0  0
 26 27  1  0  0  0  0
 26 51  1  0  0  0  0
 26 52  1  0  0  0  0
 27 28  1  0  0  0  0
 27 53  1  0  0  0  0
 27 54  1  0  0  0  0
 28 29  1  0  0  0  0
 28 55  1  0  0  0  0
 28 56  1  0  0  0  0
 29 57  1  0  0  0  0
 29 58  1  0  0  0  0
M  END
> <s_m_source_file>
AV-unprocessed.smi

> <i_m_source_file_index>
109

> <i_lp_mmshare_version>
43012

> <i_f3d_flags>
0

> <s_epik_input>
W0NIMl0xW0NIMl1bQ0gyXVtDSDJdW0NIMl1bQ0hdMVtDQEhdKFtDSDJdW0NIMl1bT0hdKVtOSF1jKG5bY0hdbjIpYyhjMjMpbltjSF1uM1tDQEBIXTRPW0NASF0oW0NIMl1bT0hdKVtDQEBIXShbT0hdKVtDQEhdNFtPSF0=

> <s_epik_cmdline>
J2VwaWtfcHl0aG9uJywgJy1waCcsICc3LjAnLCAnLXRuJywgJzgnLCAnLW1hJywgJzIwMCcsICctbWV0YWxfYmluZGluZycsICctaW1hZScsICc8aW5maWxlLm1hZT4nLCAnLW9tYWUnLCAnPG91dGZpbGUubWFlPic=

> <r_lp_tautomer_probability>
1

> <r_epik_Ionization_Penalty>
0.000793976

> <r_epik_Ionization_Penalty_Charging>
0

> <r_epik_Ionization_Penalty_Neutral>
0.000793976

> <r_epik_State_Penalty>
-0

> <r_epik_Charging_Adjusted_Penalty>
0

> <i_epik_Tot_Q>
0

> <i_epik_Tot_abs_Q>
0

> <r_epik_Metal_State_Penalty>
-0

> <b_epik_Metal_Only>
0

> <s_epik_Chemistry_Notes>
This compound contains an acetal/aminal-like group ( X-CH(R)-Y where X, Y are N, S, or O) that may be acid/base labile, releasing an aldehyde.

> <s_lp_Force_Field>
OPLS_2005

> <r_lp_Energy>
47.8615

> <b_lp_Chiralities_Consistent>
1

> <s_lp_Variant>
AV-unprocessed.smi:109-10

> <Gold.Version>
5.8.1

> <Gold.Id.Protein>
6NUR|6NUR_protein|mol2

> <Gold.PLP.Fitness>
54.8576

> <Gold.PLP.PLP>
-42.4058

> <Gold.PLP.part.hbond>
-6.0000

> <Gold.PLP.part.metal>
0.0000

> <Gold.PLP.part.buried>
-6.1084

> <Gold.PLP.part.nonpolar>
-29.8621

> <Gold.PLP.part.repulsive>
0.2059

> <Gold.PLP.ligand.clash>
0.0000

> <Gold.PLP.ligand.torsion>
0.9489

> <Gold.PLP.Chemscore.Hbond>
3.7202

> <Gold.PLP.Chemscore.CHOScore>
1.0000

> <Gold.PLP.Chemscore.Metal>
0.0000

> <Gold.Chemscore.Hbonds>
donor molecule, donor type, donor heavy atom, donor atom, acceptor molecule, acceptor atom, score
      L1  H     1    34       P1  7957  0.62
      L1  H    19    45       P1 10747  0.41
      P1  H  6896  6907       L1     9  0.91
      P1  H  8011  8017       L1     1  0.98
      L1  C    13    42       P1  7948  0.90

> <Gold.PLP.Chemscore.Internal.Correction>
0.1892

> <Gold.Rescore>
     Score         DG    S(hbond)    S(metal)    S(lipo)     H(rot)  DE(clash)    DE(int)     intcor
     10.29     -12.70       2.61        0.00     106.79       5.47       0.45       1.96       ----

> <Gold.Chemscore.Fitness>
10.2882

> <Gold.Chemscore.DG>
-12.7046

> <Gold.Chemscore.ZeroCoef>
-5.4800

> <Gold.Chemscore.Hbond>
2.6119

> <Gold.Chemscore.Metal>
0.0000

> <Gold.Chemscore.Lipo>
106.7912

> <Gold.Chemscore.Internal_Hbond>
0.0000

> <Gold.Chemscore.DEClash>
0.4525

> <Gold.Chemscore.DEInternal>
1.9639

> <Gold.Chemscore.Rot>
5.4662

> <Gold.Chemscore.Internal.Correction>
   9.000000E+99

> <Gold.Chemscore.Hbonds>
donor molecule, donor type, donor heavy atom, donor atom, acceptor molecule, acceptor atom, score
      L1  H     1    34       P1  7957  0.60
      L1  H    19    45       P1 10747  0.41
      P1  H  6896  6907       L1     9  0.51
      P1  H  8011  8017       L1     1  0.32

> <Gold.Chemscore.Hbond.Weighted>
-8.7236

> <Gold.Chemscore.Metal.Weighted>
-0.0000

> <Gold.Chemscore.Lipo.Weighted>
-12.4946

> <Gold.Chemscore.Internal_Hbond.Weighted>
0.0000

> <Gold.Chemscore.DEClash.Weighted>
0.4525

> <Gold.Chemscore.DEInternal.Weighted>
1.9639

> <Gold.Chemscore.Rot.Weighted>
13.9935

> <Gold.Chemscore.Internal.Correction.Weighted>
   9.000000E+99

> <Gold.Protein.RotatedTorsions>
[ 6907 6896 6895 6894 ] final  -54.11 input  -60.11 | X-H torsion
[ 7974 7965 7964 7962 ] final  173.22 input  175.53 | X-H torsion
[ 8008 7997 7996 7995 ] final  -75.19 input   59.86 | X-H torsion
[ 10167 10162 10161 10158 ] final -113.12 input  -65.29 | X-H torsion
[ 10718 10713 10712 10709 ] final   46.41 input   66.30 | X-H torsion
[ 10763 10752 10751 10750 ] final   17.92 input  -60.55 | X-H torsion
[ 11005 11000 10999 10996 ] final  -12.30 input  -57.11 | X-H torsion

> <Gold.Protein.ActiveResidues>
 VAL166  LYS551  ARG553  GLY616  TRP617  ASP618  TYR619  PRO620  LYS621  CYS622 
 ASP623  PHE694  ASN695  SER759  ASP760  ASP761  ALA762  ILE779  LEU786  VAL792 
 PHE793  MET794  SER795  GLU796  ALA797  LYS798  CYS799  TRP800  GLU811  SER814 

> <Gold.Protein.RotatedAtoms>
  150.8367  134.7643  159.6898 H   0  0  0  0  0  0  0  0  0  0  0  0  # atno 6907 bound_to 6896
  152.4462  134.5485  159.9870 H   0  0  0  0  0  0  0  0  0  0  0  0  # atno 6908 bound_to 6896
  151.5634  133.3362  159.3011 H   0  0  0  0  0  0  0  0  0  0  0  0  # atno 6909 bound_to 6896
  144.7249  139.9615  143.6435 H   0  0  0  0  0  0  0  0  0  0  0  0  # atno 7974 bound_to 7965
  154.5396  140.0748  156.8486 H   0  0  0  0  0  0  0  0  0  0  0  0  # atno 8008 bound_to 7997
  155.3209  140.3396  155.4223 H   0  0  0  0  0  0  0  0  0  0  0  0  # atno 8009 bound_to 7997
  156.1861  140.1669  156.8169 H   0  0  0  0  0  0  0  0  0  0  0  0  # atno 8010 bound_to 7997
  140.1153  143.4491  152.1726 H   0  0  0  0  0  0  0  0  0  0  0  0  # atno 10167 bound_to 10162
  157.4478  130.8120  149.7758 H   0  0  0  0  0  0  0  0  0  0  0  0  # atno 10718 bound_to 10713
  153.1295  135.6737  153.9201 H   0  0  0  0  0  0  0  0  0  0  0  0  # atno 10763 bound_to 10752
  153.8692  135.3072  155.3442 H   0  0  0  0  0  0  0  0  0  0  0  0  # atno 10764 bound_to 10752
  154.7695  135.4947  153.9701 H   0  0  0  0  0  0  0  0  0  0  0  0  # atno 10765 bound_to 10752
  140.7643  133.8490  155.9151 H   0  0  0  0  0  0  0  0  0  0  0  0  # atno 11005 bound_to 11000
  146.0633  139.3625  143.0568 LP  0  0  0  0  0  0  0  0  0  0  0  0  # atno 17320 bound_to 7965
  145.8064  140.9747  143.0972 LP  0  0  0  0  0  0  0  0  0  0  0  0  # atno 17321 bound_to 7965
  139.5597  144.7397  151.4190 LP  0  0  0  0  0  0  0  0  0  0  0  0  # atno 17342 bound_to 10162
  140.6903  143.7878  150.7245 LP  0  0  0  0  0  0  0  0  0  0  0  0  # atno 17343 bound_to 10162
  155.9974  130.3900  150.2740 LP  0  0  0  0  0  0  0  0  0  0  0  0  # atno 17370 bound_to 10713
  157.0910  131.0169  151.3122 LP  0  0  0  0  0  0  0  0  0  0  0  0  # atno 17371 bound_to 10713
  140.9634  134.1626  157.4635 LP  0  0  0  0  0  0  0  0  0  0  0  0  # atno 17394 bound_to 11000
  139.8766  134.9953  156.5736 LP  0  0  0  0  0  0  0  0  0  0  0  0  # atno 17395 bound_to 11000

$$$$
