AV-unprocessed.smi:336|AV-procd|sdf|2371|dock2
  -GOLD-   2262022293D 1   1.00000     0.00000
 Structure written by MMmdl.
 34 36  0  0  0  0  0  0  0  0  1 V2000
  150.2126  142.1054  158.0933 O   0  0  0  0  0  0  0  0  0  0  0  0
  151.3598  141.6687  158.0056 C   0  0  0  0  0  0  0  0  0  0  0  0
  151.8051  140.8500  157.0368 N   0  0  0  0  0  0  0  0  0  0  0  0
  151.0812  140.2927  155.9479 C   0  0  0  0  0  0  0  0  0  0  0  0
  149.8725  140.8262  155.4382 C   0  0  0  0  0  0  0  0  0  0  0  0
  149.2397  140.1708  154.3643 C   0  0  0  0  0  0  0  0  0  0  0  0
  149.8327  139.0038  153.8447 C   0  0  0  0  0  0  0  0  0  0  0  0
  150.9760  138.4759  154.3302 N   0  0  0  0  0  0  0  0  0  0  0  0
  151.5765  139.1091  155.3605 C   0  0  0  0  0  0  0  0  0  0  0  0
  152.3413  141.9727  158.8691 N   0  0  0  0  0  0  0  0  0  0  0  0
  152.2376  142.8409  160.0412 C   0  0  0  0  0  0  0  0  0  0  0  0
  151.9707  144.3008  159.7049 C   0  0  0  0  0  0  0  0  0  0  0  0
  151.0395  144.6880  158.5805 C   0  0  0  0  0  0  0  0  0  0  0  0
  152.5269  144.9293  158.4504 C   0  0  0  0  0  0  0  0  0  0  0  0
  153.4074  142.7127  161.0059 C   0  0  0  0  0  0  0  0  0  0  0  0
  153.6801  141.4198  161.7362 C   0  0  0  0  0  0  0  0  0  0  0  0
  153.1863  142.6295  162.4979 C   0  0  0  0  0  0  0  0  0  0  0  0
  152.7934  140.6449  157.0485 H   0  0  0  0  0  0  0  0  0  0  0  0
  149.4128  141.7091  155.8542 H   0  0  0  0  0  0  0  0  0  0  0  0
  148.3175  140.5519  153.9513 H   0  0  0  0  0  0  0  0  0  0  0  0
  149.3731  138.4774  153.0213 H   0  0  0  0  0  0  0  0  0  0  0  0
  152.4875  138.6565  155.7244 H   0  0  0  0  0  0  0  0  0  0  0  0
  153.2493  141.5649  158.7007 H   0  0  0  0  0  0  0  0  0  0  0  0
  151.3553  142.4766  160.5694 H   0  0  0  0  0  0  0  0  0  0  0  0
  151.9326  144.9498  160.5778 H   0  0  0  0  0  0  0  0  0  0  0  0
  150.6085  143.8932  157.9752 H   0  0  0  0  0  0  0  0  0  0  0  0
  150.3998  145.5541  158.7364 H   0  0  0  0  0  0  0  0  0  0  0  0
  152.8787  145.9567  158.5184 H   0  0  0  0  0  0  0  0  0  0  0  0
  153.0821  144.2903  157.7664 H   0  0  0  0  0  0  0  0  0  0  0  0
  154.2879  143.2755  160.7013 H   0  0  0  0  0  0  0  0  0  0  0  0
  152.9816  140.5982  161.5909 H   0  0  0  0  0  0  0  0  0  0  0  0
  154.7201  141.1300  161.8707 H   0  0  0  0  0  0  0  0  0  0  0  0
  153.8973  143.1462  163.1395 H   0  0  0  0  0  0  0  0  0  0  0  0
  152.1613  142.6063  162.8625 H   0  0  0  0  0  0  0  0  0  0  0  0
  1  2  2  0  0  0  0
  2  3  1  0  0  0  0
  2 10  1  0  0  0  0
  3  4  1  0  0  0  0
  3 18  1  0  0  0  0
  4  9  1  0  0  0  0
  4  5  2  0  0  0  0
  5  6  1  0  0  0  0
  5 19  1  0  0  0  0
  6  7  2  0  0  0  0
  6 20  1  0  0  0  0
  7  8  1  0  0  0  0
  7 21  1  0  0  0  0
  8  9  2  0  0  0  0
  9 22  1  0  0  0  0
 10 11  1  0  0  0  0
 10 23  1  0  0  0  0
 11 12  1  0  0  0  0
 11 15  1  0  0  0  0
 11 24  1  0  0  0  0
 12 14  1  0  0  0  0
 12 13  1  0  0  0  0
 12 25  1  0  0  0  0
 13 14  1  0  0  0  0
 13 26  1  0  0  0  0
 13 27  1  0  0  0  0
 14 28  1  0  0  0  0
 14 29  1  0  0  0  0
 15 17  1  0  0  0  0
 15 16  1  0  0  0  0
 15 30  1  0  0  0  0
 16 17  1  0  0  0  0
 16 31  1  0  0  0  0
 16 32  1  0  0  0  0
 17 33  1  0  0  0  0
 17 34  1  0  0  0  0
M  END
> <s_m_source_file>
AV-unprocessed.smi

> <i_m_source_file_index>
336

> <i_lp_mmshare_version>
43012

> <i_f3d_flags>
0

> <s_epik_input>
W0NIMl0xW0NIMl1bQ0hdMVtDSF0oW0NIXTJbQ0gyXVtDSDJdMilbTkhdQyg9TylbTkhdYzNbY0hdW2NIXVtjSF1uW2NIXTM=

> <s_epik_cmdline>
J2VwaWtfcHl0aG9uJywgJy1waCcsICc3LjAnLCAnLXRuJywgJzgnLCAnLW1hJywgJzIwMCcsICctbWV0YWxfYmluZGluZycsICctaW1hZScsICc8aW5maWxlLm1hZT4nLCAnLW9tYWUnLCAnPG91dGZpbGUubWFlPic=

> <r_epik_Ionization_Penalty>
0.00498677

> <r_epik_Ionization_Penalty_Charging>
0

> <r_epik_Ionization_Penalty_Neutral>
0.00498677

> <r_epik_State_Penalty>
0.00359262

> <r_epik_Charging_Adjusted_Penalty>
0.00359262

> <i_epik_Tot_Q>
0

> <i_epik_Tot_abs_Q>
0

> <r_epik_Metal_State_Penalty>
-0

> <b_epik_Metal_Only>
0

> <s_lp_Force_Field>
OPLS_2005

> <r_lp_Energy>
27.0567

> <b_lp_Chiralities_Consistent>
1

> <s_lp_Variant>
AV-unprocessed.smi:336-1

> <Gold.Version>
5.8.1

> <Gold.Id.Protein>
6NUR|6NUR_protein|mol2

> <Gold.PLP.Fitness>
45.4260

> <Gold.PLP.PLP>
-41.5266

> <Gold.PLP.part.hbond>
0.0000

> <Gold.PLP.part.metal>
0.0000

> <Gold.PLP.part.buried>
-2.5178

> <Gold.PLP.part.nonpolar>
-38.5772

> <Gold.PLP.part.repulsive>
0.4718

> <Gold.PLP.ligand.clash>
0.0000

> <Gold.PLP.ligand.torsion>
1.3620

> <Gold.PLP.Chemscore.Hbond>
0.0000

> <Gold.PLP.Chemscore.CHOScore>
1.4846

> <Gold.PLP.Chemscore.Metal>
0.0000

> <Gold.Chemscore.Hbonds>
donor molecule, donor type, donor heavy atom, donor atom, acceptor molecule, acceptor atom, score
      L1  C     7    21       P1  7948  1.00
      L1  C     7    21       P1  7957  0.48

> <Gold.PLP.Chemscore.Internal.Correction>
2.1696

> <Gold.Rescore>
     Score         DG    S(hbond)    S(metal)    S(lipo)     H(rot)  DE(clash)    DE(int)     intcor
     12.30     -16.06       0.00        0.00     119.42       1.33       0.31       3.45       ----

> <Gold.Chemscore.Fitness>
12.2999

> <Gold.Chemscore.DG>
-16.0591

> <Gold.Chemscore.ZeroCoef>
-5.4800

> <Gold.Chemscore.Hbond>
0.0000

> <Gold.Chemscore.Metal>
0.0000

> <Gold.Chemscore.Lipo>
119.4181

> <Gold.Chemscore.Internal_Hbond>
0.0000

> <Gold.Chemscore.DEClash>
0.3123

> <Gold.Chemscore.DEInternal>
3.4470

> <Gold.Chemscore.Rot>
1.3253

> <Gold.Chemscore.Internal.Correction>
   9.000000E+99

> <Gold.Chemscore.Hbond.Weighted>
-0.0000

> <Gold.Chemscore.Metal.Weighted>
-0.0000

> <Gold.Chemscore.Lipo.Weighted>
-13.9719

> <Gold.Chemscore.Internal_Hbond.Weighted>
0.0000

> <Gold.Chemscore.DEClash.Weighted>
0.3123

> <Gold.Chemscore.DEInternal.Weighted>
3.4470

> <Gold.Chemscore.Rot.Weighted>
3.3928

> <Gold.Chemscore.Internal.Correction.Weighted>
   9.000000E+99

> <Gold.Protein.RotatedTorsions>
[ 6907 6896 6895 6894 ] final  143.44 input  -60.11 | X-H torsion
[ 7974 7965 7964 7962 ] final   86.75 input  175.53 | X-H torsion
[ 8008 7997 7996 7995 ] final  125.91 input   59.86 | X-H torsion
[ 10167 10162 10161 10158 ] final   19.23 input  -65.29 | X-H torsion
[ 10718 10713 10712 10709 ] final  -53.40 input   66.30 | X-H torsion
[ 10763 10752 10751 10750 ] final -143.41 input  -60.55 | X-H torsion
[ 11005 11000 10999 10996 ] final  -87.35 input  -57.11 | X-H torsion

> <Gold.Protein.ActiveResidues>
 VAL166  LYS551  ARG553  GLY616  TRP617  ASP618  TYR619  PRO620  LYS621  CYS622 
 ASP623  PHE694  ASN695  SER759  ASP760  ASP761  ALA762  ILE779  LEU786  VAL792 
 PHE793  MET794  SER795  GLU796  ALA797  LYS798  CYS799  TRP800  GLU811  SER814 

> <Gold.Protein.RotatedAtoms>
  152.2063  133.4877  159.5085 H   0  0  0  0  0  0  0  0  0  0  0  0  # atno 6907 bound_to 6896
  150.6980  134.1526  159.4155 H   0  0  0  0  0  0  0  0  0  0  0  0  # atno 6908 bound_to 6896
  151.9444  135.0198  160.0588 H   0  0  0  0  0  0  0  0  0  0  0  0  # atno 6909 bound_to 6896
  145.5681  139.2311  143.2421 H   0  0  0  0  0  0  0  0  0  0  0  0  # atno 7974 bound_to 7965
  156.2848  140.2705  156.2025 H   0  0  0  0  0  0  0  0  0  0  0  0  # atno 8008 bound_to 7997
  155.0346  140.0386  157.2505 H   0  0  0  0  0  0  0  0  0  0  0  0  # atno 8009 bound_to 7997
  154.7325  140.2709  155.6449 H   0  0  0  0  0  0  0  0  0  0  0  0  # atno 8010 bound_to 7997
  140.5594  143.9365  150.6632 H   0  0  0  0  0  0  0  0  0  0  0  0  # atno 10167 bound_to 10162
  156.1539  130.4151  149.9901 H   0  0  0  0  0  0  0  0  0  0  0  0  # atno 10718 bound_to 10713
  154.8471  135.3468  154.6183 H   0  0  0  0  0  0  0  0  0  0  0  0  # atno 10763 bound_to 10752
  153.6792  135.6981  153.5128 H   0  0  0  0  0  0  0  0  0  0  0  0  # atno 10764 bound_to 10752
  153.2682  135.4301  155.0917 H   0  0  0  0  0  0  0  0  0  0  0  0  # atno 10765 bound_to 10752
  141.1618  133.7506  156.9294 H   0  0  0  0  0  0  0  0  0  0  0  0  # atno 11005 bound_to 11000
  146.1803  140.6507  142.9192 LP  0  0  0  0  0  0  0  0  0  0  0  0  # atno 17320 bound_to 7965
  144.7450  140.5045  143.6842 LP  0  0  0  0  0  0  0  0  0  0  0  0  # atno 17321 bound_to 7965
  140.2812  143.3388  152.1150 LP  0  0  0  0  0  0  0  0  0  0  0  0  # atno 17342 bound_to 10162
  139.5063  144.6811  151.6006 LP  0  0  0  0  0  0  0  0  0  0  0  0  # atno 17343 bound_to 10162
  156.7750  130.9200  151.3645 LP  0  0  0  0  0  0  0  0  0  0  0  0  # atno 17370 bound_to 10713
  157.6679  130.9024  149.9973 LP  0  0  0  0  0  0  0  0  0  0  0  0  # atno 17371 bound_to 10713
  140.1396  134.9302  157.2449 LP  0  0  0  0  0  0  0  0  0  0  0  0  # atno 17394 bound_to 11000
  140.2852  134.3303  155.7331 LP  0  0  0  0  0  0  0  0  0  0  0  0  # atno 17395 bound_to 11000

$$$$
