AV-unprocessed.smi:1147|AV-procd|sdf|4887|dock4
  -GOLD-   22720 3463D 1   1.00000     0.00000
 Structure written by MMmdl.
 41 42  0  0  0  0  0  0  0  0  1 V2000
  151.9138  144.9622  160.3261 C   0  0  0  0  0  0  0  0  0  0  0  0
  151.9762  143.4416  160.4858 C   0  0  0  0  0  0  0  0  0  0  0  0
  151.9196  142.9797  161.6257 O   0  0  0  0  0  0  0  0  0  0  0  0
  152.0932  142.6621  159.3837 N   0  0  0  0  0  0  0  0  0  0  0  0
  152.1244  143.1483  157.9943 C   0  0  0  0  0  0  0  0  0  0  0  0
  150.9191  142.5664  157.2298 C   0  0  0  0  0  0  0  0  0  0  0  0
  150.9891  141.0936  157.2825 N   0  0  0  0  0  0  0  0  0  0  0  0
  151.2033  140.2555  156.2369 C   0  0  0  0  0  0  0  0  0  0  0  0
  151.0363  140.5845  155.0616 O   0  0  0  0  0  0  0  0  0  0  0  0
  151.6234  139.0265  156.5802 N   0  0  0  0  0  0  0  0  0  0  0  0
  151.9795  137.9525  155.6557 C   0  0  2  0  0  0  0  0  0  0  0  0
  152.9982  138.4598  154.6227 C   0  0  0  0  0  0  0  0  0  0  0  0
  150.7114  137.4056  154.9718 C   0  0  0  0  0  0  0  0  0  0  0  0
  150.5392  135.9795  155.1876 N   0  0  0  0  0  0  0  0  0  0  0  0
  149.5448  135.1549  154.7055 C   0  0  0  0  0  0  0  0  0  0  0  0
  149.8056  133.8947  155.1623 C   0  0  0  0  0  0  0  0  0  0  0  0
  150.9956  134.0516  155.9265 C   0  0  0  0  0  0  0  0  0  0  0  0
  151.4327  135.3003  155.9397 N   0  0  0  0  0  0  0  0  0  0  0  0
  150.9330  140.6149  158.6717 C   0  0  0  0  0  0  0  0  0  0  0  0
  152.1326  141.1924  159.4498 C   0  0  0  0  0  0  0  0  0  0  0  0
  151.0438  145.2538  159.7369 H   0  0  0  0  0  0  0  0  0  0  0  0
  152.8150  145.3374  159.8407 H   0  0  0  0  0  0  0  0  0  0  0  0
  151.8349  145.4478  161.2992 H   0  0  0  0  0  0  0  0  0  0  0  0
  152.1100  144.2337  157.9093 H   0  0  0  0  0  0  0  0  0  0  0  0
  153.0565  142.8277  157.5266 H   0  0  0  0  0  0  0  0  0  0  0  0
  149.9879  142.8949  157.6938 H   0  0  0  0  0  0  0  0  0  0  0  0
  150.8982  142.9757  156.2199 H   0  0  0  0  0  0  0  0  0  0  0  0
  151.7427  138.8317  157.5638 H   0  0  0  0  0  0  0  0  0  0  0  0
  152.4388  137.1368  156.2174 H   0  0  0  0  0  0  0  0  0  0  0  0
  153.2772  137.6681  153.9268 H   0  0  0  0  0  0  0  0  0  0  0  0
  153.9123  138.8081  155.1046 H   0  0  0  0  0  0  0  0  0  0  0  0
  152.5932  139.2877  154.0397 H   0  0  0  0  0  0  0  0  0  0  0  0
  149.8239  137.9318  155.3276 H   0  0  0  0  0  0  0  0  0  0  0  0
  150.7632  137.5770  153.8960 H   0  0  0  0  0  0  0  0  0  0  0  0
  148.7461  135.5293  154.0820 H   0  0  0  0  0  0  0  0  0  0  0  0
  149.2339  132.9972  154.9780 H   0  0  0  0  0  0  0  0  0  0  0  0
  151.5513  133.3001  156.4679 H   0  0  0  0  0  0  0  0  0  0  0  0
  149.9955  140.9371  159.1274 H   0  0  0  0  0  0  0  0  0  0  0  0
  150.9413  139.5267  158.7454 H   0  0  0  0  0  0  0  0  0  0  0  0
  153.0697  140.8399  159.0162 H   0  0  0  0  0  0  0  0  0  0  0  0
  152.1147  140.8141  160.4726 H   0  0  0  0  0  0  0  0  0  0  0  0
  1  2  1  0  0  0  0
  1 21  1  0  0  0  0
  1 22  1  0  0  0  0
  1 23  1  0  0  0  0
  2  3  2  0  0  0  0
  2  4  1  0  0  0  0
  4 20  1  0  0  0  0
  4  5  1  0  0  0  0
  5  6  1  0  0  0  0
  5 24  1  0  0  0  0
  5 25  1  0  0  0  0
  6  7  1  0  0  0  0
  6 26  1  0  0  0  0
  6 27  1  0  0  0  0
  7  8  1  0  0  0  0
  7 19  1  0  0  0  0
  8  9  2  0  0  0  0
  8 10  1  0  0  0  0
 10 11  1  0  0  0  0
 10 28  1  0  0  0  0
 11 12  1  0  0  0  0
 11 13  1  0  0  0  0
 11 29  1  0  0  0  0
 12 30  1  0  0  0  0
 12 31  1  0  0  0  0
 12 32  1  0  0  0  0
 13 14  1  0  0  0  0
 13 33  1  0  0  0  0
 13 34  1  0  0  0  0
 14 18  1  0  0  0  0
 14 15  1  0  0  0  0
 15 16  2  0  0  0  0
 15 35  1  0  0  0  0
 16 17  1  0  0  0  0
 16 36  1  0  0  0  0
 17 18  2  0  0  0  0
 17 37  1  0  0  0  0
 19 20  1  0  0  0  0
 19 38  1  0  0  0  0
 19 39  1  0  0  0  0
 20 40  1  0  0  0  0
 20 41  1  0  0  0  0
M  END
> <s_m_source_file>
AV-unprocessed.smi

> <i_m_source_file_index>
1147

> <i_lp_mmshare_version>
43012

> <i_f3d_flags>
0

> <s_epik_input>
W0NIM11DKD1PKU4xW0NIMl1bQ0gyXU4oW0NIMl1bQ0gyXTEpQyg9TylbTkhdW0NASF0oW0NIM10pW0NIMl1uMltjSF1bY0hdW2NIXW4y

> <s_epik_cmdline>
J2VwaWtfcHl0aG9uJywgJy1waCcsICc3LjAnLCAnLXRuJywgJzgnLCAnLW1hJywgJzIwMCcsICctbWV0YWxfYmluZGluZycsICctaW1hZScsICc8aW5maWxlLm1hZT4nLCAnLW9tYWUnLCAnPG91dGZpbGUubWFlPic=

> <r_lp_tautomer_probability>
1

> <r_epik_Ionization_Penalty>
5.58143e-05

> <r_epik_Ionization_Penalty_Charging>
0

> <r_epik_Ionization_Penalty_Neutral>
5.58143e-05

> <r_epik_State_Penalty>
-0

> <r_epik_Charging_Adjusted_Penalty>
0

> <i_epik_Tot_Q>
0

> <i_epik_Tot_abs_Q>
0

> <r_epik_Metal_State_Penalty>
-0

> <b_epik_Metal_Only>
0

> <s_lp_Force_Field>
OPLS_2005

> <r_lp_Energy>
48.2147

> <b_lp_Chiralities_Consistent>
1

> <s_lp_Variant>
AV-unprocessed.smi:1147-1

> <Gold.Version>
5.8.1

> <Gold.Id.Protein>
6NUR|6NUR_protein|mol2

> <Gold.PLP.Fitness>
45.7263

> <Gold.PLP.PLP>
-39.5632

> <Gold.PLP.part.hbond>
-2.8401

> <Gold.PLP.part.metal>
0.0000

> <Gold.PLP.part.buried>
-4.5569

> <Gold.PLP.part.nonpolar>
-33.0328

> <Gold.PLP.part.repulsive>
0.3062

> <Gold.PLP.ligand.clash>
1.2456

> <Gold.PLP.ligand.torsion>
0.9496

> <Gold.PLP.Chemscore.Hbond>
2.1893

> <Gold.PLP.Chemscore.CHOScore>
0.9025

> <Gold.PLP.Chemscore.Metal>
0.0000

> <Gold.Chemscore.Hbonds>
donor molecule, donor type, donor heavy atom, donor atom, acceptor molecule, acceptor atom, score
      P1  H  6933  6945       L1     3  0.20
      P1  H  7989  7998       L1     9  0.96
      P1  H 10752 10764       L1    18  1.00
      L1  C    15    35       P1  7948  0.90

> <Gold.PLP.Chemscore.Internal.Correction>
0.0323

> <Gold.Rescore>
     Score         DG    S(hbond)    S(metal)    S(lipo)     H(rot)  DE(clash)    DE(int)     intcor
     16.36     -18.81       2.34        0.00      79.20       1.46       0.33       2.12       ----

> <Gold.Chemscore.Fitness>
16.3611

> <Gold.Chemscore.DG>
-18.8140

> <Gold.Chemscore.ZeroCoef>
-5.4800

> <Gold.Chemscore.Hbond>
2.3401

> <Gold.Chemscore.Metal>
0.0000

> <Gold.Chemscore.Lipo>
79.1957

> <Gold.Chemscore.Internal_Hbond>
0.0000

> <Gold.Chemscore.DEClash>
0.3302

> <Gold.Chemscore.DEInternal>
2.1226

> <Gold.Chemscore.Rot>
1.4640

> <Gold.Chemscore.Internal.Correction>
   9.000000E+99

> <Gold.Chemscore.Hbonds>
donor molecule, donor type, donor heavy atom, donor atom, acceptor molecule, acceptor atom, score
      P1  H  6933  6945       L1     3  0.19
      P1  H  7989  7998       L1     9  0.92
      P1  H 10752 10764       L1    18  0.19

> <Gold.Chemscore.Hbond.Weighted>
-7.8158

> <Gold.Chemscore.Metal.Weighted>
-0.0000

> <Gold.Chemscore.Lipo.Weighted>
-9.2659

> <Gold.Chemscore.Internal_Hbond.Weighted>
0.0000

> <Gold.Chemscore.DEClash.Weighted>
0.3302

> <Gold.Chemscore.DEInternal.Weighted>
2.1226

> <Gold.Chemscore.Rot.Weighted>
3.7477

> <Gold.Chemscore.Internal.Correction.Weighted>
   9.000000E+99

> <Gold.Protein.RotatedTorsions>
[ 6907 6896 6895 6894 ] final    4.13 input  -60.11 | X-H torsion
[ 7974 7965 7964 7962 ] final -127.31 input  175.53 | X-H torsion
[ 8008 7997 7996 7995 ] final  146.21 input   59.86 | X-H torsion
[ 10167 10162 10161 10158 ] final  106.81 input  -65.29 | X-H torsion
[ 10718 10713 10712 10709 ] final  -50.03 input   66.30 | X-H torsion
[ 10763 10752 10751 10750 ] final  -45.15 input  -60.55 | X-H torsion
[ 11005 11000 10999 10996 ] final -125.08 input  -57.11 | X-H torsion

> <Gold.Protein.ActiveResidues>
 VAL166  LYS551  ARG553  GLY616  TRP617  ASP618  TYR619  PRO620  LYS621  CYS622 
 ASP623  PHE694  ASN695  SER759  ASP760  ASP761  ALA762  ILE779  LEU786  VAL792 
 PHE793  MET794  SER795  GLU796  ALA797  LYS798  CYS799  TRP800  GLU811  SER814 

> <Gold.Protein.RotatedAtoms>
  151.6363  135.1017  160.0131 H   0  0  0  0  0  0  0  0  0  0  0  0  # atno 6907 bound_to 6896
  152.4079  133.6913  159.6380 H   0  0  0  0  0  0  0  0  0  0  0  0  # atno 6908 bound_to 6896
  150.7971  133.8594  159.3268 H   0  0  0  0  0  0  0  0  0  0  0  0  # atno 6909 bound_to 6896
  144.9784  140.7616  143.4627 H   0  0  0  0  0  0  0  0  0  0  0  0  # atno 7974 bound_to 7965
  156.2862  140.2188  156.5339 H   0  0  0  0  0  0  0  0  0  0  0  0  # atno 8008 bound_to 7997
  154.7426  140.0486  157.0846 H   0  0  0  0  0  0  0  0  0  0  0  0  # atno 8009 bound_to 7997
  155.0212  140.3124  155.4796 H   0  0  0  0  0  0  0  0  0  0  0  0  # atno 8010 bound_to 7997
  139.6979  144.7099  151.1236 H   0  0  0  0  0  0  0  0  0  0  0  0  # atno 10167 bound_to 10162
  156.1838  130.4151  149.9469 H   0  0  0  0  0  0  0  0  0  0  0  0  # atno 10718 bound_to 10713
  154.0237  135.6666  153.4774 H   0  0  0  0  0  0  0  0  0  0  0  0  # atno 10763 bound_to 10752
  153.0569  135.5051  154.7998 H   0  0  0  0  0  0  0  0  0  0  0  0  # atno 10764 bound_to 10752
  154.6921  135.3063  154.9429 H   0  0  0  0  0  0  0  0  0  0  0  0  # atno 10765 bound_to 10752
  140.9790  134.0700  157.3786 H   0  0  0  0  0  0  0  0  0  0  0  0  # atno 11005 bound_to 11000
  145.2456  139.2053  143.4969 LP  0  0  0  0  0  0  0  0  0  0  0  0  # atno 17320 bound_to 7965
  146.3401  140.2360  142.8594 LP  0  0  0  0  0  0  0  0  0  0  0  0  # atno 17321 bound_to 7965
  140.7701  143.5466  150.9252 LP  0  0  0  0  0  0  0  0  0  0  0  0  # atno 17342 bound_to 10162
  139.9146  143.6678  152.3108 LP  0  0  0  0  0  0  0  0  0  0  0  0  # atno 17343 bound_to 10162
  156.7231  130.9014  151.3620 LP  0  0  0  0  0  0  0  0  0  0  0  0  # atno 17370 bound_to 10713
  157.6885  130.9210  150.0451 LP  0  0  0  0  0  0  0  0  0  0  0  0  # atno 17371 bound_to 10713
  139.8942  135.0135  156.6940 LP  0  0  0  0  0  0  0  0  0  0  0  0  # atno 17394 bound_to 11000
  140.7215  133.9136  155.8150 LP  0  0  0  0  0  0  0  0  0  0  0  0  # atno 17395 bound_to 11000

$$$$
