AV-unprocessed.smi:3340|AV-procd|sdf|12882|dock7
  -GOLD-   2272019283D 1   1.00000     0.00000
 Structure written by MMmdl.
 41 42  0  0  0  0  0  0  0  0  1 V2000
  145.9517  131.7416  149.1648 C   0  0  0  0  0  0  0  0  0  0  0  0
  144.6993  132.4129  149.7331 C   0  0  0  0  0  0  0  0  0  0  0  0
  143.6089  131.8906  149.4995 O   0  0  0  0  0  0  0  0  0  0  0  0
  144.8271  133.5457  150.4656 N   0  0  0  0  0  0  0  0  0  0  0  0
  146.1325  134.1437  150.7852 C   0  0  0  0  0  0  0  0  0  0  0  0
  146.3390  134.1140  152.3129 C   0  0  0  0  0  0  0  0  0  0  0  0
  145.2363  134.8528  152.9576 N   0  0  0  0  0  0  0  0  0  0  0  0
  145.3347  136.0272  153.6310 C   0  0  0  0  0  0  0  0  0  0  0  0
  144.4926  136.4066  154.4454 O   0  0  0  0  0  0  0  0  0  0  0  0
  146.4430  136.7397  153.3555 N   0  0  0  0  0  0  0  0  0  0  0  0
  146.8528  138.0231  153.9332 C   0  0  1  0  0  0  0  0  0  0  0  0
  148.0999  137.8708  154.8213 C   0  0  0  0  0  0  0  0  0  0  0  0
  147.0210  139.1318  152.8698 C   0  0  0  0  0  0  0  0  0  0  0  0
  147.2949  140.4289  153.4603 N   0  0  0  0  0  0  0  0  0  0  0  0
  146.3880  141.2715  154.0900 C   0  0  0  0  0  0  0  0  0  0  0  0
  147.0963  142.3813  154.4918 C   0  0  0  0  0  0  0  0  0  0  0  0
  148.4320  142.2447  154.1203 N   0  0  0  0  0  0  0  0  0  0  0  0
  148.4724  141.0662  153.5121 C   0  0  0  0  0  0  0  0  0  0  0  0
  143.9373  134.2378  152.6442 C   0  0  0  0  0  0  0  0  0  0  0  0
  143.7238  134.2695  151.1175 C   0  0  0  0  0  0  0  0  0  0  0  0
  146.4788  132.4153  148.4888 H   0  0  0  0  0  0  0  0  0  0  0  0
  145.6860  130.8469  148.6008 H   0  0  0  0  0  0  0  0  0  0  0  0
  146.6268  131.4406  149.9665 H   0  0  0  0  0  0  0  0  0  0  0  0
  146.9632  133.6325  150.2971 H   0  0  0  0  0  0  0  0  0  0  0  0
  146.1566  135.1716  150.4202 H   0  0  0  0  0  0  0  0  0  0  0  0
  146.3326  133.0832  152.6705 H   0  0  0  0  0  0  0  0  0  0  0  0
  147.3316  134.4962  152.5497 H   0  0  0  0  0  0  0  0  0  0  0  0
  147.0778  136.3423  152.6785 H   0  0  0  0  0  0  0  0  0  0  0  0
  146.0338  138.3192  154.5898 H   0  0  0  0  0  0  0  0  0  0  0  0
  148.3154  138.7990  155.3509 H   0  0  0  0  0  0  0  0  0  0  0  0
  148.9852  137.6148  154.2391 H   0  0  0  0  0  0  0  0  0  0  0  0
  147.9565  137.0923  155.5713 H   0  0  0  0  0  0  0  0  0  0  0  0
  147.8494  138.8853  152.2046 H   0  0  0  0  0  0  0  0  0  0  0  0
  146.1371  139.2137  152.2365 H   0  0  0  0  0  0  0  0  0  0  0  0
  145.3441  141.0162  154.1998 H   0  0  0  0  0  0  0  0  0  0  0  0
  146.7502  143.2600  155.0160 H   0  0  0  0  0  0  0  0  0  0  0  0
  149.3812  140.6543  153.0986 H   0  0  0  0  0  0  0  0  0  0  0  0
  143.9284  133.2089  153.0069 H   0  0  0  0  0  0  0  0  0  0  0  0
  143.1022  134.7343  153.1402 H   0  0  0  0  0  0  0  0  0  0  0  0
  143.7154  135.3008  150.7612 H   0  0  0  0  0  0  0  0  0  0  0  0
  142.7385  133.8701  150.8834 H   0  0  0  0  0  0  0  0  0  0  0  0
  1  2  1  0  0  0  0
  1 21  1  0  0  0  0
  1 22  1  0  0  0  0
  1 23  1  0  0  0  0
  2  3  2  0  0  0  0
  2  4  1  0  0  0  0
  4 20  1  0  0  0  0
  4  5  1  0  0  0  0
  5  6  1  0  0  0  0
  5 24  1  0  0  0  0
  5 25  1  0  0  0  0
  6  7  1  0  0  0  0
  6 26  1  0  0  0  0
  6 27  1  0  0  0  0
  7  8  1  0  0  0  0
  7 19  1  0  0  0  0
  8  9  2  0  0  0  0
  8 10  1  0  0  0  0
 10 11  1  0  0  0  0
 10 28  1  0  0  0  0
 11 12  1  0  0  0  0
 11 13  1  0  0  0  0
 11 29  1  0  0  0  0
 12 30  1  0  0  0  0
 12 31  1  0  0  0  0
 12 32  1  0  0  0  0
 13 14  1  0  0  0  0
 13 33  1  0  0  0  0
 13 34  1  0  0  0  0
 14 18  1  0  0  0  0
 14 15  1  0  0  0  0
 15 16  2  0  0  0  0
 15 35  1  0  0  0  0
 16 17  1  0  0  0  0
 16 36  1  0  0  0  0
 17 18  2  0  0  0  0
 18 37  1  0  0  0  0
 19 20  1  0  0  0  0
 19 38  1  0  0  0  0
 19 39  1  0  0  0  0
 20 40  1  0  0  0  0
 20 41  1  0  0  0  0
M  END
> <s_m_source_file>
AV-unprocessed.smi

> <i_m_source_file_index>
3340

> <i_lp_mmshare_version>
43012

> <i_f3d_flags>
0

> <s_epik_input>
W0NIM11DKD1PKU4xW0NIMl1bQ0gyXU4oW0NIMl1bQ0gyXTEpQyg9TylbTkhdW0NASF0oW0NIM10pW0NIMl1uMltjSF1bY0hdbltjSF0y

> <s_epik_cmdline>
J2VwaWtfcHl0aG9uJywgJy1waCcsICc3LjAnLCAnLXRuJywgJzgnLCAnLW1hJywgJzIwMCcsICctbWV0YWxfYmluZGluZycsICctaW1hZScsICc8aW5maWxlLm1hZT4nLCAnLW9tYWUnLCAnPG91dGZpbGUubWFlPic=

> <r_lp_tautomer_probability>
1

> <r_epik_Ionization_Penalty>
0.622948

> <r_epik_Ionization_Penalty_Charging>
0.622904

> <r_epik_Ionization_Penalty_Neutral>
4.39259e-05

> <r_epik_State_Penalty>
0.639086

> <r_epik_Charging_Adjusted_Penalty>
1.26199

> <i_epik_Tot_Q>
0

> <i_epik_Tot_abs_Q>
0

> <r_epik_Metal_State_Penalty>
0.307185

> <b_epik_Metal_Only>
0

> <s_lp_Force_Field>
OPLS_2005

> <r_lp_Energy>
50.7734

> <b_lp_Chiralities_Consistent>
1

> <s_lp_Variant>
AV-unprocessed.smi:3340-4

> <Gold.Version>
5.8.1

> <Gold.Id.Protein>
6NUR|6NUR_protein|mol2

> <Gold.PLP.Fitness>
41.2578

> <Gold.PLP.PLP>
-29.8889

> <Gold.PLP.part.hbond>
-3.0000

> <Gold.PLP.part.metal>
0.0000

> <Gold.PLP.part.buried>
0.5343

> <Gold.PLP.part.nonpolar>
-28.8948

> <Gold.PLP.part.repulsive>
1.6055

> <Gold.PLP.ligand.clash>
0.0000

> <Gold.PLP.ligand.torsion>
0.5088

> <Gold.PLP.Chemscore.Hbond>
1.9600

> <Gold.PLP.Chemscore.CHOScore>
2.1443

> <Gold.PLP.Chemscore.Metal>
0.0000

> <Gold.Chemscore.Hbonds>
donor molecule, donor type, donor heavy atom, donor atom, acceptor molecule, acceptor atom, score
      L1  H    10    28       P1  7948  0.98
      P1  H 10785 10796       L1     3  0.94
      L1  C    15    35       P1 10175  0.99
      L1  C    16    36       P1  8028  0.18
      L1  C    18    37       P1  7957  0.90

> <Gold.PLP.Chemscore.Internal.Correction>
0.0736

> <Gold.Rescore>
     Score         DG    S(hbond)    S(metal)    S(lipo)     H(rot)  DE(clash)    DE(int)     intcor
     12.48     -13.91       1.81        0.00      56.53       1.65       1.05       0.37       ----

> <Gold.Chemscore.Fitness>
12.4831

> <Gold.Chemscore.DG>
-13.9110

> <Gold.Chemscore.ZeroCoef>
-5.4800

> <Gold.Chemscore.Hbond>
1.8066

> <Gold.Chemscore.Metal>
0.0000

> <Gold.Chemscore.Lipo>
56.5254

> <Gold.Chemscore.Internal_Hbond>
0.0000

> <Gold.Chemscore.DEClash>
1.0545

> <Gold.Chemscore.DEInternal>
0.3735

> <Gold.Chemscore.Rot>
1.6471

> <Gold.Chemscore.Internal.Correction>
   9.000000E+99

> <Gold.Chemscore.Hbonds>
donor molecule, donor type, donor heavy atom, donor atom, acceptor molecule, acceptor atom, score
      L1  H    10    28       P1  7948  0.87
      P1  H 10785 10796       L1     3  0.90

> <Gold.Chemscore.Hbond.Weighted>
-6.0342

> <Gold.Chemscore.Metal.Weighted>
-0.0000

> <Gold.Chemscore.Lipo.Weighted>
-6.6135

> <Gold.Chemscore.Internal_Hbond.Weighted>
0.0000

> <Gold.Chemscore.DEClash.Weighted>
1.0545

> <Gold.Chemscore.DEInternal.Weighted>
0.3735

> <Gold.Chemscore.Rot.Weighted>
4.2166

> <Gold.Chemscore.Internal.Correction.Weighted>
   9.000000E+99

> <Gold.Protein.RotatedTorsions>
[ 6907 6896 6895 6894 ] final  106.18 input  -60.11 | X-H torsion
[ 7974 7965 7964 7962 ] final  -55.59 input  175.53 | X-H torsion
[ 8008 7997 7996 7995 ] final  -55.99 input   59.86 | X-H torsion
[ 10167 10162 10161 10158 ] final  179.80 input  -65.29 | X-H torsion
[ 10718 10713 10712 10709 ] final   -3.04 input   66.30 | X-H torsion
[ 10763 10752 10751 10750 ] final -145.84 input  -60.55 | X-H torsion
[ 11005 11000 10999 10996 ] final -136.54 input  -57.11 | X-H torsion

> <Gold.Protein.ActiveResidues>
 VAL166  LYS551  ARG553  GLY616  TRP617  ASP618  TYR619  PRO620  LYS621  CYS622 
 ASP623  PHE694  ASN695  SER759  ASP760  ASP761  ALA762  ILE779  LEU786  VAL792 
 PHE793  MET794  SER795  GLU796  ALA797  LYS798  CYS799  TRP800  GLU811  SER814 

> <Gold.Protein.RotatedAtoms>
  152.5203  133.9419  159.7630 H   0  0  0  0  0  0  0  0  0  0  0  0  # atno 6907 bound_to 6896
  150.9747  133.6298  159.2739 H   0  0  0  0  0  0  0  0  0  0  0  0  # atno 6908 bound_to 6896
  151.3497  135.0887  159.9452 H   0  0  0  0  0  0  0  0  0  0  0  0  # atno 6909 bound_to 6896
  145.8725  140.8206  142.9881 H   0  0  0  0  0  0  0  0  0  0  0  0  # atno 7974 bound_to 7965
  154.4214  140.1140  156.5566 H   0  0  0  0  0  0  0  0  0  0  0  0  # atno 8008 bound_to 7997
  155.6355  140.3496  155.4678 H   0  0  0  0  0  0  0  0  0  0  0  0  # atno 8009 bound_to 7997
  155.9913  140.1180  157.0625 H   0  0  0  0  0  0  0  0  0  0  0  0  # atno 8010 bound_to 7997
  139.5352  144.2517  152.0779 H   0  0  0  0  0  0  0  0  0  0  0  0  # atno 10167 bound_to 10162
  156.7819  130.5333  149.5749 H   0  0  0  0  0  0  0  0  0  0  0  0  # atno 10718 bound_to 10713
  154.8364  135.3402  154.6568 H   0  0  0  0  0  0  0  0  0  0  0  0  # atno 10763 bound_to 10752
  153.7182  135.6960  153.5024 H   0  0  0  0  0  0  0  0  0  0  0  0  # atno 10764 bound_to 10752
  153.2401  135.4387  155.0641 H   0  0  0  0  0  0  0  0  0  0  0  0  # atno 10765 bound_to 10752
  140.8795  134.1950  157.4600 H   0  0  0  0  0  0  0  0  0  0  0  0  # atno 11005 bound_to 11000
  144.6726  140.1260  143.7447 LP  0  0  0  0  0  0  0  0  0  0  0  0  # atno 17320 bound_to 7965
  145.9120  139.2493  143.1432 LP  0  0  0  0  0  0  0  0  0  0  0  0  # atno 17321 bound_to 7965
  140.1987  144.4680  150.6442 LP  0  0  0  0  0  0  0  0  0  0  0  0  # atno 17342 bound_to 10162
  140.6555  143.2236  151.5979 LP  0  0  0  0  0  0  0  0  0  0  0  0  # atno 17343 bound_to 10162
  156.1213  130.6111  151.0197 LP  0  0  0  0  0  0  0  0  0  0  0  0  # atno 17370 bound_to 10713
  157.6642  131.0875  150.7767 LP  0  0  0  0  0  0  0  0  0  0  0  0  # atno 17371 bound_to 10713
  139.8718  134.9811  156.5101 LP  0  0  0  0  0  0  0  0  0  0  0  0  # atno 17394 bound_to 11000
  140.8478  133.8155  155.9138 LP  0  0  0  0  0  0  0  0  0  0  0  0  # atno 17395 bound_to 11000

$$$$
