AV-unprocessed.smi:1531|AV-procd|sdf|6158|dock10
  -GOLD-   22720 6303D 1   1.00000     0.00000
 Structure written by MMmdl.
 44 45  0  0  0  0  0  0  0  0  1 V2000
  144.6586  143.8628  154.6739 C   0  0  0  0  0  0  0  0  0  0  0  0
  144.7532  142.3508  154.9200 C   0  0  0  0  0  0  0  0  0  0  0  0
  146.2001  141.8137  155.0096 C   0  0  2  0  0  0  0  0  0  0  0  0
  147.0322  142.2725  153.7921 C   0  0  0  0  0  0  0  0  0  0  0  0
  148.4907  141.7971  153.8822 C   0  0  0  0  0  0  0  0  0  0  0  0
  148.5695  140.2718  154.0340 C   0  0  0  0  0  0  0  0  0  0  0  0
  147.7561  139.7953  155.2485 C   0  0  0  0  0  0  0  0  0  0  0  0
  146.2909  140.2750  155.1966 C   0  0  2  0  0  0  0  0  0  0  0  0
  145.5615  139.5663  154.1436 N   0  0  0  0  0  0  0  0  0  0  0  0
  145.6912  138.2685  153.8340 C   0  0  0  0  0  0  0  0  0  0  0  0
  146.4621  137.5003  154.4097 O   0  0  0  0  0  0  0  0  0  0  0  0
  144.8782  137.9280  152.8208 N   0  0  0  0  0  0  0  0  0  0  0  0
  144.7092  136.6415  152.2498 C   0  0  0  0  0  0  0  0  0  0  0  0
  143.4577  136.0087  152.0332 C   0  0  0  0  0  0  0  0  0  0  0  0
  143.6144  134.8100  151.4924 N   0  0  0  0  0  0  0  0  0  0  0  0
  144.9557  134.6562  151.3576 N   0  0  0  0  0  0  0  0  0  0  0  0
  145.4863  133.4304  150.7878 C   0  0  0  0  0  0  0  0  0  0  0  0
  144.4182  132.6797  149.9905 C   0  0  0  0  0  0  0  0  0  0  0  0
  144.0575  133.1987  148.8134 N   0  0  0  0  0  0  0  0  0  0  0  0
  143.9278  131.6414  150.4288 O   0  0  0  0  0  0  0  0  0  0  0  0
  145.6545  135.7575  151.8125 C   0  0  0  0  0  0  0  0  0  0  0  0
  143.6212  144.1651  154.5296 H   0  0  0  0  0  0  0  0  0  0  0  0
  145.2153  144.1539  153.7827 H   0  0  0  0  0  0  0  0  0  0  0  0
  145.0484  144.4323  155.5173 H   0  0  0  0  0  0  0  0  0  0  0  0
  144.1952  142.0940  155.8211 H   0  0  0  0  0  0  0  0  0  0  0  0
  144.2409  141.8435  154.1017 H   0  0  0  0  0  0  0  0  0  0  0  0
  146.6539  142.2703  155.8906 H   0  0  0  0  0  0  0  0  0  0  0  0
  146.5834  141.8973  152.8718 H   0  0  0  0  0  0  0  0  0  0  0  0
  147.0137  143.3605  153.7180 H   0  0  0  0  0  0  0  0  0  0  0  0
  149.0396  142.1104  152.9938 H   0  0  0  0  0  0  0  0  0  0  0  0
  148.9796  142.2751  154.7320 H   0  0  0  0  0  0  0  0  0  0  0  0
  148.1978  139.7926  153.1274 H   0  0  0  0  0  0  0  0  0  0  0  0
  149.6096  139.9630  154.1402 H   0  0  0  0  0  0  0  0  0  0  0  0
  147.7958  138.7077  155.3213 H   0  0  0  0  0  0  0  0  0  0  0  0
  148.2233  140.1749  156.1582 H   0  0  0  0  0  0  0  0  0  0  0  0
  145.8460  140.0335  156.1630 H   0  0  0  0  0  0  0  0  0  0  0  0
  144.9025  140.1139  153.6100 H   0  0  0  0  0  0  0  0  0  0  0  0
  144.3152  138.6643  152.4206 H   0  0  0  0  0  0  0  0  0  0  0  0
  142.4622  136.3705  152.2447 H   0  0  0  0  0  0  0  0  0  0  0  0
  146.3310  133.6781  150.1434 H   0  0  0  0  0  0  0  0  0  0  0  0
  145.8704  132.7949  151.5873 H   0  0  0  0  0  0  0  0  0  0  0  0
  143.3587  132.7368  148.2493 H   0  0  0  0  0  0  0  0  0  0  0  0
  144.4897  134.0521  148.4902 H   0  0  0  0  0  0  0  0  0  0  0  0
  146.7331  135.8040  151.7828 H   0  0  0  0  0  0  0  0  0  0  0  0
  1  2  1  0  0  0  0
  1 22  1  0  0  0  0
  1 23  1  0  0  0  0
  1 24  1  0  0  0  0
  2  3  1  0  0  0  0
  2 25  1  0  0  0  0
  2 26  1  0  0  0  0
  3  8  1  0  0  0  0
  3  4  1  0  0  0  0
  3 27  1  0  0  0  0
  4  5  1  0  0  0  0
  4 28  1  0  0  0  0
  4 29  1  0  0  0  0
  5  6  1  0  0  0  0
  5 30  1  0  0  0  0
  5 31  1  0  0  0  0
  6  7  1  0  0  0  0
  6 32  1  0  0  0  0
  6 33  1  0  0  0  0
  7  8  1  0  0  0  0
  7 34  1  0  0  0  0
  7 35  1  0  0  0  0
  8  9  1  0  0  0  0
  8 36  1  0  0  0  0
  9 10  1  0  0  0  0
  9 37  1  0  0  0  0
 10 11  2  0  0  0  0
 10 12  1  0  0  0  0
 12 13  1  0  0  0  0
 12 38  1  0  0  0  0
 13 21  2  0  0  0  0
 13 14  1  0  0  0  0
 14 15  2  0  0  0  0
 14 39  1  0  0  0  0
 15 16  1  0  0  0  0
 16 17  1  0  0  0  0
 16 21  1  0  0  0  0
 17 18  1  0  0  0  0
 17 40  1  0  0  0  0
 17 41  1  0  0  0  0
 18 19  1  0  0  0  0
 18 20  2  0  0  0  0
 19 42  1  0  0  0  0
 19 43  1  0  0  0  0
 21 44  1  0  0  0  0
M  END
> <s_m_source_file>
AV-unprocessed.smi

> <i_m_source_file_index>
1531

> <i_lp_mmshare_version>
43012

> <i_f3d_flags>
0

> <s_epik_input>
W0NIM11bQ0gyXVtDQEBIXTFbQ0gyXVtDSDJdW0NIMl1bQ0gyXVtDQEhdMVtOSF1DKD1PKVtOSF1jMltjSF1ubihbY0hdMilbQ0gyXUMoPU8pW05IMl0=

> <s_epik_cmdline>
J2VwaWtfcHl0aG9uJywgJy1waCcsICc3LjAnLCAnLXRuJywgJzgnLCAnLW1hJywgJzIwMCcsICctbWV0YWxfYmluZGluZycsICctaW1hZScsICc8aW5maWxlLm1hZT4nLCAnLW9tYWUnLCAnPG91dGZpbGUubWFlPic=

> <r_lp_tautomer_probability>
1

> <r_epik_Ionization_Penalty>
4.83437e-05

> <r_epik_Ionization_Penalty_Charging>
0

> <r_epik_Ionization_Penalty_Neutral>
4.83437e-05

> <r_epik_State_Penalty>
-0

> <r_epik_Charging_Adjusted_Penalty>
0

> <i_epik_Tot_Q>
0

> <i_epik_Tot_abs_Q>
0

> <r_epik_Metal_State_Penalty>
-0

> <b_epik_Metal_Only>
0

> <s_lp_Force_Field>
OPLS_2005

> <r_lp_Energy>
15.1652

> <b_lp_Chiralities_Consistent>
1

> <s_lp_Variant>
AV-unprocessed.smi:1531-3

> <Gold.Version>
5.8.1

> <Gold.Id.Protein>
6NUR|6NUR_protein|mol2

> <Gold.PLP.Fitness>
44.0563

> <Gold.PLP.PLP>
-32.9291

> <Gold.PLP.part.hbond>
-4.1582

> <Gold.PLP.part.metal>
0.0000

> <Gold.PLP.part.buried>
-4.9425

> <Gold.PLP.part.nonpolar>
-25.1235

> <Gold.PLP.part.repulsive>
0.6738

> <Gold.PLP.ligand.clash>
0.0000

> <Gold.PLP.ligand.torsion>
1.1245

> <Gold.PLP.Chemscore.Hbond>
3.4499

> <Gold.PLP.Chemscore.CHOScore>
1.0000

> <Gold.PLP.Chemscore.Metal>
0.0000

> <Gold.Chemscore.Hbonds>
donor molecule, donor type, donor heavy atom, donor atom, acceptor molecule, acceptor atom, score
      L1  H     9    37       P1 10175  1.00
      L1  H    12    38       P1 10175  1.00
      L1  H    19    43       P1  7921  0.88
      P1  H 10785 10796       L1    20  0.12
      L1  C    21    44       P1  7948  1.00

> <Gold.PLP.Chemscore.Internal.Correction>
0.0266

> <Gold.Rescore>
     Score         DG    S(hbond)    S(metal)    S(lipo)     H(rot)  DE(clash)    DE(int)     intcor
     15.58     -17.27       3.33        0.00      52.33       2.13       0.28       1.41       ----

> <Gold.Chemscore.Fitness>
15.5815

> <Gold.Chemscore.DG>
-17.2723

> <Gold.Chemscore.ZeroCoef>
-5.4800

> <Gold.Chemscore.Hbond>
3.3326

> <Gold.Chemscore.Metal>
0.0000

> <Gold.Chemscore.Lipo>
52.3342

> <Gold.Chemscore.Internal_Hbond>
0.0000

> <Gold.Chemscore.DEClash>
0.2843

> <Gold.Chemscore.DEInternal>
1.4065

> <Gold.Chemscore.Rot>
2.1335

> <Gold.Chemscore.Internal.Correction>
   9.000000E+99

> <Gold.Chemscore.Hbonds>
donor molecule, donor type, donor heavy atom, donor atom, acceptor molecule, acceptor atom, score
      L1  H     9    37       P1 10175  1.00
      L1  H    12    38       P1 10175  0.95
      L1  H    19    43       P1  7921  0.84
      P1  H 10785 10796       L1    20  0.12

> <Gold.Chemscore.Hbond.Weighted>
-11.1311

> <Gold.Chemscore.Metal.Weighted>
-0.0000

> <Gold.Chemscore.Lipo.Weighted>
-6.1231

> <Gold.Chemscore.Internal_Hbond.Weighted>
0.0000

> <Gold.Chemscore.DEClash.Weighted>
0.2843

> <Gold.Chemscore.DEInternal.Weighted>
1.4065

> <Gold.Chemscore.Rot.Weighted>
5.4618

> <Gold.Chemscore.Internal.Correction.Weighted>
   9.000000E+99

> <Gold.Protein.RotatedTorsions>
[ 6907 6896 6895 6894 ] final -154.83 input  -60.11 | X-H torsion
[ 7974 7965 7964 7962 ] final  109.56 input  175.53 | X-H torsion
[ 8008 7997 7996 7995 ] final  160.52 input   59.86 | X-H torsion
[ 10167 10162 10161 10158 ] final  -62.64 input  -65.29 | X-H torsion
[ 10718 10713 10712 10709 ] final   83.57 input   66.30 | X-H torsion
[ 10763 10752 10751 10750 ] final   55.80 input  -60.55 | X-H torsion
[ 11005 11000 10999 10996 ] final   55.08 input  -57.11 | X-H torsion

> <Gold.Protein.ActiveResidues>
 VAL166  LYS551  ARG553  GLY616  TRP617  ASP618  TYR619  PRO620  LYS621  CYS622 
 ASP623  PHE694  ASN695  SER759  ASP760  ASP761  ALA762  ILE779  LEU786  VAL792 
 PHE793  MET794  SER795  GLU796  ALA797  LYS798  CYS799  TRP800  GLU811  SER814 

> <Gold.Protein.RotatedAtoms>
  151.2634  133.4291  159.2617 H   0  0  0  0  0  0  0  0  0  0  0  0  # atno 6907 bound_to 6896
  151.0510  134.9673  159.8222 H   0  0  0  0  0  0  0  0  0  0  0  0  # atno 6908 bound_to 6896
  152.5382  134.2588  159.8980 H   0  0  0  0  0  0  0  0  0  0  0  0  # atno 6909 bound_to 6896
  145.2662  139.2684  143.3991 H   0  0  0  0  0  0  0  0  0  0  0  0  # atno 7974 bound_to 7965
  156.2167  140.1802  156.7573 H   0  0  0  0  0  0  0  0  0  0  0  0  # atno 8008 bound_to 7997
  154.5802  140.0667  156.9121 H   0  0  0  0  0  0  0  0  0  0  0  0  # atno 8009 bound_to 7997
  155.2517  140.3329  155.4284 H   0  0  0  0  0  0  0  0  0  0  0  0  # atno 8010 bound_to 7997
  140.5925  143.2344  151.6108 H   0  0  0  0  0  0  0  0  0  0  0  0  # atno 10167 bound_to 10162
  157.6881  131.0096  150.2543 H   0  0  0  0  0  0  0  0  0  0  0  0  # atno 10718 bound_to 10713
  152.9822  135.5698  154.5126 H   0  0  0  0  0  0  0  0  0  0  0  0  # atno 10763 bound_to 10752
  154.4627  135.2782  155.1703 H   0  0  0  0  0  0  0  0  0  0  0  0  # atno 10764 bound_to 10752
  154.3283  135.6254  153.5593 H   0  0  0  0  0  0  0  0  0  0  0  0  # atno 10765 bound_to 10752
  140.0636  134.5568  155.9125 H   0  0  0  0  0  0  0  0  0  0  0  0  # atno 11005 bound_to 11000
  146.3260  140.3092  142.8625 LP  0  0  0  0  0  0  0  0  0  0  0  0  # atno 17320 bound_to 7965
  144.9375  140.8042  143.5651 LP  0  0  0  0  0  0  0  0  0  0  0  0  # atno 17321 bound_to 7965
  139.5237  144.3126  152.0979 LP  0  0  0  0  0  0  0  0  0  0  0  0  # atno 17342 bound_to 10162
  140.2293  144.4385  150.6307 LP  0  0  0  0  0  0  0  0  0  0  0  0  # atno 17343 bound_to 10162
  156.3134  130.3775  149.7641 LP  0  0  0  0  0  0  0  0  0  0  0  0  # atno 17370 bound_to 10713
  156.5234  130.8225  151.3212 LP  0  0  0  0  0  0  0  0  0  0  0  0  # atno 17371 bound_to 10713
  141.1983  133.6601  156.5786 LP  0  0  0  0  0  0  0  0  0  0  0  0  # atno 17394 bound_to 11000
  140.3733  134.7586  157.4613 LP  0  0  0  0  0  0  0  0  0  0  0  0  # atno 17395 bound_to 11000

$$$$
