AV-unprocessed.smi:1135|AV-procd|sdf|4861|dock4
  -GOLD-   22720 3433D 1   1.00000     0.00000
 Structure written by MMmdl.
 46 47  0  0  0  0  0  0  0  0  2 V2000
  143.0282  146.4272  155.6800 C   0  0  0  0  0  0  0  0  0  0  0  0
  143.4089  146.0581  157.1207 C   0  0  2  0  0  0  0  0  0  0  0  0
  144.7830  146.6340  157.5076 C   0  0  0  0  0  0  0  0  0  0  0  0
  145.1723  146.2536  158.9488 C   0  0  0  0  0  0  0  0  0  0  0  0
  145.1609  144.7260  159.1970 C   0  0  2  0  0  0  0  0  0  0  0  0
  145.4208  144.4677  160.6982 C   0  0  0  0  0  0  0  0  0  0  0  0
  146.2427  144.1337  158.3957 N   0  0  0  0  0  0  0  0  0  0  0  0
  146.7320  142.8846  158.4554 C   0  0  0  0  0  0  0  0  0  0  0  0
  146.3021  141.9993  159.1949 O   0  0  0  0  0  0  0  0  0  0  0  0
  147.7808  142.7244  157.6351 N   0  0  0  0  0  0  0  0  0  0  0  0
  148.5952  141.5145  157.5365 C   0  0  0  0  0  0  0  0  0  0  0  0
  149.9063  141.7454  156.7565 C   0  0  0  0  0  0  0  0  0  0  0  0
  150.9817  142.4600  157.5577 C   0  0  0  0  0  0  0  0  0  0  0  0
  151.7442  141.8014  158.5474 C   0  0  0  0  0  0  0  0  0  0  0  0
  152.7541  142.5135  159.2271 C   0  0  0  0  0  0  0  0  0  0  0  0
  152.9766  143.8689  158.9078 C   0  0  0  0  0  0  0  0  0  0  0  0
  152.1830  144.4784  157.9149 C   0  0  0  0  0  0  0  0  0  0  0  0
  151.2263  143.7621  157.2845 N   0  3  0  0  0  0  0  0  0  0  0  0
  143.7728  144.1684  158.7840 C   0  0  0  0  0  0  0  0  0  0  0  0
  143.3874  144.5345  157.3393 C   0  0  0  0  0  0  0  0  0  0  0  0
  143.7370  146.0113  154.9635 H   0  0  0  0  0  0  0  0  0  0  0  0
  143.0116  147.5089  155.5433 H   0  0  0  0  0  0  0  0  0  0  0  0
  142.0375  146.0487  155.4268 H   0  0  0  0  0  0  0  0  0  0  0  0
  142.6617  146.5018  157.7806 H   0  0  0  0  0  0  0  0  0  0  0  0
  145.5431  146.2783  156.8110 H   0  0  0  0  0  0  0  0  0  0  0  0
  144.7688  147.7202  157.4127 H   0  0  0  0  0  0  0  0  0  0  0  0
  146.1550  146.6660  159.1814 H   0  0  0  0  0  0  0  0  0  0  0  0
  144.4758  146.7387  159.6344 H   0  0  0  0  0  0  0  0  0  0  0  0
  144.6852  144.9803  161.3188 H   0  0  0  0  0  0  0  0  0  0  0  0
  146.4066  144.8259  160.9976 H   0  0  0  0  0  0  0  0  0  0  0  0
  145.3646  143.4090  160.9504 H   0  0  0  0  0  0  0  0  0  0  0  0
  146.6848  144.7615  157.7403 H   0  0  0  0  0  0  0  0  0  0  0  0
  148.0575  143.5066  157.0595 H   0  0  0  0  0  0  0  0  0  0  0  0
  148.8153  141.1232  158.5312 H   0  0  0  0  0  0  0  0  0  0  0  0
  148.0042  140.7473  157.0358 H   0  0  0  0  0  0  0  0  0  0  0  0
  150.3015  140.7878  156.4149 H   0  0  0  0  0  0  0  0  0  0  0  0
  149.6970  142.3232  155.8553 H   0  0  0  0  0  0  0  0  0  0  0  0
  151.5688  140.7598  158.7738 H   0  0  0  0  0  0  0  0  0  0  0  0
  153.3535  142.0250  159.9811 H   0  0  0  0  0  0  0  0  0  0  0  0
  153.7461  144.4318  159.4154 H   0  0  0  0  0  0  0  0  0  0  0  0
  152.2870  145.5078  157.6046 H   0  0  0  0  0  0  0  0  0  0  0  0
  143.7296  143.0869  158.9109 H   0  0  0  0  0  0  0  0  0  0  0  0
  143.0121  144.5685  159.4559 H   0  0  0  0  0  0  0  0  0  0  0  0
  142.3932  144.1439  157.1200 H   0  0  0  0  0  0  0  0  0  0  0  0
  144.0670  144.0468  156.6391 H   0  0  0  0  0  0  0  0  0  0  0  0
  150.6722  144.2208  156.5610 H   0  0  0  0  0  0  0  0  0  0  0  0
  1  2  1  0  0  0  0
  1 21  1  0  0  0  0
  1 22  1  0  0  0  0
  1 23  1  0  0  0  0
  2 20  1  0  0  0  0
  2  3  1  0  0  0  0
  2 24  1  0  0  0  0
  3  4  1  0  0  0  0
  3 25  1  0  0  0  0
  3 26  1  0  0  0  0
  4  5  1  0  0  0  0
  4 27  1  0  0  0  0
  4 28  1  0  0  0  0
  5  6  1  0  0  0  0
  5  7  1  0  0  0  0
  5 19  1  0  0  0  0
  6 29  1  0  0  0  0
  6 30  1  0  0  0  0
  6 31  1  0  0  0  0
  7  8  1  0  0  0  0
  7 32  1  0  0  0  0
  8  9  2  0  0  0  0
  8 10  1  0  0  0  0
 10 11  1  0  0  0  0
 10 33  1  0  0  0  0
 11 12  1  0  0  0  0
 11 34  1  0  0  0  0
 11 35  1  0  0  0  0
 12 13  1  0  0  0  0
 12 36  1  0  0  0  0
 12 37  1  0  0  0  0
 13 18  1  0  0  0  0
 13 14  2  0  0  0  0
 14 15  1  0  0  0  0
 14 38  1  0  0  0  0
 15 16  2  0  0  0  0
 15 39  1  0  0  0  0
 16 17  1  0  0  0  0
 16 40  1  0  0  0  0
 17 18  2  0  0  0  0
 17 41  1  0  0  0  0
 18 46  1  0  0  0  0
 19 20  1  0  0  0  0
 19 42  1  0  0  0  0
 19 43  1  0  0  0  0
 20 44  1  0  0  0  0
 20 45  1  0  0  0  0
M  CHG  1  18   1
M  END
> <s_m_source_file>
AV-unprocessed.smi

> <i_m_source_file_index>
1135

> <i_lp_mmshare_version>
43012

> <i_f3d_flags>
0

> <s_epik_input>
W0NIMl0xW0NIMl1bQ0BIXShbQ0gzXSlbQ0gyXVtDSDJdW0NAQF0xKFtDSDNdKVtOSF1DKD1PKVtOSF1bQ0gyXVtDSDJdYzJbY0hdW2NIXVtjSF1bY0hdbjI=

> <s_epik_cmdline>
J2VwaWtfcHl0aG9uJywgJy1waCcsICc3LjAnLCAnLXRuJywgJzgnLCAnLW1hJywgJzIwMCcsICctbWV0YWxfYmluZGluZycsICctaW1hZScsICc8aW5maWxlLm1hZT4nLCAnLW9tYWUnLCAnPG91dGZpbGUubWFlPic=

> <r_epik_Ionization_Penalty>
1.55217

> <r_epik_Ionization_Penalty_Charging>
1.55211

> <r_epik_Ionization_Penalty_Neutral>
5.91929e-05

> <r_epik_State_Penalty>
1.64641

> <r_epik_Charging_Adjusted_Penalty>
3.19851

> <i_epik_Tot_Q>
1

> <i_epik_Tot_abs_Q>
1

> <r_epik_Metal_State_Penalty>
1.68848

> <b_epik_Metal_Only>
0

> <s_lp_Force_Field>
OPLS_2005

> <r_lp_Energy>
12.4708

> <b_lp_Chiralities_Consistent>
1

> <s_lp_Variant>
AV-unprocessed.smi:1135-4

> <Gold.Version>
5.8.1

> <Gold.Id.Protein>
6NUR|6NUR_protein|mol2

> <Gold.PLP.Fitness>
47.9742

> <Gold.PLP.PLP>
-35.8511

> <Gold.PLP.part.hbond>
-4.3842

> <Gold.PLP.part.metal>
0.0000

> <Gold.PLP.part.buried>
-4.0279

> <Gold.PLP.part.nonpolar>
-28.5286

> <Gold.PLP.part.repulsive>
0.0836

> <Gold.PLP.ligand.clash>
0.0000

> <Gold.PLP.ligand.torsion>
0.5134

> <Gold.PLP.Chemscore.Hbond>
4.3760

> <Gold.PLP.Chemscore.CHOScore>
0.0000

> <Gold.PLP.Chemscore.Metal>
0.0000

> <Gold.Chemscore.Hbonds>
donor molecule, donor type, donor heavy atom, donor atom, acceptor molecule, acceptor atom, score
      L1  H     7    32       P1  8029  1.00
      L1  H    10    33       P1  8028  0.40
      L1  H    18    46       P1  8028  1.98
      P1  H  6934  6946       L1     9  0.98

> <Gold.PLP.Chemscore.Internal.Correction>
0.0219

> <Gold.Rescore>
     Score         DG    S(hbond)    S(metal)    S(lipo)     H(rot)  DE(clash)    DE(int)     intcor
     22.24     -22.65       2.93        0.00      96.21       1.51       0.12       0.28       ----

> <Gold.Chemscore.Fitness>
22.2449

> <Gold.Chemscore.DG>
-22.6511

> <Gold.Chemscore.ZeroCoef>
-5.4800

> <Gold.Chemscore.Hbond>
2.9270

> <Gold.Chemscore.Metal>
0.0000

> <Gold.Chemscore.Lipo>
96.2093

> <Gold.Chemscore.Internal_Hbond>
0.0000

> <Gold.Chemscore.DEClash>
0.1230

> <Gold.Chemscore.DEInternal>
0.2832

> <Gold.Chemscore.Rot>
1.5085

> <Gold.Chemscore.Internal.Correction>
   9.000000E+99

> <Gold.Chemscore.Hbonds>
donor molecule, donor type, donor heavy atom, donor atom, acceptor molecule, acceptor atom, score
      L1  H     7    32       P1  8029  0.29
      L1  H    10    33       P1  8028  0.01
      L1  H    18    46       P1  8028  0.90
      P1  H  6934  6946       L1     9  0.91

> <Gold.Chemscore.Hbond.Weighted>
-9.7763

> <Gold.Chemscore.Metal.Weighted>
-0.0000

> <Gold.Chemscore.Lipo.Weighted>
-11.2565

> <Gold.Chemscore.Internal_Hbond.Weighted>
0.0000

> <Gold.Chemscore.DEClash.Weighted>
0.1230

> <Gold.Chemscore.DEInternal.Weighted>
0.2832

> <Gold.Chemscore.Rot.Weighted>
3.8617

> <Gold.Chemscore.Internal.Correction.Weighted>
   9.000000E+99

> <Gold.Protein.RotatedTorsions>
[ 6907 6896 6895 6894 ] final  164.35 input  -60.11 | X-H torsion
[ 7974 7965 7964 7962 ] final   96.40 input  175.53 | X-H torsion
[ 8008 7997 7996 7995 ] final  -51.99 input   59.86 | X-H torsion
[ 10167 10162 10161 10158 ] final -131.34 input  -65.29 | X-H torsion
[ 10718 10713 10712 10709 ] final -175.06 input   66.30 | X-H torsion
[ 10763 10752 10751 10750 ] final  166.87 input  -60.55 | X-H torsion
[ 11005 11000 10999 10996 ] final  -71.95 input  -57.11 | X-H torsion

> <Gold.Protein.ActiveResidues>
 VAL166  LYS551  ARG553  GLY616  TRP617  ASP618  TYR619  PRO620  LYS621  CYS622 
 ASP623  PHE694  ASN695  SER759  ASP760  ASP761  ALA762  ILE779  LEU786  VAL792 
 PHE793  MET794  SER795  GLU796  ALA797  LYS798  CYS799  TRP800  GLU811  SER814 

> <Gold.Protein.RotatedAtoms>
  151.9112  133.3561  159.3863 H   0  0  0  0  0  0  0  0  0  0  0  0  # atno 6907 bound_to 6896
  150.7057  134.4730  159.5443 H   0  0  0  0  0  0  0  0  0  0  0  0  # atno 6908 bound_to 6896
  152.2336  134.8297  160.0521 H   0  0  0  0  0  0  0  0  0  0  0  0  # atno 6909 bound_to 6896
  145.4394  139.2303  143.3100 H   0  0  0  0  0  0  0  0  0  0  0  0  # atno 7974 bound_to 7965
  154.4096  140.1234  156.4919 H   0  0  0  0  0  0  0  0  0  0  0  0  # atno 8008 bound_to 7997
  155.6981  140.3495  155.4902 H   0  0  0  0  0  0  0  0  0  0  0  0  # atno 8009 bound_to 7997
  155.9409  140.1087  157.1046 H   0  0  0  0  0  0  0  0  0  0  0  0  # atno 8010 bound_to 7997
  139.9199  143.6394  152.2556 H   0  0  0  0  0  0  0  0  0  0  0  0  # atno 10167 bound_to 10162
  156.7943  130.9529  151.3120 H   0  0  0  0  0  0  0  0  0  0  0  0  # atno 10718 bound_to 10713
  154.3455  135.2753  155.2400 H   0  0  0  0  0  0  0  0  0  0  0  0  # atno 10763 bound_to 10752
  154.4652  135.5897  153.6287 H   0  0  0  0  0  0  0  0  0  0  0  0  # atno 10764 bound_to 10752
  152.9854  135.6075  154.3660 H   0  0  0  0  0  0  0  0  0  0  0  0  # atno 10765 bound_to 10752
  141.1601  133.6832  156.6985 H   0  0  0  0  0  0  0  0  0  0  0  0  # atno 11005 bound_to 11000
  146.2565  140.5140  142.8871 LP  0  0  0  0  0  0  0  0  0  0  0  0  # atno 17320 bound_to 7965
  144.8131  140.6421  143.6402 LP  0  0  0  0  0  0  0  0  0  0  0  0  # atno 17321 bound_to 7965
  139.6870  144.7650  151.1506 LP  0  0  0  0  0  0  0  0  0  0  0  0  # atno 17342 bound_to 10162
  140.7665  143.5643  150.9065 LP  0  0  0  0  0  0  0  0  0  0  0  0  # atno 17343 bound_to 10162
  157.6585  130.8945  149.9780 LP  0  0  0  0  0  0  0  0  0  0  0  0  # atno 17370 bound_to 10713
  156.1140  130.3648  150.0000 LP  0  0  0  0  0  0  0  0  0  0  0  0  # atno 17371 bound_to 10713
  140.2977  134.8189  157.4071 LP  0  0  0  0  0  0  0  0  0  0  0  0  # atno 17394 bound_to 11000
  140.1290  134.5120  155.8121 LP  0  0  0  0  0  0  0  0  0  0  0  0  # atno 17395 bound_to 11000

$$$$
