AV-unprocessed.smi:3336|AV-procd|sdf|12858|dock9
  -GOLD-   2272019253D 1   1.00000     0.00000
 Structure written by MMmdl.
 41 42  0  0  0  0  0  0  0  0  1 V2000
  151.5161  143.9272  157.5841 C   0  0  0  0  0  0  0  0  0  0  0  0
  151.2071  142.4746  157.1862 C   0  0  1  0  0  0  0  0  0  0  0  0
  151.0647  141.5245  158.3921 C   0  0  0  0  0  0  0  0  0  0  0  0
  152.1559  141.6577  159.3408 N   0  0  0  0  0  0  0  0  0  0  0  0
  152.4322  142.7170  160.1791 C   0  0  0  0  0  0  0  0  0  0  0  0
  153.5560  142.3949  160.8845 C   0  0  0  0  0  0  0  0  0  0  0  0
  153.8992  141.1013  160.4010 C   0  0  0  0  0  0  0  0  0  0  0  0
  153.0608  140.6635  159.4755 N   0  0  0  0  0  0  0  0  0  0  0  0
  149.9472  142.4578  156.4493 N   0  0  0  0  0  0  0  0  0  0  0  0
  149.8678  141.4095  155.4157 C   0  0  2  0  0  0  0  0  0  0  0  0
  148.7088  141.6962  154.4387 C   0  0  0  0  0  0  0  0  0  0  0  0
  149.6856  140.0150  156.0542 C   0  0  0  0  0  0  0  0  0  0  0  0
  148.6056  139.7542  156.5893 O   0  0  0  0  0  0  0  0  0  0  0  0
  150.6977  139.1107  156.0185 N   0  0  0  0  0  0  0  0  0  0  0  0
  151.9808  139.2483  155.3180 C   0  0  0  0  0  0  0  0  0  0  0  0
  152.0650  138.1618  154.2302 C   0  0  0  0  0  0  0  0  0  0  0  0
  151.9215  136.8731  154.8204 O   0  0  0  0  0  0  0  0  0  0  0  0
  150.6912  136.7184  155.5217 C   0  0  0  0  0  0  0  0  0  0  0  0
  150.5957  137.7807  156.6304 C   0  0  0  0  0  0  0  0  0  0  0  0
  152.4774  144.0032  158.0926 H   0  0  0  0  0  0  0  0  0  0  0  0
  150.7539  144.3275  158.2537 H   0  0  0  0  0  0  0  0  0  0  0  0
  151.5638  144.5745  156.7076 H   0  0  0  0  0  0  0  0  0  0  0  0
  152.0273  142.1131  156.5638 H   0  0  0  0  0  0  0  0  0  0  0  0
  150.1206  141.7016  158.9109 H   0  0  0  0  0  0  0  0  0  0  0  0
  151.0420  140.4879  158.0529 H   0  0  0  0  0  0  0  0  0  0  0  0
  151.8121  143.6011  160.2033 H   0  0  0  0  0  0  0  0  0  0  0  0
  154.0569  142.9921  161.6319 H   0  0  0  0  0  0  0  0  0  0  0  0
  154.7276  140.4726  160.6924 H   0  0  0  0  0  0  0  0  0  0  0  0
  149.7532  143.3736  156.0696 H   0  0  0  0  0  0  0  0  0  0  0  0
  150.8206  141.4165  154.8877 H   0  0  0  0  0  0  0  0  0  0  0  0
  148.6038  140.9098  153.6914 H   0  0  0  0  0  0  0  0  0  0  0  0
  148.8600  142.6291  153.8960 H   0  0  0  0  0  0  0  0  0  0  0  0
  147.7570  141.7746  154.9660 H   0  0  0  0  0  0  0  0  0  0  0  0
  152.1376  140.2179  154.8520 H   0  0  0  0  0  0  0  0  0  0  0  0
  152.7949  139.1261  156.0340 H   0  0  0  0  0  0  0  0  0  0  0  0
  151.2951  138.3102  153.4715 H   0  0  0  0  0  0  0  0  0  0  0  0
  153.0275  138.2111  153.7211 H   0  0  0  0  0  0  0  0  0  0  0  0
  149.8518  136.8010  154.8293 H   0  0  0  0  0  0  0  0  0  0  0  0
  150.6545  135.7178  155.9525 H   0  0  0  0  0  0  0  0  0  0  0  0
  151.4091  137.6500  157.3456 H   0  0  0  0  0  0  0  0  0  0  0  0
  149.6747  137.6370  157.1964 H   0  0  0  0  0  0  0  0  0  0  0  0
  1  2  1  0  0  0  0
  1 20  1  0  0  0  0
  1 21  1  0  0  0  0
  1 22  1  0  0  0  0
  2  3  1  0  0  0  0
  2  9  1  0  0  0  0
  2 23  1  0  0  0  0
  3  4  1  0  0  0  0
  3 24  1  0  0  0  0
  3 25  1  0  0  0  0
  4  8  1  0  0  0  0
  4  5  1  0  0  0  0
  5  6  2  0  0  0  0
  5 26  1  0  0  0  0
  6  7  1  0  0  0  0
  6 27  1  0  0  0  0
  7  8  2  0  0  0  0
  7 28  1  0  0  0  0
  9 10  1  0  0  0  0
  9 29  1  0  0  0  0
 10 11  1  0  0  0  0
 10 12  1  0  0  0  0
 10 30  1  0  0  0  0
 11 31  1  0  0  0  0
 11 32  1  0  0  0  0
 11 33  1  0  0  0  0
 12 13  2  0  0  0  0
 12 14  1  0  0  0  0
 14 19  1  0  0  0  0
 14 15  1  0  0  0  0
 15 16  1  0  0  0  0
 15 34  1  0  0  0  0
 15 35  1  0  0  0  0
 16 17  1  0  0  0  0
 16 36  1  0  0  0  0
 16 37  1  0  0  0  0
 17 18  1  0  0  0  0
 18 19  1  0  0  0  0
 18 38  1  0  0  0  0
 18 39  1  0  0  0  0
 19 40  1  0  0  0  0
 19 41  1  0  0  0  0
M  END
> <s_m_source_file>
AV-unprocessed.smi

> <i_m_source_file_index>
3336

> <i_lp_mmshare_version>
43012

> <i_f3d_flags>
0

> <s_epik_input>
bjFbY0hdW2NIXVtjSF1uMVtDSDJdW0NAQEhdKFtDSDNdKVtOSF1bQ0BIXShbQ0gzXSlDKD1PKU4yW0NIMl1bQ0gyXU9bQ0gyXVtDSDJdMg==

> <s_epik_cmdline>
J2VwaWtfcHl0aG9uJywgJy1waCcsICc3LjAnLCAnLXRuJywgJzgnLCAnLW1hJywgJzIwMCcsICctbWV0YWxfYmluZGluZycsICctaW1hZScsICc8aW5maWxlLm1hZT4nLCAnLW9tYWUnLCAnPG91dGZpbGUubWFlPic=

> <r_lp_tautomer_probability>
1

> <r_epik_Ionization_Penalty>
0.739958

> <r_epik_Ionization_Penalty_Charging>
0

> <r_epik_Ionization_Penalty_Neutral>
0.739958

> <r_epik_State_Penalty>
0.765967

> <r_epik_Charging_Adjusted_Penalty>
0.765967

> <i_epik_Tot_Q>
0

> <i_epik_Tot_abs_Q>
0

> <r_epik_Metal_State_Penalty>
0.765947

> <b_epik_Metal_Only>
0

> <s_lp_Force_Field>
OPLS_2005

> <r_lp_Energy>
30.7433

> <b_lp_Chiralities_Consistent>
1

> <s_lp_Variant>
AV-unprocessed.smi:3336-6

> <Gold.Version>
5.8.1

> <Gold.Id.Protein>
6NUR|6NUR_protein|mol2

> <Gold.PLP.Fitness>
43.7232

> <Gold.PLP.PLP>
-39.2228

> <Gold.PLP.part.hbond>
-2.0000

> <Gold.PLP.part.metal>
0.0000

> <Gold.PLP.part.buried>
-4.8648

> <Gold.PLP.part.nonpolar>
-33.1125

> <Gold.PLP.part.repulsive>
0.1185

> <Gold.PLP.ligand.clash>
0.0000

> <Gold.PLP.ligand.torsion>
0.7956

> <Gold.PLP.Chemscore.Hbond>
2.0000

> <Gold.PLP.Chemscore.CHOScore>
0.0000

> <Gold.PLP.Chemscore.Metal>
0.0000

> <Gold.Chemscore.Hbonds>
donor molecule, donor type, donor heavy atom, donor atom, acceptor molecule, acceptor atom, score
      L1  H     9    29       P1  8028  1.00
      P1  H 10752 10765       L1    17  1.00

> <Gold.PLP.Chemscore.Internal.Correction>
0.0915

> <Gold.Rescore>
     Score         DG    S(hbond)    S(metal)    S(lipo)     H(rot)  DE(clash)    DE(int)     intcor
     17.74     -18.70       1.96        0.00      96.26       1.79       0.02       0.94       ----

> <Gold.Chemscore.Fitness>
17.7405

> <Gold.Chemscore.DG>
-18.6960

> <Gold.Chemscore.ZeroCoef>
-5.4800

> <Gold.Chemscore.Hbond>
1.9597

> <Gold.Chemscore.Metal>
0.0000

> <Gold.Chemscore.Lipo>
96.2559

> <Gold.Chemscore.Internal_Hbond>
0.0000

> <Gold.Chemscore.DEClash>
0.0174

> <Gold.Chemscore.DEInternal>
0.9380

> <Gold.Chemscore.Rot>
1.7935

> <Gold.Chemscore.Internal.Correction>
   9.000000E+99

> <Gold.Chemscore.Hbonds>
donor molecule, donor type, donor heavy atom, donor atom, acceptor molecule, acceptor atom, score
      L1  H     9    29       P1  8028  0.99
      P1  H 10752 10765       L1    17  0.95

> <Gold.Chemscore.Hbond.Weighted>
-6.5452

> <Gold.Chemscore.Metal.Weighted>
-0.0000

> <Gold.Chemscore.Lipo.Weighted>
-11.2619

> <Gold.Chemscore.Internal_Hbond.Weighted>
0.0000

> <Gold.Chemscore.DEClash.Weighted>
0.0174

> <Gold.Chemscore.DEInternal.Weighted>
0.9380

> <Gold.Chemscore.Rot.Weighted>
4.5912

> <Gold.Chemscore.Internal.Correction.Weighted>
   9.000000E+99

> <Gold.Protein.RotatedTorsions>
[ 6907 6896 6895 6894 ] final   53.59 input  -60.11 | X-H torsion
[ 7974 7965 7964 7962 ] final -165.68 input  175.53 | X-H torsion
[ 8008 7997 7996 7995 ] final  -51.07 input   59.86 | X-H torsion
[ 10167 10162 10161 10158 ] final   91.10 input  -65.29 | X-H torsion
[ 10718 10713 10712 10709 ] final  -76.58 input   66.30 | X-H torsion
[ 10763 10752 10751 10750 ] final  170.44 input  -60.55 | X-H torsion
[ 11005 11000 10999 10996 ] final   65.68 input  -57.11 | X-H torsion

> <Gold.Protein.ActiveResidues>
 VAL166  LYS551  ARG553  GLY616  TRP617  ASP618  TYR619  PRO620  LYS621  CYS622 
 ASP623  PHE694  ASN695  SER759  ASP760  ASP761  ALA762  ILE779  LEU786  VAL792 
 PHE793  MET794  SER795  GLU796  ALA797  LYS798  CYS799  TRP800  GLU811  SER814 

> <Gold.Protein.RotatedAtoms>
  152.3352  134.7207  160.0278 H   0  0  0  0  0  0  0  0  0  0  0  0  # atno 6907 bound_to 6896
  151.7610  133.3328  159.3426 H   0  0  0  0  0  0  0  0  0  0  0  0  # atno 6908 bound_to 6896
  150.7446  134.6037  159.6095 H   0  0  0  0  0  0  0  0  0  0  0  0  # atno 6909 bound_to 6896
  144.7264  140.2778  143.6240 H   0  0  0  0  0  0  0  0  0  0  0  0  # atno 7974 bound_to 7965
  154.4075  140.1257  156.4769 H   0  0  0  0  0  0  0  0  0  0  0  0  # atno 8008 bound_to 7997
  155.7123  140.3493  155.4960 H   0  0  0  0  0  0  0  0  0  0  0  0  # atno 8009 bound_to 7997
  155.9289  140.1066  157.1138 H   0  0  0  0  0  0  0  0  0  0  0  0  # atno 8010 bound_to 7997
  139.8408  144.6642  150.9286 H   0  0  0  0  0  0  0  0  0  0  0  0  # atno 10167 bound_to 10162
  156.0171  130.4469  150.3215 H   0  0  0  0  0  0  0  0  0  0  0  0  # atno 10718 bound_to 10713
  154.3976  135.2754  155.2116 H   0  0  0  0  0  0  0  0  0  0  0  0  # atno 10763 bound_to 10752
  154.4156  135.6012  153.5982 H   0  0  0  0  0  0  0  0  0  0  0  0  # atno 10764 bound_to 10752
  152.9831  135.5960  154.4239 H   0  0  0  0  0  0  0  0  0  0  0  0  # atno 10765 bound_to 10752
  139.9879  134.6638  156.0142 H   0  0  0  0  0  0  0  0  0  0  0  0  # atno 11005 bound_to 11000
  145.7979  139.1953  143.2065 LP  0  0  0  0  0  0  0  0  0  0  0  0  # atno 17320 bound_to 7965
  146.0701  140.7878  142.9692 LP  0  0  0  0  0  0  0  0  0  0  0  0  # atno 17321 bound_to 7965
  140.7798  143.3915  151.1302 LP  0  0  0  0  0  0  0  0  0  0  0  0  # atno 17342 bound_to 10162
  139.7561  143.8705  152.3089 LP  0  0  0  0  0  0  0  0  0  0  0  0  # atno 17343 bound_to 10162
  157.1315  131.0273  151.2967 LP  0  0  0  0  0  0  0  0  0  0  0  0  # atno 17370 bound_to 10713
  157.4546  130.7618  149.7182 LP  0  0  0  0  0  0  0  0  0  0  0  0  # atno 17371 bound_to 10713
  141.1541  133.6545  156.4105 LP  0  0  0  0  0  0  0  0  0  0  0  0  # atno 17394 bound_to 11000
  140.4965  134.6526  157.5232 LP  0  0  0  0  0  0  0  0  0  0  0  0  # atno 17395 bound_to 11000

$$$$
