AV-unprocessed.smi:2886|AV-procd|sdf|11093|dock5
  -GOLD-   2272015563D 1   1.00000     0.00000
 Structure written by MMmdl.
 28 30  0  0  0  0  0  0  0  0  3 V2000
  151.9082  137.0608  159.5909 O   0  0  0  0  0  0  0  0  0  0  0  0
  152.4769  138.1208  159.8451 C   0  0  0  0  0  0  0  0  0  0  0  0
  153.5558  138.2107  160.6787 N   0  5  0  0  0  0  0  0  0  0  0  0
  154.1431  139.3585  160.9343 N   0  3  0  0  0  0  0  0  0  0  0  0
  153.7502  140.5180  160.4166 C   0  0  0  0  0  0  0  0  0  0  0  0
  152.6415  140.5635  159.5256 C   0  0  0  0  0  0  0  0  0  0  0  0
  152.1897  141.7483  158.9577 N   0  0  0  0  0  0  0  0  0  0  0  0
  152.6968  143.1045  159.1235 C   0  0  2  0  0  0  0  0  0  0  0  0
  152.5088  143.6553  160.5376 C   0  0  0  0  0  0  0  0  0  0  0  0
  151.7676  144.9713  160.2611 C   0  0  2  0  0  0  0  0  0  0  0  0
  150.2993  144.7228  159.8929 C   0  0  0  0  0  0  0  0  0  0  0  0
  150.4263  144.1442  158.4848 C   0  0  0  0  0  0  0  0  0  0  0  0
  151.9504  144.1474  158.2739 C   0  0  1  0  0  0  0  0  0  0  0  0
  152.2953  145.3210  158.9913 O   0  0  0  0  0  0  0  0  0  0  0  0
  152.0114  139.3858  159.2471 C   0  0  0  0  0  0  0  0  0  0  0  0
  150.6470  139.3407  158.1795 Cl  0  0  0  0  0  0  0  0  0  0  0  0
  154.9546  139.4021  161.5704 H   0  0  0  0  0  0  0  0  0  0  0  0
  154.3075  141.3984  160.7094 H   0  0  0  0  0  0  0  0  0  0  0  0
  151.4767  141.6566  158.2475 H   0  0  0  0  0  0  0  0  0  0  0  0
  153.7525  143.1538  158.8589 H   0  0  0  0  0  0  0  0  0  0  0  0
  151.9387  142.9947  161.1929 H   0  0  0  0  0  0  0  0  0  0  0  0
  153.4775  143.8408  161.0025 H   0  0  0  0  0  0  0  0  0  0  0  0
  151.9073  145.7292  161.0325 H   0  0  0  0  0  0  0  0  0  0  0  0
  149.8045  144.0434  160.5879 H   0  0  0  0  0  0  0  0  0  0  0  0
  149.7397  145.6588  159.8724 H   0  0  0  0  0  0  0  0  0  0  0  0
  149.9816  143.1533  158.3899 H   0  0  0  0  0  0  0  0  0  0  0  0
  149.9392  144.8001  157.7624 H   0  0  0  0  0  0  0  0  0  0  0  0
  152.2511  144.1587  157.2259 H   0  0  0  0  0  0  0  0  0  0  0  0
  1  2  2  0  0  0  0
  2  3  1  0  0  0  0
  2 15  1  0  0  0  0
  3  4  1  0  0  0  0
  4  5  2  0  0  0  0
  4 17  1  0  0  0  0
  5  6  1  0  0  0  0
  5 18  1  0  0  0  0
  6 15  2  0  0  0  0
  6  7  1  0  0  0  0
  7  8  1  0  0  0  0
  7 19  1  0  0  0  0
  8 13  1  0  0  0  0
  8  9  1  0  0  0  0
  8 20  1  0  0  0  0
  9 10  1  0  0  0  0
  9 21  1  0  0  0  0
  9 22  1  0  0  0  0
 10 14  1  0  0  0  0
 10 11  1  0  0  0  0
 10 23  1  0  0  0  0
 11 12  1  0  0  0  0
 11 24  1  0  0  0  0
 11 25  1  0  0  0  0
 12 13  1  0  0  0  0
 12 26  1  0  0  0  0
 12 27  1  0  0  0  0
 13 14  1  0  0  0  0
 13 28  1  0  0  0  0
 15 16  1  0  0  0  0
M  CHG  1   3  -1
M  CHG  1   4   1
M  END
> <s_m_source_file>
AV-unprocessed.smi

> <i_m_source_file_index>
2886

> <i_lp_mmshare_version>
43012

> <i_f3d_flags>
0

> <s_epik_input>
Tz1jMVtuSF1uW2NIXWMoYzFDbClbTkhdW0NASF0oW0NIMl1bQ0BASF0yMylbQ0BASF0oTzMpW0NIMl1bQ0gyXTI=

> <s_epik_cmdline>
J2VwaWtfcHl0aG9uJywgJy1waCcsICc3LjAnLCAnLXRuJywgJzgnLCAnLW1hJywgJzIwMCcsICctbWV0YWxfYmluZGluZycsICctaW1hZScsICc8aW5maWxlLm1hZT4nLCAnLW9tYWUnLCAnPG91dGZpbGUubWFlPic=

> <r_lp_tautomer_probability>
0.0138196

> <r_epik_Ionization_Penalty>
2.43027

> <r_epik_Ionization_Penalty_Charging>
2.43027

> <r_epik_Ionization_Penalty_Neutral>
1.33267e-06

> <r_epik_State_Penalty>
2.7044

> <r_epik_Charging_Adjusted_Penalty>
5.13467

> <i_epik_Tot_Q>
0

> <i_epik_Tot_abs_Q>
2

> <r_epik_Metal_State_Penalty>
2.98589

> <b_epik_Metal_Only>
0

> <s_lp_Force_Field>
OPLS_2005

> <r_lp_Energy>
57.8079

> <b_lp_Chiralities_Consistent>
1

> <s_lp_Variant>
AV-unprocessed.smi:2886-7

> <Gold.Version>
5.8.1

> <Gold.Id.Protein>
6NUR|6NUR_protein|mol2

> <Gold.PLP.Fitness>
35.9211

> <Gold.PLP.PLP>
-32.9836

> <Gold.PLP.part.hbond>
-1.0000

> <Gold.PLP.part.metal>
0.0000

> <Gold.PLP.part.buried>
-6.4488

> <Gold.PLP.part.nonpolar>
-27.0838

> <Gold.PLP.part.repulsive>
0.1665

> <Gold.PLP.ligand.clash>
0.0000

> <Gold.PLP.ligand.torsion>
0.0228

> <Gold.PLP.Chemscore.Hbond>
0.9913

> <Gold.PLP.Chemscore.CHOScore>
0.0000

> <Gold.PLP.Chemscore.Metal>
0.0000

> <Gold.Chemscore.Hbonds>
donor molecule, donor type, donor heavy atom, donor atom, acceptor molecule, acceptor atom, score
      P1  H  6896  6907       L1     1  1.00

> <Gold.PLP.Chemscore.Internal.Correction>
0.0093

> <Gold.Rescore>
     Score         DG    S(hbond)    S(metal)    S(lipo)     H(rot)  DE(clash)    DE(int)     intcor
     17.34     -17.36       0.99        0.00      95.08       1.00       0.00       0.02       ----

> <Gold.Chemscore.Fitness>
17.3390

> <Gold.Chemscore.DG>
-17.3564

> <Gold.Chemscore.ZeroCoef>
-5.4800

> <Gold.Chemscore.Hbond>
0.9918

> <Gold.Chemscore.Metal>
0.0000

> <Gold.Chemscore.Lipo>
95.0758

> <Gold.Chemscore.Internal_Hbond>
0.0000

> <Gold.Chemscore.DEClash>
0.0000

> <Gold.Chemscore.DEInternal>
0.0174

> <Gold.Chemscore.Rot>
1.0000

> <Gold.Chemscore.Internal.Correction>
   9.000000E+99

> <Gold.Chemscore.Hbonds>
donor molecule, donor type, donor heavy atom, donor atom, acceptor molecule, acceptor atom, score
      P1  H  6896  6907       L1     1  0.98

> <Gold.Chemscore.Hbond.Weighted>
-3.3125

> <Gold.Chemscore.Metal.Weighted>
-0.0000

> <Gold.Chemscore.Lipo.Weighted>
-11.1239

> <Gold.Chemscore.Internal_Hbond.Weighted>
0.0000

> <Gold.Chemscore.DEClash.Weighted>
0.0000

> <Gold.Chemscore.DEInternal.Weighted>
0.0174

> <Gold.Chemscore.Rot.Weighted>
2.5600

> <Gold.Chemscore.Internal.Correction.Weighted>
   9.000000E+99

> <Gold.Protein.RotatedTorsions>
[ 6907 6896 6895 6894 ] final   12.80 input  -60.11 | X-H torsion
[ 7974 7965 7964 7962 ] final  174.92 input  175.53 | X-H torsion
[ 8008 7997 7996 7995 ] final  -20.46 input   59.86 | X-H torsion
[ 10167 10162 10161 10158 ] final   36.40 input  -65.29 | X-H torsion
[ 10718 10713 10712 10709 ] final -166.41 input   66.30 | X-H torsion
[ 10763 10752 10751 10750 ] final -175.64 input  -60.55 | X-H torsion
[ 11005 11000 10999 10996 ] final  174.86 input  -57.11 | X-H torsion

> <Gold.Protein.ActiveResidues>
 VAL166  LYS551  ARG553  GLY616  TRP617  ASP618  TYR619  PRO620  LYS621  CYS622 
 ASP623  PHE694  ASN695  SER759  ASP760  ASP761  ALA762  ILE779  LEU786  VAL792 
 PHE793  MET794  SER795  GLU796  ALA797  LYS798  CYS799  TRP800  GLU811  SER814 

> <Gold.Protein.RotatedAtoms>
  151.7761  135.0774  160.0366 H   0  0  0  0  0  0  0  0  0  0  0  0  # atno 6907 bound_to 6896
  152.3255  133.5896  159.5782 H   0  0  0  0  0  0  0  0  0  0  0  0  # atno 6908 bound_to 6896
  150.7393  133.9863  159.3634 H   0  0  0  0  0  0  0  0  0  0  0  0  # atno 6909 bound_to 6896
  144.7212  139.9869  143.6439 H   0  0  0  0  0  0  0  0  0  0  0  0  # atno 7974 bound_to 7965
  154.4768  140.2061  155.9858 H   0  0  0  0  0  0  0  0  0  0  0  0  # atno 8008 bound_to 7997
  156.1102  140.3230  155.8032 H   0  0  0  0  0  0  0  0  0  0  0  0  # atno 8009 bound_to 7997
  155.4648  140.0527  157.2977 H   0  0  0  0  0  0  0  0  0  0  0  0  # atno 8010 bound_to 7997
  140.4131  144.1564  150.6141 H   0  0  0  0  0  0  0  0  0  0  0  0  # atno 10167 bound_to 10162
  156.6675  130.9070  151.3038 H   0  0  0  0  0  0  0  0  0  0  0  0  # atno 10718 bound_to 10713
  154.5819  135.2837  155.0724 H   0  0  0  0  0  0  0  0  0  0  0  0  # atno 10763 bound_to 10752
  154.2056  135.6417  153.5104 H   0  0  0  0  0  0  0  0  0  0  0  0  # atno 10764 bound_to 10752
  153.0091  135.5479  154.6476 H   0  0  0  0  0  0  0  0  0  0  0  0  # atno 10765 bound_to 10752
  140.3559  134.7155  157.4299 H   0  0  0  0  0  0  0  0  0  0  0  0  # atno 11005 bound_to 11000
  146.0443  139.3450  143.0678 LP  0  0  0  0  0  0  0  0  0  0  0  0  # atno 17320 bound_to 7965
  145.8296  140.9637  143.0856 LP  0  0  0  0  0  0  0  0  0  0  0  0  # atno 17321 bound_to 7965
  140.4616  143.2447  151.9212 LP  0  0  0  0  0  0  0  0  0  0  0  0  # atno 17342 bound_to 10162
  139.4782  144.5462  151.8455 LP  0  0  0  0  0  0  0  0  0  0  0  0  # atno 17343 bound_to 10162
  157.7089  130.9416  150.1021 LP  0  0  0  0  0  0  0  0  0  0  0  0  # atno 17370 bound_to 10713
  156.1964  130.3657  149.8844 LP  0  0  0  0  0  0  0  0  0  0  0  0  # atno 17371 bound_to 10713
  140.0666  134.5921  155.8689 LP  0  0  0  0  0  0  0  0  0  0  0  0  # atno 17394 bound_to 11000
  141.1998  133.6609  156.5866 LP  0  0  0  0  0  0  0  0  0  0  0  0  # atno 17395 bound_to 11000

$$$$
