AV-unprocessed.smi:1084|AV-procd|sdf|4717|dock7
  -GOLD-   22720 3243D 1   1.00000     0.00000
 Structure written by MMmdl.
 52 54  0  0  0  0  0  0  0  0  1 V2000
  145.4622  135.3023  150.8262 C   0  0  0  0  0  0  0  0  0  0  0  0
  145.1555  136.2358  152.0251 C   0  0  1  0  0  0  0  0  0  0  0  0
  145.7261  137.6512  151.7172 C   0  0  0  0  0  0  0  0  0  0  0  0
  147.0699  137.8657  152.2483 N   0  0  0  0  0  0  0  0  0  0  0  0
  147.3915  138.7668  153.1873 C   0  0  0  0  0  0  0  0  0  0  0  0
  146.5734  139.5232  153.7099 O   0  0  0  0  0  0  0  0  0  0  0  0
  148.7008  138.7106  153.4854 N   0  0  0  0  0  0  0  0  0  0  0  0
  149.4324  139.5050  154.4090 C   0  0  0  0  0  0  0  0  0  0  0  0
  150.7244  139.0793  154.7706 C   0  0  0  0  0  0  0  0  0  0  0  0
  151.4818  139.8549  155.6684 C   0  0  0  0  0  0  0  0  0  0  0  0
  150.9310  141.0566  156.1815 C   0  0  0  0  0  0  0  0  0  0  0  0
  151.6325  141.8778  157.0950 N   0  0  0  0  0  0  0  0  0  0  0  0
  152.0723  141.2505  158.3419 C   0  0  0  0  0  0  0  0  0  0  0  0
  153.1044  142.1355  159.0610 C   0  0  0  0  0  0  0  0  0  0  0  0
  152.5722  143.4415  159.2499 O   0  0  0  0  0  0  0  0  0  0  0  0
  152.2890  144.0747  158.0078 C   0  0  0  0  0  0  0  0  0  0  0  0
  151.2221  143.2723  157.2436 C   0  0  0  0  0  0  0  0  0  0  0  0
  149.6920  141.4692  155.8190 N   0  0  0  0  0  0  0  0  0  0  0  0
  148.9676  140.7217  154.9601 C   0  0  0  0  0  0  0  0  0  0  0  0
  143.7190  136.2502  152.3879 N   0  0  0  0  0  0  0  0  0  0  0  0
  143.2409  134.9400  152.8453 C   0  0  0  0  0  0  0  0  0  0  0  0
  141.7569  134.9525  153.2514 C   0  0  0  0  0  0  0  0  0  0  0  0
  141.5461  135.9271  154.2633 O   0  0  0  0  0  0  0  0  0  0  0  0
  141.9234  137.2282  153.8359 C   0  0  0  0  0  0  0  0  0  0  0  0
  143.4083  137.2330  153.4327 C   0  0  0  0  0  0  0  0  0  0  0  0
  146.5104  135.3325  150.5319 H   0  0  0  0  0  0  0  0  0  0  0  0
  144.8690  135.5748  149.9529 H   0  0  0  0  0  0  0  0  0  0  0  0
  145.2644  134.2562  151.0559 H   0  0  0  0  0  0  0  0  0  0  0  0
  145.7093  135.8448  152.8801 H   0  0  0  0  0  0  0  0  0  0  0  0
  145.7590  137.8104  150.6390 H   0  0  0  0  0  0  0  0  0  0  0  0
  145.1001  138.4436  152.1252 H   0  0  0  0  0  0  0  0  0  0  0  0
  147.8038  137.2799  151.8777 H   0  0  0  0  0  0  0  0  0  0  0  0
  149.2281  137.9785  153.0327 H   0  0  0  0  0  0  0  0  0  0  0  0
  151.1348  138.1646  154.3681 H   0  0  0  0  0  0  0  0  0  0  0  0
  152.4708  139.5138  155.9338 H   0  0  0  0  0  0  0  0  0  0  0  0
  151.2027  141.0953  158.9817 H   0  0  0  0  0  0  0  0  0  0  0  0
  152.5188  140.2716  158.1672 H   0  0  0  0  0  0  0  0  0  0  0  0
  153.3506  141.7085  160.0332 H   0  0  0  0  0  0  0  0  0  0  0  0
  154.0347  142.1879  158.4930 H   0  0  0  0  0  0  0  0  0  0  0  0
  151.9307  145.0864  158.1983 H   0  0  0  0  0  0  0  0  0  0  0  0
  153.2020  144.1674  157.4176 H   0  0  0  0  0  0  0  0  0  0  0  0
  151.0775  143.7329  156.2660 H   0  0  0  0  0  0  0  0  0  0  0  0
  150.2697  143.3127  157.7736 H   0  0  0  0  0  0  0  0  0  0  0  0
  148.0051  141.1362  154.7045 H   0  0  0  0  0  0  0  0  0  0  0  0
  143.3482  134.1957  152.0584 H   0  0  0  0  0  0  0  0  0  0  0  0
  143.8438  134.6001  153.6887 H   0  0  0  0  0  0  0  0  0  0  0  0
  141.1221  135.1660  152.3902 H   0  0  0  0  0  0  0  0  0  0  0  0
  141.4604  133.9750  153.6321 H   0  0  0  0  0  0  0  0  0  0  0  0
  141.2955  137.5423  153.0004 H   0  0  0  0  0  0  0  0  0  0  0  0
  141.7501  137.9337  154.6486 H   0  0  0  0  0  0  0  0  0  0  0  0
  144.0241  137.0441  154.3134 H   0  0  0  0  0  0  0  0  0  0  0  0
  143.6373  138.2417  153.0958 H   0  0  0  0  0  0  0  0  0  0  0  0
  1  2  1  0  0  0  0
  1 26  1  0  0  0  0
  1 27  1  0  0  0  0
  1 28  1  0  0  0  0
  2  3  1  0  0  0  0
  2 20  1  0  0  0  0
  2 29  1  0  0  0  0
  3  4  1  0  0  0  0
  3 30  1  0  0  0  0
  3 31  1  0  0  0  0
  4  5  1  0  0  0  0
  4 32  1  0  0  0  0
  5  6  2  0  0  0  0
  5  7  1  0  0  0  0
  7  8  1  0  0  0  0
  7 33  1  0  0  0  0
  8 19  1  0  0  0  0
  8  9  2  0  0  0  0
  9 10  1  0  0  0  0
  9 34  1  0  0  0  0
 10 11  2  0  0  0  0
 10 35  1  0  0  0  0
 11 12  1  0  0  0  0
 11 18  1  0  0  0  0
 12 17  1  0  0  0  0
 12 13  1  0  0  0  0
 13 14  1  0  0  0  0
 13 36  1  0  0  0  0
 13 37  1  0  0  0  0
 14 15  1  0  0  0  0
 14 38  1  0  0  0  0
 14 39  1  0  0  0  0
 15 16  1  0  0  0  0
 16 17  1  0  0  0  0
 16 40  1  0  0  0  0
 16 41  1  0  0  0  0
 17 42  1  0  0  0  0
 17 43  1  0  0  0  0
 18 19  2  0  0  0  0
 19 44  1  0  0  0  0
 20 25  1  0  0  0  0
 20 21  1  0  0  0  0
 21 22  1  0  0  0  0
 21 45  1  0  0  0  0
 21 46  1  0  0  0  0
 22 23  1  0  0  0  0
 22 47  1  0  0  0  0
 22 48  1  0  0  0  0
 23 24  1  0  0  0  0
 24 25  1  0  0  0  0
 24 49  1  0  0  0  0
 24 50  1  0  0  0  0
 25 51  1  0  0  0  0
 25 52  1  0  0  0  0
M  END
> <s_m_source_file>
AV-unprocessed.smi

> <i_m_source_file_index>
1084

> <i_lp_mmshare_version>
43012

> <i_f3d_flags>
0

> <s_epik_input>
W0NIMl0xW0NIMl1PW0NIMl1bQ0gyXU4xW0NASF0oW0NIM10pW0NIMl1bTkhdQyg9TylbTkhdYzJbY0hdW2NIXWMobltjSF0yKU4zW0NIMl1bQ0gyXU9bQ0gyXVtDSDJdMw==

> <s_epik_cmdline>
J2VwaWtfcHl0aG9uJywgJy1waCcsICc3LjAnLCAnLXRuJywgJzgnLCAnLW1hJywgJzIwMCcsICctbWV0YWxfYmluZGluZycsICctaW1hZScsICc8aW5maWxlLm1hZT4nLCAnLW9tYWUnLCAnPG91dGZpbGUubWFlPic=

> <r_lp_tautomer_probability>
1

> <r_epik_Ionization_Penalty>
0.268053

> <r_epik_Ionization_Penalty_Charging>
0

> <r_epik_Ionization_Penalty_Neutral>
0.268053

> <r_epik_State_Penalty>
0.269834

> <r_epik_Charging_Adjusted_Penalty>
0.269834

> <i_epik_Tot_Q>
0

> <i_epik_Tot_abs_Q>
0

> <r_epik_Metal_State_Penalty>
0.268436

> <b_epik_Metal_Only>
0

> <s_lp_Force_Field>
OPLS_2005

> <r_lp_Energy>
45.5603

> <b_lp_Chiralities_Consistent>
1

> <s_lp_Variant>
AV-unprocessed.smi:1084-2

> <Gold.Version>
5.8.1

> <Gold.Id.Protein>
6NUR|6NUR_protein|mol2

> <Gold.PLP.Fitness>
50.0689

> <Gold.PLP.PLP>
-46.2314

> <Gold.PLP.part.hbond>
-3.2883

> <Gold.PLP.part.metal>
0.0000

> <Gold.PLP.part.buried>
-3.3214

> <Gold.PLP.part.nonpolar>
-40.7610

> <Gold.PLP.part.repulsive>
0.6802

> <Gold.PLP.ligand.clash>
0.0000

> <Gold.PLP.ligand.torsion>
0.9025

> <Gold.PLP.Chemscore.Hbond>
1.7028

> <Gold.PLP.Chemscore.CHOScore>
0.0000

> <Gold.PLP.Chemscore.Metal>
0.0000

> <Gold.Chemscore.Hbonds>
donor molecule, donor type, donor heavy atom, donor atom, acceptor molecule, acceptor atom, score
      L1  H     4    32       P1  7948  0.99
      L1  H     7    33       P1  7948  0.73

> <Gold.PLP.Chemscore.Internal.Correction>
0.5342

> <Gold.Rescore>
     Score         DG    S(hbond)    S(metal)    S(lipo)     H(rot)  DE(clash)    DE(int)     intcor
     15.03     -17.98       1.23        0.00     107.25       1.62       0.87       2.09       ----

> <Gold.Chemscore.Fitness>
15.0287

> <Gold.Chemscore.DG>
-17.9821

> <Gold.Chemscore.ZeroCoef>
-5.4800

> <Gold.Chemscore.Hbond>
1.2286

> <Gold.Chemscore.Metal>
0.0000

> <Gold.Chemscore.Lipo>
107.2526

> <Gold.Chemscore.Internal_Hbond>
0.0000

> <Gold.Chemscore.DEClash>
0.8658

> <Gold.Chemscore.DEInternal>
2.0876

> <Gold.Chemscore.Rot>
1.6211

> <Gold.Chemscore.Internal.Correction>
   9.000000E+99

> <Gold.Chemscore.Hbonds>
donor molecule, donor type, donor heavy atom, donor atom, acceptor molecule, acceptor atom, score
      L1  H     4    32       P1  7948  0.93
      L1  H     7    33       P1  7948  0.69

> <Gold.Chemscore.Hbond.Weighted>
-4.1036

> <Gold.Chemscore.Metal.Weighted>
-0.0000

> <Gold.Chemscore.Lipo.Weighted>
-12.5486

> <Gold.Chemscore.Internal_Hbond.Weighted>
0.0000

> <Gold.Chemscore.DEClash.Weighted>
0.8658

> <Gold.Chemscore.DEInternal.Weighted>
2.0876

> <Gold.Chemscore.Rot.Weighted>
4.1501

> <Gold.Chemscore.Internal.Correction.Weighted>
   9.000000E+99

> <Gold.Protein.RotatedTorsions>
[ 6907 6896 6895 6894 ] final   79.55 input  -60.11 | X-H torsion
[ 7974 7965 7964 7962 ] final -155.58 input  175.53 | X-H torsion
[ 8008 7997 7996 7995 ] final   -5.10 input   59.86 | X-H torsion
[ 10167 10162 10161 10158 ] final  -53.30 input  -65.29 | X-H torsion
[ 10718 10713 10712 10709 ] final  -76.24 input   66.30 | X-H torsion
[ 10763 10752 10751 10750 ] final   33.43 input  -60.55 | X-H torsion
[ 11005 11000 10999 10996 ] final  164.98 input  -57.11 | X-H torsion

> <Gold.Protein.ActiveResidues>
 VAL166  LYS551  ARG553  GLY616  TRP617  ASP618  TYR619  PRO620  LYS621  CYS622 
 ASP623  PHE694  ASN695  SER759  ASP760  ASP761  ALA762  ILE779  LEU786  VAL792 
 PHE793  MET794  SER795  GLU796  ALA797  LYS798  CYS799  TRP800  GLU811  SER814 

> <Gold.Protein.RotatedAtoms>
  152.5202  134.3494  159.9245 H   0  0  0  0  0  0  0  0  0  0  0  0  # atno 6907 bound_to 6896
  151.3444  133.3943  159.2682 H   0  0  0  0  0  0  0  0  0  0  0  0  # atno 6908 bound_to 6896
  150.9777  134.9156  159.7884 H   0  0  0  0  0  0  0  0  0  0  0  0  # atno 6909 bound_to 6896
  144.7633  140.4230  143.5960 H   0  0  0  0  0  0  0  0  0  0  0  0  # atno 7974 bound_to 7965
  154.6074  140.2467  155.7713 H   0  0  0  0  0  0  0  0  0  0  0  0  # atno 8008 bound_to 7997
  156.2349  140.2953  156.0238 H   0  0  0  0  0  0  0  0  0  0  0  0  # atno 8009 bound_to 7997
  155.2109  140.0397  157.2923 H   0  0  0  0  0  0  0  0  0  0  0  0  # atno 8010 bound_to 7997
  140.6492  143.2555  151.4772 H   0  0  0  0  0  0  0  0  0  0  0  0  # atno 10167 bound_to 10162
  156.0181  130.4460  150.3163 H   0  0  0  0  0  0  0  0  0  0  0  0  # atno 10718 bound_to 10713
  153.0212  135.6387  154.1510 H   0  0  0  0  0  0  0  0  0  0  0  0  # atno 10763 bound_to 10752
  154.1244  135.2844  155.3202 H   0  0  0  0  0  0  0  0  0  0  0  0  # atno 10764 bound_to 10752
  154.6240  135.5515  153.7669 H   0  0  0  0  0  0  0  0  0  0  0  0  # atno 10765 bound_to 10752
  140.2515  134.7973  157.3506 H   0  0  0  0  0  0  0  0  0  0  0  0  # atno 11005 bound_to 11000
  145.6548  139.1571  143.2841 LP  0  0  0  0  0  0  0  0  0  0  0  0  # atno 17320 bound_to 7965
  146.1718  140.6634  142.9230 LP  0  0  0  0  0  0  0  0  0  0  0  0  # atno 17321 bound_to 7965
  139.5705  144.1939  152.1829 LP  0  0  0  0  0  0  0  0  0  0  0  0  # atno 17342 bound_to 10162
  140.1234  144.5353  150.6848 LP  0  0  0  0  0  0  0  0  0  0  0  0  # atno 17343 bound_to 10162
  157.1264  131.0260  151.2988 LP  0  0  0  0  0  0  0  0  0  0  0  0  # atno 17370 bound_to 10713
  157.4586  130.7640  149.7215 LP  0  0  0  0  0  0  0  0  0  0  0  0  # atno 17371 bound_to 10713
  140.1554  134.4797  155.7932 LP  0  0  0  0  0  0  0  0  0  0  0  0  # atno 17394 bound_to 11000
  141.2201  133.6879  156.7451 LP  0  0  0  0  0  0  0  0  0  0  0  0  # atno 17395 bound_to 11000

$$$$
