AV-unprocessed.smi:1406|AV-procd|sdf|5724|dock3
  -GOLD-   22720 5353D 1   1.00000     0.00000
 Structure written by MMmdl.
 41 43  0  0  0  0  0  0  0  0  2 V2000
  149.9114  132.0741  154.1216 C   0  0  0  0  0  0  0  0  0  0  0  0
  149.1408  133.3708  154.4418 C   0  0  1  0  0  0  0  0  0  0  0  0
  147.7173  133.3663  153.8641 C   0  0  0  0  0  0  0  0  0  0  0  0
  146.9042  132.5064  154.2045 O   0  0  0  0  0  0  0  0  0  0  0  0
  147.4303  134.3383  152.9837 N   0  0  0  0  0  0  0  0  0  0  0  0
  146.1457  134.5173  152.3140 C   0  0  1  0  0  0  0  0  0  0  0  0
  145.9834  135.8998  151.6939 C   0  0  0  0  0  0  0  0  0  0  0  0
  144.8603  135.6689  150.6817 C   0  0  0  0  0  0  0  0  0  0  0  0
  145.0390  134.2854  150.1850 N   0  3  2  0  0  0  0  0  0  0  0  0
  143.7756  133.5727  149.8744 C   0  0  0  0  0  0  0  0  0  0  0  0
  144.0665  132.1539  149.3519 C   0  0  0  0  0  0  0  0  0  0  0  0
  145.0328  131.3624  150.2581 C   0  0  0  0  0  0  0  0  0  0  0  0
  145.4663  132.1632  151.4960 C   0  0  0  0  0  0  0  0  0  0  0  0
  145.9662  133.5746  151.1111 C   0  0  2  0  0  0  0  0  0  0  0  0
  149.1029  133.6554  155.8711 N   0  0  0  0  0  0  0  0  0  0  0  0
  149.6299  132.9786  156.8937 C   0  0  0  0  0  0  0  0  0  0  0  0
  149.4456  133.5538  158.0735 N   0  0  0  0  0  0  0  0  0  0  0  0
  148.7569  134.6658  157.6796 C   0  0  0  0  0  0  0  0  0  0  0  0
  148.5354  134.7819  156.3704 N   0  0  0  0  0  0  0  0  0  0  0  0
  149.9645  131.9052  153.0455 H   0  0  0  0  0  0  0  0  0  0  0  0
  149.4446  131.1959  154.5698 H   0  0  0  0  0  0  0  0  0  0  0  0
  150.9348  132.1294  154.4934 H   0  0  0  0  0  0  0  0  0  0  0  0
  149.6847  134.1903  153.9686 H   0  0  0  0  0  0  0  0  0  0  0  0
  148.1565  135.0046  152.7638 H   0  0  0  0  0  0  0  0  0  0  0  0
  145.3265  134.3738  153.0221 H   0  0  0  0  0  0  0  0  0  0  0  0
  145.7406  136.6697  152.4269 H   0  0  0  0  0  0  0  0  0  0  0  0
  146.8970  136.1980  151.1765 H   0  0  0  0  0  0  0  0  0  0  0  0
  143.8973  135.7614  151.1869 H   0  0  0  0  0  0  0  0  0  0  0  0
  144.8778  136.3911  149.8653 H   0  0  0  0  0  0  0  0  0  0  0  0
  143.1509  133.5233  150.7679 H   0  0  0  0  0  0  0  0  0  0  0  0
  143.2131  134.1368  149.1298 H   0  0  0  0  0  0  0  0  0  0  0  0
  143.1290  131.6079  149.2420 H   0  0  0  0  0  0  0  0  0  0  0  0
  144.4928  132.2204  148.3500 H   0  0  0  0  0  0  0  0  0  0  0  0
  144.5724  130.4240  150.5689 H   0  0  0  0  0  0  0  0  0  0  0  0
  145.9179  131.0876  149.6828 H   0  0  0  0  0  0  0  0  0  0  0  0
  144.6252  132.2396  152.1866 H   0  0  0  0  0  0  0  0  0  0  0  0
  146.2452  131.6202  152.0314 H   0  0  0  0  0  0  0  0  0  0  0  0
  146.9133  133.4832  150.5766 H   0  0  0  0  0  0  0  0  0  0  0  0
  150.1637  132.0475  156.7725 H   0  0  0  0  0  0  0  0  0  0  0  0
  148.4156  135.4163  158.3772 H   0  0  0  0  0  0  0  0  0  0  0  0
  145.5407  134.3591  149.3114 H   0  0  0  0  0  0  0  0  0  0  0  0
  1  2  1  0  0  0  0
  1 20  1  0  0  0  0
  1 21  1  0  0  0  0
  1 22  1  0  0  0  0
  2  3  1  0  0  0  0
  2 15  1  0  0  0  0
  2 23  1  0  0  0  0
  3  4  2  0  0  0  0
  3  5  1  0  0  0  0
  5  6  1  0  0  0  0
  5 24  1  0  0  0  0
  6 14  1  0  0  0  0
  6  7  1  0  0  0  0
  6 25  1  0  0  0  0
  7  8  1  0  0  0  0
  7 26  1  0  0  0  0
  7 27  1  0  0  0  0
  8  9  1  0  0  0  0
  8 28  1  0  0  0  0
  8 29  1  0  0  0  0
  9 14  1  0  0  0  0
  9 10  1  0  0  0  0
  9 41  1  0  0  0  0
 10 11  1  0  0  0  0
 10 30  1  0  0  0  0
 10 31  1  0  0  0  0
 11 12  1  0  0  0  0
 11 32  1  0  0  0  0
 11 33  1  0  0  0  0
 12 13  1  0  0  0  0
 12 34  1  0  0  0  0
 12 35  1  0  0  0  0
 13 14  1  0  0  0  0
 13 36  1  0  0  0  0
 13 37  1  0  0  0  0
 14 38  1  0  0  0  0
 15 19  1  0  0  0  0
 15 16  1  0  0  0  0
 16 17  2  0  0  0  0
 16 39  1  0  0  0  0
 17 18  1  0  0  0  0
 18 19  2  0  0  0  0
 18 40  1  0  0  0  0
M  CHG  1   9   1
M  END
> <s_m_source_file>
AV-unprocessed.smi

> <i_m_source_file_index>
1406

> <i_lp_mmshare_version>
43012

> <i_f3d_flags>
0

> <s_epik_input>
bjFbY0hdbltjSF1uMVtDQEhdKFtDSDNdKUMoPU8pW05IXVtDQEhdKFtDSDJdW0NIMl0yKVtDQEBIXShOMjMpW0NIMl1bQ0gyXVtDSDJdW0NIMl0z

> <s_epik_cmdline>
J2VwaWtfcHl0aG9uJywgJy1waCcsICc3LjAnLCAnLXRuJywgJzgnLCAnLW1hJywgJzIwMCcsICctbWV0YWxfYmluZGluZycsICctaW1hZScsICc8aW5maWxlLm1hZT4nLCAnLW9tYWUnLCAnPG91dGZpbGUubWFlPic=

> <r_lp_tautomer_probability>
1

> <r_epik_Ionization_Penalty>
0.00197066

> <r_epik_Ionization_Penalty_Charging>
0.00196223

> <r_epik_Ionization_Penalty_Neutral>
8.43107e-06

> <r_epik_State_Penalty>
0.00133866

> <r_epik_Charging_Adjusted_Penalty>
0.00330089

> <i_epik_Tot_Q>
1

> <i_epik_Tot_abs_Q>
1

> <r_epik_Metal_State_Penalty>
-0

> <b_epik_Metal_Only>
0

> <s_lp_Force_Field>
OPLS_2005

> <r_lp_Energy>
45.3415

> <b_lp_Chiralities_Consistent>
1

> <s_lp_Variant>
AV-unprocessed.smi:1406-16

> <Gold.Version>
5.8.1

> <Gold.Id.Protein>
6NUR|6NUR_protein|mol2

> <Gold.PLP.Fitness>
34.7727

> <Gold.PLP.PLP>
-26.3042

> <Gold.PLP.part.hbond>
-2.9019

> <Gold.PLP.part.metal>
0.0000

> <Gold.PLP.part.buried>
1.1758

> <Gold.PLP.part.nonpolar>
-24.6658

> <Gold.PLP.part.repulsive>
0.1288

> <Gold.PLP.ligand.clash>
0.0000

> <Gold.PLP.ligand.torsion>
0.3170

> <Gold.PLP.Chemscore.Hbond>
3.0000

> <Gold.PLP.Chemscore.CHOScore>
0.0000

> <Gold.PLP.Chemscore.Metal>
0.0000

> <Gold.Chemscore.Hbonds>
donor molecule, donor type, donor heavy atom, donor atom, acceptor molecule, acceptor atom, score
      L1  H     5    24       P1  7948  1.00
      L1  H     9    41       P1  7921  1.00
      P1  H  6896  6907       L1    17  1.00

> <Gold.PLP.Chemscore.Internal.Correction>
0.1026

> <Gold.Rescore>
     Score         DG    S(hbond)    S(metal)    S(lipo)     H(rot)  DE(clash)    DE(int)     intcor
     17.06     -18.47       2.86        0.00      70.65       1.89       1.04       0.37       ----

> <Gold.Chemscore.Fitness>
17.0581

> <Gold.Chemscore.DG>
-18.4702

> <Gold.Chemscore.ZeroCoef>
-5.4800

> <Gold.Chemscore.Hbond>
2.8602

> <Gold.Chemscore.Metal>
0.0000

> <Gold.Chemscore.Lipo>
70.6546

> <Gold.Chemscore.Internal_Hbond>
0.0000

> <Gold.Chemscore.DEClash>
1.0377

> <Gold.Chemscore.DEInternal>
0.3743

> <Gold.Chemscore.Rot>
1.8865

> <Gold.Chemscore.Internal.Correction>
   9.000000E+99

> <Gold.Chemscore.Hbonds>
donor molecule, donor type, donor heavy atom, donor atom, acceptor molecule, acceptor atom, score
      L1  H     5    24       P1  7948  0.87
      L1  H     9    41       P1  7921  0.91
      P1  H  6896  6907       L1    17  0.90

> <Gold.Chemscore.Hbond.Weighted>
-9.5531

> <Gold.Chemscore.Metal.Weighted>
-0.0000

> <Gold.Chemscore.Lipo.Weighted>
-8.2666

> <Gold.Chemscore.Internal_Hbond.Weighted>
0.0000

> <Gold.Chemscore.DEClash.Weighted>
1.0377

> <Gold.Chemscore.DEInternal.Weighted>
0.3743

> <Gold.Chemscore.Rot.Weighted>
4.8295

> <Gold.Chemscore.Internal.Correction.Weighted>
   9.000000E+99

> <Gold.Protein.RotatedTorsions>
[ 6907 6896 6895 6894 ] final -115.23 input  -60.11 | X-H torsion
[ 7974 7965 7964 7962 ] final -150.56 input  175.53 | X-H torsion
[ 8008 7997 7996 7995 ] final   60.59 input   59.86 | X-H torsion
[ 10167 10162 10161 10158 ] final   19.91 input  -65.29 | X-H torsion
[ 10718 10713 10712 10709 ] final  -84.94 input   66.30 | X-H torsion
[ 10763 10752 10751 10750 ] final -137.60 input  -60.55 | X-H torsion
[ 11005 11000 10999 10996 ] final  -20.67 input  -57.11 | X-H torsion

> <Gold.Protein.ActiveResidues>
 VAL166  LYS551  ARG553  GLY616  TRP617  ASP618  TYR619  PRO620  LYS621  CYS622 
 ASP623  PHE694  ASN695  SER759  ASP760  ASP761  ALA762  ILE779  LEU786  VAL792 
 PHE793  MET794  SER795  GLU796  ALA797  LYS798  CYS799  TRP800  GLU811  SER814 

> <Gold.Protein.RotatedAtoms>
  150.7962  133.8688  159.3252 H   0  0  0  0  0  0  0  0  0  0  0  0  # atno 6907 bound_to 6896
  151.6512  135.0999  160.0170 H   0  0  0  0  0  0  0  0  0  0  0  0  # atno 6908 bound_to 6896
  152.4044  133.6827  159.6379 H   0  0  0  0  0  0  0  0  0  0  0  0  # atno 6909 bound_to 6896
  144.7900  140.4915  143.5779 H   0  0  0  0  0  0  0  0  0  0  0  0  # atno 7974 bound_to 7965
  155.5847  140.3492  155.4550 H   0  0  0  0  0  0  0  0  0  0  0  0  # atno 8008 bound_to 7997
  156.0347  140.1282  157.0246 H   0  0  0  0  0  0  0  0  0  0  0  0  # atno 8009 bound_to 7997
  154.4366  140.1036  156.6135 H   0  0  0  0  0  0  0  0  0  0  0  0  # atno 8010 bound_to 7997
  140.5543  143.9452  150.6599 H   0  0  0  0  0  0  0  0  0  0  0  0  # atno 10167 bound_to 10162
  156.0001  130.4714  150.4487 H   0  0  0  0  0  0  0  0  0  0  0  0  # atno 10718 bound_to 10713
  154.8658  135.3637  154.5250 H   0  0  0  0  0  0  0  0  0  0  0  0  # atno 10763 bound_to 10752
  153.5878  135.7016  153.5441 H   0  0  0  0  0  0  0  0  0  0  0  0  # atno 10764 bound_to 10752
  153.3400  135.4100  155.1526 H   0  0  0  0  0  0  0  0  0  0  0  0  # atno 10765 bound_to 10752
  140.8487  133.7872  155.9942 H   0  0  0  0  0  0  0  0  0  0  0  0  # atno 11005 bound_to 11000
  145.5819  139.1489  143.3230 LP  0  0  0  0  0  0  0  0  0  0  0  0  # atno 17320 bound_to 7965
  146.2148  140.5949  142.9043 LP  0  0  0  0  0  0  0  0  0  0  0  0  # atno 17321 bound_to 7965
  140.2886  143.3339  152.1083 LP  0  0  0  0  0  0  0  0  0  0  0  0  # atno 17342 bound_to 10162
  139.5041  144.6769  151.6107 LP  0  0  0  0  0  0  0  0  0  0  0  0  # atno 17343 bound_to 10162
  157.2522  131.0549  151.2372 LP  0  0  0  0  0  0  0  0  0  0  0  0  # atno 17370 bound_to 10713
  157.3517  130.7086  149.6445 LP  0  0  0  0  0  0  0  0  0  0  0  0  # atno 17371 bound_to 10713
  140.8814  134.2607  157.5142 LP  0  0  0  0  0  0  0  0  0  0  0  0  # atno 17394 bound_to 11000
  139.8704  134.9617  156.4404 LP  0  0  0  0  0  0  0  0  0  0  0  0  # atno 17395 bound_to 11000

$$$$
