AV-unprocessed.smi:2390|AV-procd|sdf|9476|dock4
  -GOLD-   2272013103D 1   1.00000     0.00000
 Structure written by MMmdl.
 45 46  0  0  0  0  0  0  0  0  1 V2000
  142.1139  134.7920  153.0741 C   0  0  0  0  0  0  0  0  0  0  0  0
  143.4834  134.4225  152.5444 C   0  0  0  0  0  0  0  0  0  0  0  0
  143.6306  133.4765  151.5109 C   0  0  0  0  0  0  0  0  0  0  0  0
  144.9306  133.1792  151.0647 C   0  0  0  0  0  0  0  0  0  0  0  0
  146.0223  133.8355  151.6656 C   0  0  0  0  0  0  0  0  0  0  0  0
  145.7884  134.7706  152.6989 C   0  0  0  0  0  0  0  0  0  0  0  0
  146.9540  135.3776  153.2373 N   0  0  0  0  0  0  0  0  0  0  0  0
  147.2224  135.6648  154.5232 C   0  0  0  0  0  0  0  0  0  0  0  0
  146.4840  135.4156  155.4766 O   0  0  0  0  0  0  0  0  0  0  0  0
  148.4127  136.2707  154.6440 N   0  0  0  0  0  0  0  0  0  0  0  0
  149.0000  136.7639  155.8900 C   0  0  1  0  0  0  0  0  0  0  0  0
  149.5447  135.5803  156.7102 C   0  0  0  0  0  0  0  0  0  0  0  0
  150.0420  137.8900  155.6000 C   0  0  1  0  0  0  0  0  0  0  0  0
  150.9709  137.4598  154.4353 C   0  0  0  0  0  0  0  0  0  0  0  0
  149.4323  139.2257  155.3769 N   0  0  0  0  0  0  0  0  0  0  0  0
  148.6535  139.2921  154.1347 C   0  0  0  0  0  0  0  0  0  0  0  0
  148.0298  140.6775  153.8921 C   0  0  0  0  0  0  0  0  0  0  0  0
  149.0485  141.6677  153.8840 O   0  0  0  0  0  0  0  0  0  0  0  0
  149.7770  141.6910  155.1032 C   0  0  0  0  0  0  0  0  0  0  0  0
  150.4167  140.3145  155.3515 C   0  0  0  0  0  0  0  0  0  0  0  0
  144.5303  135.0501  153.1223 N   0  0  0  0  0  0  0  0  0  0  0  0
  141.3231  134.3560  152.4631 H   0  0  0  0  0  0  0  0  0  0  0  0
  141.9846  135.8748  153.0739 H   0  0  0  0  0  0  0  0  0  0  0  0
  141.9943  134.4314  154.0960 H   0  0  0  0  0  0  0  0  0  0  0  0
  142.7722  132.9907  151.0702 H   0  0  0  0  0  0  0  0  0  0  0  0
  145.0888  132.4605  150.2741 H   0  0  0  0  0  0  0  0  0  0  0  0
  147.0275  133.6198  151.3331 H   0  0  0  0  0  0  0  0  0  0  0  0
  147.6597  135.6358  152.5638 H   0  0  0  0  0  0  0  0  0  0  0  0
  148.9463  136.4342  153.8028 H   0  0  0  0  0  0  0  0  0  0  0  0
  148.2225  137.1787  156.5296 H   0  0  0  0  0  0  0  0  0  0  0  0
  150.0752  135.9267  157.5976 H   0  0  0  0  0  0  0  0  0  0  0  0
  150.2217  134.9497  156.1344 H   0  0  0  0  0  0  0  0  0  0  0  0
  148.7283  134.9407  157.0477 H   0  0  0  0  0  0  0  0  0  0  0  0
  150.6713  137.9617  156.4885 H   0  0  0  0  0  0  0  0  0  0  0  0
  151.3877  136.4654  154.5817 H   0  0  0  0  0  0  0  0  0  0  0  0
  151.8380  138.1111  154.3387 H   0  0  0  0  0  0  0  0  0  0  0  0
  150.4438  137.4605  153.4808 H   0  0  0  0  0  0  0  0  0  0  0  0
  149.2871  139.0272  153.2869 H   0  0  0  0  0  0  0  0  0  0  0  0
  147.8340  138.5762  154.1548 H   0  0  0  0  0  0  0  0  0  0  0  0
  147.5097  140.6958  152.9343 H   0  0  0  0  0  0  0  0  0  0  0  0
  147.2916  140.9097  154.6615 H   0  0  0  0  0  0  0  0  0  0  0  0
  150.5464  142.4606  155.0433 H   0  0  0  0  0  0  0  0  0  0  0  0
  149.1154  141.9627  155.9276 H   0  0  0  0  0  0  0  0  0  0  0  0
  150.9416  140.3848  156.3017 H   0  0  0  0  0  0  0  0  0  0  0  0
  151.1680  140.1179  154.5854 H   0  0  0  0  0  0  0  0  0  0  0  0
  1  2  1  0  0  0  0
  1 22  1  0  0  0  0
  1 23  1  0  0  0  0
  1 24  1  0  0  0  0
  2 21  1  0  0  0  0
  2  3  2  0  0  0  0
  3  4  1  0  0  0  0
  3 25  1  0  0  0  0
  4  5  2  0  0  0  0
  4 26  1  0  0  0  0
  5  6  1  0  0  0  0
  5 27  1  0  0  0  0
  6  7  1  0  0  0  0
  6 21  2  0  0  0  0
  7  8  1  0  0  0  0
  7 28  1  0  0  0  0
  8  9  2  0  0  0  0
  8 10  1  0  0  0  0
 10 11  1  0  0  0  0
 10 29  1  0  0  0  0
 11 12  1  0  0  0  0
 11 13  1  0  0  0  0
 11 30  1  0  0  0  0
 12 31  1  0  0  0  0
 12 32  1  0  0  0  0
 12 33  1  0  0  0  0
 13 14  1  0  0  0  0
 13 15  1  0  0  0  0
 13 34  1  0  0  0  0
 14 35  1  0  0  0  0
 14 36  1  0  0  0  0
 14 37  1  0  0  0  0
 15 20  1  0  0  0  0
 15 16  1  0  0  0  0
 16 17  1  0  0  0  0
 16 38  1  0  0  0  0
 16 39  1  0  0  0  0
 17 18  1  0  0  0  0
 17 40  1  0  0  0  0
 17 41  1  0  0  0  0
 18 19  1  0  0  0  0
 19 20  1  0  0  0  0
 19 42  1  0  0  0  0
 19 43  1  0  0  0  0
 20 44  1  0  0  0  0
 20 45  1  0  0  0  0
M  END
> <s_m_source_file>
AV-unprocessed.smi

> <i_m_source_file_index>
2390

> <i_lp_mmshare_version>
43012

> <i_f3d_flags>
0

> <s_epik_input>
W0NIM11jMVtjSF1bY0hdW2NIXWMobjEpW05IXUMoPU8pW05IXVtDQEhdKFtDSDNdKVtDQEhdKFtDSDNdKU4yW0NIMl1bQ0gyXU9bQ0gyXVtDSDJdMg==

> <s_epik_cmdline>
J2VwaWtfcHl0aG9uJywgJy1waCcsICc3LjAnLCAnLXRuJywgJzgnLCAnLW1hJywgJzIwMCcsICctbWV0YWxfYmluZGluZycsICctaW1hZScsICc8aW5maWxlLm1hZT4nLCAnLW9tYWUnLCAnPG91dGZpbGUubWFlPic=

> <r_epik_Ionization_Penalty>
0.266074

> <r_epik_Ionization_Penalty_Charging>
0

> <r_epik_Ionization_Penalty_Neutral>
0.266074

> <r_epik_State_Penalty>
0.257924

> <r_epik_Charging_Adjusted_Penalty>
0.257924

> <i_epik_Tot_Q>
0

> <i_epik_Tot_abs_Q>
0

> <r_epik_Metal_State_Penalty>
0.257919

> <b_epik_Metal_Only>
0

> <s_lp_Force_Field>
OPLS_2005

> <r_lp_Energy>
36.7319

> <b_lp_Chiralities_Consistent>
1

> <s_lp_Variant>
AV-unprocessed.smi:2390-4

> <Gold.Version>
5.8.1

> <Gold.Id.Protein>
6NUR|6NUR_protein|mol2

> <Gold.PLP.Fitness>
36.0576

> <Gold.PLP.PLP>
-30.2858

> <Gold.PLP.part.hbond>
-3.7459

> <Gold.PLP.part.metal>
0.0000

> <Gold.PLP.part.buried>
-0.7388

> <Gold.PLP.part.nonpolar>
-23.9917

> <Gold.PLP.part.repulsive>
0.3452

> <Gold.PLP.ligand.clash>
0.0000

> <Gold.PLP.ligand.torsion>
1.0180

> <Gold.PLP.Chemscore.Hbond>
2.5680

> <Gold.PLP.Chemscore.CHOScore>
0.0000

> <Gold.PLP.Chemscore.Metal>
0.0000

> <Gold.Chemscore.Hbonds>
donor molecule, donor type, donor heavy atom, donor atom, acceptor molecule, acceptor atom, score
      L1  H     7    28       P1  7948  1.00
      L1  H    10    29       P1  7948  0.91
      P1  H  8011  8017       L1    18  0.62

> <Gold.PLP.Chemscore.Internal.Correction>
0.1038

> <Gold.Rescore>
     Score         DG    S(hbond)    S(metal)    S(lipo)     H(rot)  DE(clash)    DE(int)     intcor
     16.91     -18.61       2.50        0.00      72.29       1.44       0.01       1.70       ----

> <Gold.Chemscore.Fitness>
16.9111

> <Gold.Chemscore.DG>
-18.6134

> <Gold.Chemscore.ZeroCoef>
-5.4800

> <Gold.Chemscore.Hbond>
2.5032

> <Gold.Chemscore.Metal>
0.0000

> <Gold.Chemscore.Lipo>
72.2918

> <Gold.Chemscore.Internal_Hbond>
0.0000

> <Gold.Chemscore.DEClash>
0.0058

> <Gold.Chemscore.DEInternal>
1.6964

> <Gold.Chemscore.Rot>
1.4396

> <Gold.Chemscore.Internal.Correction>
   9.000000E+99

> <Gold.Chemscore.Hbonds>
donor molecule, donor type, donor heavy atom, donor atom, acceptor molecule, acceptor atom, score
      L1  H     7    28       P1  7948  0.97
      L1  H    10    29       P1  7948  0.87
      P1  H  8011  8017       L1    18  0.60

> <Gold.Chemscore.Hbond.Weighted>
-8.3607

> <Gold.Chemscore.Metal.Weighted>
-0.0000

> <Gold.Chemscore.Lipo.Weighted>
-8.4581

> <Gold.Chemscore.Internal_Hbond.Weighted>
0.0000

> <Gold.Chemscore.DEClash.Weighted>
0.0058

> <Gold.Chemscore.DEInternal.Weighted>
1.6964

> <Gold.Chemscore.Rot.Weighted>
3.6855

> <Gold.Chemscore.Internal.Correction.Weighted>
   9.000000E+99

> <Gold.Protein.RotatedTorsions>
[ 6907 6896 6895 6894 ] final  -70.30 input  -60.11 | X-H torsion
[ 7974 7965 7964 7962 ] final  -90.86 input  175.53 | X-H torsion
[ 8008 7997 7996 7995 ] final  114.17 input   59.86 | X-H torsion
[ 10167 10162 10161 10158 ] final -115.09 input  -65.29 | X-H torsion
[ 10718 10713 10712 10709 ] final   66.76 input   66.30 | X-H torsion
[ 10763 10752 10751 10750 ] final  -16.61 input  -60.55 | X-H torsion
[ 11005 11000 10999 10996 ] final   77.24 input  -57.11 | X-H torsion

> <Gold.Protein.ActiveResidues>
 VAL166  LYS551  ARG553  GLY616  TRP617  ASP618  TYR619  PRO620  LYS621  CYS622 
 ASP623  PHE694  ASN695  SER759  ASP760  ASP761  ALA762  ILE779  LEU786  VAL792 
 PHE793  MET794  SER795  GLU796  ALA797  LYS798  CYS799  TRP800  GLU811  SER814 

> <Gold.Protein.RotatedAtoms>
  150.7264  134.5473  159.5776 H   0  0  0  0  0  0  0  0  0  0  0  0  # atno 6907 bound_to 6896
  152.2969  134.7653  160.0375 H   0  0  0  0  0  0  0  0  0  0  0  0  # atno 6908 bound_to 6896
  151.8247  133.3364  159.3631 H   0  0  0  0  0  0  0  0  0  0  0  0  # atno 6909 bound_to 6896
  145.4209  140.9551  143.2181 H   0  0  0  0  0  0  0  0  0  0  0  0  # atno 7974 bound_to 7965
  156.2304  140.2964  156.0174 H   0  0  0  0  0  0  0  0  0  0  0  0  # atno 8008 bound_to 7997
  155.2240  140.0416  157.2969 H   0  0  0  0  0  0  0  0  0  0  0  0  # atno 8009 bound_to 7997
  154.5986  140.2421  155.7830 H   0  0  0  0  0  0  0  0  0  0  0  0  # atno 8010 bound_to 7997
  140.0939  143.4674  152.1853 H   0  0  0  0  0  0  0  0  0  0  0  0  # atno 10167 bound_to 10162
  157.6189  130.9285  150.0152 H   0  0  0  0  0  0  0  0  0  0  0  0  # atno 10718 bound_to 10713
  153.5611  135.7009  153.5547 H   0  0  0  0  0  0  0  0  0  0  0  0  # atno 10763 bound_to 10752
  153.3428  135.4016  155.1585 H   0  0  0  0  0  0  0  0  0  0  0  0  # atno 10764 bound_to 10752
  154.8647  135.3746  154.5128 H   0  0  0  0  0  0  0  0  0  0  0  0  # atno 10765 bound_to 10752
  139.9263  134.7666  156.1496 H   0  0  0  0  0  0  0  0  0  0  0  0  # atno 11005 bound_to 11000
  144.8246  139.5732  143.6971 LP  0  0  0  0  0  0  0  0  0  0  0  0  # atno 17320 bound_to 7965
  146.2657  139.6514  142.9331 LP  0  0  0  0  0  0  0  0  0  0  0  0  # atno 17321 bound_to 7965
  139.5709  144.7462  151.3894 LP  0  0  0  0  0  0  0  0  0  0  0  0  # atno 17342 bound_to 10162
  140.7014  143.7623  150.7409 LP  0  0  0  0  0  0  0  0  0  0  0  0  # atno 17343 bound_to 10162
  156.1324  130.3643  149.9710 LP  0  0  0  0  0  0  0  0  0  0  0  0  # atno 17370 bound_to 10713
  156.7768  130.9207  151.3645 LP  0  0  0  0  0  0  0  0  0  0  0  0  # atno 17371 bound_to 10713
  141.0823  133.6749  156.2362 LP  0  0  0  0  0  0  0  0  0  0  0  0  # atno 17394 bound_to 11000
  140.6327  134.5247  157.5561 LP  0  0  0  0  0  0  0  0  0  0  0  0  # atno 17395 bound_to 11000

$$$$
