AV-unprocessed.smi:53|AV-procd|sdf|514|dock4
  -GOLD-   2262016383D 1   1.00000     0.00000
 Structure written by MMmdl.
 30 31  0  0  0  0  0  0  0  0  1 V2000
  141.4606  136.3724  155.0549 N   0  0  0  0  0  0  0  0  0  0  0  0
  142.1775  136.0581  153.9669 C   0  0  0  0  0  0  0  0  0  0  0  0
  143.0362  137.0415  153.3485 C   0  0  0  0  0  0  0  0  0  0  0  0
  143.7313  136.6475  152.2587 C   0  0  0  0  0  0  0  0  0  0  0  0
  143.6563  135.3524  151.7564 N   0  0  0  0  0  0  0  0  0  0  0  0
  144.4127  134.9123  150.5120 C   0  0  1  0  0  0  0  0  0  0  0  0
  145.4912  134.1023  150.8695 O   0  0  0  0  0  0  0  0  0  0  0  0
  145.0888  132.7388  150.8421 C   0  0  2  0  0  0  0  0  0  0  0  0
  146.3245  131.8293  150.7753 C   0  0  0  0  0  0  0  0  0  0  0  0
  147.0466  132.0845  149.5894 O   0  0  0  0  0  0  0  0  0  0  0  0
  144.2197  132.6919  149.5843 C   0  0  1  0  0  0  0  0  0  0  0  0
  143.2720  131.6473  149.6811 O   0  0  0  0  0  0  0  0  0  0  0  0
  143.5262  134.0537  149.5778 C   0  0  2  0  0  0  0  0  0  0  0  0
  143.4923  134.5733  148.2632 O   0  0  0  0  0  0  0  0  0  0  0  0
  142.7723  134.4262  152.3637 C   0  0  0  0  0  0  0  0  0  0  0  0
  142.6211  133.2891  151.9189 O   0  0  0  0  0  0  0  0  0  0  0  0
  142.0794  134.8416  153.4687 N   0  0  0  0  0  0  0  0  0  0  0  0
  144.7786  135.8411  150.0689 H   0  0  0  0  0  0  0  0  0  0  0  0
  144.4801  132.5080  151.7188 H   0  0  0  0  0  0  0  0  0  0  0  0
  144.8434  132.5618  148.6980 H   0  0  0  0  0  0  0  0  0  0  0  0
  142.5123  133.9848  149.9746 H   0  0  0  0  0  0  0  0  0  0  0  0
  140.8570  135.6845  155.4816 H   0  0  0  0  0  0  0  0  0  0  0  0
  141.5236  137.3019  155.4441 H   0  0  0  0  0  0  0  0  0  0  0  0
  143.1400  138.0533  153.7138 H   0  0  0  0  0  0  0  0  0  0  0  0
  144.3574  137.3907  151.7892 H   0  0  0  0  0  0  0  0  0  0  0  0
  146.9890  132.0378  151.6144 H   0  0  0  0  0  0  0  0  0  0  0  0
  146.0475  130.7763  150.8337 H   0  0  0  0  0  0  0  0  0  0  0  0
  147.7319  131.4386  149.5097 H   0  0  0  0  0  0  0  0  0  0  0  0
  142.4198  132.0297  149.8266 H   0  0  0  0  0  0  0  0  0  0  0  0
  144.3689  134.8260  148.0171 H   0  0  0  0  0  0  0  0  0  0  0  0
  1  2  1  0  0  0  0
  1 22  1  0  0  0  0
  1 23  1  0  0  0  0
  2 17  2  0  0  0  0
  2  3  1  0  0  0  0
  3  4  2  0  0  0  0
  3 24  1  0  0  0  0
  4  5  1  0  0  0  0
  4 25  1  0  0  0  0
  5  6  1  0  0  0  0
  5 15  1  0  0  0  0
  6 18  1  0  0  0  0
  6 13  1  0  0  0  0
  6  7  1  0  0  0  0
  7  8  1  0  0  0  0
  8 19  1  0  0  0  0
  8  9  1  0  0  0  0
  8 11  1  0  0  0  0
  9 10  1  0  0  0  0
  9 26  1  0  0  0  0
  9 27  1  0  0  0  0
 10 28  1  0  0  0  0
 11 20  1  0  0  0  0
 11 12  1  0  0  0  0
 11 13  1  0  0  0  0
 12 29  1  0  0  0  0
 13 21  1  0  0  0  0
 13 14  1  0  0  0  0
 14 30  1  0  0  0  0
 15 16  2  0  0  0  0
 15 17  1  0  0  0  0
M  END
> <s_m_source_file>
AV-unprocessed.smi

> <i_m_source_file_index>
53

> <i_lp_mmshare_version>
43012

> <i_f3d_flags>
0

> <s_epik_input>
W05IMl1jMVtjSF1bY0hdbihjKD1PKW4xKVtDQEBIXTJPW0NASF0oW0NIMl1bT0hdKVtDQEBIXShbT0hdKVtDQEBIXTJbT0hd

> <s_epik_cmdline>
J2VwaWtfcHl0aG9uJywgJy1waCcsICc3LjAnLCAnLXRuJywgJzgnLCAnLW1hJywgJzIwMCcsICctbWV0YWxfYmluZGluZycsICctaW1hZScsICc8aW5maWxlLm1hZT4nLCAnLW9tYWUnLCAnPG91dGZpbGUubWFlPic=

> <r_lp_tautomer_probability>
0.99996

> <r_epik_Ionization_Penalty>
0.00069087

> <r_epik_Ionization_Penalty_Charging>
2.61959e-08

> <r_epik_Ionization_Penalty_Neutral>
0.000690844

> <r_epik_State_Penalty>
1.15523e-05

> <r_epik_Charging_Adjusted_Penalty>
1.15785e-05

> <i_epik_Tot_Q>
0

> <i_epik_Tot_abs_Q>
0

> <r_epik_Metal_State_Penalty>
-0

> <b_epik_Metal_Only>
0

> <s_epik_Chemistry_Notes>
This compound contains an acetal/aminal-like group ( X-CH(R)-Y where X, Y are N, S, or O) that may be acid/base labile, releasing an aldehyde.

> <s_lp_Force_Field>
OPLS_2005

> <r_lp_Energy>
26.6068

> <b_lp_Chiralities_Consistent>
1

> <s_lp_Variant>
AV-unprocessed.smi:53-2

> <Gold.Version>
5.8.1

> <Gold.Id.Protein>
6NUR|6NUR_protein|mol2

> <Gold.PLP.Fitness>
37.4414

> <Gold.PLP.PLP>
-25.3169

> <Gold.PLP.part.hbond>
-6.7886

> <Gold.PLP.part.metal>
0.0000

> <Gold.PLP.part.buried>
0.1658

> <Gold.PLP.part.nonpolar>
-20.5739

> <Gold.PLP.part.repulsive>
1.2057

> <Gold.PLP.ligand.clash>
4.5514

> <Gold.PLP.ligand.torsion>
0.4764

> <Gold.PLP.Chemscore.Hbond>
4.9418

> <Gold.PLP.Chemscore.CHOScore>
0.9216

> <Gold.PLP.Chemscore.Metal>
0.0000

> <Gold.Chemscore.Hbonds>
donor molecule, donor type, donor heavy atom, donor atom, acceptor molecule, acceptor atom, score
      L1  H     1    22       P1 11000  1.00
      L1  H    10    28       P1 10747  0.88
      L1  H    12    29       P1 10952  0.05
      L1  H    14    30       P1  7921  1.00
      P1  H 10192 10197       L1    14  1.00
      P1  H 10785 10796       L1    12  1.00
      L1  C     4    25       P1 10171  0.92

> <Gold.PLP.Chemscore.Internal.Correction>
0.0387

> <Gold.Rescore>
     Score         DG    S(hbond)    S(metal)    S(lipo)     H(rot)  DE(clash)    DE(int)     intcor
      7.75     -16.41       4.53        0.00      45.22       3.71       2.64       6.02       ----

> <Gold.Chemscore.Fitness>
7.7480

> <Gold.Chemscore.DG>
-16.4098

> <Gold.Chemscore.ZeroCoef>
-5.4800

> <Gold.Chemscore.Hbond>
4.5317

> <Gold.Chemscore.Metal>
0.0000

> <Gold.Chemscore.Lipo>
45.2166

> <Gold.Chemscore.Internal_Hbond>
0.0000

> <Gold.Chemscore.DEClash>
2.6448

> <Gold.Chemscore.DEInternal>
6.0170

> <Gold.Chemscore.Rot>
3.7095

> <Gold.Chemscore.Internal.Correction>
   9.000000E+99

> <Gold.Chemscore.Hbonds>
donor molecule, donor type, donor heavy atom, donor atom, acceptor molecule, acceptor atom, score
      L1  H     1    22       P1 11000  0.38
      L1  H    10    28       P1 10747  0.82
      L1  H    12    29       P1 10952  0.05
      L1  H    14    30       P1  7921  1.00
      P1  H 10192 10197       L1    14  0.95
      P1  H 10785 10796       L1    12  0.84

> <Gold.Chemscore.Hbond.Weighted>
-15.1359

> <Gold.Chemscore.Metal.Weighted>
-0.0000

> <Gold.Chemscore.Lipo.Weighted>
-5.2903

> <Gold.Chemscore.Internal_Hbond.Weighted>
0.0000

> <Gold.Chemscore.DEClash.Weighted>
2.6448

> <Gold.Chemscore.DEInternal.Weighted>
6.0170

> <Gold.Chemscore.Rot.Weighted>
9.4964

> <Gold.Chemscore.Internal.Correction.Weighted>
   9.000000E+99

> <Gold.Protein.RotatedTorsions>
[ 6907 6896 6895 6894 ] final  -14.02 input  -60.11 | X-H torsion
[ 7974 7965 7964 7962 ] final   10.24 input  175.53 | X-H torsion
[ 8008 7997 7996 7995 ] final   61.38 input   59.86 | X-H torsion
[ 10167 10162 10161 10158 ] final  -92.49 input  -65.29 | X-H torsion
[ 10718 10713 10712 10709 ] final  -96.22 input   66.30 | X-H torsion
[ 10763 10752 10751 10750 ] final   11.10 input  -60.55 | X-H torsion
[ 11005 11000 10999 10996 ] final -141.76 input  -57.11 | X-H torsion

> <Gold.Protein.ActiveResidues>
 VAL166  LYS551  ARG553  GLY616  TRP617  ASP618  TYR619  PRO620  LYS621  CYS622 
 ASP623  PHE694  ASN695  SER759  ASP760  ASP761  ALA762  ILE779  LEU786  VAL792 
 PHE793  MET794  SER795  GLU796  ALA797  LYS798  CYS799  TRP800  GLU811  SER814 

> <Gold.Protein.RotatedAtoms>
  151.3458  135.0874  159.9386 H   0  0  0  0  0  0  0  0  0  0  0  0  # atno 6907 bound_to 6896
  152.5200  133.9401  159.7632 H   0  0  0  0  0  0  0  0  0  0  0  0  # atno 6908 bound_to 6896
  150.9767  133.6234  159.2759 H   0  0  0  0  0  0  0  0  0  0  0  0  # atno 6909 bound_to 6896
  146.2391  139.9663  142.8452 H   0  0  0  0  0  0  0  0  0  0  0  0  # atno 7974 bound_to 7965
  155.5974  140.3493  155.4584 H   0  0  0  0  0  0  0  0  0  0  0  0  # atno 8008 bound_to 7997
  156.0254  140.1263  157.0338 H   0  0  0  0  0  0  0  0  0  0  0  0  # atno 8009 bound_to 7997
  154.4331  140.1054  156.6010 H   0  0  0  0  0  0  0  0  0  0  0  0  # atno 8010 bound_to 7997
  140.3343  143.2977  151.9907 H   0  0  0  0  0  0  0  0  0  0  0  0  # atno 10167 bound_to 10162
  156.0058  130.5142  150.6194 H   0  0  0  0  0  0  0  0  0  0  0  0  # atno 10718 bound_to 10713
  153.1962  135.6849  153.8289 H   0  0  0  0  0  0  0  0  0  0  0  0  # atno 10763 bound_to 10752
  153.7572  135.3215  155.3332 H   0  0  0  0  0  0  0  0  0  0  0  0  # atno 10764 bound_to 10752
  154.8145  135.4695  154.0707 H   0  0  0  0  0  0  0  0  0  0  0  0  # atno 10765 bound_to 10752
  140.8293  134.2536  157.4864 H   0  0  0  0  0  0  0  0  0  0  0  0  # atno 11005 bound_to 11000
  145.1723  140.9727  143.4314 LP  0  0  0  0  0  0  0  0  0  0  0  0  # atno 17320 bound_to 7965
  145.0017  139.3592  143.6164 LP  0  0  0  0  0  0  0  0  0  0  0  0  # atno 17321 bound_to 7965
  139.4851  144.6209  151.7256 LP  0  0  0  0  0  0  0  0  0  0  0  0  # atno 17342 bound_to 10162
  140.5368  144.0643  150.6073 LP  0  0  0  0  0  0  0  0  0  0  0  0  # atno 17343 bound_to 10162
  157.4012  131.0810  151.1307 LP  0  0  0  0  0  0  0  0  0  0  0  0  # atno 17370 bound_to 10713
  157.1968  130.6376  149.5724 LP  0  0  0  0  0  0  0  0  0  0  0  0  # atno 17371 bound_to 10713
  139.8705  134.9577  156.4278 LP  0  0  0  0  0  0  0  0  0  0  0  0  # atno 17394 bound_to 11000
  140.9015  133.7776  155.9686 LP  0  0  0  0  0  0  0  0  0  0  0  0  # atno 17395 bound_to 11000

$$$$
