AV-unprocessed.smi:1843|AV-procd|sdf|7504|dock8
  -GOLD-   22720 9213D 1   1.00000     0.00000
 Structure written by MMmdl.
 36 38  0  0  0  0  0  0  0  0  2 V2000
  147.4719  140.0656  154.6627 O   0  0  0  0  0  0  0  0  0  0  0  0
  148.1711  139.2273  154.0887 C   0  0  0  0  0  0  0  0  0  0  0  0
  149.5193  139.1351  154.1451 N   0  5  0  0  0  0  0  0  0  0  0  0
  150.1928  139.7346  155.1410 C   0  0  0  0  0  0  0  0  0  0  0  0
  151.5213  139.9090  155.1061 N   0  0  0  0  0  0  0  0  0  0  0  0
  152.0157  140.5515  156.2317 N   0  0  0  0  0  0  0  0  0  0  0  0
  151.0500  140.8616  157.0999 C   0  0  0  0  0  0  0  0  0  0  0  0
  151.3294  141.5566  158.3905 C   0  0  0  0  0  0  0  0  0  0  0  0
  151.9509  142.9341  158.4060 C   0  0  0  0  0  0  0  0  0  0  0  0
  152.7418  141.7492  158.8984 C   0  0  0  0  0  0  0  0  0  0  0  0
  149.4361  140.3880  156.5935 S   0  0  0  0  0  0  0  0  0  0  0  0
  147.5983  138.2904  153.3197 N   0  0  0  0  0  0  0  0  0  0  0  0
  146.1670  138.1459  153.0591 C   0  0  2  0  0  0  0  0  0  0  0  0
  145.4430  137.8234  154.3856 C   0  0  0  0  0  0  0  0  0  0  0  0
  143.9561  137.5037  154.1744 C   0  0  0  0  0  0  0  0  0  0  0  0
  143.7798  136.3527  153.1756 C   0  0  0  0  0  0  0  0  0  0  0  0
  144.4519  136.6904  151.8382 C   0  0  0  0  0  0  0  0  0  0  0  0
  145.9454  137.0240  152.0174 C   0  0  1  0  0  0  0  0  0  0  0  0
  146.4402  137.4373  150.7590 O   0  0  0  0  0  0  0  0  0  0  0  0
  150.5515  141.3394  159.1198 H   0  0  0  0  0  0  0  0  0  0  0  0
  152.2413  143.3685  157.4513 H   0  0  0  0  0  0  0  0  0  0  0  0
  151.5849  143.6403  159.1483 H   0  0  0  0  0  0  0  0  0  0  0  0
  152.9047  141.6649  159.9708 H   0  0  0  0  0  0  0  0  0  0  0  0
  153.5648  141.4069  158.2745 H   0  0  0  0  0  0  0  0  0  0  0  0
  148.2106  137.6284  152.8661 H   0  0  0  0  0  0  0  0  0  0  0  0
  145.7656  139.0790  152.6585 H   0  0  0  0  0  0  0  0  0  0  0  0
  145.9237  136.9706  154.8676 H   0  0  0  0  0  0  0  0  0  0  0  0
  145.5395  138.6600  155.0786 H   0  0  0  0  0  0  0  0  0  0  0  0
  143.4931  137.2446  155.1268 H   0  0  0  0  0  0  0  0  0  0  0  0
  143.4384  138.3914  153.8089 H   0  0  0  0  0  0  0  0  0  0  0  0
  144.2109  135.4381  153.5852 H   0  0  0  0  0  0  0  0  0  0  0  0
  142.7191  136.1540  153.0194 H   0  0  0  0  0  0  0  0  0  0  0  0
  144.3361  135.8545  151.1472 H   0  0  0  0  0  0  0  0  0  0  0  0
  143.9355  137.5384  151.3854 H   0  0  0  0  0  0  0  0  0  0  0  0
  146.4787  136.1223  152.3224 H   0  0  0  0  0  0  0  0  0  0  0  0
  145.7377  137.8535  150.2835 H   0  0  0  0  0  0  0  0  0  0  0  0
  1  2  2  0  0  0  0
  2  3  1  0  0  0  0
  2 12  1  0  0  0  0
  3  4  1  0  0  0  0
  4 11  1  0  0  0  0
  4  5  2  0  0  0  0
  5  6  1  0  0  0  0
  6  7  2  0  0  0  0
  7  8  1  0  0  0  0
  7 11  1  0  0  0  0
  8 10  1  0  0  0  0
  8  9  1  0  0  0  0
  8 20  1  0  0  0  0
  9 10  1  0  0  0  0
  9 21  1  0  0  0  0
  9 22  1  0  0  0  0
 10 23  1  0  0  0  0
 10 24  1  0  0  0  0
 12 13  1  0  0  0  0
 12 25  1  0  0  0  0
 13 18  1  0  0  0  0
 13 14  1  0  0  0  0
 13 26  1  0  0  0  0
 14 15  1  0  0  0  0
 14 27  1  0  0  0  0
 14 28  1  0  0  0  0
 15 16  1  0  0  0  0
 15 29  1  0  0  0  0
 15 30  1  0  0  0  0
 16 17  1  0  0  0  0
 16 31  1  0  0  0  0
 16 32  1  0  0  0  0
 17 18  1  0  0  0  0
 17 33  1  0  0  0  0
 17 34  1  0  0  0  0
 18 19  1  0  0  0  0
 18 35  1  0  0  0  0
 19 36  1  0  0  0  0
M  CHG  1   3  -1
M  END
> <s_m_source_file>
AV-unprocessed.smi

> <i_m_source_file_index>
1843

> <i_lp_mmshare_version>
43012

> <i_f3d_flags>
0

> <s_epik_input>
W09IXVtDQEBIXTFbQ0gyXVtDSDJdW0NIMl1bQ0gyXVtDQEhdMVtOSF1DKD1PKVtOSF1jMm5uYyhzMilbQ0hdM1tDSDJdW0NIMl0z

> <s_epik_cmdline>
J2VwaWtfcHl0aG9uJywgJy1waCcsICc3LjAnLCAnLXRuJywgJzgnLCAnLW1hJywgJzIwMCcsICctbWV0YWxfYmluZGluZycsICctaW1hZScsICc8aW5maWxlLm1hZT4nLCAnLW9tYWUnLCAnPG91dGZpbGUubWFlPic=

> <r_lp_tautomer_probability>
1

> <r_epik_Ionization_Penalty>
4.7996

> <r_epik_Ionization_Penalty_Charging>
4.64516

> <r_epik_Ionization_Penalty_Neutral>
0.154442

> <r_epik_State_Penalty>
4.64493

> <r_epik_Charging_Adjusted_Penalty>
9.29009

> <i_epik_Tot_Q>
-1

> <i_epik_Tot_abs_Q>
1

> <r_epik_Metal_State_Penalty>
0.896144

> <b_epik_Metal_Only>
1

> <s_lp_Force_Field>
OPLS_2005

> <r_lp_Energy>
6.98885

> <b_lp_Chiralities_Consistent>
1

> <s_lp_Variant>
AV-unprocessed.smi:1843-5

> <Gold.Version>
5.8.1

> <Gold.Id.Protein>
6NUR|6NUR_protein|mol2

> <Gold.PLP.Fitness>
36.7111

> <Gold.PLP.PLP>
-24.6156

> <Gold.PLP.part.hbond>
-5.2692

> <Gold.PLP.part.metal>
0.0000

> <Gold.PLP.part.buried>
-1.2273

> <Gold.PLP.part.nonpolar>
-19.2015

> <Gold.PLP.part.repulsive>
0.5136

> <Gold.PLP.ligand.clash>
0.0000

> <Gold.PLP.ligand.torsion>
0.2362

> <Gold.PLP.Chemscore.Hbond>
4.1441

> <Gold.PLP.Chemscore.CHOScore>
0.0000

> <Gold.PLP.Chemscore.Metal>
0.0000

> <Gold.Chemscore.Hbonds>
donor molecule, donor type, donor heavy atom, donor atom, acceptor molecule, acceptor atom, score
      L1  H    12    25       P1  7948  1.00
      L1  H    19    36       P1 10171  0.96
      P1  H  7954  7966       L1    19  1.00
      P1  H  7989  7998       L1     5  0.95
      P1  H  7997  8009       L1     6  0.20

> <Gold.PLP.Chemscore.Internal.Correction>
0.1358

> <Gold.Rescore>
     Score         DG    S(hbond)    S(metal)    S(lipo)     H(rot)  DE(clash)    DE(int)     intcor
     16.10     -19.39       3.42        0.00      58.71       1.72       1.59       1.70       ----

> <Gold.Chemscore.Fitness>
16.0971

> <Gold.Chemscore.DG>
-19.3889

> <Gold.Chemscore.ZeroCoef>
-5.4800

> <Gold.Chemscore.Hbond>
3.4231

> <Gold.Chemscore.Metal>
0.0000

> <Gold.Chemscore.Lipo>
58.7070

> <Gold.Chemscore.Internal_Hbond>
0.0000

> <Gold.Chemscore.DEClash>
1.5877

> <Gold.Chemscore.DEInternal>
1.7041

> <Gold.Chemscore.Rot>
1.7160

> <Gold.Chemscore.Internal.Correction>
   9.000000E+99

> <Gold.Chemscore.Hbonds>
donor molecule, donor type, donor heavy atom, donor atom, acceptor molecule, acceptor atom, score
      L1  H    12    25       P1  7948  1.00
      L1  H    19    36       P1 10171  0.91
      P1  H  7954  7966       L1    19  0.67
      P1  H  7989  7998       L1     5  0.19
      P1  H  7997  8009       L1     6  0.13

> <Gold.Chemscore.Hbond.Weighted>
-11.4331

> <Gold.Chemscore.Metal.Weighted>
-0.0000

> <Gold.Chemscore.Lipo.Weighted>
-6.8687

> <Gold.Chemscore.Internal_Hbond.Weighted>
0.0000

> <Gold.Chemscore.DEClash.Weighted>
1.5877

> <Gold.Chemscore.DEInternal.Weighted>
1.7041

> <Gold.Chemscore.Rot.Weighted>
4.3930

> <Gold.Chemscore.Internal.Correction.Weighted>
   9.000000E+99

> <Gold.Protein.RotatedTorsions>
[ 6907 6896 6895 6894 ] final   88.61 input  -60.11 | X-H torsion
[ 7974 7965 7964 7962 ] final   33.77 input  175.53 | X-H torsion
[ 8008 7997 7996 7995 ] final -161.08 input   59.86 | X-H torsion
[ 10167 10162 10161 10158 ] final   43.05 input  -65.29 | X-H torsion
[ 10718 10713 10712 10709 ] final  -46.12 input   66.30 | X-H torsion
[ 10763 10752 10751 10750 ] final  -69.35 input  -60.55 | X-H torsion
[ 11005 11000 10999 10996 ] final   73.66 input  -57.11 | X-H torsion

> <Gold.Protein.ActiveResidues>
 VAL166  LYS551  ARG553  GLY616  TRP617  ASP618  TYR619  PRO620  LYS621  CYS622 
 ASP623  PHE694  ASN695  SER759  ASP760  ASP761  ALA762  ILE779  LEU786  VAL792 
 PHE793  MET794  SER795  GLU796  ALA797  LYS798  CYS799  TRP800  GLU811  SER814 

> <Gold.Protein.RotatedAtoms>
  152.5427  134.2095  159.8744 H   0  0  0  0  0  0  0  0  0  0  0  0  # atno 6907 bound_to 6896
  151.2079  133.4566  159.2605 H   0  0  0  0  0  0  0  0  0  0  0  0  # atno 6908 bound_to 6896
  151.0926  134.9937  159.8465 H   0  0  0  0  0  0  0  0  0  0  0  0  # atno 6909 bound_to 6896
  146.1398  139.6354  142.9170 H   0  0  0  0  0  0  0  0  0  0  0  0  # atno 7974 bound_to 7965
  155.7870  140.0873  157.2029 H   0  0  0  0  0  0  0  0  0  0  0  0  # atno 8008 bound_to 7997
  154.3987  140.1497  156.3176 H   0  0  0  0  0  0  0  0  0  0  0  0  # atno 8009 bound_to 7997
  155.8597  140.3431  155.5751 H   0  0  0  0  0  0  0  0  0  0  0  0  # atno 8010 bound_to 7997
  140.3483  144.2383  150.6148 H   0  0  0  0  0  0  0  0  0  0  0  0  # atno 10167 bound_to 10162
  156.2215  130.4166  149.8987 H   0  0  0  0  0  0  0  0  0  0  0  0  # atno 10718 bound_to 10713
  154.4021  135.6028  153.5903 H   0  0  0  0  0  0  0  0  0  0  0  0  # atno 10763 bound_to 10752
  152.9788  135.5909  154.4172 H   0  0  0  0  0  0  0  0  0  0  0  0  # atno 10764 bound_to 10752
  154.3972  135.2842  155.2097 H   0  0  0  0  0  0  0  0  0  0  0  0  # atno 10765 bound_to 10752
  139.9429  134.7366  156.1053 H   0  0  0  0  0  0  0  0  0  0  0  0  # atno 11005 bound_to 11000
  145.5072  141.0436  143.2507 LP  0  0  0  0  0  0  0  0  0  0  0  0  # atno 17320 bound_to 7965
  144.7780  139.6588  143.7166 LP  0  0  0  0  0  0  0  0  0  0  0  0  # atno 17321 bound_to 7965
  140.5244  143.2258  151.8338 LP  0  0  0  0  0  0  0  0  0  0  0  0  # atno 17342 bound_to 10162
  139.4830  144.4798  151.9321 LP  0  0  0  0  0  0  0  0  0  0  0  0  # atno 17343 bound_to 10162
  156.6632  130.8790  151.3550 LP  0  0  0  0  0  0  0  0  0  0  0  0  # atno 17370 bound_to 10713
  157.7090  130.9418  150.1024 LP  0  0  0  0  0  0  0  0  0  0  0  0  # atno 17371 bound_to 10713
  141.1070  133.6656  156.2887 LP  0  0  0  0  0  0  0  0  0  0  0  0  # atno 17394 bound_to 11000
  140.5907  134.5654  157.5499 LP  0  0  0  0  0  0  0  0  0  0  0  0  # atno 17395 bound_to 11000

$$$$
