AV-unprocessed.smi:2699|AV-procd|sdf|10425|dock4
  -GOLD-   2272014463D 1   1.00000     0.00000
 Structure written by MMmdl.
 43 45  0  0  0  0  0  0  0  0  1 V2000
  147.3779  142.9705  154.1358 C   0  0  0  0  0  0  0  0  0  0  0  0
  147.8659  141.5375  153.9638 C   0  0  0  0  0  0  0  0  0  0  0  0
  147.0634  140.6330  153.3561 C   0  0  0  0  0  0  0  0  0  0  0  0
  147.5140  139.2471  153.1396 C   0  0  0  0  0  0  0  0  0  0  0  0
  146.7900  138.3981  152.6236 O   0  0  0  0  0  0  0  0  0  0  0  0
  148.8847  138.9445  153.5737 C   0  0  0  0  0  0  0  0  0  0  0  0
  149.6095  139.9086  154.1728 C   0  0  0  0  0  0  0  0  0  0  0  0
  150.8748  139.6871  154.5603 O   0  0  0  0  0  0  0  0  0  0  0  0
  149.1574  141.2167  154.4390 N   0  0  0  0  0  0  0  0  0  0  0  0
  149.9787  142.1851  155.1890 C   0  0  0  0  0  0  0  0  0  0  0  0
  150.2068  141.7838  156.6591 C   0  0  0  0  0  0  0  0  0  0  0  0
  149.6033  140.8292  157.1466 O   0  0  0  0  0  0  0  0  0  0  0  0
  151.0736  142.4954  157.3959 N   0  0  0  0  0  0  0  0  0  0  0  0
  151.4184  142.2678  158.7962 C   0  0  0  0  0  0  0  0  0  0  0  0
  152.3192  143.3847  159.3571 C   0  0  0  0  0  0  0  0  0  0  0  0
  153.4743  142.7086  160.1032 C   0  0  0  0  0  0  0  0  0  0  0  0
  153.9184  141.3078  159.7646 C   0  0  0  0  0  0  0  0  0  0  0  0
  153.3098  141.6052  161.1223 C   0  0  0  0  0  0  0  0  0  0  0  0
  152.7309  144.4854  158.3546 C   0  0  0  0  0  0  0  0  0  0  0  0
  151.5170  145.3073  158.7833 C   0  0  0  0  0  0  0  0  0  0  0  0
  151.5374  144.5069  160.0845 C   0  0  0  0  0  0  0  0  0  0  0  0
  146.5387  143.1765  153.4705 H   0  0  0  0  0  0  0  0  0  0  0  0
  148.1526  143.6986  153.8971 H   0  0  0  0  0  0  0  0  0  0  0  0
  147.0387  143.1363  155.1584 H   0  0  0  0  0  0  0  0  0  0  0  0
  146.0804  140.9077  153.0018 H   0  0  0  0  0  0  0  0  0  0  0  0
  149.2879  137.9585  153.3924 H   0  0  0  0  0  0  0  0  0  0  0  0
  150.9420  142.3343  154.7027 H   0  0  0  0  0  0  0  0  0  0  0  0
  149.5171  143.1722  155.1572 H   0  0  0  0  0  0  0  0  0  0  0  0
  151.5342  143.2721  156.9441 H   0  0  0  0  0  0  0  0  0  0  0  0
  150.4911  142.1933  159.3657 H   0  0  0  0  0  0  0  0  0  0  0  0
  151.9195  141.3045  158.9018 H   0  0  0  0  0  0  0  0  0  0  0  0
  154.2734  143.4027  160.3563 H   0  0  0  0  0  0  0  0  0  0  0  0
  153.3159  140.7393  159.0591 H   0  0  0  0  0  0  0  0  0  0  0  0
  154.9891  141.1200  159.7202 H   0  0  0  0  0  0  0  0  0  0  0  0
  153.9828  141.6133  161.9770 H   0  0  0  0  0  0  0  0  0  0  0  0
  152.3170  141.2146  161.3285 H   0  0  0  0  0  0  0  0  0  0  0  0
  153.6727  144.9700  158.6186 H   0  0  0  0  0  0  0  0  0  0  0  0
  152.7248  144.1858  157.3062 H   0  0  0  0  0  0  0  0  0  0  0  0
  151.7068  146.3747  158.9001 H   0  0  0  0  0  0  0  0  0  0  0  0
  150.6328  145.1144  158.1743 H   0  0  0  0  0  0  0  0  0  0  0  0
  150.5506  144.2149  160.4453 H   0  0  0  0  0  0  0  0  0  0  0  0
  152.0942  145.0248  160.8639 H   0  0  0  0  0  0  0  0  0  0  0  0
  151.1348  138.8475  154.2140 H   0  0  0  0  0  0  0  0  0  0  0  0
  1  2  1  0  0  0  0
  1 22  1  0  0  0  0
  1 23  1  0  0  0  0
  1 24  1  0  0  0  0
  2  9  1  0  0  0  0
  2  3  2  0  0  0  0
  3  4  1  0  0  0  0
  3 25  1  0  0  0  0
  4  5  2  0  0  0  0
  4  6  1  0  0  0  0
  6  7  2  0  0  0  0
  6 26  1  0  0  0  0
  7  8  1  0  0  0  0
  7  9  1  0  0  0  0
  8 43  1  0  0  0  0
  9 10  1  0  0  0  0
 10 11  1  0  0  0  0
 10 27  1  0  0  0  0
 10 28  1  0  0  0  0
 11 12  2  0  0  0  0
 11 13  1  0  0  0  0
 13 14  1  0  0  0  0
 13 29  1  0  0  0  0
 14 15  1  0  0  0  0
 14 30  1  0  0  0  0
 14 31  1  0  0  0  0
 15 21  1  0  0  0  0
 15 16  1  0  0  0  0
 15 19  1  0  0  0  0
 16 18  1  0  0  0  0
 16 17  1  0  0  0  0
 16 32  1  0  0  0  0
 17 18  1  0  0  0  0
 17 33  1  0  0  0  0
 17 34  1  0  0  0  0
 18 35  1  0  0  0  0
 18 36  1  0  0  0  0
 19 20  1  0  0  0  0
 19 37  1  0  0  0  0
 19 38  1  0  0  0  0
 20 21  1  0  0  0  0
 20 39  1  0  0  0  0
 20 40  1  0  0  0  0
 21 41  1  0  0  0  0
 21 42  1  0  0  0  0
M  END
> <s_m_source_file>
AV-unprocessed.smi

> <i_m_source_file_index>
2699

> <i_lp_mmshare_version>
43012

> <i_f3d_flags>
0

> <s_epik_input>
W0NIM11jMVtjSF1jKFtPSF0pW2NIXWMoPU8pbjFbQ0gyXUMoPU8pW05IXVtDSDJdQzIoW0NIXTNbQ0gyXVtDSDJdMylbQ0gyXVtDSDJdW0NIMl0y

> <s_epik_cmdline>
J2VwaWtfcHl0aG9uJywgJy1waCcsICc3LjAnLCAnLXRuJywgJzgnLCAnLW1hJywgJzIwMCcsICctbWV0YWxfYmluZGluZycsICctaW1hZScsICc8aW5maWxlLm1hZT4nLCAnLW9tYWUnLCAnPG91dGZpbGUubWFlPic=

> <r_epik_Ionization_Penalty>
1.8336e-08

> <r_epik_Ionization_Penalty_Charging>
0

> <r_epik_Ionization_Penalty_Neutral>
1.8336e-08

> <r_epik_State_Penalty>
2.39433

> <r_epik_Charging_Adjusted_Penalty>
2.39433

> <i_epik_Tot_Q>
0

> <i_epik_Tot_abs_Q>
0

> <r_epik_Metal_State_Penalty>
2.39433

> <b_epik_Metal_Only>
0

> <s_lp_Force_Field>
OPLS_2005

> <r_lp_Energy>
30.2795

> <b_lp_Chiralities_Consistent>
1

> <s_lp_Variant>
AV-unprocessed.smi:2699-3

> <Gold.Version>
5.8.1

> <Gold.Id.Protein>
6NUR|6NUR_protein|mol2

> <Gold.PLP.Fitness>
47.8202

> <Gold.PLP.PLP>
-46.9450

> <Gold.PLP.part.hbond>
-1.0000

> <Gold.PLP.part.metal>
0.0000

> <Gold.PLP.part.buried>
0.4606

> <Gold.PLP.part.nonpolar>
-46.9256

> <Gold.PLP.part.repulsive>
0.5706

> <Gold.PLP.ligand.clash>
0.0000

> <Gold.PLP.ligand.torsion>
1.9088

> <Gold.PLP.Chemscore.Hbond>
1.0000

> <Gold.PLP.Chemscore.CHOScore>
0.0000

> <Gold.PLP.Chemscore.Metal>
0.0000

> <Gold.Chemscore.Hbonds>
donor molecule, donor type, donor heavy atom, donor atom, acceptor molecule, acceptor atom, score
      P1  H  7989  7998       L1     8  0.85

> <Gold.PLP.Chemscore.Internal.Correction>
1.6929

> <Gold.Rescore>
     Score         DG    S(hbond)    S(metal)    S(lipo)     H(rot)  DE(clash)    DE(int)     intcor
     12.57     -15.06       0.35        0.00     124.41       2.40       0.57       1.92       ----

> <Gold.Chemscore.Fitness>
12.5659

> <Gold.Chemscore.DG>
-15.0574

> <Gold.Chemscore.ZeroCoef>
-5.4800

> <Gold.Chemscore.Hbond>
0.3526

> <Gold.Chemscore.Metal>
0.0000

> <Gold.Chemscore.Lipo>
124.4117

> <Gold.Chemscore.Internal_Hbond>
0.0000

> <Gold.Chemscore.DEClash>
0.5711

> <Gold.Chemscore.DEInternal>
1.9204

> <Gold.Chemscore.Rot>
2.4048

> <Gold.Chemscore.Internal.Correction>
   9.000000E+99

> <Gold.Chemscore.Hbonds>
donor molecule, donor type, donor heavy atom, donor atom, acceptor molecule, acceptor atom, score
      P1  H  7989  7998       L1     8  0.07

> <Gold.Chemscore.Hbond.Weighted>
-1.1776

> <Gold.Chemscore.Metal.Weighted>
-0.0000

> <Gold.Chemscore.Lipo.Weighted>
-14.5562

> <Gold.Chemscore.Internal_Hbond.Weighted>
0.0000

> <Gold.Chemscore.DEClash.Weighted>
0.5711

> <Gold.Chemscore.DEInternal.Weighted>
1.9204

> <Gold.Chemscore.Rot.Weighted>
6.1563

> <Gold.Chemscore.Internal.Correction.Weighted>
   9.000000E+99

> <Gold.Protein.RotatedTorsions>
[ 6907 6896 6895 6894 ] final -112.65 input  -60.11 | X-H torsion
[ 7974 7965 7964 7962 ] final    8.11 input  175.53 | X-H torsion
[ 8008 7997 7996 7995 ] final  113.41 input   59.86 | X-H torsion
[ 10167 10162 10161 10158 ] final   15.63 input  -65.29 | X-H torsion
[ 10718 10713 10712 10709 ] final  144.51 input   66.30 | X-H torsion
[ 10763 10752 10751 10750 ] final  -87.49 input  -60.55 | X-H torsion
[ 11005 11000 10999 10996 ] final  -77.50 input  -57.11 | X-H torsion

> <Gold.Protein.ActiveResidues>
 VAL166  LYS551  ARG553  GLY616  TRP617  ASP618  TYR619  PRO620  LYS621  CYS622 
 ASP623  PHE694  ASN695  SER759  ASP760  ASP761  ALA762  ILE779  LEU786  VAL792 
 PHE793  MET794  SER795  GLU796  ALA797  LYS798  CYS799  TRP800  GLU811  SER814 

> <Gold.Protein.RotatedAtoms>
  150.7773  133.9059  159.3354 H   0  0  0  0  0  0  0  0  0  0  0  0  # atno 6907 bound_to 6896
  151.6931  135.0941  160.0246 H   0  0  0  0  0  0  0  0  0  0  0  0  # atno 6908 bound_to 6896
  152.3813  133.6512  159.6199 H   0  0  0  0  0  0  0  0  0  0  0  0  # atno 6909 bound_to 6896
  146.2420  139.9982  142.8418 H   0  0  0  0  0  0  0  0  0  0  0  0  # atno 7974 bound_to 7965
  156.2256  140.2980  156.0059 H   0  0  0  0  0  0  0  0  0  0  0  0  # atno 8008 bound_to 7997
  155.2365  140.0421  157.2986 H   0  0  0  0  0  0  0  0  0  0  0  0  # atno 8009 bound_to 7997
  154.5910  140.2401  155.7929 H   0  0  0  0  0  0  0  0  0  0  0  0  # atno 8010 bound_to 7997
  140.5853  143.8901  150.6825 H   0  0  0  0  0  0  0  0  0  0  0  0  # atno 10167 bound_to 10162
  157.3563  131.0958  151.0955 H   0  0  0  0  0  0  0  0  0  0  0  0  # atno 10718 bound_to 10713
  154.6342  135.5411  153.7715 H   0  0  0  0  0  0  0  0  0  0  0  0  # atno 10763 bound_to 10752
  153.0300  135.6443  154.1256 H   0  0  0  0  0  0  0  0  0  0  0  0  # atno 10764 bound_to 10752
  154.1184  135.2922  155.3194 H   0  0  0  0  0  0  0  0  0  0  0  0  # atno 10765 bound_to 10752
  141.1660  133.7025  156.7830 H   0  0  0  0  0  0  0  0  0  0  0  0  # atno 11005 bound_to 11000
  145.1440  140.9587  143.4472 LP  0  0  0  0  0  0  0  0  0  0  0  0  # atno 17320 bound_to 7965
  145.0268  139.3375  143.6044 LP  0  0  0  0  0  0  0  0  0  0  0  0  # atno 17321 bound_to 7965
  140.2410  143.3663  152.1486 LP  0  0  0  0  0  0  0  0  0  0  0  0  # atno 17342 bound_to 10162
  139.5194  144.7019  151.5468 LP  0  0  0  0  0  0  0  0  0  0  0  0  # atno 17343 bound_to 10162
  157.2112  130.6439  149.5775 LP  0  0  0  0  0  0  0  0  0  0  0  0  # atno 17370 bound_to 10713
  155.9730  130.4659  150.6271 LP  0  0  0  0  0  0  0  0  0  0  0  0  # atno 17371 bound_to 10713
  140.2381  134.8635  157.3545 LP  0  0  0  0  0  0  0  0  0  0  0  0  # atno 17394 bound_to 11000
  140.1824  134.4473  155.7764 LP  0  0  0  0  0  0  0  0  0  0  0  0  # atno 17395 bound_to 11000

$$$$
