AV-unprocessed.smi:1679|AV-procd|sdf|6732|dock7
  -GOLD-   22720 7483D 1   1.00000     0.00000
 Structure written by MMmdl.
 45 46  0  0  0  0  0  0  0  0  1 V2000
  152.9836  141.0155  159.9025 C   0  0  0  0  0  0  0  0  0  0  0  0
  152.1959  142.3025  159.6077 C   0  0  1  0  0  0  0  0  0  0  0  0
  152.8796  143.5193  160.2623 C   0  0  0  0  0  0  0  0  0  0  0  0
  152.1096  144.8191  159.9889 C   0  0  0  0  0  0  0  0  0  0  0  0
  151.9437  145.0494  158.4816 C   0  0  0  0  0  0  0  0  0  0  0  0
  151.2607  143.8490  157.8127 C   0  0  0  0  0  0  0  0  0  0  0  0
  152.0073  142.5241  158.0891 C   0  0  2  0  0  0  0  0  0  0  0  0
  151.2341  141.4366  157.5981 O   0  0  0  0  0  0  0  0  0  0  0  0
  150.9254  141.4920  156.2115 C   0  0  0  0  0  0  0  0  0  0  0  0
  150.6411  140.0645  155.7147 C   0  0  0  0  0  0  0  0  0  0  0  0
  149.2678  139.9244  155.2410 N   0  0  0  0  0  0  0  0  0  0  0  0
  148.6512  140.7458  154.3777 C   0  0  0  0  0  0  0  0  0  0  0  0
  149.2183  141.6685  153.7933 O   0  0  0  0  0  0  0  0  0  0  0  0
  147.1564  140.4960  154.1557 C   0  0  0  0  0  0  0  0  0  0  0  0
  146.3749  141.6950  154.4883 N   0  0  0  0  0  0  0  0  0  0  0  0
  146.2404  142.7135  153.5546 C   0  0  0  0  0  0  0  0  0  0  0  0
  145.5059  143.8308  153.7678 C   0  0  0  0  0  0  0  0  0  0  0  0
  144.7992  144.0195  155.0298 C   0  0  0  0  0  0  0  0  0  0  0  0
  144.1032  144.9914  155.3143 O   0  0  0  0  0  0  0  0  0  0  0  0
  144.9593  142.9748  155.9439 N   0  0  0  0  0  0  0  0  0  0  0  0
  145.7144  141.8203  155.7304 C   0  0  0  0  0  0  0  0  0  0  0  0
  145.7801  140.9565  156.6039 O   0  0  0  0  0  0  0  0  0  0  0  0
  144.4857  143.0593  156.8316 H   0  0  0  0  0  0  0  0  0  0  0  0
  153.9822  141.0538  159.4669 H   0  0  0  0  0  0  0  0  0  0  0  0
  152.4783  140.1379  159.4985 H   0  0  0  0  0  0  0  0  0  0  0  0
  153.0948  140.8611  160.9759 H   0  0  0  0  0  0  0  0  0  0  0  0
  151.2076  142.1960  160.0579 H   0  0  0  0  0  0  0  0  0  0  0  0
  152.9610  143.3668  161.3390 H   0  0  0  0  0  0  0  0  0  0  0  0
  153.8992  143.6163  159.8871 H   0  0  0  0  0  0  0  0  0  0  0  0
  151.1293  144.7724  160.4644 H   0  0  0  0  0  0  0  0  0  0  0  0
  152.6323  145.6635  160.4388 H   0  0  0  0  0  0  0  0  0  0  0  0
  151.3586  145.9527  158.3063 H   0  0  0  0  0  0  0  0  0  0  0  0
  152.9200  145.2171  158.0251 H   0  0  0  0  0  0  0  0  0  0  0  0
  150.2408  143.7659  158.1830 H   0  0  0  0  0  0  0  0  0  0  0  0
  151.1793  144.0403  156.7434 H   0  0  0  0  0  0  0  0  0  0  0  0
  152.9867  142.5385  157.6068 H   0  0  0  0  0  0  0  0  0  0  0  0
  150.0609  142.1247  156.0156 H   0  0  0  0  0  0  0  0  0  0  0  0
  151.7636  141.9276  155.6665 H   0  0  0  0  0  0  0  0  0  0  0  0
  151.3408  139.7862  154.9255 H   0  0  0  0  0  0  0  0  0  0  0  0
  150.7872  139.3562  156.5304 H   0  0  0  0  0  0  0  0  0  0  0  0
  148.7186  139.1900  155.6636 H   0  0  0  0  0  0  0  0  0  0  0  0
  146.9912  140.1913  153.1206 H   0  0  0  0  0  0  0  0  0  0  0  0
  146.8254  139.6474  154.7573 H   0  0  0  0  0  0  0  0  0  0  0  0
  146.7394  142.6116  152.6012 H   0  0  0  0  0  0  0  0  0  0  0  0
  145.4366  144.5861  152.9983 H   0  0  0  0  0  0  0  0  0  0  0  0
  1  2  1  0  0  0  0
  1 24  1  0  0  0  0
  1 25  1  0  0  0  0
  1 26  1  0  0  0  0
  2  7  1  0  0  0  0
  2  3  1  0  0  0  0
  2 27  1  0  0  0  0
  3  4  1  0  0  0  0
  3 28  1  0  0  0  0
  3 29  1  0  0  0  0
  4  5  1  0  0  0  0
  4 30  1  0  0  0  0
  4 31  1  0  0  0  0
  5  6  1  0  0  0  0
  5 32  1  0  0  0  0
  5 33  1  0  0  0  0
  6  7  1  0  0  0  0
  6 34  1  0  0  0  0
  6 35  1  0  0  0  0
  7  8  1  0  0  0  0
  7 36  1  0  0  0  0
  8  9  1  0  0  0  0
  9 10  1  0  0  0  0
  9 37  1  0  0  0  0
  9 38  1  0  0  0  0
 10 11  1  0  0  0  0
 10 39  1  0  0  0  0
 10 40  1  0  0  0  0
 11 12  1  0  0  0  0
 11 41  1  0  0  0  0
 12 13  2  0  0  0  0
 12 14  1  0  0  0  0
 14 15  1  0  0  0  0
 14 42  1  0  0  0  0
 14 43  1  0  0  0  0
 15 21  1  0  0  0  0
 15 16  1  0  0  0  0
 16 17  2  0  0  0  0
 16 44  1  0  0  0  0
 17 18  1  0  0  0  0
 17 45  1  0  0  0  0
 18 19  2  0  0  0  0
 18 20  1  0  0  0  0
 20 23  1  0  0  0  0
 20 21  1  0  0  0  0
 21 22  2  0  0  0  0
M  END
> <s_m_source_file>
AV-unprocessed.smi

> <i_m_source_file_index>
1679

> <i_lp_mmshare_version>
43012

> <i_f3d_flags>
0

> <s_epik_input>
W0NIM11bQ0BASF0xW0NIMl1bQ0gyXVtDSDJdW0NIMl1bQ0BIXTFPW0NIMl1bQ0gyXVtOSF1DKD1PKVtDSDJdbjJbY0hdW2NIXWMoPU8pW25IXWMyPU8=

> <s_epik_cmdline>
J2VwaWtfcHl0aG9uJywgJy1waCcsICc3LjAnLCAnLXRuJywgJzgnLCAnLW1hJywgJzIwMCcsICctbWV0YWxfYmluZGluZycsICctaW1hZScsICc8aW5maWxlLm1hZT4nLCAnLW9tYWUnLCAnPG91dGZpbGUubWFlPic=

> <r_lp_tautomer_probability>
0.999537

> <r_epik_Ionization_Penalty>
0.0033132

> <r_epik_Ionization_Penalty_Charging>
0.00331317

> <r_epik_Ionization_Penalty_Neutral>
2.78599e-08

> <r_epik_State_Penalty>
0.002342

> <r_epik_Charging_Adjusted_Penalty>
0.00565517

> <i_epik_Tot_Q>
0

> <i_epik_Tot_abs_Q>
0

> <r_epik_Metal_State_Penalty>
0.365595

> <b_epik_Metal_Only>
0

> <s_lp_Force_Field>
OPLS_2005

> <r_lp_Energy>
10.1003

> <b_lp_Chiralities_Consistent>
1

> <s_lp_Variant>
AV-unprocessed.smi:1679-4

> <Gold.Version>
5.8.1

> <Gold.Id.Protein>
6NUR|6NUR_protein|mol2

> <Gold.PLP.Fitness>
46.8573

> <Gold.PLP.PLP>
-46.6222

> <Gold.PLP.part.hbond>
-1.9608

> <Gold.PLP.part.metal>
0.0000

> <Gold.PLP.part.buried>
-7.0266

> <Gold.PLP.part.nonpolar>
-37.6099

> <Gold.PLP.part.repulsive>
0.4068

> <Gold.PLP.ligand.clash>
0.0000

> <Gold.PLP.ligand.torsion>
0.8603

> <Gold.PLP.Chemscore.Hbond>
0.6400

> <Gold.PLP.Chemscore.CHOScore>
0.0000

> <Gold.PLP.Chemscore.Metal>
0.0000

> <Gold.Chemscore.Hbonds>
donor molecule, donor type, donor heavy atom, donor atom, acceptor molecule, acceptor atom, score
      P1  H  8011  8017       L1    13  0.66

> <Gold.PLP.Chemscore.Internal.Correction>
0.0358

> <Gold.Rescore>
     Score         DG    S(hbond)    S(metal)    S(lipo)     H(rot)  DE(clash)    DE(int)     intcor
     12.25     -14.41       0.69        0.00     111.80       2.52       0.07       2.09       ----

> <Gold.Chemscore.Fitness>
12.2510

> <Gold.Chemscore.DG>
-14.4112

> <Gold.Chemscore.ZeroCoef>
-5.4800

> <Gold.Chemscore.Hbond>
0.6879

> <Gold.Chemscore.Metal>
0.0000

> <Gold.Chemscore.Lipo>
111.8012

> <Gold.Chemscore.Internal_Hbond>
0.0000

> <Gold.Chemscore.DEClash>
0.0732

> <Gold.Chemscore.DEInternal>
2.0870

> <Gold.Chemscore.Rot>
2.5185

> <Gold.Chemscore.Internal.Correction>
   9.000000E+99

> <Gold.Chemscore.Hbonds>
donor molecule, donor type, donor heavy atom, donor atom, acceptor molecule, acceptor atom, score
      P1  H  8011  8017       L1    13  0.66

> <Gold.Chemscore.Hbond.Weighted>
-2.2977

> <Gold.Chemscore.Metal.Weighted>
-0.0000

> <Gold.Chemscore.Lipo.Weighted>
-13.0807

> <Gold.Chemscore.Internal_Hbond.Weighted>
0.0000

> <Gold.Chemscore.DEClash.Weighted>
0.0732

> <Gold.Chemscore.DEInternal.Weighted>
2.0870

> <Gold.Chemscore.Rot.Weighted>
6.4472

> <Gold.Chemscore.Internal.Correction.Weighted>
   9.000000E+99

> <Gold.Protein.RotatedTorsions>
[ 6907 6896 6895 6894 ] final  117.52 input  -60.11 | X-H torsion
[ 7974 7965 7964 7962 ] final  -33.76 input  175.53 | X-H torsion
[ 8008 7997 7996 7995 ] final   -4.75 input   59.86 | X-H torsion
[ 10167 10162 10161 10158 ] final  129.18 input  -65.29 | X-H torsion
[ 10718 10713 10712 10709 ] final   30.95 input   66.30 | X-H torsion
[ 10763 10752 10751 10750 ] final -132.28 input  -60.55 | X-H torsion
[ 11005 11000 10999 10996 ] final  125.18 input  -57.11 | X-H torsion

> <Gold.Protein.ActiveResidues>
 VAL166  LYS551  ARG553  GLY616  TRP617  ASP618  TYR619  PRO620  LYS621  CYS622 
 ASP623  PHE694  ASN695  SER759  ASP760  ASP761  ALA762  ILE779  LEU786  VAL792 
 PHE793  MET794  SER795  GLU796  ALA797  LYS798  CYS799  TRP800  GLU811  SER814 

> <Gold.Protein.RotatedAtoms>
  152.4606  133.7815  159.6852 H   0  0  0  0  0  0  0  0  0  0  0  0  # atno 6907 bound_to 6896
  150.8549  133.7721  159.3019 H   0  0  0  0  0  0  0  0  0  0  0  0  # atno 6908 bound_to 6896
  151.5305  135.1071  159.9953 H   0  0  0  0  0  0  0  0  0  0  0  0  # atno 6909 bound_to 6896
  146.0885  140.5955  142.8875 H   0  0  0  0  0  0  0  0  0  0  0  0  # atno 7974 bound_to 7965
  154.6110  140.2476  155.7669 H   0  0  0  0  0  0  0  0  0  0  0  0  # atno 8008 bound_to 7997
  156.2370  140.2946  156.0291 H   0  0  0  0  0  0  0  0  0  0  0  0  # atno 8009 bound_to 7997
  155.2052  140.0395  157.2914 H   0  0  0  0  0  0  0  0  0  0  0  0  # atno 8010 bound_to 7997
  139.5490  144.6797  151.4382 H   0  0  0  0  0  0  0  0  0  0  0  0  # atno 10167 bound_to 10162
  157.2662  130.7185  149.6480 H   0  0  0  0  0  0  0  0  0  0  0  0  # atno 10718 bound_to 10713
  154.8744  135.3803  154.4384 H   0  0  0  0  0  0  0  0  0  0  0  0  # atno 10763 bound_to 10752
  153.5071  135.7030  153.5805 H   0  0  0  0  0  0  0  0  0  0  0  0  # atno 10764 bound_to 10752
  153.4111  135.3924  155.2017 H   0  0  0  0  0  0  0  0  0  0  0  0  # atno 10765 bound_to 10752
  139.9394  134.9637  156.8520 H   0  0  0  0  0  0  0  0  0  0  0  0  # atno 11005 bound_to 11000
  144.7343  140.4762  143.6915 LP  0  0  0  0  0  0  0  0  0  0  0  0  # atno 17320 bound_to 7965
  145.6085  139.1511  143.3089 LP  0  0  0  0  0  0  0  0  0  0  0  0  # atno 17321 bound_to 7965
  140.6747  143.8216  150.7043 LP  0  0  0  0  0  0  0  0  0  0  0  0  # atno 17342 bound_to 10162
  140.1651  143.4242  152.2040 LP  0  0  0  0  0  0  0  0  0  0  0  0  # atno 17343 bound_to 10162
  155.9663  130.4382  150.5207 LP  0  0  0  0  0  0  0  0  0  0  0  0  # atno 17370 bound_to 10713
  157.3121  131.0666  151.1993 LP  0  0  0  0  0  0  0  0  0  0  0  0  # atno 17371 bound_to 10713
  140.5991  134.0189  155.7530 LP  0  0  0  0  0  0  0  0  0  0  0  0  # atno 17394 bound_to 11000
  141.1022  133.9750  157.3059 LP  0  0  0  0  0  0  0  0  0  0  0  0  # atno 17395 bound_to 11000

$$$$
