AV-unprocessed.smi:2417|AV-procd|sdf|9549|dock10
  -GOLD-   2272013183D 1   1.00000     0.00000
 Structure written by MMmdl.
 38 39  0  0  0  0  0  0  0  0  1 V2000
  149.5913  139.1442  154.2453 C   0  0  0  0  0  0  0  0  0  0  0  0
  150.6875  138.8175  155.2440 C   0  0  0  0  0  0  0  0  0  0  0  0
  151.1876  139.9034  155.9686 N   0  0  0  0  0  0  0  0  0  0  0  0
  152.1253  139.7203  156.8397 C   0  0  0  0  0  0  0  0  0  0  0  0
  152.6610  138.4466  157.0900 N   0  0  0  0  0  0  0  0  0  0  0  0
  153.7247  138.3743  158.1049 C   0  0  0  0  0  0  0  0  0  0  0  0
  153.2809  138.9798  159.4559 C   0  0  1  0  0  0  0  0  0  0  0  0
  152.9403  137.9548  160.3673 O   0  0  0  0  0  0  0  0  0  0  0  0
  154.3662  139.8480  160.1134 C   0  0  0  0  0  0  0  0  0  0  0  0
  153.8304  140.5142  161.2510 O   0  0  0  0  0  0  0  0  0  0  0  0
  153.2188  141.7351  161.0654 C   0  0  0  0  0  0  0  0  0  0  0  0
  152.7250  142.3842  162.2160 C   0  0  0  0  0  0  0  0  0  0  0  0
  152.0884  143.6366  162.1200 C   0  0  0  0  0  0  0  0  0  0  0  0
  151.9375  144.2543  160.8649 C   0  0  0  0  0  0  0  0  0  0  0  0
  151.3260  145.4585  160.7699 F   0  0  0  0  0  0  0  0  0  0  0  0
  152.4238  143.6174  159.7083 C   0  0  0  0  0  0  0  0  0  0  0  0
  153.0611  142.3650  159.8046 C   0  0  0  0  0  0  0  0  0  0  0  0
  152.2375  137.3354  156.4210 C   0  0  0  0  0  0  0  0  0  0  0  0
  152.7280  136.2252  156.6365 O   0  0  0  0  0  0  0  0  0  0  0  0
  151.1692  137.5587  155.4337 C   0  0  0  0  0  0  0  0  0  0  0  0
  150.6672  136.3392  154.6707 C   0  0  0  0  0  0  0  0  0  0  0  0
  148.6786  138.5985  154.4860 H   0  0  0  0  0  0  0  0  0  0  0  0
  149.9030  138.8752  153.2357 H   0  0  0  0  0  0  0  0  0  0  0  0
  149.3547  140.2088  154.2485 H   0  0  0  0  0  0  0  0  0  0  0  0
  152.5555  140.5347  157.4254 H   0  0  0  0  0  0  0  0  0  0  0  0
  154.0927  137.3554  158.2438 H   0  0  0  0  0  0  0  0  0  0  0  0
  154.5925  138.9214  157.7316 H   0  0  0  0  0  0  0  0  0  0  0  0
  152.3953  139.6019  159.3206 H   0  0  0  0  0  0  0  0  0  0  0  0
  152.0065  137.8154  160.3245 H   0  0  0  0  0  0  0  0  0  0  0  0
  155.1827  139.1987  160.4333 H   0  0  0  0  0  0  0  0  0  0  0  0
  154.7726  140.5612  159.3940 H   0  0  0  0  0  0  0  0  0  0  0  0
  152.8362  141.9171  163.1835 H   0  0  0  0  0  0  0  0  0  0  0  0
  151.7166  144.1225  163.0100 H   0  0  0  0  0  0  0  0  0  0  0  0
  152.3083  144.0903  158.7441 H   0  0  0  0  0  0  0  0  0  0  0  0
  153.4204  141.9084  158.8950 H   0  0  0  0  0  0  0  0  0  0  0  0
  151.4834  135.8891  154.1045 H   0  0  0  0  0  0  0  0  0  0  0  0
  149.8691  136.5708  153.9672 H   0  0  0  0  0  0  0  0  0  0  0  0
  150.2847  135.5910  155.3659 H   0  0  0  0  0  0  0  0  0  0  0  0
  1  2  1  0  0  0  0
  1 22  1  0  0  0  0
  1 23  1  0  0  0  0
  1 24  1  0  0  0  0
  2 20  2  0  0  0  0
  2  3  1  0  0  0  0
  3  4  2  0  0  0  0
  4  5  1  0  0  0  0
  4 25  1  0  0  0  0
  5  6  1  0  0  0  0
  5 18  1  0  0  0  0
  6  7  1  0  0  0  0
  6 26  1  0  0  0  0
  6 27  1  0  0  0  0
  7  8  1  0  0  0  0
  7  9  1  0  0  0  0
  7 28  1  0  0  0  0
  8 29  1  0  0  0  0
  9 10  1  0  0  0  0
  9 30  1  0  0  0  0
  9 31  1  0  0  0  0
 10 11  1  0  0  0  0
 11 17  1  0  0  0  0
 11 12  2  0  0  0  0
 12 13  1  0  0  0  0
 12 32  1  0  0  0  0
 13 14  2  0  0  0  0
 13 33  1  0  0  0  0
 14 15  1  0  0  0  0
 14 16  1  0  0  0  0
 16 17  2  0  0  0  0
 16 34  1  0  0  0  0
 17 35  1  0  0  0  0
 18 19  2  0  0  0  0
 18 20  1  0  0  0  0
 20 21  1  0  0  0  0
 21 36  1  0  0  0  0
 21 37  1  0  0  0  0
 21 38  1  0  0  0  0
M  END
> <s_m_source_file>
AV-unprocessed.smi

> <i_m_source_file_index>
2417

> <i_lp_mmshare_version>
43012

> <i_f3d_flags>
0

> <s_epik_input>
W0NIM11jMW5bY0hdbihjKD1PKWMxW0NIM10pW0NIMl1bQ0BIXShbT0hdKVtDSDJdT2MyW2NIXVtjSF1jKEYpW2NIXVtjSF0y

> <s_epik_cmdline>
J2VwaWtfcHl0aG9uJywgJy1waCcsICc3LjAnLCAnLXRuJywgJzgnLCAnLW1hJywgJzIwMCcsICctbWV0YWxfYmluZGluZycsICctaW1hZScsICc8aW5maWxlLm1hZT4nLCAnLW9tYWUnLCAnPG91dGZpbGUubWFlPic=

> <r_lp_tautomer_probability>
1

> <r_epik_Ionization_Penalty>
3.65384e-05

> <r_epik_Ionization_Penalty_Charging>
8.23007e-08

> <r_epik_Ionization_Penalty_Neutral>
3.64561e-05

> <r_epik_State_Penalty>
-0

> <r_epik_Charging_Adjusted_Penalty>
8.23007e-08

> <i_epik_Tot_Q>
0

> <i_epik_Tot_abs_Q>
0

> <r_epik_Metal_State_Penalty>
-0

> <b_epik_Metal_Only>
0

> <s_lp_Force_Field>
OPLS_2005

> <r_lp_Energy>
22.9041

> <b_lp_Chiralities_Consistent>
1

> <s_lp_Variant>
AV-unprocessed.smi:2417-2

> <Gold.Version>
5.8.1

> <Gold.Id.Protein>
6NUR|6NUR_protein|mol2

> <Gold.PLP.Fitness>
46.2466

> <Gold.PLP.PLP>
-44.8256

> <Gold.PLP.part.hbond>
-1.0000

> <Gold.PLP.part.metal>
0.0000

> <Gold.PLP.part.buried>
-3.0175

> <Gold.PLP.part.nonpolar>
-40.1721

> <Gold.PLP.part.repulsive>
0.0017

> <Gold.PLP.ligand.clash>
0.0000

> <Gold.PLP.ligand.torsion>
0.8162

> <Gold.PLP.Chemscore.Hbond>
1.0000

> <Gold.PLP.Chemscore.CHOScore>
0.0000

> <Gold.PLP.Chemscore.Metal>
0.0000

> <Gold.Chemscore.Hbonds>
donor molecule, donor type, donor heavy atom, donor atom, acceptor molecule, acceptor atom, score
      P1  H 10752 10764       L1    19  1.00

> <Gold.PLP.Chemscore.Internal.Correction>
0.0533

> <Gold.Rescore>
     Score         DG    S(hbond)    S(metal)    S(lipo)     H(rot)  DE(clash)    DE(int)     intcor
     13.87     -15.33       0.99        0.00     111.50       2.54       0.43       1.02       ----

> <Gold.Chemscore.Fitness>
13.8747

> <Gold.Chemscore.DG>
-15.3296

> <Gold.Chemscore.ZeroCoef>
-5.4800

> <Gold.Chemscore.Hbond>
0.9864

> <Gold.Chemscore.Metal>
0.0000

> <Gold.Chemscore.Lipo>
111.5023

> <Gold.Chemscore.Internal_Hbond>
0.0000

> <Gold.Chemscore.DEClash>
0.4312

> <Gold.Chemscore.DEInternal>
1.0236

> <Gold.Chemscore.Rot>
2.5355

> <Gold.Chemscore.Internal.Correction>
   9.000000E+99

> <Gold.Chemscore.Hbonds>
donor molecule, donor type, donor heavy atom, donor atom, acceptor molecule, acceptor atom, score
      P1  H 10752 10764       L1    19  0.85

> <Gold.Chemscore.Hbond.Weighted>
-3.2946

> <Gold.Chemscore.Metal.Weighted>
-0.0000

> <Gold.Chemscore.Lipo.Weighted>
-13.0458

> <Gold.Chemscore.Internal_Hbond.Weighted>
0.0000

> <Gold.Chemscore.DEClash.Weighted>
0.4312

> <Gold.Chemscore.DEInternal.Weighted>
1.0236

> <Gold.Chemscore.Rot.Weighted>
6.4908

> <Gold.Chemscore.Internal.Correction.Weighted>
   9.000000E+99

> <Gold.Protein.RotatedTorsions>
[ 6907 6896 6895 6894 ] final  154.03 input  -60.11 | X-H torsion
[ 7974 7965 7964 7962 ] final  144.33 input  175.53 | X-H torsion
[ 8008 7997 7996 7995 ] final   56.65 input   59.86 | X-H torsion
[ 10167 10162 10161 10158 ] final   82.88 input  -65.29 | X-H torsion
[ 10718 10713 10712 10709 ] final  -58.99 input   66.30 | X-H torsion
[ 10763 10752 10751 10750 ] final  -18.60 input  -60.55 | X-H torsion
[ 11005 11000 10999 10996 ] final -141.15 input  -57.11 | X-H torsion

> <Gold.Protein.ActiveResidues>
 VAL166  LYS551  ARG553  GLY616  TRP617  ASP618  TYR619  PRO620  LYS621  CYS622 
 ASP623  PHE694  ASN695  SER759  ASP760  ASP761  ALA762  ILE779  LEU786  VAL792 
 PHE793  MET794  SER795  GLU796  ALA797  LYS798  CYS799  TRP800  GLU811  SER814 

> <Gold.Protein.RotatedAtoms>
  152.0643  133.4076  159.4430 H   0  0  0  0  0  0  0  0  0  0  0  0  # atno 6907 bound_to 6896
  150.6865  134.3165  159.4777 H   0  0  0  0  0  0  0  0  0  0  0  0  # atno 6908 bound_to 6896
  152.0989  134.9355  160.0620 H   0  0  0  0  0  0  0  0  0  0  0  0  # atno 6909 bound_to 6896
  144.8845  139.5649  143.5827 H   0  0  0  0  0  0  0  0  0  0  0  0  # atno 7974 bound_to 7965
  155.5209  140.3479  155.4406 H   0  0  0  0  0  0  0  0  0  0  0  0  # atno 8008 bound_to 7997
  156.0785  140.1380  156.9769 H   0  0  0  0  0  0  0  0  0  0  0  0  # atno 8009 bound_to 7997
  154.4566  140.0951  156.6752 H   0  0  0  0  0  0  0  0  0  0  0  0  # atno 8010 bound_to 7997
  139.9242  144.6193  150.8410 H   0  0  0  0  0  0  0  0  0  0  0  0  # atno 10167 bound_to 10162
  156.1094  130.4177  150.0654 H   0  0  0  0  0  0  0  0  0  0  0  0  # atno 10718 bound_to 10713
  153.5919  135.7002  153.5420 H   0  0  0  0  0  0  0  0  0  0  0  0  # atno 10763 bound_to 10752
  153.3171  135.4084  155.1385 H   0  0  0  0  0  0  0  0  0  0  0  0  # atno 10764 bound_to 10752
  154.8599  135.3686  154.5451 H   0  0  0  0  0  0  0  0  0  0  0  0  # atno 10765 bound_to 10752
  140.8352  134.2469  157.4837 H   0  0  0  0  0  0  0  0  0  0  0  0  # atno 11005 bound_to 11000
  146.3015  139.7443  142.9087 LP  0  0  0  0  0  0  0  0  0  0  0  0  # atno 17320 bound_to 7965
  145.3894  141.0370  143.3132 LP  0  0  0  0  0  0  0  0  0  0  0  0  # atno 17321 bound_to 7965
  140.7654  143.3276  151.2482 LP  0  0  0  0  0  0  0  0  0  0  0  0  # atno 17342 bound_to 10162
  139.6836  143.9811  152.2822 LP  0  0  0  0  0  0  0  0  0  0  0  0  # atno 17343 bound_to 10162
  156.8621  130.9495  151.3617 LP  0  0  0  0  0  0  0  0  0  0  0  0  # atno 17370 bound_to 10713
  157.6274  130.8702  149.9213 LP  0  0  0  0  0  0  0  0  0  0  0  0  # atno 17371 bound_to 10713
  139.8704  134.9607  156.4372 LP  0  0  0  0  0  0  0  0  0  0  0  0  # atno 17394 bound_to 11000
  140.8955  133.7817  155.9620 LP  0  0  0  0  0  0  0  0  0  0  0  0  # atno 17395 bound_to 11000

$$$$
