AV-unprocessed.smi:3066|AV-procd|sdf|11693|dock5
  -GOLD-   2272017 93D 1   1.00000     0.00000
 Structure written by MMmdl.
 35 36  0  0  0  0  0  0  0  0  1 V2000
  148.0016  137.0336  160.8305 N   0  0  0  0  0  0  0  0  0  0  0  0
  148.6112  136.9807  159.8480 C   0  0  0  0  0  0  0  0  0  0  0  0
  149.3762  136.9150  158.6146 C   0  0  0  0  0  0  0  0  0  0  0  0
  149.9954  135.7646  158.2197 N   0  0  0  0  0  0  0  0  0  0  0  0
  150.5382  136.2004  157.0893 C   0  0  0  0  0  0  0  0  0  0  0  0
  150.2771  137.4843  156.8208 N   0  0  0  0  0  0  0  0  0  0  0  0
  150.6944  138.3184  155.7083 C   0  0  0  0  0  0  0  0  0  0  0  0
  151.6339  139.4296  156.1779 C   0  0  0  0  0  0  0  0  0  0  0  0
  152.7893  139.4767  155.7565 O   0  0  0  0  0  0  0  0  0  0  0  0
  151.1233  140.3137  157.0499 N   0  0  0  0  0  0  0  0  0  0  0  0
  151.8450  141.4307  157.6537 C   0  0  0  0  0  0  0  0  0  0  0  0
  152.1430  141.0688  159.1209 C   0  0  0  0  0  0  0  0  0  0  0  0
  152.8854  142.1495  159.9258 C   0  0  0  0  0  0  0  0  0  0  0  0
  151.9808  143.3315  160.3097 C   0  0  0  0  0  0  0  0  0  0  0  0
  151.8640  144.4450  159.2542 C   0  0  0  0  0  0  0  0  0  0  0  0
  151.8524  144.0003  157.7811 C   0  0  0  0  0  0  0  0  0  0  0  0
  151.0350  142.7341  157.4745 C   0  0  0  0  0  0  0  0  0  0  0  0
  149.5063  137.9766  157.8216 N   0  0  0  0  0  0  0  0  0  0  0  0
  151.1414  135.5750  156.4474 H   0  0  0  0  0  0  0  0  0  0  0  0
  151.1952  137.6910  154.9698 H   0  0  0  0  0  0  0  0  0  0  0  0
  149.8166  138.7495  155.2240 H   0  0  0  0  0  0  0  0  0  0  0  0
  150.1615  140.1911  157.3332 H   0  0  0  0  0  0  0  0  0  0  0  0
  152.8016  141.5396  157.1389 H   0  0  0  0  0  0  0  0  0  0  0  0
  151.2174  140.8056  159.6354 H   0  0  0  0  0  0  0  0  0  0  0  0
  152.7502  140.1623  159.1316 H   0  0  0  0  0  0  0  0  0  0  0  0
  153.2394  141.6870  160.8479 H   0  0  0  0  0  0  0  0  0  0  0  0
  153.7797  142.4897  159.4021 H   0  0  0  0  0  0  0  0  0  0  0  0
  150.9862  142.9596  160.5583 H   0  0  0  0  0  0  0  0  0  0  0  0
  152.3553  143.7810  161.2300 H   0  0  0  0  0  0  0  0  0  0  0  0
  150.9586  145.0159  159.4627 H   0  0  0  0  0  0  0  0  0  0  0  0
  152.6875  145.1475  159.3864 H   0  0  0  0  0  0  0  0  0  0  0  0
  151.4573  144.8266  157.1889 H   0  0  0  0  0  0  0  0  0  0  0  0
  152.8763  143.8647  157.4308 H   0  0  0  0  0  0  0  0  0  0  0  0
  150.7171  142.7998  156.4330 H   0  0  0  0  0  0  0  0  0  0  0  0
  150.1168  142.7116  158.0630 H   0  0  0  0  0  0  0  0  0  0  0  0
  1  2  3  0  0  0  0
  2  3  1  0  0  0  0
  3 18  2  0  0  0  0
  3  4  1  0  0  0  0
  4  5  2  0  0  0  0
  5  6  1  0  0  0  0
  5 19  1  0  0  0  0
  6  7  1  0  0  0  0
  6 18  1  0  0  0  0
  7  8  1  0  0  0  0
  7 20  1  0  0  0  0
  7 21  1  0  0  0  0
  8  9  2  0  0  0  0
  8 10  1  0  0  0  0
 10 11  1  0  0  0  0
 10 22  1  0  0  0  0
 11 17  1  0  0  0  0
 11 12  1  0  0  0  0
 11 23  1  0  0  0  0
 12 13  1  0  0  0  0
 12 24  1  0  0  0  0
 12 25  1  0  0  0  0
 13 14  1  0  0  0  0
 13 26  1  0  0  0  0
 13 27  1  0  0  0  0
 14 15  1  0  0  0  0
 14 28  1  0  0  0  0
 14 29  1  0  0  0  0
 15 16  1  0  0  0  0
 15 30  1  0  0  0  0
 15 31  1  0  0  0  0
 16 17  1  0  0  0  0
 16 32  1  0  0  0  0
 16 33  1  0  0  0  0
 17 34  1  0  0  0  0
 17 35  1  0  0  0  0
M  END
> <s_m_source_file>
AV-unprocessed.smi

> <i_m_source_file_index>
3066

> <i_lp_mmshare_version>
43012

> <i_f3d_flags>
0

> <s_epik_input>
TiNDYzFuW2NIXW4objEpW0NIMl1DKD1PKVtOSF1bQ0hdMltDSDJdW0NIMl1bQ0gyXVtDSDJdW0NIMl1bQ0gyXTI=

> <s_epik_cmdline>
J2VwaWtfcHl0aG9uJywgJy1waCcsICc3LjAnLCAnLXRuJywgJzgnLCAnLW1hJywgJzIwMCcsICctbWV0YWxfYmluZGluZycsICctaW1hZScsICc8aW5maWxlLm1hZT4nLCAnLW9tYWUnLCAnPG91dGZpbGUubWFlPic=

> <r_lp_tautomer_probability>
1

> <r_epik_Ionization_Penalty>
4.79211e-08

> <r_epik_Ionization_Penalty_Charging>
0

> <r_epik_Ionization_Penalty_Neutral>
4.79211e-08

> <r_epik_State_Penalty>
-0

> <r_epik_Charging_Adjusted_Penalty>
0

> <i_epik_Tot_Q>
0

> <i_epik_Tot_abs_Q>
0

> <r_epik_Metal_State_Penalty>
-0

> <b_epik_Metal_Only>
0

> <s_lp_Force_Field>
OPLS_2005

> <r_lp_Energy>
17.6035

> <b_lp_Chiralities_Consistent>
1

> <s_lp_Variant>
AV-unprocessed.smi:3066-1

> <Gold.Version>
5.8.1

> <Gold.Id.Protein>
6NUR|6NUR_protein|mol2

> <Gold.PLP.Fitness>
44.1869

> <Gold.PLP.PLP>
-33.3954

> <Gold.PLP.part.hbond>
-4.0000

> <Gold.PLP.part.metal>
0.0000

> <Gold.PLP.part.buried>
-4.9241

> <Gold.PLP.part.nonpolar>
-25.4590

> <Gold.PLP.part.repulsive>
0.0711

> <Gold.PLP.ligand.clash>
0.0000

> <Gold.PLP.ligand.torsion>
0.1673

> <Gold.PLP.Chemscore.Hbond>
3.7040

> <Gold.PLP.Chemscore.CHOScore>
0.0000

> <Gold.PLP.Chemscore.Metal>
0.0000

> <Gold.Chemscore.Hbonds>
donor molecule, donor type, donor heavy atom, donor atom, acceptor molecule, acceptor atom, score
      P1  H  6896  6908       L1     4  0.96
      P1  H  6931  6943       L1     1  0.94
      P1  H  6934  6947       L1     1  0.55
      P1  H  7997  8008       L1     9  1.00

> <Gold.PLP.Chemscore.Internal.Correction>
0.0142

> <Gold.Rescore>
     Score         DG    S(hbond)    S(metal)    S(lipo)     H(rot)  DE(clash)    DE(int)     intcor
     17.75     -19.37       2.98        0.00      76.13       1.95       0.19       1.43       ----

> <Gold.Chemscore.Fitness>
17.7500

> <Gold.Chemscore.DG>
-19.3709

> <Gold.Chemscore.ZeroCoef>
-5.4800

> <Gold.Chemscore.Hbond>
2.9848

> <Gold.Chemscore.Metal>
0.0000

> <Gold.Chemscore.Lipo>
76.1277

> <Gold.Chemscore.Internal_Hbond>
0.0000

> <Gold.Chemscore.DEClash>
0.1889

> <Gold.Chemscore.DEInternal>
1.4320

> <Gold.Chemscore.Rot>
1.9474

> <Gold.Chemscore.Internal.Correction>
   9.000000E+99

> <Gold.Chemscore.Hbonds>
donor molecule, donor type, donor heavy atom, donor atom, acceptor molecule, acceptor atom, score
      P1  H  6896  6908       L1     4  0.88
      P1  H  6931  6943       L1     1  0.31
      P1  H  6934  6947       L1     1  0.30
      P1  H  7997  8008       L1     9  1.00

> <Gold.Chemscore.Hbond.Weighted>
-9.9692

> <Gold.Chemscore.Metal.Weighted>
-0.0000

> <Gold.Chemscore.Lipo.Weighted>
-8.9069

> <Gold.Chemscore.Internal_Hbond.Weighted>
0.0000

> <Gold.Chemscore.DEClash.Weighted>
0.1889

> <Gold.Chemscore.DEInternal.Weighted>
1.4320

> <Gold.Chemscore.Rot.Weighted>
4.9852

> <Gold.Chemscore.Internal.Correction.Weighted>
   9.000000E+99

> <Gold.Protein.RotatedTorsions>
[ 6907 6896 6895 6894 ] final  172.95 input  -60.11 | X-H torsion
[ 7974 7965 7964 7962 ] final  -88.99 input  175.53 | X-H torsion
[ 8008 7997 7996 7995 ] final  -40.35 input   59.86 | X-H torsion
[ 10167 10162 10161 10158 ] final   -2.54 input  -65.29 | X-H torsion
[ 10718 10713 10712 10709 ] final  -33.60 input   66.30 | X-H torsion
[ 10763 10752 10751 10750 ] final  -25.49 input  -60.55 | X-H torsion
[ 11005 11000 10999 10996 ] final  127.06 input  -57.11 | X-H torsion

> <Gold.Protein.ActiveResidues>
 VAL166  LYS551  ARG553  GLY616  TRP617  ASP618  TYR619  PRO620  LYS621  CYS622 
 ASP623  PHE694  ASN695  SER759  ASP760  ASP761  ALA762  ILE779  LEU786  VAL792 
 PHE793  MET794  SER795  GLU796  ALA797  LYS798  CYS799  TRP800  GLU811  SER814 

> <Gold.Protein.RotatedAtoms>
  151.7761  133.3345  159.3457 H   0  0  0  0  0  0  0  0  0  0  0  0  # atno 6907 bound_to 6896
  150.7443  134.5974  159.6028 H   0  0  0  0  0  0  0  0  0  0  0  0  # atno 6908 bound_to 6896
  152.3308  134.7263  160.0341 H   0  0  0  0  0  0  0  0  0  0  0  0  # atno 6909 bound_to 6896
  145.4457  140.9560  143.2050 H   0  0  0  0  0  0  0  0  0  0  0  0  # atno 7974 bound_to 7965
  154.4013  140.1528  156.3012 H   0  0  0  0  0  0  0  0  0  0  0  0  # atno 8008 bound_to 7997
  155.8699  140.3449  155.5792 H   0  0  0  0  0  0  0  0  0  0  0  0  # atno 8009 bound_to 7997
  155.7786  140.0840  157.2061 H   0  0  0  0  0  0  0  0  0  0  0  0  # atno 8010 bound_to 7997
  140.6855  143.6645  150.8238 H   0  0  0  0  0  0  0  0  0  0  0  0  # atno 10167 bound_to 10162
  156.3607  130.4323  149.7626 H   0  0  0  0  0  0  0  0  0  0  0  0  # atno 10718 bound_to 10713
  153.7006  135.6956  153.5064 H   0  0  0  0  0  0  0  0  0  0  0  0  # atno 10763 bound_to 10752
  153.2345  135.4326  155.0630 H   0  0  0  0  0  0  0  0  0  0  0  0  # atno 10764 bound_to 10752
  154.8345  135.3492  154.6546 H   0  0  0  0  0  0  0  0  0  0  0  0  # atno 10765 bound_to 10752
  139.9488  134.9625  156.8799 H   0  0  0  0  0  0  0  0  0  0  0  0  # atno 11005 bound_to 11000
  144.8093  139.5992  143.7037 LP  0  0  0  0  0  0  0  0  0  0  0  0  # atno 17320 bound_to 7965
  146.2532  139.6244  142.9413 LP  0  0  0  0  0  0  0  0  0  0  0  0  # atno 17321 bound_to 7965
  140.0351  143.5403  152.2743 LP  0  0  0  0  0  0  0  0  0  0  0  0  # atno 17342 bound_to 10162
  139.6210  144.7629  151.2741 LP  0  0  0  0  0  0  0  0  0  0  0  0  # atno 17343 bound_to 10162
  156.4791  130.8033  151.3048 LP  0  0  0  0  0  0  0  0  0  0  0  0  # atno 17370 bound_to 10713
  157.7473  131.0011  150.2952 LP  0  0  0  0  0  0  0  0  0  0  0  0  # atno 17371 bound_to 10713
  140.5769  134.0389  155.7450 LP  0  0  0  0  0  0  0  0  0  0  0  0  # atno 17394 bound_to 11000
  141.1145  133.9562  157.2847 LP  0  0  0  0  0  0  0  0  0  0  0  0  # atno 17395 bound_to 11000

$$$$
