AV-unprocessed.smi:1486|AV-procd|sdf|6006|dock8
  -GOLD-   22720 6103D 1   1.00000     0.00000
 Structure written by MMmdl.
 39 40  0  0  0  0  0  0  0  0  1 V2000
  146.6677  138.7743  151.5615 C   0  0  0  0  0  0  0  0  0  0  0  0
  146.2938  138.6213  152.9194 O   0  0  0  0  0  0  0  0  0  0  0  0
  147.3294  138.9970  153.8135 C   0  0  0  0  0  0  0  0  0  0  0  0
  147.7885  140.4274  153.4924 C   0  0  1  0  0  0  0  0  0  0  0  0
  146.8844  141.4735  154.1637 C   0  0  0  0  0  0  0  0  0  0  0  0
  149.1709  140.6088  153.9272 N   0  0  0  0  0  0  0  0  0  0  0  0
  149.6136  140.4635  155.1861 C   0  0  0  0  0  0  0  0  0  0  0  0
  148.8863  140.1587  156.1314 O   0  0  0  0  0  0  0  0  0  0  0  0
  151.1079  140.6922  155.4155 C   0  0  0  0  0  0  0  0  0  0  0  0
  151.3203  141.5985  156.5938 C   0  0  0  0  0  0  0  0  0  0  0  0
  150.7902  142.8530  156.7752 C   0  0  0  0  0  0  0  0  0  0  0  0
  151.2939  143.5648  158.2829 S   0  0  0  0  0  0  0  0  0  0  0  0
  152.2338  142.1075  158.6180 C   0  0  0  0  0  0  0  0  0  0  0  0
  153.0390  141.8671  159.7714 N   0  0  0  0  0  0  0  0  0  0  0  0
  152.8362  142.6008  161.0172 C   0  0  0  0  0  0  0  0  0  0  0  0
  153.7116  141.9028  162.0635 C   0  0  0  0  0  0  0  0  0  0  0  0
  154.6791  141.0331  161.2637 C   0  0  0  0  0  0  0  0  0  0  0  0
  154.0623  141.0002  159.8750 C   0  0  0  0  0  0  0  0  0  0  0  0
  154.4951  140.2541  158.9981 O   0  0  0  0  0  0  0  0  0  0  0  0
  152.1415  141.1885  157.6501 N   0  0  0  0  0  0  0  0  0  0  0  0
  145.8419  138.4724  150.9174 H   0  0  0  0  0  0  0  0  0  0  0  0
  147.5294  138.1519  151.3172 H   0  0  0  0  0  0  0  0  0  0  0  0
  146.9105  139.8131  151.3339 H   0  0  0  0  0  0  0  0  0  0  0  0
  146.9553  138.9503  154.8376 H   0  0  0  0  0  0  0  0  0  0  0  0
  148.1668  138.3007  153.7399 H   0  0  0  0  0  0  0  0  0  0  0  0
  147.7287  140.5637  152.4109 H   0  0  0  0  0  0  0  0  0  0  0  0
  145.8487  141.3590  153.8432 H   0  0  0  0  0  0  0  0  0  0  0  0
  147.1946  142.4875  153.9090 H   0  0  0  0  0  0  0  0  0  0  0  0
  146.9089  141.3808  155.2500 H   0  0  0  0  0  0  0  0  0  0  0  0
  149.8409  140.8652  153.2164 H   0  0  0  0  0  0  0  0  0  0  0  0
  151.6039  139.7315  155.5624 H   0  0  0  0  0  0  0  0  0  0  0  0
  151.5452  141.1284  154.5167 H   0  0  0  0  0  0  0  0  0  0  0  0
  150.1315  143.3973  156.1146 H   0  0  0  0  0  0  0  0  0  0  0  0
  153.1521  143.6356  160.8773 H   0  0  0  0  0  0  0  0  0  0  0  0
  151.7876  142.6031  161.3180 H   0  0  0  0  0  0  0  0  0  0  0  0
  154.2320  142.6183  162.7010 H   0  0  0  0  0  0  0  0  0  0  0  0
  153.0963  141.2736  162.7082 H   0  0  0  0  0  0  0  0  0  0  0  0
  155.6691  141.4872  161.2083 H   0  0  0  0  0  0  0  0  0  0  0  0
  154.7759  140.0311  161.6830 H   0  0  0  0  0  0  0  0  0  0  0  0
  1  2  1  0  0  0  0
  1 21  1  0  0  0  0
  1 22  1  0  0  0  0
  1 23  1  0  0  0  0
  2  3  1  0  0  0  0
  3  4  1  0  0  0  0
  3 24  1  0  0  0  0
  3 25  1  0  0  0  0
  4  5  1  0  0  0  0
  4  6  1  0  0  0  0
  4 26  1  0  0  0  0
  5 27  1  0  0  0  0
  5 28  1  0  0  0  0
  5 29  1  0  0  0  0
  6  7  1  0  0  0  0
  6 30  1  0  0  0  0
  7  8  2  0  0  0  0
  7  9  1  0  0  0  0
  9 10  1  0  0  0  0
  9 31  1  0  0  0  0
  9 32  1  0  0  0  0
 10 20  1  0  0  0  0
 10 11  2  0  0  0  0
 11 12  1  0  0  0  0
 11 33  1  0  0  0  0
 12 13  1  0  0  0  0
 13 14  1  0  0  0  0
 13 20  2  0  0  0  0
 14 18  1  0  0  0  0
 14 15  1  0  0  0  0
 15 16  1  0  0  0  0
 15 34  1  0  0  0  0
 15 35  1  0  0  0  0
 16 17  1  0  0  0  0
 16 36  1  0  0  0  0
 16 37  1  0  0  0  0
 17 18  1  0  0  0  0
 17 38  1  0  0  0  0
 17 39  1  0  0  0  0
 18 19  2  0  0  0  0
M  END
> <s_m_source_file>
AV-unprocessed.smi

> <i_m_source_file_index>
1486

> <i_lp_mmshare_version>
43012

> <i_f3d_flags>
0

> <s_epik_input>
W0NIM11PW0NIMl1bQ0BIXShbQ0gzXSlbTkhdQyg9TylbQ0gyXWMxW2NIXXNjKG4xKU4yW0NIMl1bQ0gyXVtDSDJdQzI9Tw==

> <s_epik_cmdline>
J2VwaWtfcHl0aG9uJywgJy1waCcsICc3LjAnLCAnLXRuJywgJzgnLCAnLW1hJywgJzIwMCcsICctbWV0YWxfYmluZGluZycsICctaW1hZScsICc8aW5maWxlLm1hZT4nLCAnLW9tYWUnLCAnPG91dGZpbGUubWFlPic=

> <r_lp_tautomer_probability>
1

> <r_epik_Ionization_Penalty>
3.00988e-05

> <r_epik_Ionization_Penalty_Charging>
0

> <r_epik_Ionization_Penalty_Neutral>
3.00988e-05

> <r_epik_State_Penalty>
-0

> <r_epik_Charging_Adjusted_Penalty>
0

> <i_epik_Tot_Q>
0

> <i_epik_Tot_abs_Q>
0

> <r_epik_Metal_State_Penalty>
-0

> <b_epik_Metal_Only>
0

> <s_lp_Force_Field>
OPLS_2005

> <r_lp_Energy>
17.9426

> <b_lp_Chiralities_Consistent>
1

> <s_lp_Variant>
AV-unprocessed.smi:1486-2

> <Gold.Version>
5.8.1

> <Gold.Id.Protein>
6NUR|6NUR_protein|mol2

> <Gold.PLP.Fitness>
46.3799

> <Gold.PLP.PLP>
-40.6027

> <Gold.PLP.part.hbond>
-2.0000

> <Gold.PLP.part.metal>
0.0000

> <Gold.PLP.part.buried>
1.5164

> <Gold.PLP.part.nonpolar>
-39.1968

> <Gold.PLP.part.repulsive>
0.8527

> <Gold.PLP.ligand.clash>
0.0000

> <Gold.PLP.ligand.torsion>
0.6466

> <Gold.PLP.Chemscore.Hbond>
1.3385

> <Gold.PLP.Chemscore.CHOScore>
1.0000

> <Gold.PLP.Chemscore.Metal>
0.0000

> <Gold.Chemscore.Hbonds>
donor molecule, donor type, donor heavy atom, donor atom, acceptor molecule, acceptor atom, score
      L1  H     6    30       P1  7957  0.21
      P1  H  7997  8010       L1    19  0.83
      L1  C    11    33       P1  8028  0.59

> <Gold.PLP.Chemscore.Internal.Correction>
0.0548

> <Gold.Rescore>
     Score         DG    S(hbond)    S(metal)    S(lipo)     H(rot)  DE(clash)    DE(int)     intcor
     13.30     -17.14       1.68        0.00      94.08       1.94       0.54       3.30       ----

> <Gold.Chemscore.Fitness>
13.2977

> <Gold.Chemscore.DG>
-17.1446

> <Gold.Chemscore.ZeroCoef>
-5.4800

> <Gold.Chemscore.Hbond>
1.6817

> <Gold.Chemscore.Metal>
0.0000

> <Gold.Chemscore.Lipo>
94.0774

> <Gold.Chemscore.Internal_Hbond>
0.0000

> <Gold.Chemscore.DEClash>
0.5445

> <Gold.Chemscore.DEInternal>
3.3024

> <Gold.Chemscore.Rot>
1.9373

> <Gold.Chemscore.Internal.Correction>
   9.000000E+99

> <Gold.Chemscore.Hbonds>
donor molecule, donor type, donor heavy atom, donor atom, acceptor molecule, acceptor atom, score
      L1  H     6    30       P1  7957  0.21
      P1  H  7997  8010       L1    19  0.81

> <Gold.Chemscore.Hbond.Weighted>
-5.6170

> <Gold.Chemscore.Metal.Weighted>
-0.0000

> <Gold.Chemscore.Lipo.Weighted>
-11.0071

> <Gold.Chemscore.Internal_Hbond.Weighted>
0.0000

> <Gold.Chemscore.DEClash.Weighted>
0.5445

> <Gold.Chemscore.DEInternal.Weighted>
3.3024

> <Gold.Chemscore.Rot.Weighted>
4.9594

> <Gold.Chemscore.Internal.Correction.Weighted>
   9.000000E+99

> <Gold.Protein.RotatedTorsions>
[ 6907 6896 6895 6894 ] final -102.89 input  -60.11 | X-H torsion
[ 7974 7965 7964 7962 ] final  -94.09 input  175.53 | X-H torsion
[ 8008 7997 7996 7995 ] final   14.06 input   59.86 | X-H torsion
[ 10167 10162 10161 10158 ] final -121.21 input  -65.29 | X-H torsion
[ 10718 10713 10712 10709 ] final  -69.76 input   66.30 | X-H torsion
[ 10763 10752 10751 10750 ] final -160.01 input  -60.55 | X-H torsion
[ 11005 11000 10999 10996 ] final   55.72 input  -57.11 | X-H torsion

> <Gold.Protein.ActiveResidues>
 VAL166  LYS551  ARG553  GLY616  TRP617  ASP618  TYR619  PRO620  LYS621  CYS622 
 ASP623  PHE694  ASN695  SER759  ASP760  ASP761  ALA762  ILE779  LEU786  VAL792 
 PHE793  MET794  SER795  GLU796  ALA797  LYS798  CYS799  TRP800  GLU811  SER814 

> <Gold.Protein.RotatedAtoms>
  150.7216  134.0513  159.3798 H   0  0  0  0  0  0  0  0  0  0  0  0  # atno 6907 bound_to 6896
  151.8489  135.0562  160.0466 H   0  0  0  0  0  0  0  0  0  0  0  0  # atno 6908 bound_to 6896
  152.2805  133.5430  159.5531 H   0  0  0  0  0  0  0  0  0  0  0  0  # atno 6909 bound_to 6896
  145.3779  140.9514  143.2410 H   0  0  0  0  0  0  0  0  0  0  0  0  # atno 7974 bound_to 7965
  154.8432  140.2918  155.5646 H   0  0  0  0  0  0  0  0  0  0  0  0  # atno 8008 bound_to 7997
  156.3013  140.2510  156.3309 H   0  0  0  0  0  0  0  0  0  0  0  0  # atno 8009 bound_to 7997
  154.9103  140.0389  157.1931 H   0  0  0  0  0  0  0  0  0  0  0  0  # atno 8010 bound_to 7997
  140.0275  143.5282  152.2192 H   0  0  0  0  0  0  0  0  0  0  0  0  # atno 10167 bound_to 10162
  156.0440  130.4318  150.2195 H   0  0  0  0  0  0  0  0  0  0  0  0  # atno 10718 bound_to 10713
  154.7427  135.3072  154.8700 H   0  0  0  0  0  0  0  0  0  0  0  0  # atno 10763 bound_to 10752
  153.9510  135.6764  153.4748 H   0  0  0  0  0  0  0  0  0  0  0  0  # atno 10764 bound_to 10752
  153.1025  135.4905  154.8817 H   0  0  0  0  0  0  0  0  0  0  0  0  # atno 10765 bound_to 10752
  140.0585  134.5636  155.9180 H   0  0  0  0  0  0  0  0  0  0  0  0  # atno 11005 bound_to 11000
  144.8529  139.5294  143.6848 LP  0  0  0  0  0  0  0  0  0  0  0  0  # atno 17320 bound_to 7965
  146.2856  139.6994  142.9198 LP  0  0  0  0  0  0  0  0  0  0  0  0  # atno 17321 bound_to 7965
  139.6098  144.7606  151.2977 LP  0  0  0  0  0  0  0  0  0  0  0  0  # atno 17342 bound_to 10162
  140.7316  143.6846  150.7972 LP  0  0  0  0  0  0  0  0  0  0  0  0  # atno 17343 bound_to 10162
  157.0287  131.0001  151.3318 LP  0  0  0  0  0  0  0  0  0  0  0  0  # atno 17370 bound_to 10713
  157.5293  130.8048  149.7898 LP  0  0  0  0  0  0  0  0  0  0  0  0  # atno 17371 bound_to 10713
  141.1962  133.6591  156.5682 LP  0  0  0  0  0  0  0  0  0  0  0  0  # atno 17394 bound_to 11000
  140.3807  134.7525  157.4659 LP  0  0  0  0  0  0  0  0  0  0  0  0  # atno 17395 bound_to 11000

$$$$
