AV-unprocessed.smi:2904|AV-procd|sdf|11160|dock8
  -GOLD-   2272016 43D 1   1.00000     0.00000
 Structure written by MMmdl.
 39 40  0  0  0  0  0  0  0  0  1 V2000
  154.3408  141.3181  161.4492 C   0  0  0  0  0  0  0  0  0  0  0  0
  153.3574  141.5991  160.3496 C   0  0  0  0  0  0  0  0  0  0  0  0
  152.6315  142.7031  160.3970 N   0  0  0  0  0  0  0  0  0  0  0  0
  151.8785  142.6717  159.2778 N   0  0  0  0  0  0  0  0  0  0  0  0
  150.9266  143.7403  159.0261 C   0  0  0  0  0  0  0  0  0  0  0  0
  151.0772  144.7027  159.9353 F   0  0  0  0  0  0  0  0  0  0  0  0
  151.0966  144.2415  157.8016 F   0  0  0  0  0  0  0  0  0  0  0  0
  152.1055  141.5244  158.5416 C   0  0  0  0  0  0  0  0  0  0  0  0
  151.3756  141.2371  157.2699 C   0  0  0  0  0  0  0  0  0  0  0  0
  153.0674  140.8063  159.2009 C   0  0  0  0  0  0  0  0  0  0  0  0
  153.6886  139.4832  158.8201 C   0  0  0  0  0  0  0  0  0  0  0  0
  153.4999  138.4272  159.9166 C   0  0  0  0  0  0  0  0  0  0  0  0
  152.4482  137.7936  160.0215 O   0  0  0  0  0  0  0  0  0  0  0  0
  154.5458  138.2492  160.7379 N   0  0  0  0  0  0  0  0  0  0  0  0
  154.5931  137.3008  161.8469 C   0  0  0  0  0  0  0  0  0  0  0  0
  154.9368  138.0365  163.1502 C   0  0  0  0  0  0  0  0  0  0  0  0
  155.1331  137.0367  164.3015 C   0  0  0  0  0  0  0  0  0  0  0  0
  156.1423  136.0927  163.9592 O   0  0  0  0  0  0  0  0  0  0  0  0
  155.8032  135.3053  162.8225 C   0  0  0  0  0  0  0  0  0  0  0  0
  155.6415  136.2057  161.5869 C   0  0  0  0  0  0  0  0  0  0  0  0
  155.2263  140.8116  161.0643 H   0  0  0  0  0  0  0  0  0  0  0  0
  153.8978  140.6791  162.2131 H   0  0  0  0  0  0  0  0  0  0  0  0
  154.6736  142.2367  161.9337 H   0  0  0  0  0  0  0  0  0  0  0  0
  149.9048  143.3668  159.0903 H   0  0  0  0  0  0  0  0  0  0  0  0
  151.6228  140.2482  156.8846 H   0  0  0  0  0  0  0  0  0  0  0  0
  151.6351  141.9670  156.5031 H   0  0  0  0  0  0  0  0  0  0  0  0
  150.2970  141.2748  157.4248 H   0  0  0  0  0  0  0  0  0  0  0  0
  153.2527  139.1031  157.8955 H   0  0  0  0  0  0  0  0  0  0  0  0
  154.7557  139.5896  158.6246 H   0  0  0  0  0  0  0  0  0  0  0  0
  155.3710  138.8103  160.5830 H   0  0  0  0  0  0  0  0  0  0  0  0
  153.6132  136.8345  161.9675 H   0  0  0  0  0  0  0  0  0  0  0  0
  155.8521  138.6159  163.0204 H   0  0  0  0  0  0  0  0  0  0  0  0
  154.1492  138.7471  163.4028 H   0  0  0  0  0  0  0  0  0  0  0  0
  155.4360  137.5635  165.2065 H   0  0  0  0  0  0  0  0  0  0  0  0
  154.2000  136.5201  164.5316 H   0  0  0  0  0  0  0  0  0  0  0  0
  156.5944  134.5749  162.6521 H   0  0  0  0  0  0  0  0  0  0  0  0
  154.8884  134.7432  163.0160 H   0  0  0  0  0  0  0  0  0  0  0  0
  155.3590  135.6037  160.7225 H   0  0  0  0  0  0  0  0  0  0  0  0
  156.6033  136.6619  161.3487 H   0  0  0  0  0  0  0  0  0  0  0  0
  1  2  1  0  0  0  0
  1 21  1  0  0  0  0
  1 22  1  0  0  0  0
  1 23  1  0  0  0  0
  2 10  1  0  0  0  0
  2  3  2  0  0  0  0
  3  4  1  0  0  0  0
  4  5  1  0  0  0  0
  4  8  1  0  0  0  0
  5  6  1  0  0  0  0
  5  7  1  0  0  0  0
  5 24  1  0  0  0  0
  8  9  1  0  0  0  0
  8 10  2  0  0  0  0
  9 25  1  0  0  0  0
  9 26  1  0  0  0  0
  9 27  1  0  0  0  0
 10 11  1  0  0  0  0
 11 12  1  0  0  0  0
 11 28  1  0  0  0  0
 11 29  1  0  0  0  0
 12 13  2  0  0  0  0
 12 14  1  0  0  0  0
 14 15  1  0  0  0  0
 14 30  1  0  0  0  0
 15 20  1  0  0  0  0
 15 16  1  0  0  0  0
 15 31  1  0  0  0  0
 16 17  1  0  0  0  0
 16 32  1  0  0  0  0
 16 33  1  0  0  0  0
 17 18  1  0  0  0  0
 17 34  1  0  0  0  0
 17 35  1  0  0  0  0
 18 19  1  0  0  0  0
 19 20  1  0  0  0  0
 19 36  1  0  0  0  0
 19 37  1  0  0  0  0
 20 38  1  0  0  0  0
 20 39  1  0  0  0  0
M  END
> <s_m_source_file>
AV-unprocessed.smi

> <i_m_source_file_index>
2904

> <i_lp_mmshare_version>
43012

> <i_f3d_flags>
0

> <s_epik_input>
W0NIM11jMW5uKFtDSF0oRilGKWMoW0NIM10pYzFbQ0gyXUMoPU8pW05IXVtDSF0yW0NIMl1bQ0gyXU9bQ0gyXVtDSDJdMg==

> <s_epik_cmdline>
J2VwaWtfcHl0aG9uJywgJy1waCcsICc3LjAnLCAnLXRuJywgJzgnLCAnLW1hJywgJzIwMCcsICctbWV0YWxfYmluZGluZycsICctaW1hZScsICc8aW5maWxlLm1hZT4nLCAnLW9tYWUnLCAnPG91dGZpbGUubWFlPic=

> <r_lp_tautomer_probability>
1

> <r_epik_Ionization_Penalty>
3.9362e-07

> <r_epik_Ionization_Penalty_Charging>
0

> <r_epik_Ionization_Penalty_Neutral>
3.9362e-07

> <r_epik_State_Penalty>
-0

> <r_epik_Charging_Adjusted_Penalty>
0

> <i_epik_Tot_Q>
0

> <i_epik_Tot_abs_Q>
0

> <r_epik_Metal_State_Penalty>
-0

> <b_epik_Metal_Only>
0

> <s_lp_Force_Field>
OPLS_2005

> <r_lp_Energy>
7.93396

> <b_lp_Chiralities_Consistent>
1

> <s_lp_Variant>
AV-unprocessed.smi:2904-1

> <Gold.Version>
5.8.1

> <Gold.Id.Protein>
6NUR|6NUR_protein|mol2

> <Gold.PLP.Fitness>
43.8010

> <Gold.PLP.PLP>
-44.6137

> <Gold.PLP.part.hbond>
0.0000

> <Gold.PLP.part.metal>
0.0000

> <Gold.PLP.part.buried>
-3.9075

> <Gold.PLP.part.nonpolar>
-40.0492

> <Gold.PLP.part.repulsive>
0.0929

> <Gold.PLP.ligand.clash>
0.0000

> <Gold.PLP.ligand.torsion>
0.4159

> <Gold.PLP.Chemscore.Hbond>
0.0000

> <Gold.PLP.Chemscore.CHOScore>
0.0000

> <Gold.PLP.Chemscore.Metal>
0.0000

> <Gold.PLP.Chemscore.Internal.Correction>
0.0192

> <Gold.Rescore>
     Score         DG    S(hbond)    S(metal)    S(lipo)     H(rot)  DE(clash)    DE(int)     intcor
     13.17     -13.47       0.00        0.00      99.88       1.44       0.16       0.14       ----

> <Gold.Chemscore.Fitness>
13.1657

> <Gold.Chemscore.DG>
-13.4748

> <Gold.Chemscore.ZeroCoef>
-5.4800

> <Gold.Chemscore.Hbond>
0.0000

> <Gold.Chemscore.Metal>
0.0000

> <Gold.Chemscore.Lipo>
99.8810

> <Gold.Chemscore.Internal_Hbond>
0.0000

> <Gold.Chemscore.DEClash>
0.1648

> <Gold.Chemscore.DEInternal>
0.1443

> <Gold.Chemscore.Rot>
1.4419

> <Gold.Chemscore.Internal.Correction>
   9.000000E+99

> <Gold.Chemscore.Hbond.Weighted>
-0.0000

> <Gold.Chemscore.Metal.Weighted>
-0.0000

> <Gold.Chemscore.Lipo.Weighted>
-11.6861

> <Gold.Chemscore.Internal_Hbond.Weighted>
0.0000

> <Gold.Chemscore.DEClash.Weighted>
0.1648

> <Gold.Chemscore.DEInternal.Weighted>
0.1443

> <Gold.Chemscore.Rot.Weighted>
3.6913

> <Gold.Chemscore.Internal.Correction.Weighted>
   9.000000E+99

> <Gold.Protein.RotatedTorsions>
[ 6907 6896 6895 6894 ] final  -94.11 input  -60.11 | X-H torsion
[ 7974 7965 7964 7962 ] final  134.17 input  175.53 | X-H torsion
[ 8008 7997 7996 7995 ] final -124.52 input   59.86 | X-H torsion
[ 10167 10162 10161 10158 ] final   13.39 input  -65.29 | X-H torsion
[ 10718 10713 10712 10709 ] final  131.39 input   66.30 | X-H torsion
[ 10763 10752 10751 10750 ] final   33.37 input  -60.55 | X-H torsion
[ 11005 11000 10999 10996 ] final -173.62 input  -57.11 | X-H torsion

> <Gold.Protein.ActiveResidues>
 VAL166  LYS551  ARG553  GLY616  TRP617  ASP618  TYR619  PRO620  LYS621  CYS622 
 ASP623  PHE694  ASN695  SER759  ASP760  ASP761  ALA762  ILE779  LEU786  VAL792 
 PHE793  MET794  SER795  GLU796  ALA797  LYS798  CYS799  TRP800  GLU811  SER814 

> <Gold.Protein.RotatedAtoms>
  150.6935  134.1863  159.4267 H   0  0  0  0  0  0  0  0  0  0  0  0  # atno 6907 bound_to 6896
  151.9836  135.0013  160.0568 H   0  0  0  0  0  0  0  0  0  0  0  0  # atno 6908 bound_to 6896
  152.1733  133.4623  159.4957 H   0  0  0  0  0  0  0  0  0  0  0  0  # atno 6909 bound_to 6896
  144.9790  139.4524  143.5395 H   0  0  0  0  0  0  0  0  0  0  0  0  # atno 7974 bound_to 7965
  155.1983  140.0415  157.2913 H   0  0  0  0  0  0  0  0  0  0  0  0  # atno 8008 bound_to 7997
  154.6092  140.2472  155.7662 H   0  0  0  0  0  0  0  0  0  0  0  0  # atno 8009 bound_to 7997
  156.2369  140.2918  156.0346 H   0  0  0  0  0  0  0  0  0  0  0  0  # atno 8010 bound_to 7997
  140.6005  143.8613  150.6961 H   0  0  0  0  0  0  0  0  0  0  0  0  # atno 10167 bound_to 10162
  157.4971  131.1093  150.9477 H   0  0  0  0  0  0  0  0  0  0  0  0  # atno 10718 bound_to 10713
  153.0215  135.6389  154.1501 H   0  0  0  0  0  0  0  0  0  0  0  0  # atno 10763 bound_to 10752
  154.1235  135.2845  155.3204 H   0  0  0  0  0  0  0  0  0  0  0  0  # atno 10764 bound_to 10752
  154.6246  135.5513  153.7675 H   0  0  0  0  0  0  0  0  0  0  0  0  # atno 10765 bound_to 10752
  140.4837  134.6050  157.4929 H   0  0  0  0  0  0  0  0  0  0  0  0  # atno 11005 bound_to 11000
  146.3403  139.9051  142.8788 LP  0  0  0  0  0  0  0  0  0  0  0  0  # atno 17320 bound_to 7965
  145.2448  141.0022  143.3915 LP  0  0  0  0  0  0  0  0  0  0  0  0  # atno 17321 bound_to 7965
  140.2158  143.3847  152.1682 LP  0  0  0  0  0  0  0  0  0  0  0  0  # atno 17342 bound_to 10162
  139.5288  144.7134  151.5131 LP  0  0  0  0  0  0  0  0  0  0  0  0  # atno 17343 bound_to 10162
  157.0160  130.5655  149.5326 LP  0  0  0  0  0  0  0  0  0  0  0  0  # atno 17370 bound_to 10713
  156.0207  130.5302  150.8267 LP  0  0  0  0  0  0  0  0  0  0  0  0  # atno 17371 bound_to 10713
  139.9811  134.7136  155.9859 LP  0  0  0  0  0  0  0  0  0  0  0  0  # atno 17394 bound_to 11000
  141.1518  133.6547  156.4038 LP  0  0  0  0  0  0  0  0  0  0  0  0  # atno 17395 bound_to 11000

$$$$
