AV-unprocessed.smi:788|AV-procd|sdf|3733|dock2
  -GOLD-   22720 1163D 1   1.00000     0.00000
 Structure written by MMmdl.
 35 36  0  0  0  0  0  0  0  0  1 V2000
  151.9734  144.7028  158.0939 C   0  0  0  0  0  0  0  0  0  0  0  0
  152.0645  143.4024  158.9131 C   0  0  2  0  0  0  0  0  0  0  0  0
  153.3929  143.3499  159.6915 C   0  0  0  0  0  0  0  0  0  0  0  0
  153.5014  142.0762  160.5395 C   0  0  0  0  0  0  0  0  0  0  0  0
  153.3440  140.8235  159.6685 C   0  0  0  0  0  0  0  0  0  0  0  0
  152.0155  140.8367  158.8885 C   0  0  2  0  0  0  0  0  0  0  0  0
  151.8764  139.5567  158.0439 C   0  0  0  0  0  0  0  0  0  0  0  0
  151.8886  142.1308  158.0428 C   0  0  1  0  0  0  0  0  0  0  0  0
  150.5864  142.1621  157.3753 N   0  0  0  0  0  0  0  0  0  0  0  0
  150.2381  141.4756  156.2736 C   0  0  0  0  0  0  0  0  0  0  0  0
  151.0078  140.7166  155.6876 O   0  0  0  0  0  0  0  0  0  0  0  0
  148.9808  141.6689  155.8212 N   0  0  0  0  0  0  0  0  0  0  0  0
  148.2781  141.1242  154.7071 C   0  0  0  0  0  0  0  0  0  0  0  0
  148.5475  139.9360  154.1415 N   0  0  0  0  0  0  0  0  0  0  0  0
  147.7103  139.6661  153.0672 N   0  0  0  0  0  0  0  0  0  0  0  0
  146.8464  140.6630  152.8574 C   0  0  0  0  0  0  0  0  0  0  0  0
  146.9740  142.0294  153.9505 S   0  0  0  0  0  0  0  0  0  0  0  0
  152.7259  144.7259  157.3054 H   0  0  0  0  0  0  0  0  0  0  0  0
  152.1289  145.5763  158.7275 H   0  0  0  0  0  0  0  0  0  0  0  0
  150.9960  144.8175  157.6252 H   0  0  0  0  0  0  0  0  0  0  0  0
  151.2559  143.4238  159.6457 H   0  0  0  0  0  0  0  0  0  0  0  0
  154.2307  143.3952  158.9942 H   0  0  0  0  0  0  0  0  0  0  0  0
  153.4826  144.2238  160.3379 H   0  0  0  0  0  0  0  0  0  0  0  0
  154.4630  142.0530  161.0528 H   0  0  0  0  0  0  0  0  0  0  0  0
  152.7355  142.0842  161.3164 H   0  0  0  0  0  0  0  0  0  0  0  0
  154.1805  140.7580  158.9714 H   0  0  0  0  0  0  0  0  0  0  0  0
  153.3984  139.9355  160.2991 H   0  0  0  0  0  0  0  0  0  0  0  0
  151.2054  140.8315  159.6198 H   0  0  0  0  0  0  0  0  0  0  0  0
  152.6303  139.5187  157.2569 H   0  0  0  0  0  0  0  0  0  0  0  0
  150.8967  139.4891  157.5707 H   0  0  0  0  0  0  0  0  0  0  0  0
  151.9956  138.6661  158.6611 H   0  0  0  0  0  0  0  0  0  0  0  0
  152.6887  142.1227  157.3001 H   0  0  0  0  0  0  0  0  0  0  0  0
  149.8863  142.7617  157.7889 H   0  0  0  0  0  0  0  0  0  0  0  0
  148.4391  142.3179  156.3732 H   0  0  0  0  0  0  0  0  0  0  0  0
  146.1308  140.5951  152.0515 H   0  0  0  0  0  0  0  0  0  0  0  0
  1  2  1  0  0  0  0
  1 18  1  0  0  0  0
  1 19  1  0  0  0  0
  1 20  1  0  0  0  0
  2  8  1  0  0  0  0
  2  3  1  0  0  0  0
  2 21  1  0  0  0  0
  3  4  1  0  0  0  0
  3 22  1  0  0  0  0
  3 23  1  0  0  0  0
  4  5  1  0  0  0  0
  4 24  1  0  0  0  0
  4 25  1  0  0  0  0
  5  6  1  0  0  0  0
  5 26  1  0  0  0  0
  5 27  1  0  0  0  0
  6  7  1  0  0  0  0
  6  8  1  0  0  0  0
  6 28  1  0  0  0  0
  7 29  1  0  0  0  0
  7 30  1  0  0  0  0
  7 31  1  0  0  0  0
  8  9  1  0  0  0  0
  8 32  1  0  0  0  0
  9 10  1  0  0  0  0
  9 33  1  0  0  0  0
 10 11  2  0  0  0  0
 10 12  1  0  0  0  0
 12 13  1  0  0  0  0
 12 34  1  0  0  0  0
 13 17  1  0  0  0  0
 13 14  2  0  0  0  0
 14 15  1  0  0  0  0
 15 16  2  0  0  0  0
 16 17  1  0  0  0  0
 16 35  1  0  0  0  0
M  END
> <s_m_source_file>
AV-unprocessed.smi

> <i_m_source_file_index>
788

> <i_lp_mmshare_version>
43012

> <i_f3d_flags>
0

> <s_epik_input>
W0NIM11bQ0BASF0xW0NIMl1bQ0gyXVtDSDJdW0NAQEhdKFtDSDNdKVtDQEhdMVtOSF1DKD1PKVtOSF1jMm5uW2NIXXMy

> <s_epik_cmdline>
J2VwaWtfcHl0aG9uJywgJy1waCcsICc3LjAnLCAnLXRuJywgJzgnLCAnLW1hJywgJzIwMCcsICctbWV0YWxfYmluZGluZycsICctaW1hZScsICc8aW5maWxlLm1hZT4nLCAnLW9tYWUnLCAnPG91dGZpbGUubWFlPic=

> <r_lp_tautomer_probability>
1

> <r_epik_Ionization_Penalty>
0.000304078

> <r_epik_Ionization_Penalty_Charging>
0

> <r_epik_Ionization_Penalty_Neutral>
0.000304078

> <r_epik_State_Penalty>
-0

> <r_epik_Charging_Adjusted_Penalty>
0

> <i_epik_Tot_Q>
0

> <i_epik_Tot_abs_Q>
0

> <r_epik_Metal_State_Penalty>
0.164801

> <b_epik_Metal_Only>
0

> <s_lp_Force_Field>
OPLS_2005

> <r_lp_Energy>
14.1502

> <b_lp_Chiralities_Consistent>
1

> <s_lp_Variant>
AV-unprocessed.smi:788-3

> <Gold.Version>
5.8.1

> <Gold.Id.Protein>
6NUR|6NUR_protein|mol2

> <Gold.PLP.Fitness>
36.6153

> <Gold.PLP.PLP>
-34.2580

> <Gold.PLP.part.hbond>
-1.4707

> <Gold.PLP.part.metal>
0.0000

> <Gold.PLP.part.buried>
-6.0153

> <Gold.PLP.part.nonpolar>
-29.2786

> <Gold.PLP.part.repulsive>
2.8116

> <Gold.PLP.ligand.clash>
0.0000

> <Gold.PLP.ligand.torsion>
0.4224

> <Gold.PLP.Chemscore.Hbond>
0.2785

> <Gold.PLP.Chemscore.CHOScore>
0.7867

> <Gold.PLP.Chemscore.Metal>
0.0000

> <Gold.Chemscore.Hbonds>
donor molecule, donor type, donor heavy atom, donor atom, acceptor molecule, acceptor atom, score
      P1  H  7989  7998       L1    11  0.32
      L1  C    16    35       P1 10175  0.72

> <Gold.PLP.Chemscore.Internal.Correction>
0.0066

> <Gold.Rescore>
     Score         DG    S(hbond)    S(metal)    S(lipo)     H(rot)  DE(clash)    DE(int)     intcor
     12.13     -16.02       0.59        0.00      95.07       1.00       1.21       2.68       ----

> <Gold.Chemscore.Fitness>
12.1266

> <Gold.Chemscore.DG>
-16.0218

> <Gold.Chemscore.ZeroCoef>
-5.4800

> <Gold.Chemscore.Hbond>
0.5924

> <Gold.Chemscore.Metal>
0.0000

> <Gold.Chemscore.Lipo>
95.0702

> <Gold.Chemscore.Internal_Hbond>
0.0000

> <Gold.Chemscore.DEClash>
1.2113

> <Gold.Chemscore.DEInternal>
2.6840

> <Gold.Chemscore.Rot>
1.0000

> <Gold.Chemscore.Internal.Correction>
   9.000000E+99

> <Gold.Chemscore.Hbonds>
donor molecule, donor type, donor heavy atom, donor atom, acceptor molecule, acceptor atom, score
      P1  H  7989  7998       L1    11  0.32

> <Gold.Chemscore.Hbond.Weighted>
-1.9786

> <Gold.Chemscore.Metal.Weighted>
-0.0000

> <Gold.Chemscore.Lipo.Weighted>
-11.1232

> <Gold.Chemscore.Internal_Hbond.Weighted>
0.0000

> <Gold.Chemscore.DEClash.Weighted>
1.2113

> <Gold.Chemscore.DEInternal.Weighted>
2.6840

> <Gold.Chemscore.Rot.Weighted>
2.5600

> <Gold.Chemscore.Internal.Correction.Weighted>
   9.000000E+99

> <Gold.Protein.RotatedTorsions>
[ 6907 6896 6895 6894 ] final -160.83 input  -60.11 | X-H torsion
[ 7974 7965 7964 7962 ] final   75.57 input  175.53 | X-H torsion
[ 8008 7997 7996 7995 ] final   72.53 input   59.86 | X-H torsion
[ 10167 10162 10161 10158 ] final  -71.76 input  -65.29 | X-H torsion
[ 10718 10713 10712 10709 ] final  -45.30 input   66.30 | X-H torsion
[ 10763 10752 10751 10750 ] final   62.93 input  -60.55 | X-H torsion
[ 11005 11000 10999 10996 ] final -145.30 input  -57.11 | X-H torsion

> <Gold.Protein.ActiveResidues>
 VAL166  LYS551  ARG553  GLY616  TRP617  ASP618  TYR619  PRO620  LYS621  CYS622 
 ASP623  PHE694  ASN695  SER759  ASP760  ASP761  ALA762  ILE779  LEU786  VAL792 
 PHE793  MET794  SER795  GLU796  ALA797  LYS798  CYS799  TRP800  GLU811  SER814 

> <Gold.Protein.RotatedAtoms>
  151.3552  133.3910  159.2683 H   0  0  0  0  0  0  0  0  0  0  0  0  # atno 6907 bound_to 6896
  150.9769  134.9133  159.7832 H   0  0  0  0  0  0  0  0  0  0  0  0  # atno 6908 bound_to 6896
  152.5204  134.3515  159.9305 H   0  0  0  0  0  0  0  0  0  0  0  0  # atno 6909 bound_to 6896
  145.7139  139.2624  143.1635 H   0  0  0  0  0  0  0  0  0  0  0  0  # atno 7974 bound_to 7965
  155.7701  140.3484  155.5243 H   0  0  0  0  0  0  0  0  0  0  0  0  # atno 8008 bound_to 7997
  155.8830  140.1005  157.1493 H   0  0  0  0  0  0  0  0  0  0  0  0  # atno 8009 bound_to 7997
  154.4026  140.1319  156.4207 H   0  0  0  0  0  0  0  0  0  0  0  0  # atno 8010 bound_to 7997
  140.5247  143.2327  151.7368 H   0  0  0  0  0  0  0  0  0  0  0  0  # atno 10167 bound_to 10162
  156.2298  130.4172  149.8889 H   0  0  0  0  0  0  0  0  0  0  0  0  # atno 10718 bound_to 10713
  153.0000  135.5447  154.6271 H   0  0  0  0  0  0  0  0  0  0  0  0  # atno 10763 bound_to 10752
  154.5557  135.2830  155.0969 H   0  0  0  0  0  0  0  0  0  0  0  0  # atno 10764 bound_to 10752
  154.2191  135.6454  153.5192 H   0  0  0  0  0  0  0  0  0  0  0  0  # atno 10765 bound_to 10752
  140.7937  134.2938  157.5004 H   0  0  0  0  0  0  0  0  0  0  0  0  # atno 11005 bound_to 11000
  146.0687  140.7892  142.9699 LP  0  0  0  0  0  0  0  0  0  0  0  0  # atno 17320 bound_to 7965
  144.6934  140.3309  143.7216 LP  0  0  0  0  0  0  0  0  0  0  0  0  # atno 17321 bound_to 7965
  139.4934  144.4203  151.9985 LP  0  0  0  0  0  0  0  0  0  0  0  0  # atno 17342 bound_to 10162
  140.3301  144.3326  150.5989 LP  0  0  0  0  0  0  0  0  0  0  0  0  # atno 17343 bound_to 10162
  156.6507  130.8742  151.3531 LP  0  0  0  0  0  0  0  0  0  0  0  0  # atno 17370 bound_to 10713
  157.7127  130.9460  150.1147 LP  0  0  0  0  0  0  0  0  0  0  0  0  # atno 17371 bound_to 10713
  139.8728  134.9389  156.3728 LP  0  0  0  0  0  0  0  0  0  0  0  0  # atno 17394 bound_to 11000
  140.9364  133.7544  156.0090 LP  0  0  0  0  0  0  0  0  0  0  0  0  # atno 17395 bound_to 11000

$$$$
