AV-unprocessed.smi:2446|AV-procd|sdf|9648|dock3
  -GOLD-   2272013283D 1   1.00000     0.00000
 Structure written by MMmdl.
 40 41  0  0  0  0  0  0  0  0  2 V2000
  150.1306  138.8122  154.4098 C   0  0  0  0  0  0  0  0  0  0  0  0
  149.0562  139.8793  154.2874 C   0  0  0  0  0  0  0  0  0  0  0  0
  149.3545  141.2102  154.6522 C   0  0  0  0  0  0  0  0  0  0  0  0
  148.4095  142.1685  154.5528 N   0  3  0  0  0  0  0  0  0  0  0  0
  147.1579  141.9163  154.1172 C   0  0  0  0  0  0  0  0  0  0  0  0
  146.7957  140.6087  153.7374 C   0  0  0  0  0  0  0  0  0  0  0  0
  147.7579  139.5685  153.8073 C   0  0  0  0  0  0  0  0  0  0  0  0
  147.4713  138.2189  153.4578 N   0  0  0  0  0  0  0  0  0  0  0  0
  146.2844  137.5813  153.4320 C   0  0  0  0  0  0  0  0  0  0  0  0
  145.2122  138.0839  153.7603 O   0  0  0  0  0  0  0  0  0  0  0  0
  146.3510  136.3104  152.9947 N   0  0  0  0  0  0  0  0  0  0  0  0
  145.2657  135.3354  152.8394 C   0  0  1  0  0  0  0  0  0  0  0  0
  145.0042  135.0685  151.3447 C   0  0  0  0  0  0  0  0  0  0  0  0
  146.1419  134.2673  150.6896 C   0  0  0  0  0  0  0  0  0  0  0  0
  146.4139  132.9580  151.4465 C   0  0  0  0  0  0  0  0  0  0  0  0
  146.7231  133.2146  152.9361 C   0  0  2  0  0  0  0  0  0  0  0  0
  147.0168  131.9075  153.7008 C   0  0  0  0  0  0  0  0  0  0  0  0
  146.1291  130.9637  153.3862 F   0  0  0  0  0  0  0  0  0  0  0  0
  148.2388  131.4675  153.4011 F   0  0  0  0  0  0  0  0  0  0  0  0
  146.9650  132.1275  155.0147 F   0  0  0  0  0  0  0  0  0  0  0  0
  145.5724  134.0168  153.5852 C   0  0  0  0  0  0  0  0  0  0  0  0
  151.0480  139.2209  154.8343 H   0  0  0  0  0  0  0  0  0  0  0  0
  150.3683  138.3977  153.4299 H   0  0  0  0  0  0  0  0  0  0  0  0
  149.7932  138.0013  155.0562 H   0  0  0  0  0  0  0  0  0  0  0  0
  150.3162  141.5369  155.0208 H   0  0  0  0  0  0  0  0  0  0  0  0
  146.4851  142.7612  154.0907 H   0  0  0  0  0  0  0  0  0  0  0  0
  145.7826  140.4294  153.4124 H   0  0  0  0  0  0  0  0  0  0  0  0
  148.2542  137.6932  153.0977 H   0  0  0  0  0  0  0  0  0  0  0  0
  147.2718  135.9724  152.7537 H   0  0  0  0  0  0  0  0  0  0  0  0
  144.3523  135.7669  153.2522 H   0  0  0  0  0  0  0  0  0  0  0  0
  144.0726  134.5109  151.2397 H   0  0  0  0  0  0  0  0  0  0  0  0
  144.8541  136.0088  150.8125 H   0  0  0  0  0  0  0  0  0  0  0  0
  145.8884  134.0486  149.6519 H   0  0  0  0  0  0  0  0  0  0  0  0
  147.0510  134.8691  150.6618 H   0  0  0  0  0  0  0  0  0  0  0  0
  145.5489  132.2998  151.3555 H   0  0  0  0  0  0  0  0  0  0  0  0
  147.2473  132.4366  150.9748 H   0  0  0  0  0  0  0  0  0  0  0  0
  147.6266  133.8243  152.9857 H   0  0  0  0  0  0  0  0  0  0  0  0
  145.8032  134.2210  154.6306 H   0  0  0  0  0  0  0  0  0  0  0  0
  144.6710  133.4028  153.5956 H   0  0  0  0  0  0  0  0  0  0  0  0
  148.6499  143.1224  154.8237 H   0  0  0  0  0  0  0  0  0  0  0  0
  1  2  1  0  0  0  0
  1 22  1  0  0  0  0
  1 23  1  0  0  0  0
  1 24  1  0  0  0  0
  2  7  1  0  0  0  0
  2  3  2  0  0  0  0
  3  4  1  0  0  0  0
  3 25  1  0  0  0  0
  4  5  2  0  0  0  0
  4 40  1  0  0  0  0
  5  6  1  0  0  0  0
  5 26  1  0  0  0  0
  6  7  2  0  0  0  0
  6 27  1  0  0  0  0
  7  8  1  0  0  0  0
  8  9  1  0  0  0  0
  8 28  1  0  0  0  0
  9 10  2  0  0  0  0
  9 11  1  0  0  0  0
 11 12  1  0  0  0  0
 11 29  1  0  0  0  0
 12 21  1  0  0  0  0
 12 13  1  0  0  0  0
 12 30  1  0  0  0  0
 13 14  1  0  0  0  0
 13 31  1  0  0  0  0
 13 32  1  0  0  0  0
 14 15  1  0  0  0  0
 14 33  1  0  0  0  0
 14 34  1  0  0  0  0
 15 16  1  0  0  0  0
 15 35  1  0  0  0  0
 15 36  1  0  0  0  0
 16 17  1  0  0  0  0
 16 21  1  0  0  0  0
 16 37  1  0  0  0  0
 17 18  1  0  0  0  0
 17 19  1  0  0  0  0
 17 20  1  0  0  0  0
 21 38  1  0  0  0  0
 21 39  1  0  0  0  0
M  CHG  1   4   1
M  END
> <s_m_source_file>
AV-unprocessed.smi

> <i_m_source_file_index>
2446

> <i_lp_mmshare_version>
43012

> <i_f3d_flags>
0

> <s_epik_input>
W0NIM11jMVtjSF1uW2NIXVtjSF1jMVtOSF1DKD1PKVtOSF1bQ0BASF0yW0NIMl1bQ0gyXVtDSDJdW0NAQEhdKEMoRikoRilGKVtDSDJdMg==

> <s_epik_cmdline>
J2VwaWtfcHl0aG9uJywgJy1waCcsICc3LjAnLCAnLXRuJywgJzgnLCAnLW1hJywgJzIwMCcsICctbWV0YWxfYmluZGluZycsICctaW1hZScsICc8aW5maWxlLm1hZT4nLCAnLW9tYWUnLCAnPG91dGZpbGUubWFlPic=

> <r_epik_Ionization_Penalty>
0.736582

> <r_epik_Ionization_Penalty_Charging>
0.736562

> <r_epik_Ionization_Penalty_Neutral>
1.98379e-05

> <r_epik_State_Penalty>
0.762314

> <r_epik_Charging_Adjusted_Penalty>
1.49888

> <i_epik_Tot_Q>
1

> <i_epik_Tot_abs_Q>
1

> <r_epik_Metal_State_Penalty>
0.914579

> <b_epik_Metal_Only>
0

> <s_lp_Force_Field>
OPLS_2005

> <r_lp_Energy>
31.0639

> <b_lp_Chiralities_Consistent>
1

> <s_lp_Variant>
AV-unprocessed.smi:2446-8

> <Gold.Version>
5.8.1

> <Gold.Id.Protein>
6NUR|6NUR_protein|mol2

> <Gold.PLP.Fitness>
43.3657

> <Gold.PLP.PLP>
-32.7918

> <Gold.PLP.part.hbond>
-3.0000

> <Gold.PLP.part.metal>
0.0000

> <Gold.PLP.part.buried>
-4.5670

> <Gold.PLP.part.nonpolar>
-26.6363

> <Gold.PLP.part.repulsive>
0.3917

> <Gold.PLP.ligand.clash>
0.0684

> <Gold.PLP.ligand.torsion>
0.6178

> <Gold.PLP.Chemscore.Hbond>
3.9520

> <Gold.PLP.Chemscore.CHOScore>
0.0000

> <Gold.PLP.Chemscore.Metal>
0.0000

> <Gold.Chemscore.Hbonds>
donor molecule, donor type, donor heavy atom, donor atom, acceptor molecule, acceptor atom, score
      L1  H     4    40       P1  8028  2.00
      L1  H     8    28       P1  7948  0.99
      L1  H    11    29       P1  7948  1.00

> <Gold.PLP.Chemscore.Internal.Correction>
0.0220

> <Gold.Rescore>
     Score         DG    S(hbond)    S(metal)    S(lipo)     H(rot)  DE(clash)    DE(int)     intcor
     19.42     -20.97       2.88        0.00      72.05       1.00       0.17       1.38       ----

> <Gold.Chemscore.Fitness>
19.4248

> <Gold.Chemscore.DG>
-20.9736

> <Gold.Chemscore.ZeroCoef>
-5.4800

> <Gold.Chemscore.Hbond>
2.8813

> <Gold.Chemscore.Metal>
0.0000

> <Gold.Chemscore.Lipo>
72.0508

> <Gold.Chemscore.Internal_Hbond>
0.0000

> <Gold.Chemscore.DEClash>
0.1650

> <Gold.Chemscore.DEInternal>
1.3838

> <Gold.Chemscore.Rot>
1.0000

> <Gold.Chemscore.Internal.Correction>
   9.000000E+99

> <Gold.Chemscore.Hbonds>
donor molecule, donor type, donor heavy atom, donor atom, acceptor molecule, acceptor atom, score
      L1  H     4    40       P1  8028  1.00
      L1  H     8    28       P1  7948  0.87
      L1  H    11    29       P1  7948  0.94

> <Gold.Chemscore.Hbond.Weighted>
-9.6237

> <Gold.Chemscore.Metal.Weighted>
-0.0000

> <Gold.Chemscore.Lipo.Weighted>
-8.4299

> <Gold.Chemscore.Internal_Hbond.Weighted>
0.0000

> <Gold.Chemscore.DEClash.Weighted>
0.1650

> <Gold.Chemscore.DEInternal.Weighted>
1.3838

> <Gold.Chemscore.Rot.Weighted>
2.5600

> <Gold.Chemscore.Internal.Correction.Weighted>
   9.000000E+99

> <Gold.Protein.RotatedTorsions>
[ 6907 6896 6895 6894 ] final  149.46 input  -60.11 | X-H torsion
[ 7974 7965 7964 7962 ] final  -67.31 input  175.53 | X-H torsion
[ 8008 7997 7996 7995 ] final    0.17 input   59.86 | X-H torsion
[ 10167 10162 10161 10158 ] final  102.42 input  -65.29 | X-H torsion
[ 10718 10713 10712 10709 ] final -162.06 input   66.30 | X-H torsion
[ 10763 10752 10751 10750 ] final  -52.95 input  -60.55 | X-H torsion
[ 11005 11000 10999 10996 ] final -129.54 input  -57.11 | X-H torsion

> <Gold.Protein.ActiveResidues>
 VAL166  LYS551  ARG553  GLY616  TRP617  ASP618  TYR619  PRO620  LYS621  CYS622 
 ASP623  PHE694  ASN695  SER759  ASP760  ASP761  ALA762  ILE779  LEU786  VAL792 
 PHE793  MET794  SER795  GLU796  ALA797  LYS798  CYS799  TRP800  GLU811  SER814 

> <Gold.Protein.RotatedAtoms>
  152.1277  133.4390  159.4705 H   0  0  0  0  0  0  0  0  0  0  0  0  # atno 6907 bound_to 6896
  150.6876  134.2458  159.4500 H   0  0  0  0  0  0  0  0  0  0  0  0  # atno 6908 bound_to 6896
  152.0339  134.9751  160.0623 H   0  0  0  0  0  0  0  0  0  0  0  0  # atno 6909 bound_to 6896
  145.7308  140.8998  143.0581 H   0  0  0  0  0  0  0  0  0  0  0  0  # atno 7974 bound_to 7965
  154.6650  140.2599  155.7067 H   0  0  0  0  0  0  0  0  0  0  0  0  # atno 8008 bound_to 7997
  156.2635  140.2841  156.1059 H   0  0  0  0  0  0  0  0  0  0  0  0  # atno 8009 bound_to 7997
  155.1251  140.0377  157.2750 H   0  0  0  0  0  0  0  0  0  0  0  0  # atno 8010 bound_to 7997
  139.7351  144.7026  151.0661 H   0  0  0  0  0  0  0  0  0  0  0  0  # atno 10167 bound_to 10162
  156.6051  130.8827  151.2923 H   0  0  0  0  0  0  0  0  0  0  0  0  # atno 10718 bound_to 10713
  154.1509  135.6490  153.4963 H   0  0  0  0  0  0  0  0  0  0  0  0  # atno 10763 bound_to 10752
  153.0138  135.5338  154.6809 H   0  0  0  0  0  0  0  0  0  0  0  0  # atno 10764 bound_to 10752
  154.6096  135.2952  155.0418 H   0  0  0  0  0  0  0  0  0  0  0  0  # atno 10765 bound_to 10752
  140.9423  134.1177  157.4139 H   0  0  0  0  0  0  0  0  0  0  0  0  # atno 11005 bound_to 11000
  144.6893  139.9328  143.7472 LP  0  0  0  0  0  0  0  0  0  0  0  0  # atno 17320 bound_to 7965
  146.0539  139.3538  143.0622 LP  0  0  0  0  0  0  0  0  0  0  0  0  # atno 17321 bound_to 7965
  140.7777  143.4994  150.9791 LP  0  0  0  0  0  0  0  0  0  0  0  0  # atno 17342 bound_to 10162
  139.8682  143.7226  152.3168 LP  0  0  0  0  0  0  0  0  0  0  0  0  # atno 17343 bound_to 10162
  157.7269  130.9636  150.1677 LP  0  0  0  0  0  0  0  0  0  0  0  0  # atno 17370 bound_to 10713
  156.2437  130.3693  149.8309 LP  0  0  0  0  0  0  0  0  0  0  0  0  # atno 17371 bound_to 10713
  139.8824  135.0040  156.6224 LP  0  0  0  0  0  0  0  0  0  0  0  0  # atno 17394 bound_to 11000
  140.7717  133.8733  155.8497 LP  0  0  0  0  0  0  0  0  0  0  0  0  # atno 17395 bound_to 11000

$$$$
