AV-unprocessed.smi:1903|AV-procd|sdf|7722|dock2
  -GOLD-   22720 9463D 1   1.00000     0.00000
 Structure written by MMmdl.
 47 48  0  0  0  0  0  0  0  0  2 V2000
  153.3800  142.6352  162.5755 C   0  0  0  0  0  0  0  0  0  0  0  0
  152.6294  143.1625  161.3860 C   0  0  0  0  0  0  0  0  0  0  0  0
  151.5414  143.8905  161.5747 N   0  0  0  0  0  0  0  0  0  0  0  0
  151.1152  144.2005  160.3341 N   0  0  0  0  0  0  0  0  0  0  0  0
  149.9225  145.0094  160.1731 C   0  0  0  0  0  0  0  0  0  0  0  0
  151.9357  143.6675  159.3592 C   0  0  0  0  0  0  0  0  0  0  0  0
  151.6747  143.8757  157.9021 C   0  0  0  0  0  0  0  0  0  0  0  0
  152.9333  142.9854  160.0042 C   0  0  0  0  0  0  0  0  0  0  0  0
  154.0918  142.2202  159.4156 C   0  0  0  0  0  0  0  0  0  0  0  0
  153.8057  140.7197  159.4787 C   0  0  0  0  0  0  0  0  0  0  0  0
  153.2588  140.1555  158.5314 O   0  0  0  0  0  0  0  0  0  0  0  0
  154.1789  140.0838  160.6003 N   0  0  0  0  0  0  0  0  0  0  0  0
  153.9693  138.6663  160.8679 C   0  0  0  0  0  0  0  0  0  0  0  0
  155.2600  137.9858  161.3639 C   0  0  0  0  0  0  0  0  0  0  0  0
  154.9857  136.8076  162.2250 N   0  3  0  0  0  0  0  0  0  0  0  0
  155.7755  135.6169  161.8139 C   0  0  0  0  0  0  0  0  0  0  0  0
  155.3787  134.3741  162.6285 C   0  0  0  0  0  0  0  0  0  0  0  0
  155.5288  134.6316  164.1329 C   0  0  0  0  0  0  0  0  0  0  0  0
  154.7309  135.8797  164.5299 C   0  0  0  0  0  0  0  0  0  0  0  0
  155.1418  137.0919  163.6771 C   0  0  0  0  0  0  0  0  0  0  0  0
  154.4379  142.8902  162.5131 H   0  0  0  0  0  0  0  0  0  0  0  0
  153.3034  141.5493  162.6327 H   0  0  0  0  0  0  0  0  0  0  0  0
  152.9972  143.0445  163.5112 H   0  0  0  0  0  0  0  0  0  0  0  0
  149.2115  144.4919  159.5287 H   0  0  0  0  0  0  0  0  0  0  0  0
  150.1873  145.9644  159.7188 H   0  0  0  0  0  0  0  0  0  0  0  0
  149.4500  145.1960  161.1384 H   0  0  0  0  0  0  0  0  0  0  0  0
  152.4325  143.3893  157.2883 H   0  0  0  0  0  0  0  0  0  0  0  0
  151.6789  144.9378  157.6567 H   0  0  0  0  0  0  0  0  0  0  0  0
  150.7042  143.4667  157.6203 H   0  0  0  0  0  0  0  0  0  0  0  0
  154.2643  142.5038  158.3767 H   0  0  0  0  0  0  0  0  0  0  0  0
  155.0238  142.4318  159.9407 H   0  0  0  0  0  0  0  0  0  0  0  0
  154.6177  140.6285  161.3288 H   0  0  0  0  0  0  0  0  0  0  0  0
  153.1793  138.5957  161.6145 H   0  0  0  0  0  0  0  0  0  0  0  0
  153.5943  138.1700  159.9711 H   0  0  0  0  0  0  0  0  0  0  0  0
  155.8307  137.6604  160.4931 H   0  0  0  0  0  0  0  0  0  0  0  0
  155.8937  138.6956  161.8979 H   0  0  0  0  0  0  0  0  0  0  0  0
  155.6118  135.4133  160.7547 H   0  0  0  0  0  0  0  0  0  0  0  0
  156.8399  135.8244  161.9364 H   0  0  0  0  0  0  0  0  0  0  0  0
  154.3462  134.1031  162.4043 H   0  0  0  0  0  0  0  0  0  0  0  0
  155.9930  133.5226  162.3334 H   0  0  0  0  0  0  0  0  0  0  0  0
  155.1854  133.7665  164.7009 H   0  0  0  0  0  0  0  0  0  0  0  0
  156.5817  134.7715  164.3813 H   0  0  0  0  0  0  0  0  0  0  0  0
  153.6644  135.6884  164.4051 H   0  0  0  0  0  0  0  0  0  0  0  0
  154.8835  136.0990  165.5869 H   0  0  0  0  0  0  0  0  0  0  0  0
  156.1779  137.3623  163.8863 H   0  0  0  0  0  0  0  0  0  0  0  0
  154.5298  137.9452  163.9662 H   0  0  0  0  0  0  0  0  0  0  0  0
  154.0168  136.5646  162.0743 H   0  0  0  0  0  0  0  0  0  0  0  0
  1  2  1  0  0  0  0
  1 21  1  0  0  0  0
  1 22  1  0  0  0  0
  1 23  1  0  0  0  0
  2  8  1  0  0  0  0
  2  3  2  0  0  0  0
  3  4  1  0  0  0  0
  4  5  1  0  0  0  0
  4  6  1  0  0  0  0
  5 24  1  0  0  0  0
  5 25  1  0  0  0  0
  5 26  1  0  0  0  0
  6  7  1  0  0  0  0
  6  8  2  0  0  0  0
  7 27  1  0  0  0  0
  7 28  1  0  0  0  0
  7 29  1  0  0  0  0
  8  9  1  0  0  0  0
  9 10  1  0  0  0  0
  9 30  1  0  0  0  0
  9 31  1  0  0  0  0
 10 11  2  0  0  0  0
 10 12  1  0  0  0  0
 12 13  1  0  0  0  0
 12 32  1  0  0  0  0
 13 14  1  0  0  0  0
 13 33  1  0  0  0  0
 13 34  1  0  0  0  0
 14 15  1  0  0  0  0
 14 35  1  0  0  0  0
 14 36  1  0  0  0  0
 15 20  1  0  0  0  0
 15 16  1  0  0  0  0
 15 47  1  0  0  0  0
 16 17  1  0  0  0  0
 16 37  1  0  0  0  0
 16 38  1  0  0  0  0
 17 18  1  0  0  0  0
 17 39  1  0  0  0  0
 17 40  1  0  0  0  0
 18 19  1  0  0  0  0
 18 41  1  0  0  0  0
 18 42  1  0  0  0  0
 19 20  1  0  0  0  0
 19 43  1  0  0  0  0
 19 44  1  0  0  0  0
 20 45  1  0  0  0  0
 20 46  1  0  0  0  0
M  CHG  1  15   1
M  END
> <s_m_source_file>
AV-unprocessed.smi

> <i_m_source_file_index>
1903

> <i_lp_mmshare_version>
43012

> <i_f3d_flags>
0

> <s_epik_input>
W0NIM11jMW5uKFtDSDNdKWMoW0NIM10pYzFbQ0gyXUMoPU8pW05IXVtDSDJdW0NIMl1OMltDSDJdW0NIMl1bQ0gyXVtDSDJdW0NIMl0y

> <s_epik_cmdline>
J2VwaWtfcHl0aG9uJywgJy1waCcsICc3LjAnLCAnLXRuJywgJzgnLCAnLW1hJywgJzIwMCcsICctbWV0YWxfYmluZGluZycsICctaW1hZScsICc8aW5maWxlLm1hZT4nLCAnLW9tYWUnLCAnPG91dGZpbGUubWFlPic=

> <r_lp_tautomer_probability>
1

> <r_epik_Ionization_Penalty>
0.00456445

> <r_epik_Ionization_Penalty_Charging>
0.00240401

> <r_epik_Ionization_Penalty_Neutral>
0.00216044

> <r_epik_State_Penalty>
-0

> <r_epik_Charging_Adjusted_Penalty>
0.00240401

> <i_epik_Tot_Q>
1

> <i_epik_Tot_abs_Q>
1

> <r_epik_Metal_State_Penalty>
-0

> <b_epik_Metal_Only>
0

> <s_lp_Force_Field>
OPLS_2005

> <r_lp_Energy>
10.8117

> <b_lp_Chiralities_Consistent>
1

> <s_lp_Variant>
AV-unprocessed.smi:1903-1

> <Gold.Version>
5.8.1

> <Gold.Id.Protein>
6NUR|6NUR_protein|mol2

> <Gold.PLP.Fitness>
45.6656

> <Gold.PLP.PLP>
-45.5147

> <Gold.PLP.part.hbond>
-1.2345

> <Gold.PLP.part.metal>
0.0000

> <Gold.PLP.part.buried>
-4.8769

> <Gold.PLP.part.nonpolar>
-39.3140

> <Gold.PLP.part.repulsive>
0.2453

> <Gold.PLP.ligand.clash>
0.0000

> <Gold.PLP.ligand.torsion>
1.4596

> <Gold.PLP.Chemscore.Hbond>
0.9920

> <Gold.PLP.Chemscore.CHOScore>
0.0000

> <Gold.PLP.Chemscore.Metal>
0.0000

> <Gold.Chemscore.Hbonds>
donor molecule, donor type, donor heavy atom, donor atom, acceptor molecule, acceptor atom, score
      P1  H  7997  8010       L1    11  0.98

> <Gold.PLP.Chemscore.Internal.Correction>
0.0942

> <Gold.Rescore>
     Score         DG    S(hbond)    S(metal)    S(lipo)     H(rot)  DE(clash)    DE(int)     intcor
     17.93     -19.63       0.91        0.00     130.95       1.65       0.44       1.27       ----

> <Gold.Chemscore.Fitness>
17.9274

> <Gold.Chemscore.DG>
-19.6338

> <Gold.Chemscore.ZeroCoef>
-5.4800

> <Gold.Chemscore.Hbond>
0.9126

> <Gold.Chemscore.Metal>
0.0000

> <Gold.Chemscore.Lipo>
130.9495

> <Gold.Chemscore.Internal_Hbond>
0.0000

> <Gold.Chemscore.DEClash>
0.4393

> <Gold.Chemscore.DEInternal>
1.2671

> <Gold.Chemscore.Rot>
1.6467

> <Gold.Chemscore.Internal.Correction>
   9.000000E+99

> <Gold.Chemscore.Hbonds>
donor molecule, donor type, donor heavy atom, donor atom, acceptor molecule, acceptor atom, score
      P1  H  7997  8010       L1    11  0.45

> <Gold.Chemscore.Hbond.Weighted>
-3.0482

> <Gold.Chemscore.Metal.Weighted>
-0.0000

> <Gold.Chemscore.Lipo.Weighted>
-15.3211

> <Gold.Chemscore.Internal_Hbond.Weighted>
0.0000

> <Gold.Chemscore.DEClash.Weighted>
0.4393

> <Gold.Chemscore.DEInternal.Weighted>
1.2671

> <Gold.Chemscore.Rot.Weighted>
4.2155

> <Gold.Chemscore.Internal.Correction.Weighted>
   9.000000E+99

> <Gold.Protein.RotatedTorsions>
[ 6907 6896 6895 6894 ] final  -83.75 input  -60.11 | X-H torsion
[ 7974 7965 7964 7962 ] final  -73.48 input  175.53 | X-H torsion
[ 8008 7997 7996 7995 ] final   28.62 input   59.86 | X-H torsion
[ 10167 10162 10161 10158 ] final   56.62 input  -65.29 | X-H torsion
[ 10718 10713 10712 10709 ] final  179.67 input   66.30 | X-H torsion
[ 10763 10752 10751 10750 ] final -114.84 input  -60.55 | X-H torsion
[ 11005 11000 10999 10996 ] final  -54.80 input  -57.11 | X-H torsion

> <Gold.Protein.ActiveResidues>
 VAL166  LYS551  ARG553  GLY616  TRP617  ASP618  TYR619  PRO620  LYS621  CYS622 
 ASP623  PHE694  ASN695  SER759  ASP760  ASP761  ALA762  ILE779  LEU786  VAL792 
 PHE793  MET794  SER795  GLU796  ALA797  LYS798  CYS799  TRP800  GLU811  SER814 

> <Gold.Protein.RotatedAtoms>
  150.6882  134.3464  159.4889 H   0  0  0  0  0  0  0  0  0  0  0  0  # atno 6907 bound_to 6896
  152.1311  134.9131  160.0568 H   0  0  0  0  0  0  0  0  0  0  0  0  # atno 6908 bound_to 6896
  152.0301  133.3899  159.4330 H   0  0  0  0  0  0  0  0  0  0  0  0  # atno 6909 bound_to 6896
  145.6516  140.9281  143.0982 H   0  0  0  0  0  0  0  0  0  0  0  0  # atno 7974 bound_to 7965
  155.0615  140.3190  155.4659 H   0  0  0  0  0  0  0  0  0  0  0  0  # atno 8008 bound_to 7997
  156.2812  140.2128  156.5687 H   0  0  0  0  0  0  0  0  0  0  0  0  # atno 8009 bound_to 7997
  154.7128  140.0496  157.0553 H   0  0  0  0  0  0  0  0  0  0  0  0  # atno 8010 bound_to 7997
  140.2067  144.3931  150.6506 H   0  0  0  0  0  0  0  0  0  0  0  0  # atno 10167 bound_to 10162
  156.8724  130.9788  151.3072 H   0  0  0  0  0  0  0  0  0  0  0  0  # atno 10718 bound_to 10713
  154.8457  135.4403  154.1569 H   0  0  0  0  0  0  0  0  0  0  0  0  # atno 10763 bound_to 10752
  153.2715  135.6945  153.7481 H   0  0  0  0  0  0  0  0  0  0  0  0  # atno 10764 bound_to 10752
  153.6720  135.3417  155.3131 H   0  0  0  0  0  0  0  0  0  0  0  0  # atno 10765 bound_to 10752
  141.1043  133.6615  156.4375 H   0  0  0  0  0  0  0  0  0  0  0  0  # atno 11005 bound_to 11000
  144.7120  139.8334  143.7411 LP  0  0  0  0  0  0  0  0  0  0  0  0  # atno 17320 bound_to 7965
  146.1199  139.4215  143.0235 LP  0  0  0  0  0  0  0  0  0  0  0  0  # atno 17321 bound_to 7965
  140.6352  143.2194  151.6410 LP  0  0  0  0  0  0  0  0  0  0  0  0  # atno 17342 bound_to 10162
  139.5196  144.3249  152.0877 LP  0  0  0  0  0  0  0  0  0  0  0  0  # atno 17343 bound_to 10162
  157.6188  130.8639  149.9073 LP  0  0  0  0  0  0  0  0  0  0  0  0  # atno 17370 bound_to 10713
  156.0720  130.3684  150.0757 LP  0  0  0  0  0  0  0  0  0  0  0  0  # atno 17371 bound_to 10713
  140.4942  134.6547  157.5223 LP  0  0  0  0  0  0  0  0  0  0  0  0  # atno 17394 bound_to 11000
  139.9907  134.6990  155.9695 LP  0  0  0  0  0  0  0  0  0  0  0  0  # atno 17395 bound_to 11000

$$$$
