AV-unprocessed.smi:3350|AV-procd|sdf|12939|dock3
  -GOLD-   2272019373D 1   1.00000     0.00000
 Structure written by MMmdl.
 41 42  0  0  0  0  0  0  0  0  1 V2000
  146.8926  142.4321  153.9700 C   0  0  0  0  0  0  0  0  0  0  0  0
  147.1736  140.9798  154.3780 C   0  0  2  0  0  0  0  0  0  0  0  0
  148.5703  140.5218  153.9103 C   0  0  0  0  0  0  0  0  0  0  0  0
  149.5980  140.7645  154.9073 N   0  0  0  0  0  0  0  0  0  0  0  0
  149.6285  141.7349  155.8864 C   0  0  0  0  0  0  0  0  0  0  0  0
  150.7846  141.5630  156.5924 C   0  0  0  0  0  0  0  0  0  0  0  0
  151.4035  140.4480  155.9612 C   0  0  0  0  0  0  0  0  0  0  0  0
  150.6931  139.9745  154.9504 N   0  0  0  0  0  0  0  0  0  0  0  0
  146.1320  140.1202  153.8172 N   0  0  0  0  0  0  0  0  0  0  0  0
  146.1629  138.7805  153.7752 C   0  0  0  0  0  0  0  0  0  0  0  0
  147.0848  138.0946  154.2172 O   0  0  0  0  0  0  0  0  0  0  0  0
  145.0629  138.2813  153.1951 N   0  0  0  0  0  0  0  0  0  0  0  0
  144.7541  136.8611  153.0376 C   0  0  2  0  0  0  0  0  0  0  0  0
  145.5635  136.2939  151.8627 C   0  0  0  0  0  0  0  0  0  0  0  0
  143.2365  136.6278  152.8604 C   0  0  2  0  0  0  0  0  0  0  0  0
  142.3246  137.2686  153.9168 C   0  0  0  0  0  0  0  0  0  0  0  0
  141.1488  136.3188  153.9339 C   0  0  0  0  0  0  0  0  0  0  0  0
  141.8476  134.9762  153.7609 C   0  0  0  0  0  0  0  0  0  0  0  0
  142.9309  135.2333  152.8743 O   0  0  0  0  0  0  0  0  0  0  0  0
  147.6321  143.1095  154.3977 H   0  0  0  0  0  0  0  0  0  0  0  0
  145.9109  142.7549  154.3187 H   0  0  0  0  0  0  0  0  0  0  0  0
  146.9180  142.5529  152.8865 H   0  0  0  0  0  0  0  0  0  0  0  0
  147.1438  140.9410  155.4685 H   0  0  0  0  0  0  0  0  0  0  0  0
  148.5615  139.4611  153.6533 H   0  0  0  0  0  0  0  0  0  0  0  0
  148.8547  141.0578  153.0040 H   0  0  0  0  0  0  0  0  0  0  0  0
  148.8314  142.4548  156.0008 H   0  0  0  0  0  0  0  0  0  0  0  0
  151.1339  142.1433  157.4332 H   0  0  0  0  0  0  0  0  0  0  0  0
  152.3420  139.9728  156.2052 H   0  0  0  0  0  0  0  0  0  0  0  0
  145.3283  140.5849  153.4211 H   0  0  0  0  0  0  0  0  0  0  0  0
  144.3700  138.9337  152.8589 H   0  0  0  0  0  0  0  0  0  0  0  0
  145.0748  136.3231  153.9315 H   0  0  0  0  0  0  0  0  0  0  0  0
  145.3714  135.2285  151.7330 H   0  0  0  0  0  0  0  0  0  0  0  0
  146.6342  136.4166  152.0294 H   0  0  0  0  0  0  0  0  0  0  0  0
  145.3137  136.7932  150.9259 H   0  0  0  0  0  0  0  0  0  0  0  0
  142.9331  136.9908  151.8773 H   0  0  0  0  0  0  0  0  0  0  0  0
  142.7927  137.2804  154.9012 H   0  0  0  0  0  0  0  0  0  0  0  0
  142.0420  138.2915  153.6664 H   0  0  0  0  0  0  0  0  0  0  0  0
  140.5600  136.3801  154.8493 H   0  0  0  0  0  0  0  0  0  0  0  0
  140.4911  136.5148  153.0861 H   0  0  0  0  0  0  0  0  0  0  0  0
  142.2521  134.6326  154.7142 H   0  0  0  0  0  0  0  0  0  0  0  0
  141.1852  134.2022  153.3728 H   0  0  0  0  0  0  0  0  0  0  0  0
  1  2  1  0  0  0  0
  1 20  1  0  0  0  0
  1 21  1  0  0  0  0
  1 22  1  0  0  0  0
  2  3  1  0  0  0  0
  2  9  1  0  0  0  0
  2 23  1  0  0  0  0
  3  4  1  0  0  0  0
  3 24  1  0  0  0  0
  3 25  1  0  0  0  0
  4  8  1  0  0  0  0
  4  5  1  0  0  0  0
  5  6  2  0  0  0  0
  5 26  1  0  0  0  0
  6  7  1  0  0  0  0
  6 27  1  0  0  0  0
  7  8  2  0  0  0  0
  7 28  1  0  0  0  0
  9 10  1  0  0  0  0
  9 29  1  0  0  0  0
 10 11  2  0  0  0  0
 10 12  1  0  0  0  0
 12 13  1  0  0  0  0
 12 30  1  0  0  0  0
 13 14  1  0  0  0  0
 13 15  1  0  0  0  0
 13 31  1  0  0  0  0
 14 32  1  0  0  0  0
 14 33  1  0  0  0  0
 14 34  1  0  0  0  0
 15 19  1  0  0  0  0
 15 16  1  0  0  0  0
 15 35  1  0  0  0  0
 16 17  1  0  0  0  0
 16 36  1  0  0  0  0
 16 37  1  0  0  0  0
 17 18  1  0  0  0  0
 17 38  1  0  0  0  0
 17 39  1  0  0  0  0
 18 19  1  0  0  0  0
 18 40  1  0  0  0  0
 18 41  1  0  0  0  0
M  END
> <s_m_source_file>
AV-unprocessed.smi

> <i_m_source_file_index>
3350

> <i_lp_mmshare_version>
43012

> <i_f3d_flags>
0

> <s_epik_input>
bjFbY0hdW2NIXVtjSF1uMVtDSDJdW0NAQEhdKFtDSDNdKVtOSF1DKD1PKVtOSF1bQ0BIXShbQ0gzXSlbQ0BASF0yW0NIMl1bQ0gyXVtDSDJdTzI=

> <s_epik_cmdline>
J2VwaWtfcHl0aG9uJywgJy1waCcsICc3LjAnLCAnLXRuJywgJzgnLCAnLW1hJywgJzIwMCcsICctbWV0YWxfYmluZGluZycsICctaW1hZScsICc8aW5maWxlLm1hZT4nLCAnLW9tYWUnLCAnPG91dGZpbGUubWFlPic=

> <r_lp_tautomer_probability>
1

> <r_epik_Ionization_Penalty>
6.42349e-05

> <r_epik_Ionization_Penalty_Charging>
0

> <r_epik_Ionization_Penalty_Neutral>
6.42349e-05

> <r_epik_State_Penalty>
-0

> <r_epik_Charging_Adjusted_Penalty>
0

> <i_epik_Tot_Q>
0

> <i_epik_Tot_abs_Q>
0

> <r_epik_Metal_State_Penalty>
-0

> <b_epik_Metal_Only>
0

> <s_lp_Force_Field>
OPLS_2005

> <r_lp_Energy>
17.0585

> <b_lp_Chiralities_Consistent>
1

> <s_lp_Variant>
AV-unprocessed.smi:3350-1

> <Gold.Version>
5.8.1

> <Gold.Id.Protein>
6NUR|6NUR_protein|mol2

> <Gold.PLP.Fitness>
43.5611

> <Gold.PLP.PLP>
-34.3978

> <Gold.PLP.part.hbond>
-3.0000

> <Gold.PLP.part.metal>
0.0000

> <Gold.PLP.part.buried>
-2.0793

> <Gold.PLP.part.nonpolar>
-30.2760

> <Gold.PLP.part.repulsive>
0.4169

> <Gold.PLP.ligand.clash>
0.0000

> <Gold.PLP.ligand.torsion>
1.2555

> <Gold.PLP.Chemscore.Hbond>
2.9920

> <Gold.PLP.Chemscore.CHOScore>
0.8865

> <Gold.PLP.Chemscore.Metal>
0.0000

> <Gold.Chemscore.Hbonds>
donor molecule, donor type, donor heavy atom, donor atom, acceptor molecule, acceptor atom, score
      L1  H     9    29       P1 10175  0.99
      L1  H    12    30       P1 10175  1.00
      P1  H  7989  7998       L1     8  0.72
      L1  C     5    26       P1  8028  0.99

> <Gold.PLP.Chemscore.Internal.Correction>
0.0388

> <Gold.Rescore>
     Score         DG    S(hbond)    S(metal)    S(lipo)     H(rot)  DE(clash)    DE(int)     intcor
     15.19     -17.80       2.68        0.00      68.62       1.82       0.20       2.42       ----

> <Gold.Chemscore.Fitness>
15.1855

> <Gold.Chemscore.DG>
-17.8030

> <Gold.Chemscore.ZeroCoef>
-5.4800

> <Gold.Chemscore.Hbond>
2.6804

> <Gold.Chemscore.Metal>
0.0000

> <Gold.Chemscore.Lipo>
68.6216

> <Gold.Chemscore.Internal_Hbond>
0.0000

> <Gold.Chemscore.DEClash>
0.1993

> <Gold.Chemscore.DEInternal>
2.4182

> <Gold.Chemscore.Rot>
1.8197

> <Gold.Chemscore.Internal.Correction>
   9.000000E+99

> <Gold.Chemscore.Hbonds>
donor molecule, donor type, donor heavy atom, donor atom, acceptor molecule, acceptor atom, score
      L1  H     9    29       P1 10175  0.90
      L1  H    12    30       P1 10175  0.99
      P1  H  7989  7998       L1     8  0.02

> <Gold.Chemscore.Hbond.Weighted>
-8.9526

> <Gold.Chemscore.Metal.Weighted>
-0.0000

> <Gold.Chemscore.Lipo.Weighted>
-8.0287

> <Gold.Chemscore.Internal_Hbond.Weighted>
0.0000

> <Gold.Chemscore.DEClash.Weighted>
0.1993

> <Gold.Chemscore.DEInternal.Weighted>
2.4182

> <Gold.Chemscore.Rot.Weighted>
4.6583

> <Gold.Chemscore.Internal.Correction.Weighted>
   9.000000E+99

> <Gold.Protein.RotatedTorsions>
[ 6907 6896 6895 6894 ] final -168.12 input  -60.11 | X-H torsion
[ 7974 7965 7964 7962 ] final  -23.84 input  175.53 | X-H torsion
[ 8008 7997 7996 7995 ] final  106.30 input   59.86 | X-H torsion
[ 10167 10162 10161 10158 ] final -101.04 input  -65.29 | X-H torsion
[ 10718 10713 10712 10709 ] final  -21.37 input   66.30 | X-H torsion
[ 10763 10752 10751 10750 ] final  -74.42 input  -60.55 | X-H torsion
[ 11005 11000 10999 10996 ] final   33.43 input  -57.11 | X-H torsion

> <Gold.Protein.ActiveResidues>
 VAL166  LYS551  ARG553  GLY616  TRP617  ASP618  TYR619  PRO620  LYS621  CYS622 
 ASP623  PHE694  ASN695  SER759  ASP760  ASP761  ALA762  ILE779  LEU786  VAL792 
 PHE793  MET794  SER795  GLU796  ALA797  LYS798  CYS799  TRP800  GLU811  SER814 

> <Gold.Protein.RotatedAtoms>
  151.4704  133.3570  159.2822 H   0  0  0  0  0  0  0  0  0  0  0  0  # atno 6907 bound_to 6896
  150.8964  134.8375  159.7340 H   0  0  0  0  0  0  0  0  0  0  0  0  # atno 6908 bound_to 6896
  152.4854  134.4620  159.9660 H   0  0  0  0  0  0  0  0  0  0  0  0  # atno 6909 bound_to 6896
  146.1592  140.4670  142.8579 H   0  0  0  0  0  0  0  0  0  0  0  0  # atno 7974 bound_to 7965
  156.1731  140.3115  155.9010 H   0  0  0  0  0  0  0  0  0  0  0  0  # atno 8008 bound_to 7997
  155.3545  140.0473  157.3063 H   0  0  0  0  0  0  0  0  0  0  0  0  # atno 8009 bound_to 7997
  154.5262  140.2215  155.8897 H   0  0  0  0  0  0  0  0  0  0  0  0  # atno 8010 bound_to 7997
  140.2455  143.3509  152.0763 H   0  0  0  0  0  0  0  0  0  0  0  0  # atno 10167 bound_to 10162
  156.5191  130.4628  149.6606 H   0  0  0  0  0  0  0  0  0  0  0  0  # atno 10718 bound_to 10713
  154.4728  135.5865  153.6334 H   0  0  0  0  0  0  0  0  0  0  0  0  # atno 10763 bound_to 10752
  152.9837  135.6071  154.3345 H   0  0  0  0  0  0  0  0  0  0  0  0  # atno 10764 bound_to 10752
  154.3228  135.2843  155.2490 H   0  0  0  0  0  0  0  0  0  0  0  0  # atno 10765 bound_to 10752
  140.2632  134.3168  155.7851 H   0  0  0  0  0  0  0  0  0  0  0  0  # atno 11005 bound_to 11000
  144.8003  140.6201  143.6482 LP  0  0  0  0  0  0  0  0  0  0  0  0  # atno 17320 bound_to 7965
  145.4632  139.1510  143.3855 LP  0  0  0  0  0  0  0  0  0  0  0  0  # atno 17321 bound_to 7965
  139.5063  144.6811  151.6005 LP  0  0  0  0  0  0  0  0  0  0  0  0  # atno 17342 bound_to 10162
  140.6081  143.9487  150.6433 LP  0  0  0  0  0  0  0  0  0  0  0  0  # atno 17343 bound_to 10162
  156.3167  130.7258  151.2162 LP  0  0  0  0  0  0  0  0  0  0  0  0  # atno 17370 bound_to 10713
  157.7439  131.0467  150.4905 LP  0  0  0  0  0  0  0  0  0  0  0  0  # atno 17371 bound_to 10713
  141.2187  133.7422  156.9219 LP  0  0  0  0  0  0  0  0  0  0  0  0  # atno 17394 bound_to 11000
  140.1445  134.9272  157.2511 LP  0  0  0  0  0  0  0  0  0  0  0  0  # atno 17395 bound_to 11000

$$$$
