AV-unprocessed.smi:2083|AV-procd|sdf|8491|dock2
  -GOLD-   2272011193D 1   1.00000     0.00000
 Structure written by MMmdl.
 45 46  0  0  0  0  0  0  0  0  2 V2000
  150.2173  141.4486  156.0302 C   0  0  0  0  0  0  0  0  0  0  0  0
  150.4447  140.1126  155.4104 C   0  0  0  0  0  0  0  0  0  0  0  0
  149.6392  139.0249  155.2223 C   0  0  0  0  0  0  0  0  0  0  0  0
  150.4966  138.1014  154.5677 C   0  0  0  0  0  0  0  0  0  0  0  0
  150.0294  136.8165  154.1902 N   0  0  0  0  0  0  0  0  0  0  0  0
  149.9096  135.7286  154.9697 C   0  0  0  0  0  0  0  0  0  0  0  0
  150.2117  135.6734  156.1621 O   0  0  0  0  0  0  0  0  0  0  0  0
  149.4196  134.6864  154.2819 N   0  0  0  0  0  0  0  0  0  0  0  0
  149.1427  133.3633  154.8357 C   0  0  0  0  0  0  0  0  0  0  0  0
  149.3976  132.2266  153.8124 C   0  0  1  0  0  0  0  0  0  0  0  0
  149.8706  130.9115  154.4619 C   0  0  0  0  0  0  0  0  0  0  0  0
  148.2300  131.9727  152.9180 N   0  3  1  0  0  0  0  0  0  0  0  0
  147.2420  130.9804  153.4225 C   0  0  0  0  0  0  0  0  0  0  0  0
  146.2346  130.6150  152.3217 C   0  0  0  0  0  0  0  0  0  0  0  0
  145.5249  131.8692  151.7936 C   0  0  0  0  0  0  0  0  0  0  0  0
  146.5542  132.9080  151.3150 C   0  0  1  0  0  0  0  0  0  0  0  0
  145.8686  134.1865  150.8123 C   0  0  0  0  0  0  0  0  0  0  0  0
  147.5670  133.2145  152.4372 C   0  0  0  0  0  0  0  0  0  0  0  0
  151.7157  138.5809  154.3745 N   0  0  0  0  0  0  0  0  0  0  0  0
  151.6887  139.8724  154.9140 O   0  0  0  0  0  0  0  0  0  0  0  0
  149.1793  141.5613  156.3441 H   0  0  0  0  0  0  0  0  0  0  0  0
  150.4451  142.2463  155.3230 H   0  0  0  0  0  0  0  0  0  0  0  0
  150.8517  141.5811  156.9066 H   0  0  0  0  0  0  0  0  0  0  0  0
  148.6039  138.9120  155.5076 H   0  0  0  0  0  0  0  0  0  0  0  0
  149.7507  136.7192  153.2253 H   0  0  0  0  0  0  0  0  0  0  0  0
  149.2029  134.8240  153.3054 H   0  0  0  0  0  0  0  0  0  0  0  0
  149.7287  133.2116  155.7429 H   0  0  0  0  0  0  0  0  0  0  0  0
  148.0986  133.3628  155.1479 H   0  0  0  0  0  0  0  0  0  0  0  0
  150.2193  132.5451  153.1692 H   0  0  0  0  0  0  0  0  0  0  0  0
  150.8443  131.0314  154.9365 H   0  0  0  0  0  0  0  0  0  0  0  0
  149.9752  130.1209  153.7181 H   0  0  0  0  0  0  0  0  0  0  0  0
  149.1778  130.5617  155.2272 H   0  0  0  0  0  0  0  0  0  0  0  0
  147.7453  130.0747  153.7593 H   0  0  0  0  0  0  0  0  0  0  0  0
  146.7065  131.3868  154.2813 H   0  0  0  0  0  0  0  0  0  0  0  0
  146.7504  130.1110  151.5032 H   0  0  0  0  0  0  0  0  0  0  0  0
  145.5007  129.9071  152.7081 H   0  0  0  0  0  0  0  0  0  0  0  0
  144.8523  131.5995  150.9786 H   0  0  0  0  0  0  0  0  0  0  0  0
  144.9031  132.2962  152.5818 H   0  0  0  0  0  0  0  0  0  0  0  0
  147.1023  132.4779  150.4750 H   0  0  0  0  0  0  0  0  0  0  0  0
  145.2999  134.6711  151.6066 H   0  0  0  0  0  0  0  0  0  0  0  0
  145.1794  133.9676  149.9962 H   0  0  0  0  0  0  0  0  0  0  0  0
  146.5994  134.9053  150.4404 H   0  0  0  0  0  0  0  0  0  0  0  0
  147.0651  133.7119  153.2681 H   0  0  0  0  0  0  0  0  0  0  0  0
  148.3186  133.9088  152.0594 H   0  0  0  0  0  0  0  0  0  0  0  0
  148.6304  131.5563  152.0894 H   0  0  0  0  0  0  0  0  0  0  0  0
  1  2  1  0  0  0  0
  1 21  1  0  0  0  0
  1 22  1  0  0  0  0
  1 23  1  0  0  0  0
  2 20  1  0  0  0  0
  2  3  2  0  0  0  0
  3  4  1  0  0  0  0
  3 24  1  0  0  0  0
  4  5  1  0  0  0  0
  4 19  2  0  0  0  0
  5  6  1  0  0  0  0
  5 25  1  0  0  0  0
  6  7  2  0  0  0  0
  6  8  1  0  0  0  0
  8  9  1  0  0  0  0
  8 26  1  0  0  0  0
  9 10  1  0  0  0  0
  9 27  1  0  0  0  0
  9 28  1  0  0  0  0
 10 11  1  0  0  0  0
 10 12  1  0  0  0  0
 10 29  1  0  0  0  0
 11 30  1  0  0  0  0
 11 31  1  0  0  0  0
 11 32  1  0  0  0  0
 12 18  1  0  0  0  0
 12 13  1  0  0  0  0
 12 45  1  0  0  0  0
 13 14  1  0  0  0  0
 13 33  1  0  0  0  0
 13 34  1  0  0  0  0
 14 15  1  0  0  0  0
 14 35  1  0  0  0  0
 14 36  1  0  0  0  0
 15 16  1  0  0  0  0
 15 37  1  0  0  0  0
 15 38  1  0  0  0  0
 16 17  1  0  0  0  0
 16 18  1  0  0  0  0
 16 39  1  0  0  0  0
 17 40  1  0  0  0  0
 17 41  1  0  0  0  0
 17 42  1  0  0  0  0
 18 43  1  0  0  0  0
 18 44  1  0  0  0  0
 19 20  1  0  0  0  0
M  CHG  1  12   1
M  END
> <s_m_source_file>
AV-unprocessed.smi

> <i_m_source_file_index>
2083

> <i_lp_mmshare_version>
43012

> <i_f3d_flags>
0

> <s_epik_input>
W0NIM11jMVtjSF1jKG5vMSlbTkhdQyg9TylbTkhdW0NIMl1bQ0BIXShbQ0gzXSlOMltDSDJdW0NIMl1bQ0gyXVtDQEBIXShbQ0gzXSlbQ0gyXTI=

> <s_epik_cmdline>
J2VwaWtfcHl0aG9uJywgJy1waCcsICc3LjAnLCAnLXRuJywgJzgnLCAnLW1hJywgJzIwMCcsICctbWV0YWxfYmluZGluZycsICctaW1hZScsICc8aW5maWxlLm1hZT4nLCAnLW9tYWUnLCAnPG91dGZpbGUubWFlPic=

> <r_epik_Ionization_Penalty>
0.00216453

> <r_epik_Ionization_Penalty_Charging>
0.00212879

> <r_epik_Ionization_Penalty_Neutral>
3.57418e-05

> <r_epik_State_Penalty>
0.00146033

> <r_epik_Charging_Adjusted_Penalty>
0.00358912

> <i_epik_Tot_Q>
1

> <i_epik_Tot_abs_Q>
1

> <r_epik_Metal_State_Penalty>
0.0215827

> <b_epik_Metal_Only>
0

> <s_lp_Force_Field>
OPLS_2005

> <r_lp_Energy>
17.3533

> <b_lp_Chiralities_Consistent>
1

> <s_lp_Variant>
AV-unprocessed.smi:2083-2

> <Gold.Version>
5.8.1

> <Gold.Id.Protein>
6NUR|6NUR_protein|mol2

> <Gold.PLP.Fitness>
43.5138

> <Gold.PLP.PLP>
-36.7672

> <Gold.PLP.part.hbond>
-5.0000

> <Gold.PLP.part.metal>
0.0000

> <Gold.PLP.part.buried>
-5.0738

> <Gold.PLP.part.nonpolar>
-27.6605

> <Gold.PLP.part.repulsive>
0.2798

> <Gold.PLP.ligand.clash>
0.0000

> <Gold.PLP.ligand.torsion>
1.6379

> <Gold.PLP.Chemscore.Hbond>
3.2908

> <Gold.PLP.Chemscore.CHOScore>
0.0000

> <Gold.PLP.Chemscore.Metal>
0.0000

> <Gold.Chemscore.Hbonds>
donor molecule, donor type, donor heavy atom, donor atom, acceptor molecule, acceptor atom, score
      L1  H     5    25       P1  7948  1.00
      L1  H     8    26       P1  7948  0.58
      L1  H    12    45       P1 10747  1.00
      P1  H  7989  7998       L1    20  1.00

> <Gold.PLP.Chemscore.Internal.Correction>
0.1500

> <Gold.Rescore>
     Score         DG    S(hbond)    S(metal)    S(lipo)     H(rot)  DE(clash)    DE(int)     intcor
     13.48     -16.32       1.88        0.00      72.87       1.55       0.05       2.79       ----

> <Gold.Chemscore.Fitness>
13.4770

> <Gold.Chemscore.DG>
-16.3235

> <Gold.Chemscore.ZeroCoef>
-5.4800

> <Gold.Chemscore.Hbond>
1.8799

> <Gold.Chemscore.Metal>
0.0000

> <Gold.Chemscore.Lipo>
72.8694

> <Gold.Chemscore.Internal_Hbond>
0.0000

> <Gold.Chemscore.DEClash>
0.0544

> <Gold.Chemscore.DEInternal>
2.7921

> <Gold.Chemscore.Rot>
1.5474

> <Gold.Chemscore.Internal.Correction>
   9.000000E+99

> <Gold.Chemscore.Hbonds>
donor molecule, donor type, donor heavy atom, donor atom, acceptor molecule, acceptor atom, score
      L1  H     5    25       P1  7948  0.30
      L1  H     8    26       P1  7948  0.05
      L1  H    12    45       P1 10747  0.96
      P1  H  7989  7998       L1    20  0.10

> <Gold.Chemscore.Hbond.Weighted>
-6.2790

> <Gold.Chemscore.Metal.Weighted>
-0.0000

> <Gold.Chemscore.Lipo.Weighted>
-8.5257

> <Gold.Chemscore.Internal_Hbond.Weighted>
0.0000

> <Gold.Chemscore.DEClash.Weighted>
0.0544

> <Gold.Chemscore.DEInternal.Weighted>
2.7921

> <Gold.Chemscore.Rot.Weighted>
3.9612

> <Gold.Chemscore.Internal.Correction.Weighted>
   9.000000E+99

> <Gold.Protein.RotatedTorsions>
[ 6907 6896 6895 6894 ] final  -13.32 input  -60.11 | X-H torsion
[ 7974 7965 7964 7962 ] final -100.38 input  175.53 | X-H torsion
[ 8008 7997 7996 7995 ] final   14.06 input   59.86 | X-H torsion
[ 10167 10162 10161 10158 ] final  120.04 input  -65.29 | X-H torsion
[ 10718 10713 10712 10709 ] final   93.30 input   66.30 | X-H torsion
[ 10763 10752 10751 10750 ] final -148.72 input  -60.55 | X-H torsion
[ 11005 11000 10999 10996 ] final -130.21 input  -57.11 | X-H torsion

> <Gold.Protein.ActiveResidues>
 VAL166  LYS551  ARG553  GLY616  TRP617  ASP618  TYR619  PRO620  LYS621  CYS622 
 ASP623  PHE694  ASN695  SER759  ASP760  ASP761  ALA762  ILE779  LEU786  VAL792 
 PHE793  MET794  SER795  GLU796  ALA797  LYS798  CYS799  TRP800  GLU811  SER814 

> <Gold.Protein.RotatedAtoms>
  151.3568  135.0896  159.9420 H   0  0  0  0  0  0  0  0  0  0  0  0  # atno 6907 bound_to 6896
  152.5173  133.9298  159.7585 H   0  0  0  0  0  0  0  0  0  0  0  0  # atno 6908 bound_to 6896
  150.9684  133.6316  159.2771 H   0  0  0  0  0  0  0  0  0  0  0  0  # atno 6909 bound_to 6896
  145.2954  140.9363  143.2854 H   0  0  0  0  0  0  0  0  0  0  0  0  # atno 7974 bound_to 7965
  154.8431  140.2918  155.5646 H   0  0  0  0  0  0  0  0  0  0  0  0  # atno 8008 bound_to 7997
  156.3013  140.2510  156.3309 H   0  0  0  0  0  0  0  0  0  0  0  0  # atno 8009 bound_to 7997
  154.9103  140.0389  157.1932 H   0  0  0  0  0  0  0  0  0  0  0  0  # atno 8010 bound_to 7997
  139.6007  144.7056  151.3069 H   0  0  0  0  0  0  0  0  0  0  0  0  # atno 10167 bound_to 10162
  157.6955  131.0473  150.4012 H   0  0  0  0  0  0  0  0  0  0  0  0  # atno 10718 bound_to 10713
  154.8217  135.3327  154.7018 H   0  0  0  0  0  0  0  0  0  0  0  0  # atno 10763 bound_to 10752
  153.7650  135.6930  153.4922 H   0  0  0  0  0  0  0  0  0  0  0  0  # atno 10764 bound_to 10752
  153.2084  135.4491  155.0299 H   0  0  0  0  0  0  0  0  0  0  0  0  # atno 10765 bound_to 10752
  140.9366  134.1249  157.4188 H   0  0  0  0  0  0  0  0  0  0  0  0  # atno 11005 bound_to 11000
  144.9138  139.4495  143.6574 LP  0  0  0  0  0  0  0  0  0  0  0  0  # atno 17320 bound_to 7965
  146.3171  139.7961  142.8975 LP  0  0  0  0  0  0  0  0  0  0  0  0  # atno 17321 bound_to 7965
  140.7247  143.7036  150.7825 LP  0  0  0  0  0  0  0  0  0  0  0  0  # atno 17342 bound_to 10162
  140.0612  143.5153  152.2627 LP  0  0  0  0  0  0  0  0  0  0  0  0  # atno 17343 bound_to 10162
  156.4405  130.3991  149.6700 LP  0  0  0  0  0  0  0  0  0  0  0  0  # atno 17370 bound_to 10713
  156.3885  130.7615  151.2614 LP  0  0  0  0  0  0  0  0  0  0  0  0  # atno 17371 bound_to 10713
  139.8809  135.0023  156.6116 LP  0  0  0  0  0  0  0  0  0  0  0  0  # atno 17394 bound_to 11000
  140.7791  133.8674  155.8553 LP  0  0  0  0  0  0  0  0  0  0  0  0  # atno 17395 bound_to 11000

$$$$
