AV-unprocessed.smi:148|AV-procd|sdf|1218|dock5
  -GOLD-   2262018403D 1   1.00000     0.00000
 Structure written by MMmdl.
 63 67  0  0  0  0  0  0  0  0  1 V2000
  146.3634  136.3246  152.1074 O   0  0  0  0  0  0  0  0  0  0  0  0
  145.6754  135.5980  153.1039 C   0  0  0  0  0  0  0  0  0  0  0  0
  145.7986  134.0730  152.8711 C   0  0  2  0  0  0  0  0  0  0  0  0
  146.9924  133.4598  153.6505 C   0  0  0  0  0  0  0  0  0  0  0  0
  146.8391  133.5757  155.0900 N   0  0  0  0  0  0  0  0  0  0  0  0
  145.6724  133.4290  155.8050 C   0  0  0  0  0  0  0  0  0  0  0  0
  145.7872  133.5904  157.0950 N   0  0  0  0  0  0  0  0  0  0  0  0
  147.1359  133.8689  157.2827 C   0  0  0  0  0  0  0  0  0  0  0  0
  147.9449  134.1598  158.4175 C   0  0  0  0  0  0  0  0  0  0  0  0
  147.4928  134.2385  159.6897 N   0  0  0  0  0  0  0  0  0  0  0  0
  147.5502  135.6248  160.1527 C   0  0  0  0  0  0  0  0  0  0  0  0
  146.8180  135.7996  161.4888 C   0  0  0  0  0  0  0  0  0  0  0  0
  147.3787  134.8277  162.5313 C   0  0  0  0  0  0  0  0  0  0  0  0
  147.2869  133.3878  162.0083 C   0  0  0  0  0  0  0  0  0  0  0  0
  147.9946  133.2255  160.6370 C   0  0  1  0  0  0  0  0  0  0  0  0
  147.9198  131.7724  160.0698 C   0  0  2  0  0  0  0  0  0  0  0  0
  146.5079  131.2230  159.7866 C   0  0  0  0  0  0  0  0  0  0  0  0
  146.5901  129.6987  159.9724 C   0  0  0  0  0  0  0  0  0  0  0  0
  148.0516  129.3842  160.3067 C   0  0  0  0  0  0  0  0  0  0  0  0
  148.5885  130.6787  160.9155 C   0  0  1  0  0  0  0  0  0  0  0  0
  149.9983  130.7367  160.8450 O   0  0  0  0  0  0  0  0  0  0  0  0
  149.2695  134.3695  158.2187 N   0  0  0  0  0  0  0  0  0  0  0  0
  149.7748  134.3206  156.9825 C   0  0  0  0  0  0  0  0  0  0  0  0
  149.1441  134.0785  155.8310 N   0  0  0  0  0  0  0  0  0  0  0  0
  147.8140  133.8525  156.0320 C   0  0  0  0  0  0  0  0  0  0  0  0
  145.8007  133.7118  151.3585 C   0  0  1  0  0  0  0  0  0  0  0  0
  145.8715  132.2159  151.0395 C   0  0  0  0  0  0  0  0  0  0  0  0
  144.8198  132.0234  149.9512 C   0  0  0  0  0  0  0  0  0  0  0  0
  143.8497  133.0072  150.2654 O   0  0  0  0  0  0  0  0  0  0  0  0
  144.5619  134.1924  150.5842 C   0  0  0  0  0  0  0  0  0  0  0  0
  147.2922  136.2346  152.2577 H   0  0  0  0  0  0  0  0  0  0  0  0
  146.0588  135.8768  154.0855 H   0  0  0  0  0  0  0  0  0  0  0  0
  144.6350  135.9198  153.0689 H   0  0  0  0  0  0  0  0  0  0  0  0
  144.8972  133.6218  153.2897 H   0  0  0  0  0  0  0  0  0  0  0  0
  147.1095  132.4011  153.4209 H   0  0  0  0  0  0  0  0  0  0  0  0
  147.9310  133.9357  153.3697 H   0  0  0  0  0  0  0  0  0  0  0  0
  144.7263  133.2036  155.3348 H   0  0  0  0  0  0  0  0  0  0  0  0
  148.5934  135.9252  160.2621 H   0  0  0  0  0  0  0  0  0  0  0  0
  147.1061  136.2867  159.4073 H   0  0  0  0  0  0  0  0  0  0  0  0
  146.9196  136.8270  161.8394 H   0  0  0  0  0  0  0  0  0  0  0  0
  145.7511  135.6191  161.3512 H   0  0  0  0  0  0  0  0  0  0  0  0
  148.4181  135.0770  162.7486 H   0  0  0  0  0  0  0  0  0  0  0  0
  146.8304  134.9238  163.4687 H   0  0  0  0  0  0  0  0  0  0  0  0
  147.7278  132.7284  162.7538 H   0  0  0  0  0  0  0  0  0  0  0  0
  146.2358  133.1116  161.9332 H   0  0  0  0  0  0  0  0  0  0  0  0
  149.0479  133.4477  160.8081 H   0  0  0  0  0  0  0  0  0  0  0  0
  148.4465  131.7504  159.1146 H   0  0  0  0  0  0  0  0  0  0  0  0
  145.7639  131.6318  160.4686 H   0  0  0  0  0  0  0  0  0  0  0  0
  146.1872  131.4823  158.7773 H   0  0  0  0  0  0  0  0  0  0  0  0
  145.9469  129.3969  160.7998 H   0  0  0  0  0  0  0  0  0  0  0  0
  146.2563  129.1583  159.0860 H   0  0  0  0  0  0  0  0  0  0  0  0
  148.1551  128.5297  160.9763 H   0  0  0  0  0  0  0  0  0  0  0  0
  148.5898  129.1512  159.3862 H   0  0  0  0  0  0  0  0  0  0  0  0
  148.2746  130.7273  161.9571 H   0  0  0  0  0  0  0  0  0  0  0  0
  150.3081  129.9650  160.3961 H   0  0  0  0  0  0  0  0  0  0  0  0
  150.8362  134.5039  156.9047 H   0  0  0  0  0  0  0  0  0  0  0  0
  146.6605  134.1988  150.8967 H   0  0  0  0  0  0  0  0  0  0  0  0
  146.8638  131.9068  150.7096 H   0  0  0  0  0  0  0  0  0  0  0  0
  145.6144  131.6046  151.9026 H   0  0  0  0  0  0  0  0  0  0  0  0
  145.2380  132.2231  148.9630 H   0  0  0  0  0  0  0  0  0  0  0  0
  144.3928  131.0202  149.9492 H   0  0  0  0  0  0  0  0  0  0  0  0
  143.9417  134.8983  151.1364 H   0  0  0  0  0  0  0  0  0  0  0  0
  144.8616  134.6812  149.6559 H   0  0  0  0  0  0  0  0  0  0  0  0
  1  2  1  0  0  0  0
  1 31  1  0  0  0  0
  2  3  1  0  0  0  0
  2 32  1  0  0  0  0
  2 33  1  0  0  0  0
  3  4  1  0  0  0  0
  3 26  1  0  0  0  0
  3 34  1  0  0  0  0
  4  5  1  0  0  0  0
  4 35  1  0  0  0  0
  4 36  1  0  0  0  0
  5 25  1  0  0  0  0
  5  6  1  0  0  0  0
  6  7  2  0  0  0  0
  6 37  1  0  0  0  0
  7  8  1  0  0  0  0
  8 25  2  0  0  0  0
  8  9  1  0  0  0  0
  9 10  1  0  0  0  0
  9 22  2  0  0  0  0
 10 15  1  0  0  0  0
 10 11  1  0  0  0  0
 11 12  1  0  0  0  0
 11 38  1  0  0  0  0
 11 39  1  0  0  0  0
 12 13  1  0  0  0  0
 12 40  1  0  0  0  0
 12 41  1  0  0  0  0
 13 14  1  0  0  0  0
 13 42  1  0  0  0  0
 13 43  1  0  0  0  0
 14 15  1  0  0  0  0
 14 44  1  0  0  0  0
 14 45  1  0  0  0  0
 15 16  1  0  0  0  0
 15 46  1  0  0  0  0
 16 20  1  0  0  0  0
 16 17  1  0  0  0  0
 16 47  1  0  0  0  0
 17 18  1  0  0  0  0
 17 48  1  0  0  0  0
 17 49  1  0  0  0  0
 18 19  1  0  0  0  0
 18 50  1  0  0  0  0
 18 51  1  0  0  0  0
 19 20  1  0  0  0  0
 19 52  1  0  0  0  0
 19 53  1  0  0  0  0
 20 21  1  0  0  0  0
 20 54  1  0  0  0  0
 21 55  1  0  0  0  0
 22 23  1  0  0  0  0
 23 24  2  0  0  0  0
 23 56  1  0  0  0  0
 24 25  1  0  0  0  0
 26 30  1  0  0  0  0
 26 27  1  0  0  0  0
 26 57  1  0  0  0  0
 27 28  1  0  0  0  0
 27 58  1  0  0  0  0
 27 59  1  0  0  0  0
 28 29  1  0  0  0  0
 28 60  1  0  0  0  0
 28 61  1  0  0  0  0
 29 30  1  0  0  0  0
 30 62  1  0  0  0  0
 30 63  1  0  0  0  0
M  END
> <s_m_source_file>
AV-unprocessed.smi

> <i_m_source_file_index>
148

> <i_lp_mmshare_version>
43012

> <i_f3d_flags>
0

> <s_epik_input>
W0NIMl0xT1tDSDJdW0NIMl1bQ0BIXTFbQ0BIXShbQ0gyXVtPSF0pW0NIMl1uKFtjSF1uMiljKGMyMyluW2NIXW5jM040W0NIMl1bQ0gyXVtDSDJdW0NIMl1bQ0BIXTRbQ0BASF01W0NIMl1bQ0gyXVtDSDJdW0NASF01W09IXQ==

> <s_epik_cmdline>
J2VwaWtfcHl0aG9uJywgJy1waCcsICc3LjAnLCAnLXRuJywgJzgnLCAnLW1hJywgJzIwMCcsICctbWV0YWxfYmluZGluZycsICctaW1hZScsICc8aW5maWxlLm1hZT4nLCAnLW9tYWUnLCAnPG91dGZpbGUubWFlPic=

> <r_lp_tautomer_probability>
1

> <r_epik_Ionization_Penalty>
0.00556303

> <r_epik_Ionization_Penalty_Charging>
0

> <r_epik_Ionization_Penalty_Neutral>
0.00556303

> <r_epik_State_Penalty>
0.00401767

> <r_epik_Charging_Adjusted_Penalty>
0.00401767

> <i_epik_Tot_Q>
0

> <i_epik_Tot_abs_Q>
0

> <r_epik_Metal_State_Penalty>
-0

> <b_epik_Metal_Only>
0

> <s_lp_Force_Field>
OPLS_2005

> <r_lp_Energy>
68.3578

> <b_lp_Chiralities_Consistent>
1

> <s_lp_Variant>
AV-unprocessed.smi:148-17

> <Gold.Version>
5.8.1

> <Gold.Id.Protein>
6NUR|6NUR_protein|mol2

> <Gold.PLP.Fitness>
41.7104

> <Gold.PLP.PLP>
-34.2067

> <Gold.PLP.part.hbond>
-1.7009

> <Gold.PLP.part.metal>
0.0000

> <Gold.PLP.part.buried>
-6.7582

> <Gold.PLP.part.nonpolar>
-26.7364

> <Gold.PLP.part.repulsive>
0.2648

> <Gold.PLP.ligand.clash>
0.0000

> <Gold.PLP.ligand.torsion>
0.8419

> <Gold.PLP.Chemscore.Hbond>
2.0000

> <Gold.PLP.Chemscore.CHOScore>
0.9155

> <Gold.PLP.Chemscore.Metal>
0.0000

> <Gold.Chemscore.Hbonds>
donor molecule, donor type, donor heavy atom, donor atom, acceptor molecule, acceptor atom, score
      L1  H     1    31       P1  7948  1.00
      P1  H  6896  6909       L1    22  1.00
      L1  C     6    37       P1 10957  0.93

> <Gold.PLP.Chemscore.Internal.Correction>
0.4408

> <Gold.Rescore>
     Score         DG    S(hbond)    S(metal)    S(lipo)     H(rot)  DE(clash)    DE(int)     intcor
     12.89     -13.78       1.91        0.00      89.04       3.32       0.03       0.86       ----

> <Gold.Chemscore.Fitness>
12.8889

> <Gold.Chemscore.DG>
-13.7765

> <Gold.Chemscore.ZeroCoef>
-5.4800

> <Gold.Chemscore.Hbond>
1.9098

> <Gold.Chemscore.Metal>
0.0000

> <Gold.Chemscore.Lipo>
89.0402

> <Gold.Chemscore.Internal_Hbond>
0.0000

> <Gold.Chemscore.DEClash>
0.0285

> <Gold.Chemscore.DEInternal>
0.8591

> <Gold.Chemscore.Rot>
3.3203

> <Gold.Chemscore.Internal.Correction>
   9.000000E+99

> <Gold.Chemscore.Hbonds>
donor molecule, donor type, donor heavy atom, donor atom, acceptor molecule, acceptor atom, score
      L1  H     1    31       P1  7948  0.98
      P1  H  6896  6909       L1    22  0.55

> <Gold.Chemscore.Hbond.Weighted>
-6.3788

> <Gold.Chemscore.Metal.Weighted>
-0.0000

> <Gold.Chemscore.Lipo.Weighted>
-10.4177

> <Gold.Chemscore.Internal_Hbond.Weighted>
0.0000

> <Gold.Chemscore.DEClash.Weighted>
0.0285

> <Gold.Chemscore.DEInternal.Weighted>
0.8591

> <Gold.Chemscore.Rot.Weighted>
8.5000

> <Gold.Chemscore.Internal.Correction.Weighted>
   9.000000E+99

> <Gold.Protein.RotatedTorsions>
[ 6907 6896 6895 6894 ] final   16.05 input  -60.11 | X-H torsion
[ 7974 7965 7964 7962 ] final -155.30 input  175.53 | X-H torsion
[ 8008 7997 7996 7995 ] final  -78.16 input   59.86 | X-H torsion
[ 10167 10162 10161 10158 ] final   16.40 input  -65.29 | X-H torsion
[ 10718 10713 10712 10709 ] final  108.24 input   66.30 | X-H torsion
[ 10763 10752 10751 10750 ] final  -41.15 input  -60.55 | X-H torsion
[ 11005 11000 10999 10996 ] final  114.68 input  -57.11 | X-H torsion

> <Gold.Protein.ActiveResidues>
 VAL166  LYS551  ARG553  GLY616  TRP617  ASP618  TYR619  PRO620  LYS621  CYS622 
 ASP623  PHE694  ASN695  SER759  ASP760  ASP761  ALA762  ILE779  LEU786  VAL792 
 PHE793  MET794  SER795  GLU796  ALA797  LYS798  CYS799  TRP800  GLU811  SER814 

> <Gold.Protein.RotatedAtoms>
  151.8278  135.0631  160.0432 H   0  0  0  0  0  0  0  0  0  0  0  0  # atno 6907 bound_to 6896
  152.2903  133.5550  159.5561 H   0  0  0  0  0  0  0  0  0  0  0  0  # atno 6908 bound_to 6896
  150.7227  134.0354  159.3790 H   0  0  0  0  0  0  0  0  0  0  0  0  # atno 6909 bound_to 6896
  144.7647  140.4268  143.5951 H   0  0  0  0  0  0  0  0  0  0  0  0  # atno 7974 bound_to 7965
  154.5663  140.0699  156.8897 H   0  0  0  0  0  0  0  0  0  0  0  0  # atno 8008 bound_to 7997
  155.2717  140.3365  155.4246 H   0  0  0  0  0  0  0  0  0  0  0  0  # atno 8009 bound_to 7997
  156.2083  140.1749  156.7737 H   0  0  0  0  0  0  0  0  0  0  0  0  # atno 8010 bound_to 7997
  140.5800  143.8999  150.6781 H   0  0  0  0  0  0  0  0  0  0  0  0  # atno 10167 bound_to 10162
  157.6594  131.0889  150.6276 H   0  0  0  0  0  0  0  0  0  0  0  0  # atno 10718 bound_to 10713
  153.9577  135.6743  153.4745 H   0  0  0  0  0  0  0  0  0  0  0  0  # atno 10763 bound_to 10752
  153.0853  135.4902  154.8581 H   0  0  0  0  0  0  0  0  0  0  0  0  # atno 10764 bound_to 10752
  154.7290  135.3134  154.8883 H   0  0  0  0  0  0  0  0  0  0  0  0  # atno 10765 bound_to 10752
  139.8987  134.9572  156.6929 H   0  0  0  0  0  0  0  0  0  0  0  0  # atno 11005 bound_to 11000
  145.6509  139.1565  143.2863 LP  0  0  0  0  0  0  0  0  0  0  0  0  # atno 17320 bound_to 7965
  146.1743  140.6598  142.9219 LP  0  0  0  0  0  0  0  0  0  0  0  0  # atno 17321 bound_to 7965
  140.2496  143.3603  152.1417 LP  0  0  0  0  0  0  0  0  0  0  0  0  # atno 17342 bound_to 10162
  139.5164  144.6977  151.5583 LP  0  0  0  0  0  0  0  0  0  0  0  0  # atno 17343 bound_to 10162
  156.6580  130.4504  149.5697 LP  0  0  0  0  0  0  0  0  0  0  0  0  # atno 17370 bound_to 10713
  156.2088  130.6666  151.1247 LP  0  0  0  0  0  0  0  0  0  0  0  0  # atno 17371 bound_to 10713
  140.7211  133.9140  155.8147 LP  0  0  0  0  0  0  0  0  0  0  0  0  # atno 17394 bound_to 11000
  141.0227  134.0867  157.4103 LP  0  0  0  0  0  0  0  0  0  0  0  0  # atno 17395 bound_to 11000

$$$$
