AV-unprocessed.smi:2265|AV-procd|sdf|9143|dock8
  -GOLD-   2272012353D 1   1.00000     0.00000
 Structure written by MMmdl.
 36 37  0  0  0  0  0  0  0  0  1 V2000
  152.3286  143.9005  162.8902 C   0  0  0  0  0  0  0  0  0  0  0  0
  152.0366  144.0669  161.3950 C   0  0  0  0  0  0  0  0  0  0  0  0
  152.9528  143.2036  160.5172 C   0  0  0  0  0  0  0  0  0  0  0  0
  152.6435  143.3470  159.0405 C   0  0  2  0  0  0  0  0  0  0  0  0
  152.7716  144.6849  158.3619 C   0  0  0  0  0  0  0  0  0  0  0  0
  151.4014  144.0750  158.5747 C   0  0  1  0  0  0  0  0  0  0  0  0
  150.7255  143.5973  157.4066 N   0  0  0  0  0  0  0  0  0  0  0  0
  150.6399  142.3280  156.9699 C   0  0  0  0  0  0  0  0  0  0  0  0
  151.1457  141.4067  157.6105 O   0  0  0  0  0  0  0  0  0  0  0  0
  149.9294  142.1887  155.8285 N   0  0  0  0  0  0  0  0  0  0  0  0
  149.6299  141.0134  155.1289 C   0  0  0  0  0  0  0  0  0  0  0  0
  150.4694  140.0243  154.9996 N   0  0  0  0  0  0  0  0  0  0  0  0
  150.1387  138.8697  154.2900 C   0  0  0  0  0  0  0  0  0  0  0  0
  148.9332  138.7390  153.7077 C   0  0  0  0  0  0  0  0  0  0  0  0
  147.9790  139.7623  153.8001 N   0  0  0  0  0  0  0  0  0  0  0  0
  146.6828  139.5691  153.1495 C   0  0  0  0  0  0  0  0  0  0  0  0
  148.2459  140.9093  154.4819 C   0  0  0  0  0  0  0  0  0  0  0  0
  147.4388  141.8344  154.5937 O   0  0  0  0  0  0  0  0  0  0  0  0
  151.6650  144.5258  163.4877 H   0  0  0  0  0  0  0  0  0  0  0  0
  153.3548  144.1843  163.1253 H   0  0  0  0  0  0  0  0  0  0  0  0
  152.1854  142.8666  163.2062 H   0  0  0  0  0  0  0  0  0  0  0  0
  150.9948  143.8083  161.2018 H   0  0  0  0  0  0  0  0  0  0  0  0
  152.1503  145.1163  161.1210 H   0  0  0  0  0  0  0  0  0  0  0  0
  153.9944  143.4826  160.6791 H   0  0  0  0  0  0  0  0  0  0  0  0
  152.8618  142.1548  160.8028 H   0  0  0  0  0  0  0  0  0  0  0  0
  152.9384  142.4821  158.4484 H   0  0  0  0  0  0  0  0  0  0  0  0
  153.0393  145.5419  158.9772 H   0  0  0  0  0  0  0  0  0  0  0  0
  153.1769  144.6948  157.3518 H   0  0  0  0  0  0  0  0  0  0  0  0
  150.7982  144.5663  159.3371 H   0  0  0  0  0  0  0  0  0  0  0  0
  150.1849  144.2839  156.9004 H   0  0  0  0  0  0  0  0  0  0  0  0
  149.5507  143.0442  155.4488 H   0  0  0  0  0  0  0  0  0  0  0  0
  150.8941  138.0996  154.2361 H   0  0  0  0  0  0  0  0  0  0  0  0
  148.6319  137.8649  153.1492 H   0  0  0  0  0  0  0  0  0  0  0  0
  146.4834  140.3753  152.4420 H   0  0  0  0  0  0  0  0  0  0  0  0
  145.8826  139.5609  153.8907 H   0  0  0  0  0  0  0  0  0  0  0  0
  146.6288  138.6306  152.5970 H   0  0  0  0  0  0  0  0  0  0  0  0
  1  2  1  0  0  0  0
  1 19  1  0  0  0  0
  1 20  1  0  0  0  0
  1 21  1  0  0  0  0
  2  3  1  0  0  0  0
  2 22  1  0  0  0  0
  2 23  1  0  0  0  0
  3  4  1  0  0  0  0
  3 24  1  0  0  0  0
  3 25  1  0  0  0  0
  4  6  1  0  0  0  0
  4  5  1  0  0  0  0
  4 26  1  0  0  0  0
  5  6  1  0  0  0  0
  5 27  1  0  0  0  0
  5 28  1  0  0  0  0
  6  7  1  0  0  0  0
  6 29  1  0  0  0  0
  7  8  1  0  0  0  0
  7 30  1  0  0  0  0
  8  9  2  0  0  0  0
  8 10  1  0  0  0  0
 10 11  1  0  0  0  0
 10 31  1  0  0  0  0
 11 17  1  0  0  0  0
 11 12  2  0  0  0  0
 12 13  1  0  0  0  0
 13 14  2  0  0  0  0
 13 32  1  0  0  0  0
 14 15  1  0  0  0  0
 14 33  1  0  0  0  0
 15 16  1  0  0  0  0
 15 17  1  0  0  0  0
 16 34  1  0  0  0  0
 16 35  1  0  0  0  0
 16 36  1  0  0  0  0
 17 18  2  0  0  0  0
M  END
> <s_m_source_file>
AV-unprocessed.smi

> <i_m_source_file_index>
2265

> <i_lp_mmshare_version>
43012

> <i_f3d_flags>
0

> <s_epik_input>
W0NIM11bQ0gyXVtDSDJdW0NAQEhdMVtDSDJdW0NASF0xW05IXUMoPU8pW05IXWMybltjSF1bY0hdbihbQ0gzXSljMj1P

> <s_epik_cmdline>
J2VwaWtfcHl0aG9uJywgJy1waCcsICc3LjAnLCAnLXRuJywgJzgnLCAnLW1hJywgJzIwMCcsICctbWV0YWxfYmluZGluZycsICctaW1hZScsICc8aW5maWxlLm1hZT4nLCAnLW9tYWUnLCAnPG91dGZpbGUubWFlPic=

> <r_lp_tautomer_probability>
1

> <r_epik_Ionization_Penalty>
0.000728552

> <r_epik_Ionization_Penalty_Charging>
1.67739e-07

> <r_epik_Ionization_Penalty_Neutral>
0.000728385

> <r_epik_State_Penalty>
-0

> <r_epik_Charging_Adjusted_Penalty>
1.67739e-07

> <i_epik_Tot_Q>
0

> <i_epik_Tot_abs_Q>
0

> <r_epik_Metal_State_Penalty>
-0

> <b_epik_Metal_Only>
0

> <s_lp_Force_Field>
OPLS_2005

> <r_lp_Energy>
43.0048

> <b_lp_Chiralities_Consistent>
1

> <s_lp_Variant>
AV-unprocessed.smi:2265-1

> <Gold.Version>
5.8.1

> <Gold.Id.Protein>
6NUR|6NUR_protein|mol2

> <Gold.PLP.Fitness>
49.4720

> <Gold.PLP.PLP>
-39.4299

> <Gold.PLP.part.hbond>
-3.0000

> <Gold.PLP.part.metal>
0.0000

> <Gold.PLP.part.buried>
2.7550

> <Gold.PLP.part.nonpolar>
-39.5100

> <Gold.PLP.part.repulsive>
0.3748

> <Gold.PLP.ligand.clash>
0.0000

> <Gold.PLP.ligand.torsion>
0.9588

> <Gold.PLP.Chemscore.Hbond>
2.8000

> <Gold.PLP.Chemscore.CHOScore>
0.9937

> <Gold.PLP.Chemscore.Metal>
0.0000

> <Gold.Chemscore.Hbonds>
donor molecule, donor type, donor heavy atom, donor atom, acceptor molecule, acceptor atom, score
      L1  H     7    30       P1  8028  1.00
      L1  H    10    31       P1  8028  1.00
      P1  H  7989  7998       L1    12  0.60
      L1  C    14    33       P1  7948  1.00

> <Gold.PLP.Chemscore.Internal.Correction>
0.5785

> <Gold.Rescore>
     Score         DG    S(hbond)    S(metal)    S(lipo)     H(rot)  DE(clash)    DE(int)     intcor
     14.75     -19.63       1.92        0.00      98.23       1.46       1.58       3.30       ----

> <Gold.Chemscore.Fitness>
14.7460

> <Gold.Chemscore.DG>
-19.6306

> <Gold.Chemscore.ZeroCoef>
-5.4800

> <Gold.Chemscore.Hbond>
1.9150

> <Gold.Chemscore.Metal>
0.0000

> <Gold.Chemscore.Lipo>
98.2320

> <Gold.Chemscore.Internal_Hbond>
0.0000

> <Gold.Chemscore.DEClash>
1.5831

> <Gold.Chemscore.DEInternal>
3.3015

> <Gold.Chemscore.Rot>
1.4604

> <Gold.Chemscore.Internal.Correction>
   9.000000E+99

> <Gold.Chemscore.Hbonds>
donor molecule, donor type, donor heavy atom, donor atom, acceptor molecule, acceptor atom, score
      L1  H     7    30       P1  8028  0.87
      L1  H    10    31       P1  8028  0.96
      P1  H  7989  7998       L1    12  0.01

> <Gold.Chemscore.Hbond.Weighted>
-6.3962

> <Gold.Chemscore.Metal.Weighted>
-0.0000

> <Gold.Chemscore.Lipo.Weighted>
-11.4931

> <Gold.Chemscore.Internal_Hbond.Weighted>
0.0000

> <Gold.Chemscore.DEClash.Weighted>
1.5831

> <Gold.Chemscore.DEInternal.Weighted>
3.3015

> <Gold.Chemscore.Rot.Weighted>
3.7387

> <Gold.Chemscore.Internal.Correction.Weighted>
   9.000000E+99

> <Gold.Protein.RotatedTorsions>
[ 6907 6896 6895 6894 ] final  172.59 input  -60.11 | X-H torsion
[ 7974 7965 7964 7962 ] final  -46.52 input  175.53 | X-H torsion
[ 8008 7997 7996 7995 ] final -120.42 input   59.86 | X-H torsion
[ 10167 10162 10161 10158 ] final  -77.53 input  -65.29 | X-H torsion
[ 10718 10713 10712 10709 ] final   28.71 input   66.30 | X-H torsion
[ 10763 10752 10751 10750 ] final  -80.87 input  -60.55 | X-H torsion
[ 11005 11000 10999 10996 ] final   66.74 input  -57.11 | X-H torsion

> <Gold.Protein.ActiveResidues>
 VAL166  LYS551  ARG553  GLY616  TRP617  ASP618  TYR619  PRO620  LYS621  CYS622 
 ASP623  PHE694  ASN695  SER759  ASP760  ASP761  ALA762  ILE779  LEU786  VAL792 
 PHE793  MET794  SER795  GLU796  ALA797  LYS798  CYS799  TRP800  GLU811  SER814 

> <Gold.Protein.RotatedAtoms>
  151.7819  133.3350  159.3473 H   0  0  0  0  0  0  0  0  0  0  0  0  # atno 6907 bound_to 6896
  150.7423  134.5923  159.6003 H   0  0  0  0  0  0  0  0  0  0  0  0  # atno 6908 bound_to 6896
  152.3270  134.7310  160.0351 H   0  0  0  0  0  0  0  0  0  0  0  0  # atno 6909 bound_to 6896
  145.9710  140.7383  142.9410 H   0  0  0  0  0  0  0  0  0  0  0  0  # atno 7974 bound_to 7965
  155.1316  140.0400  157.2776 H   0  0  0  0  0  0  0  0  0  0  0  0  # atno 8008 bound_to 7997
  154.6539  140.2575  155.7157 H   0  0  0  0  0  0  0  0  0  0  0  0  # atno 8009 bound_to 7997
  156.2589  140.2830  156.0983 H   0  0  0  0  0  0  0  0  0  0  0  0  # atno 8010 bound_to 7997
  140.4762  143.2414  151.8129 H   0  0  0  0  0  0  0  0  0  0  0  0  # atno 10167 bound_to 10162
  157.2371  130.7051  149.6341 H   0  0  0  0  0  0  0  0  0  0  0  0  # atno 10718 bound_to 10713
  154.5565  135.5646  153.6969 H   0  0  0  0  0  0  0  0  0  0  0  0  # atno 10763 bound_to 10752
  153.0005  135.6263  154.2303 H   0  0  0  0  0  0  0  0  0  0  0  0  # atno 10764 bound_to 10752
  154.2239  135.2868  155.2894 H   0  0  0  0  0  0  0  0  0  0  0  0  # atno 10765 bound_to 10752
  139.9813  134.6739  156.0258 H   0  0  0  0  0  0  0  0  0  0  0  0  # atno 11005 bound_to 11000
  144.6837  140.2749  143.7300 LP  0  0  0  0  0  0  0  0  0  0  0  0  # atno 17320 bound_to 7965
  145.7906  139.1925  143.2105 LP  0  0  0  0  0  0  0  0  0  0  0  0  # atno 17321 bound_to 7965
  139.4826  144.4830  151.9282 LP  0  0  0  0  0  0  0  0  0  0  0  0  # atno 17342 bound_to 10162
  140.3916  144.2608  150.5899 LP  0  0  0  0  0  0  0  0  0  0  0  0  # atno 17343 bound_to 10162
  155.9672  130.4470  150.5563 LP  0  0  0  0  0  0  0  0  0  0  0  0  # atno 17370 bound_to 10713
  157.3418  131.0718  151.1782 LP  0  0  0  0  0  0  0  0  0  0  0  0  # atno 17371 bound_to 10713
  141.1484  133.6552  156.3939 LP  0  0  0  0  0  0  0  0  0  0  0  0  # atno 17394 bound_to 11000
  140.5091  134.6412  157.5277 LP  0  0  0  0  0  0  0  0  0  0  0  0  # atno 17395 bound_to 11000

$$$$
