AV-unprocessed.smi:189|AV-procd|sdf|1476|dock3
  -GOLD-   2262019293D 1   1.00000     0.00000
 Structure written by MMmdl.
 53 57  0  0  0  0  0  0  0  0  1 V2000
  150.7625  136.9693  154.9342 C   0  0  0  0  0  0  0  0  0  0  0  0
  151.4231  138.1143  155.7259 C   0  0  1  0  0  0  0  0  0  0  0  0
  151.3509  139.5003  155.0754 C   0  0  0  0  0  0  0  0  0  0  0  0
  151.6958  140.4440  156.2374 C   0  0  1  0  0  0  0  0  0  0  0  0
  150.8355  141.7175  156.3134 C   0  0  0  0  0  0  0  0  0  0  0  0
  151.1667  142.5654  157.5608 C   0  0  0  0  0  0  0  0  0  0  0  0
  151.5083  141.7270  158.8141 C   0  0  0  0  0  0  0  0  0  0  0  0
  150.9522  140.2991  158.7264 C   0  0  0  0  0  0  0  0  0  0  0  0
  151.5701  139.5670  157.5055 C   0  0  1  0  0  0  0  0  0  0  0  0
  150.9562  138.2972  157.1012 N   0  0  0  0  0  0  0  0  0  0  0  0
  149.6335  138.1556  157.3743 C   0  0  0  0  0  0  0  0  0  0  0  0
  148.6906  138.8403  156.6733 N   0  0  0  0  0  0  0  0  0  0  0  0
  147.3983  138.7164  156.9896 C   0  0  0  0  0  0  0  0  0  0  0  0
  146.8431  137.9883  157.9607 N   0  0  0  0  0  0  0  0  0  0  0  0
  147.7884  137.3144  158.6768 C   0  0  0  0  0  0  0  0  0  0  0  0
  149.1919  137.3371  158.4465 C   0  0  0  0  0  0  0  0  0  0  0  0
  149.8417  136.5276  159.3690 N   0  0  0  0  0  0  0  0  0  0  0  0
  148.8754  136.0525  160.1063 C   0  0  0  0  0  0  0  0  0  0  0  0
  147.6116  136.4855  159.7711 N   0  0  0  0  0  0  0  0  0  0  0  0
  146.3661  136.1257  160.4304 C   0  0  0  0  0  0  0  0  0  0  0  0
  146.4437  136.1558  161.9790 C   0  0  1  0  0  0  0  0  0  0  0  0
  147.1681  137.2963  162.3994 O   0  0  0  0  0  0  0  0  0  0  0  0
  145.0661  136.1685  162.6211 C   0  0  0  0  0  0  0  0  0  0  0  0
  144.7078  134.6856  162.6854 C   0  0  0  0  0  0  0  0  0  0  0  0
  145.9455  133.9862  162.7774 O   0  0  0  0  0  0  0  0  0  0  0  0
  147.0352  134.8878  162.6103 C   0  0  0  0  0  0  0  0  0  0  0  0
  151.2584  136.8355  153.9728 H   0  0  0  0  0  0  0  0  0  0  0  0
  149.7093  137.1556  154.7274 H   0  0  0  0  0  0  0  0  0  0  0  0
  150.8376  136.0260  155.4757 H   0  0  0  0  0  0  0  0  0  0  0  0
  152.4787  137.8519  155.8151 H   0  0  0  0  0  0  0  0  0  0  0  0
  152.0412  139.6009  154.2374 H   0  0  0  0  0  0  0  0  0  0  0  0
  150.3469  139.6977  154.6983 H   0  0  0  0  0  0  0  0  0  0  0  0
  152.7399  140.7467  156.1425 H   0  0  0  0  0  0  0  0  0  0  0  0
  150.9579  142.3167  155.4107 H   0  0  0  0  0  0  0  0  0  0  0  0
  149.7827  141.4343  156.3475 H   0  0  0  0  0  0  0  0  0  0  0  0
  152.0046  143.2288  157.3437 H   0  0  0  0  0  0  0  0  0  0  0  0
  150.3182  143.2168  157.7734 H   0  0  0  0  0  0  0  0  0  0  0  0
  152.5918  141.6730  158.9272 H   0  0  0  0  0  0  0  0  0  0  0  0
  151.1355  142.2264  159.7089 H   0  0  0  0  0  0  0  0  0  0  0  0
  151.1646  139.7458  159.6417 H   0  0  0  0  0  0  0  0  0  0  0  0
  149.8667  140.3735  158.6542 H   0  0  0  0  0  0  0  0  0  0  0  0
  152.5866  139.3005  157.7997 H   0  0  0  0  0  0  0  0  0  0  0  0
  146.7122  139.2874  156.3818 H   0  0  0  0  0  0  0  0  0  0  0  0
  149.0605  135.3770  160.9290 H   0  0  0  0  0  0  0  0  0  0  0  0
  145.5876  136.8048  160.0803 H   0  0  0  0  0  0  0  0  0  0  0  0
  146.0794  135.1326  160.0830 H   0  0  0  0  0  0  0  0  0  0  0  0
  147.0285  137.4172  163.3261 H   0  0  0  0  0  0  0  0  0  0  0  0
  145.1221  136.5642  163.6367 H   0  0  0  0  0  0  0  0  0  0  0  0
  144.3333  136.7625  162.0735 H   0  0  0  0  0  0  0  0  0  0  0  0
  144.0582  134.4539  163.5297 H   0  0  0  0  0  0  0  0  0  0  0  0
  144.1986  134.3726  161.7735 H   0  0  0  0  0  0  0  0  0  0  0  0
  147.8463  134.4393  162.0390 H   0  0  0  0  0  0  0  0  0  0  0  0
  147.4272  135.1060  163.6052 H   0  0  0  0  0  0  0  0  0  0  0  0
  1  2  1  0  0  0  0
  1 27  1  0  0  0  0
  1 28  1  0  0  0  0
  1 29  1  0  0  0  0
  2 10  1  0  0  0  0
  2  3  1  0  0  0  0
  2 30  1  0  0  0  0
  3  4  1  0  0  0  0
  3 31  1  0  0  0  0
  3 32  1  0  0  0  0
  4  9  1  0  0  0  0
  4  5  1  0  0  0  0
  4 33  1  0  0  0  0
  5  6  1  0  0  0  0
  5 34  1  0  0  0  0
  5 35  1  0  0  0  0
  6  7  1  0  0  0  0
  6 36  1  0  0  0  0
  6 37  1  0  0  0  0
  7  8  1  0  0  0  0
  7 38  1  0  0  0  0
  7 39  1  0  0  0  0
  8  9  1  0  0  0  0
  8 40  1  0  0  0  0
  8 41  1  0  0  0  0
  9 10  1  0  0  0  0
  9 42  1  0  0  0  0
 10 11  1  0  0  0  0
 11 16  1  0  0  0  0
 11 12  2  0  0  0  0
 12 13  1  0  0  0  0
 13 14  2  0  0  0  0
 13 43  1  0  0  0  0
 14 15  1  0  0  0  0
 15 19  1  0  0  0  0
 15 16  2  0  0  0  0
 16 17  1  0  0  0  0
 17 18  2  0  0  0  0
 18 19  1  0  0  0  0
 18 44  1  0  0  0  0
 19 20  1  0  0  0  0
 20 21  1  0  0  0  0
 20 45  1  0  0  0  0
 20 46  1  0  0  0  0
 21 26  1  0  0  0  0
 21 22  1  0  0  0  0
 21 23  1  0  0  0  0
 22 47  1  0  0  0  0
 23 24  1  0  0  0  0
 23 48  1  0  0  0  0
 23 49  1  0  0  0  0
 24 25  1  0  0  0  0
 24 50  1  0  0  0  0
 24 51  1  0  0  0  0
 25 26  1  0  0  0  0
 26 52  1  0  0  0  0
 26 53  1  0  0  0  0
M  END
> <s_m_source_file>
AV-unprocessed.smi

> <i_m_source_file_index>
189

> <i_lp_mmshare_version>
43012

> <i_f3d_flags>
0

> <s_epik_input>
W0NIMl0xW0NIMl1bQ0gyXVtDSDJdW0NASF0oW0NASF0xMilOKFtDQEhdKFtDSDNdKVtDSDJdMiljKG5bY0hdbjMpYyhjMzQpbltjSF1uNFtDSDJdW0NAQF01KFtPSF0pW0NIMl1bQ0gyXU9bQ0gyXTU=

> <s_epik_cmdline>
J2VwaWtfcHl0aG9uJywgJy1waCcsICc3LjAnLCAnLXRuJywgJzgnLCAnLW1hJywgJzIwMCcsICctbWV0YWxfYmluZGluZycsICctaW1hZScsICc8aW5maWxlLm1hZT4nLCAnLW9tYWUnLCAnPG91dGZpbGUubWFlPic=

> <r_lp_tautomer_probability>
1

> <r_epik_Ionization_Penalty>
0.00594261

> <r_epik_Ionization_Penalty_Charging>
0

> <r_epik_Ionization_Penalty_Neutral>
0.00594261

> <r_epik_State_Penalty>
0.00429776

> <r_epik_Charging_Adjusted_Penalty>
0.00429776

> <i_epik_Tot_Q>
0

> <i_epik_Tot_abs_Q>
0

> <r_epik_Metal_State_Penalty>
-0

> <b_epik_Metal_Only>
0

> <s_lp_Force_Field>
OPLS_2005

> <r_lp_Energy>
67.8884

> <b_lp_Chiralities_Consistent>
1

> <s_lp_Variant>
AV-unprocessed.smi:189-2

> <Gold.Version>
5.8.1

> <Gold.Id.Protein>
6NUR|6NUR_protein|mol2

> <Gold.PLP.Fitness>
45.3374

> <Gold.PLP.PLP>
-41.1538

> <Gold.PLP.part.hbond>
-3.7620

> <Gold.PLP.part.metal>
0.0000

> <Gold.PLP.part.buried>
-4.8759

> <Gold.PLP.part.nonpolar>
-31.3862

> <Gold.PLP.part.repulsive>
0.0206

> <Gold.PLP.ligand.clash>
0.0000

> <Gold.PLP.ligand.torsion>
0.7156

> <Gold.PLP.Chemscore.Hbond>
1.8550

> <Gold.PLP.Chemscore.CHOScore>
0.0000

> <Gold.PLP.Chemscore.Metal>
0.0000

> <Gold.Chemscore.Hbonds>
donor molecule, donor type, donor heavy atom, donor atom, acceptor molecule, acceptor atom, score
      P1  H  6896  6907       L1    17  0.75
      P1  H  6931  6943       L1    22  0.54
      P1  H  6934  6947       L1    22  0.27

> <Gold.PLP.Chemscore.Internal.Correction>
0.0500

> <Gold.Rescore>
     Score         DG    S(hbond)    S(metal)    S(lipo)     H(rot)  DE(clash)    DE(int)     intcor
     14.08     -14.99       1.19        0.00      91.89       2.03       0.07       0.84       ----

> <Gold.Chemscore.Fitness>
14.0815

> <Gold.Chemscore.DG>
-14.9935

> <Gold.Chemscore.ZeroCoef>
-5.4800

> <Gold.Chemscore.Hbond>
1.1853

> <Gold.Chemscore.Metal>
0.0000

> <Gold.Chemscore.Lipo>
91.8854

> <Gold.Chemscore.Internal_Hbond>
0.0000

> <Gold.Chemscore.DEClash>
0.0691

> <Gold.Chemscore.DEInternal>
0.8430

> <Gold.Chemscore.Rot>
2.0297

> <Gold.Chemscore.Internal.Correction>
   9.000000E+99

> <Gold.Chemscore.Hbonds>
donor molecule, donor type, donor heavy atom, donor atom, acceptor molecule, acceptor atom, score
      P1  H  6896  6907       L1    17  0.09
      P1  H  6931  6943       L1    22  0.29
      P1  H  6934  6947       L1    22  0.25

> <Gold.Chemscore.Hbond.Weighted>
-3.9589

> <Gold.Chemscore.Metal.Weighted>
-0.0000

> <Gold.Chemscore.Lipo.Weighted>
-10.7506

> <Gold.Chemscore.Internal_Hbond.Weighted>
0.0000

> <Gold.Chemscore.DEClash.Weighted>
0.0691

> <Gold.Chemscore.DEInternal.Weighted>
0.8430

> <Gold.Chemscore.Rot.Weighted>
5.1960

> <Gold.Chemscore.Internal.Correction.Weighted>
   9.000000E+99

> <Gold.Protein.RotatedTorsions>
[ 6907 6896 6895 6894 ] final  -22.68 input  -60.11 | X-H torsion
[ 7974 7965 7964 7962 ] final  102.19 input  175.53 | X-H torsion
[ 8008 7997 7996 7995 ] final  149.59 input   59.86 | X-H torsion
[ 10167 10162 10161 10158 ] final -102.79 input  -65.29 | X-H torsion
[ 10718 10713 10712 10709 ] final   44.34 input   66.30 | X-H torsion
[ 10763 10752 10751 10750 ] final   55.10 input  -60.55 | X-H torsion
[ 11005 11000 10999 10996 ] final   -4.08 input  -57.11 | X-H torsion

> <Gold.Protein.ActiveResidues>
 VAL166  LYS551  ARG553  GLY616  TRP617  ASP618  TYR619  PRO620  LYS621  CYS622 
 ASP623  PHE694  ASN695  SER759  ASP760  ASP761  ALA762  ILE779  LEU786  VAL792 
 PHE793  MET794  SER795  GLU796  ALA797  LYS798  CYS799  TRP800  GLU811  SER814 

> <Gold.Protein.RotatedAtoms>
  151.2150  135.0496  159.8926 H   0  0  0  0  0  0  0  0  0  0  0  0  # atno 6907 bound_to 6896
  152.5421  134.0703  159.8201 H   0  0  0  0  0  0  0  0  0  0  0  0  # atno 6908 bound_to 6896
  151.0861  133.5304  159.2649 H   0  0  0  0  0  0  0  0  0  0  0  0  # atno 6909 bound_to 6896
  145.3624  139.2415  143.3500 H   0  0  0  0  0  0  0  0  0  0  0  0  # atno 7974 bound_to 7965
  156.2749  140.2097  156.5882 H   0  0  0  0  0  0  0  0  0  0  0  0  # atno 8008 bound_to 7997
  154.7003  140.0521  157.0475 H   0  0  0  0  0  0  0  0  0  0  0  0  # atno 8009 bound_to 7997
  155.0743  140.3180  155.4623 H   0  0  0  0  0  0  0  0  0  0  0  0  # atno 8010 bound_to 7997
  140.2269  143.3635  152.0921 H   0  0  0  0  0  0  0  0  0  0  0  0  # atno 10167 bound_to 10162
  157.4257  130.7995  149.7556 H   0  0  0  0  0  0  0  0  0  0  0  0  # atno 10718 bound_to 10713
  152.9812  135.5722  154.5011 H   0  0  0  0  0  0  0  0  0  0  0  0  # atno 10763 bound_to 10752
  154.4530  135.2779  155.1769 H   0  0  0  0  0  0  0  0  0  0  0  0  # atno 10764 bound_to 10752
  154.3389  135.6233  153.5640 H   0  0  0  0  0  0  0  0  0  0  0  0  # atno 10765 bound_to 10752
  140.6764  133.9192  155.8527 H   0  0  0  0  0  0  0  0  0  0  0  0  # atno 11005 bound_to 11000
  146.2921  140.4260  142.8735 LP  0  0  0  0  0  0  0  0  0  0  0  0  # atno 17320 bound_to 7965
  144.8637  140.7175  143.6091 LP  0  0  0  0  0  0  0  0  0  0  0  0  # atno 17321 bound_to 7965
  139.5124  144.6916  151.5744 LP  0  0  0  0  0  0  0  0  0  0  0  0  # atno 17342 bound_to 10162
  140.6214  143.9251  150.6529 LP  0  0  0  0  0  0  0  0  0  0  0  0  # atno 17343 bound_to 10162
  155.9896  130.3951  150.3067 LP  0  0  0  0  0  0  0  0  0  0  0  0  # atno 17370 bound_to 10713
  157.1219  131.0249  151.3005 LP  0  0  0  0  0  0  0  0  0  0  0  0  # atno 17371 bound_to 10713
  141.0352  134.0700  157.3967 LP  0  0  0  0  0  0  0  0  0  0  0  0  # atno 17394 bound_to 11000
  139.8965  135.0146  156.7056 LP  0  0  0  0  0  0  0  0  0  0  0  0  # atno 17395 bound_to 11000

$$$$
