AV-unprocessed.smi:2704|AV-procd|sdf|10442|dock1
  -GOLD-   2272014483D 1   1.00000     0.00000
 Structure written by MMmdl.
 43 44  0  0  0  0  0  0  0  0  1 V2000
  147.3086  128.3442  151.4579 C   0  0  0  0  0  0  0  0  0  0  0  0
  146.5882  129.3673  152.3486 C   0  0  0  0  0  0  0  0  0  0  0  0
  145.7012  130.3340  151.5510 C   0  0  0  0  0  0  0  0  0  0  0  0
  147.5464  130.0946  153.2423 C   0  0  0  0  0  0  0  0  0  0  0  0
  148.4748  129.4408  153.9312 N   0  0  0  0  0  0  0  0  0  0  0  0
  149.1596  130.4614  154.6055 O   0  0  0  0  0  0  0  0  0  0  0  0
  148.5655  131.6179  154.2268 C   0  0  0  0  0  0  0  0  0  0  0  0
  149.0522  132.9029  154.8155 C   0  0  0  0  0  0  0  0  0  0  0  0
  148.1924  134.1286  154.4546 C   0  0  0  0  0  0  0  0  0  0  0  0
  148.9638  135.3684  154.4294 N   0  0  0  0  0  0  0  0  0  0  0  0
  149.5366  135.9614  155.4919 C   0  0  0  0  0  0  0  0  0  0  0  0
  149.4593  135.4928  156.6284 O   0  0  0  0  0  0  0  0  0  0  0  0
  150.3029  137.2846  155.2616 C   0  0  0  0  0  0  0  0  0  0  0  0
  151.3774  137.0831  154.3541 O   0  0  0  0  0  0  0  0  0  0  0  0
  149.3461  138.3392  154.6525 C   0  0  0  0  0  0  0  0  0  0  0  0
  149.9821  139.7369  154.5456 C   0  0  0  0  0  0  0  0  0  0  0  0
  150.5229  140.2095  155.9022 C   0  0  0  0  0  0  0  0  0  0  0  0
  151.5217  139.1966  156.4798 C   0  0  0  0  0  0  0  0  0  0  0  0
  150.8921  137.7968  156.6006 C   0  0  0  0  0  0  0  0  0  0  0  0
  147.5434  131.4495  153.3909 N   0  0  0  0  0  0  0  0  0  0  0  0
  147.8653  127.6249  152.0595 H   0  0  0  0  0  0  0  0  0  0  0  0
  148.0134  128.8307  150.7827 H   0  0  0  0  0  0  0  0  0  0  0  0
  146.5980  127.7850  150.8489 H   0  0  0  0  0  0  0  0  0  0  0  0
  145.9164  128.7957  152.9912 H   0  0  0  0  0  0  0  0  0  0  0  0
  145.1490  130.9984  152.2162 H   0  0  0  0  0  0  0  0  0  0  0  0
  144.9726  129.7914  150.9483 H   0  0  0  0  0  0  0  0  0  0  0  0
  146.2947  130.9510  150.8761 H   0  0  0  0  0  0  0  0  0  0  0  0
  149.0883  132.7897  155.8993 H   0  0  0  0  0  0  0  0  0  0  0  0
  150.0804  133.0654  154.4901 H   0  0  0  0  0  0  0  0  0  0  0  0
  147.6897  133.9670  153.4997 H   0  0  0  0  0  0  0  0  0  0  0  0
  147.4018  134.2445  155.1961 H   0  0  0  0  0  0  0  0  0  0  0  0
  149.0724  135.8211  153.5330 H   0  0  0  0  0  0  0  0  0  0  0  0
  151.0156  136.8410  153.5152 H   0  0  0  0  0  0  0  0  0  0  0  0
  149.0115  138.0146  153.6664 H   0  0  0  0  0  0  0  0  0  0  0  0
  148.4468  138.4208  155.2650 H   0  0  0  0  0  0  0  0  0  0  0  0
  150.7900  139.7229  153.8131 H   0  0  0  0  0  0  0  0  0  0  0  0
  149.2450  140.4490  154.1735 H   0  0  0  0  0  0  0  0  0  0  0  0
  151.0011  141.1835  155.7937 H   0  0  0  0  0  0  0  0  0  0  0  0
  149.6952  140.3463  156.5994 H   0  0  0  0  0  0  0  0  0  0  0  0
  152.4075  139.1521  155.8454 H   0  0  0  0  0  0  0  0  0  0  0  0
  151.8643  139.5323  157.4590 H   0  0  0  0  0  0  0  0  0  0  0  0
  150.1089  137.8418  157.3594 H   0  0  0  0  0  0  0  0  0  0  0  0
  151.6359  137.0938  156.9788 H   0  0  0  0  0  0  0  0  0  0  0  0
  1  2  1  0  0  0  0
  1 21  1  0  0  0  0
  1 22  1  0  0  0  0
  1 23  1  0  0  0  0
  2  3  1  0  0  0  0
  2  4  1  0  0  0  0
  2 24  1  0  0  0  0
  3 25  1  0  0  0  0
  3 26  1  0  0  0  0
  3 27  1  0  0  0  0
  4 20  1  0  0  0  0
  4  5  2  0  0  0  0
  5  6  1  0  0  0  0
  6  7  1  0  0  0  0
  7  8  1  0  0  0  0
  7 20  2  0  0  0  0
  8  9  1  0  0  0  0
  8 28  1  0  0  0  0
  8 29  1  0  0  0  0
  9 10  1  0  0  0  0
  9 30  1  0  0  0  0
  9 31  1  0  0  0  0
 10 11  1  0  0  0  0
 10 32  1  0  0  0  0
 11 12  2  0  0  0  0
 11 13  1  0  0  0  0
 13 19  1  0  0  0  0
 13 14  1  0  0  0  0
 13 15  1  0  0  0  0
 14 33  1  0  0  0  0
 15 16  1  0  0  0  0
 15 34  1  0  0  0  0
 15 35  1  0  0  0  0
 16 17  1  0  0  0  0
 16 36  1  0  0  0  0
 16 37  1  0  0  0  0
 17 18  1  0  0  0  0
 17 38  1  0  0  0  0
 17 39  1  0  0  0  0
 18 19  1  0  0  0  0
 18 40  1  0  0  0  0
 18 41  1  0  0  0  0
 19 42  1  0  0  0  0
 19 43  1  0  0  0  0
M  END
> <s_m_source_file>
AV-unprocessed.smi

> <i_m_source_file_index>
2704

> <i_lp_mmshare_version>
43012

> <i_f3d_flags>
0

> <s_epik_input>
W0NIM11bQ0hdKFtDSDNdKWMxbm9jKG4xKVtDSDJdW0NIMl1bTkhdQyg9TylDMihbT0hdKVtDSDJdW0NIMl1bQ0gyXVtDSDJdW0NIMl0y

> <s_epik_cmdline>
J2VwaWtfcHl0aG9uJywgJy1waCcsICc3LjAnLCAnLXRuJywgJzgnLCAnLW1hJywgJzIwMCcsICctbWV0YWxfYmluZGluZycsICctaW1hZScsICc8aW5maWxlLm1hZT4nLCAnLW9tYWUnLCAnPG91dGZpbGUubWFlPic=

> <r_lp_tautomer_probability>
1

> <r_epik_Ionization_Penalty>
7.72761e-08

> <r_epik_Ionization_Penalty_Charging>
0

> <r_epik_Ionization_Penalty_Neutral>
7.72761e-08

> <r_epik_State_Penalty>
-0

> <r_epik_Charging_Adjusted_Penalty>
0

> <i_epik_Tot_Q>
0

> <i_epik_Tot_abs_Q>
0

> <r_epik_Metal_State_Penalty>
-0

> <b_epik_Metal_Only>
0

> <s_lp_Force_Field>
OPLS_2005

> <r_lp_Energy>
5.6077

> <b_lp_Chiralities_Consistent>
1

> <s_lp_Variant>
AV-unprocessed.smi:2704-1

> <Gold.Version>
5.8.1

> <Gold.Id.Protein>
6NUR|6NUR_protein|mol2

> <Gold.PLP.Fitness>
44.8668

> <Gold.PLP.PLP>
-36.6777

> <Gold.PLP.part.hbond>
-3.0000

> <Gold.PLP.part.metal>
0.0000

> <Gold.PLP.part.buried>
-3.1394

> <Gold.PLP.part.nonpolar>
-30.2290

> <Gold.PLP.part.repulsive>
0.3628

> <Gold.PLP.ligand.clash>
0.0000

> <Gold.PLP.ligand.torsion>
0.4089

> <Gold.PLP.Chemscore.Hbond>
2.9600

> <Gold.PLP.Chemscore.CHOScore>
0.0000

> <Gold.PLP.Chemscore.Metal>
0.0000

> <Gold.Chemscore.Hbonds>
donor molecule, donor type, donor heavy atom, donor atom, acceptor molecule, acceptor atom, score
      L1  H    10    32       P1  7948  1.00
      L1  H    14    33       P1  7949  0.57
      P1  H 10752 10763       L1    14  0.12

> <Gold.PLP.Chemscore.Internal.Correction>
0.1268

> <Gold.Rescore>
     Score         DG    S(hbond)    S(metal)    S(lipo)     H(rot)  DE(clash)    DE(int)     intcor
     13.61     -14.68       1.87        0.00      79.99       2.50       0.29       0.78       ----

> <Gold.Chemscore.Fitness>
13.6078

> <Gold.Chemscore.DG>
-14.6783

> <Gold.Chemscore.ZeroCoef>
-5.4800

> <Gold.Chemscore.Hbond>
1.8682

> <Gold.Chemscore.Metal>
0.0000

> <Gold.Chemscore.Lipo>
79.9901

> <Gold.Chemscore.Internal_Hbond>
0.0000

> <Gold.Chemscore.DEClash>
0.2862

> <Gold.Chemscore.DEInternal>
0.7843

> <Gold.Chemscore.Rot>
2.5001

> <Gold.Chemscore.Internal.Correction>
   9.000000E+99

> <Gold.Chemscore.Hbonds>
donor molecule, donor type, donor heavy atom, donor atom, acceptor molecule, acceptor atom, score
      L1  H    10    32       P1  7948  0.85
      L1  H    14    33       P1  7949  0.16

> <Gold.Chemscore.Hbond.Weighted>
-6.2397

> <Gold.Chemscore.Metal.Weighted>
-0.0000

> <Gold.Chemscore.Lipo.Weighted>
-9.3588

> <Gold.Chemscore.Internal_Hbond.Weighted>
0.0000

> <Gold.Chemscore.DEClash.Weighted>
0.2862

> <Gold.Chemscore.DEInternal.Weighted>
0.7843

> <Gold.Chemscore.Rot.Weighted>
6.4002

> <Gold.Chemscore.Internal.Correction.Weighted>
   9.000000E+99

> <Gold.Protein.RotatedTorsions>
[ 6907 6896 6895 6894 ] final -144.32 input  -60.11 | X-H torsion
[ 7974 7965 7964 7962 ] final  -73.48 input  175.53 | X-H torsion
[ 8008 7997 7996 7995 ] final  -10.93 input   59.86 | X-H torsion
[ 10167 10162 10161 10158 ] final   28.24 input  -65.29 | X-H torsion
[ 10718 10713 10712 10709 ] final   42.21 input   66.30 | X-H torsion
[ 10763 10752 10751 10750 ] final   13.49 input  -60.55 | X-H torsion
[ 11005 11000 10999 10996 ] final   37.55 input  -57.11 | X-H torsion

> <Gold.Protein.ActiveResidues>
 VAL166  LYS551  ARG553  GLY616  TRP617  ASP618  TYR619  PRO620  LYS621  CYS622 
 ASP623  PHE694  ASN695  SER759  ASP760  ASP761  ALA762  ILE779  LEU786  VAL792 
 PHE793  MET794  SER795  GLU796  ALA797  LYS798  CYS799  TRP800  GLU811  SER814 

> <Gold.Protein.RotatedAtoms>
  151.1125  133.5163  159.2604 H   0  0  0  0  0  0  0  0  0  0  0  0  # atno 6907 bound_to 6896
  151.1951  135.0419  159.8859 H   0  0  0  0  0  0  0  0  0  0  0  0  # atno 6908 bound_to 6896
  152.5451  134.0960  159.8351 H   0  0  0  0  0  0  0  0  0  0  0  0  # atno 6909 bound_to 6896
  145.6516  140.9281  143.0982 H   0  0  0  0  0  0  0  0  0  0  0  0  # atno 7974 bound_to 7965
  154.5510  140.2316  155.8485 H   0  0  0  0  0  0  0  0  0  0  0  0  # atno 8008 bound_to 7997
  156.1947  140.3068  155.9363 H   0  0  0  0  0  0  0  0  0  0  0  0  # atno 8009 bound_to 7997
  155.3070  140.0434  157.3023 H   0  0  0  0  0  0  0  0  0  0  0  0  # atno 8010 bound_to 7997
  140.4870  144.0527  150.6284 H   0  0  0  0  0  0  0  0  0  0  0  0  # atno 10167 bound_to 10162
  157.4023  130.7867  149.7359 H   0  0  0  0  0  0  0  0  0  0  0  0  # atno 10718 bound_to 10713
  153.1715  135.6813  153.8601 H   0  0  0  0  0  0  0  0  0  0  0  0  # atno 10763 bound_to 10752
  153.7963  135.3162  155.3386 H   0  0  0  0  0  0  0  0  0  0  0  0  # atno 10764 bound_to 10752
  154.8001  135.4783  154.0348 H   0  0  0  0  0  0  0  0  0  0  0  0  # atno 10765 bound_to 10752
  140.2215  134.3635  155.8003 H   0  0  0  0  0  0  0  0  0  0  0  0  # atno 11005 bound_to 11000
  144.7120  139.8334  143.7411 LP  0  0  0  0  0  0  0  0  0  0  0  0  # atno 17320 bound_to 7965
  146.1199  139.4215  143.0235 LP  0  0  0  0  0  0  0  0  0  0  0  0  # atno 17321 bound_to 7965
  140.3785  143.2815  152.0197 LP  0  0  0  0  0  0  0  0  0  0  0  0  # atno 17342 bound_to 10162
  139.4844  144.6173  151.7321 LP  0  0  0  0  0  0  0  0  0  0  0  0  # atno 17343 bound_to 10162
  155.9827  130.4007  150.3404 LP  0  0  0  0  0  0  0  0  0  0  0  0  # atno 17370 bound_to 10713
  157.1533  131.0326  151.2875 LP  0  0  0  0  0  0  0  0  0  0  0  0  # atno 17371 bound_to 10713
  141.2223  133.7196  156.8583 LP  0  0  0  0  0  0  0  0  0  0  0  0  # atno 17394 bound_to 11000
  140.1845  134.9010  157.2988 LP  0  0  0  0  0  0  0  0  0  0  0  0  # atno 17395 bound_to 11000

$$$$
