AV-unprocessed.smi:1691|AV-procd|sdf|6776|dock2
  -GOLD-   22720 7533D 1   1.00000     0.00000
 Structure written by MMmdl.
 43 44  0  0  0  0  0  0  0  0  1 V2000
  147.0815  141.4754  153.8309 C   0  0  0  0  0  0  0  0  0  0  0  0
  148.1839  140.7636  154.6369 C   0  0  0  0  0  0  0  0  0  0  0  0
  149.4580  141.6252  154.7311 C   0  0  0  0  0  0  0  0  0  0  0  0
  148.4448  139.2785  154.1881 C   0  0  2  0  0  0  0  0  0  0  0  0
  147.1373  138.4255  154.2312 C   0  0  0  0  0  0  0  0  0  0  0  0
  147.0657  137.4226  153.1765 N   0  0  0  0  0  0  0  0  0  0  0  0
  145.9497  136.7928  152.7868 C   0  0  0  0  0  0  0  0  0  0  0  0
  144.8459  136.9800  153.2991 O   0  0  0  0  0  0  0  0  0  0  0  0
  146.1991  135.9451  151.7756 N   0  0  0  0  0  0  0  0  0  0  0  0
  145.2680  135.1257  151.0892 C   0  0  0  0  0  0  0  0  0  0  0  0
  145.4588  133.7459  150.8062 C   0  0  0  0  0  0  0  0  0  0  0  0
  144.4248  133.2393  150.1501 N   0  0  0  0  0  0  0  0  0  0  0  0
  143.5761  134.2828  150.0110 N   0  0  0  0  0  0  0  0  0  0  0  0
  144.0477  135.4515  150.5672 C   0  0  0  0  0  0  0  0  0  0  0  0
  149.5848  138.6564  154.9165 N   0  0  0  0  0  0  0  0  0  0  0  0
  149.5250  137.1896  154.9683 C   0  0  0  0  0  0  0  0  0  0  0  0
  150.7195  136.5648  155.7104 C   0  0  0  0  0  0  0  0  0  0  0  0
  151.9338  136.9732  155.0977 O   0  0  0  0  0  0  0  0  0  0  0  0
  152.0740  138.3864  155.0881 C   0  0  0  0  0  0  0  0  0  0  0  0
  150.8891  139.0176  154.3371 C   0  0  0  0  0  0  0  0  0  0  0  0
  142.6886  134.1830  149.5387 H   0  0  0  0  0  0  0  0  0  0  0  0
  147.3867  141.6779  152.8044 H   0  0  0  0  0  0  0  0  0  0  0  0
  146.8259  142.4330  154.2851 H   0  0  0  0  0  0  0  0  0  0  0  0
  146.1712  140.8762  153.7988 H   0  0  0  0  0  0  0  0  0  0  0  0
  147.8151  140.7713  155.6566 H   0  0  0  0  0  0  0  0  0  0  0  0
  149.8594  141.9007  153.7579 H   0  0  0  0  0  0  0  0  0  0  0  0
  150.2419  141.1110  155.2870 H   0  0  0  0  0  0  0  0  0  0  0  0
  149.2501  142.5578  155.2563 H   0  0  0  0  0  0  0  0  0  0  0  0
  148.7348  139.3137  153.1368 H   0  0  0  0  0  0  0  0  0  0  0  0
  147.0774  137.8486  155.1532 H   0  0  0  0  0  0  0  0  0  0  0  0
  146.2610  139.0759  154.2124 H   0  0  0  0  0  0  0  0  0  0  0  0
  147.9274  137.2048  152.6984 H   0  0  0  0  0  0  0  0  0  0  0  0
  147.1556  135.8836  151.4586 H   0  0  0  0  0  0  0  0  0  0  0  0
  146.2957  133.1082  151.0504 H   0  0  0  0  0  0  0  0  0  0  0  0
  143.4869  136.3738  150.5376 H   0  0  0  0  0  0  0  0  0  0  0  0
  148.6308  136.8621  155.4963 H   0  0  0  0  0  0  0  0  0  0  0  0
  149.4701  136.7833  153.9572 H   0  0  0  0  0  0  0  0  0  0  0  0
  150.7168  136.8577  156.7614 H   0  0  0  0  0  0  0  0  0  0  0  0
  150.6556  135.4770  155.6822 H   0  0  0  0  0  0  0  0  0  0  0  0
  152.1304  138.7643  156.1103 H   0  0  0  0  0  0  0  0  0  0  0  0
  153.0132  138.6457  154.5993 H   0  0  0  0  0  0  0  0  0  0  0  0
  150.9244  138.7061  153.2920 H   0  0  0  0  0  0  0  0  0  0  0  0
  151.0566  140.0903  154.3407 H   0  0  0  0  0  0  0  0  0  0  0  0
  1  2  1  0  0  0  0
  1 22  1  0  0  0  0
  1 23  1  0  0  0  0
  1 24  1  0  0  0  0
  2  3  1  0  0  0  0
  2  4  1  0  0  0  0
  2 25  1  0  0  0  0
  3 26  1  0  0  0  0
  3 27  1  0  0  0  0
  3 28  1  0  0  0  0
  4  5  1  0  0  0  0
  4 15  1  0  0  0  0
  4 29  1  0  0  0  0
  5  6  1  0  0  0  0
  5 30  1  0  0  0  0
  5 31  1  0  0  0  0
  6  7  1  0  0  0  0
  6 32  1  0  0  0  0
  7  8  2  0  0  0  0
  7  9  1  0  0  0  0
  9 10  1  0  0  0  0
  9 33  1  0  0  0  0
 10 14  2  0  0  0  0
 10 11  1  0  0  0  0
 11 12  2  0  0  0  0
 11 34  1  0  0  0  0
 12 13  1  0  0  0  0
 13 21  1  0  0  0  0
 13 14  1  0  0  0  0
 14 35  1  0  0  0  0
 15 20  1  0  0  0  0
 15 16  1  0  0  0  0
 16 17  1  0  0  0  0
 16 36  1  0  0  0  0
 16 37  1  0  0  0  0
 17 18  1  0  0  0  0
 17 38  1  0  0  0  0
 17 39  1  0  0  0  0
 18 19  1  0  0  0  0
 19 20  1  0  0  0  0
 19 40  1  0  0  0  0
 19 41  1  0  0  0  0
 20 42  1  0  0  0  0
 20 43  1  0  0  0  0
M  END
> <s_m_source_file>
AV-unprocessed.smi

> <i_m_source_file_index>
1691

> <i_lp_mmshare_version>
43012

> <i_f3d_flags>
0

> <s_epik_input>
W0NIMl0xW0NIMl1PW0NIMl1bQ0gyXU4xW0NASF0oW0NIXShbQ0gzXSlbQ0gzXSlbQ0gyXVtOSF1DKD1PKVtOSF1jMltjSF1uW25IXVtjSF0y

> <s_epik_cmdline>
J2VwaWtfcHl0aG9uJywgJy1waCcsICc3LjAnLCAnLXRuJywgJzgnLCAnLW1hJywgJzIwMCcsICctbWV0YWxfYmluZGluZycsICctaW1hZScsICc8aW5maWxlLm1hZT4nLCAnLW9tYWUnLCAnPG91dGZpbGUubWFlPic=

> <r_lp_tautomer_probability>
0.5

> <r_epik_Ionization_Penalty>
0.462189

> <r_epik_Ionization_Penalty_Charging>
0

> <r_epik_Ionization_Penalty_Neutral>
0.462189

> <r_epik_State_Penalty>
0.465733

> <r_epik_Charging_Adjusted_Penalty>
0.465733

> <i_epik_Tot_Q>
0

> <i_epik_Tot_abs_Q>
0

> <r_epik_Metal_State_Penalty>
0.465732

> <b_epik_Metal_Only>
0

> <s_lp_Force_Field>
OPLS_2005

> <r_lp_Energy>
39.5342

> <b_lp_Chiralities_Consistent>
1

> <s_lp_Variant>
AV-unprocessed.smi:1691-3

> <Gold.Version>
5.8.1

> <Gold.Id.Protein>
6NUR|6NUR_protein|mol2

> <Gold.PLP.Fitness>
43.1032

> <Gold.PLP.PLP>
-30.9007

> <Gold.PLP.part.hbond>
-4.0000

> <Gold.PLP.part.metal>
0.0000

> <Gold.PLP.part.buried>
-3.8441

> <Gold.PLP.part.nonpolar>
-22.8144

> <Gold.PLP.part.repulsive>
0.5860

> <Gold.PLP.ligand.clash>
0.0000

> <Gold.PLP.ligand.torsion>
1.6073

> <Gold.PLP.Chemscore.Hbond>
3.9840

> <Gold.PLP.Chemscore.CHOScore>
1.0000

> <Gold.PLP.Chemscore.Metal>
0.0000

> <Gold.Chemscore.Hbonds>
donor molecule, donor type, donor heavy atom, donor atom, acceptor molecule, acceptor atom, score
      L1  H     6    32       P1  7948  1.00
      L1  H     9    33       P1  7948  0.96
      L1  H    13    21       P1 10186  0.98
      P1  H 10752 10763       L1    18  1.00
      L1  C    14    35       P1 10171  1.00

> <Gold.PLP.Chemscore.Internal.Correction>
0.4651

> <Gold.Rescore>
     Score         DG    S(hbond)    S(metal)    S(lipo)     H(rot)  DE(clash)    DE(int)     intcor
     19.71     -21.79       3.91        0.00      67.01       1.79       0.00       2.08       ----

> <Gold.Chemscore.Fitness>
19.7115

> <Gold.Chemscore.DG>
-21.7898

> <Gold.Chemscore.ZeroCoef>
-5.4800

> <Gold.Chemscore.Hbond>
3.9074

> <Gold.Chemscore.Metal>
0.0000

> <Gold.Chemscore.Lipo>
67.0059

> <Gold.Chemscore.Internal_Hbond>
0.0000

> <Gold.Chemscore.DEClash>
0.0000

> <Gold.Chemscore.DEInternal>
2.0783

> <Gold.Chemscore.Rot>
1.7893

> <Gold.Chemscore.Internal.Correction>
   9.000000E+99

> <Gold.Chemscore.Hbonds>
donor molecule, donor type, donor heavy atom, donor atom, acceptor molecule, acceptor atom, score
      L1  H     6    32       P1  7948  0.98
      L1  H     9    33       P1  7948  0.92
      L1  H    13    21       P1 10186  0.93
      P1  H 10752 10763       L1    18  0.78

> <Gold.Chemscore.Hbond.Weighted>
-13.0506

> <Gold.Chemscore.Metal.Weighted>
-0.0000

> <Gold.Chemscore.Lipo.Weighted>
-7.8397

> <Gold.Chemscore.Internal_Hbond.Weighted>
0.0000

> <Gold.Chemscore.DEClash.Weighted>
0.0000

> <Gold.Chemscore.DEInternal.Weighted>
2.0783

> <Gold.Chemscore.Rot.Weighted>
4.5805

> <Gold.Chemscore.Internal.Correction.Weighted>
   9.000000E+99

> <Gold.Protein.RotatedTorsions>
[ 6907 6896 6895 6894 ] final  101.28 input  -60.11 | X-H torsion
[ 7974 7965 7964 7962 ] final  -88.35 input  175.53 | X-H torsion
[ 8008 7997 7996 7995 ] final -148.11 input   59.86 | X-H torsion
[ 10167 10162 10161 10158 ] final  149.05 input  -65.29 | X-H torsion
[ 10718 10713 10712 10709 ] final  -52.58 input   66.30 | X-H torsion
[ 10763 10752 10751 10750 ] final   65.73 input  -60.55 | X-H torsion
[ 11005 11000 10999 10996 ] final  -19.56 input  -57.11 | X-H torsion

> <Gold.Protein.ActiveResidues>
 VAL166  LYS551  ARG553  GLY616  TRP617  ASP618  TYR619  PRO620  LYS621  CYS622 
 ASP623  PHE694  ASN695  SER759  ASP760  ASP761  ALA762  ILE779  LEU786  VAL792 
 PHE793  MET794  SER795  GLU796  ALA797  LYS798  CYS799  TRP800  GLU811  SER814 

> <Gold.Protein.RotatedAtoms>
  152.5353  134.0149  159.7955 H   0  0  0  0  0  0  0  0  0  0  0  0  # atno 6907 bound_to 6896
  151.0345  133.5753  159.2664 H   0  0  0  0  0  0  0  0  0  0  0  0  # atno 6908 bound_to 6896
  151.2745  135.0702  159.9200 H   0  0  0  0  0  0  0  0  0  0  0  0  # atno 6909 bound_to 6896
  145.4544  140.9561  143.2004 H   0  0  0  0  0  0  0  0  0  0  0  0  # atno 7974 bound_to 7965
  155.5863  140.0648  157.2770 H   0  0  0  0  0  0  0  0  0  0  0  0  # atno 8008 bound_to 7997
  154.4318  140.1843  156.1075 H   0  0  0  0  0  0  0  0  0  0  0  0  # atno 8009 bound_to 7997
  156.0267  140.3311  155.7099 H   0  0  0  0  0  0  0  0  0  0  0  0  # atno 8010 bound_to 7997
  139.4866  144.5632  151.7193 H   0  0  0  0  0  0  0  0  0  0  0  0  # atno 10167 bound_to 10162
  156.1609  130.4149  149.9794 H   0  0  0  0  0  0  0  0  0  0  0  0  # atno 10718 bound_to 10713
  153.0109  135.5346  154.6713 H   0  0  0  0  0  0  0  0  0  0  0  0  # atno 10763 bound_to 10752
  154.5897  135.2857  155.0650 H   0  0  0  0  0  0  0  0  0  0  0  0  # atno 10764 bound_to 10752
  154.1748  135.6526  153.5071 H   0  0  0  0  0  0  0  0  0  0  0  0  # atno 10765 bound_to 10752
  140.8379  133.7948  155.9828 H   0  0  0  0  0  0  0  0  0  0  0  0  # atno 11005 bound_to 11000
  144.8042  139.6084  143.7058 LP  0  0  0  0  0  0  0  0  0  0  0  0  # atno 17320 bound_to 7965
  146.2486  139.6152  142.9442 LP  0  0  0  0  0  0  0  0  0  0  0  0  # atno 17321 bound_to 7965
  140.5205  144.0886  150.6021 LP  0  0  0  0  0  0  0  0  0  0  0  0  # atno 17342 bound_to 10162
  140.3842  143.2786  152.0135 LP  0  0  0  0  0  0  0  0  0  0  0  0  # atno 17343 bound_to 10162
  156.7624  130.9156  151.3642 LP  0  0  0  0  0  0  0  0  0  0  0  0  # atno 17370 bound_to 10713
  157.6732  130.9070  150.0088 LP  0  0  0  0  0  0  0  0  0  0  0  0  # atno 17371 bound_to 10713
  140.8927  134.2475  157.5085 LP  0  0  0  0  0  0  0  0  0  0  0  0  # atno 17394 bound_to 11000
  139.8704  134.9669  156.4579 LP  0  0  0  0  0  0  0  0  0  0  0  0  # atno 17395 bound_to 11000

$$$$
