AV-unprocessed.smi:712|AV-procd|sdf|3470|dock5
  -GOLD-   22720 0463D 1   1.00000     0.00000
 Structure written by MMmdl.
 51 52  0  0  0  0  0  0  0  0  2 V2000
  148.0327  141.9185  157.7618 C   0  0  0  0  0  0  0  0  0  0  0  0
  148.6697  140.8680  156.8755 C   0  0  0  0  0  0  0  0  0  0  0  0
  147.9588  139.6514  156.5407 C   0  0  0  0  0  0  0  0  0  0  0  0
  148.5528  138.7435  155.7509 C   0  0  0  0  0  0  0  0  0  0  0  0
  149.8485  138.9379  155.2388 N   0  0  0  0  0  0  0  0  0  0  0  0
  150.4032  137.8742  154.3850 C   0  0  0  0  0  0  0  0  0  0  0  0
  150.4536  136.5103  155.0869 C   0  0  0  0  0  0  0  0  0  0  0  0
  151.1254  136.3545  156.1075 O   0  0  0  0  0  0  0  0  0  0  0  0
  149.7269  135.5307  154.5285 N   0  0  0  0  0  0  0  0  0  0  0  0
  149.6735  134.1516  155.0021 C   0  0  0  0  0  0  0  0  0  0  0  0
  148.8148  133.2702  154.0769 C   0  0  2  0  0  0  0  0  0  0  0  0
  147.3425  133.7378  154.0465 C   0  0  0  0  0  0  0  0  0  0  0  0
  146.4896  132.8283  153.2374 N   0  3  1  0  0  0  0  0  0  0  0  0
  146.6076  133.0011  151.7635 C   0  0  0  0  0  0  0  0  0  0  0  0
  145.5583  132.1905  150.9716 C   0  0  0  0  0  0  0  0  0  0  0  0
  146.0442  131.8531  149.5520 C   0  0  0  0  0  0  0  0  0  0  0  0
  144.2233  132.9481  150.9144 C   0  0  0  0  0  0  0  0  0  0  0  0
  146.6597  131.4244  153.6848 C   0  0  0  0  0  0  0  0  0  0  0  0
  148.1459  131.0270  153.7117 C   0  0  0  0  0  0  0  0  0  0  0  0
  148.8535  131.9279  154.5525 O   0  0  0  0  0  0  0  0  0  0  0  0
  150.5767  140.0599  155.5235 C   0  0  0  0  0  0  0  0  0  0  0  0
  151.7159  140.2301  155.0869 O   0  0  0  0  0  0  0  0  0  0  0  0
  149.9158  141.0476  156.3846 C   0  0  0  0  0  0  0  0  0  0  0  0
  146.9963  141.6673  157.9888 H   0  0  0  0  0  0  0  0  0  0  0  0
  148.0464  142.8915  157.2698 H   0  0  0  0  0  0  0  0  0  0  0  0
  148.5775  142.0005  158.7026 H   0  0  0  0  0  0  0  0  0  0  0  0
  146.9645  139.4712  156.9224 H   0  0  0  0  0  0  0  0  0  0  0  0
  148.0799  137.8137  155.4698 H   0  0  0  0  0  0  0  0  0  0  0  0
  149.8164  137.7636  153.4721 H   0  0  0  0  0  0  0  0  0  0  0  0
  151.4042  138.1548  154.0507 H   0  0  0  0  0  0  0  0  0  0  0  0
  149.1948  135.7502  153.6988 H   0  0  0  0  0  0  0  0  0  0  0  0
  150.6772  133.7371  155.1114 H   0  0  0  0  0  0  0  0  0  0  0  0
  149.2377  134.1676  156.0014 H   0  0  0  0  0  0  0  0  0  0  0  0
  149.2403  133.3102  153.0730 H   0  0  0  0  0  0  0  0  0  0  0  0
  146.9484  133.7475  155.0638 H   0  0  0  0  0  0  0  0  0  0  0  0
  147.2724  134.7640  153.6884 H   0  0  0  0  0  0  0  0  0  0  0  0
  146.5451  134.0580  151.5051 H   0  0  0  0  0  0  0  0  0  0  0  0
  147.5974  132.6743  151.4411 H   0  0  0  0  0  0  0  0  0  0  0  0
  145.3620  131.2525  151.4898 H   0  0  0  0  0  0  0  0  0  0  0  0
  146.2559  132.7569  148.9796 H   0  0  0  0  0  0  0  0  0  0  0  0
  145.2915  131.2837  149.0057 H   0  0  0  0  0  0  0  0  0  0  0  0
  146.9528  131.2508  149.5721 H   0  0  0  0  0  0  0  0  0  0  0  0
  144.3292  133.9026  150.3972 H   0  0  0  0  0  0  0  0  0  0  0  0
  143.8430  133.1525  151.9158 H   0  0  0  0  0  0  0  0  0  0  0  0
  143.4640  132.3681  150.3886 H   0  0  0  0  0  0  0  0  0  0  0  0
  146.2457  131.3327  154.6897 H   0  0  0  0  0  0  0  0  0  0  0  0
  146.0851  130.7437  153.0556 H   0  0  0  0  0  0  0  0  0  0  0  0
  148.2567  130.0176  154.1079 H   0  0  0  0  0  0  0  0  0  0  0  0
  148.5773  131.0232  152.7097 H   0  0  0  0  0  0  0  0  0  0  0  0
  150.4521  141.9523  156.6322 H   0  0  0  0  0  0  0  0  0  0  0  0
  145.5313  133.0677  153.4498 H   0  0  0  0  0  0  0  0  0  0  0  0
  1  2  1  0  0  0  0
  1 24  1  0  0  0  0
  1 25  1  0  0  0  0
  1 26  1  0  0  0  0
  2 23  2  0  0  0  0
  2  3  1  0  0  0  0
  3  4  2  0  0  0  0
  3 27  1  0  0  0  0
  4  5  1  0  0  0  0
  4 28  1  0  0  0  0
  5  6  1  0  0  0  0
  5 21  1  0  0  0  0
  6  7  1  0  0  0  0
  6 29  1  0  0  0  0
  6 30  1  0  0  0  0
  7  8  2  0  0  0  0
  7  9  1  0  0  0  0
  9 10  1  0  0  0  0
  9 31  1  0  0  0  0
 10 11  1  0  0  0  0
 10 32  1  0  0  0  0
 10 33  1  0  0  0  0
 11 20  1  0  0  0  0
 11 12  1  0  0  0  0
 11 34  1  0  0  0  0
 12 13  1  0  0  0  0
 12 35  1  0  0  0  0
 12 36  1  0  0  0  0
 13 14  1  0  0  0  0
 13 18  1  0  0  0  0
 13 51  1  0  0  0  0
 14 15  1  0  0  0  0
 14 37  1  0  0  0  0
 14 38  1  0  0  0  0
 15 16  1  0  0  0  0
 15 17  1  0  0  0  0
 15 39  1  0  0  0  0
 16 40  1  0  0  0  0
 16 41  1  0  0  0  0
 16 42  1  0  0  0  0
 17 43  1  0  0  0  0
 17 44  1  0  0  0  0
 17 45  1  0  0  0  0
 18 19  1  0  0  0  0
 18 46  1  0  0  0  0
 18 47  1  0  0  0  0
 19 20  1  0  0  0  0
 19 48  1  0  0  0  0
 19 49  1  0  0  0  0
 21 22  2  0  0  0  0
 21 23  1  0  0  0  0
 23 50  1  0  0  0  0
M  CHG  1  13   1
M  END
> <s_m_source_file>
AV-unprocessed.smi

> <i_m_source_file_index>
712

> <i_lp_mmshare_version>
43012

> <i_f3d_flags>
0

> <s_epik_input>
W0NIM11jMVtjSF1bY0hdbihjKD1PKVtjSF0xKVtDSDJdQyg9TylbTkhdW0NIMl1bQ0BASF0yW0NIMl1OKFtDSDJdW0NIMl1PMilbQ0gyXVtDSF0oW0NIM10pW0NIM10=

> <s_epik_cmdline>
J2VwaWtfcHl0aG9uJywgJy1waCcsICc3LjAnLCAnLXRuJywgJzgnLCAnLW1hJywgJzIwMCcsICctbWV0YWxfYmluZGluZycsICctaW1hZScsICc8aW5maWxlLm1hZT4nLCAnLW9tYWUnLCAnPG91dGZpbGUubWFlPic=

> <r_lp_tautomer_probability>
1

> <r_epik_Ionization_Penalty>
0.0975935

> <r_epik_Ionization_Penalty_Charging>
0.0975934

> <r_epik_Ionization_Penalty_Neutral>
6.27044e-08

> <r_epik_State_Penalty>
0.0877056

> <r_epik_Charging_Adjusted_Penalty>
0.185299

> <i_epik_Tot_Q>
1

> <i_epik_Tot_abs_Q>
1

> <r_epik_Metal_State_Penalty>
0.0877109

> <b_epik_Metal_Only>
0

> <s_lp_Force_Field>
OPLS_2005

> <r_lp_Energy>
30.0943

> <b_lp_Chiralities_Consistent>
1

> <s_lp_Variant>
AV-unprocessed.smi:712-3

> <Gold.Version>
5.8.1

> <Gold.Id.Protein>
6NUR|6NUR_protein|mol2

> <Gold.PLP.Fitness>
45.5136

> <Gold.PLP.PLP>
-37.8042

> <Gold.PLP.part.hbond>
-3.6192

> <Gold.PLP.part.metal>
0.0000

> <Gold.PLP.part.buried>
-5.4015

> <Gold.PLP.part.nonpolar>
-30.0003

> <Gold.PLP.part.repulsive>
0.1822

> <Gold.PLP.ligand.clash>
0.0000

> <Gold.PLP.ligand.torsion>
0.2987

> <Gold.PLP.Chemscore.Hbond>
2.7360

> <Gold.PLP.Chemscore.CHOScore>
0.0000

> <Gold.PLP.Chemscore.Metal>
0.0000

> <Gold.Chemscore.Hbonds>
donor molecule, donor type, donor heavy atom, donor atom, acceptor molecule, acceptor atom, score
      L1  H     9    31       P1  7948  1.00
      P1  H  7989  7998       L1    22  0.91

> <Gold.PLP.Chemscore.Internal.Correction>
0.0989

> <Gold.Rescore>
     Score         DG    S(hbond)    S(metal)    S(lipo)     H(rot)  DE(clash)    DE(int)     intcor
     17.23     -17.87       2.46        0.00      76.89       1.89       0.03       0.61       ----

> <Gold.Chemscore.Fitness>
17.2338

> <Gold.Chemscore.DG>
-17.8735

> <Gold.Chemscore.ZeroCoef>
-5.4800

> <Gold.Chemscore.Hbond>
2.4636

> <Gold.Chemscore.Metal>
0.0000

> <Gold.Chemscore.Lipo>
76.8889

> <Gold.Chemscore.Internal_Hbond>
0.0000

> <Gold.Chemscore.DEClash>
0.0285

> <Gold.Chemscore.DEInternal>
0.6113

> <Gold.Chemscore.Rot>
1.8871

> <Gold.Chemscore.Internal.Correction>
   9.000000E+99

> <Gold.Chemscore.Hbonds>
donor molecule, donor type, donor heavy atom, donor atom, acceptor molecule, acceptor atom, score
      L1  H     9    31       P1  7948  0.73
      P1  H  7989  7998       L1    22  0.69
      P1  H 10752 10764       L1     8  0.01

> <Gold.Chemscore.Hbond.Weighted>
-8.2285

> <Gold.Chemscore.Metal.Weighted>
-0.0000

> <Gold.Chemscore.Lipo.Weighted>
-8.9960

> <Gold.Chemscore.Internal_Hbond.Weighted>
0.0000

> <Gold.Chemscore.DEClash.Weighted>
0.0285

> <Gold.Chemscore.DEInternal.Weighted>
0.6113

> <Gold.Chemscore.Rot.Weighted>
4.8309

> <Gold.Chemscore.Internal.Correction.Weighted>
   9.000000E+99

> <Gold.Protein.RotatedTorsions>
[ 6907 6896 6895 6894 ] final  -53.39 input  -60.11 | X-H torsion
[ 7974 7965 7964 7962 ] final  100.33 input  175.53 | X-H torsion
[ 8008 7997 7996 7995 ] final  173.20 input   59.86 | X-H torsion
[ 10167 10162 10161 10158 ] final   35.78 input  -65.29 | X-H torsion
[ 10718 10713 10712 10709 ] final  -81.68 input   66.30 | X-H torsion
[ 10763 10752 10751 10750 ] final  -21.49 input  -60.55 | X-H torsion
[ 11005 11000 10999 10996 ] final  -53.46 input  -57.11 | X-H torsion

> <Gold.Protein.ActiveResidues>
 VAL166  LYS551  ARG553  GLY616  TRP617  ASP618  TYR619  PRO620  LYS621  CYS622 
 ASP623  PHE694  ASN695  SER759  ASP760  ASP761  ALA762  ILE779  LEU786  VAL792 
 PHE793  MET794  SER795  GLU796  ALA797  LYS798  CYS799  TRP800  GLU811  SER814 

> <Gold.Protein.RotatedAtoms>
  150.8431  134.7730  159.6948 H   0  0  0  0  0  0  0  0  0  0  0  0  # atno 6907 bound_to 6896
  152.4514  134.5382  159.9841 H   0  0  0  0  0  0  0  0  0  0  0  0  # atno 6908 bound_to 6896
  151.5518  133.3378  159.2990 H   0  0  0  0  0  0  0  0  0  0  0  0  # atno 6909 bound_to 6896
  145.3870  139.2369  143.3372 H   0  0  0  0  0  0  0  0  0  0  0  0  # atno 7974 bound_to 7965
  156.1099  140.1466  156.9353 H   0  0  0  0  0  0  0  0  0  0  0  0  # atno 8008 bound_to 7997
  154.4759  140.0894  156.7305 H   0  0  0  0  0  0  0  0  0  0  0  0  # atno 8009 bound_to 7997
  155.4615  140.3438  155.4315 H   0  0  0  0  0  0  0  0  0  0  0  0  # atno 8010 bound_to 7997
  140.4189  144.1487  150.6146 H   0  0  0  0  0  0  0  0  0  0  0  0  # atno 10167 bound_to 10162
  156.0046  130.4611  150.3990 H   0  0  0  0  0  0  0  0  0  0  0  0  # atno 10718 bound_to 10713
  153.6370  135.6986  153.5255 H   0  0  0  0  0  0  0  0  0  0  0  0  # atno 10763 bound_to 10752
  153.2813  135.4185  155.1081 H   0  0  0  0  0  0  0  0  0  0  0  0  # atno 10764 bound_to 10752
  154.8509  135.3602  154.5913 H   0  0  0  0  0  0  0  0  0  0  0  0  # atno 10765 bound_to 10752
  141.0977  133.6622  156.4176 H   0  0  0  0  0  0  0  0  0  0  0  0  # atno 11005 bound_to 11000
  146.2815  140.4547  142.8774 LP  0  0  0  0  0  0  0  0  0  0  0  0  # atno 17320 bound_to 7965
  144.8467  140.6939  143.6195 LP  0  0  0  0  0  0  0  0  0  0  0  0  # atno 17321 bound_to 7965
  140.4555  143.2469  151.9290 LP  0  0  0  0  0  0  0  0  0  0  0  0  # atno 17342 bound_to 10162
  139.4782  144.5519  151.8372 LP  0  0  0  0  0  0  0  0  0  0  0  0  # atno 17343 bound_to 10162
  157.2060  131.0449  151.2625 LP  0  0  0  0  0  0  0  0  0  0  0  0  # atno 17370 bound_to 10713
  157.3932  130.7293  149.6713 LP  0  0  0  0  0  0  0  0  0  0  0  0  # atno 17371 bound_to 10713
  140.5099  134.6405  157.5280 LP  0  0  0  0  0  0  0  0  0  0  0  0  # atno 17394 bound_to 11000
  139.9819  134.7124  155.9844 LP  0  0  0  0  0  0  0  0  0  0  0  0  # atno 17395 bound_to 11000

$$$$
