AV-unprocessed.smi:1014|AV-procd|sdf|4430|dock9
  -GOLD-   22720 2383D 1   1.00000     0.00000
 Structure written by MMmdl.
 34 34  0  0  0  0  0  0  0  0  2 V2000
  143.9596  132.6122  150.2977 C   0  0  0  0  0  0  0  0  0  0  0  0
  145.0189  132.9642  151.3536 C   0  0  0  0  0  0  0  0  0  0  0  0
  145.8541  134.2227  151.0318 C   0  0  2  0  0  0  0  0  0  0  0  0
  146.8489  134.4323  152.1082 N   0  3  0  0  0  0  0  0  0  0  0  0
  147.7380  133.2821  152.3849 C   0  0  0  0  0  0  0  0  0  0  0  0
  148.6704  133.5620  153.5746 C   0  0  0  0  0  0  0  0  0  0  0  0
  149.3318  132.3603  154.0508 N   0  0  0  0  0  0  0  0  0  0  0  0
  149.2394  131.0774  153.5542 C   0  0  0  0  0  0  0  0  0  0  0  0
  150.0339  130.2788  154.3272 C   0  0  0  0  0  0  0  0  0  0  0  0
  150.2817  128.8026  154.2082 C   0  0  0  0  0  0  0  0  0  0  0  0
  150.5792  131.1812  155.2839 C   0  0  0  0  0  0  0  0  0  0  0  0
  150.1570  132.4241  155.1173 N   0  0  0  0  0  0  0  0  0  0  0  0
  144.9604  135.4617  150.8595 C   0  0  0  0  0  0  0  0  0  0  0  0
  144.9742  136.0659  149.6685 N   0  0  0  0  0  0  0  0  0  0  0  0
  144.2612  135.8635  151.7878 O   0  0  0  0  0  0  0  0  0  0  0  0
  143.4571  131.6791  150.5539 H   0  0  0  0  0  0  0  0  0  0  0  0
  144.4123  132.4841  149.3142 H   0  0  0  0  0  0  0  0  0  0  0  0
  143.1928  133.3827  150.2189 H   0  0  0  0  0  0  0  0  0  0  0  0
  144.5369  133.0733  152.3266 H   0  0  0  0  0  0  0  0  0  0  0  0
  145.6913  132.1105  151.4499 H   0  0  0  0  0  0  0  0  0  0  0  0
  146.3994  134.0396  150.1040 H   0  0  0  0  0  0  0  0  0  0  0  0
  147.4109  135.2392  151.8759 H   0  0  0  0  0  0  0  0  0  0  0  0
  147.1398  132.3919  152.5848 H   0  0  0  0  0  0  0  0  0  0  0  0
  148.3378  133.0707  151.4992 H   0  0  0  0  0  0  0  0  0  0  0  0
  149.4396  134.2763  153.2783 H   0  0  0  0  0  0  0  0  0  0  0  0
  148.1219  134.0202  154.3993 H   0  0  0  0  0  0  0  0  0  0  0  0
  148.6217  130.8398  152.7006 H   0  0  0  0  0  0  0  0  0  0  0  0
  151.2799  128.5315  154.5527 H   0  0  0  0  0  0  0  0  0  0  0  0
  150.1951  128.4586  153.1772 H   0  0  0  0  0  0  0  0  0  0  0  0
  149.5696  128.2273  154.8000 H   0  0  0  0  0  0  0  0  0  0  0  0
  151.2650  130.9701  156.0911 H   0  0  0  0  0  0  0  0  0  0  0  0
  144.4102  136.8881  149.5084 H   0  0  0  0  0  0  0  0  0  0  0  0
  145.5582  135.7010  148.9294 H   0  0  0  0  0  0  0  0  0  0  0  0
  146.3445  134.6304  152.9609 H   0  0  0  0  0  0  0  0  0  0  0  0
  1  2  1  0  0  0  0
  1 16  1  0  0  0  0
  1 17  1  0  0  0  0
  1 18  1  0  0  0  0
  2  3  1  0  0  0  0
  2 19  1  0  0  0  0
  2 20  1  0  0  0  0
  3  4  1  0  0  0  0
  3 13  1  0  0  0  0
  3 21  1  0  0  0  0
  4  5  1  0  0  0  0
  4 22  1  0  0  0  0
  4 34  1  0  0  0  0
  5  6  1  0  0  0  0
  5 23  1  0  0  0  0
  5 24  1  0  0  0  0
  6  7  1  0  0  0  0
  6 25  1  0  0  0  0
  6 26  1  0  0  0  0
  7 12  1  0  0  0  0
  7  8  1  0  0  0  0
  8  9  2  0  0  0  0
  8 27  1  0  0  0  0
  9 10  1  0  0  0  0
  9 11  1  0  0  0  0
 10 28  1  0  0  0  0
 10 29  1  0  0  0  0
 10 30  1  0  0  0  0
 11 12  2  0  0  0  0
 11 31  1  0  0  0  0
 13 14  1  0  0  0  0
 13 15  2  0  0  0  0
 14 32  1  0  0  0  0
 14 33  1  0  0  0  0
M  CHG  1   4   1
M  END
> <s_m_source_file>
AV-unprocessed.smi

> <i_m_source_file_index>
1014

> <i_lp_mmshare_version>
43012

> <i_f3d_flags>
0

> <s_epik_input>
W0NIM11bQ0gyXVtDQEBIXShDKD1PKVtOSDJdKVtOSF1bQ0gyXVtDSDJdbjFbY0hdYyhbQ0gzXSlbY0hdbjE=

> <s_epik_cmdline>
J2VwaWtfcHl0aG9uJywgJy1waCcsICc3LjAnLCAnLXRuJywgJzgnLCAnLW1hJywgJzIwMCcsICctbWV0YWxfYmluZGluZycsICctaW1hZScsICc8aW5maWxlLm1hZT4nLCAnLW9tYWUnLCAnPG91dGZpbGUubWFlPic=

> <r_lp_tautomer_probability>
1

> <r_epik_Ionization_Penalty>
0.19042

> <r_epik_Ionization_Penalty_Charging>
0.190412

> <r_epik_Ionization_Penalty_Neutral>
7.5834e-06

> <r_epik_State_Penalty>
0.180404

> <r_epik_Charging_Adjusted_Penalty>
0.370816

> <i_epik_Tot_Q>
1

> <i_epik_Tot_abs_Q>
1

> <r_epik_Metal_State_Penalty>
0.180563

> <b_epik_Metal_Only>
0

> <s_lp_Force_Field>
OPLS_2005

> <r_lp_Energy>
2.67467

> <b_lp_Chiralities_Consistent>
1

> <s_lp_Variant>
AV-unprocessed.smi:1014-1

> <Gold.Version>
5.8.1

> <Gold.Id.Protein>
6NUR|6NUR_protein|mol2

> <Gold.PLP.Fitness>
47.3073

> <Gold.PLP.PLP>
-32.3581

> <Gold.PLP.part.hbond>
-3.0000

> <Gold.PLP.part.metal>
0.0000

> <Gold.PLP.part.buried>
-3.7942

> <Gold.PLP.part.nonpolar>
-25.0013

> <Gold.PLP.part.repulsive>
0.3551

> <Gold.PLP.ligand.clash>
0.0000

> <Gold.PLP.ligand.torsion>
0.0580

> <Gold.PLP.Chemscore.Hbond>
4.0000

> <Gold.PLP.Chemscore.CHOScore>
1.0000

> <Gold.PLP.Chemscore.Metal>
0.0000

> <Gold.Chemscore.Hbonds>
donor molecule, donor type, donor heavy atom, donor atom, acceptor molecule, acceptor atom, score
      L1  H     4    22       P1  7948  2.00
      L1  H    14    32       P1 10171  1.00
      L1  H    14    33       P1  7921  1.00
      L1  C     8    27       P1 10747  1.00

> <Gold.PLP.Chemscore.Internal.Correction>
0.0651

> <Gold.Rescore>
     Score         DG    S(hbond)    S(metal)    S(lipo)     H(rot)  DE(clash)    DE(int)     intcor
     15.08     -15.14       2.97        0.00      54.47       2.59       0.00       0.05       ----

> <Gold.Chemscore.Fitness>
15.0808

> <Gold.Chemscore.DG>
-15.1382

> <Gold.Chemscore.ZeroCoef>
-5.4800

> <Gold.Chemscore.Hbond>
2.9672

> <Gold.Chemscore.Metal>
0.0000

> <Gold.Chemscore.Lipo>
54.4661

> <Gold.Chemscore.Internal_Hbond>
0.0000

> <Gold.Chemscore.DEClash>
0.0042

> <Gold.Chemscore.DEInternal>
0.0532

> <Gold.Chemscore.Rot>
2.5878

> <Gold.Chemscore.Internal.Correction>
   9.000000E+99

> <Gold.Chemscore.Hbonds>
donor molecule, donor type, donor heavy atom, donor atom, acceptor molecule, acceptor atom, score
      L1  H     4    22       P1  7948  0.94
      L1  H    14    32       P1 10171  0.99
      L1  H    14    33       P1  7921  1.00

> <Gold.Chemscore.Hbond.Weighted>
-9.9104

> <Gold.Chemscore.Metal.Weighted>
-0.0000

> <Gold.Chemscore.Lipo.Weighted>
-6.3725

> <Gold.Chemscore.Internal_Hbond.Weighted>
0.0000

> <Gold.Chemscore.DEClash.Weighted>
0.0042

> <Gold.Chemscore.DEInternal.Weighted>
0.0532

> <Gold.Chemscore.Rot.Weighted>
6.6247

> <Gold.Chemscore.Internal.Correction.Weighted>
   9.000000E+99

> <Gold.Protein.RotatedTorsions>
[ 6907 6896 6895 6894 ] final   -0.26 input  -60.11 | X-H torsion
[ 7974 7965 7964 7962 ] final   35.55 input  175.53 | X-H torsion
[ 8008 7997 7996 7995 ] final   69.19 input   59.86 | X-H torsion
[ 10167 10162 10161 10158 ] final   88.70 input  -65.29 | X-H torsion
[ 10718 10713 10712 10709 ] final -130.63 input   66.30 | X-H torsion
[ 10763 10752 10751 10750 ] final  -24.87 input  -60.55 | X-H torsion
[ 11005 11000 10999 10996 ] final   74.21 input  -57.11 | X-H torsion

> <Gold.Protein.ActiveResidues>
 VAL166  LYS551  ARG553  GLY616  TRP617  ASP618  TYR619  PRO620  LYS621  CYS622 
 ASP623  PHE694  ASN695  SER759  ASP760  ASP761  ALA762  ILE779  LEU786  VAL792 
 PHE793  MET794  SER795  GLU796  ALA797  LYS798  CYS799  TRP800  GLU811  SER814 

> <Gold.Protein.RotatedAtoms>
  151.5652  135.1064  159.9981 H   0  0  0  0  0  0  0  0  0  0  0  0  # atno 6907 bound_to 6896
  152.4427  133.7475  159.6686 H   0  0  0  0  0  0  0  0  0  0  0  0  # atno 6908 bound_to 6896
  150.8336  133.7981  159.3112 H   0  0  0  0  0  0  0  0  0  0  0  0  # atno 6909 bound_to 6896
  146.1275  139.6128  142.9249 H   0  0  0  0  0  0  0  0  0  0  0  0  # atno 7974 bound_to 7965
  155.7198  140.3493  155.5011 H   0  0  0  0  0  0  0  0  0  0  0  0  # atno 8008 bound_to 7997
  155.9280  140.1079  157.1176 H   0  0  0  0  0  0  0  0  0  0  0  0  # atno 8009 bound_to 7997
  154.4080  140.1236  156.4752 H   0  0  0  0  0  0  0  0  0  0  0  0  # atno 8010 bound_to 7997
  139.8646  144.6525  150.9018 H   0  0  0  0  0  0  0  0  0  0  0  0  # atno 10167 bound_to 10162
  156.2163  130.6950  151.0706 H   0  0  0  0  0  0  0  0  0  0  0  0  # atno 10718 bound_to 10713
  153.6907  135.6962  153.5091 H   0  0  0  0  0  0  0  0  0  0  0  0  # atno 10763 bound_to 10752
  153.2415  135.4304  155.0702 H   0  0  0  0  0  0  0  0  0  0  0  0  # atno 10764 bound_to 10752
  154.8373  135.3509  154.6448 H   0  0  0  0  0  0  0  0  0  0  0  0  # atno 10765 bound_to 10752
  139.9402  134.7413  156.1120 H   0  0  0  0  0  0  0  0  0  0  0  0  # atno 11005 bound_to 11000
  145.5334  141.0425  143.2370 LP  0  0  0  0  0  0  0  0  0  0  0  0  # atno 17320 bound_to 7965
  144.7656  139.6852  143.7216 LP  0  0  0  0  0  0  0  0  0  0  0  0  # atno 17321 bound_to 7965
  140.7770  143.3715  151.1641 LP  0  0  0  0  0  0  0  0  0  0  0  0  # atno 17342 bound_to 10162
  139.7341  143.9027  152.3029 LP  0  0  0  0  0  0  0  0  0  0  0  0  # atno 17343 bound_to 10162
  157.7065  131.0754  150.6650 LP  0  0  0  0  0  0  0  0  0  0  0  0  # atno 17370 bound_to 10713
  156.6711  130.4540  149.5657 LP  0  0  0  0  0  0  0  0  0  0  0  0  # atno 17371 bound_to 10713
  141.1033  133.6669  156.2805 LP  0  0  0  0  0  0  0  0  0  0  0  0  # atno 17394 bound_to 11000
  140.5971  134.5592  157.5511 LP  0  0  0  0  0  0  0  0  0  0  0  0  # atno 17395 bound_to 11000

$$$$
