AV-unprocessed.smi:1049|AV-procd|sdf|4608|dock4
  -GOLD-   22720 3103D 1   1.00000     0.00000
 Structure written by MMmdl.
 40 41  0  0  0  0  0  0  0  0  1 V2000
  148.7002  140.7838  154.8543 C   0  0  0  0  0  0  0  0  0  0  0  0
  149.7353  139.6991  155.1817 C   0  0  2  0  0  0  0  0  0  0  0  0
  151.1221  140.3109  155.4813 C   0  0  0  0  0  0  0  0  0  0  0  0
  152.2044  139.2314  155.6738 C   0  0  0  0  0  0  0  0  0  0  0  0
  152.1857  138.2265  154.5089 C   0  0  0  0  0  0  0  0  0  0  0  0
  150.8370  137.6408  154.4173 N   0  0  0  0  0  0  0  0  0  0  0  0
  150.4728  136.4114  154.8621 C   0  0  0  0  0  0  0  0  0  0  0  0
  151.1657  135.7324  155.6212 O   0  0  0  0  0  0  0  0  0  0  0  0
  149.2762  135.9917  154.4216 N   0  0  0  0  0  0  0  0  0  0  0  0
  148.6980  134.6744  154.6623 C   0  0  0  0  0  0  0  0  0  0  0  0
  147.1808  134.6410  154.3904 C   0  0  0  0  0  0  0  0  0  0  0  0
  146.8285  134.2294  152.9892 C   0  0  0  0  0  0  0  0  0  0  0  0
  147.2710  133.1081  152.4274 N   0  0  0  0  0  0  0  0  0  0  0  0
  146.7043  133.0961  151.1587 C   0  0  0  0  0  0  0  0  0  0  0  0
  145.9446  134.2273  150.9899 C   0  0  0  0  0  0  0  0  0  0  0  0
  146.0501  134.9619  152.1659 N   0  0  0  0  0  0  0  0  0  0  0  0
  145.4224  136.2464  152.4323 C   0  0  0  0  0  0  0  0  0  0  0  0
  145.7959  137.1484  151.5244 F   0  0  0  0  0  0  0  0  0  0  0  0
  144.0971  136.1214  152.4153 F   0  0  0  0  0  0  0  0  0  0  0  0
  149.8428  138.6564  154.0477 C   0  0  0  0  0  0  0  0  0  0  0  0
  148.9702  141.3292  153.9496 H   0  0  0  0  0  0  0  0  0  0  0  0
  148.6174  141.5057  155.6671 H   0  0  0  0  0  0  0  0  0  0  0  0
  147.7127  140.3487  154.6985 H   0  0  0  0  0  0  0  0  0  0  0  0
  149.3946  139.1837  156.0804 H   0  0  0  0  0  0  0  0  0  0  0  0
  151.4160  140.9581  154.6538 H   0  0  0  0  0  0  0  0  0  0  0  0
  151.0714  140.9470  156.3656 H   0  0  0  0  0  0  0  0  0  0  0  0
  153.1865  139.6983  155.7523 H   0  0  0  0  0  0  0  0  0  0  0  0
  152.0369  138.7047  156.6141 H   0  0  0  0  0  0  0  0  0  0  0  0
  152.4185  138.7375  153.5736 H   0  0  0  0  0  0  0  0  0  0  0  0
  152.9815  137.4936  154.6405 H   0  0  0  0  0  0  0  0  0  0  0  0
  148.7539  136.6117  153.8199 H   0  0  0  0  0  0  0  0  0  0  0  0
  149.2121  133.9095  154.0782 H   0  0  0  0  0  0  0  0  0  0  0  0
  148.8803  134.4336  155.7099 H   0  0  0  0  0  0  0  0  0  0  0  0
  146.7112  133.9651  155.1036 H   0  0  0  0  0  0  0  0  0  0  0  0
  146.7512  135.6247  154.5813 H   0  0  0  0  0  0  0  0  0  0  0  0
  146.8835  132.2813  150.4728 H   0  0  0  0  0  0  0  0  0  0  0  0
  145.3605  134.5644  150.1464 H   0  0  0  0  0  0  0  0  0  0  0  0
  145.7256  136.6224  153.4094 H   0  0  0  0  0  0  0  0  0  0  0  0
  148.8644  138.2198  153.8412 H   0  0  0  0  0  0  0  0  0  0  0  0
  150.1496  139.1391  153.1184 H   0  0  0  0  0  0  0  0  0  0  0  0
  1  2  1  0  0  0  0
  1 21  1  0  0  0  0
  1 22  1  0  0  0  0
  1 23  1  0  0  0  0
  2 20  1  0  0  0  0
  2  3  1  0  0  0  0
  2 24  1  0  0  0  0
  3  4  1  0  0  0  0
  3 25  1  0  0  0  0
  3 26  1  0  0  0  0
  4  5  1  0  0  0  0
  4 27  1  0  0  0  0
  4 28  1  0  0  0  0
  5  6  1  0  0  0  0
  5 29  1  0  0  0  0
  5 30  1  0  0  0  0
  6  7  1  0  0  0  0
  6 20  1  0  0  0  0
  7  8  2  0  0  0  0
  7  9  1  0  0  0  0
  9 10  1  0  0  0  0
  9 31  1  0  0  0  0
 10 11  1  0  0  0  0
 10 32  1  0  0  0  0
 10 33  1  0  0  0  0
 11 12  1  0  0  0  0
 11 34  1  0  0  0  0
 11 35  1  0  0  0  0
 12 16  1  0  0  0  0
 12 13  2  0  0  0  0
 13 14  1  0  0  0  0
 14 15  2  0  0  0  0
 14 36  1  0  0  0  0
 15 16  1  0  0  0  0
 15 37  1  0  0  0  0
 16 17  1  0  0  0  0
 17 18  1  0  0  0  0
 17 19  1  0  0  0  0
 17 38  1  0  0  0  0
 20 39  1  0  0  0  0
 20 40  1  0  0  0  0
M  END
> <s_m_source_file>
AV-unprocessed.smi

> <i_m_source_file_index>
1049

> <i_lp_mmshare_version>
43012

> <i_f3d_flags>
0

> <s_epik_input>
W0NIM11bQ0BASF0xW0NIMl1bQ0gyXVtDSDJdTihbQ0gyXTEpQyg9TylbTkhdW0NIMl1bQ0gyXWMybltjSF1bY0hdbjJbQ0hdKEYpRg==

> <s_epik_cmdline>
J2VwaWtfcHl0aG9uJywgJy1waCcsICc3LjAnLCAnLXRuJywgJzgnLCAnLW1hJywgJzIwMCcsICctbWV0YWxfYmluZGluZycsICctaW1hZScsICc8aW5maWxlLm1hZT4nLCAnLW9tYWUnLCAnPG91dGZpbGUubWFlPic=

> <r_lp_tautomer_probability>
1

> <r_epik_Ionization_Penalty>
0.101141

> <r_epik_Ionization_Penalty_Charging>
0.101077

> <r_epik_Ionization_Penalty_Neutral>
6.38597e-05

> <r_epik_State_Penalty>
0.091079

> <r_epik_Charging_Adjusted_Penalty>
0.192156

> <i_epik_Tot_Q>
0

> <i_epik_Tot_abs_Q>
0

> <r_epik_Metal_State_Penalty>
0.0777008

> <b_epik_Metal_Only>
0

> <s_lp_Force_Field>
OPLS_2005

> <r_lp_Energy>
32.1831

> <b_lp_Chiralities_Consistent>
1

> <s_lp_Variant>
AV-unprocessed.smi:1049-1

> <Gold.Version>
5.8.1

> <Gold.Id.Protein>
6NUR|6NUR_protein|mol2

> <Gold.PLP.Fitness>
42.5630

> <Gold.PLP.PLP>
-33.6718

> <Gold.PLP.part.hbond>
-2.0000

> <Gold.PLP.part.metal>
0.0000

> <Gold.PLP.part.buried>
2.9971

> <Gold.PLP.part.nonpolar>
-34.4554

> <Gold.PLP.part.repulsive>
0.2557

> <Gold.PLP.ligand.clash>
0.0041

> <Gold.PLP.ligand.torsion>
0.5817

> <Gold.PLP.Chemscore.Hbond>
1.3360

> <Gold.PLP.Chemscore.CHOScore>
1.9791

> <Gold.PLP.Chemscore.Metal>
0.0000

> <Gold.Chemscore.Hbonds>
donor molecule, donor type, donor heavy atom, donor atom, acceptor molecule, acceptor atom, score
      L1  H     9    31       P1  7948  0.27
      P1  H 10752 10764       L1     8  1.00
      L1  C    14    36       P1 10747  0.95
      L1  C    15    37       P1  7921  0.70

> <Gold.PLP.Chemscore.Internal.Correction>
0.1133

> <Gold.Rescore>
     Score         DG    S(hbond)    S(metal)    S(lipo)     H(rot)  DE(clash)    DE(int)     intcor
     12.36     -13.44       1.25        0.00      66.42       1.56       0.36       0.72       ----

> <Gold.Chemscore.Fitness>
12.3552

> <Gold.Chemscore.DG>
-13.4420

> <Gold.Chemscore.ZeroCoef>
-5.4800

> <Gold.Chemscore.Hbond>
1.2548

> <Gold.Chemscore.Metal>
0.0000

> <Gold.Chemscore.Lipo>
66.4205

> <Gold.Chemscore.Internal_Hbond>
0.0000

> <Gold.Chemscore.DEClash>
0.3637

> <Gold.Chemscore.DEInternal>
0.7230

> <Gold.Chemscore.Rot>
1.5626

> <Gold.Chemscore.Internal.Correction>
   9.000000E+99

> <Gold.Chemscore.Hbonds>
donor molecule, donor type, donor heavy atom, donor atom, acceptor molecule, acceptor atom, score
      L1  H     9    31       P1  7948  0.27
      P1  H 10752 10764       L1     8  0.77

> <Gold.Chemscore.Hbond.Weighted>
-4.1911

> <Gold.Chemscore.Metal.Weighted>
-0.0000

> <Gold.Chemscore.Lipo.Weighted>
-7.7712

> <Gold.Chemscore.Internal_Hbond.Weighted>
0.0000

> <Gold.Chemscore.DEClash.Weighted>
0.3637

> <Gold.Chemscore.DEInternal.Weighted>
0.7230

> <Gold.Chemscore.Rot.Weighted>
4.0004

> <Gold.Chemscore.Internal.Correction.Weighted>
   9.000000E+99

> <Gold.Protein.RotatedTorsions>
[ 6907 6896 6895 6894 ] final  135.43 input  -60.11 | X-H torsion
[ 7974 7965 7964 7962 ] final  163.65 input  175.53 | X-H torsion
[ 8008 7997 7996 7995 ] final  102.30 input   59.86 | X-H torsion
[ 10167 10162 10161 10158 ] final  105.34 input  -65.29 | X-H torsion
[ 10718 10713 10712 10709 ] final   -1.82 input   66.30 | X-H torsion
[ 10763 10752 10751 10750 ] final  -37.68 input  -60.55 | X-H torsion
[ 11005 11000 10999 10996 ] final  -81.70 input  -57.11 | X-H torsion

> <Gold.Protein.ActiveResidues>
 VAL166  LYS551  ARG553  GLY616  TRP617  ASP618  TYR619  PRO620  LYS621  CYS622 
 ASP623  PHE694  ASN695  SER759  ASP760  ASP761  ALA762  ILE779  LEU786  VAL792 
 PHE793  MET794  SER795  GLU796  ALA797  LYS798  CYS799  TRP800  GLU811  SER814 

> <Gold.Protein.RotatedAtoms>
  152.3005  133.5651  159.5615 H   0  0  0  0  0  0  0  0  0  0  0  0  # atno 6907 bound_to 6896
  150.7275  134.0298  159.3738 H   0  0  0  0  0  0  0  0  0  0  0  0  # atno 6908 bound_to 6896
  151.8198  135.0655  160.0474 H   0  0  0  0  0  0  0  0  0  0  0  0  # atno 6909 bound_to 6896
  144.7580  139.8212  143.6343 H   0  0  0  0  0  0  0  0  0  0  0  0  # atno 7974 bound_to 7965
  156.1380  140.3183  155.8450 H   0  0  0  0  0  0  0  0  0  0  0  0  # atno 8008 bound_to 7997
  155.4209  140.0512  157.3043 H   0  0  0  0  0  0  0  0  0  0  0  0  # atno 8009 bound_to 7997
  154.4952  140.2108  155.9474 H   0  0  0  0  0  0  0  0  0  0  0  0  # atno 8010 bound_to 7997
  139.7101  144.7079  151.1041 H   0  0  0  0  0  0  0  0  0  0  0  0  # atno 10167 bound_to 10162
  156.8000  130.5390  149.5723 H   0  0  0  0  0  0  0  0  0  0  0  0  # atno 10718 bound_to 10713
  153.9003  135.6803  153.4755 H   0  0  0  0  0  0  0  0  0  0  0  0  # atno 10763 bound_to 10752
  153.1133  135.4773  154.9070 H   0  0  0  0  0  0  0  0  0  0  0  0  # atno 10764 bound_to 10752
  154.7578  135.3202  154.8390 H   0  0  0  0  0  0  0  0  0  0  0  0  # atno 10765 bound_to 10752
  141.1666  133.7209  156.8461 H   0  0  0  0  0  0  0  0  0  0  0  0  # atno 11005 bound_to 11000
  146.1613  139.4728  142.9986 LP  0  0  0  0  0  0  0  0  0  0  0  0  # atno 17320 bound_to 7965
  145.6713  141.0216  143.1656 LP  0  0  0  0  0  0  0  0  0  0  0  0  # atno 17321 bound_to 7965
  140.7731  143.5305  150.9429 LP  0  0  0  0  0  0  0  0  0  0  0  0  # atno 17342 bound_to 10162
  139.8989  143.6860  152.3134 LP  0  0  0  0  0  0  0  0  0  0  0  0  # atno 17343 bound_to 10162
  156.1107  130.6038  151.0042 LP  0  0  0  0  0  0  0  0  0  0  0  0  # atno 17370 bound_to 10713
  157.6558  131.0889  150.7950 LP  0  0  0  0  0  0  0  0  0  0  0  0  # atno 17371 bound_to 10713
  140.1949  134.8939  157.3102 LP  0  0  0  0  0  0  0  0  0  0  0  0  # atno 17394 bound_to 11000
  140.2250  134.3977  155.7548 LP  0  0  0  0  0  0  0  0  0  0  0  0  # atno 17395 bound_to 11000

$$$$
