AV-unprocessed.smi:1673|AV-procd|sdf|6710|dock1
  -GOLD-   22720 7453D 1   1.00000     0.00000
 Structure written by MMmdl.
 39 40  0  0  0  0  0  0  0  0  1 V2000
  151.5596  138.1458  154.3881 C   0  0  0  0  0  0  0  0  0  0  0  0
  150.5165  139.2265  154.4575 C   0  0  0  0  0  0  0  0  0  0  0  0
  150.8634  140.4272  154.8978 N   0  0  0  0  0  0  0  0  0  0  0  0
  149.7251  141.2412  154.7908 O   0  0  0  0  0  0  0  0  0  0  0  0
  148.7036  140.5034  154.2828 C   0  0  0  0  0  0  0  0  0  0  0  0
  147.4014  141.1997  154.0754 C   0  0  0  0  0  0  0  0  0  0  0  0
  149.1404  139.2274  154.0832 C   0  0  0  0  0  0  0  0  0  0  0  0
  148.3539  138.1838  153.5348 N   0  0  0  0  0  0  0  0  0  0  0  0
  147.1132  137.8313  153.9033 C   0  0  0  0  0  0  0  0  0  0  0  0
  146.4379  138.4171  154.7489 O   0  0  0  0  0  0  0  0  0  0  0  0
  146.6894  136.7600  153.2178 N   0  0  0  0  0  0  0  0  0  0  0  0
  145.3909  136.0993  153.3656 C   0  0  1  0  0  0  0  0  0  0  0  0
  144.5637  136.2827  152.0771 C   0  0  0  0  0  0  0  0  0  0  0  0
  145.1370  135.4779  150.8976 C   0  0  0  0  0  0  0  0  0  0  0  0
  145.2815  133.9914  151.2562 C   0  0  0  0  0  0  0  0  0  0  0  0
  146.1226  133.8002  152.5285 C   0  0  0  0  0  0  0  0  0  0  0  0
  145.5435  134.5964  153.7163 C   0  0  1  0  0  0  0  0  0  0  0  0
  146.3463  134.3518  155.0060 C   0  0  0  0  0  0  0  0  0  0  0  0
  151.3787  137.4741  153.5489 H   0  0  0  0  0  0  0  0  0  0  0  0
  151.5669  137.5505  155.3009 H   0  0  0  0  0  0  0  0  0  0  0  0
  152.5584  138.5631  154.2582 H   0  0  0  0  0  0  0  0  0  0  0  0
  146.6921  140.5586  153.5517 H   0  0  0  0  0  0  0  0  0  0  0  0
  147.5374  142.1057  153.4849 H   0  0  0  0  0  0  0  0  0  0  0  0
  146.9596  141.4812  155.0312 H   0  0  0  0  0  0  0  0  0  0  0  0
  148.7467  137.7042  152.7382 H   0  0  0  0  0  0  0  0  0  0  0  0
  147.3207  136.3560  152.5417 H   0  0  0  0  0  0  0  0  0  0  0  0
  144.8358  136.5805  154.1729 H   0  0  0  0  0  0  0  0  0  0  0  0
  143.5387  135.9589  152.2622 H   0  0  0  0  0  0  0  0  0  0  0  0
  144.5032  137.3396  151.8145 H   0  0  0  0  0  0  0  0  0  0  0  0
  144.4910  135.5875  150.0261 H   0  0  0  0  0  0  0  0  0  0  0  0
  146.1088  135.8816  150.6110 H   0  0  0  0  0  0  0  0  0  0  0  0
  144.2934  133.5542  151.4038 H   0  0  0  0  0  0  0  0  0  0  0  0
  145.7363  133.4517  150.4251 H   0  0  0  0  0  0  0  0  0  0  0  0
  146.1656  132.7394  152.7775 H   0  0  0  0  0  0  0  0  0  0  0  0
  147.1506  134.1106  152.3372 H   0  0  0  0  0  0  0  0  0  0  0  0
  144.5394  134.2114  153.9006 H   0  0  0  0  0  0  0  0  0  0  0  0
  147.3916  134.6398  154.8931 H   0  0  0  0  0  0  0  0  0  0  0  0
  146.3257  133.2978  155.2841 H   0  0  0  0  0  0  0  0  0  0  0  0
  145.9318  134.9196  155.8394 H   0  0  0  0  0  0  0  0  0  0  0  0
  1  2  1  0  0  0  0
  1 19  1  0  0  0  0
  1 20  1  0  0  0  0
  1 21  1  0  0  0  0
  2  7  1  0  0  0  0
  2  3  2  0  0  0  0
  3  4  1  0  0  0  0
  4  5  1  0  0  0  0
  5  6  1  0  0  0  0
  5  7  2  0  0  0  0
  6 22  1  0  0  0  0
  6 23  1  0  0  0  0
  6 24  1  0  0  0  0
  7  8  1  0  0  0  0
  8  9  1  0  0  0  0
  8 25  1  0  0  0  0
  9 10  2  0  0  0  0
  9 11  1  0  0  0  0
 11 12  1  0  0  0  0
 11 26  1  0  0  0  0
 12 17  1  0  0  0  0
 12 13  1  0  0  0  0
 12 27  1  0  0  0  0
 13 14  1  0  0  0  0
 13 28  1  0  0  0  0
 13 29  1  0  0  0  0
 14 15  1  0  0  0  0
 14 30  1  0  0  0  0
 14 31  1  0  0  0  0
 15 16  1  0  0  0  0
 15 32  1  0  0  0  0
 15 33  1  0  0  0  0
 16 17  1  0  0  0  0
 16 34  1  0  0  0  0
 16 35  1  0  0  0  0
 17 18  1  0  0  0  0
 17 36  1  0  0  0  0
 18 37  1  0  0  0  0
 18 38  1  0  0  0  0
 18 39  1  0  0  0  0
M  END
> <s_m_source_file>
AV-unprocessed.smi

> <i_m_source_file_index>
1673

> <i_lp_mmshare_version>
43012

> <i_f3d_flags>
0

> <s_epik_input>
W0NIM11jMW5vYyhbQ0gzXSljMVtOSF1DKD1PKVtOSF1bQ0BASF0yW0NIMl1bQ0gyXVtDSDJdW0NIMl1bQ0BIXTJbQ0gzXQ==

> <s_epik_cmdline>
J2VwaWtfcHl0aG9uJywgJy1waCcsICc3LjAnLCAnLXRuJywgJzgnLCAnLW1hJywgJzIwMCcsICctbWV0YWxfYmluZGluZycsICctaW1hZScsICc8aW5maWxlLm1hZT4nLCAnLW9tYWUnLCAnPG91dGZpbGUubWFlPic=

> <r_lp_tautomer_probability>
1

> <r_epik_Ionization_Penalty>
4.01865e-05

> <r_epik_Ionization_Penalty_Charging>
0

> <r_epik_Ionization_Penalty_Neutral>
4.01865e-05

> <r_epik_State_Penalty>
-0

> <r_epik_Charging_Adjusted_Penalty>
0

> <i_epik_Tot_Q>
0

> <i_epik_Tot_abs_Q>
0

> <r_epik_Metal_State_Penalty>
-0

> <b_epik_Metal_Only>
0

> <s_lp_Force_Field>
OPLS_2005

> <r_lp_Energy>
11.4639

> <b_lp_Chiralities_Consistent>
1

> <s_lp_Variant>
AV-unprocessed.smi:1673-2

> <Gold.Version>
5.8.1

> <Gold.Id.Protein>
6NUR|6NUR_protein|mol2

> <Gold.PLP.Fitness>
35.9818

> <Gold.PLP.PLP>
-28.4228

> <Gold.PLP.part.hbond>
-4.3206

> <Gold.PLP.part.metal>
0.0000

> <Gold.PLP.part.buried>
-2.0584

> <Gold.PLP.part.nonpolar>
-22.0632

> <Gold.PLP.part.repulsive>
0.3198

> <Gold.PLP.ligand.clash>
0.0000

> <Gold.PLP.ligand.torsion>
0.4241

> <Gold.PLP.Chemscore.Hbond>
2.7200

> <Gold.PLP.Chemscore.CHOScore>
0.0000

> <Gold.PLP.Chemscore.Metal>
0.0000

> <Gold.Chemscore.Hbonds>
donor molecule, donor type, donor heavy atom, donor atom, acceptor molecule, acceptor atom, score
      L1  H     8    25       P1  7948  1.00
      L1  H    11    26       P1  7948  1.00
      P1  H  7989  7998       L1     3  0.71

> <Gold.PLP.Chemscore.Internal.Correction>
0.2472

> <Gold.Rescore>
     Score         DG    S(hbond)    S(metal)    S(lipo)     H(rot)  DE(clash)    DE(int)     intcor
     16.15     -16.68       1.91        0.00      63.05       1.00       0.03       0.50       ----

> <Gold.Chemscore.Fitness>
16.1492

> <Gold.Chemscore.DG>
-16.6817

> <Gold.Chemscore.ZeroCoef>
-5.4800

> <Gold.Chemscore.Hbond>
1.9115

> <Gold.Chemscore.Metal>
0.0000

> <Gold.Chemscore.Lipo>
63.0531

> <Gold.Chemscore.Internal_Hbond>
0.0000

> <Gold.Chemscore.DEClash>
0.0323

> <Gold.Chemscore.DEInternal>
0.5002

> <Gold.Chemscore.Rot>
1.0000

> <Gold.Chemscore.Internal.Correction>
   9.000000E+99

> <Gold.Chemscore.Hbonds>
donor molecule, donor type, donor heavy atom, donor atom, acceptor molecule, acceptor atom, score
      L1  H     8    25       P1  7948  0.94
      L1  H    11    26       P1  7948  0.94
      P1  H  7989  7998       L1     3  0.02

> <Gold.Chemscore.Hbond.Weighted>
-6.3844

> <Gold.Chemscore.Metal.Weighted>
-0.0000

> <Gold.Chemscore.Lipo.Weighted>
-7.3772

> <Gold.Chemscore.Internal_Hbond.Weighted>
0.0000

> <Gold.Chemscore.DEClash.Weighted>
0.0323

> <Gold.Chemscore.DEInternal.Weighted>
0.5002

> <Gold.Chemscore.Rot.Weighted>
2.5600

> <Gold.Chemscore.Internal.Correction.Weighted>
   9.000000E+99

> <Gold.Protein.RotatedTorsions>
[ 6907 6896 6895 6894 ] final  -75.84 input  -60.11 | X-H torsion
[ 7974 7965 7964 7962 ] final   10.86 input  175.53 | X-H torsion
[ 8008 7997 7996 7995 ] final  -69.35 input   59.86 | X-H torsion
[ 10167 10162 10161 10158 ] final -132.74 input  -65.29 | X-H torsion
[ 10718 10713 10712 10709 ] final -103.66 input   66.30 | X-H torsion
[ 10763 10752 10751 10750 ] final  -11.77 input  -60.55 | X-H torsion
[ 11005 11000 10999 10996 ] final -124.92 input  -57.11 | X-H torsion

> <Gold.Protein.ActiveResidues>
 VAL166  LYS551  ARG553  GLY616  TRP617  ASP618  TYR619  PRO620  LYS621  CYS622 
 ASP623  PHE694  ASN695  SER759  ASP760  ASP761  ALA762  ILE779  LEU786  VAL792 
 PHE793  MET794  SER795  GLU796  ALA797  LYS798  CYS799  TRP800  GLU811  SER814 

> <Gold.Protein.RotatedAtoms>
  150.7046  134.4660  159.5402 H   0  0  0  0  0  0  0  0  0  0  0  0  # atno 6907 bound_to 6896
  152.2326  134.8304  160.0480 H   0  0  0  0  0  0  0  0  0  0  0  0  # atno 6908 bound_to 6896
  151.9115  133.3527  159.3902 H   0  0  0  0  0  0  0  0  0  0  0  0  # atno 6909 bound_to 6896
  146.2381  139.9572  142.8463 H   0  0  0  0  0  0  0  0  0  0  0  0  # atno 7974 bound_to 7965
  154.4932  140.0855  156.7640 H   0  0  0  0  0  0  0  0  0  0  0  0  # atno 8008 bound_to 7997
  155.4179  140.3444  155.4251 H   0  0  0  0  0  0  0  0  0  0  0  0  # atno 8009 bound_to 7997
  156.1358  140.1515  156.8984 H   0  0  0  0  0  0  0  0  0  0  0  0  # atno 8010 bound_to 7997
  139.9054  143.6557  152.2586 H   0  0  0  0  0  0  0  0  0  0  0  0  # atno 10167 bound_to 10162
  156.0274  130.5478  150.7285 H   0  0  0  0  0  0  0  0  0  0  0  0  # atno 10718 bound_to 10713
  153.4887  135.7017  153.5897 H   0  0  0  0  0  0  0  0  0  0  0  0  # atno 10763 bound_to 10752
  153.4078  135.3856  155.2031 H   0  0  0  0  0  0  0  0  0  0  0  0  # atno 10764 bound_to 10752
  154.8718  135.3897  154.4345 H   0  0  0  0  0  0  0  0  0  0  0  0  # atno 10765 bound_to 10752
  140.9803  134.0682  157.3772 H   0  0  0  0  0  0  0  0  0  0  0  0  # atno 11005 bound_to 11000
  145.1805  140.9765  143.4269 LP  0  0  0  0  0  0  0  0  0  0  0  0  # atno 17320 bound_to 7965
  144.9946  139.3656  143.6198 LP  0  0  0  0  0  0  0  0  0  0  0  0  # atno 17321 bound_to 7965
  139.6988  144.7638  151.1309 LP  0  0  0  0  0  0  0  0  0  0  0  0  # atno 17342 bound_to 10162
  140.7697  143.5486  150.9230 LP  0  0  0  0  0  0  0  0  0  0  0  0  # atno 17343 bound_to 10162
  157.4883  131.0908  151.0456 LP  0  0  0  0  0  0  0  0  0  0  0  0  # atno 17370 bound_to 10713
  157.0870  130.5926  149.5432 LP  0  0  0  0  0  0  0  0  0  0  0  0  # atno 17371 bound_to 10713
  139.8947  135.0137  156.6966 LP  0  0  0  0  0  0  0  0  0  0  0  0  # atno 17394 bound_to 11000
  140.7196  133.9152  155.8138 LP  0  0  0  0  0  0  0  0  0  0  0  0  # atno 17395 bound_to 11000

$$$$
