AV-unprocessed.smi:1554|AV-procd|sdf|6257|dock9
  -GOLD-   22720 6443D 1   1.00000     0.00000
 Structure written by MMmdl.
 49 51  0  0  0  0  0  0  0  0  3 V2000
  152.3613  143.4387  160.6427 C   0  0  0  0  0  0  0  0  0  0  0  0
  152.0245  142.6102  159.4146 C   0  0  0  0  0  0  0  0  0  0  0  0
  151.1278  143.1471  158.4637 C   0  0  0  0  0  0  0  0  0  0  0  0
  150.8419  142.3665  157.3499 C   0  0  0  0  0  0  0  0  0  0  0  0
  150.0133  142.6095  156.2529 N   0  3  0  0  0  0  0  0  0  0  0  0
  150.0554  141.5438  155.4064 C   0  0  0  0  0  0  0  0  0  0  0  0
  150.8992  140.6224  155.9463 N   0  0  0  0  0  0  0  0  0  0  0  0
  151.2934  139.3006  155.4361 C   0  0  0  0  0  0  0  0  0  0  0  0
  150.0858  138.4062  155.0908 C   0  0  1  0  0  0  0  0  0  0  0  0
  149.4905  138.8520  153.8870 O   0  0  0  0  0  0  0  0  0  0  0  0
  150.4973  136.9298  154.9221 C   0  0  0  0  0  0  0  0  0  0  0  0
  149.3411  136.0408  154.6388 N   0  3  1  0  0  0  0  0  0  0  0  0
  149.6563  134.6108  154.8671 C   0  0  0  0  0  0  0  0  0  0  0  0
  148.4507  133.7297  154.5012 C   0  0  0  0  0  0  0  0  0  0  0  0
  147.3164  134.1384  155.2552 O   0  0  0  0  0  0  0  0  0  0  0  0
  146.9420  135.4839  154.9805 C   0  0  1  0  0  0  0  0  0  0  0  0
  145.6638  135.7958  155.7667 C   0  0  0  0  0  0  0  0  0  0  0  0
  148.1045  136.4192  155.3670 C   0  0  0  0  0  0  0  0  0  0  0  0
  151.4123  141.0921  157.1621 C   0  0  0  0  0  0  0  0  0  0  0  0
  152.2966  140.5481  158.0912 C   0  0  0  0  0  0  0  0  0  0  0  0
  152.6006  141.3264  159.2309 C   0  0  0  0  0  0  0  0  0  0  0  0
  153.5632  140.7585  160.2601 C   0  0  0  0  0  0  0  0  0  0  0  0
  151.8522  144.4029  160.6256 H   0  0  0  0  0  0  0  0  0  0  0  0
  153.4336  143.6298  160.6939 H   0  0  0  0  0  0  0  0  0  0  0  0
  152.0577  142.9177  161.5508 H   0  0  0  0  0  0  0  0  0  0  0  0
  150.6849  144.1234  158.5972 H   0  0  0  0  0  0  0  0  0  0  0  0
  149.5158  141.4480  154.4752 H   0  0  0  0  0  0  0  0  0  0  0  0
  151.9559  139.4257  154.5793 H   0  0  0  0  0  0  0  0  0  0  0  0
  151.8919  138.8264  156.2149 H   0  0  0  0  0  0  0  0  0  0  0  0
  149.3488  138.5057  155.8872 H   0  0  0  0  0  0  0  0  0  0  0  0
  148.9971  139.6381  154.0654 H   0  0  0  0  0  0  0  0  0  0  0  0
  151.2198  136.8636  154.1068 H   0  0  0  0  0  0  0  0  0  0  0  0
  151.0145  136.5711  155.8134 H   0  0  0  0  0  0  0  0  0  0  0  0
  150.5174  134.3186  154.2648 H   0  0  0  0  0  0  0  0  0  0  0  0
  149.9279  134.4582  155.9128 H   0  0  0  0  0  0  0  0  0  0  0  0
  148.2344  133.7872  153.4332 H   0  0  0  0  0  0  0  0  0  0  0  0
  148.6669  132.6851  154.7259 H   0  0  0  0  0  0  0  0  0  0  0  0
  146.7269  135.5857  153.9153 H   0  0  0  0  0  0  0  0  0  0  0  0
  145.3251  136.8149  155.5781 H   0  0  0  0  0  0  0  0  0  0  0  0
  145.8233  135.6890  156.8401 H   0  0  0  0  0  0  0  0  0  0  0  0
  144.8567  135.1205  155.4817 H   0  0  0  0  0  0  0  0  0  0  0  0
  148.2848  136.3686  156.4422 H   0  0  0  0  0  0  0  0  0  0  0  0
  147.8292  137.4483  155.1387 H   0  0  0  0  0  0  0  0  0  0  0  0
  152.7396  139.5734  157.9534 H   0  0  0  0  0  0  0  0  0  0  0  0
  153.8882  139.7531  159.9907 H   0  0  0  0  0  0  0  0  0  0  0  0
  153.0889  140.7022  161.2401 H   0  0  0  0  0  0  0  0  0  0  0  0
  154.4513  141.3860  160.3397 H   0  0  0  0  0  0  0  0  0  0  0  0
  149.1447  136.1329  153.6520 H   0  0  0  0  0  0  0  0  0  0  0  0
  149.4585  143.4406  156.0917 H   0  0  0  0  0  0  0  0  0  0  0  0
  1  2  1  0  0  0  0
  1 23  1  0  0  0  0
  1 24  1  0  0  0  0
  1 25  1  0  0  0  0
  2 21  1  0  0  0  0
  2  3  2  0  0  0  0
  3  4  1  0  0  0  0
  3 26  1  0  0  0  0
  4 19  2  0  0  0  0
  4  5  1  0  0  0  0
  5  6  2  0  0  0  0
  5 49  1  0  0  0  0
  6  7  1  0  0  0  0
  6 27  1  0  0  0  0
  7  8  1  0  0  0  0
  7 19  1  0  0  0  0
  8  9  1  0  0  0  0
  8 28  1  0  0  0  0
  8 29  1  0  0  0  0
  9 10  1  0  0  0  0
  9 11  1  0  0  0  0
  9 30  1  0  0  0  0
 10 31  1  0  0  0  0
 11 12  1  0  0  0  0
 11 32  1  0  0  0  0
 11 33  1  0  0  0  0
 12 18  1  0  0  0  0
 12 13  1  0  0  0  0
 12 48  1  0  0  0  0
 13 14  1  0  0  0  0
 13 34  1  0  0  0  0
 13 35  1  0  0  0  0
 14 15  1  0  0  0  0
 14 36  1  0  0  0  0
 14 37  1  0  0  0  0
 15 16  1  0  0  0  0
 16 17  1  0  0  0  0
 16 18  1  0  0  0  0
 16 38  1  0  0  0  0
 17 39  1  0  0  0  0
 17 40  1  0  0  0  0
 17 41  1  0  0  0  0
 18 42  1  0  0  0  0
 18 43  1  0  0  0  0
 19 20  1  0  0  0  0
 20 21  2  0  0  0  0
 20 44  1  0  0  0  0
 21 22  1  0  0  0  0
 22 45  1  0  0  0  0
 22 46  1  0  0  0  0
 22 47  1  0  0  0  0
M  CHG  1   5   1
M  CHG  1  12   1
M  END
> <s_m_source_file>
AV-unprocessed.smi

> <i_m_source_file_index>
1554

> <i_lp_mmshare_version>
43012

> <i_f3d_flags>
0

> <s_epik_input>
W0NIM11jKFtjSF0xKWMoW0NIM10pW2NIXWMoYzEyKW4oW2NIXW4yKVtDSDJdW0NASF0oW09IXSlbQ0gyXU4zW0NIMl1bQ0gyXU9bQ0BASF0oW0NIM10pW0NIMl0z

> <s_epik_cmdline>
J2VwaWtfcHl0aG9uJywgJy1waCcsICc3LjAnLCAnLXRuJywgJzgnLCAnLW1hJywgJzIwMCcsICctbWV0YWxfYmluZGluZycsICctaW1hZScsICc8aW5maWxlLm1hZT4nLCAnLW9tYWUnLCAnPG91dGZpbGUubWFlPic=

> <r_epik_Ionization_Penalty>
1.8848

> <r_epik_Ionization_Penalty_Charging>
1.88479

> <r_epik_Ionization_Penalty_Neutral>
1.42224e-05

> <r_epik_State_Penalty>
1.94551

> <r_epik_Charging_Adjusted_Penalty>
3.8303

> <i_epik_Tot_Q>
2

> <i_epik_Tot_abs_Q>
2

> <r_epik_Metal_State_Penalty>
5.95849

> <b_epik_Metal_Only>
0

> <s_lp_Force_Field>
OPLS_2005

> <r_lp_Energy>
30.3036

> <b_lp_Chiralities_Consistent>
1

> <s_lp_Variant>
AV-unprocessed.smi:1554-18

> <Gold.Version>
5.8.1

> <Gold.Id.Protein>
6NUR|6NUR_protein|mol2

> <Gold.PLP.Fitness>
53.3469

> <Gold.PLP.PLP>
-41.9983

> <Gold.PLP.part.hbond>
-3.0966

> <Gold.PLP.part.metal>
0.0000

> <Gold.PLP.part.buried>
-4.7746

> <Gold.PLP.part.nonpolar>
-33.8080

> <Gold.PLP.part.repulsive>
0.1844

> <Gold.PLP.ligand.clash>
0.0000

> <Gold.PLP.ligand.torsion>
0.3479

> <Gold.PLP.Chemscore.Hbond>
4.0000

> <Gold.PLP.Chemscore.CHOScore>
0.0000

> <Gold.PLP.Chemscore.Metal>
0.0000

> <Gold.Chemscore.Hbonds>
donor molecule, donor type, donor heavy atom, donor atom, acceptor molecule, acceptor atom, score
      L1  H     5    49       P1  8028  1.69
      L1  H    12    48       P1  7948  2.00

> <Gold.PLP.Chemscore.Internal.Correction>
0.0445

> <Gold.Rescore>
     Score         DG    S(hbond)    S(metal)    S(lipo)     H(rot)  DE(clash)    DE(int)     intcor
     18.34     -18.55       1.92        0.00     103.03       2.11       0.05       0.16       ----

> <Gold.Chemscore.Fitness>
18.3380

> <Gold.Chemscore.DG>
-18.5465

> <Gold.Chemscore.ZeroCoef>
-5.4800

> <Gold.Chemscore.Hbond>
1.9220

> <Gold.Chemscore.Metal>
0.0000

> <Gold.Chemscore.Lipo>
103.0286

> <Gold.Chemscore.Internal_Hbond>
0.0000

> <Gold.Chemscore.DEClash>
0.0456

> <Gold.Chemscore.DEInternal>
0.1629

> <Gold.Chemscore.Rot>
2.1122

> <Gold.Chemscore.Internal.Correction>
   9.000000E+99

> <Gold.Chemscore.Hbonds>
donor molecule, donor type, donor heavy atom, donor atom, acceptor molecule, acceptor atom, score
      L1  H     5    49       P1  8028  0.82
      L1  H    12    48       P1  7948  0.93

> <Gold.Chemscore.Hbond.Weighted>
-6.4194

> <Gold.Chemscore.Metal.Weighted>
-0.0000

> <Gold.Chemscore.Lipo.Weighted>
-12.0543

> <Gold.Chemscore.Internal_Hbond.Weighted>
0.0000

> <Gold.Chemscore.DEClash.Weighted>
0.0456

> <Gold.Chemscore.DEInternal.Weighted>
0.1629

> <Gold.Chemscore.Rot.Weighted>
5.4073

> <Gold.Chemscore.Internal.Correction.Weighted>
   9.000000E+99

> <Gold.Protein.RotatedTorsions>
[ 6907 6896 6895 6894 ] final   87.71 input  -60.11 | X-H torsion
[ 7974 7965 7964 7962 ] final  -75.28 input  175.53 | X-H torsion
[ 8008 7997 7996 7995 ] final  -49.55 input   59.86 | X-H torsion
[ 10167 10162 10161 10158 ] final   75.98 input  -65.29 | X-H torsion
[ 10718 10713 10712 10709 ] final  127.74 input   66.30 | X-H torsion
[ 10763 10752 10751 10750 ] final -110.17 input  -60.55 | X-H torsion
[ 11005 11000 10999 10996 ] final  167.14 input  -57.11 | X-H torsion

> <Gold.Protein.ActiveResidues>
 VAL166  LYS551  ARG553  GLY616  TRP617  ASP618  TYR619  PRO620  LYS621  CYS622 
 ASP623  PHE694  ASN695  SER759  ASP760  ASP761  ALA762  ILE779  LEU786  VAL792 
 PHE793  MET794  SER795  GLU796  ALA797  LYS798  CYS799  TRP800  GLU811  SER814 

> <Gold.Protein.RotatedAtoms>
  152.5415  134.2234  159.8796 H   0  0  0  0  0  0  0  0  0  0  0  0  # atno 6907 bound_to 6896
  151.2210  133.4495  159.2608 H   0  0  0  0  0  0  0  0  0  0  0  0  # atno 6908 bound_to 6896
  151.0805  134.9868  159.8410 H   0  0  0  0  0  0  0  0  0  0  0  0  # atno 6909 bound_to 6896
  145.6281  140.9345  143.1101 H   0  0  0  0  0  0  0  0  0  0  0  0  # atno 7974 bound_to 7965
  154.4046  140.1294  156.4521 H   0  0  0  0  0  0  0  0  0  0  0  0  # atno 8008 bound_to 7997
  155.7355  140.3490  155.5060 H   0  0  0  0  0  0  0  0  0  0  0  0  # atno 8009 bound_to 7997
  155.9087  140.1032  157.1286 H   0  0  0  0  0  0  0  0  0  0  0  0  # atno 8010 bound_to 7997
  139.9972  144.5713  150.7768 H   0  0  0  0  0  0  0  0  0  0  0  0  # atno 10167 bound_to 10162
  157.5306  131.1098  150.9014 H   0  0  0  0  0  0  0  0  0  0  0  0  # atno 10718 bound_to 10713
  154.8233  135.4574  154.0844 H   0  0  0  0  0  0  0  0  0  0  0  0  # atno 10763 bound_to 10752
  153.2179  135.6890  153.8041 H   0  0  0  0  0  0  0  0  0  0  0  0  # atno 10764 bound_to 10752
  153.7469  135.3304  155.3291 H   0  0  0  0  0  0  0  0  0  0  0  0  # atno 10765 bound_to 10752
  140.2737  134.7806  157.3698 H   0  0  0  0  0  0  0  0  0  0  0  0  # atno 11005 bound_to 11000
  144.7204  139.8049  143.7384 LP  0  0  0  0  0  0  0  0  0  0  0  0  # atno 17320 bound_to 7965
  146.1378  139.4428  143.0128 LP  0  0  0  0  0  0  0  0  0  0  0  0  # atno 17321 bound_to 7965
  140.7433  143.2844  151.3507 LP  0  0  0  0  0  0  0  0  0  0  0  0  # atno 17342 bound_to 10162
  139.6298  144.0744  152.2466 LP  0  0  0  0  0  0  0  0  0  0  0  0  # atno 17343 bound_to 10162
  156.9597  130.5450  149.5285 LP  0  0  0  0  0  0  0  0  0  0  0  0  # atno 17370 bound_to 10713
  156.0420  130.5501  150.8792 LP  0  0  0  0  0  0  0  0  0  0  0  0  # atno 17371 bound_to 10713
  140.1349  134.5047  155.8076 LP  0  0  0  0  0  0  0  0  0  0  0  0  # atno 17394 bound_to 11000
  141.2173  133.6803  156.7106 LP  0  0  0  0  0  0  0  0  0  0  0  0  # atno 17395 bound_to 11000

$$$$
