AV-unprocessed.smi:3126|AV-procd|sdf|11911|dock8
  -GOLD-   2272017293D 1   1.00000     0.00000
 Structure written by MMmdl.
 42 43  0  0  0  0  0  0  0  0  2 V2000
  153.2859  142.8852  162.9144 C   0  0  0  0  0  0  0  0  0  0  0  0
  153.1366  142.3663  161.4774 C   0  0  0  0  0  0  0  0  0  0  0  0
  152.0974  143.1339  160.6346 C   0  0  1  0  0  0  0  0  0  0  0  0
  152.4704  144.6263  160.5341 C   0  0  0  0  0  0  0  0  0  0  0  0
  151.4436  145.4133  159.7065 C   0  0  0  0  0  0  0  0  0  0  0  0
  151.2818  144.8073  158.3055 C   0  0  0  0  0  0  0  0  0  0  0  0
  150.8931  143.3198  158.3795 C   0  0  1  0  0  0  0  0  0  0  0  0
  150.7713  142.7689  157.0110 N   0  3  0  0  0  0  0  0  0  0  0  0
  150.4225  141.3349  156.9348 C   0  0  0  0  0  0  0  0  0  0  0  0
  150.6997  140.7767  155.5332 C   0  0  0  0  0  0  0  0  0  0  0  0
  149.4203  140.5125  154.7642 C   0  0  0  0  0  0  0  0  0  0  0  0
  149.0708  139.2054  154.3662 C   0  0  0  0  0  0  0  0  0  0  0  0
  147.8682  139.0100  153.6602 C   0  0  0  0  0  0  0  0  0  0  0  0
  147.0640  140.1330  153.3811 C   0  0  0  0  0  0  0  0  0  0  0  0
  147.3886  141.3887  153.7579 N   0  0  0  0  0  0  0  0  0  0  0  0
  148.5436  141.5678  154.4336 C   0  0  0  0  0  0  0  0  0  0  0  0
  151.9241  142.5352  159.2209 C   0  0  0  0  0  0  0  0  0  0  0  0
  154.0802  142.3498  163.4349 H   0  0  0  0  0  0  0  0  0  0  0  0
  152.3720  142.7512  163.4921 H   0  0  0  0  0  0  0  0  0  0  0  0
  153.5407  143.9452  162.9259 H   0  0  0  0  0  0  0  0  0  0  0  0
  154.1112  142.4391  160.9933 H   0  0  0  0  0  0  0  0  0  0  0  0
  152.8900  141.3040  161.4955 H   0  0  0  0  0  0  0  0  0  0  0  0
  151.1379  143.0697  161.1503 H   0  0  0  0  0  0  0  0  0  0  0  0
  152.5398  145.0621  161.5315 H   0  0  0  0  0  0  0  0  0  0  0  0
  153.4584  144.7308  160.0835 H   0  0  0  0  0  0  0  0  0  0  0  0
  150.4811  145.4149  160.2202 H   0  0  0  0  0  0  0  0  0  0  0  0
  151.7525  146.4560  159.6268 H   0  0  0  0  0  0  0  0  0  0  0  0
  150.5252  145.3653  157.7524 H   0  0  0  0  0  0  0  0  0  0  0  0
  152.2156  144.9210  157.7525 H   0  0  0  0  0  0  0  0  0  0  0  0
  149.9162  143.2522  158.8609 H   0  0  0  0  0  0  0  0  0  0  0  0
  150.0369  143.2802  156.5424 H   0  0  0  0  0  0  0  0  0  0  0  0
  150.9986  140.7739  157.6709 H   0  0  0  0  0  0  0  0  0  0  0  0
  149.3680  141.2067  157.1826 H   0  0  0  0  0  0  0  0  0  0  0  0
  151.3164  141.4754  154.9659 H   0  0  0  0  0  0  0  0  0  0  0  0
  151.2692  139.8488  155.6032 H   0  0  0  0  0  0  0  0  0  0  0  0
  149.7098  138.3660  154.5988 H   0  0  0  0  0  0  0  0  0  0  0  0
  147.5680  138.0229  153.3405 H   0  0  0  0  0  0  0  0  0  0  0  0
  146.1345  140.0194  152.8432 H   0  0  0  0  0  0  0  0  0  0  0  0
  148.7726  142.5831  154.7225 H   0  0  0  0  0  0  0  0  0  0  0  0
  152.8866  142.5263  158.7069 H   0  0  0  0  0  0  0  0  0  0  0  0
  151.6111  141.4958  159.3064 H   0  0  0  0  0  0  0  0  0  0  0  0
  151.6371  142.9285  156.5160 H   0  0  0  0  0  0  0  0  0  0  0  0
  1  2  1  0  0  0  0
  1 18  1  0  0  0  0
  1 19  1  0  0  0  0
  1 20  1  0  0  0  0
  2  3  1  0  0  0  0
  2 21  1  0  0  0  0
  2 22  1  0  0  0  0
  3 17  1  0  0  0  0
  3  4  1  0  0  0  0
  3 23  1  0  0  0  0
  4  5  1  0  0  0  0
  4 24  1  0  0  0  0
  4 25  1  0  0  0  0
  5  6  1  0  0  0  0
  5 26  1  0  0  0  0
  5 27  1  0  0  0  0
  6  7  1  0  0  0  0
  6 28  1  0  0  0  0
  6 29  1  0  0  0  0
  7  8  1  0  0  0  0
  7 17  1  0  0  0  0
  7 30  1  0  0  0  0
  8  9  1  0  0  0  0
  8 31  1  0  0  0  0
  8 42  1  0  0  0  0
  9 10  1  0  0  0  0
  9 32  1  0  0  0  0
  9 33  1  0  0  0  0
 10 11  1  0  0  0  0
 10 34  1  0  0  0  0
 10 35  1  0  0  0  0
 11 16  1  0  0  0  0
 11 12  2  0  0  0  0
 12 13  1  0  0  0  0
 12 36  1  0  0  0  0
 13 14  2  0  0  0  0
 13 37  1  0  0  0  0
 14 15  1  0  0  0  0
 14 38  1  0  0  0  0
 15 16  2  0  0  0  0
 16 39  1  0  0  0  0
 17 40  1  0  0  0  0
 17 41  1  0  0  0  0
M  CHG  1   8   1
M  END
> <s_m_source_file>
AV-unprocessed.smi

> <i_m_source_file_index>
3126

> <i_lp_mmshare_version>
43012

> <i_f3d_flags>
0

> <s_epik_input>
W0NIM11bQ0gyXVtDQEBIXTFbQ0gyXVtDSDJdW0NIMl1bQ0BIXShbQ0gyXTEpW05IXVtDSDJdW0NIMl1jMltjSF1bY0hdW2NIXW5bY0hdMg==

> <s_epik_cmdline>
J2VwaWtfcHl0aG9uJywgJy1waCcsICc3LjAnLCAnLXRuJywgJzgnLCAnLW1hJywgJzIwMCcsICctbWV0YWxfYmluZGluZycsICctaW1hZScsICc8aW5maWxlLm1hZT4nLCAnLW9tYWUnLCAnPG91dGZpbGUubWFlPic=

> <r_lp_tautomer_probability>
1

> <r_epik_Ionization_Penalty>
0.000947364

> <r_epik_Ionization_Penalty_Charging>
0.000286103

> <r_epik_Ionization_Penalty_Neutral>
0.000661261

> <r_epik_State_Penalty>
-0

> <r_epik_Charging_Adjusted_Penalty>
0.000286103

> <i_epik_Tot_Q>
1

> <i_epik_Tot_abs_Q>
1

> <r_epik_Metal_State_Penalty>
-0

> <b_epik_Metal_Only>
0

> <s_lp_Force_Field>
OPLS_2005

> <r_lp_Energy>
13.7456

> <b_lp_Chiralities_Consistent>
1

> <s_lp_Variant>
AV-unprocessed.smi:3126-2

> <Gold.Version>
5.8.1

> <Gold.Id.Protein>
6NUR|6NUR_protein|mol2

> <Gold.PLP.Fitness>
54.9851

> <Gold.PLP.PLP>
-43.8027

> <Gold.PLP.part.hbond>
-1.0000

> <Gold.PLP.part.metal>
0.0000

> <Gold.PLP.part.buried>
-3.6936

> <Gold.PLP.part.nonpolar>
-38.1466

> <Gold.PLP.part.repulsive>
0.1954

> <Gold.PLP.ligand.clash>
0.0000

> <Gold.PLP.ligand.torsion>
0.4123

> <Gold.PLP.Chemscore.Hbond>
2.0000

> <Gold.PLP.Chemscore.CHOScore>
1.9991

> <Gold.PLP.Chemscore.Metal>
0.0000

> <Gold.Chemscore.Hbonds>
donor molecule, donor type, donor heavy atom, donor atom, acceptor molecule, acceptor atom, score
      L1  H     8    31       P1  8028  1.95
      L1  C    14    38       P1 10175  1.00
      L1  C    16    39       P1  8028  1.00

> <Gold.PLP.Chemscore.Internal.Correction>
0.0097

> <Gold.Rescore>
     Score         DG    S(hbond)    S(metal)    S(lipo)     H(rot)  DE(clash)    DE(int)     intcor
     20.53     -21.10       0.98        0.00     135.03       1.35       0.16       0.41       ----

> <Gold.Chemscore.Fitness>
20.5268

> <Gold.Chemscore.DG>
-21.0987

> <Gold.Chemscore.ZeroCoef>
-5.4800

> <Gold.Chemscore.Hbond>
0.9813

> <Gold.Chemscore.Metal>
0.0000

> <Gold.Chemscore.Lipo>
135.0341

> <Gold.Chemscore.Internal_Hbond>
0.0000

> <Gold.Chemscore.DEClash>
0.1591

> <Gold.Chemscore.DEInternal>
0.4128

> <Gold.Chemscore.Rot>
1.3507

> <Gold.Chemscore.Internal.Correction>
   9.000000E+99

> <Gold.Chemscore.Hbonds>
donor molecule, donor type, donor heavy atom, donor atom, acceptor molecule, acceptor atom, score
      L1  H     8    31       P1  8028  0.92

> <Gold.Chemscore.Hbond.Weighted>
-3.2776

> <Gold.Chemscore.Metal.Weighted>
-0.0000

> <Gold.Chemscore.Lipo.Weighted>
-15.7990

> <Gold.Chemscore.Internal_Hbond.Weighted>
0.0000

> <Gold.Chemscore.DEClash.Weighted>
0.1591

> <Gold.Chemscore.DEInternal.Weighted>
0.4128

> <Gold.Chemscore.Rot.Weighted>
3.4579

> <Gold.Chemscore.Internal.Correction.Weighted>
   9.000000E+99

> <Gold.Protein.RotatedTorsions>
[ 6907 6896 6895 6894 ] final -115.24 input  -60.11 | X-H torsion
[ 7974 7965 7964 7962 ] final -140.65 input  175.53 | X-H torsion
[ 8008 7997 7996 7995 ] final  104.12 input   59.86 | X-H torsion
[ 10167 10162 10161 10158 ] final  -32.19 input  -65.29 | X-H torsion
[ 10718 10713 10712 10709 ] final -122.36 input   66.30 | X-H torsion
[ 10763 10752 10751 10750 ] final  -68.93 input  -60.55 | X-H torsion
[ 11005 11000 10999 10996 ] final   54.20 input  -57.11 | X-H torsion

> <Gold.Protein.ActiveResidues>
 VAL166  LYS551  ARG553  GLY616  TRP617  ASP618  TYR619  PRO620  LYS621  CYS622 
 ASP623  PHE694  ASN695  SER759  ASP760  ASP761  ALA762  ILE779  LEU786  VAL792 
 PHE793  MET794  SER795  GLU796  ALA797  LYS798  CYS799  TRP800  GLU811  SER814 

> <Gold.Protein.RotatedAtoms>
  150.7963  133.8686  159.3251 H   0  0  0  0  0  0  0  0  0  0  0  0  # atno 6907 bound_to 6896
  151.6510  135.0999  160.0170 H   0  0  0  0  0  0  0  0  0  0  0  0  # atno 6908 bound_to 6896
  152.4045  133.6829  159.6380 H   0  0  0  0  0  0  0  0  0  0  0  0  # atno 6909 bound_to 6896
  144.8581  140.6175  143.5346 H   0  0  0  0  0  0  0  0  0  0  0  0  # atno 7974 bound_to 7965
  156.1545  140.3153  155.8703 H   0  0  0  0  0  0  0  0  0  0  0  0  # atno 8008 bound_to 7997
  155.3906  140.0493  157.3058 H   0  0  0  0  0  0  0  0  0  0  0  0  # atno 8009 bound_to 7997
  154.5088  140.2157  155.9208 H   0  0  0  0  0  0  0  0  0  0  0  0  # atno 8010 bound_to 7997
  140.7225  143.3713  151.1773 H   0  0  0  0  0  0  0  0  0  0  0  0  # atno 10167 bound_to 10162
  156.1412  130.6467  150.9774 H   0  0  0  0  0  0  0  0  0  0  0  0  # atno 10718 bound_to 10713
  154.3961  135.6042  153.5870 H   0  0  0  0  0  0  0  0  0  0  0  0  # atno 10763 bound_to 10752
  152.9787  135.5895  154.4240 H   0  0  0  0  0  0  0  0  0  0  0  0  # atno 10764 bound_to 10752
  154.4032  135.2843  155.2062 H   0  0  0  0  0  0  0  0  0  0  0  0  # atno 10765 bound_to 10752
  140.0705  134.5476  155.9052 H   0  0  0  0  0  0  0  0  0  0  0  0  # atno 11005 bound_to 11000
  145.4366  139.1541  143.3993 LP  0  0  0  0  0  0  0  0  0  0  0  0  # atno 17320 bound_to 7965
  146.2839  140.4486  142.8765 LP  0  0  0  0  0  0  0  0  0  0  0  0  # atno 17321 bound_to 7965
  139.7285  143.9110  152.3011 LP  0  0  0  0  0  0  0  0  0  0  0  0  # atno 17342 bound_to 10162
  139.8891  144.6975  150.8791 LP  0  0  0  0  0  0  0  0  0  0  0  0  # atno 17343 bound_to 10162
  157.6577  131.0886  150.7909 LP  0  0  0  0  0  0  0  0  0  0  0  0  # atno 17370 bound_to 10713
  156.7984  130.4913  149.5373 LP  0  0  0  0  0  0  0  0  0  0  0  0  # atno 17371 bound_to 10713
  141.2010  133.6616  156.5926 LP  0  0  0  0  0  0  0  0  0  0  0  0  # atno 17394 bound_to 11000
  140.3634  134.7668  157.4549 LP  0  0  0  0  0  0  0  0  0  0  0  0  # atno 17395 bound_to 11000

$$$$
