AV-unprocessed.smi:1031|AV-procd|sdf|4481|dock7
  -GOLD-   22720 2463D 1   1.00000     0.00000
 Structure written by MMmdl.
 35 36  0  0  0  0  0  0  0  0  1 V2000
  153.2209  139.4992  159.8536 C   0  0  0  0  0  0  0  0  0  0  0  0
  152.3954  140.7493  159.5208 C   0  0  1  0  0  0  0  0  0  0  0  0
  153.0896  142.0319  160.0272 C   0  0  0  0  0  0  0  0  0  0  0  0
  152.2921  143.2264  159.8128 N   0  0  0  0  0  0  0  0  0  0  0  0
  152.5415  144.2824  158.9612 C   0  0  0  0  0  0  0  0  0  0  0  0
  151.5057  145.1621  159.0910 C   0  0  0  0  0  0  0  0  0  0  0  0
  150.6630  144.5507  160.0611 C   0  0  0  0  0  0  0  0  0  0  0  0
  151.1384  143.3944  160.4945 N   0  0  0  0  0  0  0  0  0  0  0  0
  152.1870  140.8063  158.0743 N   0  0  0  0  0  0  0  0  0  0  0  0
  150.9973  140.8400  157.4526 C   0  0  0  0  0  0  0  0  0  0  0  0
  149.9205  140.8139  158.0498 O   0  0  0  0  0  0  0  0  0  0  0  0
  151.0328  140.9285  155.9185 C   0  0  0  0  0  0  0  0  0  0  0  0
  149.6147  141.0704  155.3166 C   0  0  0  0  0  0  0  0  0  0  0  0
  149.3929  139.8572  154.4038 C   0  0  0  0  0  0  0  0  0  0  0  0
  150.4093  138.8157  154.8622 C   0  0  0  0  0  0  0  0  0  0  0  0
  151.6164  139.6489  155.2891 C   0  0  0  0  0  0  0  0  0  0  0  0
  153.3705  139.4029  160.9292 H   0  0  0  0  0  0  0  0  0  0  0  0
  154.2041  139.5342  159.3829 H   0  0  0  0  0  0  0  0  0  0  0  0
  152.7187  138.5940  159.5102 H   0  0  0  0  0  0  0  0  0  0  0  0
  151.4360  140.6445  160.0306 H   0  0  0  0  0  0  0  0  0  0  0  0
  153.2927  141.9507  161.0961 H   0  0  0  0  0  0  0  0  0  0  0  0
  154.0558  142.1642  159.5381 H   0  0  0  0  0  0  0  0  0  0  0  0
  153.4212  144.3150  158.3352 H   0  0  0  0  0  0  0  0  0  0  0  0
  151.3692  146.0985  158.5709 H   0  0  0  0  0  0  0  0  0  0  0  0
  149.7265  144.9108  160.4611 H   0  0  0  0  0  0  0  0  0  0  0  0
  153.0169  140.8312  157.4994 H   0  0  0  0  0  0  0  0  0  0  0  0
  151.6470  141.7828  155.6278 H   0  0  0  0  0  0  0  0  0  0  0  0
  148.8447  141.0933  156.0900 H   0  0  0  0  0  0  0  0  0  0  0  0
  149.5151  141.9990  154.7536 H   0  0  0  0  0  0  0  0  0  0  0  0
  148.3688  139.4848  154.4438 H   0  0  0  0  0  0  0  0  0  0  0  0
  149.6021  140.1368  153.3705 H   0  0  0  0  0  0  0  0  0  0  0  0
  150.0157  138.2650  155.7178 H   0  0  0  0  0  0  0  0  0  0  0  0
  150.6517  138.0931  154.0825 H   0  0  0  0  0  0  0  0  0  0  0  0
  152.2066  139.9136  154.4109 H   0  0  0  0  0  0  0  0  0  0  0  0
  152.2751  139.0941  155.9593 H   0  0  0  0  0  0  0  0  0  0  0  0
  1  2  1  0  0  0  0
  1 17  1  0  0  0  0
  1 18  1  0  0  0  0
  1 19  1  0  0  0  0
  2  3  1  0  0  0  0
  2  9  1  0  0  0  0
  2 20  1  0  0  0  0
  3  4  1  0  0  0  0
  3 21  1  0  0  0  0
  3 22  1  0  0  0  0
  4  8  1  0  0  0  0
  4  5  1  0  0  0  0
  5  6  2  0  0  0  0
  5 23  1  0  0  0  0
  6  7  1  0  0  0  0
  6 24  1  0  0  0  0
  7  8  2  0  0  0  0
  7 25  1  0  0  0  0
  9 10  1  0  0  0  0
  9 26  1  0  0  0  0
 10 11  2  0  0  0  0
 10 12  1  0  0  0  0
 12 16  1  0  0  0  0
 12 13  1  0  0  0  0
 12 27  1  0  0  0  0
 13 14  1  0  0  0  0
 13 28  1  0  0  0  0
 13 29  1  0  0  0  0
 14 15  1  0  0  0  0
 14 30  1  0  0  0  0
 14 31  1  0  0  0  0
 15 16  1  0  0  0  0
 15 32  1  0  0  0  0
 15 33  1  0  0  0  0
 16 34  1  0  0  0  0
 16 35  1  0  0  0  0
M  END
> <s_m_source_file>
AV-unprocessed.smi

> <i_m_source_file_index>
1031

> <i_lp_mmshare_version>
43012

> <i_f3d_flags>
0

> <s_epik_input>
bjFbY0hdW2NIXVtjSF1uMVtDSDJdW0NAQEhdKFtDSDNdKVtOSF1DKD1PKVtDSF0yW0NIMl1bQ0gyXVtDSDJdW0NIMl0y

> <s_epik_cmdline>
J2VwaWtfcHl0aG9uJywgJy1waCcsICc3LjAnLCAnLXRuJywgJzgnLCAnLW1hJywgJzIwMCcsICctbWV0YWxfYmluZGluZycsICctaW1hZScsICc8aW5maWxlLm1hZT4nLCAnLW9tYWUnLCAnPG91dGZpbGUubWFlPic=

> <r_lp_tautomer_probability>
1

> <r_epik_Ionization_Penalty>
0.000326659

> <r_epik_Ionization_Penalty_Charging>
0

> <r_epik_Ionization_Penalty_Neutral>
0.000326659

> <r_epik_State_Penalty>
-0

> <r_epik_Charging_Adjusted_Penalty>
0

> <i_epik_Tot_Q>
0

> <i_epik_Tot_abs_Q>
0

> <r_epik_Metal_State_Penalty>
-0

> <b_epik_Metal_Only>
0

> <s_lp_Force_Field>
OPLS_2005

> <r_lp_Energy>
19.4397

> <b_lp_Chiralities_Consistent>
1

> <s_lp_Variant>
AV-unprocessed.smi:1031-2

> <Gold.Version>
5.8.1

> <Gold.Id.Protein>
6NUR|6NUR_protein|mol2

> <Gold.PLP.Fitness>
41.0172

> <Gold.PLP.PLP>
-41.2619

> <Gold.PLP.part.hbond>
-0.3855

> <Gold.PLP.part.metal>
0.0000

> <Gold.PLP.part.buried>
-3.6772

> <Gold.PLP.part.nonpolar>
-36.6781

> <Gold.PLP.part.repulsive>
0.1861

> <Gold.PLP.ligand.clash>
0.0000

> <Gold.PLP.ligand.torsion>
0.1319

> <Gold.PLP.Chemscore.Hbond>
0.0000

> <Gold.PLP.Chemscore.CHOScore>
0.0000

> <Gold.PLP.Chemscore.Metal>
0.0000

> <Gold.PLP.Chemscore.Internal.Correction>
0.0191

> <Gold.Rescore>
     Score         DG    S(hbond)    S(metal)    S(lipo)     H(rot)  DE(clash)    DE(int)     intcor
     13.12     -13.30       0.00        0.00      99.97       1.51       0.08       0.10       ----

> <Gold.Chemscore.Fitness>
13.1204

> <Gold.Chemscore.DG>
-13.2995

> <Gold.Chemscore.ZeroCoef>
-5.4800

> <Gold.Chemscore.Hbond>
0.0000

> <Gold.Chemscore.Metal>
0.0000

> <Gold.Chemscore.Lipo>
99.9728

> <Gold.Chemscore.Internal_Hbond>
0.0000

> <Gold.Chemscore.DEClash>
0.0821

> <Gold.Chemscore.DEInternal>
0.0969

> <Gold.Chemscore.Rot>
1.5146

> <Gold.Chemscore.Internal.Correction>
   9.000000E+99

> <Gold.Chemscore.Hbond.Weighted>
-0.0000

> <Gold.Chemscore.Metal.Weighted>
-0.0000

> <Gold.Chemscore.Lipo.Weighted>
-11.6968

> <Gold.Chemscore.Internal_Hbond.Weighted>
0.0000

> <Gold.Chemscore.DEClash.Weighted>
0.0821

> <Gold.Chemscore.DEInternal.Weighted>
0.0969

> <Gold.Chemscore.Rot.Weighted>
3.8773

> <Gold.Chemscore.Internal.Correction.Weighted>
   9.000000E+99

> <Gold.Protein.RotatedTorsions>
[ 6907 6896 6895 6894 ] final  -78.97 input  -60.11 | X-H torsion
[ 7974 7965 7964 7962 ] final   13.09 input  175.53 | X-H torsion
[ 8008 7997 7996 7995 ] final   86.36 input   59.86 | X-H torsion
[ 10167 10162 10161 10158 ] final  -27.85 input  -65.29 | X-H torsion
[ 10718 10713 10712 10709 ] final -152.13 input   66.30 | X-H torsion
[ 10763 10752 10751 10750 ] final  -16.12 input  -60.55 | X-H torsion
[ 11005 11000 10999 10996 ] final -166.23 input  -57.11 | X-H torsion

> <Gold.Protein.ActiveResidues>
 VAL166  LYS551  ARG553  GLY616  TRP617  ASP618  TYR619  PRO620  LYS621  CYS622 
 ASP623  PHE694  ASN695  SER759  ASP760  ASP761  ALA762  ILE779  LEU786  VAL792 
 PHE793  MET794  SER795  GLU796  ALA797  LYS798  CYS799  TRP800  GLU811  SER814 

> <Gold.Protein.RotatedAtoms>
  150.6960  134.4191  159.5196 H   0  0  0  0  0  0  0  0  0  0  0  0  # atno 6907 bound_to 6896
  152.1937  134.8647  160.0524 H   0  0  0  0  0  0  0  0  0  0  0  0  # atno 6908 bound_to 6896
  151.9593  133.3655  159.4066 H   0  0  0  0  0  0  0  0  0  0  0  0  # atno 6909 bound_to 6896
  146.2337  139.9240  142.8506 H   0  0  0  0  0  0  0  0  0  0  0  0  # atno 7974 bound_to 7965
  155.9617  140.3393  155.6497 H   0  0  0  0  0  0  0  0  0  0  0  0  # atno 8008 bound_to 7997
  155.6789  140.0735  157.2510 H   0  0  0  0  0  0  0  0  0  0  0  0  # atno 8009 bound_to 7997
  154.4145  140.1678  156.1948 H   0  0  0  0  0  0  0  0  0  0  0  0  # atno 8010 bound_to 7997
  140.7274  143.4059  151.1187 H   0  0  0  0  0  0  0  0  0  0  0  0  # atno 10167 bound_to 10162
  156.4683  130.8246  151.2476 H   0  0  0  0  0  0  0  0  0  0  0  0  # atno 10718 bound_to 10713
  153.5537  135.7011  153.5579 H   0  0  0  0  0  0  0  0  0  0  0  0  # atno 10763 bound_to 10752
  153.3492  135.4000  155.1632 H   0  0  0  0  0  0  0  0  0  0  0  0  # atno 10764 bound_to 10752
  154.8657  135.3761  154.5050 H   0  0  0  0  0  0  0  0  0  0  0  0  # atno 10765 bound_to 10752
  140.5668  134.5278  157.5154 H   0  0  0  0  0  0  0  0  0  0  0  0  # atno 11005 bound_to 11000
  145.2108  140.9895  143.4101 LP  0  0  0  0  0  0  0  0  0  0  0  0  # atno 17320 bound_to 7965
  144.9693  139.3897  143.6317 LP  0  0  0  0  0  0  0  0  0  0  0  0  # atno 17321 bound_to 7965
  139.7685  143.8529  152.3115 LP  0  0  0  0  0  0  0  0  0  0  0  0  # atno 17342 bound_to 10162
  139.8440  144.7196  150.9296 LP  0  0  0  0  0  0  0  0  0  0  0  0  # atno 17343 bound_to 10162
  157.7493  131.0084  150.3228 LP  0  0  0  0  0  0  0  0  0  0  0  0  # atno 17370 bound_to 10713
  156.3644  130.3852  149.7225 LP  0  0  0  0  0  0  0  0  0  0  0  0  # atno 17371 bound_to 10713
  139.9381  134.7838  156.0750 LP  0  0  0  0  0  0  0  0  0  0  0  0  # atno 17394 bound_to 11000
  141.1081  133.6653  156.2911 LP  0  0  0  0  0  0  0  0  0  0  0  0  # atno 17395 bound_to 11000

$$$$
