AV-unprocessed.smi:3181|AV-procd|sdf|12146|dock2
  -GOLD-   2272017583D 1   1.00000     0.00000
 Structure written by MMmdl.
 42 43  0  0  0  0  0  0  0  0  2 V2000
  150.9111  138.2514  154.1878 C   0  0  0  0  0  0  0  0  0  0  0  0
  149.5426  138.9132  154.4163 C   0  0  1  0  0  0  0  0  0  0  0  0
  149.6566  140.4294  154.6852 C   0  0  0  0  0  0  0  0  0  0  0  0
  150.4052  140.7362  155.8898 N   0  0  0  0  0  0  0  0  0  0  0  0
  150.6059  141.8957  156.5187 C   0  0  0  0  0  0  0  0  0  0  0  0
  151.3434  141.7883  157.6148 N   0  0  0  0  0  0  0  0  0  0  0  0
  151.5718  140.4411  157.6064 C   0  0  0  0  0  0  0  0  0  0  0  0
  151.0281  139.7634  156.5952 N   0  0  0  0  0  0  0  0  0  0  0  0
  148.6748  138.6715  153.2412 N   0  3  0  0  0  0  0  0  0  0  0  0
  147.2466  139.0406  153.3942 C   0  0  1  0  0  0  0  0  0  0  0  0
  146.5598  139.3320  152.0455 C   0  0  0  0  0  0  0  0  0  0  0  0
  146.3866  138.0588  151.2037 C   0  0  0  0  0  0  0  0  0  0  0  0
  145.6082  136.9655  151.9629 C   0  0  1  0  0  0  0  0  0  0  0  0
  145.4441  135.7247  151.0673 C   0  0  0  0  0  0  0  0  0  0  0  0
  146.2924  136.6490  153.3190 C   0  0  2  0  0  0  0  0  0  0  0  0
  145.5233  135.6051  154.1484 C   0  0  0  0  0  0  0  0  0  0  0  0
  146.4841  137.9375  154.1506 C   0  0  0  0  0  0  0  0  0  0  0  0
  151.5537  138.3462  155.0637 H   0  0  0  0  0  0  0  0  0  0  0  0
  151.4327  138.7003  153.3420 H   0  0  0  0  0  0  0  0  0  0  0  0
  150.8006  137.1861  153.9832 H   0  0  0  0  0  0  0  0  0  0  0  0
  149.0976  138.4367  155.2911 H   0  0  0  0  0  0  0  0  0  0  0  0
  150.1424  140.9256  153.8438 H   0  0  0  0  0  0  0  0  0  0  0  0
  148.6686  140.8805  154.7815 H   0  0  0  0  0  0  0  0  0  0  0  0
  150.2069  142.8367  156.1684 H   0  0  0  0  0  0  0  0  0  0  0  0
  152.1543  139.9449  158.3689 H   0  0  0  0  0  0  0  0  0  0  0  0
  149.0566  139.1589  152.4433 H   0  0  0  0  0  0  0  0  0  0  0  0
  147.2124  139.9425  154.0073 H   0  0  0  0  0  0  0  0  0  0  0  0
  145.5761  139.7629  152.2364 H   0  0  0  0  0  0  0  0  0  0  0  0
  147.1055  140.0874  151.4806 H   0  0  0  0  0  0  0  0  0  0  0  0
  145.8663  138.3107  150.2788 H   0  0  0  0  0  0  0  0  0  0  0  0
  147.3644  137.6771  150.9075 H   0  0  0  0  0  0  0  0  0  0  0  0
  144.6093  137.3536  152.1693 H   0  0  0  0  0  0  0  0  0  0  0  0
  146.4024  135.2406  150.8785 H   0  0  0  0  0  0  0  0  0  0  0  0
  145.0138  135.9941  150.1022 H   0  0  0  0  0  0  0  0  0  0  0  0
  144.7768  134.9877  151.5134 H   0  0  0  0  0  0  0  0  0  0  0  0
  147.2793  136.2326  153.1119 H   0  0  0  0  0  0  0  0  0  0  0  0
  144.4955  135.9209  154.3296 H   0  0  0  0  0  0  0  0  0  0  0  0
  145.9972  135.4495  155.1178 H   0  0  0  0  0  0  0  0  0  0  0  0
  145.4941  134.6348  153.6533 H   0  0  0  0  0  0  0  0  0  0  0  0
  146.9998  137.7087  155.0845 H   0  0  0  0  0  0  0  0  0  0  0  0
  145.5041  138.3222  154.4377 H   0  0  0  0  0  0  0  0  0  0  0  0
  148.7055  137.6804  153.0494 H   0  0  0  0  0  0  0  0  0  0  0  0
  1  2  1  0  0  0  0
  1 18  1  0  0  0  0
  1 19  1  0  0  0  0
  1 20  1  0  0  0  0
  2  3  1  0  0  0  0
  2  9  1  0  0  0  0
  2 21  1  0  0  0  0
  3  4  1  0  0  0  0
  3 22  1  0  0  0  0
  3 23  1  0  0  0  0
  4  8  1  0  0  0  0
  4  5  1  0  0  0  0
  5  6  2  0  0  0  0
  5 24  1  0  0  0  0
  6  7  1  0  0  0  0
  7  8  2  0  0  0  0
  7 25  1  0  0  0  0
  9 10  1  0  0  0  0
  9 26  1  0  0  0  0
  9 42  1  0  0  0  0
 10 17  1  0  0  0  0
 10 11  1  0  0  0  0
 10 27  1  0  0  0  0
 11 12  1  0  0  0  0
 11 28  1  0  0  0  0
 11 29  1  0  0  0  0
 12 13  1  0  0  0  0
 12 30  1  0  0  0  0
 12 31  1  0  0  0  0
 13 14  1  0  0  0  0
 13 15  1  0  0  0  0
 13 32  1  0  0  0  0
 14 33  1  0  0  0  0
 14 34  1  0  0  0  0
 14 35  1  0  0  0  0
 15 16  1  0  0  0  0
 15 17  1  0  0  0  0
 15 36  1  0  0  0  0
 16 37  1  0  0  0  0
 16 38  1  0  0  0  0
 16 39  1  0  0  0  0
 17 40  1  0  0  0  0
 17 41  1  0  0  0  0
M  CHG  1   9   1
M  END
> <s_m_source_file>
AV-unprocessed.smi

> <i_m_source_file_index>
3181

> <i_lp_mmshare_version>
43012

> <i_f3d_flags>
0

> <s_epik_input>
bjFbY0hdbltjSF1uMVtDSDJdW0NAQEhdKFtDSDNdKVtOSF1bQ0BASF0yW0NIMl1bQ0gyXVtDQEBIXShbQ0gzXSlbQ0BASF0oW0NIM10pW0NIMl0y

> <s_epik_cmdline>
J2VwaWtfcHl0aG9uJywgJy1waCcsICc3LjAnLCAnLXRuJywgJzgnLCAnLW1hJywgJzIwMCcsICctbWV0YWxfYmluZGluZycsICctaW1hZScsICc8aW5maWxlLm1hZT4nLCAnLW9tYWUnLCAnPG91dGZpbGUubWFlPic=

> <r_lp_tautomer_probability>
1

> <r_epik_Ionization_Penalty>
0.000617007

> <r_epik_Ionization_Penalty_Charging>
0.000616215

> <r_epik_Ionization_Penalty_Neutral>
7.92544e-07

> <r_epik_State_Penalty>
0.000388807

> <r_epik_Charging_Adjusted_Penalty>
0.00100502

> <i_epik_Tot_Q>
1

> <i_epik_Tot_abs_Q>
1

> <r_epik_Metal_State_Penalty>
-0

> <b_epik_Metal_Only>
0

> <s_lp_Force_Field>
OPLS_2005

> <r_lp_Energy>
23.4305

> <b_lp_Chiralities_Consistent>
1

> <s_lp_Variant>
AV-unprocessed.smi:3181-12

> <Gold.Version>
5.8.1

> <Gold.Id.Protein>
6NUR|6NUR_protein|mol2

> <Gold.PLP.Fitness>
41.3437

> <Gold.PLP.PLP>
-29.9919

> <Gold.PLP.part.hbond>
-2.0000

> <Gold.PLP.part.metal>
0.0000

> <Gold.PLP.part.buried>
3.7699

> <Gold.PLP.part.nonpolar>
-31.4077

> <Gold.PLP.part.repulsive>
0.1125

> <Gold.PLP.ligand.clash>
0.0000

> <Gold.PLP.ligand.torsion>
0.3166

> <Gold.PLP.Chemscore.Hbond>
2.9840

> <Gold.PLP.Chemscore.CHOScore>
1.0000

> <Gold.PLP.Chemscore.Metal>
0.0000

> <Gold.Chemscore.Hbonds>
donor molecule, donor type, donor heavy atom, donor atom, acceptor molecule, acceptor atom, score
      L1  H     9    26       P1  7957  1.00
      L1  H     9    42       P1  7948  2.00
      L1  C     5    24       P1  8028  1.00

> <Gold.PLP.Chemscore.Internal.Correction>
0.0330

> <Gold.Rescore>
     Score         DG    S(hbond)    S(metal)    S(lipo)     H(rot)  DE(clash)    DE(int)     intcor
     12.16     -14.43       1.97        0.00      66.49       2.11       0.73       1.53       ----

> <Gold.Chemscore.Fitness>
12.1593

> <Gold.Chemscore.DG>
-14.4250

> <Gold.Chemscore.ZeroCoef>
-5.4800

> <Gold.Chemscore.Hbond>
1.9660

> <Gold.Chemscore.Metal>
0.0000

> <Gold.Chemscore.Lipo>
66.4850

> <Gold.Chemscore.Internal_Hbond>
0.0000

> <Gold.Chemscore.DEClash>
0.7319

> <Gold.Chemscore.DEInternal>
1.5338

> <Gold.Chemscore.Rot>
2.1095

> <Gold.Chemscore.Internal.Correction>
   9.000000E+99

> <Gold.Chemscore.Hbonds>
donor molecule, donor type, donor heavy atom, donor atom, acceptor molecule, acceptor atom, score
      L1  H     9    26       P1  7957  0.99
      L1  H     9    42       P1  7948  0.94

> <Gold.Chemscore.Hbond.Weighted>
-6.5666

> <Gold.Chemscore.Metal.Weighted>
-0.0000

> <Gold.Chemscore.Lipo.Weighted>
-7.7787

> <Gold.Chemscore.Internal_Hbond.Weighted>
0.0000

> <Gold.Chemscore.DEClash.Weighted>
0.7319

> <Gold.Chemscore.DEInternal.Weighted>
1.5338

> <Gold.Chemscore.Rot.Weighted>
5.4003

> <Gold.Chemscore.Internal.Correction.Weighted>
   9.000000E+99

> <Gold.Protein.RotatedTorsions>
[ 6907 6896 6895 6894 ] final -143.33 input  -60.11 | X-H torsion
[ 7974 7965 7964 7962 ] final   92.07 input  175.53 | X-H torsion
[ 8008 7997 7996 7995 ] final  178.93 input   59.86 | X-H torsion
[ 10167 10162 10161 10158 ] final  -66.61 input  -65.29 | X-H torsion
[ 10718 10713 10712 10709 ] final    5.21 input   66.30 | X-H torsion
[ 10763 10752 10751 10750 ] final -147.63 input  -60.55 | X-H torsion
[ 11005 11000 10999 10996 ] final -128.11 input  -57.11 | X-H torsion

> <Gold.Protein.ActiveResidues>
 VAL166  LYS551  ARG553  GLY616  TRP617  ASP618  TYR619  PRO620  LYS621  CYS622 
 ASP623  PHE694  ASN695  SER759  ASP760  ASP761  ALA762  ILE779  LEU786  VAL792 
 PHE793  MET794  SER795  GLU796  ALA797  LYS798  CYS799  TRP800  GLU811  SER814 

> <Gold.Protein.RotatedAtoms>
  151.0990  133.5258  159.2610 H   0  0  0  0  0  0  0  0  0  0  0  0  # atno 6907 bound_to 6896
  151.2096  135.0475  159.8915 H   0  0  0  0  0  0  0  0  0  0  0  0  # atno 6908 bound_to 6896
  152.5441  134.0808  159.8288 H   0  0  0  0  0  0  0  0  0  0  0  0  # atno 6909 bound_to 6896
  145.4971  139.2276  143.2797 H   0  0  0  0  0  0  0  0  0  0  0  0  # atno 7974 bound_to 7965
  156.0491  140.1321  157.0070 H   0  0  0  0  0  0  0  0  0  0  0  0  # atno 8008 bound_to 7997
  154.4426  140.1014  156.6420 H   0  0  0  0  0  0  0  0  0  0  0  0  # atno 8009 bound_to 7997
  155.5551  140.3463  155.4480 H   0  0  0  0  0  0  0  0  0  0  0  0  # atno 8010 bound_to 7997
  140.5644  143.2314  151.6664 H   0  0  0  0  0  0  0  0  0  0  0  0  # atno 10167 bound_to 10162
  156.9040  130.5732  149.5647 H   0  0  0  0  0  0  0  0  0  0  0  0  # atno 10718 bound_to 10713
  154.8275  135.3355  154.6848 H   0  0  0  0  0  0  0  0  0  0  0  0  # atno 10763 bound_to 10752
  153.7472  135.6942  153.4958 H   0  0  0  0  0  0  0  0  0  0  0  0  # atno 10764 bound_to 10752
  153.2202  135.4451  155.0431 H   0  0  0  0  0  0  0  0  0  0  0  0  # atno 10765 bound_to 10752
  140.9543  134.1023  157.4031 H   0  0  0  0  0  0  0  0  0  0  0  0  # atno 11005 bound_to 11000
  146.2248  140.5770  142.9001 LP  0  0  0  0  0  0  0  0  0  0  0  0  # atno 17320 bound_to 7965
  144.7801  140.5821  143.6611 LP  0  0  0  0  0  0  0  0  0  0  0  0  # atno 17321 bound_to 7965
  139.5086  144.3607  152.0565 LP  0  0  0  0  0  0  0  0  0  0  0  0  # atno 17342 bound_to 10162
  140.2737  144.3936  150.6142 LP  0  0  0  0  0  0  0  0  0  0  0  0  # atno 17343 bound_to 10162
  156.0568  130.5628  150.9108 LP  0  0  0  0  0  0  0  0  0  0  0  0  # atno 17370 bound_to 10713
  157.6009  131.0941  150.8962 LP  0  0  0  0  0  0  0  0  0  0  0  0  # atno 17371 bound_to 10713
  139.8857  135.0075  156.6453 LP  0  0  0  0  0  0  0  0  0  0  0  0  # atno 17394 bound_to 11000
  140.7558  133.8859  155.8381 LP  0  0  0  0  0  0  0  0  0  0  0  0  # atno 17395 bound_to 11000

$$$$
