AV-unprocessed.smi:3287|AV-procd|sdf|12605|dock6
  -GOLD-   2272018533D 1   1.00000     0.00000
 Structure written by MMmdl.
 43 44  0  0  0  0  0  0  0  0  2 V2000
  152.9619  142.8485  161.0717 C   0  0  0  0  0  0  0  0  0  0  0  0
  152.6000  142.7926  159.5767 C   0  0  1  0  0  0  0  0  0  0  0  0
  152.0478  141.3959  159.2262 C   0  0  0  0  0  0  0  0  0  0  0  0
  151.6689  141.2749  157.7437 C   0  0  0  0  0  0  0  0  0  0  0  0
  150.6502  142.3583  157.3441 C   0  0  2  0  0  0  0  0  0  0  0  0
  150.3001  142.2802  155.9085 N   0  3  0  0  0  0  0  0  0  0  0  0
  149.4250  141.1488  155.5317 C   0  0  0  0  0  0  0  0  0  0  0  0
  148.5324  141.5028  154.3296 C   0  0  1  0  0  0  0  0  0  0  0  0
  148.3510  140.3440  153.5391 O   0  0  0  0  0  0  0  0  0  0  0  0
  147.2060  142.0885  154.7882 C   0  0  0  0  0  0  0  0  0  0  0  0
  146.2858  142.6305  153.8644 C   0  0  0  0  0  0  0  0  0  0  0  0
  145.0684  143.1480  154.3506 C   0  0  0  0  0  0  0  0  0  0  0  0
  144.7337  143.1501  155.6585 N   0  0  0  0  0  0  0  0  0  0  0  0
  145.6161  142.6289  156.5374 C   0  0  0  0  0  0  0  0  0  0  0  0
  146.8598  142.0869  156.1559 C   0  0  0  0  0  0  0  0  0  0  0  0
  151.2166  143.7515  157.6674 C   0  0  0  0  0  0  0  0  0  0  0  0
  151.5969  143.8991  159.1556 C   0  0  2  0  0  0  0  0  0  0  0  0
  152.1252  145.3201  159.4220 C   0  0  0  0  0  0  0  0  0  0  0  0
  152.0712  142.7882  161.6980 H   0  0  0  0  0  0  0  0  0  0  0  0
  153.4912  143.7659  161.3273 H   0  0  0  0  0  0  0  0  0  0  0  0
  153.6156  142.0205  161.3470 H   0  0  0  0  0  0  0  0  0  0  0  0
  153.5214  142.9353  159.0101 H   0  0  0  0  0  0  0  0  0  0  0  0
  152.7865  140.6320  159.4717 H   0  0  0  0  0  0  0  0  0  0  0  0
  151.1718  141.1826  159.8406 H   0  0  0  0  0  0  0  0  0  0  0  0
  152.5659  141.3603  157.1288 H   0  0  0  0  0  0  0  0  0  0  0  0
  151.2643  140.2787  157.5658 H   0  0  0  0  0  0  0  0  0  0  0  0
  149.7359  142.2227  157.9241 H   0  0  0  0  0  0  0  0  0  0  0  0
  149.8110  143.1302  155.6674 H   0  0  0  0  0  0  0  0  0  0  0  0
  150.0249  140.2673  155.3047 H   0  0  0  0  0  0  0  0  0  0  0  0
  148.7968  140.8963  156.3871 H   0  0  0  0  0  0  0  0  0  0  0  0
  149.0397  142.2435  153.7095 H   0  0  0  0  0  0  0  0  0  0  0  0
  148.7463  140.4937  152.6932 H   0  0  0  0  0  0  0  0  0  0  0  0
  146.5017  142.6496  152.8062 H   0  0  0  0  0  0  0  0  0  0  0  0
  144.3433  143.5694  153.6703 H   0  0  0  0  0  0  0  0  0  0  0  0
  145.3213  142.6419  157.5762 H   0  0  0  0  0  0  0  0  0  0  0  0
  147.5276  141.6796  156.9008 H   0  0  0  0  0  0  0  0  0  0  0  0
  152.0936  143.9446  157.0471 H   0  0  0  0  0  0  0  0  0  0  0  0
  150.4806  144.5116  157.4017 H   0  0  0  0  0  0  0  0  0  0  0  0
  150.6863  143.7736  159.7436 H   0  0  0  0  0  0  0  0  0  0  0  0
  153.0759  145.4921  158.9165 H   0  0  0  0  0  0  0  0  0  0  0  0
  152.2726  145.5049  160.4857 H   0  0  0  0  0  0  0  0  0  0  0  0
  151.4208  146.0728  159.0669 H   0  0  0  0  0  0  0  0  0  0  0  0
  151.1491  142.2361  155.3626 H   0  0  0  0  0  0  0  0  0  0  0  0
  1  2  1  0  0  0  0
  1 19  1  0  0  0  0
  1 20  1  0  0  0  0
  1 21  1  0  0  0  0
  2 17  1  0  0  0  0
  2  3  1  0  0  0  0
  2 22  1  0  0  0  0
  3  4  1  0  0  0  0
  3 23  1  0  0  0  0
  3 24  1  0  0  0  0
  4  5  1  0  0  0  0
  4 25  1  0  0  0  0
  4 26  1  0  0  0  0
  5  6  1  0  0  0  0
  5 16  1  0  0  0  0
  5 27  1  0  0  0  0
  6  7  1  0  0  0  0
  6 28  1  0  0  0  0
  6 43  1  0  0  0  0
  7  8  1  0  0  0  0
  7 29  1  0  0  0  0
  7 30  1  0  0  0  0
  8  9  1  0  0  0  0
  8 10  1  0  0  0  0
  8 31  1  0  0  0  0
  9 32  1  0  0  0  0
 10 15  1  0  0  0  0
 10 11  2  0  0  0  0
 11 12  1  0  0  0  0
 11 33  1  0  0  0  0
 12 13  2  0  0  0  0
 12 34  1  0  0  0  0
 13 14  1  0  0  0  0
 14 15  2  0  0  0  0
 14 35  1  0  0  0  0
 15 36  1  0  0  0  0
 16 17  1  0  0  0  0
 16 37  1  0  0  0  0
 16 38  1  0  0  0  0
 17 18  1  0  0  0  0
 17 39  1  0  0  0  0
 18 40  1  0  0  0  0
 18 41  1  0  0  0  0
 18 42  1  0  0  0  0
M  CHG  1   6   1
M  END
> <s_m_source_file>
AV-unprocessed.smi

> <i_m_source_file_index>
3287

> <i_lp_mmshare_version>
43012

> <i_f3d_flags>
0

> <s_epik_input>
W0NIM11bQ0BASF0xW0NIMl1bQ0gyXVtDQEhdKFtDSDJdW0NASF0xW0NIM10pW05IXVtDSDJdW0NASF0oW09IXSljMltjSF1bY0hdbltjSF1bY0hdMg==

> <s_epik_cmdline>
J2VwaWtfcHl0aG9uJywgJy1waCcsICc3LjAnLCAnLXRuJywgJzgnLCAnLW1hJywgJzIwMCcsICctbWV0YWxfYmluZGluZycsICctaW1hZScsICc8aW5maWxlLm1hZT4nLCAnLW9tYWUnLCAnPG91dGZpbGUubWFlPic=

> <r_lp_tautomer_probability>
1

> <r_epik_Ionization_Penalty>
0.00537262

> <r_epik_Ionization_Penalty_Charging>
0.00321624

> <r_epik_Ionization_Penalty_Neutral>
0.00215638

> <r_epik_State_Penalty>
-0

> <r_epik_Charging_Adjusted_Penalty>
0.00321624

> <i_epik_Tot_Q>
1

> <i_epik_Tot_abs_Q>
1

> <r_epik_Metal_State_Penalty>
-0

> <b_epik_Metal_Only>
0

> <s_lp_Force_Field>
OPLS_2005

> <r_lp_Energy>
15.7065

> <b_lp_Chiralities_Consistent>
1

> <s_lp_Variant>
AV-unprocessed.smi:3287-16

> <Gold.Version>
5.8.1

> <Gold.Id.Protein>
6NUR|6NUR_protein|mol2

> <Gold.PLP.Fitness>
53.9683

> <Gold.PLP.PLP>
-43.6533

> <Gold.PLP.part.hbond>
-2.0000

> <Gold.PLP.part.metal>
0.0000

> <Gold.PLP.part.buried>
-4.4704

> <Gold.PLP.part.nonpolar>
-38.2135

> <Gold.PLP.part.repulsive>
0.2833

> <Gold.PLP.ligand.clash>
0.0000

> <Gold.PLP.ligand.torsion>
0.8158

> <Gold.PLP.Chemscore.Hbond>
3.0000

> <Gold.PLP.Chemscore.CHOScore>
0.9736

> <Gold.PLP.Chemscore.Metal>
0.0000

> <Gold.Chemscore.Hbonds>
donor molecule, donor type, donor heavy atom, donor atom, acceptor molecule, acceptor atom, score
      L1  H     6    28       P1  8028  2.00
      L1  H     9    32       P1  7957  1.00
      L1  C    12    34       P1 10174  0.95

> <Gold.PLP.Chemscore.Internal.Correction>
0.0256

> <Gold.Rescore>
     Score         DG    S(hbond)    S(metal)    S(lipo)     H(rot)  DE(clash)    DE(int)     intcor
     20.56     -21.35       2.00        0.00     120.26       1.90       0.03       0.76       ----

> <Gold.Chemscore.Fitness>
20.5642

> <Gold.Chemscore.DG>
-21.3538

> <Gold.Chemscore.ZeroCoef>
-5.4800

> <Gold.Chemscore.Hbond>
1.9989

> <Gold.Chemscore.Metal>
0.0000

> <Gold.Chemscore.Lipo>
120.2596

> <Gold.Chemscore.Internal_Hbond>
0.0000

> <Gold.Chemscore.DEClash>
0.0283

> <Gold.Chemscore.DEInternal>
0.7614

> <Gold.Chemscore.Rot>
1.9035

> <Gold.Chemscore.Internal.Correction>
   9.000000E+99

> <Gold.Chemscore.Hbonds>
donor molecule, donor type, donor heavy atom, donor atom, acceptor molecule, acceptor atom, score
      L1  H     6    28       P1  8028  1.00
      L1  H     9    32       P1  7957  0.99

> <Gold.Chemscore.Hbond.Weighted>
-6.6763

> <Gold.Chemscore.Metal.Weighted>
-0.0000

> <Gold.Chemscore.Lipo.Weighted>
-14.0704

> <Gold.Chemscore.Internal_Hbond.Weighted>
0.0000

> <Gold.Chemscore.DEClash.Weighted>
0.0283

> <Gold.Chemscore.DEInternal.Weighted>
0.7614

> <Gold.Chemscore.Rot.Weighted>
4.8729

> <Gold.Chemscore.Internal.Correction.Weighted>
   9.000000E+99

> <Gold.Protein.RotatedTorsions>
[ 6907 6896 6895 6894 ] final  156.13 input  -60.11 | X-H torsion
[ 7974 7965 7964 7962 ] final -159.05 input  175.53 | X-H torsion
[ 8008 7997 7996 7995 ] final -119.92 input   59.86 | X-H torsion
[ 10167 10162 10161 10158 ] final   24.55 input  -65.29 | X-H torsion
[ 10718 10713 10712 10709 ] final    0.30 input   66.30 | X-H torsion
[ 10763 10752 10751 10750 ] final  -67.89 input  -60.55 | X-H torsion
[ 11005 11000 10999 10996 ] final  -66.35 input  -57.11 | X-H torsion

> <Gold.Protein.ActiveResidues>
 VAL166  LYS551  ARG553  GLY616  TRP617  ASP618  TYR619  PRO620  LYS621  CYS622 
 ASP623  PHE694  ASN695  SER759  ASP760  ASP761  ALA762  ILE779  LEU786  VAL792 
 PHE793  MET794  SER795  GLU796  ALA797  LYS798  CYS799  TRP800  GLU811  SER814 

> <Gold.Protein.RotatedAtoms>
  152.0342  133.3950  159.4309 H   0  0  0  0  0  0  0  0  0  0  0  0  # atno 6907 bound_to 6896
  150.6880  134.3487  159.4909 H   0  0  0  0  0  0  0  0  0  0  0  0  # atno 6908 bound_to 6896
  152.1277  134.9157  160.0611 H   0  0  0  0  0  0  0  0  0  0  0  0  # atno 6909 bound_to 6896
  144.7481  140.3741  143.6069 H   0  0  0  0  0  0  0  0  0  0  0  0  # atno 7974 bound_to 7965
  155.1234  140.0399  157.2756 H   0  0  0  0  0  0  0  0  0  0  0  0  # atno 8008 bound_to 7997
  154.6596  140.2588  155.7097 H   0  0  0  0  0  0  0  0  0  0  0  0  # atno 8009 bound_to 7997
  156.2613  140.2819  156.1063 H   0  0  0  0  0  0  0  0  0  0  0  0  # atno 8010 bound_to 7997
  140.5179  144.0052  150.6402 H   0  0  0  0  0  0  0  0  0  0  0  0  # atno 10167 bound_to 10162
  156.8313  130.5489  149.5686 H   0  0  0  0  0  0  0  0  0  0  0  0  # atno 10718 bound_to 10713
  154.3810  135.6074  153.5791 H   0  0  0  0  0  0  0  0  0  0  0  0  # atno 10763 bound_to 10752
  152.9788  135.5861  154.4410 H   0  0  0  0  0  0  0  0  0  0  0  0  # atno 10764 bound_to 10752
  154.4179  135.2845  155.1972 H   0  0  0  0  0  0  0  0  0  0  0  0  # atno 10765 bound_to 10752
  141.1480  133.6698  156.6126 H   0  0  0  0  0  0  0  0  0  0  0  0  # atno 11005 bound_to 11000
  145.7047  139.1669  143.2573 LP  0  0  0  0  0  0  0  0  0  0  0  0  # atno 17320 bound_to 7965
  146.1390  140.7083  142.9376 LP  0  0  0  0  0  0  0  0  0  0  0  0  # atno 17321 bound_to 7965
  140.3393  143.3030  152.0605 LP  0  0  0  0  0  0  0  0  0  0  0  0  # atno 17342 bound_to 10162
  139.4914  144.6454  151.6789 LP  0  0  0  0  0  0  0  0  0  0  0  0  # atno 17343 bound_to 10162
  156.0933  130.5912  150.9770 LP  0  0  0  0  0  0  0  0  0  0  0  0  # atno 17370 bound_to 10713
  157.6405  131.0911  150.8260 LP  0  0  0  0  0  0  0  0  0  0  0  0  # atno 17371 bound_to 10713
  140.3602  134.7693  157.4529 LP  0  0  0  0  0  0  0  0  0  0  0  0  # atno 17394 bound_to 11000
  140.0791  134.5756  155.8560 LP  0  0  0  0  0  0  0  0  0  0  0  0  # atno 17395 bound_to 11000

$$$$
