AV-unprocessed.smi:203|AV-procd|sdf|1589|dock1
  -GOLD-   2262019483D 1   1.00000     0.00000
 Structure written by MMmdl.
 57 61  0  0  0  0  0  0  0  0  1 V2000
  157.9457  140.5210  161.1670 O   0  0  0  0  0  0  0  0  0  0  0  0
  156.8522  139.9695  161.2660 C   0  0  0  0  0  0  0  0  0  0  0  0
  155.9938  139.5889  160.0721 C   0  0  0  0  0  0  0  0  0  0  0  0
  154.6561  139.1582  160.7082 C   0  0  2  0  0  0  0  0  0  0  0  0
  153.4652  140.1300  160.4303 C   0  0  1  0  0  0  0  0  0  0  0  0
  153.7217  141.5630  160.9684 C   0  0  0  0  0  0  0  0  0  0  0  0
  152.5407  142.4990  160.6811 C   0  0  0  0  0  0  0  0  0  0  0  0
  152.2390  142.5090  159.1791 C   0  0  0  0  0  0  0  0  0  0  0  0
  151.9795  141.0825  158.6783 C   0  0  0  0  0  0  0  0  0  0  0  0
  153.0931  140.1919  159.0051 N   0  0  0  0  0  0  0  0  0  0  0  0
  152.9451  139.0050  158.3751 C   0  0  0  0  0  0  0  0  0  0  0  0
  154.0636  138.4256  157.8740 N   0  0  0  0  0  0  0  0  0  0  0  0
  153.9815  137.2449  157.2530 C   0  0  0  0  0  0  0  0  0  0  0  0
  152.9021  136.4920  157.0283 N   0  0  0  0  0  0  0  0  0  0  0  0
  151.7750  137.0792  157.5242 C   0  0  0  0  0  0  0  0  0  0  0  0
  151.7054  138.3262  158.2057 C   0  0  0  0  0  0  0  0  0  0  0  0
  150.3902  138.6003  158.5620 N   0  0  0  0  0  0  0  0  0  0  0  0
  149.7193  137.5748  158.1129 C   0  0  0  0  0  0  0  0  0  0  0  0
  150.4725  136.6142  157.4776 N   0  0  0  0  0  0  0  0  0  0  0  0
  149.9840  135.3815  156.8858 C   0  0  0  0  0  0  0  0  0  0  0  0
  148.7544  135.6119  155.9808 C   0  0  1  0  0  0  0  0  0  0  0  0
  149.0675  136.5071  154.9326 O   0  0  0  0  0  0  0  0  0  0  0  0
  148.1639  134.3249  155.3678 C   0  0  2  0  0  0  0  0  0  0  0  0
  149.1304  133.5541  154.4631 C   0  0  0  0  0  0  0  0  0  0  0  0
  148.2255  132.8674  153.4491 C   0  0  0  0  0  0  0  0  0  0  0  0
  146.8329  133.4243  153.7473 C   0  0  0  0  0  0  0  0  0  0  0  0
  147.0763  134.6028  154.4984 O   0  0  0  0  0  0  0  0  0  0  0  0
  154.9683  138.9850  162.2103 C   0  0  0  0  0  0  0  0  0  0  0  0
  156.2562  139.6221  162.4046 N   0  0  0  0  0  0  0  0  0  0  0  0
  155.8936  140.4193  159.3728 H   0  0  0  0  0  0  0  0  0  0  0  0
  156.4620  138.7580  159.5435 H   0  0  0  0  0  0  0  0  0  0  0  0
  154.3988  138.1674  160.3329 H   0  0  0  0  0  0  0  0  0  0  0  0
  152.5988  139.7415  160.9666 H   0  0  0  0  0  0  0  0  0  0  0  0
  153.9051  141.5484  162.0421 H   0  0  0  0  0  0  0  0  0  0  0  0
  154.6180  141.9839  160.5128 H   0  0  0  0  0  0  0  0  0  0  0  0
  151.6615  142.1667  161.2345 H   0  0  0  0  0  0  0  0  0  0  0  0
  152.7667  143.5080  161.0266 H   0  0  0  0  0  0  0  0  0  0  0  0
  151.3749  143.1410  158.9726 H   0  0  0  0  0  0  0  0  0  0  0  0
  153.0806  142.9414  158.6365 H   0  0  0  0  0  0  0  0  0  0  0  0
  151.0623  140.6980  159.1267 H   0  0  0  0  0  0  0  0  0  0  0  0
  151.8218  141.1006  157.5987 H   0  0  0  0  0  0  0  0  0  0  0  0
  154.9148  136.8458  156.8841 H   0  0  0  0  0  0  0  0  0  0  0  0
  148.6487  137.4905  158.2316 H   0  0  0  0  0  0  0  0  0  0  0  0
  150.7980  134.9223  156.3238 H   0  0  0  0  0  0  0  0  0  0  0  0
  149.7407  134.6925  157.6948 H   0  0  0  0  0  0  0  0  0  0  0  0
  147.9724  136.0988  156.5647 H   0  0  0  0  0  0  0  0  0  0  0  0
  148.9851  136.0450  154.1120 H   0  0  0  0  0  0  0  0  0  0  0  0
  147.8215  133.6520  156.1572 H   0  0  0  0  0  0  0  0  0  0  0  0
  149.8086  134.2313  153.9437 H   0  0  0  0  0  0  0  0  0  0  0  0
  149.7395  132.8473  155.0271 H   0  0  0  0  0  0  0  0  0  0  0  0
  148.5371  133.1186  152.4347 H   0  0  0  0  0  0  0  0  0  0  0  0
  148.2457  131.7815  153.5468 H   0  0  0  0  0  0  0  0  0  0  0  0
  146.2626  133.6379  152.8431 H   0  0  0  0  0  0  0  0  0  0  0  0
  146.2594  132.7232  154.3557 H   0  0  0  0  0  0  0  0  0  0  0  0
  154.2083  139.4156  162.8623 H   0  0  0  0  0  0  0  0  0  0  0  0
  155.0601  137.9289  162.4671 H   0  0  0  0  0  0  0  0  0  0  0  0
  156.6518  139.7804  163.3203 H   0  0  0  0  0  0  0  0  0  0  0  0
  1  2  2  0  0  0  0
  2 29  1  0  0  0  0
  2  3  1  0  0  0  0
  3  4  1  0  0  0  0
  3 30  1  0  0  0  0
  3 31  1  0  0  0  0
  4  5  1  0  0  0  0
  4 28  1  0  0  0  0
  4 32  1  0  0  0  0
  5 10  1  0  0  0  0
  5  6  1  0  0  0  0
  5 33  1  0  0  0  0
  6  7  1  0  0  0  0
  6 34  1  0  0  0  0
  6 35  1  0  0  0  0
  7  8  1  0  0  0  0
  7 36  1  0  0  0  0
  7 37  1  0  0  0  0
  8  9  1  0  0  0  0
  8 38  1  0  0  0  0
  8 39  1  0  0  0  0
  9 10  1  0  0  0  0
  9 40  1  0  0  0  0
  9 41  1  0  0  0  0
 10 11  1  0  0  0  0
 11 16  1  0  0  0  0
 11 12  2  0  0  0  0
 12 13  1  0  0  0  0
 13 14  2  0  0  0  0
 13 42  1  0  0  0  0
 14 15  1  0  0  0  0
 15 19  1  0  0  0  0
 15 16  2  0  0  0  0
 16 17  1  0  0  0  0
 17 18  2  0  0  0  0
 18 19  1  0  0  0  0
 18 43  1  0  0  0  0
 19 20  1  0  0  0  0
 20 21  1  0  0  0  0
 20 44  1  0  0  0  0
 20 45  1  0  0  0  0
 21 22  1  0  0  0  0
 21 23  1  0  0  0  0
 21 46  1  0  0  0  0
 22 47  1  0  0  0  0
 23 27  1  0  0  0  0
 23 24  1  0  0  0  0
 23 48  1  0  0  0  0
 24 25  1  0  0  0  0
 24 49  1  0  0  0  0
 24 50  1  0  0  0  0
 25 26  1  0  0  0  0
 25 51  1  0  0  0  0
 25 52  1  0  0  0  0
 26 27  1  0  0  0  0
 26 53  1  0  0  0  0
 26 54  1  0  0  0  0
 28 29  1  0  0  0  0
 28 55  1  0  0  0  0
 28 56  1  0  0  0  0
 29 57  1  0  0  0  0
M  END
> <s_m_source_file>
AV-unprocessed.smi

> <i_m_source_file_index>
203

> <i_lp_mmshare_version>
43012

> <i_f3d_flags>
0

> <s_epik_input>
Tz1DMVtDSDJdW0NASF0oW0NIMl1bTkhdMSlbQ0BASF0yW0NIMl1bQ0gyXVtDSDJdW0NIMl1OMmMobltjSF1uMyljKGMzNCluW2NIXW40W0NIMl1bQ0BIXShbT0hdKVtDQEBIXTVbQ0gyXVtDSDJdW0NIMl1PNQ==

> <s_epik_cmdline>
J2VwaWtfcHl0aG9uJywgJy1waCcsICc3LjAnLCAnLXRuJywgJzgnLCAnLW1hJywgJzIwMCcsICctbWV0YWxfYmluZGluZycsICctaW1hZScsICc8aW5maWxlLm1hZT4nLCAnLW9tYWUnLCAnPG91dGZpbGUubWFlPic=

> <r_lp_tautomer_probability>
1

> <r_epik_Ionization_Penalty>
0.00175146

> <r_epik_Ionization_Penalty_Charging>
0

> <r_epik_Ionization_Penalty_Neutral>
0.00175146

> <r_epik_State_Penalty>
0.00109045

> <r_epik_Charging_Adjusted_Penalty>
0.00109045

> <i_epik_Tot_Q>
0

> <i_epik_Tot_abs_Q>
0

> <r_epik_Metal_State_Penalty>
-0

> <b_epik_Metal_Only>
0

> <s_lp_Force_Field>
OPLS_2005

> <r_lp_Energy>
57.3309

> <b_lp_Chiralities_Consistent>
1

> <s_lp_Variant>
AV-unprocessed.smi:203-8

> <Gold.Version>
5.8.1

> <Gold.Id.Protein>
6NUR|6NUR_protein|mol2

> <Gold.PLP.Fitness>
45.9971

> <Gold.PLP.PLP>
-38.8826

> <Gold.PLP.part.hbond>
-4.2010

> <Gold.PLP.part.metal>
0.0000

> <Gold.PLP.part.buried>
-4.5658

> <Gold.PLP.part.nonpolar>
-30.7450

> <Gold.PLP.part.repulsive>
0.1227

> <Gold.PLP.ligand.clash>
0.0000

> <Gold.PLP.ligand.torsion>
0.8033

> <Gold.PLP.Chemscore.Hbond>
2.7888

> <Gold.PLP.Chemscore.CHOScore>
0.0000

> <Gold.PLP.Chemscore.Metal>
0.0000

> <Gold.Chemscore.Hbonds>
donor molecule, donor type, donor heavy atom, donor atom, acceptor molecule, acceptor atom, score
      L1  H    22    47       P1  7948  0.44
      P1  H  7997  8009       L1    12  0.86
      P1  H 10752 10763       L1    14  0.78

> <Gold.PLP.Chemscore.Internal.Correction>
0.3548

> <Gold.Rescore>
     Score         DG    S(hbond)    S(metal)    S(lipo)     H(rot)  DE(clash)    DE(int)     intcor
     15.36     -16.78       2.13        0.00      95.37       2.72       0.69       0.73       ----

> <Gold.Chemscore.Fitness>
15.3625

> <Gold.Chemscore.DG>
-16.7805

> <Gold.Chemscore.ZeroCoef>
-5.4800

> <Gold.Chemscore.Hbond>
2.1252

> <Gold.Chemscore.Metal>
0.0000

> <Gold.Chemscore.Lipo>
95.3678

> <Gold.Chemscore.Internal_Hbond>
0.0000

> <Gold.Chemscore.DEClash>
0.6911

> <Gold.Chemscore.DEInternal>
0.7269

> <Gold.Chemscore.Rot>
2.7171

> <Gold.Chemscore.Internal.Correction>
   9.000000E+99

> <Gold.Chemscore.Hbonds>
donor molecule, donor type, donor heavy atom, donor atom, acceptor molecule, acceptor atom, score
      L1  H    22    47       P1  7948  0.42
      P1  H  7997  8009       L1    12  0.16
      P1  H 10752 10763       L1    14  0.30

> <Gold.Chemscore.Hbond.Weighted>
-7.0982

> <Gold.Chemscore.Metal.Weighted>
-0.0000

> <Gold.Chemscore.Lipo.Weighted>
-11.1580

> <Gold.Chemscore.Internal_Hbond.Weighted>
0.0000

> <Gold.Chemscore.DEClash.Weighted>
0.6911

> <Gold.Chemscore.DEInternal.Weighted>
0.7269

> <Gold.Chemscore.Rot.Weighted>
6.9557

> <Gold.Chemscore.Internal.Correction.Weighted>
   9.000000E+99

> <Gold.Protein.RotatedTorsions>
[ 6907 6896 6895 6894 ] final -175.19 input  -60.11 | X-H torsion
[ 7974 7965 7964 7962 ] final   32.40 input  175.53 | X-H torsion
[ 8008 7997 7996 7995 ] final  133.21 input   59.86 | X-H torsion
[ 10167 10162 10161 10158 ] final  -26.40 input  -65.29 | X-H torsion
[ 10718 10713 10712 10709 ] final  -99.15 input   66.30 | X-H torsion
[ 10763 10752 10751 10750 ] final  111.49 input  -60.55 | X-H torsion
[ 11005 11000 10999 10996 ] final   -0.99 input  -57.11 | X-H torsion

> <Gold.Protein.ActiveResidues>
 VAL166  LYS551  ARG553  GLY616  TRP617  ASP618  TYR619  PRO620  LYS621  CYS622 
 ASP623  PHE694  ASN695  SER759  ASP760  ASP761  ALA762  ILE779  LEU786  VAL792 
 PHE793  MET794  SER795  GLU796  ALA797  LYS798  CYS799  TRP800  GLU811  SER814 

> <Gold.Protein.RotatedAtoms>
  151.5845  133.3373  159.3014 H   0  0  0  0  0  0  0  0  0  0  0  0  # atno 6907 bound_to 6896
  150.8294  134.7544  159.6852 H   0  0  0  0  0  0  0  0  0  0  0  0  # atno 6908 bound_to 6896
  152.4380  134.5654  159.9958 H   0  0  0  0  0  0  0  0  0  0  0  0  # atno 6909 bound_to 6896
  146.1488  139.6530  142.9113 H   0  0  0  0  0  0  0  0  0  0  0  0  # atno 7974 bound_to 7965
  156.2990  140.2527  156.3215 H   0  0  0  0  0  0  0  0  0  0  0  0  # atno 8008 bound_to 7997
  154.9230  140.0400  157.2027 H   0  0  0  0  0  0  0  0  0  0  0  0  # atno 8009 bound_to 7997
  154.8292  140.2873  155.5738 H   0  0  0  0  0  0  0  0  0  0  0  0  # atno 8010 bound_to 7997
  140.7283  143.4182  151.0994 H   0  0  0  0  0  0  0  0  0  0  0  0  # atno 10167 bound_to 10162
  156.0126  130.5270  150.6628 H   0  0  0  0  0  0  0  0  0  0  0  0  # atno 10718 bound_to 10713
  153.4640  135.3715  155.2354 H   0  0  0  0  0  0  0  0  0  0  0  0  # atno 10763 bound_to 10752
  154.8757  135.3915  154.3890 H   0  0  0  0  0  0  0  0  0  0  0  0  # atno 10764 bound_to 10752
  153.4468  135.7085  153.6198 H   0  0  0  0  0  0  0  0  0  0  0  0  # atno 10765 bound_to 10752
  140.6424  133.9478  155.8333 H   0  0  0  0  0  0  0  0  0  0  0  0  # atno 11005 bound_to 11000
  145.4872  141.0438  143.2613 LP  0  0  0  0  0  0  0  0  0  0  0  0  # atno 17320 bound_to 7965
  144.7879  139.6389  143.7126 LP  0  0  0  0  0  0  0  0  0  0  0  0  # atno 17321 bound_to 7965
  139.7824  143.8336  152.3139 LP  0  0  0  0  0  0  0  0  0  0  0  0  # atno 17342 bound_to 10162
  139.8292  144.7261  150.9473 LP  0  0  0  0  0  0  0  0  0  0  0  0  # atno 17343 bound_to 10162
  157.4367  131.0856  151.0985 LP  0  0  0  0  0  0  0  0  0  0  0  0  # atno 17370 bound_to 10713
  157.1541  130.6197  149.5591 LP  0  0  0  0  0  0  0  0  0  0  0  0  # atno 17371 bound_to 10713
  141.0597  134.0364  157.3675 LP  0  0  0  0  0  0  0  0  0  0  0  0  # atno 17394 bound_to 11000
  139.9075  135.0183  156.7551 LP  0  0  0  0  0  0  0  0  0  0  0  0  # atno 17395 bound_to 11000

$$$$
