AV-unprocessed.smi:2044|AV-procd|sdf|8299|dock2
  -GOLD-   2272010563D 1   1.00000     0.00000
 Structure written by MMmdl.
 39 40  0  0  0  0  0  0  0  0  1 V2000
  150.2371  130.3349  154.6099 C   0  0  0  0  0  0  0  0  0  0  0  0
  150.0585  131.8006  154.8136 C   0  0  0  0  0  0  0  0  0  0  0  0
  149.5559  132.7954  154.0225 C   0  0  0  0  0  0  0  0  0  0  0  0
  149.6850  133.9501  154.8397 C   0  0  0  0  0  0  0  0  0  0  0  0
  149.2672  135.2232  154.3740 N   0  0  0  0  0  0  0  0  0  0  0  0
  149.0482  136.3308  155.1035 C   0  0  0  0  0  0  0  0  0  0  0  0
  149.1831  136.4148  156.3247 O   0  0  0  0  0  0  0  0  0  0  0  0
  148.6591  137.3551  154.3304 N   0  0  0  0  0  0  0  0  0  0  0  0
  148.3464  138.6980  154.8127 C   0  0  0  0  0  0  0  0  0  0  0  0
  149.1404  139.8202  154.0824 C   0  0  1  0  0  0  0  0  0  0  0  0
  148.3062  141.1260  154.1175 C   0  0  0  0  0  0  0  0  0  0  0  0
  150.5142  140.0043  154.6073 N   0  0  0  0  0  0  0  0  0  0  0  0
  151.2988  138.7643  154.5713 C   0  0  0  0  0  0  0  0  0  0  0  0
  152.7166  138.9336  155.1449 C   0  0  0  0  0  0  0  0  0  0  0  0
  152.6394  139.4231  156.4763 O   0  0  0  0  0  0  0  0  0  0  0  0
  151.9550  140.6658  156.5478 C   0  0  0  0  0  0  0  0  0  0  0  0
  150.5315  140.5087  155.9855 C   0  0  0  0  0  0  0  0  0  0  0  0
  150.2170  133.6838  156.0228 N   0  0  0  0  0  0  0  0  0  0  0  0
  150.4584  132.3050  156.0123 O   0  0  0  0  0  0  0  0  0  0  0  0
  150.2069  130.0826  153.5497 H   0  0  0  0  0  0  0  0  0  0  0  0
  149.4476  129.7764  155.1130 H   0  0  0  0  0  0  0  0  0  0  0  0
  151.1952  130.0008  155.0087 H   0  0  0  0  0  0  0  0  0  0  0  0
  149.1612  132.7073  153.0212 H   0  0  0  0  0  0  0  0  0  0  0  0
  149.1176  135.2978  153.3788 H   0  0  0  0  0  0  0  0  0  0  0  0
  148.5763  137.1989  153.3366 H   0  0  0  0  0  0  0  0  0  0  0  0
  147.2756  138.8616  154.6891 H   0  0  0  0  0  0  0  0  0  0  0  0
  148.5338  138.6947  155.8855 H   0  0  0  0  0  0  0  0  0  0  0  0
  149.2223  139.5252  153.0351 H   0  0  0  0  0  0  0  0  0  0  0  0
  147.2811  140.9743  153.7817 H   0  0  0  0  0  0  0  0  0  0  0  0
  148.7092  141.8913  153.4556 H   0  0  0  0  0  0  0  0  0  0  0  0
  148.2630  141.5397  155.1257 H   0  0  0  0  0  0  0  0  0  0  0  0
  150.7770  137.9812  155.1236 H   0  0  0  0  0  0  0  0  0  0  0  0
  151.4102  138.4100  153.5481 H   0  0  0  0  0  0  0  0  0  0  0  0
  153.2393  137.9772  155.1492 H   0  0  0  0  0  0  0  0  0  0  0  0
  153.3039  139.6172  154.5298 H   0  0  0  0  0  0  0  0  0  0  0  0
  151.9165  140.9906  157.5876 H   0  0  0  0  0  0  0  0  0  0  0  0
  152.5070  141.4276  155.9949 H   0  0  0  0  0  0  0  0  0  0  0  0
  150.0617  141.4881  156.0447 H   0  0  0  0  0  0  0  0  0  0  0  0
  149.9588  139.8411  156.6311 H   0  0  0  0  0  0  0  0  0  0  0  0
  1  2  1  0  0  0  0
  1 20  1  0  0  0  0
  1 21  1  0  0  0  0
  1 22  1  0  0  0  0
  2 19  1  0  0  0  0
  2  3  2  0  0  0  0
  3  4  1  0  0  0  0
  3 23  1  0  0  0  0
  4  5  1  0  0  0  0
  4 18  2  0  0  0  0
  5  6  1  0  0  0  0
  5 24  1  0  0  0  0
  6  7  2  0  0  0  0
  6  8  1  0  0  0  0
  8  9  1  0  0  0  0
  8 25  1  0  0  0  0
  9 10  1  0  0  0  0
  9 26  1  0  0  0  0
  9 27  1  0  0  0  0
 10 11  1  0  0  0  0
 10 12  1  0  0  0  0
 10 28  1  0  0  0  0
 11 29  1  0  0  0  0
 11 30  1  0  0  0  0
 11 31  1  0  0  0  0
 12 17  1  0  0  0  0
 12 13  1  0  0  0  0
 13 14  1  0  0  0  0
 13 32  1  0  0  0  0
 13 33  1  0  0  0  0
 14 15  1  0  0  0  0
 14 34  1  0  0  0  0
 14 35  1  0  0  0  0
 15 16  1  0  0  0  0
 16 17  1  0  0  0  0
 16 36  1  0  0  0  0
 16 37  1  0  0  0  0
 17 38  1  0  0  0  0
 17 39  1  0  0  0  0
 18 19  1  0  0  0  0
M  END
> <s_m_source_file>
AV-unprocessed.smi

> <i_m_source_file_index>
2044

> <i_lp_mmshare_version>
43012

> <i_f3d_flags>
0

> <s_epik_input>
W0NIM11jMVtjSF1jKG5vMSlbTkhdQyg9TylbTkhdW0NIMl1bQ0BIXShbQ0gzXSlOMltDSDJdW0NIMl1PW0NIMl1bQ0gyXTI=

> <s_epik_cmdline>
J2VwaWtfcHl0aG9uJywgJy1waCcsICc3LjAnLCAnLXRuJywgJzgnLCAnLW1hJywgJzIwMCcsICctbWV0YWxfYmluZGluZycsICctaW1hZScsICc8aW5maWxlLm1hZT4nLCAnLW9tYWUnLCAnPG91dGZpbGUubWFlPic=

> <r_epik_Ionization_Penalty>
0.214073

> <r_epik_Ionization_Penalty_Charging>
0

> <r_epik_Ionization_Penalty_Neutral>
0.214073

> <r_epik_State_Penalty>
0.204211

> <r_epik_Charging_Adjusted_Penalty>
0.204211

> <i_epik_Tot_Q>
0

> <i_epik_Tot_abs_Q>
0

> <r_epik_Metal_State_Penalty>
0.217151

> <b_epik_Metal_Only>
0

> <s_lp_Force_Field>
OPLS_2005

> <r_lp_Energy>
26.3951

> <b_lp_Chiralities_Consistent>
1

> <s_lp_Variant>
AV-unprocessed.smi:2044-2

> <Gold.Version>
5.8.1

> <Gold.Id.Protein>
6NUR|6NUR_protein|mol2

> <Gold.PLP.Fitness>
41.6038

> <Gold.PLP.PLP>
-31.2420

> <Gold.PLP.part.hbond>
-4.0000

> <Gold.PLP.part.metal>
0.0000

> <Gold.PLP.part.buried>
-2.9448

> <Gold.PLP.part.nonpolar>
-24.3137

> <Gold.PLP.part.repulsive>
0.1263

> <Gold.PLP.ligand.clash>
0.0000

> <Gold.PLP.ligand.torsion>
0.3650

> <Gold.PLP.Chemscore.Hbond>
3.6760

> <Gold.PLP.Chemscore.CHOScore>
0.0000

> <Gold.PLP.Chemscore.Metal>
0.0000

> <Gold.Chemscore.Hbonds>
donor molecule, donor type, donor heavy atom, donor atom, acceptor molecule, acceptor atom, score
      L1  H     5    24       P1  7948  1.00
      L1  H     8    25       P1  7948  1.00
      P1  H  7989  7998       L1    12  0.70
      P1  H  7997  8010       L1    15  0.91

> <Gold.PLP.Chemscore.Internal.Correction>
0.0638

> <Gold.Rescore>
     Score         DG    S(hbond)    S(metal)    S(lipo)     H(rot)  DE(clash)    DE(int)     intcor
     12.52     -14.72       1.69        0.00      65.08       1.58       0.59       1.61       ----

> <Gold.Chemscore.Fitness>
12.5231

> <Gold.Chemscore.DG>
-14.7176

> <Gold.Chemscore.ZeroCoef>
-5.4800

> <Gold.Chemscore.Hbond>
1.6936

> <Gold.Chemscore.Metal>
0.0000

> <Gold.Chemscore.Lipo>
65.0755

> <Gold.Chemscore.Internal_Hbond>
0.0000

> <Gold.Chemscore.DEClash>
0.5890

> <Gold.Chemscore.DEInternal>
1.6056

> <Gold.Chemscore.Rot>
1.5753

> <Gold.Chemscore.Internal.Correction>
   9.000000E+99

> <Gold.Chemscore.Hbonds>
donor molecule, donor type, donor heavy atom, donor atom, acceptor molecule, acceptor atom, score
      L1  H     5    24       P1  7948  0.34
      L1  H     8    25       P1  7948  0.94
      P1  H  7989  7998       L1    12  0.06
      P1  H  7997  8010       L1    15  0.07

> <Gold.Chemscore.Hbond.Weighted>
-5.6566

> <Gold.Chemscore.Metal.Weighted>
-0.0000

> <Gold.Chemscore.Lipo.Weighted>
-7.6138

> <Gold.Chemscore.Internal_Hbond.Weighted>
0.0000

> <Gold.Chemscore.DEClash.Weighted>
0.5890

> <Gold.Chemscore.DEInternal.Weighted>
1.6056

> <Gold.Chemscore.Rot.Weighted>
4.0329

> <Gold.Chemscore.Internal.Correction.Weighted>
   9.000000E+99

> <Gold.Protein.RotatedTorsions>
[ 6907 6896 6895 6894 ] final -164.05 input  -60.11 | X-H torsion
[ 7974 7965 7964 7962 ] final -107.60 input  175.53 | X-H torsion
[ 8008 7997 7996 7995 ] final   48.76 input   59.86 | X-H torsion
[ 10167 10162 10161 10158 ] final  106.09 input  -65.29 | X-H torsion
[ 10718 10713 10712 10709 ] final -147.77 input   66.30 | X-H torsion
[ 10763 10752 10751 10750 ] final -148.97 input  -60.55 | X-H torsion
[ 11005 11000 10999 10996 ] final -130.34 input  -57.11 | X-H torsion

> <Gold.Protein.ActiveResidues>
 VAL166  LYS551  ARG553  GLY616  TRP617  ASP618  TYR619  PRO620  LYS621  CYS622 
 ASP623  PHE694  ASN695  SER759  ASP760  ASP761  ALA762  ILE779  LEU786  VAL792 
 PHE793  MET794  SER795  GLU796  ALA797  LYS798  CYS799  TRP800  GLU811  SER814 

> <Gold.Protein.RotatedAtoms>
  151.4057  133.3743  159.2737 H   0  0  0  0  0  0  0  0  0  0  0  0  # atno 6907 bound_to 6896
  150.9400  134.8811  159.7617 H   0  0  0  0  0  0  0  0  0  0  0  0  # atno 6908 bound_to 6896
  152.5067  134.4007  159.9467 H   0  0  0  0  0  0  0  0  0  0  0  0  # atno 6909 bound_to 6896
  145.2033  140.9065  143.3357 H   0  0  0  0  0  0  0  0  0  0  0  0  # atno 7974 bound_to 7965
  155.3910  140.3433  155.4251 H   0  0  0  0  0  0  0  0  0  0  0  0  # atno 8008 bound_to 7997
  156.1557  140.1585  156.8728 H   0  0  0  0  0  0  0  0  0  0  0  0  # atno 8009 bound_to 7997
  154.5093  140.0794  156.7939 H   0  0  0  0  0  0  0  0  0  0  0  0  # atno 8010 bound_to 7997
  139.7038  144.7090  151.1141 H   0  0  0  0  0  0  0  0  0  0  0  0  # atno 10167 bound_to 10162
  156.4117  130.7985  151.2203 H   0  0  0  0  0  0  0  0  0  0  0  0  # atno 10718 bound_to 10713
  154.8204  135.3321  154.7056 H   0  0  0  0  0  0  0  0  0  0  0  0  # atno 10763 bound_to 10752
  153.7690  135.6927  153.4915 H   0  0  0  0  0  0  0  0  0  0  0  0  # atno 10764 bound_to 10752
  153.2058  135.4500  155.0270 H   0  0  0  0  0  0  0  0  0  0  0  0  # atno 10765 bound_to 10752
  140.9354  134.1263  157.4198 H   0  0  0  0  0  0  0  0  0  0  0  0  # atno 11005 bound_to 11000
  144.9927  139.3674  143.6207 LP  0  0  0  0  0  0  0  0  0  0  0  0  # atno 17320 bound_to 7965
  146.3413  139.9116  142.8779 LP  0  0  0  0  0  0  0  0  0  0  0  0  # atno 17321 bound_to 7965
  140.7716  143.5387  150.9338 LP  0  0  0  0  0  0  0  0  0  0  0  0  # atno 17342 bound_to 10162
  139.9069  143.6767  152.3122 LP  0  0  0  0  0  0  0  0  0  0  0  0  # atno 17343 bound_to 10162
  157.7507  131.0255  150.3924 LP  0  0  0  0  0  0  0  0  0  0  0  0  # atno 17370 bound_to 10713
  156.4223  130.3955  149.6816 LP  0  0  0  0  0  0  0  0  0  0  0  0  # atno 17371 bound_to 10713
  139.8806  135.0019  156.6096 LP  0  0  0  0  0  0  0  0  0  0  0  0  # atno 17394 bound_to 11000
  140.7806  133.8663  155.8564 LP  0  0  0  0  0  0  0  0  0  0  0  0  # atno 17395 bound_to 11000

$$$$
