AV-unprocessed.smi:334|AV-procd|sdf|2366|dock6
  -GOLD-   2262022283D 1   1.00000     0.00000
 Structure written by MMmdl.
 44 46  0  0  0  0  0  0  0  0  3 V2000
  148.2510  133.0772  159.1605 C   0  0  0  0  0  0  0  0  0  0  0  0
  147.4044  134.3281  159.4496 C   0  0  2  0  0  0  0  0  0  0  0  0
  147.4973  135.2623  158.3335 N   0  0  0  0  0  0  0  0  0  0  0  0
  148.5423  136.0575  158.0502 C   0  0  0  0  0  0  0  0  0  0  0  0
  149.5298  136.1505  158.7781 O   0  0  0  0  0  0  0  0  0  0  0  0
  148.4964  136.8594  156.7382 C   0  0  0  0  0  0  0  0  0  0  0  0
  149.4315  137.9990  156.6860 N   0  0  0  0  0  0  0  0  0  0  0  0
  150.5168  137.8973  155.7933 C   0  0  0  0  0  0  0  0  0  0  0  0
  151.4433  138.8687  155.6793 C   0  0  0  0  0  0  0  0  0  0  0  0
  152.5588  138.7411  154.7677 N   0  3  0  0  0  0  0  0  0  0  0  0
  152.6549  137.7201  154.0946 O   0  0  0  0  0  0  0  0  0  0  0  0
  153.3740  139.6557  154.6930 O   0  5  0  0  0  0  0  0  0  0  0  0
  151.2909  140.0468  156.5108 C   0  0  0  0  0  0  0  0  0  0  0  0
  150.2581  140.1483  157.3701 C   0  0  0  0  0  0  0  0  0  0  0  0
  149.2562  139.0857  157.4997 C   0  0  0  0  0  0  0  0  0  0  0  0
  148.3228  139.1627  158.2984 O   0  0  0  0  0  0  0  0  0  0  0  0
  147.8487  135.0428  160.7476 C   0  0  2  0  0  0  0  0  0  0  0  0
  147.6730  134.2103  162.0369 C   0  0  0  0  0  0  0  0  0  0  0  0
  146.9193  135.1757  162.9711 C   0  0  2  0  0  0  0  0  0  0  0  0
  145.4589  135.2985  162.4975 C   0  0  0  0  0  0  0  0  0  0  0  0
  145.5875  136.1451  161.2184 C   0  0  0  0  0  0  0  0  0  0  0  0
  147.1105  136.3592  161.1046 C   0  0  1  0  0  0  0  0  0  0  0  0
  147.4963  136.5284  162.5700 C   0  0  0  0  0  0  0  0  0  0  0  0
  148.1821  132.3569  159.9757 H   0  0  0  0  0  0  0  0  0  0  0  0
  149.3033  133.3311  159.0292 H   0  0  0  0  0  0  0  0  0  0  0  0
  147.9147  132.5738  158.2535 H   0  0  0  0  0  0  0  0  0  0  0  0
  146.3650  134.0147  159.5597 H   0  0  0  0  0  0  0  0  0  0  0  0
  146.7251  135.2581  157.6833 H   0  0  0  0  0  0  0  0  0  0  0  0
  148.6924  136.1696  155.9165 H   0  0  0  0  0  0  0  0  0  0  0  0
  147.4737  137.2051  156.5770 H   0  0  0  0  0  0  0  0  0  0  0  0
  150.5451  136.9779  155.2260 H   0  0  0  0  0  0  0  0  0  0  0  0
  152.0033  140.8565  156.4501 H   0  0  0  0  0  0  0  0  0  0  0  0
  150.1644  141.0346  157.9805 H   0  0  0  0  0  0  0  0  0  0  0  0
  148.9073  135.2894  160.6445 H   0  0  0  0  0  0  0  0  0  0  0  0
  147.1162  133.2858  161.8781 H   0  0  0  0  0  0  0  0  0  0  0  0
  148.6450  133.9421  162.4527 H   0  0  0  0  0  0  0  0  0  0  0  0
  147.0164  134.9266  164.0280 H   0  0  0  0  0  0  0  0  0  0  0  0
  145.0025  134.3263  162.3081 H   0  0  0  0  0  0  0  0  0  0  0  0
  144.8491  135.8153  163.2395 H   0  0  0  0  0  0  0  0  0  0  0  0
  145.1514  135.6619  160.3447 H   0  0  0  0  0  0  0  0  0  0  0  0
  145.0788  137.1017  161.3446 H   0  0  0  0  0  0  0  0  0  0  0  0
  147.3848  137.2018  160.4691 H   0  0  0  0  0  0  0  0  0  0  0  0
  147.0015  137.3718  163.0549 H   0  0  0  0  0  0  0  0  0  0  0  0
  148.5732  136.6052  162.7308 H   0  0  0  0  0  0  0  0  0  0  0  0
  1  2  1  0  0  0  0
  1 24  1  0  0  0  0
  1 25  1  0  0  0  0
  1 26  1  0  0  0  0
  2  3  1  0  0  0  0
  2 17  1  0  0  0  0
  2 27  1  0  0  0  0
  3  4  1  0  0  0  0
  3 28  1  0  0  0  0
  4  5  2  0  0  0  0
  4  6  1  0  0  0  0
  6  7  1  0  0  0  0
  6 29  1  0  0  0  0
  6 30  1  0  0  0  0
  7 15  1  0  0  0  0
  7  8  1  0  0  0  0
  8  9  2  0  0  0  0
  8 31  1  0  0  0  0
  9 10  1  0  0  0  0
  9 13  1  0  0  0  0
 10 11  2  0  0  0  0
 10 12  1  0  0  0  0
 13 14  2  0  0  0  0
 13 32  1  0  0  0  0
 14 15  1  0  0  0  0
 14 33  1  0  0  0  0
 15 16  2  0  0  0  0
 17 22  1  0  0  0  0
 17 18  1  0  0  0  0
 17 34  1  0  0  0  0
 18 19  1  0  0  0  0
 18 35  1  0  0  0  0
 18 36  1  0  0  0  0
 19 23  1  0  0  0  0
 19 20  1  0  0  0  0
 19 37  1  0  0  0  0
 20 21  1  0  0  0  0
 20 38  1  0  0  0  0
 20 39  1  0  0  0  0
 21 22  1  0  0  0  0
 21 40  1  0  0  0  0
 21 41  1  0  0  0  0
 22 23  1  0  0  0  0
 22 42  1  0  0  0  0
 23 43  1  0  0  0  0
 23 44  1  0  0  0  0
M  CHG  1  10   1
M  CHG  1  12  -1
M  END
> <s_m_source_file>
AV-unprocessed.smi

> <i_m_source_file_index>
334

> <i_lp_mmshare_version>
43012

> <i_f3d_flags>
0

> <s_epik_input>
W0NIMl0xW0NIMl1bQ0BIXShbQ0gyXTIpW0NAQEhdKFtDSDJdW0NAQEhdMTIpW0NASF0oW0NIM10pW05IXUMoPU8pW0NIMl1uM1tjSF1jKFtOK10oPU8pW08tXSlbY0hdW2NIXWMzPU8=

> <s_epik_cmdline>
J2VwaWtfcHl0aG9uJywgJy1waCcsICc3LjAnLCAnLXRuJywgJzgnLCAnLW1hJywgJzIwMCcsICctbWV0YWxfYmluZGluZycsICctaW1hZScsICc8aW5maWxlLm1hZT4nLCAnLW9tYWUnLCAnPG91dGZpbGUubWFlPic=

> <r_lp_tautomer_probability>
1

> <r_epik_Ionization_Penalty>
2.17081e-08

> <r_epik_Ionization_Penalty_Charging>
8.1195e-11

> <r_epik_Ionization_Penalty_Neutral>
2.16269e-08

> <r_epik_State_Penalty>
-0

> <r_epik_Charging_Adjusted_Penalty>
8.1195e-11

> <i_epik_Tot_Q>
0

> <i_epik_Tot_abs_Q>
2

> <r_epik_Metal_State_Penalty>
-0

> <b_epik_Metal_Only>
0

> <s_lp_Force_Field>
OPLS_2005

> <r_lp_Energy>
61.6433

> <b_lp_Chiralities_Consistent>
1

> <s_lp_Variant>
AV-unprocessed.smi:334-5

> <Gold.Version>
5.8.1

> <Gold.Id.Protein>
6NUR|6NUR_protein|mol2

> <Gold.PLP.Fitness>
42.9870

> <Gold.PLP.PLP>
-36.2589

> <Gold.PLP.part.hbond>
-5.0000

> <Gold.PLP.part.metal>
0.0000

> <Gold.PLP.part.buried>
-4.0697

> <Gold.PLP.part.nonpolar>
-26.6461

> <Gold.PLP.part.repulsive>
0.1680

> <Gold.PLP.ligand.clash>
0.0000

> <Gold.PLP.ligand.torsion>
0.5144

> <Gold.PLP.Chemscore.Hbond>
2.5760

> <Gold.PLP.Chemscore.CHOScore>
0.0000

> <Gold.PLP.Chemscore.Metal>
0.0000

> <Gold.Chemscore.Hbonds>
donor molecule, donor type, donor heavy atom, donor atom, acceptor molecule, acceptor atom, score
      P1  H  6896  6909       L1     5  0.88
      P1  H  7989  7998       L1    12  0.01
      P1  H  7997  8010       L1    12  1.00
      P1  H 10752 10764       L1    11  0.57

> <Gold.PLP.Chemscore.Internal.Correction>
0.0288

> <Gold.Rescore>
     Score         DG    S(hbond)    S(metal)    S(lipo)     H(rot)  DE(clash)    DE(int)     intcor
     18.28     -20.07       2.70        0.00      85.75       1.75       0.02       1.77       ----

> <Gold.Chemscore.Fitness>
18.2838

> <Gold.Chemscore.DG>
-20.0715

> <Gold.Chemscore.ZeroCoef>
-5.4800

> <Gold.Chemscore.Hbond>
2.7043

> <Gold.Chemscore.Metal>
0.0000

> <Gold.Chemscore.Lipo>
85.7460

> <Gold.Chemscore.Internal_Hbond>
0.0000

> <Gold.Chemscore.DEClash>
0.0150

> <Gold.Chemscore.DEInternal>
1.7727

> <Gold.Chemscore.Rot>
1.7474

> <Gold.Chemscore.Internal.Correction>
   9.000000E+99

> <Gold.Chemscore.Hbonds>
donor molecule, donor type, donor heavy atom, donor atom, acceptor molecule, acceptor atom, score
      P1  H  6896  6909       L1     5  0.85
      P1  H  7997  8010       L1    12  0.99
      P1  H 10752 10764       L1    11  0.54

> <Gold.Chemscore.Hbond.Weighted>
-9.0325

> <Gold.Chemscore.Metal.Weighted>
-0.0000

> <Gold.Chemscore.Lipo.Weighted>
-10.0323

> <Gold.Chemscore.Internal_Hbond.Weighted>
0.0000

> <Gold.Chemscore.DEClash.Weighted>
0.0150

> <Gold.Chemscore.DEInternal.Weighted>
1.7727

> <Gold.Chemscore.Rot.Weighted>
4.4733

> <Gold.Chemscore.Internal.Correction.Weighted>
   9.000000E+99

> <Gold.Protein.RotatedTorsions>
[ 6907 6896 6895 6894 ] final   51.23 input  -60.11 | X-H torsion
[ 7974 7965 7964 7962 ] final  159.27 input  175.53 | X-H torsion
[ 8008 7997 7996 7995 ] final  129.83 input   59.86 | X-H torsion
[ 10167 10162 10161 10158 ] final  112.88 input  -65.29 | X-H torsion
[ 10718 10713 10712 10709 ] final -153.78 input   66.30 | X-H torsion
[ 10763 10752 10751 10750 ] final  -89.33 input  -60.55 | X-H torsion
[ 11005 11000 10999 10996 ] final  147.83 input  -57.11 | X-H torsion

> <Gold.Protein.ActiveResidues>
 VAL166  LYS551  ARG553  GLY616  TRP617  ASP618  TYR619  PRO620  LYS621  CYS622 
 ASP623  PHE694  ASN695  SER759  ASP760  ASP761  ALA762  ILE779  LEU786  VAL792 
 PHE793  MET794  SER795  GLU796  ALA797  LYS798  CYS799  TRP800  GLU811  SER814 

> <Gold.Protein.RotatedAtoms>
  152.3104  134.7504  160.0337 H   0  0  0  0  0  0  0  0  0  0  0  0  # atno 6907 bound_to 6896
  151.7987  133.3362  159.3528 H   0  0  0  0  0  0  0  0  0  0  0  0  # atno 6908 bound_to 6896
  150.7317  134.5704  159.5932 H   0  0  0  0  0  0  0  0  0  0  0  0  # atno 6909 bound_to 6896
  144.7799  139.7594  143.6264 H   0  0  0  0  0  0  0  0  0  0  0  0  # atno 7974 bound_to 7965
  156.2943  140.2611  156.2663 H   0  0  0  0  0  0  0  0  0  0  0  0  # atno 8008 bound_to 7997
  154.9738  140.0390  157.2265 H   0  0  0  0  0  0  0  0  0  0  0  0  # atno 8009 bound_to 7997
  154.7834  140.2799  155.6051 H   0  0  0  0  0  0  0  0  0  0  0  0  # atno 8010 bound_to 7997
  139.6503  144.7128  151.2061 H   0  0  0  0  0  0  0  0  0  0  0  0  # atno 10167 bound_to 10162
  156.4904  130.8345  151.2568 H   0  0  0  0  0  0  0  0  0  0  0  0  # atno 10718 bound_to 10713
  154.6541  135.5345  153.7937 H   0  0  0  0  0  0  0  0  0  0  0  0  # atno 10763 bound_to 10752
  153.0403  135.6489  154.0972 H   0  0  0  0  0  0  0  0  0  0  0  0  # atno 10764 bound_to 10752
  154.0887  135.2941  155.3256 H   0  0  0  0  0  0  0  0  0  0  0  0  # atno 10765 bound_to 10752
  140.0909  134.9042  157.1648 H   0  0  0  0  0  0  0  0  0  0  0  0  # atno 11005 bound_to 11000
  146.2001  139.5291  142.9748 LP  0  0  0  0  0  0  0  0  0  0  0  0  # atno 17320 bound_to 7965
  145.6079  141.0344  143.1982 LP  0  0  0  0  0  0  0  0  0  0  0  0  # atno 17321 bound_to 7965
  140.7534  143.6162  150.8558 LP  0  0  0  0  0  0  0  0  0  0  0  0  # atno 17342 bound_to 10162
  139.9809  143.5952  152.2943 LP  0  0  0  0  0  0  0  0  0  0  0  0  # atno 17343 bound_to 10162
  157.7474  131.0015  150.2966 LP  0  0  0  0  0  0  0  0  0  0  0  0  # atno 17370 bound_to 10713
  156.3432  130.3819  149.7391 LP  0  0  0  0  0  0  0  0  0  0  0  0  # atno 17371 bound_to 10713
  140.3354  134.2763  155.7221 LP  0  0  0  0  0  0  0  0  0  0  0  0  # atno 17394 bound_to 11000
  141.2077  133.7797  157.0101 LP  0  0  0  0  0  0  0  0  0  0  0  0  # atno 17395 bound_to 11000

$$$$
