AV-unprocessed.smi:3145|AV-procd|sdf|11984|dock9
  -GOLD-   2272017393D 1   1.00000     0.00000
 Structure written by MMmdl.
 34 34  0  0  0  0  0  0  0  0  3 V2000
  144.0995  136.9729  152.5559 C   0  0  0  0  0  0  0  0  0  0  0  0
  145.3868  136.2083  152.2201 C   0  0  1  0  0  0  0  0  0  0  0  0
  145.2848  135.5447  150.8305 C   0  0  0  0  0  0  0  0  0  0  0  0
  145.2413  134.0953  150.9020 N   0  0  0  0  0  0  0  0  0  0  0  0
  144.1692  133.2576  150.6781 C   0  0  0  0  0  0  0  0  0  0  0  0
  144.6022  131.9800  150.8893 C   0  0  0  0  0  0  0  0  0  0  0  0
  145.9725  132.1400  151.2386 C   0  0  0  0  0  0  0  0  0  0  0  0
  146.3529  133.4075  151.2420 N   0  0  0  0  0  0  0  0  0  0  0  0
  146.5405  137.1331  152.2861 N   0  3  0  0  0  0  0  0  0  0  0  0
  146.6384  137.9195  153.5337 C   0  0  0  0  0  0  0  0  0  0  0  0
  147.3245  139.2647  153.2712 C   0  0  0  0  0  0  0  0  0  0  0  0
  146.9981  139.9309  152.2818 O   0  0  0  0  0  0  0  0  0  0  0  0
  148.2566  139.5112  154.2299 N   0  5  0  0  0  0  0  0  0  0  0  0
  149.6180  139.9655  153.9507 C   0  0  0  0  0  0  0  0  0  0  0  0
  150.6325  138.8364  154.2011 C   0  0  0  0  0  0  0  0  0  0  0  0
  152.0279  139.2918  154.3291 C   0  0  0  0  0  0  0  0  0  0  0  0
  153.1256  139.6503  154.4247 N   0  0  0  0  0  0  0  0  0  0  0  0
  143.2347  136.3089  152.5461 H   0  0  0  0  0  0  0  0  0  0  0  0
  143.9129  137.7736  151.8392 H   0  0  0  0  0  0  0  0  0  0  0  0
  144.1571  137.4204  153.5489 H   0  0  0  0  0  0  0  0  0  0  0  0
  145.5073  135.4304  152.9761 H   0  0  0  0  0  0  0  0  0  0  0  0
  144.3801  135.8802  150.3218 H   0  0  0  0  0  0  0  0  0  0  0  0
  146.1227  135.8445  150.1988 H   0  0  0  0  0  0  0  0  0  0  0  0
  143.1975  133.6365  150.3973 H   0  0  0  0  0  0  0  0  0  0  0  0
  144.0276  131.0693  150.8089 H   0  0  0  0  0  0  0  0  0  0  0  0
  146.6962  131.3784  151.4893 H   0  0  0  0  0  0  0  0  0  0  0  0
  147.3912  136.5989  152.1786 H   0  0  0  0  0  0  0  0  0  0  0  0
  145.6343  138.0666  153.9361 H   0  0  0  0  0  0  0  0  0  0  0  0
  147.2158  137.3772  154.2824 H   0  0  0  0  0  0  0  0  0  0  0  0
  149.7246  140.3129  152.9222 H   0  0  0  0  0  0  0  0  0  0  0  0
  149.8824  140.8215  154.5716 H   0  0  0  0  0  0  0  0  0  0  0  0
  150.3756  138.2752  155.0998 H   0  0  0  0  0  0  0  0  0  0  0  0
  150.6032  138.1301  153.3714 H   0  0  0  0  0  0  0  0  0  0  0  0
  146.4770  137.7896  151.5217 H   0  0  0  0  0  0  0  0  0  0  0  0
  1  2  1  0  0  0  0
  1 18  1  0  0  0  0
  1 19  1  0  0  0  0
  1 20  1  0  0  0  0
  2  3  1  0  0  0  0
  2  9  1  0  0  0  0
  2 21  1  0  0  0  0
  3  4  1  0  0  0  0
  3 22  1  0  0  0  0
  3 23  1  0  0  0  0
  4  8  1  0  0  0  0
  4  5  1  0  0  0  0
  5  6  2  0  0  0  0
  5 24  1  0  0  0  0
  6  7  1  0  0  0  0
  6 25  1  0  0  0  0
  7  8  2  0  0  0  0
  7 26  1  0  0  0  0
  9 10  1  0  0  0  0
  9 27  1  0  0  0  0
  9 34  1  0  0  0  0
 10 11  1  0  0  0  0
 10 28  1  0  0  0  0
 10 29  1  0  0  0  0
 11 12  2  0  0  0  0
 11 13  1  0  0  0  0
 13 14  1  0  0  0  0
 14 15  1  0  0  0  0
 14 30  1  0  0  0  0
 14 31  1  0  0  0  0
 15 16  1  0  0  0  0
 15 32  1  0  0  0  0
 15 33  1  0  0  0  0
 16 17  3  0  0  0  0
M  CHG  1   9   1
M  CHG  1  13  -1
M  END
> <s_m_source_file>
AV-unprocessed.smi

> <i_m_source_file_index>
3145

> <i_lp_mmshare_version>
43012

> <i_f3d_flags>
0

> <s_epik_input>
bjFbY0hdW2NIXVtjSF1uMVtDSDJdW0NAQEhdKFtDSDNdKVtOSF1bQ0gyXUMoPU8pW05IXVtDSDJdW0NIMl1DI04=

> <s_epik_cmdline>
J2VwaWtfcHl0aG9uJywgJy1waCcsICc3LjAnLCAnLXRuJywgJzgnLCAnLW1hJywgJzIwMCcsICctbWV0YWxfYmluZGluZycsICctaW1hZScsICc8aW5maWxlLm1hZT4nLCAnLW9tYWUnLCAnPG91dGZpbGUubWFlPic=

> <r_lp_tautomer_probability>
1

> <r_epik_Ionization_Penalty>
6.20835

> <r_epik_Ionization_Penalty_Charging>
6.20835

> <r_epik_Ionization_Penalty_Neutral>
3.57231e-06

> <r_epik_State_Penalty>
6.38139

> <r_epik_Charging_Adjusted_Penalty>
12.5897

> <i_epik_Tot_Q>
0

> <i_epik_Tot_abs_Q>
2

> <r_epik_Metal_State_Penalty>
2.31725

> <b_epik_Metal_Only>
1

> <s_lp_Force_Field>
OPLS_2005

> <r_lp_Energy>
1.97057

> <b_lp_Chiralities_Consistent>
1

> <s_lp_Variant>
AV-unprocessed.smi:3145-6

> <Gold.Version>
5.8.1

> <Gold.Id.Protein>
6NUR|6NUR_protein|mol2

> <Gold.PLP.Fitness>
44.2092

> <Gold.PLP.PLP>
-32.5598

> <Gold.PLP.part.hbond>
-2.7447

> <Gold.PLP.part.metal>
0.0000

> <Gold.PLP.part.buried>
-5.9009

> <Gold.PLP.part.nonpolar>
-25.3714

> <Gold.PLP.part.repulsive>
0.9895

> <Gold.PLP.ligand.clash>
0.0000

> <Gold.PLP.ligand.torsion>
1.7824

> <Gold.PLP.Chemscore.Hbond>
3.0000

> <Gold.PLP.Chemscore.CHOScore>
2.0000

> <Gold.PLP.Chemscore.Metal>
0.0000

> <Gold.Chemscore.Hbonds>
donor molecule, donor type, donor heavy atom, donor atom, acceptor molecule, acceptor atom, score
      L1  H     9    27       P1  7948  2.00
      P1  H  7997  8008       L1    17  1.00
      L1  C     5    24       P1 10186  1.00
      L1  C     7    26       P1 10747  0.71

> <Gold.PLP.Chemscore.Internal.Correction>
0.2143

> <Gold.Rescore>
     Score         DG    S(hbond)    S(metal)    S(lipo)     H(rot)  DE(clash)    DE(int)     intcor
     10.11     -11.95       2.00        0.00      59.47       2.79       0.02       1.83       ----

> <Gold.Chemscore.Fitness>
10.1121

> <Gold.Chemscore.DG>
-11.9537

> <Gold.Chemscore.ZeroCoef>
-5.4800

> <Gold.Chemscore.Hbond>
1.9971

> <Gold.Chemscore.Metal>
0.0000

> <Gold.Chemscore.Lipo>
59.4741

> <Gold.Chemscore.Internal_Hbond>
0.0000

> <Gold.Chemscore.DEClash>
0.0156

> <Gold.Chemscore.DEInternal>
1.8261

> <Gold.Chemscore.Rot>
2.7949

> <Gold.Chemscore.Internal.Correction>
   9.000000E+99

> <Gold.Chemscore.Hbonds>
donor molecule, donor type, donor heavy atom, donor atom, acceptor molecule, acceptor atom, score
      L1  H     9    27       P1  7948  0.99
      P1  H  7997  8008       L1    17  0.94

> <Gold.Chemscore.Hbond.Weighted>
-6.6703

> <Gold.Chemscore.Metal.Weighted>
-0.0000

> <Gold.Chemscore.Lipo.Weighted>
-6.9585

> <Gold.Chemscore.Internal_Hbond.Weighted>
0.0000

> <Gold.Chemscore.DEClash.Weighted>
0.0156

> <Gold.Chemscore.DEInternal.Weighted>
1.8261

> <Gold.Chemscore.Rot.Weighted>
7.1551

> <Gold.Chemscore.Internal.Correction.Weighted>
   9.000000E+99

> <Gold.Protein.RotatedTorsions>
[ 6907 6896 6895 6894 ] final -107.33 input  -60.11 | X-H torsion
[ 7974 7965 7964 7962 ] final -117.10 input  175.53 | X-H torsion
[ 8008 7997 7996 7995 ] final   -5.26 input   59.86 | X-H torsion
[ 10167 10162 10161 10158 ] final   33.87 input  -65.29 | X-H torsion
[ 10718 10713 10712 10709 ] final   95.24 input   66.30 | X-H torsion
[ 10763 10752 10751 10750 ] final  148.53 input  -60.55 | X-H torsion
[ 11005 11000 10999 10996 ] final  -44.04 input  -57.11 | X-H torsion

> <Gold.Protein.ActiveResidues>
 VAL166  LYS551  ARG553  GLY616  TRP617  ASP618  TYR619  PRO620  LYS621  CYS622 
 ASP623  PHE694  ASN695  SER759  ASP760  ASP761  ALA762  ILE779  LEU786  VAL792 
 PHE793  MET794  SER795  GLU796  ALA797  LYS798  CYS799  TRP800  GLU811  SER814 

> <Gold.Protein.RotatedAtoms>
  150.7438  133.9842  159.3585 H   0  0  0  0  0  0  0  0  0  0  0  0  # atno 6907 bound_to 6896
  151.7785  135.0765  160.0380 H   0  0  0  0  0  0  0  0  0  0  0  0  # atno 6908 bound_to 6896
  152.3290  133.5900  159.5832 H   0  0  0  0  0  0  0  0  0  0  0  0  # atno 6909 bound_to 6896
  145.0891  140.8477  143.3993 H   0  0  0  0  0  0  0  0  0  0  0  0  # atno 7974 bound_to 7965
  154.6057  140.2463  155.7733 H   0  0  0  0  0  0  0  0  0  0  0  0  # atno 8008 bound_to 7997
  156.2339  140.2957  156.0213 H   0  0  0  0  0  0  0  0  0  0  0  0  # atno 8009 bound_to 7997
  155.2135  140.0398  157.2927 H   0  0  0  0  0  0  0  0  0  0  0  0  # atno 8010 bound_to 7997
  140.4367  144.1247  150.6167 H   0  0  0  0  0  0  0  0  0  0  0  0  # atno 10167 bound_to 10162
  157.6940  131.0539  150.4308 H   0  0  0  0  0  0  0  0  0  0  0  0  # atno 10718 bound_to 10713
  154.0563  135.2877  155.3332 H   0  0  0  0  0  0  0  0  0  0  0  0  # atno 10763 bound_to 10752
  154.6837  135.5253  153.8300 H   0  0  0  0  0  0  0  0  0  0  0  0  # atno 10764 bound_to 10752
  153.0540  135.6588  154.0755 H   0  0  0  0  0  0  0  0  0  0  0  0  # atno 10765 bound_to 10752
  141.0424  133.6775  156.2816 H   0  0  0  0  0  0  0  0  0  0  0  0  # atno 11005 bound_to 11000
  145.1087  139.2772  143.5648 LP  0  0  0  0  0  0  0  0  0  0  0  0  # atno 17320 bound_to 7965
  146.3531  140.0677  142.8625 LP  0  0  0  0  0  0  0  0  0  0  0  0  # atno 17321 bound_to 7965
  140.4365  143.2545  151.9528 LP  0  0  0  0  0  0  0  0  0  0  0  0  # atno 17342 bound_to 10162
  139.4787  144.5695  151.8112 LP  0  0  0  0  0  0  0  0  0  0  0  0  # atno 17343 bound_to 10162
  156.4675  130.4045  149.6538 LP  0  0  0  0  0  0  0  0  0  0  0  0  # atno 17370 bound_to 10713
  156.3631  130.7491  151.2466 LP  0  0  0  0  0  0  0  0  0  0  0  0  # atno 17371 bound_to 10713
  140.6210  134.5361  157.5547 LP  0  0  0  0  0  0  0  0  0  0  0  0  # atno 17394 bound_to 11000
  139.9285  134.8008  156.0997 LP  0  0  0  0  0  0  0  0  0  0  0  0  # atno 17395 bound_to 11000

$$$$
