AV-unprocessed.smi:1058|AV-procd|sdf|4652|dock1
  -GOLD-   22720 3163D 1   1.00000     0.00000
 Structure written by MMmdl.
 40 41  0  0  0  0  0  0  0  0  1 V2000
  149.8474  139.8053  154.1598 C   0  0  0  0  0  0  0  0  0  0  0  0
  148.6765  140.7451  154.4941 C   0  0  2  0  0  0  0  0  0  0  0  0
  149.1875  141.8107  155.3580 N   0  0  0  0  0  0  0  0  0  0  0  0
  149.9881  141.6236  156.4189 C   0  0  0  0  0  0  0  0  0  0  0  0
  150.3660  140.5123  156.7924 O   0  0  0  0  0  0  0  0  0  0  0  0
  150.3149  142.7931  156.9970 N   0  0  0  0  0  0  0  0  0  0  0  0
  151.1349  143.0094  158.1367 C   0  0  0  0  0  0  0  0  0  0  0  0
  151.3451  144.3654  158.4754 C   0  0  0  0  0  0  0  0  0  0  0  0
  152.1449  144.6853  159.5899 C   0  0  0  0  0  0  0  0  0  0  0  0
  152.7131  143.6394  160.3389 C   0  0  0  0  0  0  0  0  0  0  0  0
  152.4533  142.3171  159.9345 C   0  0  0  0  0  0  0  0  0  0  0  0
  151.6879  142.0085  158.8665 N   0  0  0  0  0  0  0  0  0  0  0  0
  147.5887  139.9211  155.2227 C   0  0  0  0  0  0  0  0  0  0  0  0
  147.7783  138.7129  155.3825 O   0  0  0  0  0  0  0  0  0  0  0  0
  146.4606  140.5323  155.6655 N   0  0  0  0  0  0  0  0  0  0  0  0
  146.1553  141.9625  155.5354 C   0  0  0  0  0  0  0  0  0  0  0  0
  146.5339  142.6734  156.8441 C   0  0  0  0  0  0  0  0  0  0  0  0
  145.5237  141.9953  158.2357 S   0  0  0  0  0  0  0  0  0  0  0  0
  146.1526  142.3638  159.5127 O   0  0  0  0  0  0  0  0  0  0  0  0
  144.1170  142.3398  157.9780 O   0  0  0  0  0  0  0  0  0  0  0  0
  145.7155  140.1762  157.9679 C   0  0  0  0  0  0  0  0  0  0  0  0
  145.4683  139.8305  156.4898 C   0  0  0  0  0  0  0  0  0  0  0  0
  149.5333  138.9951  153.5007 H   0  0  0  0  0  0  0  0  0  0  0  0
  150.2749  139.3553  155.0573 H   0  0  0  0  0  0  0  0  0  0  0  0
  150.6461  140.3445  153.6496 H   0  0  0  0  0  0  0  0  0  0  0  0
  148.2966  141.2105  153.5849 H   0  0  0  0  0  0  0  0  0  0  0  0
  148.9303  142.7557  155.1142 H   0  0  0  0  0  0  0  0  0  0  0  0
  149.9361  143.6261  156.5711 H   0  0  0  0  0  0  0  0  0  0  0  0
  150.9008  145.1567  157.8893 H   0  0  0  0  0  0  0  0  0  0  0  0
  152.3186  145.7153  159.8647 H   0  0  0  0  0  0  0  0  0  0  0  0
  153.3316  143.8444  161.2003 H   0  0  0  0  0  0  0  0  0  0  0  0
  152.8705  141.4850  160.4820 H   0  0  0  0  0  0  0  0  0  0  0  0
  146.6501  142.4263  154.6839 H   0  0  0  0  0  0  0  0  0  0  0  0
  145.0914  142.0996  155.3375 H   0  0  0  0  0  0  0  0  0  0  0  0
  147.5892  142.5297  157.0796 H   0  0  0  0  0  0  0  0  0  0  0  0
  146.3500  143.7458  156.7794 H   0  0  0  0  0  0  0  0  0  0  0  0
  146.7222  139.8873  158.2726 H   0  0  0  0  0  0  0  0  0  0  0  0
  145.0106  139.6580  158.6179 H   0  0  0  0  0  0  0  0  0  0  0  0
  144.4581  140.1219  156.1992 H   0  0  0  0  0  0  0  0  0  0  0  0
  145.5055  138.7492  156.3500 H   0  0  0  0  0  0  0  0  0  0  0  0
  1  2  1  0  0  0  0
  1 23  1  0  0  0  0
  1 24  1  0  0  0  0
  1 25  1  0  0  0  0
  2  3  1  0  0  0  0
  2 13  1  0  0  0  0
  2 26  1  0  0  0  0
  3  4  1  0  0  0  0
  3 27  1  0  0  0  0
  4  5  2  0  0  0  0
  4  6  1  0  0  0  0
  6  7  1  0  0  0  0
  6 28  1  0  0  0  0
  7 12  1  0  0  0  0
  7  8  2  0  0  0  0
  8  9  1  0  0  0  0
  8 29  1  0  0  0  0
  9 10  2  0  0  0  0
  9 30  1  0  0  0  0
 10 11  1  0  0  0  0
 10 31  1  0  0  0  0
 11 12  2  0  0  0  0
 11 32  1  0  0  0  0
 13 14  2  0  0  0  0
 13 15  1  0  0  0  0
 15 22  1  0  0  0  0
 15 16  1  0  0  0  0
 16 17  1  0  0  0  0
 16 33  1  0  0  0  0
 16 34  1  0  0  0  0
 17 18  1  0  0  0  0
 17 35  1  0  0  0  0
 17 36  1  0  0  0  0
 18 19  2  0  0  0  0
 18 20  2  0  0  0  0
 18 21  1  0  0  0  0
 21 22  1  0  0  0  0
 21 37  1  0  0  0  0
 21 38  1  0  0  0  0
 22 39  1  0  0  0  0
 22 40  1  0  0  0  0
M  END
> <s_m_source_file>
AV-unprocessed.smi

> <i_m_source_file_index>
1058

> <i_lp_mmshare_version>
43012

> <i_f3d_flags>
0

> <s_epik_input>
Tz1TMSg9TylbQ0gyXVtDSDJdTihbQ0gyXVtDSDJdMSlDKD1PKVtDQEhdKFtDSDNdKVtOSF1DKD1PKVtOSF1jMltjSF1bY0hdW2NIXVtjSF1uMg==

> <s_epik_cmdline>
J2VwaWtfcHl0aG9uJywgJy1waCcsICc3LjAnLCAnLXRuJywgJzgnLCAnLW1hJywgJzIwMCcsICctbWV0YWxfYmluZGluZycsICctaW1hZScsICc8aW5maWxlLm1hZT4nLCAnLW9tYWUnLCAnPG91dGZpbGUubWFlPic=

> <r_lp_tautomer_probability>
1

> <r_epik_Ionization_Penalty>
3.69864e-05

> <r_epik_Ionization_Penalty_Charging>
0

> <r_epik_Ionization_Penalty_Neutral>
3.69864e-05

> <r_epik_State_Penalty>
-0

> <r_epik_Charging_Adjusted_Penalty>
0

> <i_epik_Tot_Q>
0

> <i_epik_Tot_abs_Q>
0

> <r_epik_Metal_State_Penalty>
-0

> <b_epik_Metal_Only>
0

> <s_lp_Force_Field>
OPLS_2005

> <r_lp_Energy>
18.4379

> <b_lp_Chiralities_Consistent>
1

> <s_lp_Variant>
AV-unprocessed.smi:1058-1

> <Gold.Version>
5.8.1

> <Gold.Id.Protein>
6NUR|6NUR_protein|mol2

> <Gold.PLP.Fitness>
40.5235

> <Gold.PLP.PLP>
-31.9359

> <Gold.PLP.part.hbond>
-3.0000

> <Gold.PLP.part.metal>
0.0000

> <Gold.PLP.part.buried>
-2.7787

> <Gold.PLP.part.nonpolar>
-26.5622

> <Gold.PLP.part.repulsive>
0.2519

> <Gold.PLP.ligand.clash>
0.0000

> <Gold.PLP.ligand.torsion>
0.1712

> <Gold.PLP.Chemscore.Hbond>
2.9675

> <Gold.PLP.Chemscore.CHOScore>
0.0000

> <Gold.PLP.Chemscore.Metal>
0.0000

> <Gold.Chemscore.Hbonds>
donor molecule, donor type, donor heavy atom, donor atom, acceptor molecule, acceptor atom, score
      L1  H     3    27       P1  8028  0.98
      L1  H     6    28       P1  8028  1.00
      P1  H  6934  6946       L1    19  0.91

> <Gold.PLP.Chemscore.Internal.Correction>
0.0277

> <Gold.Rescore>
     Score         DG    S(hbond)    S(metal)    S(lipo)     H(rot)  DE(clash)    DE(int)     intcor
     16.23     -19.50       2.92        0.00      66.23       1.36       0.46       2.81       ----

> <Gold.Chemscore.Fitness>
16.2281

> <Gold.Chemscore.DG>
-19.4968

> <Gold.Chemscore.ZeroCoef>
-5.4800

> <Gold.Chemscore.Hbond>
2.9204

> <Gold.Chemscore.Metal>
0.0000

> <Gold.Chemscore.Lipo>
66.2283

> <Gold.Chemscore.Internal_Hbond>
0.0000

> <Gold.Chemscore.DEClash>
0.4609

> <Gold.Chemscore.DEInternal>
2.8077

> <Gold.Chemscore.Rot>
1.3617

> <Gold.Chemscore.Internal.Correction>
   9.000000E+99

> <Gold.Chemscore.Hbonds>
donor molecule, donor type, donor heavy atom, donor atom, acceptor molecule, acceptor atom, score
      L1  H     3    27       P1  8028  0.87
      L1  H     6    28       P1  8028  1.00
      P1  H  6934  6946       L1    19  0.83

> <Gold.Chemscore.Hbond.Weighted>
-9.7541

> <Gold.Chemscore.Metal.Weighted>
-0.0000

> <Gold.Chemscore.Lipo.Weighted>
-7.7487

> <Gold.Chemscore.Internal_Hbond.Weighted>
0.0000

> <Gold.Chemscore.DEClash.Weighted>
0.4609

> <Gold.Chemscore.DEInternal.Weighted>
2.8077

> <Gold.Chemscore.Rot.Weighted>
3.4861

> <Gold.Chemscore.Internal.Correction.Weighted>
   9.000000E+99

> <Gold.Protein.RotatedTorsions>
[ 6907 6896 6895 6894 ] final  -89.87 input  -60.11 | X-H torsion
[ 7974 7965 7964 7962 ] final   64.53 input  175.53 | X-H torsion
[ 8008 7997 7996 7995 ] final  167.05 input   59.86 | X-H torsion
[ 10167 10162 10161 10158 ] final -131.89 input  -65.29 | X-H torsion
[ 10718 10713 10712 10709 ] final  109.43 input   66.30 | X-H torsion
[ 10763 10752 10751 10750 ] final  -12.23 input  -60.55 | X-H torsion
[ 11005 11000 10999 10996 ] final  -14.96 input  -57.11 | X-H torsion

> <Gold.Protein.ActiveResidues>
 VAL166  LYS551  ARG553  GLY616  TRP617  ASP618  TYR619  PRO620  LYS621  CYS622 
 ASP623  PHE694  ASN695  SER759  ASP760  ASP761  ALA762  ILE779  LEU786  VAL792 
 PHE793  MET794  SER795  GLU796  ALA797  LYS798  CYS799  TRP800  GLU811  SER814 

> <Gold.Protein.RotatedAtoms>
  150.6877  134.2520  159.4514 H   0  0  0  0  0  0  0  0  0  0  0  0  # atno 6907 bound_to 6896
  152.0457  134.9682  160.0583 H   0  0  0  0  0  0  0  0  0  0  0  0  # atno 6908 bound_to 6896
  152.1166  133.4295  159.4693 H   0  0  0  0  0  0  0  0  0  0  0  0  # atno 6909 bound_to 6896
  145.8491  139.3242  143.0886 H   0  0  0  0  0  0  0  0  0  0  0  0  # atno 7974 bound_to 7965
  156.1666  140.1627  156.8520 H   0  0  0  0  0  0  0  0  0  0  0  0  # atno 8008 bound_to 7997
  154.5214  140.0777  156.8214 H   0  0  0  0  0  0  0  0  0  0  0  0  # atno 8009 bound_to 7997
  155.3598  140.3394  155.4243 H   0  0  0  0  0  0  0  0  0  0  0  0  # atno 8010 bound_to 7997
  139.9142  143.6458  152.2568 H   0  0  0  0  0  0  0  0  0  0  0  0  # atno 10167 bound_to 10162
  157.6542  131.0913  150.6452 H   0  0  0  0  0  0  0  0  0  0  0  0  # atno 10718 bound_to 10713
  153.4955  135.7017  153.5861 H   0  0  0  0  0  0  0  0  0  0  0  0  # atno 10763 bound_to 10752
  153.4015  135.3871  155.1990 H   0  0  0  0  0  0  0  0  0  0  0  0  # atno 10764 bound_to 10752
  154.8714  135.3882  154.4420 H   0  0  0  0  0  0  0  0  0  0  0  0  # atno 10765 bound_to 10752
  140.7917  133.8282  155.9386 H   0  0  0  0  0  0  0  0  0  0  0  0  # atno 11005 bound_to 11000
  145.9378  140.9001  143.0323 LP  0  0  0  0  0  0  0  0  0  0  0  0  # atno 17320 bound_to 7965
  144.6730  140.1507  143.7430 LP  0  0  0  0  0  0  0  0  0  0  0  0  # atno 17321 bound_to 7965
  139.6916  144.7646  151.1428 LP  0  0  0  0  0  0  0  0  0  0  0  0  # atno 17342 bound_to 10162
  140.7678  143.5581  150.9130 LP  0  0  0  0  0  0  0  0  0  0  0  0  # atno 17343 bound_to 10162
  156.6760  130.4553  149.5642 LP  0  0  0  0  0  0  0  0  0  0  0  0  # atno 17370 bound_to 10713
  156.1963  130.6591  151.1118 LP  0  0  0  0  0  0  0  0  0  0  0  0  # atno 17371 bound_to 10713
  140.9383  134.1934  157.4816 LP  0  0  0  0  0  0  0  0  0  0  0  0  # atno 17394 bound_to 11000
  139.8730  134.9861  156.5310 LP  0  0  0  0  0  0  0  0  0  0  0  0  # atno 17395 bound_to 11000

$$$$
