AV-unprocessed.smi:290|AV-procd|sdf|2221|dock9
  -GOLD-   2262022 63D 1   1.00000     0.00000
 Structure written by MMmdl.
 59 62  0  0  0  0  0  0  0  0  2 V2000
  152.5186  140.4157  159.4221 C   0  0  0  0  0  0  0  0  0  0  0  0
  152.8162  141.9088  159.2032 C   0  0  2  0  0  0  0  0  0  0  0  0
  153.3474  142.4855  160.3958 O   0  0  0  0  0  0  0  0  0  0  0  0
  152.5168  143.5503  160.8334 C   0  0  0  0  0  0  0  0  0  0  0  0
  151.8861  144.0774  159.5516 C   0  0  0  0  0  0  0  0  0  0  0  0
  151.6295  142.8027  158.7617 C   0  0  2  0  0  0  0  0  0  0  0  0
  150.3918  142.2596  159.1948 O   0  0  0  0  0  0  0  0  0  0  0  0
  151.5474  143.0587  157.2377 C   0  0  0  0  0  0  0  0  0  0  0  0
  150.7169  142.0968  156.5298 N   0  0  0  0  0  0  0  0  0  0  0  0
  149.3488  142.1439  156.3755 C   0  0  0  0  0  0  0  0  0  0  0  0
  148.8295  141.1604  155.6915 N   0  0  0  0  0  0  0  0  0  0  0  0
  149.9240  140.3795  155.3461 C   0  0  0  0  0  0  0  0  0  0  0  0
  150.0829  139.1798  154.6060 C   0  0  0  0  0  0  0  0  0  0  0  0
  149.0268  138.5437  154.0501 N   0  0  0  0  0  0  0  0  0  0  0  0
  148.1125  139.4190  153.3422 C   0  0  0  0  0  0  0  0  0  0  0  0
  146.8121  138.6275  153.1943 C   0  0  0  0  0  0  0  0  0  0  0  0
  146.9438  137.4020  154.1234 C   0  0  2  0  0  0  0  0  0  0  0  0
  145.6881  137.1806  154.9091 N   0  3  1  0  0  0  0  0  0  0  0  0
  145.1540  138.4651  155.4324 C   0  0  0  0  0  0  0  0  0  0  0  0
  144.6414  136.3674  154.2260 C   0  0  0  0  0  0  0  0  0  0  0  0
  144.3795  136.7776  152.7642 C   0  0  0  0  0  0  0  0  0  0  0  0
  143.4579  137.8463  152.7117 O   0  0  0  0  0  0  0  0  0  0  0  0
  148.2275  137.7034  154.9341 C   0  0  1  0  0  0  0  0  0  0  0  0
  149.0375  136.4508  155.3373 C   0  0  0  0  0  0  0  0  0  0  0  0
  151.3396  138.6832  154.4580 N   0  0  0  0  0  0  0  0  0  0  0  0
  152.3779  139.3267  155.0010 C   0  0  0  0  0  0  0  0  0  0  0  0
  152.3809  140.4577  155.7103 N   0  0  0  0  0  0  0  0  0  0  0  0
  151.1191  140.9538  155.8609 C   0  0  0  0  0  0  0  0  0  0  0  0
  147.1327  136.5202  153.5077 H   0  0  0  0  0  0  0  0  0  0  0  0
  147.9656  138.2810  155.8219 H   0  0  0  0  0  0  0  0  0  0  0  0
  152.0976  139.9583  158.5269 H   0  0  0  0  0  0  0  0  0  0  0  0
  151.8164  140.2625  160.2417 H   0  0  0  0  0  0  0  0  0  0  0  0
  153.4322  139.8751  159.6696 H   0  0  0  0  0  0  0  0  0  0  0  0
  153.6149  141.9940  158.4665 H   0  0  0  0  0  0  0  0  0  0  0  0
  151.7537  143.1568  161.5063 H   0  0  0  0  0  0  0  0  0  0  0  0
  153.0865  144.3105  161.3682 H   0  0  0  0  0  0  0  0  0  0  0  0
  150.9904  144.6747  159.7280 H   0  0  0  0  0  0  0  0  0  0  0  0
  152.6096  144.7072  159.0317 H   0  0  0  0  0  0  0  0  0  0  0  0
  149.6930  142.7066  158.7425 H   0  0  0  0  0  0  0  0  0  0  0  0
  151.1556  144.0578  157.0419 H   0  0  0  0  0  0  0  0  0  0  0  0
  152.5452  143.0341  156.7978 H   0  0  0  0  0  0  0  0  0  0  0  0
  148.7435  142.9355  156.7926 H   0  0  0  0  0  0  0  0  0  0  0  0
  147.9357  140.3364  153.9062 H   0  0  0  0  0  0  0  0  0  0  0  0
  148.5219  139.6964  152.3701 H   0  0  0  0  0  0  0  0  0  0  0  0
  145.9667  139.2642  153.4596 H   0  0  0  0  0  0  0  0  0  0  0  0
  146.6666  138.3070  152.1620 H   0  0  0  0  0  0  0  0  0  0  0  0
  144.6917  139.0477  154.6346 H   0  0  0  0  0  0  0  0  0  0  0  0
  145.9360  139.0778  155.8800 H   0  0  0  0  0  0  0  0  0  0  0  0
  144.4143  138.3030  156.2149 H   0  0  0  0  0  0  0  0  0  0  0  0
  144.9227  135.3144  154.2680 H   0  0  0  0  0  0  0  0  0  0  0  0
  143.6903  136.4668  154.7459 H   0  0  0  0  0  0  0  0  0  0  0  0
  145.2930  137.0430  152.2337 H   0  0  0  0  0  0  0  0  0  0  0  0
  143.9496  135.9358  152.2208 H   0  0  0  0  0  0  0  0  0  0  0  0
  143.2560  138.0294  151.8062 H   0  0  0  0  0  0  0  0  0  0  0  0
  148.4729  135.7563  155.9549 H   0  0  0  0  0  0  0  0  0  0  0  0
  149.9275  136.7246  155.9048 H   0  0  0  0  0  0  0  0  0  0  0  0
  149.3700  135.9004  154.4564 H   0  0  0  0  0  0  0  0  0  0  0  0
  153.3447  138.8712  154.8444 H   0  0  0  0  0  0  0  0  0  0  0  0
  145.9648  136.6364  155.7141 H   0  0  0  0  0  0  0  0  0  0  0  0
  1  2  1  0  0  0  0
  1 31  1  0  0  0  0
  1 32  1  0  0  0  0
  1 33  1  0  0  0  0
  2  6  1  0  0  0  0
  2  3  1  0  0  0  0
  2 34  1  0  0  0  0
  3  4  1  0  0  0  0
  4  5  1  0  0  0  0
  4 35  1  0  0  0  0
  4 36  1  0  0  0  0
  5  6  1  0  0  0  0
  5 37  1  0  0  0  0
  5 38  1  0  0  0  0
  6  7  1  0  0  0  0
  6  8  1  0  0  0  0
  7 39  1  0  0  0  0
  8  9  1  0  0  0  0
  8 40  1  0  0  0  0
  8 41  1  0  0  0  0
  9 28  1  0  0  0  0
  9 10  1  0  0  0  0
 10 11  2  0  0  0  0
 10 42  1  0  0  0  0
 11 12  1  0  0  0  0
 12 28  2  0  0  0  0
 12 13  1  0  0  0  0
 13 14  1  0  0  0  0
 13 25  2  0  0  0  0
 14 23  1  0  0  0  0
 14 15  1  0  0  0  0
 15 16  1  0  0  0  0
 15 43  1  0  0  0  0
 15 44  1  0  0  0  0
 16 17  1  0  0  0  0
 16 45  1  0  0  0  0
 16 46  1  0  0  0  0
 17 29  1  0  0  0  0
 17 18  1  0  0  0  0
 17 23  1  0  0  0  0
 18 19  1  0  0  0  0
 18 20  1  0  0  0  0
 18 59  1  0  0  0  0
 19 47  1  0  0  0  0
 19 48  1  0  0  0  0
 19 49  1  0  0  0  0
 20 21  1  0  0  0  0
 20 50  1  0  0  0  0
 20 51  1  0  0  0  0
 21 22  1  0  0  0  0
 21 52  1  0  0  0  0
 21 53  1  0  0  0  0
 22 54  1  0  0  0  0
 23 30  1  0  0  0  0
 23 24  1  0  0  0  0
 24 55  1  0  0  0  0
 24 56  1  0  0  0  0
 24 57  1  0  0  0  0
 25 26  1  0  0  0  0
 26 27  2  0  0  0  0
 26 58  1  0  0  0  0
 27 28  1  0  0  0  0
M  CHG  1  18   1
M  END
> <s_m_source_file>
AV-unprocessed.smi

> <i_m_source_file_index>
290

> <i_lp_mmshare_version>
43012

> <i_f3d_flags>
0

> <s_epik_input>
W0NIMl0xW0NIMl1PW0NAQEhdKFtDSDNdKVtDQEBdMShbT0hdKVtDSDJdbihbY0hdbjIpYyhjMjMpbltjSF1uYzNONFtDSDJdW0NIMl1bQ0BIXShbQ0BIXTRbQ0gzXSlOKFtDSDNdKVtDSDJdW0NIMl1bT0hd

> <s_epik_cmdline>
J2VwaWtfcHl0aG9uJywgJy1waCcsICc3LjAnLCAnLXRuJywgJzgnLCAnLW1hJywgJzIwMCcsICctbWV0YWxfYmluZGluZycsICctaW1hZScsICc8aW5maWxlLm1hZT4nLCAnLW9tYWUnLCAnPG91dGZpbGUubWFlPic=

> <r_lp_tautomer_probability>
1

> <r_epik_Ionization_Penalty>
0.0036983

> <r_epik_Ionization_Penalty_Charging>
0.0032725

> <r_epik_Ionization_Penalty_Neutral>
0.000425798

> <r_epik_State_Penalty>
-0

> <r_epik_Charging_Adjusted_Penalty>
0.0032725

> <i_epik_Tot_Q>
1

> <i_epik_Tot_abs_Q>
1

> <r_epik_Metal_State_Penalty>
-0

> <b_epik_Metal_Only>
0

> <s_lp_Force_Field>
OPLS_2005

> <r_lp_Energy>
65.2566

> <b_lp_Chiralities_Consistent>
1

> <s_lp_Variant>
AV-unprocessed.smi:290-7

> <Gold.Version>
5.8.1

> <Gold.Id.Protein>
6NUR|6NUR_protein|mol2

> <Gold.PLP.Fitness>
43.5457

> <Gold.PLP.PLP>
-38.7378

> <Gold.PLP.part.hbond>
-3.7763

> <Gold.PLP.part.metal>
0.0000

> <Gold.PLP.part.buried>
-0.9948

> <Gold.PLP.part.nonpolar>
-34.6344

> <Gold.PLP.part.repulsive>
0.6801

> <Gold.PLP.ligand.clash>
0.0000

> <Gold.PLP.ligand.torsion>
2.0219

> <Gold.PLP.Chemscore.Hbond>
2.0000

> <Gold.PLP.Chemscore.CHOScore>
0.8606

> <Gold.PLP.Chemscore.Metal>
0.0000

> <Gold.Chemscore.Hbonds>
donor molecule, donor type, donor heavy atom, donor atom, acceptor molecule, acceptor atom, score
      L1  H    22    54       P1 10171  0.73
      P1  H  7997  8009       L1    27  0.53
      L1  C    10    42       P1  8028  0.66

> <Gold.PLP.Chemscore.Internal.Correction>
0.2698

> <Gold.Rescore>
     Score         DG    S(hbond)    S(metal)    S(lipo)     H(rot)  DE(clash)    DE(int)     intcor
      7.37     -12.24       1.86        0.00      84.78       3.67       1.55       3.32       ----

> <Gold.Chemscore.Fitness>
7.3659

> <Gold.Chemscore.DG>
-12.2407

> <Gold.Chemscore.ZeroCoef>
-5.4800

> <Gold.Chemscore.Hbond>
1.8639

> <Gold.Chemscore.Metal>
0.0000

> <Gold.Chemscore.Lipo>
84.7826

> <Gold.Chemscore.Internal_Hbond>
0.0000

> <Gold.Chemscore.DEClash>
1.5506

> <Gold.Chemscore.DEInternal>
3.3242

> <Gold.Chemscore.Rot>
3.6658

> <Gold.Chemscore.Internal.Correction>
   9.000000E+99

> <Gold.Chemscore.Hbonds>
donor molecule, donor type, donor heavy atom, donor atom, acceptor molecule, acceptor atom, score
      L1  H    22    54       P1 10171  0.46
      P1  H  7997  8009       L1    27  0.03

> <Gold.Chemscore.Hbond.Weighted>
-6.2255

> <Gold.Chemscore.Metal.Weighted>
-0.0000

> <Gold.Chemscore.Lipo.Weighted>
-9.9196

> <Gold.Chemscore.Internal_Hbond.Weighted>
0.0000

> <Gold.Chemscore.DEClash.Weighted>
1.5506

> <Gold.Chemscore.DEInternal.Weighted>
3.3242

> <Gold.Chemscore.Rot.Weighted>
9.3844

> <Gold.Chemscore.Internal.Correction.Weighted>
   9.000000E+99

> <Gold.Protein.RotatedTorsions>
[ 6907 6896 6895 6894 ] final  121.69 input  -60.11 | X-H torsion
[ 7974 7965 7964 7962 ] final  138.20 input  175.53 | X-H torsion
[ 8008 7997 7996 7995 ] final -156.95 input   59.86 | X-H torsion
[ 10167 10162 10161 10158 ] final  109.76 input  -65.29 | X-H torsion
[ 10718 10713 10712 10709 ] final   -7.11 input   66.30 | X-H torsion
[ 10763 10752 10751 10750 ] final  113.53 input  -60.55 | X-H torsion
[ 11005 11000 10999 10996 ] final -150.77 input  -57.11 | X-H torsion

> <Gold.Protein.ActiveResidues>
 VAL166  LYS551  ARG553  GLY616  TRP617  ASP618  TYR619  PRO620  LYS621  CYS622 
 ASP623  PHE694  ASN695  SER759  ASP760  ASP761  ALA762  ILE779  LEU786  VAL792 
 PHE793  MET794  SER795  GLU796  ALA797  LYS798  CYS799  TRP800  GLU811  SER814 

> <Gold.Protein.RotatedAtoms>
  152.4302  133.7264  159.6562 H   0  0  0  0  0  0  0  0  0  0  0  0  # atno 6907 bound_to 6896
  150.8181  133.8291  159.3157 H   0  0  0  0  0  0  0  0  0  0  0  0  # atno 6908 bound_to 6896
  151.5981  135.1051  160.0106 H   0  0  0  0  0  0  0  0  0  0  0  0  # atno 6909 bound_to 6896
  144.9395  139.4948  143.5579 H   0  0  0  0  0  0  0  0  0  0  0  0  # atno 7974 bound_to 7965
  155.7250  140.0795  157.2314 H   0  0  0  0  0  0  0  0  0  0  0  0  # atno 8008 bound_to 7997
  154.4040  140.1605  156.2499 H   0  0  0  0  0  0  0  0  0  0  0  0  # atno 8009 bound_to 7997
  155.9161  140.3401  155.6139 H   0  0  0  0  0  0  0  0  0  0  0  0  # atno 8010 bound_to 7997
  139.6741  144.7123  151.1634 H   0  0  0  0  0  0  0  0  0  0  0  0  # atno 10167 bound_to 10162
  156.7221  130.5154  149.5865 H   0  0  0  0  0  0  0  0  0  0  0  0  # atno 10718 bound_to 10713
  153.4938  135.3653  155.2505 H   0  0  0  0  0  0  0  0  0  0  0  0  # atno 10763 bound_to 10752
  154.8751  135.3983  154.3558 H   0  0  0  0  0  0  0  0  0  0  0  0  # atno 10764 bound_to 10752
  153.4182  135.7079  153.6378 H   0  0  0  0  0  0  0  0  0  0  0  0  # atno 10765 bound_to 10752
  140.7367  134.3560  157.5156 H   0  0  0  0  0  0  0  0  0  0  0  0  # atno 11005 bound_to 11000
  146.3280  139.8404  142.8891 LP  0  0  0  0  0  0  0  0  0  0  0  0  # atno 17320 bound_to 7965
  145.3014  141.0195  143.3607 LP  0  0  0  0  0  0  0  0  0  0  0  0  # atno 17321 bound_to 7965
  140.7629  143.5799  150.8906 LP  0  0  0  0  0  0  0  0  0  0  0  0  # atno 17342 bound_to 10162
  139.9466  143.6320  152.3040 LP  0  0  0  0  0  0  0  0  0  0  0  0  # atno 17343 bound_to 10162
  156.1587  130.6359  151.0691 LP  0  0  0  0  0  0  0  0  0  0  0  0  # atno 17370 bound_to 10713
  157.6894  131.0815  150.7152 LP  0  0  0  0  0  0  0  0  0  0  0  0  # atno 17371 bound_to 10713
  139.8814  134.9054  156.2899 LP  0  0  0  0  0  0  0  0  0  0  0  0  # atno 17394 bound_to 11000
  140.9873  133.7230  156.0761 LP  0  0  0  0  0  0  0  0  0  0  0  0  # atno 17395 bound_to 11000

$$$$
