AV-unprocessed.smi:359|AV-procd|sdf|2418|dock2
  -GOLD-   2262022353D 1   1.00000     0.00000
 Structure written by MMmdl.
 33 34  0  0  0  0  0  0  0  0  1 V2000
  146.7274  140.4579  152.7097 C   0  0  0  0  0  0  0  0  0  0  0  0
  146.9894  139.9290  154.0371 N   0  0  0  0  0  0  0  0  0  0  0  0
  148.2083  139.8627  154.6994 C   0  0  0  0  0  0  0  0  0  0  0  0
  149.4463  140.3446  154.1069 C   0  0  0  0  0  0  0  0  0  0  0  0
  150.5797  140.2871  154.7159 N   0  0  0  0  0  0  0  0  0  0  0  0
  150.6438  139.7543  155.9878 N   0  0  0  0  0  0  0  0  0  0  0  0
  151.9874  139.7774  156.5781 C   0  0  0  0  0  0  0  0  0  0  0  0
  152.0490  140.6800  157.8214 C   0  0  0  0  0  0  0  0  0  0  0  0
  153.2019  140.3426  158.5821 O   0  0  0  0  0  0  0  0  0  0  0  0
  153.3807  140.9520  159.8050 C   0  0  0  0  0  0  0  0  0  0  0  0
  152.7570  142.2029  159.9923 C   0  0  0  0  0  0  0  0  0  0  0  0
  152.8820  142.8959  161.2118 C   0  0  0  0  0  0  0  0  0  0  0  0
  153.6382  142.3415  162.2613 C   0  0  0  0  0  0  0  0  0  0  0  0
  153.7903  143.1861  163.7583 Cl  0  0  0  0  0  0  0  0  0  0  0  0
  154.2704  141.0961  162.0862 C   0  0  0  0  0  0  0  0  0  0  0  0
  154.1444  140.4030  160.8662 C   0  0  0  0  0  0  0  0  0  0  0  0
  149.5745  139.2593  156.6786 C   0  0  0  0  0  0  0  0  0  0  0  0
  149.6802  138.7966  157.8153 O   0  0  0  0  0  0  0  0  0  0  0  0
  148.2997  139.3361  155.9502 C   0  0  0  0  0  0  0  0  0  0  0  0
  146.8871  138.7303  156.7493 Cl  0  0  0  0  0  0  0  0  0  0  0  0
  145.6642  140.3836  152.4809 H   0  0  0  0  0  0  0  0  0  0  0  0
  147.2809  139.8982  151.9553 H   0  0  0  0  0  0  0  0  0  0  0  0
  147.0179  141.5072  152.6512 H   0  0  0  0  0  0  0  0  0  0  0  0
  146.1770  139.5935  154.5358 H   0  0  0  0  0  0  0  0  0  0  0  0
  149.3662  140.7637  153.1042 H   0  0  0  0  0  0  0  0  0  0  0  0
  152.2960  138.7646  156.8430 H   0  0  0  0  0  0  0  0  0  0  0  0
  152.7194  140.1177  155.8432 H   0  0  0  0  0  0  0  0  0  0  0  0
  152.0735  141.7301  157.5261 H   0  0  0  0  0  0  0  0  0  0  0  0
  151.1536  140.5222  158.4240 H   0  0  0  0  0  0  0  0  0  0  0  0
  152.1739  142.6353  159.1925 H   0  0  0  0  0  0  0  0  0  0  0  0
  152.3960  143.8519  161.3398 H   0  0  0  0  0  0  0  0  0  0  0  0
  154.8541  140.6690  162.8886 H   0  0  0  0  0  0  0  0  0  0  0  0
  154.6447  139.4516  160.7695 H   0  0  0  0  0  0  0  0  0  0  0  0
  1  2  1  0  0  0  0
  1 21  1  0  0  0  0
  1 22  1  0  0  0  0
  1 23  1  0  0  0  0
  2  3  1  0  0  0  0
  2 24  1  0  0  0  0
  3 19  2  0  0  0  0
  3  4  1  0  0  0  0
  4  5  2  0  0  0  0
  4 25  1  0  0  0  0
  5  6  1  0  0  0  0
  6  7  1  0  0  0  0
  6 17  1  0  0  0  0
  7  8  1  0  0  0  0
  7 26  1  0  0  0  0
  7 27  1  0  0  0  0
  8  9  1  0  0  0  0
  8 28  1  0  0  0  0
  8 29  1  0  0  0  0
  9 10  1  0  0  0  0
 10 16  1  0  0  0  0
 10 11  2  0  0  0  0
 11 12  1  0  0  0  0
 11 30  1  0  0  0  0
 12 13  2  0  0  0  0
 12 31  1  0  0  0  0
 13 14  1  0  0  0  0
 13 15  1  0  0  0  0
 15 16  2  0  0  0  0
 15 32  1  0  0  0  0
 16 33  1  0  0  0  0
 17 18  2  0  0  0  0
 17 19  1  0  0  0  0
 19 20  1  0  0  0  0
M  END
> <s_m_source_file>
AV-unprocessed.smi

> <i_m_source_file_index>
359

> <i_lp_mmshare_version>
43012

> <i_f3d_flags>
0

> <s_epik_input>
W0NIM11bTkhdYzFbY0hdbm4oYyg9TyljMUNsKVtDSDJdW0NIMl1PYzJbY0hdW2NIXWMoQ2wpW2NIXVtjSF0y

> <s_epik_cmdline>
J2VwaWtfcHl0aG9uJywgJy1waCcsICc3LjAnLCAnLXRuJywgJzgnLCAnLW1hJywgJzIwMCcsICctbWV0YWxfYmluZGluZycsICctaW1hZScsICc8aW5maWxlLm1hZT4nLCAnLW9tYWUnLCAnPG91dGZpbGUubWFlPic=

> <r_lp_tautomer_probability>
1

> <r_epik_Ionization_Penalty>
1.57682e-05

> <r_epik_Ionization_Penalty_Charging>
1.04488e-09

> <r_epik_Ionization_Penalty_Neutral>
1.57671e-05

> <r_epik_State_Penalty>
-0

> <r_epik_Charging_Adjusted_Penalty>
1.04488e-09

> <i_epik_Tot_Q>
0

> <i_epik_Tot_abs_Q>
0

> <r_epik_Metal_State_Penalty>
-0

> <b_epik_Metal_Only>
0

> <s_lp_Force_Field>
OPLS_2005

> <r_lp_Energy>
30.271

> <b_lp_Chiralities_Consistent>
1

> <s_lp_Variant>
AV-unprocessed.smi:359-1

> <Gold.Version>
5.8.1

> <Gold.Id.Protein>
6NUR|6NUR_protein|mol2

> <Gold.PLP.Fitness>
42.6196

> <Gold.PLP.PLP>
-35.2962

> <Gold.PLP.part.hbond>
-2.0000

> <Gold.PLP.part.metal>
0.0000

> <Gold.PLP.part.buried>
2.5055

> <Gold.PLP.part.nonpolar>
-33.8736

> <Gold.PLP.part.repulsive>
0.0784

> <Gold.PLP.ligand.clash>
0.1919

> <Gold.PLP.ligand.torsion>
0.4499

> <Gold.PLP.Chemscore.Hbond>
1.8008

> <Gold.PLP.Chemscore.CHOScore>
1.0000

> <Gold.PLP.Chemscore.Metal>
0.0000

> <Gold.Chemscore.Hbonds>
donor molecule, donor type, donor heavy atom, donor atom, acceptor molecule, acceptor atom, score
      P1  H  7989  7998       L1     5  1.00
      P1  H  7997  8008       L1     9  0.73
      L1  C     4    25       P1  7957  1.00

> <Gold.PLP.Chemscore.Internal.Correction>
0.0126

> <Gold.Rescore>
     Score         DG    S(hbond)    S(metal)    S(lipo)     H(rot)  DE(clash)    DE(int)     intcor
     16.34     -19.42       1.58        0.00     108.54       1.58       2.54       0.54       ----

> <Gold.Chemscore.Fitness>
16.3405

> <Gold.Chemscore.DG>
-19.4183

> <Gold.Chemscore.ZeroCoef>
-5.4800

> <Gold.Chemscore.Hbond>
1.5808

> <Gold.Chemscore.Metal>
0.0000

> <Gold.Chemscore.Lipo>
108.5432

> <Gold.Chemscore.Internal_Hbond>
0.0000

> <Gold.Chemscore.DEClash>
2.5402

> <Gold.Chemscore.DEInternal>
0.5376

> <Gold.Chemscore.Rot>
1.5785

> <Gold.Chemscore.Internal.Correction>
   9.000000E+99

> <Gold.Chemscore.Hbonds>
donor molecule, donor type, donor heavy atom, donor atom, acceptor molecule, acceptor atom, score
      P1  H  7989  7998       L1     5  0.30
      P1  H  7997  8008       L1     9  0.28

> <Gold.Chemscore.Hbond.Weighted>
-5.2798

> <Gold.Chemscore.Metal.Weighted>
-0.0000

> <Gold.Chemscore.Lipo.Weighted>
-12.6995

> <Gold.Chemscore.Internal_Hbond.Weighted>
0.0000

> <Gold.Chemscore.DEClash.Weighted>
2.5402

> <Gold.Chemscore.DEInternal.Weighted>
0.5376

> <Gold.Chemscore.Rot.Weighted>
4.0411

> <Gold.Chemscore.Internal.Correction.Weighted>
   9.000000E+99

> <Gold.Protein.RotatedTorsions>
[ 6907 6896 6895 6894 ] final -161.06 input  -60.11 | X-H torsion
[ 7974 7965 7964 7962 ] final  -72.55 input  175.53 | X-H torsion
[ 8008 7997 7996 7995 ] final  -93.13 input   59.86 | X-H torsion
[ 10167 10162 10161 10158 ] final   84.71 input  -65.29 | X-H torsion
[ 10718 10713 10712 10709 ] final   -4.22 input   66.30 | X-H torsion
[ 10763 10752 10751 10750 ] final    0.01 input  -60.55 | X-H torsion
[ 11005 11000 10999 10996 ] final  123.62 input  -57.11 | X-H torsion

> <Gold.Protein.ActiveResidues>
 VAL166  LYS551  ARG553  GLY616  TRP617  ASP618  TYR619  PRO620  LYS621  CYS622 
 ASP623  PHE694  ASN695  SER759  ASP760  ASP761  ALA762  ILE779  LEU786  VAL792 
 PHE793  MET794  SER795  GLU796  ALA797  LYS798  CYS799  TRP800  GLU811  SER814 

> <Gold.Protein.RotatedAtoms>
  151.3587  133.3898  159.2687 H   0  0  0  0  0  0  0  0  0  0  0  0  # atno 6907 bound_to 6896
  150.9743  134.9111  159.7817 H   0  0  0  0  0  0  0  0  0  0  0  0  # atno 6908 bound_to 6896
  152.5195  134.3550  159.9316 H   0  0  0  0  0  0  0  0  0  0  0  0  # atno 6909 bound_to 6896
  145.6637  140.9244  143.0920 H   0  0  0  0  0  0  0  0  0  0  0  0  # atno 7974 bound_to 7965
  154.7318  140.0502  157.0733 H   0  0  0  0  0  0  0  0  0  0  0  0  # atno 8008 bound_to 7997
  155.0292  140.3156  155.4745 H   0  0  0  0  0  0  0  0  0  0  0  0  # atno 8009 bound_to 7997
  156.2843  140.2153  156.5413 H   0  0  0  0  0  0  0  0  0  0  0  0  # atno 8010 bound_to 7997
  139.9053  144.6305  150.8594 H   0  0  0  0  0  0  0  0  0  0  0  0  # atno 10167 bound_to 10162
  156.7645  130.5280  149.5779 H   0  0  0  0  0  0  0  0  0  0  0  0  # atno 10718 bound_to 10713
  153.3261  135.6972  153.6988 H   0  0  0  0  0  0  0  0  0  0  0  0  # atno 10763 bound_to 10752
  153.5809  135.3498  155.2875 H   0  0  0  0  0  0  0  0  0  0  0  0  # atno 10764 bound_to 10752
  154.8608  135.4294  154.2438 H   0  0  0  0  0  0  0  0  0  0  0  0  # atno 10765 bound_to 10752
  139.9321  134.9641  156.8286 H   0  0  0  0  0  0  0  0  0  0  0  0  # atno 11005 bound_to 11000
  144.7080  139.8482  143.7424 LP  0  0  0  0  0  0  0  0  0  0  0  0  # atno 17320 bound_to 7965
  146.1104  139.4108  143.0291 LP  0  0  0  0  0  0  0  0  0  0  0  0  # atno 17321 bound_to 7965
  140.7698  143.3406  151.2216 LP  0  0  0  0  0  0  0  0  0  0  0  0  # atno 17342 bound_to 10162
  139.6990  143.9565  152.2896 LP  0  0  0  0  0  0  0  0  0  0  0  0  # atno 17343 bound_to 10162
  156.1317  130.6183  151.0343 LP  0  0  0  0  0  0  0  0  0  0  0  0  # atno 17370 bound_to 10713
  157.6719  131.0859  150.7590 LP  0  0  0  0  0  0  0  0  0  0  0  0  # atno 17371 bound_to 10713
  140.6175  134.0025  155.7603 LP  0  0  0  0  0  0  0  0  0  0  0  0  # atno 17394 bound_to 11000
  141.0915  133.9909  157.3229 LP  0  0  0  0  0  0  0  0  0  0  0  0  # atno 17395 bound_to 11000

$$$$
