AV-unprocessed.smi:3255|AV-procd|sdf|12457|dock9
  -GOLD-   2272018353D 1   1.00000     0.00000
 Structure written by MMmdl.
 39 40  0  0  0  0  0  0  0  0  2 V2000
  147.5451  141.7486  154.4898 C   0  0  0  0  0  0  0  0  0  0  0  0
  148.7133  140.9165  153.9386 C   0  0  2  0  0  0  0  0  0  0  0  0
  148.1652  139.8123  153.1549 N   0  0  0  0  0  0  0  0  0  0  0  0
  147.3681  138.8458  153.6303 C   0  0  0  0  0  0  0  0  0  0  0  0
  147.0293  138.7451  154.8098 O   0  0  0  0  0  0  0  0  0  0  0  0
  146.9523  138.0214  152.6586 N   0  0  0  0  0  0  0  0  0  0  0  0
  146.0042  136.9252  152.8376 C   0  0  0  0  0  0  0  0  0  0  0  0
  145.5818  136.2990  151.4940 C   0  0  0  0  0  0  0  0  0  0  0  0
  144.7781  135.0829  151.6556 N   0  0  0  0  0  0  0  0  0  0  0  0
  144.5247  134.1202  150.7118 C   0  0  0  0  0  0  0  0  0  0  0  0
  143.7168  133.1888  151.3112 C   0  0  0  0  0  0  0  0  0  0  0  0
  143.5147  133.6194  152.5949 N   0  3  0  0  0  0  0  0  0  0  0  0
  144.1641  134.7692  152.8036 C   0  0  0  0  0  0  0  0  0  0  0  0
  149.6201  140.3671  155.0614 C   0  0  2  0  0  0  0  0  0  0  0  0
  150.3401  141.4389  155.8832 C   0  0  0  0  0  0  0  0  0  0  0  0
  151.5885  140.7348  156.3937 C   0  0  0  0  0  0  0  0  0  0  0  0
  151.6496  139.4424  155.5775 C   0  0  0  0  0  0  0  0  0  0  0  0
  150.7105  139.6281  154.5295 O   0  0  0  0  0  0  0  0  0  0  0  0
  147.9010  142.6245  155.0324 H   0  0  0  0  0  0  0  0  0  0  0  0
  146.9269  141.1634  155.1716 H   0  0  0  0  0  0  0  0  0  0  0  0
  146.9039  142.1067  153.6834 H   0  0  0  0  0  0  0  0  0  0  0  0
  149.3044  141.5647  153.2891 H   0  0  0  0  0  0  0  0  0  0  0  0
  148.3825  139.8068  152.1692 H   0  0  0  0  0  0  0  0  0  0  0  0
  147.2913  138.1824  151.7212 H   0  0  0  0  0  0  0  0  0  0  0  0
  146.4940  136.1665  153.4481 H   0  0  0  0  0  0  0  0  0  0  0  0
  145.1308  137.2511  153.4051 H   0  0  0  0  0  0  0  0  0  0  0  0
  145.0079  137.0112  150.8993 H   0  0  0  0  0  0  0  0  0  0  0  0
  146.4634  136.0363  150.9078 H   0  0  0  0  0  0  0  0  0  0  0  0
  144.9183  134.1732  149.7073 H   0  0  0  0  0  0  0  0  0  0  0  0
  143.2790  132.2780  150.9292 H   0  0  0  0  0  0  0  0  0  0  0  0
  144.1790  135.3381  153.7163 H   0  0  0  0  0  0  0  0  0  0  0  0
  149.0483  139.7152  155.7253 H   0  0  0  0  0  0  0  0  0  0  0  0
  150.6303  142.2742  155.2446 H   0  0  0  0  0  0  0  0  0  0  0  0
  149.7207  141.8337  156.6891 H   0  0  0  0  0  0  0  0  0  0  0  0
  152.4721  141.3530  156.2306 H   0  0  0  0  0  0  0  0  0  0  0  0
  151.5229  140.5169  157.4602 H   0  0  0  0  0  0  0  0  0  0  0  0
  152.6459  139.2410  155.1840 H   0  0  0  0  0  0  0  0  0  0  0  0
  151.3438  138.5889  156.1845 H   0  0  0  0  0  0  0  0  0  0  0  0
  142.9514  133.1415  153.2870 H   0  0  0  0  0  0  0  0  0  0  0  0
  1  2  1  0  0  0  0
  1 19  1  0  0  0  0
  1 20  1  0  0  0  0
  1 21  1  0  0  0  0
  2  3  1  0  0  0  0
  2 14  1  0  0  0  0
  2 22  1  0  0  0  0
  3  4  1  0  0  0  0
  3 23  1  0  0  0  0
  4  5  2  0  0  0  0
  4  6  1  0  0  0  0
  6  7  1  0  0  0  0
  6 24  1  0  0  0  0
  7  8  1  0  0  0  0
  7 25  1  0  0  0  0
  7 26  1  0  0  0  0
  8  9  1  0  0  0  0
  8 27  1  0  0  0  0
  8 28  1  0  0  0  0
  9 13  1  0  0  0  0
  9 10  1  0  0  0  0
 10 11  2  0  0  0  0
 10 29  1  0  0  0  0
 11 12  1  0  0  0  0
 11 30  1  0  0  0  0
 12 13  2  0  0  0  0
 12 39  1  0  0  0  0
 13 31  1  0  0  0  0
 14 18  1  0  0  0  0
 14 15  1  0  0  0  0
 14 32  1  0  0  0  0
 15 16  1  0  0  0  0
 15 33  1  0  0  0  0
 15 34  1  0  0  0  0
 16 17  1  0  0  0  0
 16 35  1  0  0  0  0
 16 36  1  0  0  0  0
 17 18  1  0  0  0  0
 17 37  1  0  0  0  0
 17 38  1  0  0  0  0
M  CHG  1  12   1
M  END
> <s_m_source_file>
AV-unprocessed.smi

> <i_m_source_file_index>
3255

> <i_lp_mmshare_version>
43012

> <i_f3d_flags>
0

> <s_epik_input>
TzFbQ0gyXVtDSDJdW0NIMl1bQ0BIXTFbQ0BIXShbQ0gzXSlbTkhdQyg9TylbTkhdW0NIMl1bQ0gyXW4yW2NIXVtjSF1uW2NIXTI=

> <s_epik_cmdline>
J2VwaWtfcHl0aG9uJywgJy1waCcsICc3LjAnLCAnLXRuJywgJzgnLCAnLW1hJywgJzIwMCcsICctbWV0YWxfYmluZGluZycsICctaW1hZScsICc8aW5maWxlLm1hZT4nLCAnLW9tYWUnLCAnPG91dGZpbGUubWFlPic=

> <r_lp_tautomer_probability>
1

> <r_epik_Ionization_Penalty>
0.256241

> <r_epik_Ionization_Penalty_Charging>
0

> <r_epik_Ionization_Penalty_Neutral>
0.256241

> <r_epik_State_Penalty>
0.247735

> <r_epik_Charging_Adjusted_Penalty>
0.247735

> <i_epik_Tot_Q>
1

> <i_epik_Tot_abs_Q>
1

> <r_epik_Metal_State_Penalty>
0.537184

> <b_epik_Metal_Only>
0

> <s_lp_Force_Field>
OPLS_2005

> <r_lp_Energy>
16.926

> <b_lp_Chiralities_Consistent>
1

> <s_lp_Variant>
AV-unprocessed.smi:3255-1

> <Gold.Version>
5.8.1

> <Gold.Id.Protein>
6NUR|6NUR_protein|mol2

> <Gold.PLP.Fitness>
48.3165

> <Gold.PLP.PLP>
-34.3172

> <Gold.PLP.part.hbond>
-3.7829

> <Gold.PLP.part.metal>
0.0000

> <Gold.PLP.part.buried>
-5.0535

> <Gold.PLP.part.nonpolar>
-26.5886

> <Gold.PLP.part.repulsive>
0.3460

> <Gold.PLP.ligand.clash>
0.0000

> <Gold.PLP.ligand.torsion>
0.2975

> <Gold.PLP.Chemscore.Hbond>
3.8480

> <Gold.PLP.Chemscore.CHOScore>
1.0000

> <Gold.PLP.Chemscore.Metal>
0.0000

> <Gold.Chemscore.Hbonds>
donor molecule, donor type, donor heavy atom, donor atom, acceptor molecule, acceptor atom, score
      L1  H     3    23       P1  7957  0.85
      L1  H    12    39       P1 10957  1.95
      P1  H  7989  7998       L1    18  1.00
      L1  C    10    29       P1  7921  1.00

> <Gold.PLP.Chemscore.Internal.Correction>
0.0504

> <Gold.Rescore>
     Score         DG    S(hbond)    S(metal)    S(lipo)     H(rot)  DE(clash)    DE(int)     intcor
     14.50     -15.88       2.69        0.00      61.75       2.26       0.07       1.31       ----

> <Gold.Chemscore.Fitness>
14.4986

> <Gold.Chemscore.DG>
-15.8780

> <Gold.Chemscore.ZeroCoef>
-5.4800

> <Gold.Chemscore.Hbond>
2.6853

> <Gold.Chemscore.Metal>
0.0000

> <Gold.Chemscore.Lipo>
61.7506

> <Gold.Chemscore.Internal_Hbond>
0.0000

> <Gold.Chemscore.DEClash>
0.0710

> <Gold.Chemscore.DEInternal>
1.3083

> <Gold.Chemscore.Rot>
2.2640

> <Gold.Chemscore.Internal.Correction>
   9.000000E+99

> <Gold.Chemscore.Hbonds>
donor molecule, donor type, donor heavy atom, donor atom, acceptor molecule, acceptor atom, score
      L1  H     3    23       P1  7957  0.83
      L1  H    12    39       P1 10957  0.76
      P1  H  7989  7998       L1    18  0.11

> <Gold.Chemscore.Hbond.Weighted>
-8.9689

> <Gold.Chemscore.Metal.Weighted>
-0.0000

> <Gold.Chemscore.Lipo.Weighted>
-7.2248

> <Gold.Chemscore.Internal_Hbond.Weighted>
0.0000

> <Gold.Chemscore.DEClash.Weighted>
0.0710

> <Gold.Chemscore.DEInternal.Weighted>
1.3083

> <Gold.Chemscore.Rot.Weighted>
5.7958

> <Gold.Chemscore.Internal.Correction.Weighted>
   9.000000E+99

> <Gold.Protein.RotatedTorsions>
[ 6907 6896 6895 6894 ] final  -58.48 input  -60.11 | X-H torsion
[ 7974 7965 7964 7962 ] final  -57.06 input  175.53 | X-H torsion
[ 8008 7997 7996 7995 ] final  -25.55 input   59.86 | X-H torsion
[ 10167 10162 10161 10158 ] final  -50.24 input  -65.29 | X-H torsion
[ 10718 10713 10712 10709 ] final  -40.96 input   66.30 | X-H torsion
[ 10763 10752 10751 10750 ] final  128.61 input  -60.55 | X-H torsion
[ 11005 11000 10999 10996 ] final  -95.39 input  -57.11 | X-H torsion

> <Gold.Protein.ActiveResidues>
 VAL166  LYS551  ARG553  GLY616  TRP617  ASP618  TYR619  PRO620  LYS621  CYS622 
 ASP623  PHE694  ASN695  SER759  ASP760  ASP761  ALA762  ILE779  LEU786  VAL792 
 PHE793  MET794  SER795  GLU796  ALA797  LYS798  CYS799  TRP800  GLU811  SER814 

> <Gold.Protein.RotatedAtoms>
  150.8004  134.7093  159.6594 H   0  0  0  0  0  0  0  0  0  0  0  0  # atno 6907 bound_to 6896
  152.4120  134.6104  160.0034 H   0  0  0  0  0  0  0  0  0  0  0  0  # atno 6908 bound_to 6896
  151.6344  133.3293  159.3152 H   0  0  0  0  0  0  0  0  0  0  0  0  # atno 6909 bound_to 6896
  145.8555  140.8323  142.9964 H   0  0  0  0  0  0  0  0  0  0  0  0  # atno 7974 bound_to 7965
  154.4470  140.1923  156.0637 H   0  0  0  0  0  0  0  0  0  0  0  0  # atno 8008 bound_to 7997
  156.0563  140.3302  155.7383 H   0  0  0  0  0  0  0  0  0  0  0  0  # atno 8009 bound_to 7997
  155.5480  140.0592  157.2847 H   0  0  0  0  0  0  0  0  0  0  0  0  # atno 8010 bound_to 7997
  140.6647  143.2665  151.4331 H   0  0  0  0  0  0  0  0  0  0  0  0  # atno 10167 bound_to 10162
  156.2755  130.4211  149.8392 H   0  0  0  0  0  0  0  0  0  0  0  0  # atno 10718 bound_to 10713
  153.7283  135.3242  155.3281 H   0  0  0  0  0  0  0  0  0  0  0  0  # atno 10763 bound_to 10752
  154.8334  135.4516  154.1147 H   0  0  0  0  0  0  0  0  0  0  0  0  # atno 10764 bound_to 10752
  153.2287  135.6957  153.7995 H   0  0  0  0  0  0  0  0  0  0  0  0  # atno 10765 bound_to 10752
  141.1443  133.8023  157.0428 H   0  0  0  0  0  0  0  0  0  0  0  0  # atno 11005 bound_to 11000
  144.6728  140.1016  143.7460 LP  0  0  0  0  0  0  0  0  0  0  0  0  # atno 17320 bound_to 7965
  145.9309  139.2605  143.1326 LP  0  0  0  0  0  0  0  0  0  0  0  0  # atno 17321 bound_to 7965
  139.5892  144.1537  152.2067 LP  0  0  0  0  0  0  0  0  0  0  0  0  # atno 17342 bound_to 10162
  140.0886  144.5640  150.7070 LP  0  0  0  0  0  0  0  0  0  0  0  0  # atno 17343 bound_to 10162
  156.5858  130.8485  151.3395 LP  0  0  0  0  0  0  0  0  0  0  0  0  # atno 17370 bound_to 10713
  157.7298  130.9676  150.1803 LP  0  0  0  0  0  0  0  0  0  0  0  0  # atno 17371 bound_to 10713
  140.0681  134.9717  157.1421 LP  0  0  0  0  0  0  0  0  0  0  0  0  # atno 17394 bound_to 11000
  140.3750  134.2349  155.7175 LP  0  0  0  0  0  0  0  0  0  0  0  0  # atno 17395 bound_to 11000

$$$$
