AV-unprocessed.smi:765|AV-procd|sdf|3643|dock10
  -GOLD-   22720 1 43D 1   1.00000     0.00000
 Structure written by MMmdl.
 39 40  0  0  0  0  0  0  0  0  1 V2000
  153.4489  141.3988  160.2217 C   0  0  0  0  0  0  0  0  0  0  0  0
  152.7611  142.3026  159.1887 C   0  0  2  0  0  0  0  0  0  0  0  0
  153.3980  143.7036  159.1566 C   0  0  0  0  0  0  0  0  0  0  0  0
  152.7008  144.6180  158.1394 C   0  0  0  0  0  0  0  0  0  0  0  0
  151.1921  144.7083  158.4227 C   0  0  0  0  0  0  0  0  0  0  0  0
  150.5078  143.3189  158.4453 C   0  0  1  0  0  0  0  0  0  0  0  0
  149.1068  143.4611  158.8859 C   0  0  0  0  0  0  0  0  0  0  0  0
  148.0076  143.5717  159.2303 N   0  0  0  0  0  0  0  0  0  0  0  0
  150.5653  142.6820  157.1255 N   0  0  0  0  0  0  0  0  0  0  0  0
  149.8898  141.5948  156.7164 C   0  0  0  0  0  0  0  0  0  0  0  0
  149.1006  140.9788  157.4331 O   0  0  0  0  0  0  0  0  0  0  0  0
  150.1577  141.1442  155.2725 C   0  0  2  0  0  0  0  0  0  0  0  0
  148.9033  141.2036  154.3806 C   0  0  0  0  0  0  0  0  0  0  0  0
  150.7470  139.8115  155.2632 N   0  0  0  0  0  0  0  0  0  0  0  0
  150.8978  138.9384  154.2030 C   0  0  0  0  0  0  0  0  0  0  0  0
  151.4912  137.8076  154.6858 C   0  0  0  0  0  0  0  0  0  0  0  0
  151.6653  138.0827  156.0709 C   0  0  0  0  0  0  0  0  0  0  0  0
  151.2178  139.2799  156.4134 N   0  0  0  0  0  0  0  0  0  0  0  0
  151.2435  142.4070  159.4541 C   0  0  0  0  0  0  0  0  0  0  0  0
  153.3445  141.7981  161.2310 H   0  0  0  0  0  0  0  0  0  0  0  0
  154.5142  141.3016  160.0107 H   0  0  0  0  0  0  0  0  0  0  0  0
  153.0198  140.3965  160.2139 H   0  0  0  0  0  0  0  0  0  0  0  0
  152.9091  141.8437  158.2104 H   0  0  0  0  0  0  0  0  0  0  0  0
  153.3428  144.1571  160.1473 H   0  0  0  0  0  0  0  0  0  0  0  0
  154.4578  143.6267  158.9117 H   0  0  0  0  0  0  0  0  0  0  0  0
  153.1435  145.6139  158.1738 H   0  0  0  0  0  0  0  0  0  0  0  0
  152.8688  144.2425  157.1294 H   0  0  0  0  0  0  0  0  0  0  0  0
  151.0460  145.1934  159.3888 H   0  0  0  0  0  0  0  0  0  0  0  0
  150.7189  145.3641  157.6917 H   0  0  0  0  0  0  0  0  0  0  0  0
  151.1923  143.1077  156.4581 H   0  0  0  0  0  0  0  0  0  0  0  0
  150.8864  141.8400  154.8517 H   0  0  0  0  0  0  0  0  0  0  0  0
  148.4736  142.2061  154.3698 H   0  0  0  0  0  0  0  0  0  0  0  0
  148.1294  140.5140  154.7200 H   0  0  0  0  0  0  0  0  0  0  0  0
  149.1480  140.9428  153.3506 H   0  0  0  0  0  0  0  0  0  0  0  0
  150.5716  139.1923  153.2048 H   0  0  0  0  0  0  0  0  0  0  0  0
  151.7583  136.9184  154.1342 H   0  0  0  0  0  0  0  0  0  0  0  0
  152.0992  137.4517  156.8326 H   0  0  0  0  0  0  0  0  0  0  0  0
  150.7972  141.4112  159.4432 H   0  0  0  0  0  0  0  0  0  0  0  0
  151.0863  142.7928  160.4629 H   0  0  0  0  0  0  0  0  0  0  0  0
  1  2  1  0  0  0  0
  1 20  1  0  0  0  0
  1 21  1  0  0  0  0
  1 22  1  0  0  0  0
  2 19  1  0  0  0  0
  2  3  1  0  0  0  0
  2 23  1  0  0  0  0
  3  4  1  0  0  0  0
  3 24  1  0  0  0  0
  3 25  1  0  0  0  0
  4  5  1  0  0  0  0
  4 26  1  0  0  0  0
  4 27  1  0  0  0  0
  5  6  1  0  0  0  0
  5 28  1  0  0  0  0
  5 29  1  0  0  0  0
  6  7  1  0  0  0  0
  6  9  1  0  0  0  0
  6 19  1  0  0  0  0
  7  8  3  0  0  0  0
  9 10  1  0  0  0  0
  9 30  1  0  0  0  0
 10 11  2  0  0  0  0
 10 12  1  0  0  0  0
 12 13  1  0  0  0  0
 12 14  1  0  0  0  0
 12 31  1  0  0  0  0
 13 32  1  0  0  0  0
 13 33  1  0  0  0  0
 13 34  1  0  0  0  0
 14 18  1  0  0  0  0
 14 15  1  0  0  0  0
 15 16  2  0  0  0  0
 15 35  1  0  0  0  0
 16 17  1  0  0  0  0
 16 36  1  0  0  0  0
 17 18  2  0  0  0  0
 17 37  1  0  0  0  0
 19 38  1  0  0  0  0
 19 39  1  0  0  0  0
M  END
> <s_m_source_file>
AV-unprocessed.smi

> <i_m_source_file_index>
765

> <i_lp_mmshare_version>
43012

> <i_f3d_flags>
0

> <s_epik_input>
W0NIM11bQ0BASF0oW0NIMl0xKVtDSDJdW0NIMl1bQ0gyXVtDQEBdMShDI04pW05IXUMoPU8pW0NASF0oW0NIM10pbjJbY0hdW2NIXVtjSF1uMg==

> <s_epik_cmdline>
J2VwaWtfcHl0aG9uJywgJy1waCcsICc3LjAnLCAnLXRuJywgJzgnLCAnLW1hJywgJzIwMCcsICctbWV0YWxfYmluZGluZycsICctaW1hZScsICc8aW5maWxlLm1hZT4nLCAnLW9tYWUnLCAnPG91dGZpbGUubWFlPic=

> <r_lp_tautomer_probability>
1

> <r_epik_Ionization_Penalty>
2.71142e-05

> <r_epik_Ionization_Penalty_Charging>
0

> <r_epik_Ionization_Penalty_Neutral>
2.71142e-05

> <r_epik_State_Penalty>
-0

> <r_epik_Charging_Adjusted_Penalty>
0

> <i_epik_Tot_Q>
0

> <i_epik_Tot_abs_Q>
0

> <r_epik_Metal_State_Penalty>
-0

> <b_epik_Metal_Only>
0

> <s_lp_Force_Field>
OPLS_2005

> <r_lp_Energy>
11.1831

> <b_lp_Chiralities_Consistent>
1

> <s_lp_Variant>
AV-unprocessed.smi:765-1

> <Gold.Version>
5.8.1

> <Gold.Id.Protein>
6NUR|6NUR_protein|mol2

> <Gold.PLP.Fitness>
40.5440

> <Gold.PLP.PLP>
-38.8166

> <Gold.PLP.part.hbond>
-1.0000

> <Gold.PLP.part.metal>
0.0000

> <Gold.PLP.part.buried>
-2.6210

> <Gold.PLP.part.nonpolar>
-35.1027

> <Gold.PLP.part.repulsive>
0.5540

> <Gold.PLP.ligand.clash>
0.0000

> <Gold.PLP.ligand.torsion>
0.6699

> <Gold.PLP.Chemscore.Hbond>
0.0000

> <Gold.PLP.Chemscore.CHOScore>
1.0000

> <Gold.PLP.Chemscore.Metal>
0.0000

> <Gold.Chemscore.Hbonds>
donor molecule, donor type, donor heavy atom, donor atom, acceptor molecule, acceptor atom, score
      L1  C    15    35       P1  7957  1.00

> <Gold.PLP.Chemscore.Internal.Correction>
0.0673

> <Gold.Rescore>
     Score         DG    S(hbond)    S(metal)    S(lipo)     H(rot)  DE(clash)    DE(int)     intcor
     12.52     -15.30       0.00        0.00     114.81       1.42       0.07       2.71       ----

> <Gold.Chemscore.Fitness>
12.5190

> <Gold.Chemscore.DG>
-15.2976

> <Gold.Chemscore.ZeroCoef>
-5.4800

> <Gold.Chemscore.Hbond>
0.0047

> <Gold.Chemscore.Metal>
0.0000

> <Gold.Chemscore.Lipo>
114.8114

> <Gold.Chemscore.Internal_Hbond>
0.0000

> <Gold.Chemscore.DEClash>
0.0730

> <Gold.Chemscore.DEInternal>
2.7056

> <Gold.Chemscore.Rot>
1.4183

> <Gold.Chemscore.Internal.Correction>
   9.000000E+99

> <Gold.Chemscore.Hbond.Weighted>
-0.0156

> <Gold.Chemscore.Metal.Weighted>
-0.0000

> <Gold.Chemscore.Lipo.Weighted>
-13.4329

> <Gold.Chemscore.Internal_Hbond.Weighted>
0.0000

> <Gold.Chemscore.DEClash.Weighted>
0.0730

> <Gold.Chemscore.DEInternal.Weighted>
2.7056

> <Gold.Chemscore.Rot.Weighted>
3.6309

> <Gold.Chemscore.Internal.Correction.Weighted>
   9.000000E+99

> <Gold.Protein.RotatedTorsions>
[ 6907 6896 6895 6894 ] final  -81.33 input  -60.11 | X-H torsion
[ 7974 7965 7964 7962 ] final  -25.80 input  175.53 | X-H torsion
[ 8008 7997 7996 7995 ] final  -73.26 input   59.86 | X-H torsion
[ 10167 10162 10161 10158 ] final -101.60 input  -65.29 | X-H torsion
[ 10718 10713 10712 10709 ] final -105.30 input   66.30 | X-H torsion
[ 10763 10752 10751 10750 ] final -126.01 input  -60.55 | X-H torsion
[ 11005 11000 10999 10996 ] final  123.21 input  -57.11 | X-H torsion

> <Gold.Protein.ActiveResidues>
 VAL166  LYS551  ARG553  GLY616  TRP617  ASP618  TYR619  PRO620  LYS621  CYS622 
 ASP623  PHE694  ASN695  SER759  ASP760  ASP761  ALA762  ILE779  LEU786  VAL792 
 PHE793  MET794  SER795  GLU796  ALA797  LYS798  CYS799  TRP800  GLU811  SER814 

> <Gold.Protein.RotatedAtoms>
  150.6914  134.3833  159.5043 H   0  0  0  0  0  0  0  0  0  0  0  0  # atno 6907 bound_to 6896
  152.1632  134.8892  160.0549 H   0  0  0  0  0  0  0  0  0  0  0  0  # atno 6908 bound_to 6896
  151.9946  133.3768  159.4194 H   0  0  0  0  0  0  0  0  0  0  0  0  # atno 6909 bound_to 6896
  146.1467  140.4935  142.8629 H   0  0  0  0  0  0  0  0  0  0  0  0  # atno 7974 bound_to 7965
  154.5233  140.0782  156.8211 H   0  0  0  0  0  0  0  0  0  0  0  0  # atno 8008 bound_to 7997
  155.3530  140.3413  155.4221 H   0  0  0  0  0  0  0  0  0  0  0  0  # atno 8009 bound_to 7997
  156.1704  140.1618  156.8444 H   0  0  0  0  0  0  0  0  0  0  0  0  # atno 8010 bound_to 7997
  140.2395  143.3549  152.0814 H   0  0  0  0  0  0  0  0  0  0  0  0  # atno 10167 bound_to 10162
  156.0340  130.5557  150.7519 H   0  0  0  0  0  0  0  0  0  0  0  0  # atno 10718 bound_to 10713
  154.8741  135.4010  154.3361 H   0  0  0  0  0  0  0  0  0  0  0  0  # atno 10763 bound_to 10752
  153.4167  135.7022  153.6327 H   0  0  0  0  0  0  0  0  0  0  0  0  # atno 10764 bound_to 10752
  153.5006  135.3728  155.2508 H   0  0  0  0  0  0  0  0  0  0  0  0  # atno 10765 bound_to 10752
  139.9302  134.9641  156.8225 H   0  0  0  0  0  0  0  0  0  0  0  0  # atno 11005 bound_to 11000
  144.7855  140.5927  143.6577 LP  0  0  0  0  0  0  0  0  0  0  0  0  # atno 17320 bound_to 7965
  145.4920  139.1488  143.3704 LP  0  0  0  0  0  0  0  0  0  0  0  0  # atno 17321 bound_to 7965
  139.5082  144.6845  151.5922 LP  0  0  0  0  0  0  0  0  0  0  0  0  # atno 17342 bound_to 10162
  140.6124  143.9411  150.6463 LP  0  0  0  0  0  0  0  0  0  0  0  0  # atno 17343 bound_to 10162
  157.5061  131.0922  151.0255 LP  0  0  0  0  0  0  0  0  0  0  0  0  # atno 17370 bound_to 10713
  157.0623  130.5830  149.5388 LP  0  0  0  0  0  0  0  0  0  0  0  0  # atno 17371 bound_to 10713
  140.6222  133.9983  155.7624 LP  0  0  0  0  0  0  0  0  0  0  0  0  # atno 17394 bound_to 11000
  141.0886  133.9951  157.3273 LP  0  0  0  0  0  0  0  0  0  0  0  0  # atno 17395 bound_to 11000

$$$$
