AV-unprocessed.smi:558|AV-procd|sdf|2923|dock5
  -GOLD-   2262023413D 1   1.00000     0.00000
 Structure written by MMmdl.
 36 37  0  0  0  0  0  0  0  0  1 V2000
  152.9149  142.6694  162.4597 C   0  0  0  0  0  0  0  0  0  0  0  0
  152.4082  143.3173  161.2052 C   0  0  0  0  0  0  0  0  0  0  0  0
  152.9784  143.2842  159.9022 C   0  0  0  0  0  0  0  0  0  0  0  0
  152.1239  144.0301  159.1400 C   0  0  0  0  0  0  0  0  0  0  0  0
  152.1817  144.3646  157.6852 C   0  0  0  0  0  0  0  0  0  0  0  0
  151.1120  144.4646  159.9797 N   0  0  0  0  0  0  0  0  0  0  0  0
  149.9501  145.2860  159.6769 C   0  0  0  0  0  0  0  0  0  0  0  0
  148.6725  144.6799  160.2609 C   0  0  0  0  0  0  0  0  0  0  0  0
  148.6093  144.4165  161.4613 O   0  0  0  0  0  0  0  0  0  0  0  0
  147.6637  144.4679  159.4014 N   0  0  0  0  0  0  0  0  0  0  0  0
  146.3640  143.8981  159.7409 C   0  0  0  0  0  0  0  0  0  0  0  0
  145.2067  144.7339  159.1641 C   0  0  1  0  0  0  0  0  0  0  0  0
  145.4403  146.2292  159.2282 C   0  0  0  0  0  0  0  0  0  0  0  0
  144.4185  146.7519  158.2229 C   0  0  0  0  0  0  0  0  0  0  0  0
  144.2809  145.7298  157.2398 O   0  0  0  0  0  0  0  0  0  0  0  0
  144.9503  144.5471  157.6674 C   0  0  0  0  0  0  0  0  0  0  0  0
  151.2920  144.0254  161.2447 N   0  0  0  0  0  0  0  0  0  0  0  0
  153.8702  142.1728  162.2886 H   0  0  0  0  0  0  0  0  0  0  0  0
  152.2125  141.9200  162.8252 H   0  0  0  0  0  0  0  0  0  0  0  0
  153.0610  143.4051  163.2508 H   0  0  0  0  0  0  0  0  0  0  0  0
  153.8799  142.7869  159.5760 H   0  0  0  0  0  0  0  0  0  0  0  0
  153.1410  144.0724  157.2580 H   0  0  0  0  0  0  0  0  0  0  0  0
  152.0581  145.4350  157.5210 H   0  0  0  0  0  0  0  0  0  0  0  0
  151.3990  143.8416  157.1358 H   0  0  0  0  0  0  0  0  0  0  0  0
  150.0986  146.2862  160.0875 H   0  0  0  0  0  0  0  0  0  0  0  0
  149.8631  145.4016  158.5961 H   0  0  0  0  0  0  0  0  0  0  0  0
  147.8093  144.7175  158.4341 H   0  0  0  0  0  0  0  0  0  0  0  0
  146.3277  142.8913  159.3244 H   0  0  0  0  0  0  0  0  0  0  0  0
  146.2571  143.7836  160.8210 H   0  0  0  0  0  0  0  0  0  0  0  0
  144.2883  144.5060  159.7080 H   0  0  0  0  0  0  0  0  0  0  0  0
  145.3019  146.6432  160.2273 H   0  0  0  0  0  0  0  0  0  0  0  0
  146.4503  146.4721  158.8944 H   0  0  0  0  0  0  0  0  0  0  0  0
  143.4520  146.8996  158.7061 H   0  0  0  0  0  0  0  0  0  0  0  0
  144.7214  147.6988  157.7753 H   0  0  0  0  0  0  0  0  0  0  0  0
  145.8912  144.4693  157.1207 H   0  0  0  0  0  0  0  0  0  0  0  0
  144.3599  143.6563  157.4511 H   0  0  0  0  0  0  0  0  0  0  0  0
  1  2  1  0  0  0  0
  1 18  1  0  0  0  0
  1 19  1  0  0  0  0
  1 20  1  0  0  0  0
  2 17  2  0  0  0  0
  2  3  1  0  0  0  0
  3  4  2  0  0  0  0
  3 21  1  0  0  0  0
  4  5  1  0  0  0  0
  4  6  1  0  0  0  0
  5 22  1  0  0  0  0
  5 23  1  0  0  0  0
  5 24  1  0  0  0  0
  6  7  1  0  0  0  0
  6 17  1  0  0  0  0
  7  8  1  0  0  0  0
  7 25  1  0  0  0  0
  7 26  1  0  0  0  0
  8  9  2  0  0  0  0
  8 10  1  0  0  0  0
 10 11  1  0  0  0  0
 10 27  1  0  0  0  0
 11 12  1  0  0  0  0
 11 28  1  0  0  0  0
 11 29  1  0  0  0  0
 12 16  1  0  0  0  0
 12 13  1  0  0  0  0
 12 30  1  0  0  0  0
 13 14  1  0  0  0  0
 13 31  1  0  0  0  0
 13 32  1  0  0  0  0
 14 15  1  0  0  0  0
 14 33  1  0  0  0  0
 14 34  1  0  0  0  0
 15 16  1  0  0  0  0
 16 35  1  0  0  0  0
 16 36  1  0  0  0  0
M  END
> <s_m_source_file>
AV-unprocessed.smi

> <i_m_source_file_index>
558

> <i_lp_mmshare_version>
43012

> <i_f3d_flags>
0

> <s_epik_input>
W0NIM11jMVtjSF1jKFtDSDNdKW4objEpW0NIMl1DKD1PKVtOSF1bQ0gyXVtDQEBIXTJbQ0gyXVtDSDJdT1tDSDJdMg==

> <s_epik_cmdline>
J2VwaWtfcHl0aG9uJywgJy1waCcsICc3LjAnLCAnLXRuJywgJzgnLCAnLW1hJywgJzIwMCcsICctbWV0YWxfYmluZGluZycsICctaW1hZScsICc8aW5maWxlLm1hZT4nLCAnLW9tYWUnLCAnPG91dGZpbGUubWFlPic=

> <r_lp_tautomer_probability>
1

> <r_epik_Ionization_Penalty>
0.000376629

> <r_epik_Ionization_Penalty_Charging>
0

> <r_epik_Ionization_Penalty_Neutral>
0.000376629

> <r_epik_State_Penalty>
-0

> <r_epik_Charging_Adjusted_Penalty>
0

> <i_epik_Tot_Q>
0

> <i_epik_Tot_abs_Q>
0

> <r_epik_Metal_State_Penalty>
-0

> <b_epik_Metal_Only>
0

> <s_lp_Force_Field>
OPLS_2005

> <r_lp_Energy>
17.6381

> <b_lp_Chiralities_Consistent>
1

> <s_lp_Variant>
AV-unprocessed.smi:558-2

> <Gold.Version>
5.8.1

> <Gold.Id.Protein>
6NUR|6NUR_protein|mol2

> <Gold.PLP.Fitness>
43.4804

> <Gold.PLP.PLP>
-39.1781

> <Gold.PLP.part.hbond>
-2.1610

> <Gold.PLP.part.metal>
0.0000

> <Gold.PLP.part.buried>
-5.9183

> <Gold.PLP.part.nonpolar>
-31.2054

> <Gold.PLP.part.repulsive>
0.5885

> <Gold.PLP.ligand.clash>
0.0000

> <Gold.PLP.ligand.torsion>
0.4049

> <Gold.PLP.Chemscore.Hbond>
1.6978

> <Gold.PLP.Chemscore.CHOScore>
0.0000

> <Gold.PLP.Chemscore.Metal>
0.0000

> <Gold.Chemscore.Hbonds>
donor molecule, donor type, donor heavy atom, donor atom, acceptor molecule, acceptor atom, score
      L1  H    10    27       P1  8029  0.96
      P1  H  6933  6944       L1     9  0.76

> <Gold.PLP.Chemscore.Internal.Correction>
0.0186

> <Gold.Rescore>
     Score         DG    S(hbond)    S(metal)    S(lipo)     H(rot)  DE(clash)    DE(int)     intcor
     15.70     -17.61       1.74        0.00      87.66       1.54       0.00       1.91       ----

> <Gold.Chemscore.Fitness>
15.6956

> <Gold.Chemscore.DG>
-17.6139

> <Gold.Chemscore.ZeroCoef>
-5.4800

> <Gold.Chemscore.Hbond>
1.7416

> <Gold.Chemscore.Metal>
0.0000

> <Gold.Chemscore.Lipo>
87.6581

> <Gold.Chemscore.Internal_Hbond>
0.0000

> <Gold.Chemscore.DEClash>
0.0044

> <Gold.Chemscore.DEInternal>
1.9139

> <Gold.Chemscore.Rot>
1.5387

> <Gold.Chemscore.Internal.Correction>
   9.000000E+99

> <Gold.Chemscore.Hbonds>
donor molecule, donor type, donor heavy atom, donor atom, acceptor molecule, acceptor atom, score
      L1  H    10    27       P1  8029  0.88
      P1  H  6933  6944       L1     9  0.28

> <Gold.Chemscore.Hbond.Weighted>
-5.8170

> <Gold.Chemscore.Metal.Weighted>
-0.0000

> <Gold.Chemscore.Lipo.Weighted>
-10.2560

> <Gold.Chemscore.Internal_Hbond.Weighted>
0.0000

> <Gold.Chemscore.DEClash.Weighted>
0.0044

> <Gold.Chemscore.DEInternal.Weighted>
1.9139

> <Gold.Chemscore.Rot.Weighted>
3.9392

> <Gold.Chemscore.Internal.Correction.Weighted>
   9.000000E+99

> <Gold.Protein.RotatedTorsions>
[ 6907 6896 6895 6894 ] final   93.48 input  -60.11 | X-H torsion
[ 7974 7965 7964 7962 ] final  -18.57 input  175.53 | X-H torsion
[ 8008 7997 7996 7995 ] final  136.29 input   59.86 | X-H torsion
[ 10167 10162 10161 10158 ] final   71.99 input  -65.29 | X-H torsion
[ 10718 10713 10712 10709 ] final  158.98 input   66.30 | X-H torsion
[ 10763 10752 10751 10750 ] final -136.09 input  -60.55 | X-H torsion
[ 11005 11000 10999 10996 ] final  178.97 input  -57.11 | X-H torsion

> <Gold.Protein.ActiveResidues>
 VAL166  LYS551  ARG553  GLY616  TRP617  ASP618  TYR619  PRO620  LYS621  CYS622 
 ASP623  PHE694  ASN695  SER759  ASP760  ASP761  ALA762  ILE779  LEU786  VAL792 
 PHE793  MET794  SER795  GLU796  ALA797  LYS798  CYS799  TRP800  GLU811  SER814 

> <Gold.Protein.RotatedAtoms>
  152.5452  134.1341  159.8451 H   0  0  0  0  0  0  0  0  0  0  0  0  # atno 6907 bound_to 6896
  151.1383  133.4981  159.2605 H   0  0  0  0  0  0  0  0  0  0  0  0  # atno 6908 bound_to 6896
  151.1600  135.0279  159.8761 H   0  0  0  0  0  0  0  0  0  0  0  0  # atno 6909 bound_to 6896
  146.1885  140.3940  142.8467 H   0  0  0  0  0  0  0  0  0  0  0  0  # atno 7974 bound_to 7965
  156.3004  140.2449  156.3721 H   0  0  0  0  0  0  0  0  0  0  0  0  # atno 8008 bound_to 7997
  154.8779  140.0413  157.1784 H   0  0  0  0  0  0  0  0  0  0  0  0  # atno 8009 bound_to 7997
  154.8727  140.2937  155.5476 H   0  0  0  0  0  0  0  0  0  0  0  0  # atno 8010 bound_to 7997
  140.0401  144.5396  150.7440 H   0  0  0  0  0  0  0  0  0  0  0  0  # atno 10167 bound_to 10162
  157.1704  131.0609  151.2185 H   0  0  0  0  0  0  0  0  0  0  0  0  # atno 10718 bound_to 10713
  154.8690  135.3683  154.5005 H   0  0  0  0  0  0  0  0  0  0  0  0  # atno 10763 bound_to 10752
  153.5646  135.7022  153.5537 H   0  0  0  0  0  0  0  0  0  0  0  0  # atno 10764 bound_to 10752
  153.3597  135.4050  155.1672 H   0  0  0  0  0  0  0  0  0  0  0  0  # atno 10765 bound_to 10752
  140.4009  134.6778  157.4561 H   0  0  0  0  0  0  0  0  0  0  0  0  # atno 11005 bound_to 11000
  144.8442  140.6904  143.6209 LP  0  0  0  0  0  0  0  0  0  0  0  0  # atno 17320 bound_to 7965
  145.3864  139.1626  143.4252 LP  0  0  0  0  0  0  0  0  0  0  0  0  # atno 17321 bound_to 7965
  140.7264  143.2640  151.4106 LP  0  0  0  0  0  0  0  0  0  0  0  0  # atno 17342 bound_to 10162
  139.6019  144.1277  152.2207 LP  0  0  0  0  0  0  0  0  0  0  0  0  # atno 17343 bound_to 10162
  157.4048  130.7353  149.6794 LP  0  0  0  0  0  0  0  0  0  0  0  0  # atno 17370 bound_to 10713
  155.9739  130.4111  150.3964 LP  0  0  0  0  0  0  0  0  0  0  0  0  # atno 17371 bound_to 10713
  140.0337  134.6369  155.9072 LP  0  0  0  0  0  0  0  0  0  0  0  0  # atno 17394 bound_to 11000
  141.1857  133.6555  156.5208 LP  0  0  0  0  0  0  0  0  0  0  0  0  # atno 17395 bound_to 11000

$$$$
