AV-unprocessed.smi:2949|AV-procd|sdf|11287|dock6
  -GOLD-   2272016183D 1   1.00000     0.00000
 Structure written by MMmdl.
 34 35  0  0  0  0  0  0  0  0  1 V2000
  142.9959  133.2001  150.7794 N   0  0  0  0  0  0  0  0  0  0  0  0
  144.2506  133.1175  151.0517 C   0  0  0  0  0  0  0  0  0  0  0  0
  145.2453  131.5873  151.1425 S   0  0  0  0  0  0  0  0  0  0  0  0
  146.6638  132.5418  151.5180 C   0  0  0  0  0  0  0  0  0  0  0  0
  146.3935  133.8451  151.5677 C   0  0  0  0  0  0  0  0  0  0  0  0
  145.0832  134.2049  151.3265 N   0  0  0  0  0  0  0  0  0  0  0  0
  144.6542  135.6024  151.2725 C   0  0  0  0  0  0  0  0  0  0  0  0
  144.8491  136.4079  152.5634 C   0  0  0  0  0  0  0  0  0  0  0  0
  143.8719  136.7011  153.2568 O   0  0  0  0  0  0  0  0  0  0  0  0
  146.1330  136.7405  152.8312 N   0  0  0  0  0  0  0  0  0  0  0  0
  146.6770  137.4354  153.8587 C   0  0  0  0  0  0  0  0  0  0  0  0
  145.9749  137.8283  154.7890 O   0  0  0  0  0  0  0  0  0  0  0  0
  148.0016  137.6708  153.8086 N   0  0  0  0  0  0  0  0  0  0  0  0
  148.7937  138.2839  154.8707 C   0  0  0  0  0  0  0  0  0  0  0  0
  149.4087  139.6274  154.4250 C   0  0  0  0  0  0  0  0  0  0  0  0
  150.8998  139.5447  154.7566 C   0  0  0  0  0  0  0  0  0  0  0  0
  151.2231  138.0564  154.6772 C   0  0  0  0  0  0  0  0  0  0  0  0
  149.9785  137.3758  155.2463 C   0  0  0  0  0  0  0  0  0  0  0  0
  142.6949  134.1635  150.7918 H   0  0  0  0  0  0  0  0  0  0  0  0
  147.6254  132.0772  151.6776 H   0  0  0  0  0  0  0  0  0  0  0  0
  147.0975  134.6377  151.7756 H   0  0  0  0  0  0  0  0  0  0  0  0
  145.1652  136.1152  150.4559 H   0  0  0  0  0  0  0  0  0  0  0  0
  143.5944  135.6312  151.0152 H   0  0  0  0  0  0  0  0  0  0  0  0
  146.8027  136.4183  152.1479 H   0  0  0  0  0  0  0  0  0  0  0  0
  148.4966  137.4007  152.9702 H   0  0  0  0  0  0  0  0  0  0  0  0
  148.1649  138.4274  155.7514 H   0  0  0  0  0  0  0  0  0  0  0  0
  149.2923  139.7678  153.3490 H   0  0  0  0  0  0  0  0  0  0  0  0
  148.9316  140.4783  154.9121 H   0  0  0  0  0  0  0  0  0  0  0  0
  151.5132  140.1445  154.0839 H   0  0  0  0  0  0  0  0  0  0  0  0
  151.0716  139.9023  155.7726 H   0  0  0  0  0  0  0  0  0  0  0  0
  151.3589  137.7642  153.6351 H   0  0  0  0  0  0  0  0  0  0  0  0
  152.1313  137.7932  155.2201 H   0  0  0  0  0  0  0  0  0  0  0  0
  150.0634  137.3281  156.3327 H   0  0  0  0  0  0  0  0  0  0  0  0
  149.8707  136.3507  154.8889 H   0  0  0  0  0  0  0  0  0  0  0  0
  1  2  2  0  0  0  0
  1 19  1  0  0  0  0
  2  6  1  0  0  0  0
  2  3  1  0  0  0  0
  3  4  1  0  0  0  0
  4  5  2  0  0  0  0
  4 20  1  0  0  0  0
  5  6  1  0  0  0  0
  5 21  1  0  0  0  0
  6  7  1  0  0  0  0
  7  8  1  0  0  0  0
  7 22  1  0  0  0  0
  7 23  1  0  0  0  0
  8  9  2  0  0  0  0
  8 10  1  0  0  0  0
 10 11  1  0  0  0  0
 10 24  1  0  0  0  0
 11 12  2  0  0  0  0
 11 13  1  0  0  0  0
 13 14  1  0  0  0  0
 13 25  1  0  0  0  0
 14 18  1  0  0  0  0
 14 15  1  0  0  0  0
 14 26  1  0  0  0  0
 15 16  1  0  0  0  0
 15 27  1  0  0  0  0
 15 28  1  0  0  0  0
 16 17  1  0  0  0  0
 16 29  1  0  0  0  0
 16 30  1  0  0  0  0
 17 18  1  0  0  0  0
 17 31  1  0  0  0  0
 17 32  1  0  0  0  0
 18 33  1  0  0  0  0
 18 34  1  0  0  0  0
M  END
> <s_m_source_file>
AV-unprocessed.smi

> <i_m_source_file_index>
2949

> <i_lp_mmshare_version>
43012

> <i_f3d_flags>
0

> <s_epik_input>
W0hdL049YzFcc1tjSF1bY0hdbjFbQ0gyXUMoPU8pW05IXUMoPU8pW05IXVtDSF0yW0NIMl1bQ0gyXVtDSDJdW0NIMl0y

> <s_epik_cmdline>
J2VwaWtfcHl0aG9uJywgJy1waCcsICc3LjAnLCAnLXRuJywgJzgnLCAnLW1hJywgJzIwMCcsICctbWV0YWxfYmluZGluZycsICctaW1hZScsICc8aW5maWxlLm1hZT4nLCAnLW9tYWUnLCAnPG91dGZpbGUubWFlPic=

> <r_epik_Ionization_Penalty>
2.0346

> <r_epik_Ionization_Penalty_Charging>
2.03458

> <r_epik_Ionization_Penalty_Neutral>
2.61125e-05

> <r_epik_State_Penalty>
2.18096

> <r_epik_Charging_Adjusted_Penalty>
4.21554

> <i_epik_Tot_Q>
0

> <i_epik_Tot_abs_Q>
0

> <r_epik_Metal_State_Penalty>
2.18096

> <b_epik_Metal_Only>
0

> <s_lp_Force_Field>
OPLS_2005

> <r_lp_Energy>
19.3427

> <b_lp_Chiralities_Consistent>
1

> <s_lp_Variant>
AV-unprocessed.smi:2949-3

> <Gold.Version>
5.8.1

> <Gold.Id.Protein>
6NUR|6NUR_protein|mol2

> <Gold.PLP.Fitness>
41.1841

> <Gold.PLP.PLP>
-29.5113

> <Gold.PLP.part.hbond>
-3.0000

> <Gold.PLP.part.metal>
0.0000

> <Gold.PLP.part.buried>
-2.1325

> <Gold.PLP.part.nonpolar>
-24.6717

> <Gold.PLP.part.repulsive>
0.2738

> <Gold.PLP.ligand.clash>
0.0000

> <Gold.PLP.ligand.torsion>
0.1977

> <Gold.PLP.Chemscore.Hbond>
2.0566

> <Gold.PLP.Chemscore.CHOScore>
1.9577

> <Gold.PLP.Chemscore.Metal>
0.0000

> <Gold.Chemscore.Hbonds>
donor molecule, donor type, donor heavy atom, donor atom, acceptor molecule, acceptor atom, score
      L1  H     1    19       P1 10186  0.18
      L1  H    10    24       P1  7948  0.57
      L1  H    13    25       P1  7948  1.00
      L1  C     4    20       P1 10747  1.00
      L1  C     5    21       P1  7948  1.00

> <Gold.PLP.Chemscore.Internal.Correction>
0.0254

> <Gold.Rescore>
     Score         DG    S(hbond)    S(metal)    S(lipo)     H(rot)  DE(clash)    DE(int)     intcor
     12.57     -14.42       1.98        0.00      56.71       1.69       0.26       1.59       ----

> <Gold.Chemscore.Fitness>
12.5725

> <Gold.Chemscore.DG>
-14.4233

> <Gold.Chemscore.ZeroCoef>
-5.4800

> <Gold.Chemscore.Hbond>
1.9844

> <Gold.Chemscore.Metal>
0.0000

> <Gold.Chemscore.Lipo>
56.7052

> <Gold.Chemscore.Internal_Hbond>
0.0000

> <Gold.Chemscore.DEClash>
0.2563

> <Gold.Chemscore.DEInternal>
1.5945

> <Gold.Chemscore.Rot>
1.6871

> <Gold.Chemscore.Internal.Correction>
   9.000000E+99

> <Gold.Chemscore.Hbonds>
donor molecule, donor type, donor heavy atom, donor atom, acceptor molecule, acceptor atom, score
      L1  H     1    19       P1 10186  0.10
      L1  H    10    24       P1  7948  0.55
      L1  H    13    25       P1  7948  0.96

> <Gold.Chemscore.Hbond.Weighted>
-6.6278

> <Gold.Chemscore.Metal.Weighted>
-0.0000

> <Gold.Chemscore.Lipo.Weighted>
-6.6345

> <Gold.Chemscore.Internal_Hbond.Weighted>
0.0000

> <Gold.Chemscore.DEClash.Weighted>
0.2563

> <Gold.Chemscore.DEInternal.Weighted>
1.5945

> <Gold.Chemscore.Rot.Weighted>
4.3191

> <Gold.Chemscore.Internal.Correction.Weighted>
   9.000000E+99

> <Gold.Protein.RotatedTorsions>
[ 6907 6896 6895 6894 ] final   -9.86 input  -60.11 | X-H torsion
[ 7974 7965 7964 7962 ] final  -22.60 input  175.53 | X-H torsion
[ 8008 7997 7996 7995 ] final   25.93 input   59.86 | X-H torsion
[ 10167 10162 10161 10158 ] final  143.78 input  -65.29 | X-H torsion
[ 10718 10713 10712 10709 ] final   17.42 input   66.30 | X-H torsion
[ 10763 10752 10751 10750 ] final   44.13 input  -60.55 | X-H torsion
[ 11005 11000 10999 10996 ] final   74.62 input  -57.11 | X-H torsion

> <Gold.Protein.ActiveResidues>
 VAL166  LYS551  ARG553  GLY616  TRP617  ASP618  TYR619  PRO620  LYS621  CYS622 
 ASP623  PHE694  ASN695  SER759  ASP760  ASP761  ALA762  ILE779  LEU786  VAL792 
 PHE793  MET794  SER795  GLU796  ALA797  LYS798  CYS799  TRP800  GLU811  SER814 

> <Gold.Protein.RotatedAtoms>
  151.4111  135.0985  159.9585 H   0  0  0  0  0  0  0  0  0  0  0  0  # atno 6907 bound_to 6896
  152.5019  133.8796  159.7350 H   0  0  0  0  0  0  0  0  0  0  0  0  # atno 6908 bound_to 6896
  150.9291  133.6731  159.2843 H   0  0  0  0  0  0  0  0  0  0  0  0  # atno 6909 bound_to 6896
  146.1666  140.4502  142.8549 H   0  0  0  0  0  0  0  0  0  0  0  0  # atno 7974 bound_to 7965
  155.0194  140.3146  155.4799 H   0  0  0  0  0  0  0  0  0  0  0  0  # atno 8008 bound_to 7997
  156.2895  140.2200  156.5253 H   0  0  0  0  0  0  0  0  0  0  0  0  # atno 8009 bound_to 7997
  154.7465  140.0469  157.0844 H   0  0  0  0  0  0  0  0  0  0  0  0  # atno 8010 bound_to 7997
  139.4962  144.6017  151.6467 H   0  0  0  0  0  0  0  0  0  0  0  0  # atno 10167 bound_to 10162
  157.0819  130.6391  149.5828 H   0  0  0  0  0  0  0  0  0  0  0  0  # atno 10718 bound_to 10713
  152.9847  135.6080  154.3224 H   0  0  0  0  0  0  0  0  0  0  0  0  # atno 10763 bound_to 10752
  154.2933  135.2774  155.2647 H   0  0  0  0  0  0  0  0  0  0  0  0  # atno 10764 bound_to 10752
  154.4932  135.5886  153.6531 H   0  0  0  0  0  0  0  0  0  0  0  0  # atno 10765 bound_to 10752
  139.9382  134.7448  156.1170 H   0  0  0  0  0  0  0  0  0  0  0  0  # atno 11005 bound_to 11000
  144.8101  140.6370  143.6421 LP  0  0  0  0  0  0  0  0  0  0  0  0  # atno 17320 bound_to 7965
  145.4451  139.1530  143.3949 LP  0  0  0  0  0  0  0  0  0  0  0  0  # atno 17321 bound_to 7965
  140.5668  144.0176  150.6196 LP  0  0  0  0  0  0  0  0  0  0  0  0  # atno 17342 bound_to 10162
  140.3280  143.3095  152.0716 LP  0  0  0  0  0  0  0  0  0  0  0  0  # atno 17343 bound_to 10162
  155.9921  130.4978  150.7327 LP  0  0  0  0  0  0  0  0  0  0  0  0  # atno 17370 bound_to 10713
  157.4793  131.0901  151.0554 LP  0  0  0  0  0  0  0  0  0  0  0  0  # atno 17371 bound_to 10713
  141.1006  133.6679  156.2745 LP  0  0  0  0  0  0  0  0  0  0  0  0  # atno 17394 bound_to 11000
  140.6020  134.5545  157.5519 LP  0  0  0  0  0  0  0  0  0  0  0  0  # atno 17395 bound_to 11000

$$$$
