AV-unprocessed.smi:1093|AV-procd|sdf|4743|dock4
  -GOLD-   22720 3273D 1   1.00000     0.00000
 Structure written by MMmdl.
 47 48  0  0  0  0  0  0  0  0  2 V2000
  144.0902  134.0517  150.8601 C   0  0  0  0  0  0  0  0  0  0  0  0
  145.2784  135.0243  150.8437 C   0  0  0  0  0  0  0  0  0  0  0  0
  146.3325  134.6431  151.8163 N   0  3  2  0  0  0  0  0  0  0  0  0
  146.9517  133.3299  151.4984 C   0  0  0  0  0  0  0  0  0  0  0  0
  148.1414  133.0347  152.4291 C   0  0  0  0  0  0  0  0  0  0  0  0
  147.7354  133.1306  153.9100 C   0  0  0  0  0  0  0  0  0  0  0  0
  147.0508  134.4768  154.2074 C   0  0  1  0  0  0  0  0  0  0  0  0
  148.0300  135.5616  154.1236 N   0  0  0  0  0  0  0  0  0  0  0  0
  148.3259  136.4199  155.1101 C   0  0  0  0  0  0  0  0  0  0  0  0
  147.7981  136.3817  156.2208 O   0  0  0  0  0  0  0  0  0  0  0  0
  149.2665  137.2982  154.7235 N   0  0  0  0  0  0  0  0  0  0  0  0
  149.7931  138.4078  155.4388 C   0  0  0  0  0  0  0  0  0  0  0  0
  149.9733  138.4451  156.8408 C   0  0  0  0  0  0  0  0  0  0  0  0
  150.4816  139.6164  157.4343 C   0  0  0  0  0  0  0  0  0  0  0  0
  150.7946  140.7311  156.6172 C   0  0  0  0  0  0  0  0  0  0  0  0
  151.3052  141.9291  157.1673 N   0  0  0  0  0  0  0  0  0  0  0  0
  152.0875  141.8879  158.3988 C   0  0  0  0  0  0  0  0  0  0  0  0
  151.0604  143.2038  156.5039 C   0  0  0  0  0  0  0  0  0  0  0  0
  150.6101  140.6913  155.2750 N   0  0  0  0  0  0  0  0  0  0  0  0
  150.1226  139.5674  154.7103 C   0  0  0  0  0  0  0  0  0  0  0  0
  145.8728  134.6878  153.2297 C   0  0  0  0  0  0  0  0  0  0  0  0
  143.2952  134.4079  150.2046 H   0  0  0  0  0  0  0  0  0  0  0  0
  143.6723  133.9570  151.8627 H   0  0  0  0  0  0  0  0  0  0  0  0
  144.3680  133.0557  150.5169 H   0  0  0  0  0  0  0  0  0  0  0  0
  145.7015  135.1024  149.8413 H   0  0  0  0  0  0  0  0  0  0  0  0
  144.8976  136.0147  151.0958 H   0  0  0  0  0  0  0  0  0  0  0  0
  146.2009  132.5428  151.5849 H   0  0  0  0  0  0  0  0  0  0  0  0
  147.2989  133.3244  150.4645 H   0  0  0  0  0  0  0  0  0  0  0  0
  148.5401  132.0421  152.2177 H   0  0  0  0  0  0  0  0  0  0  0  0
  148.9491  133.7374  152.2211 H   0  0  0  0  0  0  0  0  0  0  0  0
  147.0488  132.3167  154.1472 H   0  0  0  0  0  0  0  0  0  0  0  0
  148.6063  132.9920  154.5518 H   0  0  0  0  0  0  0  0  0  0  0  0
  146.6655  134.4486  155.2283 H   0  0  0  0  0  0  0  0  0  0  0  0
  148.5274  135.6575  153.2502 H   0  0  0  0  0  0  0  0  0  0  0  0
  149.6744  137.1420  153.8132 H   0  0  0  0  0  0  0  0  0  0  0  0
  149.7198  137.6113  157.4762 H   0  0  0  0  0  0  0  0  0  0  0  0
  150.6156  139.6364  158.5052 H   0  0  0  0  0  0  0  0  0  0  0  0
  152.9739  141.2662  158.2689 H   0  0  0  0  0  0  0  0  0  0  0  0
  151.4933  141.4783  159.2163 H   0  0  0  0  0  0  0  0  0  0  0  0
  152.4195  142.8833  158.6940 H   0  0  0  0  0  0  0  0  0  0  0  0
  151.4855  143.2011  155.4997 H   0  0  0  0  0  0  0  0  0  0  0  0
  151.5110  144.0304  157.0532 H   0  0  0  0  0  0  0  0  0  0  0  0
  149.9900  143.3988  156.4307 H   0  0  0  0  0  0  0  0  0  0  0  0
  149.9924  139.5971  153.6384 H   0  0  0  0  0  0  0  0  0  0  0  0
  145.3832  135.6370  153.4427 H   0  0  0  0  0  0  0  0  0  0  0  0
  145.1165  133.9171  153.3874 H   0  0  0  0  0  0  0  0  0  0  0  0
  147.0658  135.3316  151.7240 H   0  0  0  0  0  0  0  0  0  0  0  0
  1  2  1  0  0  0  0
  1 22  1  0  0  0  0
  1 23  1  0  0  0  0
  1 24  1  0  0  0  0
  2  3  1  0  0  0  0
  2 25  1  0  0  0  0
  2 26  1  0  0  0  0
  3 21  1  0  0  0  0
  3  4  1  0  0  0  0
  3 47  1  0  0  0  0
  4  5  1  0  0  0  0
  4 27  1  0  0  0  0
  4 28  1  0  0  0  0
  5  6  1  0  0  0  0
  5 29  1  0  0  0  0
  5 30  1  0  0  0  0
  6  7  1  0  0  0  0
  6 31  1  0  0  0  0
  6 32  1  0  0  0  0
  7  8  1  0  0  0  0
  7 21  1  0  0  0  0
  7 33  1  0  0  0  0
  8  9  1  0  0  0  0
  8 34  1  0  0  0  0
  9 10  2  0  0  0  0
  9 11  1  0  0  0  0
 11 12  1  0  0  0  0
 11 35  1  0  0  0  0
 12 20  1  0  0  0  0
 12 13  2  0  0  0  0
 13 14  1  0  0  0  0
 13 36  1  0  0  0  0
 14 15  2  0  0  0  0
 14 37  1  0  0  0  0
 15 16  1  0  0  0  0
 15 19  1  0  0  0  0
 16 17  1  0  0  0  0
 16 18  1  0  0  0  0
 17 38  1  0  0  0  0
 17 39  1  0  0  0  0
 17 40  1  0  0  0  0
 18 41  1  0  0  0  0
 18 42  1  0  0  0  0
 18 43  1  0  0  0  0
 19 20  2  0  0  0  0
 20 44  1  0  0  0  0
 21 45  1  0  0  0  0
 21 46  1  0  0  0  0
M  CHG  1   3   1
M  END
> <s_m_source_file>
AV-unprocessed.smi

> <i_m_source_file_index>
1093

> <i_lp_mmshare_version>
43012

> <i_f3d_flags>
0

> <s_epik_input>
W0NIM11bQ0gyXU4xW0NIMl1bQ0gyXVtDSDJdW0NASF0oW0NIMl0xKVtOSF1DKD1PKVtOSF1jMltjSF1bY0hdYyhOKFtDSDNdKVtDSDNdKW5bY0hdMg==

> <s_epik_cmdline>
J2VwaWtfcHl0aG9uJywgJy1waCcsICc3LjAnLCAnLXRuJywgJzgnLCAnLW1hJywgJzIwMCcsICctbWV0YWxfYmluZGluZycsICctaW1hZScsICc8aW5maWxlLm1hZT4nLCAnLW9tYWUnLCAnPG91dGZpbGUubWFlPic=

> <r_lp_tautomer_probability>
1

> <r_epik_Ionization_Penalty>
0.489418

> <r_epik_Ionization_Penalty_Charging>
0.00268196

> <r_epik_Ionization_Penalty_Neutral>
0.486736

> <r_epik_State_Penalty>
0.491157

> <r_epik_Charging_Adjusted_Penalty>
0.493839

> <i_epik_Tot_Q>
1

> <i_epik_Tot_abs_Q>
1

> <r_epik_Metal_State_Penalty>
0.266953

> <b_epik_Metal_Only>
0

> <s_lp_Force_Field>
OPLS_2005

> <r_lp_Energy>
27.714

> <b_lp_Chiralities_Consistent>
1

> <s_lp_Variant>
AV-unprocessed.smi:1093-6

> <Gold.Version>
5.8.1

> <Gold.Id.Protein>
6NUR|6NUR_protein|mol2

> <Gold.PLP.Fitness>
40.4138

> <Gold.PLP.PLP>
-27.8580

> <Gold.PLP.part.hbond>
-3.8814

> <Gold.PLP.part.metal>
0.0000

> <Gold.PLP.part.buried>
-0.1534

> <Gold.PLP.part.nonpolar>
-23.2840

> <Gold.PLP.part.repulsive>
0.1278

> <Gold.PLP.ligand.clash>
0.0000

> <Gold.PLP.ligand.torsion>
0.5947

> <Gold.PLP.Chemscore.Hbond>
3.5757

> <Gold.PLP.Chemscore.CHOScore>
0.9993

> <Gold.PLP.Chemscore.Metal>
0.0000

> <Gold.Chemscore.Hbonds>
donor molecule, donor type, donor heavy atom, donor atom, acceptor molecule, acceptor atom, score
      L1  H     3    47       P1  7948  1.89
      L1  H     8    34       P1  7948  1.00
      L1  H    11    35       P1  7948  0.35
      P1  H  7989  7998       L1    19  0.17
      L1  C    20    44       P1  7957  0.97

> <Gold.PLP.Chemscore.Internal.Correction>
0.0200

> <Gold.Rescore>
     Score         DG    S(hbond)    S(metal)    S(lipo)     H(rot)  DE(clash)    DE(int)     intcor
     16.34     -17.81       2.14        0.00      70.10       1.18       0.32       1.15       ----

> <Gold.Chemscore.Fitness>
16.3359

> <Gold.Chemscore.DG>
-17.8146

> <Gold.Chemscore.ZeroCoef>
-5.4800

> <Gold.Chemscore.Hbond>
2.1450

> <Gold.Chemscore.Metal>
0.0000

> <Gold.Chemscore.Lipo>
70.1025

> <Gold.Chemscore.Internal_Hbond>
0.0000

> <Gold.Chemscore.DEClash>
0.3243

> <Gold.Chemscore.DEInternal>
1.1543

> <Gold.Chemscore.Rot>
1.1842

> <Gold.Chemscore.Internal.Correction>
   9.000000E+99

> <Gold.Chemscore.Hbonds>
donor molecule, donor type, donor heavy atom, donor atom, acceptor molecule, acceptor atom, score
      L1  H     3    47       P1  7948  0.89
      L1  H     8    34       P1  7948  0.94
      L1  H    11    35       P1  7948  0.29

> <Gold.Chemscore.Hbond.Weighted>
-7.1642

> <Gold.Chemscore.Metal.Weighted>
-0.0000

> <Gold.Chemscore.Lipo.Weighted>
-8.2020

> <Gold.Chemscore.Internal_Hbond.Weighted>
0.0000

> <Gold.Chemscore.DEClash.Weighted>
0.3243

> <Gold.Chemscore.DEInternal.Weighted>
1.1543

> <Gold.Chemscore.Rot.Weighted>
3.0317

> <Gold.Chemscore.Internal.Correction.Weighted>
   9.000000E+99

> <Gold.Protein.RotatedTorsions>
[ 6907 6896 6895 6894 ] final -179.40 input  -60.11 | X-H torsion
[ 7974 7965 7964 7962 ] final  -76.32 input  175.53 | X-H torsion
[ 8008 7997 7996 7995 ] final  -22.10 input   59.86 | X-H torsion
[ 10167 10162 10161 10158 ] final  -32.42 input  -65.29 | X-H torsion
[ 10718 10713 10712 10709 ] final  109.36 input   66.30 | X-H torsion
[ 10763 10752 10751 10750 ] final -139.01 input  -60.55 | X-H torsion
[ 11005 11000 10999 10996 ] final   23.25 input  -57.11 | X-H torsion

> <Gold.Protein.ActiveResidues>
 VAL166  LYS551  ARG553  GLY616  TRP617  ASP618  TYR619  PRO620  LYS621  CYS622 
 ASP623  PHE694  ASN695  SER759  ASP760  ASP761  ALA762  ILE779  LEU786  VAL792 
 PHE793  MET794  SER795  GLU796  ALA797  LYS798  CYS799  TRP800  GLU811  SER814 

> <Gold.Protein.RotatedAtoms>
  151.6529  133.3320  159.3155 H   0  0  0  0  0  0  0  0  0  0  0  0  # atno 6907 bound_to 6896
  150.7951  134.7009  159.6559 H   0  0  0  0  0  0  0  0  0  0  0  0  # atno 6908 bound_to 6896
  152.4037  134.6247  160.0111 H   0  0  0  0  0  0  0  0  0  0  0  0  # atno 6909 bound_to 6896
  145.6144  140.9378  143.1172 H   0  0  0  0  0  0  0  0  0  0  0  0  # atno 7974 bound_to 7965
  154.4664  140.2017  156.0107 H   0  0  0  0  0  0  0  0  0  0  0  0  # atno 8008 bound_to 7997
  156.0935  140.3254  155.7817 H   0  0  0  0  0  0  0  0  0  0  0  0  # atno 8009 bound_to 7997
  155.4917  140.0546  157.2943 H   0  0  0  0  0  0  0  0  0  0  0  0  # atno 8010 bound_to 7997
  140.7221  143.3696  151.1804 H   0  0  0  0  0  0  0  0  0  0  0  0  # atno 10167 bound_to 10162
  157.6545  131.0912  150.6443 H   0  0  0  0  0  0  0  0  0  0  0  0  # atno 10718 bound_to 10713
  154.8621  135.3595  154.5478 H   0  0  0  0  0  0  0  0  0  0  0  0  # atno 10763 bound_to 10752
  153.6097  135.7010  153.5356 H   0  0  0  0  0  0  0  0  0  0  0  0  # atno 10764 bound_to 10752
  153.3220  135.4148  155.1385 H   0  0  0  0  0  0  0  0  0  0  0  0  # atno 10765 bound_to 10752
  140.3717  134.2016  155.7666 H   0  0  0  0  0  0  0  0  0  0  0  0  # atno 11005 bound_to 11000
  144.7256  139.7886  143.7366 LP  0  0  0  0  0  0  0  0  0  0  0  0  # atno 17320 bound_to 7965
  146.1479  139.4554  143.0067 LP  0  0  0  0  0  0  0  0  0  0  0  0  # atno 17321 bound_to 7965
  139.7264  143.9141  152.3004 LP  0  0  0  0  0  0  0  0  0  0  0  0  # atno 17342 bound_to 10162
  139.8915  144.6962  150.8765 LP  0  0  0  0  0  0  0  0  0  0  0  0  # atno 17343 bound_to 10162
  156.6750  130.4550  149.5645 LP  0  0  0  0  0  0  0  0  0  0  0  0  # atno 17370 bound_to 10713
  156.1970  130.6596  151.1125 LP  0  0  0  0  0  0  0  0  0  0  0  0  # atno 17371 bound_to 10713
  141.1952  133.8110  157.0723 LP  0  0  0  0  0  0  0  0  0  0  0  0  # atno 17394 bound_to 11000
  140.0547  134.9787  157.1199 LP  0  0  0  0  0  0  0  0  0  0  0  0  # atno 17395 bound_to 11000

$$$$
