AV-unprocessed.smi:1207|AV-procd|sdf|5050|dock5
  -GOLD-   22720 4 73D 1   1.00000     0.00000
 Structure written by MMmdl.
 51 53  0  0  0  0  0  0  0  0  1 V2000
  153.2906  142.3358  161.7165 C   0  0  0  0  0  0  0  0  0  0  0  0
  152.6706  142.1065  160.3495 C   0  0  0  0  0  0  0  0  0  0  0  0
  153.0473  140.9650  159.6066 C   0  0  0  0  0  0  0  0  0  0  0  0
  152.4929  140.7148  158.3321 C   0  0  0  0  0  0  0  0  0  0  0  0
  152.7131  139.6747  157.4452 N   0  0  0  0  0  0  0  0  0  0  0  0
  151.9065  140.0047  156.4407 C   0  0  0  0  0  0  0  0  0  0  0  0
  151.1894  141.1371  156.5714 N   0  0  0  0  0  0  0  0  0  0  0  0
  150.2514  141.6898  155.6099 C   0  0  0  0  0  0  0  0  0  0  0  0
  149.3879  140.6054  154.9355 C   0  0  1  0  0  0  0  0  0  0  0  0
  150.1284  140.0367  153.8720 O   0  0  0  0  0  0  0  0  0  0  0  0
  148.9874  139.4878  155.9236 C   0  0  0  0  0  0  0  0  0  0  0  0
  148.3745  138.3048  155.3161 N   0  0  0  0  0  0  0  0  0  0  0  0
  147.1659  138.6859  154.5900 C   0  0  0  0  0  0  0  0  0  0  0  0
  148.0899  137.2591  156.3025 C   0  0  0  0  0  0  0  0  0  0  0  0
  149.3325  136.5735  156.8108 C   0  0  0  0  0  0  0  0  0  0  0  0
  150.0531  135.5025  156.2090 C   0  0  0  0  0  0  0  0  0  0  0  0
  149.7626  134.7930  154.9176 C   0  0  0  0  0  0  0  0  0  0  0  0
  151.1025  135.1457  156.9308 N   0  0  0  0  0  0  0  0  0  0  0  0
  151.1009  135.9849  158.0494 O   0  0  0  0  0  0  0  0  0  0  0  0
  150.0392  136.8253  157.9546 C   0  0  0  0  0  0  0  0  0  0  0  0
  149.8626  137.8061  159.0641 C   0  0  0  0  0  0  0  0  0  0  0  0
  151.5451  141.6464  157.8158 C   0  0  0  0  0  0  0  0  0  0  0  0
  151.1622  142.7854  158.5458 C   0  0  0  0  0  0  0  0  0  0  0  0
  151.7246  143.0196  159.8182 C   0  0  0  0  0  0  0  0  0  0  0  0
  151.3026  144.2516  160.5991 C   0  0  0  0  0  0  0  0  0  0  0  0
  154.0017  141.5485  161.9685 H   0  0  0  0  0  0  0  0  0  0  0  0
  152.5200  142.3498  162.4877 H   0  0  0  0  0  0  0  0  0  0  0  0
  153.8227  143.2870  161.7404 H   0  0  0  0  0  0  0  0  0  0  0  0
  153.7673  140.2688  160.0112 H   0  0  0  0  0  0  0  0  0  0  0  0
  151.8306  139.3873  155.5575 H   0  0  0  0  0  0  0  0  0  0  0  0
  149.6223  142.4247  156.1143 H   0  0  0  0  0  0  0  0  0  0  0  0
  150.8239  142.2349  154.8581 H   0  0  0  0  0  0  0  0  0  0  0  0
  148.4933  141.0781  154.5267 H   0  0  0  0  0  0  0  0  0  0  0  0
  149.6426  140.1564  153.0705 H   0  0  0  0  0  0  0  0  0  0  0  0
  149.8364  139.2017  156.5471 H   0  0  0  0  0  0  0  0  0  0  0  0
  148.2594  139.9153  156.6146 H   0  0  0  0  0  0  0  0  0  0  0  0
  146.7353  137.8356  154.0610 H   0  0  0  0  0  0  0  0  0  0  0  0
  147.3865  139.4489  153.8428 H   0  0  0  0  0  0  0  0  0  0  0  0
  146.4088  139.0840  155.2670 H   0  0  0  0  0  0  0  0  0  0  0  0
  147.5696  137.6942  157.1545 H   0  0  0  0  0  0  0  0  0  0  0  0
  147.3914  136.5380  155.8762 H   0  0  0  0  0  0  0  0  0  0  0  0
  148.7292  134.4463  154.8870 H   0  0  0  0  0  0  0  0  0  0  0  0
  150.4061  133.9232  154.7789 H   0  0  0  0  0  0  0  0  0  0  0  0
  149.9148  135.4580  154.0672 H   0  0  0  0  0  0  0  0  0  0  0  0
  149.2651  138.6589  158.7411 H   0  0  0  0  0  0  0  0  0  0  0  0
  150.8264  138.1824  159.4075 H   0  0  0  0  0  0  0  0  0  0  0  0
  149.3579  137.3419  159.9114 H   0  0  0  0  0  0  0  0  0  0  0  0
  150.4385  143.4709  158.1302 H   0  0  0  0  0  0  0  0  0  0  0  0
  150.5648  144.8372  160.0499 H   0  0  0  0  0  0  0  0  0  0  0  0
  152.1620  144.8936  160.7935 H   0  0  0  0  0  0  0  0  0  0  0  0
  150.8596  143.9658  161.5534 H   0  0  0  0  0  0  0  0  0  0  0  0
  1  2  1  0  0  0  0
  1 26  1  0  0  0  0
  1 27  1  0  0  0  0
  1 28  1  0  0  0  0
  2 24  1  0  0  0  0
  2  3  2  0  0  0  0
  3  4  1  0  0  0  0
  3 29  1  0  0  0  0
  4 22  2  0  0  0  0
  4  5  1  0  0  0  0
  5  6  2  0  0  0  0
  6  7  1  0  0  0  0
  6 30  1  0  0  0  0
  7  8  1  0  0  0  0
  7 22  1  0  0  0  0
  8  9  1  0  0  0  0
  8 31  1  0  0  0  0
  8 32  1  0  0  0  0
  9 10  1  0  0  0  0
  9 11  1  0  0  0  0
  9 33  1  0  0  0  0
 10 34  1  0  0  0  0
 11 12  1  0  0  0  0
 11 35  1  0  0  0  0
 11 36  1  0  0  0  0
 12 13  1  0  0  0  0
 12 14  1  0  0  0  0
 13 37  1  0  0  0  0
 13 38  1  0  0  0  0
 13 39  1  0  0  0  0
 14 15  1  0  0  0  0
 14 40  1  0  0  0  0
 14 41  1  0  0  0  0
 15 20  2  0  0  0  0
 15 16  1  0  0  0  0
 16 17  1  0  0  0  0
 16 18  2  0  0  0  0
 17 42  1  0  0  0  0
 17 43  1  0  0  0  0
 17 44  1  0  0  0  0
 18 19  1  0  0  0  0
 19 20  1  0  0  0  0
 20 21  1  0  0  0  0
 21 45  1  0  0  0  0
 21 46  1  0  0  0  0
 21 47  1  0  0  0  0
 22 23  1  0  0  0  0
 23 24  2  0  0  0  0
 23 48  1  0  0  0  0
 24 25  1  0  0  0  0
 25 49  1  0  0  0  0
 25 50  1  0  0  0  0
 25 51  1  0  0  0  0
M  END
> <s_m_source_file>
AV-unprocessed.smi

> <i_m_source_file_index>
1207

> <i_lp_mmshare_version>
43012

> <i_f3d_flags>
0

> <s_epik_input>
W0NIM11jKFtjSF0xKWMoW0NIM10pW2NIXWMoYzEyKW4oW2NIXW4yKVtDSDJdW0NASF0oW09IXSlbQ0gyXU4oW0NIM10pW0NIMl1jM2MoW0NIM10pbm9jM1tDSDNd

> <s_epik_cmdline>
J2VwaWtfcHl0aG9uJywgJy1waCcsICc3LjAnLCAnLXRuJywgJzgnLCAnLW1hJywgJzIwMCcsICctbWV0YWxfYmluZGluZycsICctaW1hZScsICc8aW5maWxlLm1hZT4nLCAnLW9tYWUnLCAnPG91dGZpbGUubWFlPic=

> <r_epik_Ionization_Penalty>
0.374039

> <r_epik_Ionization_Penalty_Charging>
0

> <r_epik_Ionization_Penalty_Neutral>
0.374039

> <r_epik_State_Penalty>
0.350767

> <r_epik_Charging_Adjusted_Penalty>
0.350767

> <i_epik_Tot_Q>
0

> <i_epik_Tot_abs_Q>
0

> <r_epik_Metal_State_Penalty>
0.343187

> <b_epik_Metal_Only>
0

> <s_lp_Force_Field>
OPLS_2005

> <r_lp_Energy>
17.6596

> <b_lp_Chiralities_Consistent>
1

> <s_lp_Variant>
AV-unprocessed.smi:1207-2

> <Gold.Version>
5.8.1

> <Gold.Id.Protein>
6NUR|6NUR_protein|mol2

> <Gold.PLP.Fitness>
50.6045

> <Gold.PLP.PLP>
-42.8932

> <Gold.PLP.part.hbond>
-4.3997

> <Gold.PLP.part.metal>
0.0000

> <Gold.PLP.part.buried>
-6.0006

> <Gold.PLP.part.nonpolar>
-32.0812

> <Gold.PLP.part.repulsive>
0.0619

> <Gold.PLP.ligand.clash>
0.0000

> <Gold.PLP.ligand.torsion>
0.9841

> <Gold.PLP.Chemscore.Hbond>
3.1920

> <Gold.PLP.Chemscore.CHOScore>
0.0000

> <Gold.PLP.Chemscore.Metal>
0.0000

> <Gold.Chemscore.Hbonds>
donor molecule, donor type, donor heavy atom, donor atom, acceptor molecule, acceptor atom, score
      L1  H    10    34       P1  7957  0.96
      P1  H  6896  6907       L1    19  0.43
      P1  H  7989  7998       L1    10  0.88
      P1  H  7997  8010       L1     5  0.90

> <Gold.PLP.Chemscore.Internal.Correction>
0.1036

> <Gold.Rescore>
     Score         DG    S(hbond)    S(metal)    S(lipo)     H(rot)  DE(clash)    DE(int)     intcor
     18.25     -20.33       2.35        0.00     111.95       2.38       0.05       2.04       ----

> <Gold.Chemscore.Fitness>
18.2529

> <Gold.Chemscore.DG>
-20.3340

> <Gold.Chemscore.ZeroCoef>
-5.4800

> <Gold.Chemscore.Hbond>
2.3464

> <Gold.Chemscore.Metal>
0.0000

> <Gold.Chemscore.Lipo>
111.9526

> <Gold.Chemscore.Internal_Hbond>
0.0000

> <Gold.Chemscore.DEClash>
0.0454

> <Gold.Chemscore.DEInternal>
2.0357

> <Gold.Chemscore.Rot>
2.3756

> <Gold.Chemscore.Internal.Correction>
   9.000000E+99

> <Gold.Chemscore.Hbonds>
donor molecule, donor type, donor heavy atom, donor atom, acceptor molecule, acceptor atom, score
      L1  H    10    34       P1  7957  0.92
      P1  H  6896  6907       L1    19  0.17
      P1  H  7989  7998       L1    10  0.20
      P1  H  7997  8010       L1     5  0.09

> <Gold.Chemscore.Hbond.Weighted>
-7.8371

> <Gold.Chemscore.Metal.Weighted>
-0.0000

> <Gold.Chemscore.Lipo.Weighted>
-13.0985

> <Gold.Chemscore.Internal_Hbond.Weighted>
0.0000

> <Gold.Chemscore.DEClash.Weighted>
0.0454

> <Gold.Chemscore.DEInternal.Weighted>
2.0357

> <Gold.Chemscore.Rot.Weighted>
6.0816

> <Gold.Chemscore.Internal.Correction.Weighted>
   9.000000E+99

> <Gold.Protein.RotatedTorsions>
[ 6907 6896 6895 6894 ] final  -53.40 input  -60.11 | X-H torsion
[ 7974 7965 7964 7962 ] final  151.92 input  175.53 | X-H torsion
[ 8008 7997 7996 7995 ] final   63.12 input   59.86 | X-H torsion
[ 10167 10162 10161 10158 ] final  139.06 input  -65.29 | X-H torsion
[ 10718 10713 10712 10709 ] final  133.07 input   66.30 | X-H torsion
[ 10763 10752 10751 10750 ] final  -62.89 input  -60.55 | X-H torsion
[ 11005 11000 10999 10996 ] final   90.59 input  -57.11 | X-H torsion

> <Gold.Protein.ActiveResidues>
 VAL166  LYS551  ARG553  GLY616  TRP617  ASP618  TYR619  PRO620  LYS621  CYS622 
 ASP623  PHE694  ASN695  SER759  ASP760  ASP761  ALA762  ILE779  LEU786  VAL792 
 PHE793  MET794  SER795  GLU796  ALA797  LYS798  CYS799  TRP800  GLU811  SER814 

> <Gold.Protein.RotatedAtoms>
  150.8430  134.7729  159.6947 H   0  0  0  0  0  0  0  0  0  0  0  0  # atno 6907 bound_to 6896
  152.4513  134.5384  159.9841 H   0  0  0  0  0  0  0  0  0  0  0  0  # atno 6908 bound_to 6896
  151.5520  133.3378  159.2990 H   0  0  0  0  0  0  0  0  0  0  0  0  # atno 6909 bound_to 6896
  144.8258  139.6601  143.6080 H   0  0  0  0  0  0  0  0  0  0  0  0  # atno 7974 bound_to 7965
  155.6251  140.3496  155.4664 H   0  0  0  0  0  0  0  0  0  0  0  0  # atno 8008 bound_to 7997
  156.0048  140.1221  157.0536 H   0  0  0  0  0  0  0  0  0  0  0  0  # atno 8009 bound_to 7997
  154.4260  140.1093  156.5733 H   0  0  0  0  0  0  0  0  0  0  0  0  # atno 8010 bound_to 7997
  139.5091  144.6317  151.5800 H   0  0  0  0  0  0  0  0  0  0  0  0  # atno 10167 bound_to 10162
  157.4809  131.1086  150.9682 H   0  0  0  0  0  0  0  0  0  0  0  0  # atno 10718 bound_to 10713
  154.3068  135.6223  153.5448 H   0  0  0  0  0  0  0  0  0  0  0  0  # atno 10763 bound_to 10752
  152.9834  135.5691  154.5222 H   0  0  0  0  0  0  0  0  0  0  0  0  # atno 10764 bound_to 10752
  154.4864  135.2865  155.1507 H   0  0  0  0  0  0  0  0  0  0  0  0  # atno 10765 bound_to 10752
  139.8853  134.8623  156.3306 H   0  0  0  0  0  0  0  0  0  0  0  0  # atno 11005 bound_to 11000
  146.2563  139.6310  142.9392 LP  0  0  0  0  0  0  0  0  0  0  0  0  # atno 17320 bound_to 7965
  145.5003  141.0437  143.2544 LP  0  0  0  0  0  0  0  0  0  0  0  0  # atno 17321 bound_to 7965
  140.6052  143.9537  150.6414 LP  0  0  0  0  0  0  0  0  0  0  0  0  # atno 17342 bound_to 10162
  140.2762  143.3421  152.1193 LP  0  0  0  0  0  0  0  0  0  0  0  0  # atno 17343 bound_to 10162
  157.0415  130.5751  149.5357 LP  0  0  0  0  0  0  0  0  0  0  0  0  # atno 17370 bound_to 10713
  156.0121  130.5213  150.8022 LP  0  0  0  0  0  0  0  0  0  0  0  0  # atno 17371 bound_to 10713
  140.9725  133.7318  156.0555 LP  0  0  0  0  0  0  0  0  0  0  0  0  # atno 17394 bound_to 11000
  140.7852  134.3680  157.5478 LP  0  0  0  0  0  0  0  0  0  0  0  0  # atno 17395 bound_to 11000

$$$$
