AV-unprocessed.smi:936|AV-procd|sdf|4208|dock6
  -GOLD-   22720 2113D 1   1.00000     0.00000
 Structure written by MMmdl.
 40 41  0  0  0  0  0  0  0  0  1 V2000
  147.1483  138.7293  151.7656 C   0  0  0  0  0  0  0  0  0  0  0  0
  147.3507  138.6291  153.2846 C   0  0  0  0  0  0  0  0  0  0  0  0
  146.0305  138.5714  154.0662 C   0  0  0  0  0  0  0  0  0  0  0  0
  148.2629  139.6960  153.8027 C   0  0  0  0  0  0  0  0  0  0  0  0
  149.4269  139.4460  154.4107 N   0  0  0  0  0  0  0  0  0  0  0  0
  150.0980  140.6111  154.7941 C   0  0  0  0  0  0  0  0  0  0  0  0
  151.4221  140.5184  155.4892 C   0  0  0  0  0  0  0  0  0  0  0  0
  151.2862  140.0071  156.9331 C   0  0  0  0  0  0  0  0  0  0  0  0
  152.0869  140.7995  157.8594 N   0  0  0  0  0  0  0  0  0  0  0  0
  151.9903  142.1300  158.0246 C   0  0  0  0  0  0  0  0  0  0  0  0
  151.2054  142.8153  157.3672 O   0  0  0  0  0  0  0  0  0  0  0  0
  152.8384  142.6523  158.9470 N   0  0  0  0  0  0  0  0  0  0  0  0
  153.7570  141.8871  159.8065 C   0  0  0  0  0  0  0  0  0  0  0  0
  153.0918  141.6535  161.1732 C   0  0  0  0  0  0  0  0  0  0  0  0
  152.7726  143.2327  162.0202 S   0  0  0  0  0  0  0  0  0  0  0  0
  151.9358  144.1346  160.6785 C   0  0  0  0  0  0  0  0  0  0  0  0
  152.7426  144.0542  159.3714 C   0  0  0  0  0  0  0  0  0  0  0  0
  149.4204  141.7584  154.4656 C   0  0  0  0  0  0  0  0  0  0  0  0
  147.9131  141.4157  153.6625 S   0  0  0  0  0  0  0  0  0  0  0  0
  148.1023  138.6883  151.2391 H   0  0  0  0  0  0  0  0  0  0  0  0
  146.6568  139.6635  151.4920 H   0  0  0  0  0  0  0  0  0  0  0  0
  146.5317  137.9095  151.3964 H   0  0  0  0  0  0  0  0  0  0  0  0
  147.8558  137.6793  153.4645 H   0  0  0  0  0  0  0  0  0  0  0  0
  146.2121  138.4148  155.1299 H   0  0  0  0  0  0  0  0  0  0  0  0
  145.4008  137.7538  153.7147 H   0  0  0  0  0  0  0  0  0  0  0  0
  145.4649  139.4973  153.9574 H   0  0  0  0  0  0  0  0  0  0  0  0
  152.0851  139.8592  154.9275 H   0  0  0  0  0  0  0  0  0  0  0  0
  151.9079  141.4951  155.4934 H   0  0  0  0  0  0  0  0  0  0  0  0
  150.2450  140.0651  157.2514 H   0  0  0  0  0  0  0  0  0  0  0  0
  151.5716  138.9557  156.9953 H   0  0  0  0  0  0  0  0  0  0  0  0
  152.7615  140.3011  158.4212 H   0  0  0  0  0  0  0  0  0  0  0  0
  154.0570  140.9338  159.3717 H   0  0  0  0  0  0  0  0  0  0  0  0
  154.6886  142.4394  159.9373 H   0  0  0  0  0  0  0  0  0  0  0  0
  152.1506  141.1157  161.0533 H   0  0  0  0  0  0  0  0  0  0  0  0
  153.7317  141.0408  161.8083 H   0  0  0  0  0  0  0  0  0  0  0  0
  150.9389  143.7159  160.5364 H   0  0  0  0  0  0  0  0  0  0  0  0
  151.8060  145.1733  160.9822 H   0  0  0  0  0  0  0  0  0  0  0  0
  153.7394  144.4728  159.5171 H   0  0  0  0  0  0  0  0  0  0  0  0
  152.2770  144.6791  158.6078 H   0  0  0  0  0  0  0  0  0  0  0  0
  149.7162  142.7814  154.6467 H   0  0  0  0  0  0  0  0  0  0  0  0
  1  2  1  0  0  0  0
  1 20  1  0  0  0  0
  1 21  1  0  0  0  0
  1 22  1  0  0  0  0
  2  3  1  0  0  0  0
  2  4  1  0  0  0  0
  2 23  1  0  0  0  0
  3 24  1  0  0  0  0
  3 25  1  0  0  0  0
  3 26  1  0  0  0  0
  4 19  1  0  0  0  0
  4  5  2  0  0  0  0
  5  6  1  0  0  0  0
  6  7  1  0  0  0  0
  6 18  2  0  0  0  0
  7  8  1  0  0  0  0
  7 27  1  0  0  0  0
  7 28  1  0  0  0  0
  8  9  1  0  0  0  0
  8 29  1  0  0  0  0
  8 30  1  0  0  0  0
  9 10  1  0  0  0  0
  9 31  1  0  0  0  0
 10 11  2  0  0  0  0
 10 12  1  0  0  0  0
 12 17  1  0  0  0  0
 12 13  1  0  0  0  0
 13 14  1  0  0  0  0
 13 32  1  0  0  0  0
 13 33  1  0  0  0  0
 14 15  1  0  0  0  0
 14 34  1  0  0  0  0
 14 35  1  0  0  0  0
 15 16  1  0  0  0  0
 16 17  1  0  0  0  0
 16 36  1  0  0  0  0
 16 37  1  0  0  0  0
 17 38  1  0  0  0  0
 17 39  1  0  0  0  0
 18 19  1  0  0  0  0
 18 40  1  0  0  0  0
M  END
> <s_m_source_file>
AV-unprocessed.smi

> <i_m_source_file_index>
936

> <i_lp_mmshare_version>
43012

> <i_f3d_flags>
0

> <s_epik_input>
W0NIM11bQ0hdKFtDSDNdKWMxbmMoW2NIXXMxKVtDSDJdW0NIMl1bTkhdQyg9TylOMltDSDJdW0NIMl1TW0NIMl1bQ0gyXTI=

> <s_epik_cmdline>
J2VwaWtfcHl0aG9uJywgJy1waCcsICc3LjAnLCAnLXRuJywgJzgnLCAnLW1hJywgJzIwMCcsICctbWV0YWxfYmluZGluZycsICctaW1hZScsICc8aW5maWxlLm1hZT4nLCAnLW9tYWUnLCAnPG91dGZpbGUubWFlPic=

> <r_epik_Ionization_Penalty>
0.00156596

> <r_epik_Ionization_Penalty_Charging>
0

> <r_epik_Ionization_Penalty_Neutral>
0.00156596

> <r_epik_State_Penalty>
0.00101864

> <r_epik_Charging_Adjusted_Penalty>
0.00101864

> <i_epik_Tot_Q>
0

> <i_epik_Tot_abs_Q>
0

> <r_epik_Metal_State_Penalty>
-0

> <b_epik_Metal_Only>
0

> <s_lp_Force_Field>
OPLS_2005

> <r_lp_Energy>
11.6004

> <b_lp_Chiralities_Consistent>
1

> <s_lp_Variant>
AV-unprocessed.smi:936-1

> <Gold.Version>
5.8.1

> <Gold.Id.Protein>
6NUR|6NUR_protein|mol2

> <Gold.PLP.Fitness>
45.8935

> <Gold.PLP.PLP>
-43.8208

> <Gold.PLP.part.hbond>
0.0000

> <Gold.PLP.part.metal>
0.0000

> <Gold.PLP.part.buried>
-1.4213

> <Gold.PLP.part.nonpolar>
-41.5462

> <Gold.PLP.part.repulsive>
0.3097

> <Gold.PLP.ligand.clash>
0.0000

> <Gold.PLP.ligand.torsion>
0.5214

> <Gold.PLP.Chemscore.Hbond>
0.0000

> <Gold.PLP.Chemscore.CHOScore>
1.0000

> <Gold.PLP.Chemscore.Metal>
0.0000

> <Gold.Chemscore.Hbonds>
donor molecule, donor type, donor heavy atom, donor atom, acceptor molecule, acceptor atom, score
      L1  C    18    40       P1  8028  1.00

> <Gold.PLP.Chemscore.Internal.Correction>
0.1154

> <Gold.Rescore>
     Score         DG    S(hbond)    S(metal)    S(lipo)     H(rot)  DE(clash)    DE(int)     intcor
     13.63     -15.18       0.00        0.00     113.66       1.41       0.25       1.30       ----

> <Gold.Chemscore.Fitness>
13.6262

> <Gold.Chemscore.DG>
-15.1770

> <Gold.Chemscore.ZeroCoef>
-5.4800

> <Gold.Chemscore.Hbond>
0.0000

> <Gold.Chemscore.Metal>
0.0000

> <Gold.Chemscore.Lipo>
113.6618

> <Gold.Chemscore.Internal_Hbond>
0.0000

> <Gold.Chemscore.DEClash>
0.2489

> <Gold.Chemscore.DEInternal>
1.3019

> <Gold.Chemscore.Rot>
1.4068

> <Gold.Chemscore.Internal.Correction>
   9.000000E+99

> <Gold.Chemscore.Hbond.Weighted>
-0.0000

> <Gold.Chemscore.Metal.Weighted>
-0.0000

> <Gold.Chemscore.Lipo.Weighted>
-13.2984

> <Gold.Chemscore.Internal_Hbond.Weighted>
0.0000

> <Gold.Chemscore.DEClash.Weighted>
0.2489

> <Gold.Chemscore.DEInternal.Weighted>
1.3019

> <Gold.Chemscore.Rot.Weighted>
3.6014

> <Gold.Chemscore.Internal.Correction.Weighted>
   9.000000E+99

> <Gold.Protein.RotatedTorsions>
[ 6907 6896 6895 6894 ] final  168.12 input  -60.11 | X-H torsion
[ 7974 7965 7964 7962 ] final -151.15 input  175.53 | X-H torsion
[ 8008 7997 7996 7995 ] final -178.51 input   59.86 | X-H torsion
[ 10167 10162 10161 10158 ] final  133.46 input  -65.29 | X-H torsion
[ 10718 10713 10712 10709 ] final  160.55 input   66.30 | X-H torsion
[ 10763 10752 10751 10750 ] final  -79.05 input  -60.55 | X-H torsion
[ 11005 11000 10999 10996 ] final  -73.42 input  -57.11 | X-H torsion

> <Gold.Protein.ActiveResidues>
 VAL166  LYS551  ARG553  GLY616  TRP617  ASP618  TYR619  PRO620  LYS621  CYS622 
 ASP623  PHE694  ASN695  SER759  ASP760  ASP761  ALA762  ILE779  LEU786  VAL792 
 PHE793  MET794  SER795  GLU796  ALA797  LYS798  CYS799  TRP800  GLU811  SER814 

> <Gold.Protein.RotatedAtoms>
  151.8526  133.3442  159.3677 H   0  0  0  0  0  0  0  0  0  0  0  0  # atno 6907 bound_to 6896
  150.7202  134.5284  159.5697 H   0  0  0  0  0  0  0  0  0  0  0  0  # atno 6908 bound_to 6896
  152.2781  134.7860  160.0453 H   0  0  0  0  0  0  0  0  0  0  0  0  # atno 6909 bound_to 6896
  144.7866  140.4836  143.5802 H   0  0  0  0  0  0  0  0  0  0  0  0  # atno 7974 bound_to 7965
  156.0197  140.1258  157.0370 H   0  0  0  0  0  0  0  0  0  0  0  0  # atno 8008 bound_to 7997
  154.4307  140.1071  156.6016 H   0  0  0  0  0  0  0  0  0  0  0  0  # atno 8009 bound_to 7997
  155.5962  140.3470  155.4583 H   0  0  0  0  0  0  0  0  0  0  0  0  # atno 8010 bound_to 7997
  139.5296  144.6614  151.5000 H   0  0  0  0  0  0  0  0  0  0  0  0  # atno 10167 bound_to 10162
  157.1488  131.0559  151.2290 H   0  0  0  0  0  0  0  0  0  0  0  0  # atno 10718 bound_to 10713
  154.5337  135.5709  153.6780 H   0  0  0  0  0  0  0  0  0  0  0  0  # atno 10763 bound_to 10752
  152.9945  135.6211  154.2595 H   0  0  0  0  0  0  0  0  0  0  0  0  # atno 10764 bound_to 10752
  154.2522  135.2859  155.2791 H   0  0  0  0  0  0  0  0  0  0  0  0  # atno 10765 bound_to 10752
  141.1622  133.6877  156.7209 H   0  0  0  0  0  0  0  0  0  0  0  0  # atno 11005 bound_to 11000
  145.5905  139.1495  143.3185 LP  0  0  0  0  0  0  0  0  0  0  0  0  # atno 17320 bound_to 7965
  146.2100  140.6031  142.9063 LP  0  0  0  0  0  0  0  0  0  0  0  0  # atno 17321 bound_to 7965
  140.6464  143.8785  150.6742 LP  0  0  0  0  0  0  0  0  0  0  0  0  # atno 17342 bound_to 10162
  140.2136  143.3864  152.1699 LP  0  0  0  0  0  0  0  0  0  0  0  0  # atno 17343 bound_to 10162
  157.4239  130.7453  149.6936 LP  0  0  0  0  0  0  0  0  0  0  0  0  # atno 17370 bound_to 10713
  155.9774  130.4063  150.3713 LP  0  0  0  0  0  0  0  0  0  0  0  0  # atno 17371 bound_to 10713
  140.2817  134.8311  157.3939 LP  0  0  0  0  0  0  0  0  0  0  0  0  # atno 17394 bound_to 11000
  140.1427  134.4951  155.8019 LP  0  0  0  0  0  0  0  0  0  0  0  0  # atno 17395 bound_to 11000

$$$$
