AV-unprocessed.smi:2394|AV-procd|sdf|9490|dock6
  -GOLD-   2272013123D 1   1.00000     0.00000
 Structure written by MMmdl.
 43 44  0  0  0  0  0  0  0  0  1 V2000
  145.6390  139.1130  155.5679 C   0  0  0  0  0  0  0  0  0  0  0  0
  147.0503  139.6292  155.2392 C   0  0  0  0  0  0  0  0  0  0  0  0
  147.1129  140.9297  154.3950 C   0  0  0  0  0  0  0  0  0  0  0  0
  146.5231  140.6608  153.1363 O   0  0  0  0  0  0  0  0  0  0  0  0
  146.2852  142.0709  155.0489 C   0  0  0  0  0  0  0  0  0  0  0  0
  146.0106  143.2985  154.1632 C   0  0  0  0  0  0  0  0  0  0  0  0
  148.5863  141.3670  154.1547 C   0  0  0  0  0  0  0  0  0  0  0  0
  149.4210  141.3738  155.3473 N   0  0  0  0  0  0  0  0  0  0  0  0
  149.1919  142.0751  156.5106 C   0  0  0  0  0  0  0  0  0  0  0  0
  150.0893  141.9151  157.4451 N   0  0  0  0  0  0  0  0  0  0  0  0
  150.9988  141.0256  156.8874 C   0  0  0  0  0  0  0  0  0  0  0  0
  152.1979  140.4250  157.3513 C   0  0  0  0  0  0  0  0  0  0  0  0
  152.6784  140.6938  158.5861 N   0  0  0  0  0  0  0  0  0  0  0  0
  152.2527  141.8772  159.3285 C   0  0  0  0  0  0  0  0  0  0  0  0
  152.4552  143.1581  158.5017 C   0  0  0  0  0  0  0  0  0  0  0  0
  153.0110  141.9591  160.6597 C   0  0  0  0  0  0  0  0  0  0  0  0
  152.8451  139.5752  156.5111 N   0  0  0  0  0  0  0  0  0  0  0  0
  152.3465  139.3246  155.2964 C   0  0  0  0  0  0  0  0  0  0  0  0
  151.2383  139.8101  154.7324 N   0  0  0  0  0  0  0  0  0  0  0  0
  150.5913  140.6693  155.5713 C   0  0  0  0  0  0  0  0  0  0  0  0
  145.6930  138.2572  156.2405 H   0  0  0  0  0  0  0  0  0  0  0  0
  145.1085  138.7839  154.6746 H   0  0  0  0  0  0  0  0  0  0  0  0
  145.0359  139.8776  156.0579 H   0  0  0  0  0  0  0  0  0  0  0  0
  147.5673  139.7802  156.1870 H   0  0  0  0  0  0  0  0  0  0  0  0
  147.5963  138.8388  154.7231 H   0  0  0  0  0  0  0  0  0  0  0  0
  145.5837  140.6681  153.2365 H   0  0  0  0  0  0  0  0  0  0  0  0
  145.3288  141.6706  155.3873 H   0  0  0  0  0  0  0  0  0  0  0  0
  146.7926  142.4267  155.9459 H   0  0  0  0  0  0  0  0  0  0  0  0
  145.5089  144.0772  154.7379 H   0  0  0  0  0  0  0  0  0  0  0  0
  145.3619  143.0555  153.3220 H   0  0  0  0  0  0  0  0  0  0  0  0
  146.9329  143.7260  153.7699 H   0  0  0  0  0  0  0  0  0  0  0  0
  149.0528  140.7023  153.4263 H   0  0  0  0  0  0  0  0  0  0  0  0
  148.6300  142.3673  153.7234 H   0  0  0  0  0  0  0  0  0  0  0  0
  148.3352  142.7204  156.6409 H   0  0  0  0  0  0  0  0  0  0  0  0
  153.3996  140.1386  159.0233 H   0  0  0  0  0  0  0  0  0  0  0  0
  151.1931  141.7808  159.5689 H   0  0  0  0  0  0  0  0  0  0  0  0
  152.1336  144.0379  159.0595 H   0  0  0  0  0  0  0  0  0  0  0  0
  151.8813  143.1336  157.5753 H   0  0  0  0  0  0  0  0  0  0  0  0
  153.5041  143.2973  158.2382 H   0  0  0  0  0  0  0  0  0  0  0  0
  152.6819  142.8172  161.2462 H   0  0  0  0  0  0  0  0  0  0  0  0
  154.0855  142.0573  160.5003 H   0  0  0  0  0  0  0  0  0  0  0  0
  152.8429  141.0656  161.2619 H   0  0  0  0  0  0  0  0  0  0  0  0
  152.9162  138.6359  154.6903 H   0  0  0  0  0  0  0  0  0  0  0  0
  1  2  1  0  0  0  0
  1 21  1  0  0  0  0
  1 22  1  0  0  0  0
  1 23  1  0  0  0  0
  2  3  1  0  0  0  0
  2 24  1  0  0  0  0
  2 25  1  0  0  0  0
  3  4  1  0  0  0  0
  3  5  1  0  0  0  0
  3  7  1  0  0  0  0
  4 26  1  0  0  0  0
  5  6  1  0  0  0  0
  5 27  1  0  0  0  0
  5 28  1  0  0  0  0
  6 29  1  0  0  0  0
  6 30  1  0  0  0  0
  6 31  1  0  0  0  0
  7  8  1  0  0  0  0
  7 32  1  0  0  0  0
  7 33  1  0  0  0  0
  8 20  1  0  0  0  0
  8  9  1  0  0  0  0
  9 10  2  0  0  0  0
  9 34  1  0  0  0  0
 10 11  1  0  0  0  0
 11 20  2  0  0  0  0
 11 12  1  0  0  0  0
 12 13  1  0  0  0  0
 12 17  2  0  0  0  0
 13 14  1  0  0  0  0
 13 35  1  0  0  0  0
 14 15  1  0  0  0  0
 14 16  1  0  0  0  0
 14 36  1  0  0  0  0
 15 37  1  0  0  0  0
 15 38  1  0  0  0  0
 15 39  1  0  0  0  0
 16 40  1  0  0  0  0
 16 41  1  0  0  0  0
 16 42  1  0  0  0  0
 17 18  1  0  0  0  0
 18 19  2  0  0  0  0
 18 43  1  0  0  0  0
 19 20  1  0  0  0  0
M  END
> <s_m_source_file>
AV-unprocessed.smi

> <i_m_source_file_index>
2394

> <i_lp_mmshare_version>
43012

> <i_f3d_flags>
0

> <s_epik_input>
W0NIM11bQ0gyXUMoW09IXSkoW0NIMl1bQ0gzXSlbQ0gyXW4oW2NIXW4xKWMoYzEyKW5bY0hdbmMyW05IXVtDSF0oW0NIM10pW0NIM10=

> <s_epik_cmdline>
J2VwaWtfcHl0aG9uJywgJy1waCcsICc3LjAnLCAnLXRuJywgJzgnLCAnLW1hJywgJzIwMCcsICctbWV0YWxfYmluZGluZycsICctaW1hZScsICc8aW5maWxlLm1hZT4nLCAnLW9tYWUnLCAnPG91dGZpbGUubWFlPic=

> <r_lp_tautomer_probability>
1

> <r_epik_Ionization_Penalty>
0.0022327

> <r_epik_Ionization_Penalty_Charging>
0

> <r_epik_Ionization_Penalty_Neutral>
0.0022327

> <r_epik_State_Penalty>
-0

> <r_epik_Charging_Adjusted_Penalty>
0

> <i_epik_Tot_Q>
0

> <i_epik_Tot_abs_Q>
0

> <r_epik_Metal_State_Penalty>
-0

> <b_epik_Metal_Only>
0

> <s_lp_Force_Field>
OPLS_2005

> <r_lp_Energy>
13.0667

> <b_lp_Chiralities_Consistent>
1

> <s_lp_Variant>
AV-unprocessed.smi:2394-1

> <Gold.Version>
5.8.1

> <Gold.Id.Protein>
6NUR|6NUR_protein|mol2

> <Gold.PLP.Fitness>
46.8382

> <Gold.PLP.PLP>
-36.9405

> <Gold.PLP.part.hbond>
-3.0000

> <Gold.PLP.part.metal>
0.0000

> <Gold.PLP.part.buried>
-2.1303

> <Gold.PLP.part.nonpolar>
-31.7507

> <Gold.PLP.part.repulsive>
0.2689

> <Gold.PLP.ligand.clash>
0.0000

> <Gold.PLP.ligand.torsion>
0.3616

> <Gold.PLP.Chemscore.Hbond>
2.9913

> <Gold.PLP.Chemscore.CHOScore>
0.5162

> <Gold.PLP.Chemscore.Metal>
0.0000

> <Gold.Chemscore.Hbonds>
donor molecule, donor type, donor heavy atom, donor atom, acceptor molecule, acceptor atom, score
      L1  H     4    26       P1 10175  0.94
      P1  H  7989  7998       L1    19  1.00
      P1  H  7997  8008       L1    17  1.00
      L1  C     9    34       P1  8028  0.54

> <Gold.PLP.Chemscore.Internal.Correction>
0.0987

> <Gold.Rescore>
     Score         DG    S(hbond)    S(metal)    S(lipo)     H(rot)  DE(clash)    DE(int)     intcor
     10.41     -12.25       1.83        0.00      61.26       2.54       0.30       1.54       ----

> <Gold.Chemscore.Fitness>
10.4123

> <Gold.Chemscore.DG>
-12.2493

> <Gold.Chemscore.ZeroCoef>
-5.4800

> <Gold.Chemscore.Hbond>
1.8275

> <Gold.Chemscore.Metal>
0.0000

> <Gold.Chemscore.Lipo>
61.2595

> <Gold.Chemscore.Internal_Hbond>
0.0000

> <Gold.Chemscore.DEClash>
0.2967

> <Gold.Chemscore.DEInternal>
1.5403

> <Gold.Chemscore.Rot>
2.5398

> <Gold.Chemscore.Internal.Correction>
   9.000000E+99

> <Gold.Chemscore.Hbonds>
donor molecule, donor type, donor heavy atom, donor atom, acceptor molecule, acceptor atom, score
      L1  H     4    26       P1 10175  0.70
      P1  H  7989  7998       L1    19  0.19
      P1  H  7997  8008       L1    17  0.42

> <Gold.Chemscore.Hbond.Weighted>
-6.1039

> <Gold.Chemscore.Metal.Weighted>
-0.0000

> <Gold.Chemscore.Lipo.Weighted>
-7.1674

> <Gold.Chemscore.Internal_Hbond.Weighted>
0.0000

> <Gold.Chemscore.DEClash.Weighted>
0.2967

> <Gold.Chemscore.DEInternal.Weighted>
1.5403

> <Gold.Chemscore.Rot.Weighted>
6.5020

> <Gold.Chemscore.Internal.Correction.Weighted>
   9.000000E+99

> <Gold.Protein.RotatedTorsions>
[ 6907 6896 6895 6894 ] final -116.48 input  -60.11 | X-H torsion
[ 7974 7965 7964 7962 ] final -118.28 input  175.53 | X-H torsion
[ 8008 7997 7996 7995 ] final  -46.73 input   59.86 | X-H torsion
[ 10167 10162 10161 10158 ] final  -22.61 input  -65.29 | X-H torsion
[ 10718 10713 10712 10709 ] final   47.66 input   66.30 | X-H torsion
[ 10763 10752 10751 10750 ] final   71.06 input  -60.55 | X-H torsion
[ 11005 11000 10999 10996 ] final    4.33 input  -57.11 | X-H torsion

> <Gold.Protein.ActiveResidues>
 VAL166  LYS551  ARG553  GLY616  TRP617  ASP618  TYR619  PRO620  LYS621  CYS622 
 ASP623  PHE694  ASN695  SER759  ASP760  ASP761  ALA762  ILE779  LEU786  VAL792 
 PHE793  MET794  SER795  GLU796  ALA797  LYS798  CYS799  TRP800  GLU811  SER814 

> <Gold.Protein.RotatedAtoms>
  150.8060  133.8510  159.3205 H   0  0  0  0  0  0  0  0  0  0  0  0  # atno 6907 bound_to 6896
  151.6309  135.1021  160.0131 H   0  0  0  0  0  0  0  0  0  0  0  0  # atno 6908 bound_to 6896
  152.4150  133.6984  159.6466 H   0  0  0  0  0  0  0  0  0  0  0  0  # atno 6909 bound_to 6896
  145.0756  140.8390  143.4069 H   0  0  0  0  0  0  0  0  0  0  0  0  # atno 7974 bound_to 7965
  154.4010  140.1364  156.4060 H   0  0  0  0  0  0  0  0  0  0  0  0  # atno 8008 bound_to 7997
  155.7779  140.3482  155.5261 H   0  0  0  0  0  0  0  0  0  0  0  0  # atno 8009 bound_to 7997
  155.8703  140.0970  157.1545 H   0  0  0  0  0  0  0  0  0  0  0  0  # atno 8010 bound_to 7997
  140.7286  143.4519  151.0504 H   0  0  0  0  0  0  0  0  0  0  0  0  # atno 10167 bound_to 10162
  157.4608  130.8195  149.7884 H   0  0  0  0  0  0  0  0  0  0  0  0  # atno 10718 bound_to 10713
  153.0377  135.5150  154.7536 H   0  0  0  0  0  0  0  0  0  0  0  0  # atno 10763 bound_to 10752
  154.6499  135.2923  155.0002 H   0  0  0  0  0  0  0  0  0  0  0  0  # atno 10764 bound_to 10752
  154.0890  135.6653  153.4902 H   0  0  0  0  0  0  0  0  0  0  0  0  # atno 10765 bound_to 10752
  140.5832  133.9994  155.8056 H   0  0  0  0  0  0  0  0  0  0  0  0  # atno 11005 bound_to 11000
  145.1239  139.2675  143.5574 LP  0  0  0  0  0  0  0  0  0  0  0  0  # atno 17320 bound_to 7965
  146.3530  140.0871  142.8614 LP  0  0  0  0  0  0  0  0  0  0  0  0  # atno 17321 bound_to 7965
  139.8196  143.7838  152.3176 LP  0  0  0  0  0  0  0  0  0  0  0  0  # atno 17342 bound_to 10162
  139.7916  144.7408  150.9947 LP  0  0  0  0  0  0  0  0  0  0  0  0  # atno 17343 bound_to 10162
  156.0028  130.3871  150.2543 LP  0  0  0  0  0  0  0  0  0  0  0  0  # atno 17370 bound_to 10713
  157.0720  131.0119  151.3187 LP  0  0  0  0  0  0  0  0  0  0  0  0  # atno 17371 bound_to 10713
  141.0983  133.9809  157.3123 LP  0  0  0  0  0  0  0  0  0  0  0  0  # atno 17394 bound_to 11000
  139.9308  135.0200  156.8392 LP  0  0  0  0  0  0  0  0  0  0  0  0  # atno 17395 bound_to 11000

$$$$
