AV-unprocessed.smi:1341|AV-procd|sdf|5506|dock7
  -GOLD-   22720 5 93D 1   1.00000     0.00000
 Structure written by MMmdl.
 33 34  0  0  0  0  0  0  0  0  2 V2000
  152.5151  144.0834  158.6694 C   0  0  0  0  0  0  0  0  0  0  0  0
  153.1908  143.1206  159.3185 C   0  0  0  0  0  0  0  0  0  0  0  0
  152.5686  141.9162  159.9967 C   0  0  0  0  0  0  0  0  0  0  0  0
  152.0089  140.9328  159.0752 N   0  5  0  0  0  0  0  0  0  0  0  0
  152.7390  140.1941  158.1885 C   0  0  0  0  0  0  0  0  0  0  0  0
  153.8557  139.6838  158.3307 O   0  0  0  0  0  0  0  0  0  0  0  0
  152.0248  140.0059  156.8697 C   0  0  0  0  0  0  0  0  0  0  0  0
  150.8654  140.6854  156.6782 N   0  0  0  0  0  0  0  0  0  0  0  0
  150.1976  140.5218  155.5319 C   0  0  0  0  0  0  0  0  0  0  0  0
  149.0022  141.2339  155.3709 N   0  0  0  0  0  0  0  0  0  0  0  0
  148.2777  141.2349  154.1012 C   0  0  0  0  0  0  0  0  0  0  0  0
  147.1980  140.1373  154.1271 C   0  0  0  0  0  0  0  0  0  0  0  0
  146.3219  140.3545  155.2319 O   0  0  0  0  0  0  0  0  0  0  0  0
  147.0055  140.3502  156.4841 C   0  0  0  0  0  0  0  0  0  0  0  0
  148.0793  141.4532  156.4838 C   0  0  0  0  0  0  0  0  0  0  0  0
  150.5834  139.7250  154.5289 N   0  0  0  0  0  0  0  0  0  0  0  0
  151.7342  139.0397  154.6867 C   0  0  0  0  0  0  0  0  0  0  0  0
  152.5138  139.1395  155.8552 C   0  0  0  0  0  0  0  0  0  0  0  0
  153.9963  138.2522  155.9653 Cl  0  0  0  0  0  0  0  0  0  0  0  0
  151.4377  144.0731  158.5764 H   0  0  0  0  0  0  0  0  0  0  0  0
  153.0434  144.9079  158.2143 H   0  0  0  0  0  0  0  0  0  0  0  0
  154.2674  143.1868  159.3751 H   0  0  0  0  0  0  0  0  0  0  0  0
  153.3531  141.4643  160.6035 H   0  0  0  0  0  0  0  0  0  0  0  0
  151.8347  142.2787  160.7183 H   0  0  0  0  0  0  0  0  0  0  0  0
  147.8073  142.2099  153.9705 H   0  0  0  0  0  0  0  0  0  0  0  0
  148.9347  141.1025  153.2423 H   0  0  0  0  0  0  0  0  0  0  0  0
  146.6167  140.1585  153.2053 H   0  0  0  0  0  0  0  0  0  0  0  0
  147.6511  139.1471  154.1971 H   0  0  0  0  0  0  0  0  0  0  0  0
  146.2844  140.5256  157.2822 H   0  0  0  0  0  0  0  0  0  0  0  0
  147.4525  139.3712  156.6650 H   0  0  0  0  0  0  0  0  0  0  0  0
  148.5890  141.4962  157.4465 H   0  0  0  0  0  0  0  0  0  0  0  0
  147.6050  142.4268  156.3564 H   0  0  0  0  0  0  0  0  0  0  0  0
  152.0395  138.4069  153.8665 H   0  0  0  0  0  0  0  0  0  0  0  0
  1  2  2  0  0  0  0
  1 20  1  0  0  0  0
  1 21  1  0  0  0  0
  2  3  1  0  0  0  0
  2 22  1  0  0  0  0
  3  4  1  0  0  0  0
  3 23  1  0  0  0  0
  3 24  1  0  0  0  0
  4  5  1  0  0  0  0
  5  6  2  0  0  0  0
  5  7  1  0  0  0  0
  7 18  1  0  0  0  0
  7  8  2  0  0  0  0
  8  9  1  0  0  0  0
  9 10  1  0  0  0  0
  9 16  2  0  0  0  0
 10 15  1  0  0  0  0
 10 11  1  0  0  0  0
 11 12  1  0  0  0  0
 11 25  1  0  0  0  0
 11 26  1  0  0  0  0
 12 13  1  0  0  0  0
 12 27  1  0  0  0  0
 12 28  1  0  0  0  0
 13 14  1  0  0  0  0
 14 15  1  0  0  0  0
 14 29  1  0  0  0  0
 14 30  1  0  0  0  0
 15 31  1  0  0  0  0
 15 32  1  0  0  0  0
 16 17  1  0  0  0  0
 17 18  2  0  0  0  0
 17 33  1  0  0  0  0
 18 19  1  0  0  0  0
M  CHG  1   4  -1
M  END
> <s_m_source_file>
AV-unprocessed.smi

> <i_m_source_file_index>
1341

> <i_lp_mmshare_version>
43012

> <i_f3d_flags>
0

> <s_epik_input>
W0NIMl09W0NIXVtDSDJdW05IXUMoPU8pYzFuYyhuW2NIXWMxQ2wpTjJbQ0gyXVtDSDJdT1tDSDJdW0NIMl0y

> <s_epik_cmdline>
J2VwaWtfcHl0aG9uJywgJy1waCcsICc3LjAnLCAnLXRuJywgJzgnLCAnLW1hJywgJzIwMCcsICctbWV0YWxfYmluZGluZycsICctaW1hZScsICc8aW5maWxlLm1hZT4nLCAnLW9tYWUnLCAnPG91dGZpbGUubWFlPic=

> <r_lp_tautomer_probability>
1

> <r_epik_Ionization_Penalty>
5.99598

> <r_epik_Ionization_Penalty_Charging>
5.99596

> <r_epik_Ionization_Penalty_Neutral>
2.0749e-05

> <r_epik_State_Penalty>
5.99593

> <r_epik_Charging_Adjusted_Penalty>
11.9919

> <i_epik_Tot_Q>
-1

> <i_epik_Tot_abs_Q>
1

> <r_epik_Metal_State_Penalty>
1.94906

> <b_epik_Metal_Only>
1

> <s_lp_Force_Field>
OPLS_2005

> <r_lp_Energy>
16.4854

> <b_lp_Chiralities_Consistent>
1

> <s_lp_Variant>
AV-unprocessed.smi:1341-2

> <Gold.Version>
5.8.1

> <Gold.Id.Protein>
6NUR|6NUR_protein|mol2

> <Gold.PLP.Fitness>
36.5143

> <Gold.PLP.PLP>
-32.8359

> <Gold.PLP.part.hbond>
-2.0000

> <Gold.PLP.part.metal>
0.0000

> <Gold.PLP.part.buried>
1.2844

> <Gold.PLP.part.nonpolar>
-31.7917

> <Gold.PLP.part.repulsive>
0.2078

> <Gold.PLP.ligand.clash>
0.0000

> <Gold.PLP.ligand.torsion>
0.6602

> <Gold.PLP.Chemscore.Hbond>
1.5850

> <Gold.PLP.Chemscore.CHOScore>
0.0000

> <Gold.PLP.Chemscore.Metal>
0.0000

> <Gold.Chemscore.Hbonds>
donor molecule, donor type, donor heavy atom, donor atom, acceptor molecule, acceptor atom, score
      P1  H  7989  7998       L1    16  0.20
      P1  H  7997  8008       L1     6  1.00

> <Gold.PLP.Chemscore.Internal.Correction>
0.2438

> <Gold.Rescore>
     Score         DG    S(hbond)    S(metal)    S(lipo)     H(rot)  DE(clash)    DE(int)     intcor
     12.50     -14.70       0.83        0.00      80.38       1.15       0.27       1.93       ----

> <Gold.Chemscore.Fitness>
12.4972

> <Gold.Chemscore.DG>
-14.7035

> <Gold.Chemscore.ZeroCoef>
-5.4800

> <Gold.Chemscore.Hbond>
0.8283

> <Gold.Chemscore.Metal>
0.0000

> <Gold.Chemscore.Lipo>
80.3814

> <Gold.Chemscore.Internal_Hbond>
0.0000

> <Gold.Chemscore.DEClash>
0.2730

> <Gold.Chemscore.DEInternal>
1.9333

> <Gold.Chemscore.Rot>
1.1514

> <Gold.Chemscore.Internal.Correction>
   9.000000E+99

> <Gold.Chemscore.Hbonds>
donor molecule, donor type, donor heavy atom, donor atom, acceptor molecule, acceptor atom, score
      P1  H  7997  8008       L1     6  0.87

> <Gold.Chemscore.Hbond.Weighted>
-2.7665

> <Gold.Chemscore.Metal.Weighted>
-0.0000

> <Gold.Chemscore.Lipo.Weighted>
-9.4046

> <Gold.Chemscore.Internal_Hbond.Weighted>
0.0000

> <Gold.Chemscore.DEClash.Weighted>
0.2730

> <Gold.Chemscore.DEInternal.Weighted>
1.9333

> <Gold.Chemscore.Rot.Weighted>
2.9477

> <Gold.Chemscore.Internal.Correction.Weighted>
   9.000000E+99

> <Gold.Protein.RotatedTorsions>
[ 6907 6896 6895 6894 ] final   18.68 input  -60.11 | X-H torsion
[ 7974 7965 7964 7962 ] final  132.24 input  175.53 | X-H torsion
[ 8008 7997 7996 7995 ] final -110.79 input   59.86 | X-H torsion
[ 10167 10162 10161 10158 ] final -151.81 input  -65.29 | X-H torsion
[ 10718 10713 10712 10709 ] final  117.09 input   66.30 | X-H torsion
[ 10763 10752 10751 10750 ] final  -22.24 input  -60.55 | X-H torsion
[ 11005 11000 10999 10996 ] final   -9.31 input  -57.11 | X-H torsion

> <Gold.Protein.ActiveResidues>
 VAL166  LYS551  ARG553  GLY616  TRP617  ASP618  TYR619  PRO620  LYS621  CYS622 
 ASP623  PHE694  ASN695  SER759  ASP760  ASP761  ALA762  ILE779  LEU786  VAL792 
 PHE793  MET794  SER795  GLU796  ALA797  LYS798  CYS799  TRP800  GLU811  SER814 

> <Gold.Protein.RotatedAtoms>
  151.8690  135.0496  160.0477 H   0  0  0  0  0  0  0  0  0  0  0  0  # atno 6907 bound_to 6896
  152.2603  133.5287  159.5386 H   0  0  0  0  0  0  0  0  0  0  0  0  # atno 6908 bound_to 6896
  150.7114  134.0755  159.3922 H   0  0  0  0  0  0  0  0  0  0  0  0  # atno 6909 bound_to 6896
  144.9989  139.4331  143.5302 H   0  0  0  0  0  0  0  0  0  0  0  0  # atno 7974 bound_to 7965
  154.9799  140.0396  157.2273 H   0  0  0  0  0  0  0  0  0  0  0  0  # atno 8008 bound_to 7997
  154.7724  140.2804  155.6105 H   0  0  0  0  0  0  0  0  0  0  0  0  # atno 8009 bound_to 7997
  156.2923  140.2607  156.2529 H   0  0  0  0  0  0  0  0  0  0  0  0  # atno 8010 bound_to 7997
  139.7235  143.8920  152.2511 H   0  0  0  0  0  0  0  0  0  0  0  0  # atno 10167 bound_to 10162
  157.6119  131.1033  150.7565 H   0  0  0  0  0  0  0  0  0  0  0  0  # atno 10718 bound_to 10713
  153.6489  135.6982  153.5216 H   0  0  0  0  0  0  0  0  0  0  0  0  # atno 10763 bound_to 10752
  153.2723  135.4211  155.0999 H   0  0  0  0  0  0  0  0  0  0  0  0  # atno 10764 bound_to 10752
  154.8481  135.3581  154.6033 H   0  0  0  0  0  0  0  0  0  0  0  0  # atno 10765 bound_to 10752
  140.7327  133.8735  155.8906 H   0  0  0  0  0  0  0  0  0  0  0  0  # atno 11005 bound_to 11000
  146.3448  139.9366  142.8746 LP  0  0  0  0  0  0  0  0  0  0  0  0  # atno 17320 bound_to 7965
  145.2180  140.9923  143.4062 LP  0  0  0  0  0  0  0  0  0  0  0  0  # atno 17321 bound_to 7965
  139.8823  144.7011  150.8864 LP  0  0  0  0  0  0  0  0  0  0  0  0  # atno 17342 bound_to 10162
  140.7758  143.3652  151.1753 LP  0  0  0  0  0  0  0  0  0  0  0  0  # atno 17343 bound_to 10162
  156.7941  130.4899  149.5380 LP  0  0  0  0  0  0  0  0  0  0  0  0  # atno 17370 bound_to 10713
  156.1225  130.6120  151.0215 LP  0  0  0  0  0  0  0  0  0  0  0  0  # atno 17371 bound_to 10713
  140.9906  134.1283  157.4411 LP  0  0  0  0  0  0  0  0  0  0  0  0  # atno 17394 bound_to 11000
  139.8823  135.0039  156.6217 LP  0  0  0  0  0  0  0  0  0  0  0  0  # atno 17395 bound_to 11000

$$$$
