AV-unprocessed.smi:1261|AV-procd|sdf|5307|dock1
  -GOLD-   22720 4433D 1   1.00000     0.00000
 Structure written by MMmdl.
 50 51  0  0  0  0  0  0  0  0  2 V2000
  146.8073  131.8041  154.4872 C   0  0  0  0  0  0  0  0  0  0  0  0
  146.1362  132.8303  153.5636 C   0  0  2  0  0  0  0  0  0  0  0  0
  145.3923  132.1400  152.4067 C   0  0  0  0  0  0  0  0  0  0  0  0
  144.7635  133.1756  151.4579 C   0  0  2  0  0  0  0  0  0  0  0  0
  144.0445  132.4943  150.2850 C   0  0  0  0  0  0  0  0  0  0  0  0
  145.8418  134.1610  150.9602 C   0  0  0  0  0  0  0  0  0  0  0  0
  146.5503  134.8314  152.0818 N   0  3  1  0  0  0  0  0  0  0  0  0
  145.7471  135.8981  152.7383 C   0  0  0  0  0  0  0  0  0  0  0  0
  146.6248  137.0066  153.3433 C   0  0  0  0  0  0  0  0  0  0  0  0
  146.4149  138.3617  152.6481 C   0  0  0  0  0  0  0  0  0  0  0  0
  147.5544  139.2480  152.8495 N   0  0  0  0  0  0  0  0  0  0  0  0
  147.7374  140.0478  153.9143 C   0  0  0  0  0  0  0  0  0  0  0  0
  146.9355  140.1052  154.8458 O   0  0  0  0  0  0  0  0  0  0  0  0
  149.0063  140.9172  153.9673 C   0  0  0  0  0  0  0  0  0  0  0  0
  150.1863  140.2639  154.5568 N   0  0  0  0  0  0  0  0  0  0  0  0
  150.5803  139.1088  153.8982 N   0  0  0  0  0  0  0  0  0  0  0  0
  151.6016  138.4424  154.3194 C   0  0  0  0  0  0  0  0  0  0  0  0
  151.9584  137.3056  153.6368 O   0  0  0  0  0  0  0  0  0  0  0  0
  152.3528  138.8767  155.4765 C   0  0  0  0  0  0  0  0  0  0  0  0
  151.9630  140.0044  156.1102 C   0  0  0  0  0  0  0  0  0  0  0  0
  150.8118  140.7866  155.6563 C   0  0  0  0  0  0  0  0  0  0  0  0
  150.4433  141.8243  156.2055 O   0  0  0  0  0  0  0  0  0  0  0  0
  147.1633  133.8439  153.0124 C   0  0  0  0  0  0  0  0  0  0  0  0
  151.3541  137.2462  152.9130 H   0  0  0  0  0  0  0  0  0  0  0  0
  147.5593  131.2212  153.9543 H   0  0  0  0  0  0  0  0  0  0  0  0
  146.0758  131.1073  154.8976 H   0  0  0  0  0  0  0  0  0  0  0  0
  147.3002  132.2947  155.3270 H   0  0  0  0  0  0  0  0  0  0  0  0
  145.4026  133.3668  154.1654 H   0  0  0  0  0  0  0  0  0  0  0  0
  146.0843  131.5049  151.8512 H   0  0  0  0  0  0  0  0  0  0  0  0
  144.6185  131.4816  152.8035 H   0  0  0  0  0  0  0  0  0  0  0  0
  144.0123  133.7366  152.0155 H   0  0  0  0  0  0  0  0  0  0  0  0
  144.7375  131.9091  149.6794 H   0  0  0  0  0  0  0  0  0  0  0  0
  143.5723  133.2299  149.6332 H   0  0  0  0  0  0  0  0  0  0  0  0
  143.2635  131.8215  150.6406 H   0  0  0  0  0  0  0  0  0  0  0  0
  146.5806  133.6231  150.3641 H   0  0  0  0  0  0  0  0  0  0  0  0
  145.4052  134.9069  150.2945 H   0  0  0  0  0  0  0  0  0  0  0  0
  145.0976  136.3582  151.9925 H   0  0  0  0  0  0  0  0  0  0  0  0
  145.0861  135.4774  153.4955 H   0  0  0  0  0  0  0  0  0  0  0  0
  146.4100  137.1177  154.4055 H   0  0  0  0  0  0  0  0  0  0  0  0
  147.6748  136.7205  153.2684 H   0  0  0  0  0  0  0  0  0  0  0  0
  146.2888  138.2152  151.5752 H   0  0  0  0  0  0  0  0  0  0  0  0
  145.5016  138.8401  153.0060 H   0  0  0  0  0  0  0  0  0  0  0  0
  148.2581  139.2605  152.1249 H   0  0  0  0  0  0  0  0  0  0  0  0
  149.2312  141.2657  152.9580 H   0  0  0  0  0  0  0  0  0  0  0  0
  148.7675  141.8199  154.5325 H   0  0  0  0  0  0  0  0  0  0  0  0
  153.2040  138.3070  155.8195 H   0  0  0  0  0  0  0  0  0  0  0  0
  152.5147  140.3404  156.9758 H   0  0  0  0  0  0  0  0  0  0  0  0
  147.6759  134.3498  153.8293 H   0  0  0  0  0  0  0  0  0  0  0  0
  147.9396  133.3076  152.4646 H   0  0  0  0  0  0  0  0  0  0  0  0
  147.3209  135.3217  151.6506 H   0  0  0  0  0  0  0  0  0  0  0  0
  1  2  1  0  0  0  0
  1 25  1  0  0  0  0
  1 26  1  0  0  0  0
  1 27  1  0  0  0  0
  2 23  1  0  0  0  0
  2  3  1  0  0  0  0
  2 28  1  0  0  0  0
  3  4  1  0  0  0  0
  3 29  1  0  0  0  0
  3 30  1  0  0  0  0
  4  5  1  0  0  0  0
  4  6  1  0  0  0  0
  4 31  1  0  0  0  0
  5 32  1  0  0  0  0
  5 33  1  0  0  0  0
  5 34  1  0  0  0  0
  6  7  1  0  0  0  0
  6 35  1  0  0  0  0
  6 36  1  0  0  0  0
  7  8  1  0  0  0  0
  7 23  1  0  0  0  0
  7 50  1  0  0  0  0
  8  9  1  0  0  0  0
  8 37  1  0  0  0  0
  8 38  1  0  0  0  0
  9 10  1  0  0  0  0
  9 39  1  0  0  0  0
  9 40  1  0  0  0  0
 10 11  1  0  0  0  0
 10 41  1  0  0  0  0
 10 42  1  0  0  0  0
 11 12  1  0  0  0  0
 11 43  1  0  0  0  0
 12 13  2  0  0  0  0
 12 14  1  0  0  0  0
 14 44  1  0  0  0  0
 14 45  1  0  0  0  0
 14 15  1  0  0  0  0
 15 16  1  0  0  0  0
 15 21  1  0  0  0  0
 16 17  2  0  0  0  0
 17 18  1  0  0  0  0
 17 19  1  0  0  0  0
 18 24  1  0  0  0  0
 19 46  1  0  0  0  0
 19 20  2  0  0  0  0
 20 47  1  0  0  0  0
 20 21  1  0  0  0  0
 21 22  2  0  0  0  0
 23 48  1  0  0  0  0
 23 49  1  0  0  0  0
M  CHG  1   7   1
M  END
> <s_m_source_file>
AV-unprocessed.smi

> <i_m_source_file_index>
1261

> <i_lp_mmshare_version>
43012

> <i_f3d_flags>
0

> <s_epik_input>
W0NIM11bQ0BASF0xW0NIMl1bQ0BASF0oW0NIM10pW0NIMl1OKFtDSDJdMSlbQ0gyXVtDSDJdW0NIMl1bTkhdQyg9TylbQ0gyXW4yW25IXWMoPU8pW2NIXVtjSF1jMj1P

> <s_epik_cmdline>
J2VwaWtfcHl0aG9uJywgJy1waCcsICc3LjAnLCAnLXRuJywgJzgnLCAnLW1hJywgJzIwMCcsICctbWV0YWxfYmluZGluZycsICctaW1hZScsICc8aW5maWxlLm1hZT4nLCAnLW9tYWUnLCAnPG91dGZpbGUubWFlPic=

> <r_lp_tautomer_probability>
0.9996

> <r_epik_Ionization_Penalty>
2.1425

> <r_epik_Ionization_Penalty_Charging>
0.000312112

> <r_epik_Ionization_Penalty_Neutral>
2.14218

> <r_epik_State_Penalty>
1.71978

> <r_epik_Charging_Adjusted_Penalty>
1.72009

> <i_epik_Tot_Q>
1

> <i_epik_Tot_abs_Q>
1

> <r_epik_Metal_State_Penalty>
1.71978

> <b_epik_Metal_Only>
0

> <s_lp_Force_Field>
OPLS_2005

> <r_lp_Energy>
29.2022

> <b_lp_Chiralities_Consistent>
1

> <s_lp_Variant>
AV-unprocessed.smi:1261-7

> <Gold.Version>
5.8.1

> <Gold.Id.Protein>
6NUR|6NUR_protein|mol2

> <Gold.PLP.Fitness>
50.1092

> <Gold.PLP.PLP>
-38.3752

> <Gold.PLP.part.hbond>
-4.5985

> <Gold.PLP.part.metal>
0.0000

> <Gold.PLP.part.buried>
-1.9002

> <Gold.PLP.part.nonpolar>
-31.9472

> <Gold.PLP.part.repulsive>
0.4460

> <Gold.PLP.ligand.clash>
0.0000

> <Gold.PLP.ligand.torsion>
1.2828

> <Gold.PLP.Chemscore.Hbond>
4.6978

> <Gold.PLP.Chemscore.CHOScore>
0.0000

> <Gold.PLP.Chemscore.Metal>
0.0000

> <Gold.Chemscore.Hbonds>
donor molecule, donor type, donor heavy atom, donor atom, acceptor molecule, acceptor atom, score
      L1  H     7    50       P1  7948  1.98
      L1  H    11    43       P1  7957  1.00
      L1  H    18    24       P1  7949  0.66
      P1  H 10752 10764       L1    18  1.00

> <Gold.PLP.Chemscore.Internal.Correction>
0.2062

> <Gold.Rescore>
     Score         DG    S(hbond)    S(metal)    S(lipo)     H(rot)  DE(clash)    DE(int)     intcor
     15.73     -17.26       3.54        0.00      68.14       3.14       0.30       1.24       ----

> <Gold.Chemscore.Fitness>
15.7272

> <Gold.Chemscore.DG>
-17.2593

> <Gold.Chemscore.ZeroCoef>
-5.4800

> <Gold.Chemscore.Hbond>
3.5427

> <Gold.Chemscore.Metal>
0.0000

> <Gold.Chemscore.Lipo>
68.1416

> <Gold.Chemscore.Internal_Hbond>
0.0000

> <Gold.Chemscore.DEClash>
0.2964

> <Gold.Chemscore.DEInternal>
1.2357

> <Gold.Chemscore.Rot>
3.1352

> <Gold.Chemscore.Internal.Correction>
   9.000000E+99

> <Gold.Chemscore.Hbonds>
donor molecule, donor type, donor heavy atom, donor atom, acceptor molecule, acceptor atom, score
      L1  H     7    50       P1  7948  0.90
      L1  H    11    43       P1  7957  0.98
      L1  H    18    24       P1  7949  0.52
      P1  H 10752 10764       L1    18  0.90

> <Gold.Chemscore.Hbond.Weighted>
-11.8328

> <Gold.Chemscore.Metal.Weighted>
-0.0000

> <Gold.Chemscore.Lipo.Weighted>
-7.9726

> <Gold.Chemscore.Internal_Hbond.Weighted>
0.0000

> <Gold.Chemscore.DEClash.Weighted>
0.2964

> <Gold.Chemscore.DEInternal.Weighted>
1.2357

> <Gold.Chemscore.Rot.Weighted>
8.0260

> <Gold.Chemscore.Internal.Correction.Weighted>
   9.000000E+99

> <Gold.Protein.RotatedTorsions>
[ 6907 6896 6895 6894 ] final -109.99 input  -60.11 | X-H torsion
[ 7974 7965 7964 7962 ] final  124.44 input  175.53 | X-H torsion
[ 8008 7997 7996 7995 ] final -137.37 input   59.86 | X-H torsion
[ 10167 10162 10161 10158 ] final  -73.74 input  -65.29 | X-H torsion
[ 10718 10713 10712 10709 ] final  138.99 input   66.30 | X-H torsion
[ 10763 10752 10751 10750 ] final  -94.69 input  -60.55 | X-H torsion
[ 11005 11000 10999 10996 ] final -148.90 input  -57.11 | X-H torsion

> <Gold.Protein.ActiveResidues>
 VAL166  LYS551  ARG553  GLY616  TRP617  ASP618  TYR619  PRO620  LYS621  CYS622 
 ASP623  PHE694  ASN695  SER759  ASP760  ASP761  ALA762  ILE779  LEU786  VAL792 
 PHE793  MET794  SER795  GLU796  ALA797  LYS798  CYS799  TRP800  GLU811  SER814 

> <Gold.Protein.RotatedAtoms>
  150.7597  133.9447  159.3466 H   0  0  0  0  0  0  0  0  0  0  0  0  # atno 6907 bound_to 6896
  151.7359  135.0863  160.0317 H   0  0  0  0  0  0  0  0  0  0  0  0  # atno 6908 bound_to 6896
  152.3560  133.6200  159.6015 H   0  0  0  0  0  0  0  0  0  0  0  0  # atno 6909 bound_to 6896
  145.0843  139.3633  143.4893 H   0  0  0  0  0  0  0  0  0  0  0  0  # atno 7974 bound_to 7965
  155.4107  140.0512  157.3032 H   0  0  0  0  0  0  0  0  0  0  0  0  # atno 8008 bound_to 7997
  154.4948  140.2134  155.9431 H   0  0  0  0  0  0  0  0  0  0  0  0  # atno 8009 bound_to 7997
  156.1390  140.3158  155.8471 H   0  0  0  0  0  0  0  0  0  0  0  0  # atno 8010 bound_to 7997
  140.5085  143.2349  151.7634 H   0  0  0  0  0  0  0  0  0  0  0  0  # atno 10167 bound_to 10162
  157.4193  131.1037  151.0371 H   0  0  0  0  0  0  0  0  0  0  0  0  # atno 10718 bound_to 10713
  154.7079  135.5148  153.8622 H   0  0  0  0  0  0  0  0  0  0  0  0  # atno 10763 bound_to 10752
  153.0756  135.6615  154.0162 H   0  0  0  0  0  0  0  0  0  0  0  0  # atno 10764 bound_to 10752
  154.0009  135.3011  155.3382 H   0  0  0  0  0  0  0  0  0  0  0  0  # atno 10765 bound_to 10752
  140.7564  134.3348  157.5113 H   0  0  0  0  0  0  0  0  0  0  0  0  # atno 11005 bound_to 11000
  146.3531  140.0648  142.8627 LP  0  0  0  0  0  0  0  0  0  0  0  0  # atno 17320 bound_to 7965
  145.1140  140.9422  143.4639 LP  0  0  0  0  0  0  0  0  0  0  0  0  # atno 17321 bound_to 7965
  139.4890  144.4424  151.9749 LP  0  0  0  0  0  0  0  0  0  0  0  0  # atno 17342 bound_to 10162
  140.3515  144.3083  150.5948 LP  0  0  0  0  0  0  0  0  0  0  0  0  # atno 17343 bound_to 10162
  157.1307  130.6101  149.5528 LP  0  0  0  0  0  0  0  0  0  0  0  0  # atno 17370 bound_to 10713
  155.9875  130.4915  150.7129 LP  0  0  0  0  0  0  0  0  0  0  0  0  # atno 17371 bound_to 10713
  139.8778  134.9174  156.3178 LP  0  0  0  0  0  0  0  0  0  0  0  0  # atno 17394 bound_to 11000
  140.9704  133.7331  156.0526 LP  0  0  0  0  0  0  0  0  0  0  0  0  # atno 17395 bound_to 11000

$$$$
