AV-unprocessed.smi:1709|AV-procd|sdf|6897|dock4
  -GOLD-   22720 8103D 1   1.00000     0.00000
 Structure written by MMmdl.
 43 45  0  0  0  0  0  0  0  0  2 V2000
  150.1047  137.5973  154.2373 C   0  0  0  0  0  0  0  0  0  0  0  0
  149.4842  138.9842  154.2961 C   0  0  0  0  0  0  0  0  0  0  0  0
  150.1406  140.0015  155.0210 C   0  0  0  0  0  0  0  0  0  0  0  0
  149.5673  141.2832  155.0771 C   0  0  0  0  0  0  0  0  0  0  0  0
  148.3532  141.4939  154.4023 C   0  0  0  0  0  0  0  0  0  0  0  0
  147.7195  140.5274  153.7072 N   0  0  0  0  0  0  0  0  0  0  0  0
  148.2619  139.2842  153.6364 C   0  0  0  0  0  0  0  0  0  0  0  0
  147.6435  138.1997  152.9414 N   0  0  0  0  0  0  0  0  0  0  0  0
  146.3495  137.8284  152.8454 C   0  0  0  0  0  0  0  0  0  0  0  0
  145.4606  138.4556  153.4188 O   0  0  0  0  0  0  0  0  0  0  0  0
  146.1020  136.7399  152.0989 N   0  0  0  0  0  0  0  0  0  0  0  0
  144.7784  136.1903  151.8262 C   0  0  2  0  0  0  0  0  0  0  0  0
  144.0532  135.7151  153.0783 C   0  0  0  0  0  0  0  0  0  0  0  0
  142.9779  134.7790  152.5177 C   0  0  0  0  0  0  0  0  0  0  0  0
  143.4975  134.2486  151.2328 N   0  3  2  0  0  0  0  0  0  0  0  0
  143.5378  132.7632  151.1643 C   0  0  0  0  0  0  0  0  0  0  0  0
  144.4294  132.2905  150.0067 C   0  0  0  0  0  0  0  0  0  0  0  0
  145.8875  132.7508  150.1933 C   0  0  0  0  0  0  0  0  0  0  0  0
  146.0020  133.9965  151.0933 C   0  0  0  0  0  0  0  0  0  0  0  0
  144.7834  134.9386  150.9286 C   0  0  2  0  0  0  0  0  0  0  0  0
  151.0408  137.5566  154.7949 H   0  0  0  0  0  0  0  0  0  0  0  0
  150.3174  137.3180  153.2049 H   0  0  0  0  0  0  0  0  0  0  0  0
  149.4280  136.8570  154.6647 H   0  0  0  0  0  0  0  0  0  0  0  0
  151.0725  139.8047  155.5305 H   0  0  0  0  0  0  0  0  0  0  0  0
  150.0449  142.0824  155.6245 H   0  0  0  0  0  0  0  0  0  0  0  0
  147.8763  142.4627  154.4210 H   0  0  0  0  0  0  0  0  0  0  0  0
  148.2949  137.5627  152.5063 H   0  0  0  0  0  0  0  0  0  0  0  0
  146.8897  136.2805  151.6636 H   0  0  0  0  0  0  0  0  0  0  0  0
  144.1602  136.9590  151.3570 H   0  0  0  0  0  0  0  0  0  0  0  0
  144.7336  135.1541  153.7209 H   0  0  0  0  0  0  0  0  0  0  0  0
  143.6350  136.5339  153.6643 H   0  0  0  0  0  0  0  0  0  0  0  0
  142.7145  133.9978  153.2319 H   0  0  0  0  0  0  0  0  0  0  0  0
  142.0687  135.3414  152.3030 H   0  0  0  0  0  0  0  0  0  0  0  0
  143.9200  132.3527  152.1007 H   0  0  0  0  0  0  0  0  0  0  0  0
  142.5217  132.3860  151.0459 H   0  0  0  0  0  0  0  0  0  0  0  0
  144.3910  131.2049  149.9112 H   0  0  0  0  0  0  0  0  0  0  0  0
  144.0367  132.6924  149.0715 H   0  0  0  0  0  0  0  0  0  0  0  0
  146.4829  131.9459  150.6259 H   0  0  0  0  0  0  0  0  0  0  0  0
  146.3219  132.9556  149.2141 H   0  0  0  0  0  0  0  0  0  0  0  0
  146.0769  133.6832  152.1357 H   0  0  0  0  0  0  0  0  0  0  0  0
  146.9351  134.5125  150.8657 H   0  0  0  0  0  0  0  0  0  0  0  0
  144.7551  135.2569  149.8854 H   0  0  0  0  0  0  0  0  0  0  0  0
  142.8502  134.5521  150.5193 H   0  0  0  0  0  0  0  0  0  0  0  0
  1  2  1  0  0  0  0
  1 21  1  0  0  0  0
  1 22  1  0  0  0  0
  1 23  1  0  0  0  0
  2  7  1  0  0  0  0
  2  3  2  0  0  0  0
  3  4  1  0  0  0  0
  3 24  1  0  0  0  0
  4  5  2  0  0  0  0
  4 25  1  0  0  0  0
  5  6  1  0  0  0  0
  5 26  1  0  0  0  0
  6  7  2  0  0  0  0
  7  8  1  0  0  0  0
  8  9  1  0  0  0  0
  8 27  1  0  0  0  0
  9 10  2  0  0  0  0
  9 11  1  0  0  0  0
 11 12  1  0  0  0  0
 11 28  1  0  0  0  0
 12 20  1  0  0  0  0
 12 13  1  0  0  0  0
 12 29  1  0  0  0  0
 13 14  1  0  0  0  0
 13 30  1  0  0  0  0
 13 31  1  0  0  0  0
 14 15  1  0  0  0  0
 14 32  1  0  0  0  0
 14 33  1  0  0  0  0
 15 20  1  0  0  0  0
 15 16  1  0  0  0  0
 15 43  1  0  0  0  0
 16 17  1  0  0  0  0
 16 34  1  0  0  0  0
 16 35  1  0  0  0  0
 17 18  1  0  0  0  0
 17 36  1  0  0  0  0
 17 37  1  0  0  0  0
 18 19  1  0  0  0  0
 18 38  1  0  0  0  0
 18 39  1  0  0  0  0
 19 20  1  0  0  0  0
 19 40  1  0  0  0  0
 19 41  1  0  0  0  0
 20 42  1  0  0  0  0
M  CHG  1  15   1
M  END
> <s_m_source_file>
AV-unprocessed.smi

> <i_m_source_file_index>
1709

> <i_lp_mmshare_version>
43012

> <i_f3d_flags>
0

> <s_epik_input>
W0NIM11jMVtjSF1bY0hdW2NIXW5jMVtOSF1DKD1PKVtOSF1bQ0BIXShbQ0gyXVtDSDJdMilbQ0BASF0oTjIzKVtDSDJdW0NIMl1bQ0gyXVtDSDJdMw==

> <s_epik_cmdline>
J2VwaWtfcHl0aG9uJywgJy1waCcsICc3LjAnLCAnLXRuJywgJzgnLCAnLW1hJywgJzIwMCcsICctbWV0YWxfYmluZGluZycsICctaW1hZScsICc8aW5maWxlLm1hZT4nLCAnLW9tYWUnLCAnPG91dGZpbGUubWFlPic=

> <r_epik_Ionization_Penalty>
0.00101524

> <r_epik_Ionization_Penalty_Charging>
0.000974069

> <r_epik_Ionization_Penalty_Neutral>
4.11757e-05

> <r_epik_State_Penalty>
0.000633842

> <r_epik_Charging_Adjusted_Penalty>
0.00160791

> <i_epik_Tot_Q>
1

> <i_epik_Tot_abs_Q>
1

> <r_epik_Metal_State_Penalty>
-0

> <b_epik_Metal_Only>
0

> <s_lp_Force_Field>
OPLS_2005

> <r_lp_Energy>
45.6111

> <b_lp_Chiralities_Consistent>
1

> <s_lp_Variant>
AV-unprocessed.smi:1709-7

> <Gold.Version>
5.8.1

> <Gold.Id.Protein>
6NUR|6NUR_protein|mol2

> <Gold.PLP.Fitness>
46.9417

> <Gold.PLP.PLP>
-35.2442

> <Gold.PLP.part.hbond>
-3.2125

> <Gold.PLP.part.metal>
0.0000

> <Gold.PLP.part.buried>
-3.5497

> <Gold.PLP.part.nonpolar>
-32.5392

> <Gold.PLP.part.repulsive>
2.0290

> <Gold.PLP.ligand.clash>
0.0000

> <Gold.PLP.ligand.torsion>
0.3134

> <Gold.PLP.Chemscore.Hbond>
3.6143

> <Gold.PLP.Chemscore.CHOScore>
0.4929

> <Gold.PLP.Chemscore.Metal>
0.0000

> <Gold.Chemscore.Hbonds>
donor molecule, donor type, donor heavy atom, donor atom, acceptor molecule, acceptor atom, score
      L1  H     8    27       P1  7948  1.00
      L1  H    11    28       P1  7948  0.78
      L1  H    15    43       P1 10186  1.79
      L1  C     5    26       P1  8028  0.46

> <Gold.PLP.Chemscore.Internal.Correction>
0.0028

> <Gold.Rescore>
     Score         DG    S(hbond)    S(metal)    S(lipo)     H(rot)  DE(clash)    DE(int)     intcor
     19.44     -20.81       2.37        0.00      85.18       1.00       1.00       0.37       ----

> <Gold.Chemscore.Fitness>
19.4419

> <Gold.Chemscore.DG>
-20.8083

> <Gold.Chemscore.ZeroCoef>
-5.4800

> <Gold.Chemscore.Hbond>
2.3719

> <Gold.Chemscore.Metal>
0.0000

> <Gold.Chemscore.Lipo>
85.1799

> <Gold.Chemscore.Internal_Hbond>
0.0000

> <Gold.Chemscore.DEClash>
0.9977

> <Gold.Chemscore.DEInternal>
0.3687

> <Gold.Chemscore.Rot>
1.0000

> <Gold.Chemscore.Internal.Correction>
   9.000000E+99

> <Gold.Chemscore.Hbonds>
donor molecule, donor type, donor heavy atom, donor atom, acceptor molecule, acceptor atom, score
      L1  H     8    27       P1  7948  0.99
      L1  H    11    28       P1  7948  0.73
      L1  H    15    43       P1 10186  0.37

> <Gold.Chemscore.Hbond.Weighted>
-7.9223

> <Gold.Chemscore.Metal.Weighted>
-0.0000

> <Gold.Chemscore.Lipo.Weighted>
-9.9661

> <Gold.Chemscore.Internal_Hbond.Weighted>
0.0000

> <Gold.Chemscore.DEClash.Weighted>
0.9977

> <Gold.Chemscore.DEInternal.Weighted>
0.3687

> <Gold.Chemscore.Rot.Weighted>
2.5600

> <Gold.Chemscore.Internal.Correction.Weighted>
   9.000000E+99

> <Gold.Protein.RotatedTorsions>
[ 6907 6896 6895 6894 ] final -178.85 input  -60.11 | X-H torsion
[ 7974 7965 7964 7962 ] final  106.83 input  175.53 | X-H torsion
[ 8008 7997 7996 7995 ] final  130.16 input   59.86 | X-H torsion
[ 10167 10162 10161 10158 ] final   63.20 input  -65.29 | X-H torsion
[ 10718 10713 10712 10709 ] final   12.95 input   66.30 | X-H torsion
[ 10763 10752 10751 10750 ] final  158.55 input  -60.55 | X-H torsion
[ 11005 11000 10999 10996 ] final  110.10 input  -57.11 | X-H torsion

> <Gold.Protein.ActiveResidues>
 VAL166  LYS551  ARG553  GLY616  TRP617  ASP618  TYR619  PRO620  LYS621  CYS622 
 ASP623  PHE694  ASN695  SER759  ASP760  ASP761  ALA762  ILE779  LEU786  VAL792 
 PHE793  MET794  SER795  GLU796  ALA797  LYS798  CYS799  TRP800  GLU811  SER814 

> <Gold.Protein.RotatedAtoms>
  151.6439  133.3324  159.3136 H   0  0  0  0  0  0  0  0  0  0  0  0  # atno 6907 bound_to 6896
  150.7994  134.7081  159.6597 H   0  0  0  0  0  0  0  0  0  0  0  0  # atno 6908 bound_to 6896
  152.4085  134.6170  160.0092 H   0  0  0  0  0  0  0  0  0  0  0  0  # atno 6909 bound_to 6896
  145.3015  139.2568  143.3811 H   0  0  0  0  0  0  0  0  0  0  0  0  # atno 7974 bound_to 7965
  156.2949  140.2603  156.2716 H   0  0  0  0  0  0  0  0  0  0  0  0  # atno 8008 bound_to 7997
  154.9689  140.0391  157.2244 H   0  0  0  0  0  0  0  0  0  0  0  0  # atno 8009 bound_to 7997
  154.7877  140.2806  155.6020 H   0  0  0  0  0  0  0  0  0  0  0  0  # atno 8010 bound_to 7997
  140.1357  144.4601  150.6839 H   0  0  0  0  0  0  0  0  0  0  0  0  # atno 10167 bound_to 10162
  157.0176  130.6142  149.5716 H   0  0  0  0  0  0  0  0  0  0  0  0  # atno 10718 bound_to 10713
  154.2178  135.2783  155.2936 H   0  0  0  0  0  0  0  0  0  0  0  0  # atno 10763 bound_to 10752
  154.5727  135.5613  153.7113 H   0  0  0  0  0  0  0  0  0  0  0  0  # atno 10764 bound_to 10752
  153.0049  135.6325  154.2317 H   0  0  0  0  0  0  0  0  0  0  0  0  # atno 10765 bound_to 10752
  139.8875  134.9475  156.6227 H   0  0  0  0  0  0  0  0  0  0  0  0  # atno 11005 bound_to 11000
  146.3150  140.3530  142.8658 LP  0  0  0  0  0  0  0  0  0  0  0  0  # atno 17320 bound_to 7965
  144.9089  140.7734  143.5820 LP  0  0  0  0  0  0  0  0  0  0  0  0  # atno 17321 bound_to 7965
  140.6791  143.2318  151.5432 LP  0  0  0  0  0  0  0  0  0  0  0  0  # atno 17342 bound_to 10162
  139.5497  144.2427  152.1508 LP  0  0  0  0  0  0  0  0  0  0  0  0  # atno 17343 bound_to 10162
  156.0113  130.5205  150.7998 LP  0  0  0  0  0  0  0  0  0  0  0  0  # atno 17370 bound_to 10713
  157.5274  131.0935  151.0000 LP  0  0  0  0  0  0  0  0  0  0  0  0  # atno 17371 bound_to 10713
  140.7726  133.8725  155.8504 LP  0  0  0  0  0  0  0  0  0  0  0  0  # atno 17394 bound_to 11000
  140.9829  134.1382  157.4478 LP  0  0  0  0  0  0  0  0  0  0  0  0  # atno 17395 bound_to 11000

$$$$
