AV-unprocessed.smi:1897|AV-procd|sdf|7697|dock4
  -GOLD-   22720 9433D 1   1.00000     0.00000
 Structure written by MMmdl.
 38 40  0  0  0  0  0  0  0  0  3 V2000
  145.5024  136.6550  162.1673 C   0  0  0  0  0  0  0  0  0  0  0  0
  146.5723  136.6632  161.1299 C   0  0  0  0  0  0  0  0  0  0  0  0
  146.7278  137.6647  160.2611 N   0  0  0  0  0  0  0  0  0  0  0  0
  147.7846  137.4424  159.3905 N   0  0  0  0  0  0  0  0  0  0  0  0
  148.4214  136.2856  159.6209 C   0  0  0  0  0  0  0  0  0  0  0  0
  149.4781  135.8847  158.8896 N   0  5  0  0  0  0  0  0  0  0  0  0
  149.3626  135.4736  157.6000 C   0  0  0  0  0  0  0  0  0  0  0  0
  149.8784  134.4435  157.1683 O   0  0  0  0  0  0  0  0  0  0  0  0
  148.6439  136.2413  156.7599 N   0  0  0  0  0  0  0  0  0  0  0  0
  148.4076  135.9719  155.3473 C   0  0  1  0  0  0  0  0  0  0  0  0
  147.6390  134.6633  155.0816 C   0  0  0  0  0  0  0  0  0  0  0  0
  146.6678  134.9880  153.9299 C   0  0  0  0  0  0  0  0  0  0  0  0
  147.0014  136.3644  153.5169 N   0  3  1  0  0  0  0  0  0  0  0  0
  145.9460  137.1391  152.8292 C   0  0  0  0  0  0  0  0  0  0  0  0
  146.5130  138.5115  152.4128 C   0  0  0  0  0  0  0  0  0  0  0  0
  147.1453  139.2568  153.6067 C   0  0  0  0  0  0  0  0  0  0  0  0
  148.1666  138.3666  154.3411 C   0  0  0  0  0  0  0  0  0  0  0  0
  147.5041  137.0338  154.7251 C   0  0  2  0  0  0  0  0  0  0  0  0
  147.7344  135.3590  160.9546 S   0  0  0  0  0  0  0  0  0  0  0  0
  145.8100  137.2540  163.0245 H   0  0  0  0  0  0  0  0  0  0  0  0
  145.3083  135.6360  162.5023 H   0  0  0  0  0  0  0  0  0  0  0  0
  144.5790  137.0692  161.7616 H   0  0  0  0  0  0  0  0  0  0  0  0
  148.2277  137.0782  157.1414 H   0  0  0  0  0  0  0  0  0  0  0  0
  149.3558  135.9510  154.8060 H   0  0  0  0  0  0  0  0  0  0  0  0
  148.3242  133.8563  154.8200 H   0  0  0  0  0  0  0  0  0  0  0  0
  147.0780  134.3437  155.9611 H   0  0  0  0  0  0  0  0  0  0  0  0
  146.7669  134.2961  153.0933 H   0  0  0  0  0  0  0  0  0  0  0  0
  145.6378  134.9440  154.2870 H   0  0  0  0  0  0  0  0  0  0  0  0
  145.6022  136.5911  151.9514 H   0  0  0  0  0  0  0  0  0  0  0  0
  145.0866  137.2649  153.4899 H   0  0  0  0  0  0  0  0  0  0  0  0
  147.2687  138.3685  151.6391 H   0  0  0  0  0  0  0  0  0  0  0  0
  145.7272  139.1209  151.9654 H   0  0  0  0  0  0  0  0  0  0  0  0
  147.6239  140.1751  153.2654 H   0  0  0  0  0  0  0  0  0  0  0  0
  146.3607  139.5576  154.3024 H   0  0  0  0  0  0  0  0  0  0  0  0
  149.0305  138.1869  153.6998 H   0  0  0  0  0  0  0  0  0  0  0  0
  148.5376  138.8749  155.2318 H   0  0  0  0  0  0  0  0  0  0  0  0
  146.6603  137.2252  155.3930 H   0  0  0  0  0  0  0  0  0  0  0  0
  147.7857  136.2922  152.8846 H   0  0  0  0  0  0  0  0  0  0  0  0
  1  2  1  0  0  0  0
  1 20  1  0  0  0  0
  1 21  1  0  0  0  0
  1 22  1  0  0  0  0
  2 19  1  0  0  0  0
  2  3  2  0  0  0  0
  3  4  1  0  0  0  0
  4  5  2  0  0  0  0
  5  6  1  0  0  0  0
  5 19  1  0  0  0  0
  6  7  1  0  0  0  0
  7  8  2  0  0  0  0
  7  9  1  0  0  0  0
  9 10  1  0  0  0  0
  9 23  1  0  0  0  0
 10 18  1  0  0  0  0
 10 11  1  0  0  0  0
 10 24  1  0  0  0  0
 11 12  1  0  0  0  0
 11 25  1  0  0  0  0
 11 26  1  0  0  0  0
 12 13  1  0  0  0  0
 12 27  1  0  0  0  0
 12 28  1  0  0  0  0
 13 18  1  0  0  0  0
 13 14  1  0  0  0  0
 13 38  1  0  0  0  0
 14 15  1  0  0  0  0
 14 29  1  0  0  0  0
 14 30  1  0  0  0  0
 15 16  1  0  0  0  0
 15 31  1  0  0  0  0
 15 32  1  0  0  0  0
 16 17  1  0  0  0  0
 16 33  1  0  0  0  0
 16 34  1  0  0  0  0
 17 18  1  0  0  0  0
 17 35  1  0  0  0  0
 17 36  1  0  0  0  0
 18 37  1  0  0  0  0
M  CHG  1   6  -1
M  CHG  1  13   1
M  END
> <s_m_source_file>
AV-unprocessed.smi

> <i_m_source_file_index>
1897

> <i_lp_mmshare_version>
43012

> <i_f3d_flags>
0

> <s_epik_input>
W0NIM11jMW5uYyhzMSlbTkhdQyg9TylbTkhdW0NASF0oW0NIMl1bQ0gyXTIpW0NAQEhdKE4yMylbQ0gyXVtDSDJdW0NIMl1bQ0gyXTM=

> <s_epik_cmdline>
J2VwaWtfcHl0aG9uJywgJy1waCcsICc3LjAnLCAnLXRuJywgJzgnLCAnLW1hJywgJzIwMCcsICctbWV0YWxfYmluZGluZycsICctaW1hZScsICc8aW5maWxlLm1hZT4nLCAnLW9tYWUnLCAnPG91dGZpbGUubWFlPic=

> <r_lp_tautomer_probability>
1

> <r_epik_Ionization_Penalty>
3.77712

> <r_epik_Ionization_Penalty_Charging>
3.67739

> <r_epik_Ionization_Penalty_Neutral>
0.0997294

> <r_epik_State_Penalty>
3.67514

> <r_epik_Charging_Adjusted_Penalty>
7.35254

> <i_epik_Tot_Q>
0

> <i_epik_Tot_abs_Q>
2

> <r_epik_Metal_State_Penalty>
0.540795

> <b_epik_Metal_Only>
1

> <s_lp_Force_Field>
OPLS_2005

> <r_lp_Energy>
28.3621

> <b_lp_Chiralities_Consistent>
1

> <s_lp_Variant>
AV-unprocessed.smi:1897-14

> <Gold.Version>
5.8.1

> <Gold.Id.Protein>
6NUR|6NUR_protein|mol2

> <Gold.PLP.Fitness>
34.1881

> <Gold.PLP.PLP>
-21.3517

> <Gold.PLP.part.hbond>
-4.6021

> <Gold.PLP.part.metal>
0.0000

> <Gold.PLP.part.buried>
-3.2333

> <Gold.PLP.part.nonpolar>
-14.7305

> <Gold.PLP.part.repulsive>
0.0104

> <Gold.PLP.ligand.clash>
0.0000

> <Gold.PLP.ligand.torsion>
1.0877

> <Gold.PLP.Chemscore.Hbond>
5.0000

> <Gold.PLP.Chemscore.CHOScore>
0.0000

> <Gold.PLP.Chemscore.Metal>
0.0000

> <Gold.Chemscore.Hbonds>
donor molecule, donor type, donor heavy atom, donor atom, acceptor molecule, acceptor atom, score
      L1  H    13    38       P1  7948  2.00
      P1  H  6896  6907       L1     6  2.00
      P1  H  6934  6947       L1     3  1.00

> <Gold.PLP.Chemscore.Internal.Correction>
0.0118

> <Gold.Rescore>
     Score         DG    S(hbond)    S(metal)    S(lipo)     H(rot)  DE(clash)    DE(int)     intcor
     17.01     -18.08       2.81        0.00      49.45       1.00       0.01       1.06       ----

> <Gold.Chemscore.Fitness>
17.0101

> <Gold.Chemscore.DG>
-18.0810

> <Gold.Chemscore.ZeroCoef>
-5.4800

> <Gold.Chemscore.Hbond>
2.8070

> <Gold.Chemscore.Metal>
0.0000

> <Gold.Chemscore.Lipo>
49.4498

> <Gold.Chemscore.Internal_Hbond>
0.0000

> <Gold.Chemscore.DEClash>
0.0063

> <Gold.Chemscore.DEInternal>
1.0646

> <Gold.Chemscore.Rot>
1.0000

> <Gold.Chemscore.Internal.Correction>
   9.000000E+99

> <Gold.Chemscore.Hbonds>
donor molecule, donor type, donor heavy atom, donor atom, acceptor molecule, acceptor atom, score
      L1  H    13    38       P1  7948  0.95
      P1  H  6896  6907       L1     6  0.59
      P1  H  6934  6947       L1     3  0.26

> <Gold.Chemscore.Hbond.Weighted>
-9.3753

> <Gold.Chemscore.Metal.Weighted>
-0.0000

> <Gold.Chemscore.Lipo.Weighted>
-5.7856

> <Gold.Chemscore.Internal_Hbond.Weighted>
0.0000

> <Gold.Chemscore.DEClash.Weighted>
0.0063

> <Gold.Chemscore.DEInternal.Weighted>
1.0646

> <Gold.Chemscore.Rot.Weighted>
2.5600

> <Gold.Chemscore.Internal.Correction.Weighted>
   9.000000E+99

> <Gold.Protein.RotatedTorsions>
[ 6907 6896 6895 6894 ] final  -52.09 input  -60.11 | X-H torsion
[ 7974 7965 7964 7962 ] final  161.89 input  175.53 | X-H torsion
[ 8008 7997 7996 7995 ] final -148.18 input   59.86 | X-H torsion
[ 10167 10162 10161 10158 ] final   90.65 input  -65.29 | X-H torsion
[ 10718 10713 10712 10709 ] final -127.67 input   66.30 | X-H torsion
[ 10763 10752 10751 10750 ] final   77.99 input  -60.55 | X-H torsion
[ 11005 11000 10999 10996 ] final   52.26 input  -57.11 | X-H torsion

> <Gold.Protein.ActiveResidues>
 VAL166  LYS551  ARG553  GLY616  TRP617  ASP618  TYR619  PRO620  LYS621  CYS622 
 ASP623  PHE694  ASN695  SER759  ASP760  ASP761  ALA762  ILE779  LEU786  VAL792 
 PHE793  MET794  SER795  GLU796  ALA797  LYS798  CYS799  TRP800  GLU811  SER814 

> <Gold.Protein.RotatedAtoms>
  150.8550  134.7886  159.7037 H   0  0  0  0  0  0  0  0  0  0  0  0  # atno 6907 bound_to 6896
  152.4604  134.5194  159.9788 H   0  0  0  0  0  0  0  0  0  0  0  0  # atno 6908 bound_to 6896
  151.5308  133.3411  159.2953 H   0  0  0  0  0  0  0  0  0  0  0  0  # atno 6909 bound_to 6896
  144.7663  139.7962  143.6314 H   0  0  0  0  0  0  0  0  0  0  0  0  # atno 7974 bound_to 7965
  155.5875  140.0649  157.2767 H   0  0  0  0  0  0  0  0  0  0  0  0  # atno 8008 bound_to 7997
  154.4314  140.1841  156.1087 H   0  0  0  0  0  0  0  0  0  0  0  0  # atno 8009 bound_to 7997
  156.0258  140.3312  155.7090 H   0  0  0  0  0  0  0  0  0  0  0  0  # atno 8010 bound_to 7997
  139.8452  144.6621  150.9235 H   0  0  0  0  0  0  0  0  0  0  0  0  # atno 10167 bound_to 10162
  156.1879  130.6775  151.0387 H   0  0  0  0  0  0  0  0  0  0  0  0  # atno 10718 bound_to 10713
  153.0840  135.4893  154.8560 H   0  0  0  0  0  0  0  0  0  0  0  0  # atno 10763 bound_to 10752
  154.7187  135.3035  154.9084 H   0  0  0  0  0  0  0  0  0  0  0  0  # atno 10764 bound_to 10752
  153.9755  135.6796  153.4801 H   0  0  0  0  0  0  0  0  0  0  0  0  # atno 10765 bound_to 10752
  140.0864  134.5269  155.8895 H   0  0  0  0  0  0  0  0  0  0  0  0  # atno 11005 bound_to 11000
  146.1774  139.4950  142.9889 LP  0  0  0  0  0  0  0  0  0  0  0  0  # atno 17320 bound_to 7965
  145.6459  141.0274  143.1786 LP  0  0  0  0  0  0  0  0  0  0  0  0  # atno 17321 bound_to 7965
  140.7794  143.3876  151.1366 LP  0  0  0  0  0  0  0  0  0  0  0  0  # atno 17342 bound_to 10162
  139.7519  143.8766  152.3079 LP  0  0  0  0  0  0  0  0  0  0  0  0  # atno 17343 bound_to 10162
  157.6910  131.0810  150.7106 LP  0  0  0  0  0  0  0  0  0  0  0  0  # atno 17370 bound_to 10713
  156.7163  130.4667  149.5534 LP  0  0  0  0  0  0  0  0  0  0  0  0  # atno 17371 bound_to 10713
  141.2064  133.6655  156.6238 LP  0  0  0  0  0  0  0  0  0  0  0  0  # atno 17394 bound_to 11000
  140.3414  134.7845  157.4401 LP  0  0  0  0  0  0  0  0  0  0  0  0  # atno 17395 bound_to 11000

$$$$
