AV-unprocessed.smi:276|AV-procd|sdf|2074|dock9
  -GOLD-   2262021333D 1   1.00000     0.00000
 Structure written by MMmdl.
 57 61  0  0  0  0  0  0  0  0  1 V2000
  146.0086  133.4840  151.0892 C   0  0  0  0  0  0  0  0  0  0  0  0
  146.5231  132.6457  152.1086 O   0  0  0  0  0  0  0  0  0  0  0  0
  147.4669  133.3080  152.9353 C   0  0  2  0  0  0  0  0  0  0  0  0
  147.9781  132.4725  154.1161 C   0  0  0  0  0  0  0  0  0  0  0  0
  147.8859  133.7374  154.9930 C   0  0  1  0  0  0  0  0  0  0  0  0
  149.1617  134.4678  155.0196 N   0  0  0  0  0  0  0  0  0  0  0  0
  150.2782  133.7803  155.6606 C   0  0  0  0  0  0  0  0  0  0  0  0
  149.0940  135.7378  155.4749 C   0  0  0  0  0  0  0  0  0  0  0  0
  147.9572  136.1031  156.1179 N   0  0  0  0  0  0  0  0  0  0  0  0
  147.8325  137.3432  156.5999 C   0  0  0  0  0  0  0  0  0  0  0  0
  148.7019  138.3542  156.5397 N   0  0  0  0  0  0  0  0  0  0  0  0
  149.8378  137.9936  155.8765 C   0  0  0  0  0  0  0  0  0  0  0  0
  150.1161  136.7164  155.3145 C   0  0  0  0  0  0  0  0  0  0  0  0
  151.3702  136.7255  154.7155 N   0  0  0  0  0  0  0  0  0  0  0  0
  151.8078  137.9391  154.9112 C   0  0  0  0  0  0  0  0  0  0  0  0
  150.9467  138.7700  155.5914 N   0  0  0  0  0  0  0  0  0  0  0  0
  151.1703  140.1631  155.9328 C   0  0  0  0  0  0  0  0  0  0  0  0
  151.4749  140.3851  157.4306 C   0  0  1  0  0  0  0  0  0  0  0  0
  152.5739  139.5579  157.7564 O   0  0  0  0  0  0  0  0  0  0  0  0
  151.8119  141.8442  157.8155 C   0  0  2  0  0  0  0  0  0  0  0  0
  152.2023  142.0272  159.2861 C   0  0  0  0  0  0  0  0  0  0  0  0
  151.8320  143.4699  159.5378 C   0  0  0  0  0  0  0  0  0  0  0  0
  150.5375  143.5888  158.7449 C   0  0  0  0  0  0  0  0  0  0  0  0
  150.6829  142.7019  157.6409 O   0  0  0  0  0  0  0  0  0  0  0  0
  146.8340  134.2530  153.9727 C   0  0  0  0  0  0  0  0  0  0  0  0
  145.3348  134.1304  154.3043 C   0  0  0  0  0  0  0  0  0  0  0  0
  145.0905  135.3417  153.4002 C   0  0  0  0  0  0  0  0  0  0  0  0
  146.5512  135.7303  153.6397 C   0  0  0  0  0  0  0  0  0  0  0  0
  145.2832  132.9307  150.4933 H   0  0  0  0  0  0  0  0  0  0  0  0
  146.7991  133.8282  150.4214 H   0  0  0  0  0  0  0  0  0  0  0  0
  145.5039  134.3536  151.5118 H   0  0  0  0  0  0  0  0  0  0  0  0
  148.2699  133.7957  152.3781 H   0  0  0  0  0  0  0  0  0  0  0  0
  147.2671  131.7030  154.4217 H   0  0  0  0  0  0  0  0  0  0  0  0
  148.9709  132.0489  153.9668 H   0  0  0  0  0  0  0  0  0  0  0  0
  147.4721  133.5271  155.9795 H   0  0  0  0  0  0  0  0  0  0  0  0
  151.1179  134.4524  155.8468 H   0  0  0  0  0  0  0  0  0  0  0  0
  150.6478  132.9738  155.0286 H   0  0  0  0  0  0  0  0  0  0  0  0
  149.9690  133.3519  156.6149 H   0  0  0  0  0  0  0  0  0  0  0  0
  146.9027  137.5561  157.1064 H   0  0  0  0  0  0  0  0  0  0  0  0
  152.7728  138.2659  154.5522 H   0  0  0  0  0  0  0  0  0  0  0  0
  151.9970  140.5289  155.3223 H   0  0  0  0  0  0  0  0  0  0  0  0
  150.2887  140.7350  155.6393 H   0  0  0  0  0  0  0  0  0  0  0  0
  150.6270  140.0472  158.0271 H   0  0  0  0  0  0  0  0  0  0  0  0
  152.5099  139.3200  158.6686 H   0  0  0  0  0  0  0  0  0  0  0  0
  152.6168  142.2242  157.1840 H   0  0  0  0  0  0  0  0  0  0  0  0
  151.6054  141.3763  159.9266 H   0  0  0  0  0  0  0  0  0  0  0  0
  153.2555  141.8187  159.4759 H   0  0  0  0  0  0  0  0  0  0  0  0
  151.7085  143.7049  160.5954 H   0  0  0  0  0  0  0  0  0  0  0  0
  152.5930  144.1323  159.1230 H   0  0  0  0  0  0  0  0  0  0  0  0
  149.6901  143.2556  159.3454 H   0  0  0  0  0  0  0  0  0  0  0  0
  150.3408  144.6090  158.4147 H   0  0  0  0  0  0  0  0  0  0  0  0
  144.8517  133.2091  153.9780 H   0  0  0  0  0  0  0  0  0  0  0  0
  145.1185  134.3418  155.3530 H   0  0  0  0  0  0  0  0  0  0  0  0
  144.8914  135.0642  152.3637 H   0  0  0  0  0  0  0  0  0  0  0  0
  144.3587  136.0557  153.7785 H   0  0  0  0  0  0  0  0  0  0  0  0
  146.6446  136.4034  154.4921 H   0  0  0  0  0  0  0  0  0  0  0  0
  147.0737  136.1134  152.7628 H   0  0  0  0  0  0  0  0  0  0  0  0
  1  2  1  0  0  0  0
  1 29  1  0  0  0  0
  1 30  1  0  0  0  0
  1 31  1  0  0  0  0
  2  3  1  0  0  0  0
  3 25  1  0  0  0  0
  3  4  1  0  0  0  0
  3 32  1  0  0  0  0
  4  5  1  0  0  0  0
  4 33  1  0  0  0  0
  4 34  1  0  0  0  0
  5  6  1  0  0  0  0
  5 25  1  0  0  0  0
  5 35  1  0  0  0  0
  6  7  1  0  0  0  0
  6  8  1  0  0  0  0
  7 36  1  0  0  0  0
  7 37  1  0  0  0  0
  7 38  1  0  0  0  0
  8 13  1  0  0  0  0
  8  9  2  0  0  0  0
  9 10  1  0  0  0  0
 10 11  2  0  0  0  0
 10 39  1  0  0  0  0
 11 12  1  0  0  0  0
 12 16  1  0  0  0  0
 12 13  2  0  0  0  0
 13 14  1  0  0  0  0
 14 15  2  0  0  0  0
 15 16  1  0  0  0  0
 15 40  1  0  0  0  0
 16 17  1  0  0  0  0
 17 18  1  0  0  0  0
 17 41  1  0  0  0  0
 17 42  1  0  0  0  0
 18 19  1  0  0  0  0
 18 20  1  0  0  0  0
 18 43  1  0  0  0  0
 19 44  1  0  0  0  0
 20 24  1  0  0  0  0
 20 21  1  0  0  0  0
 20 45  1  0  0  0  0
 21 22  1  0  0  0  0
 21 46  1  0  0  0  0
 21 47  1  0  0  0  0
 22 23  1  0  0  0  0
 22 48  1  0  0  0  0
 22 49  1  0  0  0  0
 23 24  1  0  0  0  0
 23 50  1  0  0  0  0
 23 51  1  0  0  0  0
 25 28  1  0  0  0  0
 25 26  1  0  0  0  0
 26 27  1  0  0  0  0
 26 52  1  0  0  0  0
 26 53  1  0  0  0  0
 27 28  1  0  0  0  0
 27 54  1  0  0  0  0
 27 55  1  0  0  0  0
 28 56  1  0  0  0  0
 28 57  1  0  0  0  0
M  END
> <s_m_source_file>
AV-unprocessed.smi

> <i_m_source_file_index>
276

> <i_lp_mmshare_version>
43012

> <i_f3d_flags>
0

> <s_epik_input>
W0NIMl0xW0NIMl1bQ0gyXUMxMltDQEhdKE9bQ0gzXSlbQ0gyXVtDQEhdMk4oW0NIM10pYyhuW2NIXW4zKWMoYzM0KW5bY0hdbjRbQ0gyXVtDQEhdKFtPSF0pW0NAQEhdNVtDSDJdW0NIMl1bQ0gyXU81

> <s_epik_cmdline>
J2VwaWtfcHl0aG9uJywgJy1waCcsICc3LjAnLCAnLXRuJywgJzgnLCAnLW1hJywgJzIwMCcsICctbWV0YWxfYmluZGluZycsICctaW1hZScsICc8aW5maWxlLm1hZT4nLCAnLW9tYWUnLCAnPG91dGZpbGUubWFlPic=

> <r_lp_tautomer_probability>
1

> <r_epik_Ionization_Penalty>
0.00204117

> <r_epik_Ionization_Penalty_Charging>
0

> <r_epik_Ionization_Penalty_Neutral>
0.00204117

> <r_epik_State_Penalty>
0.00127401

> <r_epik_Charging_Adjusted_Penalty>
0.00127401

> <i_epik_Tot_Q>
0

> <i_epik_Tot_abs_Q>
0

> <r_epik_Metal_State_Penalty>
-0

> <b_epik_Metal_Only>
0

> <s_lp_Force_Field>
OPLS_2005

> <r_lp_Energy>
56.3497

> <b_lp_Chiralities_Consistent>
1

> <s_lp_Variant>
AV-unprocessed.smi:276-5

> <Gold.Version>
5.8.1

> <Gold.Id.Protein>
6NUR|6NUR_protein|mol2

> <Gold.PLP.Fitness>
40.9979

> <Gold.PLP.PLP>
-35.5276

> <Gold.PLP.part.hbond>
-2.0000

> <Gold.PLP.part.metal>
0.0000

> <Gold.PLP.part.buried>
-6.0083

> <Gold.PLP.part.nonpolar>
-27.8274

> <Gold.PLP.part.repulsive>
0.8168

> <Gold.PLP.ligand.clash>
0.0000

> <Gold.PLP.ligand.torsion>
0.6102

> <Gold.PLP.Chemscore.Hbond>
2.0000

> <Gold.PLP.Chemscore.CHOScore>
0.0000

> <Gold.PLP.Chemscore.Metal>
0.0000

> <Gold.Chemscore.Hbonds>
donor molecule, donor type, donor heavy atom, donor atom, acceptor molecule, acceptor atom, score
      P1  H  7997  8008       L1    19  0.68
      P1  H 10752 10763       L1    14  1.00

> <Gold.PLP.Chemscore.Internal.Correction>
0.6906

> <Gold.Rescore>
     Score         DG    S(hbond)    S(metal)    S(lipo)     H(rot)  DE(clash)    DE(int)     intcor
     14.58     -15.22       1.93        0.00      87.59       2.72       0.05       0.59       ----

> <Gold.Chemscore.Fitness>
14.5848

> <Gold.Chemscore.DG>
-15.2196

> <Gold.Chemscore.ZeroCoef>
-5.4800

> <Gold.Chemscore.Hbond>
1.9302

> <Gold.Chemscore.Metal>
0.0000

> <Gold.Chemscore.Lipo>
87.5948

> <Gold.Chemscore.Internal_Hbond>
0.0000

> <Gold.Chemscore.DEClash>
0.0460

> <Gold.Chemscore.DEInternal>
0.5888

> <Gold.Chemscore.Rot>
2.7172

> <Gold.Chemscore.Internal.Correction>
   9.000000E+99

> <Gold.Chemscore.Hbonds>
donor molecule, donor type, donor heavy atom, donor atom, acceptor molecule, acceptor atom, score
      P1  H  7997  8008       L1    19  0.64
      P1  H 10752 10763       L1    14  0.55

> <Gold.Chemscore.Hbond.Weighted>
-6.4470

> <Gold.Chemscore.Metal.Weighted>
-0.0000

> <Gold.Chemscore.Lipo.Weighted>
-10.2486

> <Gold.Chemscore.Internal_Hbond.Weighted>
0.0000

> <Gold.Chemscore.DEClash.Weighted>
0.0460

> <Gold.Chemscore.DEInternal.Weighted>
0.5888

> <Gold.Chemscore.Rot.Weighted>
6.9560

> <Gold.Chemscore.Internal.Correction.Weighted>
   9.000000E+99

> <Gold.Protein.RotatedTorsions>
[ 6907 6896 6895 6894 ] final   48.01 input  -60.11 | X-H torsion
[ 7974 7965 7964 7962 ] final  117.34 input  175.53 | X-H torsion
[ 8008 7997 7996 7995 ] final  -73.50 input   59.86 | X-H torsion
[ 10167 10162 10161 10158 ] final   16.37 input  -65.29 | X-H torsion
[ 10718 10713 10712 10709 ] final  114.59 input   66.30 | X-H torsion
[ 10763 10752 10751 10750 ] final   43.50 input  -60.55 | X-H torsion
[ 11005 11000 10999 10996 ] final   14.37 input  -57.11 | X-H torsion

> <Gold.Protein.ActiveResidues>
 VAL166  LYS551  ARG553  GLY616  TRP617  ASP618  TYR619  PRO620  LYS621  CYS622 
 ASP623  PHE694  ASN695  SER759  ASP760  ASP761  ALA762  ILE779  LEU786  VAL792 
 PHE793  MET794  SER795  GLU796  ALA797  LYS798  CYS799  TRP800  GLU811  SER814 

> <Gold.Protein.RotatedAtoms>
  152.2746  134.7895  160.0407 H   0  0  0  0  0  0  0  0  0  0  0  0  # atno 6907 bound_to 6896
  151.8496  133.3432  159.3677 H   0  0  0  0  0  0  0  0  0  0  0  0  # atno 6908 bound_to 6896
  150.7165  134.5240  159.5712 H   0  0  0  0  0  0  0  0  0  0  0  0  # atno 6909 bound_to 6896
  145.1685  139.3115  143.4480 H   0  0  0  0  0  0  0  0  0  0  0  0  # atno 7974 bound_to 7965
  154.5252  140.0778  156.8246 H   0  0  0  0  0  0  0  0  0  0  0  0  # atno 8008 bound_to 7997
  155.3490  140.3411  155.4221 H   0  0  0  0  0  0  0  0  0  0  0  0  # atno 8009 bound_to 7997
  156.1724  140.1624  156.8410 H   0  0  0  0  0  0  0  0  0  0  0  0  # atno 8010 bound_to 7997
  140.5802  143.8996  150.6783 H   0  0  0  0  0  0  0  0  0  0  0  0  # atno 10167 bound_to 10162
  157.6272  131.1001  150.7208 H   0  0  0  0  0  0  0  0  0  0  0  0  # atno 10718 bound_to 10713
  152.9859  135.6099  154.3121 H   0  0  0  0  0  0  0  0  0  0  0  0  # atno 10763 bound_to 10752
  154.2836  135.2776  155.2688 H   0  0  0  0  0  0  0  0  0  0  0  0  # atno 10764 bound_to 10752
  154.5016  135.5865  153.6592 H   0  0  0  0  0  0  0  0  0  0  0  0  # atno 10765 bound_to 10752
  140.4702  134.1038  155.7731 H   0  0  0  0  0  0  0  0  0  0  0  0  # atno 11005 bound_to 11000
  146.3472  140.1822  142.8589 LP  0  0  0  0  0  0  0  0  0  0  0  0  # atno 17320 bound_to 7965
  145.0257  140.8830  143.5140 LP  0  0  0  0  0  0  0  0  0  0  0  0  # atno 17321 bound_to 7965
  140.2493  143.3605  152.1419 LP  0  0  0  0  0  0  0  0  0  0  0  0  # atno 17342 bound_to 10162
  139.5165  144.6979  151.5579 LP  0  0  0  0  0  0  0  0  0  0  0  0  # atno 17343 bound_to 10162
  156.7554  130.4782  149.5448 LP  0  0  0  0  0  0  0  0  0  0  0  0  # atno 17370 bound_to 10713
  156.1451  130.6272  151.0521 LP  0  0  0  0  0  0  0  0  0  0  0  0  # atno 17371 bound_to 10713
  141.1580  133.8846  157.1925 LP  0  0  0  0  0  0  0  0  0  0  0  0  # atno 17394 bound_to 11000
  139.9890  135.0071  156.9930 LP  0  0  0  0  0  0  0  0  0  0  0  0  # atno 17395 bound_to 11000

$$$$
