AV-unprocessed.smi:1795|AV-procd|sdf|7241|dock10
  -GOLD-   22720 8493D 1   1.00000     0.00000
 Structure written by MMmdl.
 47 48  0  0  0  0  0  0  0  0  1 V2000
  154.0077  131.4512  161.2954 C   0  0  0  0  0  0  0  0  0  0  0  0
  155.0142  132.0692  162.2715 C   0  0  1  0  0  0  0  0  0  0  0  0
  155.3125  133.5417  161.9372 C   0  0  0  0  0  0  0  0  0  0  0  0
  156.2107  134.1782  162.9056 N   0  0  0  0  0  0  0  0  0  0  0  0
  156.5017  135.5910  162.5646 C   0  0  2  0  0  0  0  0  0  0  0  0
  157.5529  136.2326  163.5066 C   0  0  0  0  0  0  0  0  0  0  0  0
  155.2326  136.4939  162.5388 C   0  0  0  0  0  0  0  0  0  0  0  0
  155.5150  137.8843  162.1932 N   0  0  0  0  0  0  0  0  0  0  0  0
  154.8277  138.6111  161.2994 C   0  0  0  0  0  0  0  0  0  0  0  0
  153.8408  138.1842  160.6987 O   0  0  0  0  0  0  0  0  0  0  0  0
  155.3291  140.0421  161.0625 C   0  0  0  0  0  0  0  0  0  0  0  0
  154.2339  141.0141  160.9099 N   0  0  0  0  0  0  0  0  0  0  0  0
  154.0636  141.9595  161.9411 C   0  0  0  0  0  0  0  0  0  0  0  0
  153.0942  142.8871  161.9009 C   0  0  0  0  0  0  0  0  0  0  0  0
  152.2097  142.9010  160.7599 C   0  0  0  0  0  0  0  0  0  0  0  0
  152.3618  141.9999  159.7693 C   0  0  0  0  0  0  0  0  0  0  0  0
  153.4195  140.9834  159.8095 C   0  0  0  0  0  0  0  0  0  0  0  0
  153.5648  140.1548  158.9100 O   0  0  0  0  0  0  0  0  0  0  0  0
  155.6132  134.0295  164.2379 C   0  0  0  0  0  0  0  0  0  0  0  0
  155.2656  132.5722  164.6032 C   0  0  2  0  0  0  0  0  0  0  0  0
  156.4994  131.7156  164.9354 C   0  0  0  0  0  0  0  0  0  0  0  0
  154.4667  131.9799  163.5823 O   0  0  0  0  0  0  0  0  0  0  0  0
  154.3840  131.4806  160.2726 H   0  0  0  0  0  0  0  0  0  0  0  0
  153.0570  131.9848  161.3183 H   0  0  0  0  0  0  0  0  0  0  0  0
  153.8111  130.4089  161.5471 H   0  0  0  0  0  0  0  0  0  0  0  0
  155.9369  131.4906  162.2216 H   0  0  0  0  0  0  0  0  0  0  0  0
  155.7515  133.5550  160.9414 H   0  0  0  0  0  0  0  0  0  0  0  0
  154.3777  134.1017  161.8789 H   0  0  0  0  0  0  0  0  0  0  0  0
  156.9277  135.6076  161.5602 H   0  0  0  0  0  0  0  0  0  0  0  0
  157.7264  137.2849  163.2838 H   0  0  0  0  0  0  0  0  0  0  0  0
  158.5316  135.7641  163.4158 H   0  0  0  0  0  0  0  0  0  0  0  0
  157.2409  136.1657  164.5492 H   0  0  0  0  0  0  0  0  0  0  0  0
  154.4921  136.1415  161.8223 H   0  0  0  0  0  0  0  0  0  0  0  0
  154.7480  136.4796  163.5155 H   0  0  0  0  0  0  0  0  0  0  0  0
  156.3073  138.3148  162.6479 H   0  0  0  0  0  0  0  0  0  0  0  0
  155.9768  140.3161  161.8961 H   0  0  0  0  0  0  0  0  0  0  0  0
  155.9718  140.0671  160.1801 H   0  0  0  0  0  0  0  0  0  0  0  0
  154.7611  141.8773  162.7618 H   0  0  0  0  0  0  0  0  0  0  0  0
  152.9764  143.6016  162.7024 H   0  0  0  0  0  0  0  0  0  0  0  0
  151.4208  143.6366  160.7015 H   0  0  0  0  0  0  0  0  0  0  0  0
  151.6892  142.0249  158.9245 H   0  0  0  0  0  0  0  0  0  0  0  0
  156.2839  134.3992  165.0104 H   0  0  0  0  0  0  0  0  0  0  0  0
  154.7068  134.6341  164.2959 H   0  0  0  0  0  0  0  0  0  0  0  0
  154.6457  132.5929  165.4997 H   0  0  0  0  0  0  0  0  0  0  0  0
  157.0302  132.1193  165.7977 H   0  0  0  0  0  0  0  0  0  0  0  0
  157.2073  131.6766  164.1079 H   0  0  0  0  0  0  0  0  0  0  0  0
  156.2087  130.6929  165.1759 H   0  0  0  0  0  0  0  0  0  0  0  0
  1  2  1  0  0  0  0
  1 23  1  0  0  0  0
  1 24  1  0  0  0  0
  1 25  1  0  0  0  0
  2 22  1  0  0  0  0
  2  3  1  0  0  0  0
  2 26  1  0  0  0  0
  3  4  1  0  0  0  0
  3 27  1  0  0  0  0
  3 28  1  0  0  0  0
  4  5  1  0  0  0  0
  4 19  1  0  0  0  0
  5  6  1  0  0  0  0
  5  7  1  0  0  0  0
  5 29  1  0  0  0  0
  6 30  1  0  0  0  0
  6 31  1  0  0  0  0
  6 32  1  0  0  0  0
  7  8  1  0  0  0  0
  7 33  1  0  0  0  0
  7 34  1  0  0  0  0
  8  9  1  0  0  0  0
  8 35  1  0  0  0  0
  9 10  2  0  0  0  0
  9 11  1  0  0  0  0
 11 12  1  0  0  0  0
 11 36  1  0  0  0  0
 11 37  1  0  0  0  0
 12 17  1  0  0  0  0
 12 13  1  0  0  0  0
 13 14  2  0  0  0  0
 13 38  1  0  0  0  0
 14 15  1  0  0  0  0
 14 39  1  0  0  0  0
 15 16  2  0  0  0  0
 15 40  1  0  0  0  0
 16 17  1  0  0  0  0
 16 41  1  0  0  0  0
 17 18  2  0  0  0  0
 19 20  1  0  0  0  0
 19 42  1  0  0  0  0
 19 43  1  0  0  0  0
 20 21  1  0  0  0  0
 20 22  1  0  0  0  0
 20 44  1  0  0  0  0
 21 45  1  0  0  0  0
 21 46  1  0  0  0  0
 21 47  1  0  0  0  0
M  END
> <s_m_source_file>
AV-unprocessed.smi

> <i_m_source_file_index>
1795

> <i_lp_mmshare_version>
43012

> <i_f3d_flags>
0

> <s_epik_input>
W0NIM11bQ0BASF0xW0NIMl1OKFtDSDJdW0NASF0oTzEpW0NIM10pW0NASF0oW0NIM10pW0NIMl1bTkhdQyg9TylbQ0gyXW4yW2NIXVtjSF1bY0hdW2NIXWMyPU8=

> <s_epik_cmdline>
J2VwaWtfcHl0aG9uJywgJy1waCcsICc3LjAnLCAnLXRuJywgJzgnLCAnLW1hJywgJzIwMCcsICctbWV0YWxfYmluZGluZycsICctaW1hZScsICc8aW5maWxlLm1hZT4nLCAnLW9tYWUnLCAnPG91dGZpbGUubWFlPic=

> <r_lp_tautomer_probability>
1

> <r_epik_Ionization_Penalty>
0.237383

> <r_epik_Ionization_Penalty_Charging>
3.58805e-07

> <r_epik_Ionization_Penalty_Neutral>
0.237382

> <r_epik_State_Penalty>
0.228245

> <r_epik_Charging_Adjusted_Penalty>
0.228245

> <i_epik_Tot_Q>
0

> <i_epik_Tot_abs_Q>
0

> <r_epik_Metal_State_Penalty>
0.228221

> <b_epik_Metal_Only>
0

> <s_lp_Force_Field>
OPLS_2005

> <r_lp_Energy>
40.4957

> <b_lp_Chiralities_Consistent>
1

> <s_lp_Variant>
AV-unprocessed.smi:1795-5

> <Gold.Version>
5.8.1

> <Gold.Id.Protein>
6NUR|6NUR_protein|mol2

> <Gold.PLP.Fitness>
44.0089

> <Gold.PLP.PLP>
-42.0572

> <Gold.PLP.part.hbond>
-1.0000

> <Gold.PLP.part.metal>
0.0000

> <Gold.PLP.part.buried>
-4.0267

> <Gold.PLP.part.nonpolar>
-36.7458

> <Gold.PLP.part.repulsive>
0.0451

> <Gold.PLP.ligand.clash>
0.0000

> <Gold.PLP.ligand.torsion>
0.4624

> <Gold.PLP.Chemscore.Hbond>
0.9440

> <Gold.PLP.Chemscore.CHOScore>
0.0000

> <Gold.PLP.Chemscore.Metal>
0.0000

> <Gold.Chemscore.Hbonds>
donor molecule, donor type, donor heavy atom, donor atom, acceptor molecule, acceptor atom, score
      P1  H  7997  8008       L1    18  0.59

> <Gold.PLP.Chemscore.Internal.Correction>
0.0445

> <Gold.Rescore>
     Score         DG    S(hbond)    S(metal)    S(lipo)     H(rot)  DE(clash)    DE(int)     intcor
     15.25     -16.01       0.95        0.00     102.67       1.83       0.03       0.73       ----

> <Gold.Chemscore.Fitness>
15.2495

> <Gold.Chemscore.DG>
-16.0058

> <Gold.Chemscore.ZeroCoef>
-5.4800

> <Gold.Chemscore.Hbond>
0.9537

> <Gold.Chemscore.Metal>
0.0000

> <Gold.Chemscore.Lipo>
102.6728

> <Gold.Chemscore.Internal_Hbond>
0.0000

> <Gold.Chemscore.DEClash>
0.0310

> <Gold.Chemscore.DEInternal>
0.7253

> <Gold.Chemscore.Rot>
1.8251

> <Gold.Chemscore.Internal.Correction>
   9.000000E+99

> <Gold.Chemscore.Hbonds>
donor molecule, donor type, donor heavy atom, donor atom, acceptor molecule, acceptor atom, score
      P1  H  7997  8008       L1    18  0.57

> <Gold.Chemscore.Hbond.Weighted>
-3.1854

> <Gold.Chemscore.Metal.Weighted>
-0.0000

> <Gold.Chemscore.Lipo.Weighted>
-12.0127

> <Gold.Chemscore.Internal_Hbond.Weighted>
0.0000

> <Gold.Chemscore.DEClash.Weighted>
0.0310

> <Gold.Chemscore.DEInternal.Weighted>
0.7253

> <Gold.Chemscore.Rot.Weighted>
4.6724

> <Gold.Chemscore.Internal.Correction.Weighted>
   9.000000E+99

> <Gold.Protein.RotatedTorsions>
[ 6907 6896 6895 6894 ] final -123.13 input  -60.11 | X-H torsion
[ 7974 7965 7964 7962 ] final -108.89 input  175.53 | X-H torsion
[ 8008 7997 7996 7995 ] final -114.14 input   59.86 | X-H torsion
[ 10167 10162 10161 10158 ] final   94.68 input  -65.29 | X-H torsion
[ 10718 10713 10712 10709 ] final -123.75 input   66.30 | X-H torsion
[ 10763 10752 10751 10750 ] final -177.54 input  -60.55 | X-H torsion
[ 11005 11000 10999 10996 ] final  -29.82 input  -57.11 | X-H torsion

> <Gold.Protein.ActiveResidues>
 VAL166  LYS551  ARG553  GLY616  TRP617  ASP618  TYR619  PRO620  LYS621  CYS622 
 ASP623  PHE694  ASN695  SER759  ASP760  ASP761  ALA762  ILE779  LEU786  VAL792 
 PHE793  MET794  SER795  GLU796  ALA797  LYS798  CYS799  TRP800  GLU811  SER814 

> <Gold.Protein.RotatedAtoms>
  150.8641  133.7600  159.2982 H   0  0  0  0  0  0  0  0  0  0  0  0  # atno 6907 bound_to 6896
  151.5233  135.1066  159.9893 H   0  0  0  0  0  0  0  0  0  0  0  0  # atno 6908 bound_to 6896
  152.4648  133.7855  159.6929 H   0  0  0  0  0  0  0  0  0  0  0  0  # atno 6909 bound_to 6896
  145.1873  140.8998  143.3445 H   0  0  0  0  0  0  0  0  0  0  0  0  # atno 7974 bound_to 7965
  155.0317  140.0393  157.2476 H   0  0  0  0  0  0  0  0  0  0  0  0  # atno 8008 bound_to 7997
  154.7291  140.2727  155.6448 H   0  0  0  0  0  0  0  0  0  0  0  0  # atno 8009 bound_to 7997
  156.2837  140.2687  156.1986 H   0  0  0  0  0  0  0  0  0  0  0  0  # atno 8010 bound_to 7997
  139.8061  144.6793  150.9702 H   0  0  0  0  0  0  0  0  0  0  0  0  # atno 10167 bound_to 10162
  156.1529  130.6547  150.9939 H   0  0  0  0  0  0  0  0  0  0  0  0  # atno 10718 bound_to 10713
  154.5589  135.2818  155.0938 H   0  0  0  0  0  0  0  0  0  0  0  0  # atno 10763 bound_to 10752
  154.2355  135.6366  153.5193 H   0  0  0  0  0  0  0  0  0  0  0  0  # atno 10764 bound_to 10752
  153.0023  135.5547  154.6177 H   0  0  0  0  0  0  0  0  0  0  0  0  # atno 10765 bound_to 10752
  140.9329  133.7327  156.0963 H   0  0  0  0  0  0  0  0  0  0  0  0  # atno 11005 bound_to 11000
  145.0076  139.3539  143.6136 LP  0  0  0  0  0  0  0  0  0  0  0  0  # atno 17320 bound_to 7965
  146.3442  139.9326  142.8751 LP  0  0  0  0  0  0  0  0  0  0  0  0  # atno 17321 bound_to 7965
  140.7819  143.4232  151.0808 LP  0  0  0  0  0  0  0  0  0  0  0  0  # atno 17342 bound_to 10162
  139.7902  143.8230  152.3150 LP  0  0  0  0  0  0  0  0  0  0  0  0  # atno 17343 bound_to 10162
  157.6671  131.0869  150.7701 LP  0  0  0  0  0  0  0  0  0  0  0  0  # atno 17370 bound_to 10713
  156.7768  130.4846  149.5408 LP  0  0  0  0  0  0  0  0  0  0  0  0  # atno 17371 bound_to 10713
  140.7838  134.3695  157.5481 LP  0  0  0  0  0  0  0  0  0  0  0  0  # atno 17394 bound_to 11000
  139.8801  134.9098  156.2999 LP  0  0  0  0  0  0  0  0  0  0  0  0  # atno 17395 bound_to 11000

$$$$
