AV-unprocessed.smi:54|AV-procd|sdf|530|dock4
  -GOLD-   2262016403D 1   1.00000     0.00000
 Structure written by MMmdl.
 44 46  0  0  0  0  0  0  0  0  1 V2000
  147.5046  141.9286  154.4716 C   0  0  0  0  0  0  0  0  0  0  0  0
  148.7794  141.1411  154.1291 C   0  0  0  0  0  0  0  0  0  0  0  0
  148.4430  139.7432  153.5847 C   0  0  0  0  0  0  0  0  0  0  0  0
  149.6955  141.0406  155.3543 C   0  0  0  0  0  0  0  0  0  0  0  0
  150.1598  139.9659  155.7368 O   0  0  0  0  0  0  0  0  0  0  0  0
  149.9662  142.2952  156.0326 N   0  0  0  0  0  0  0  0  0  0  0  0
  150.7321  142.4859  157.1317 C   0  0  0  0  0  0  0  0  0  0  0  0
  151.3347  141.4970  157.7774 N   0  0  0  0  0  0  0  0  0  0  0  0
  152.0691  141.8921  158.8607 C   0  0  0  0  0  0  0  0  0  0  0  0
  152.2313  143.1821  159.3203 C   0  0  0  0  0  0  0  0  0  0  0  0
  153.0404  143.1898  160.4511 N   0  0  0  0  0  0  0  0  0  0  0  0
  153.3363  141.9333  160.6374 C   0  0  0  0  0  0  0  0  0  0  0  0
  152.7834  141.0782  159.7126 N   0  0  0  0  0  0  0  0  0  0  0  0
  152.9002  139.5886  159.6033 C   0  0  1  0  0  0  0  0  0  0  0  0
  152.1767  139.1753  158.4805 O   0  0  0  0  0  0  0  0  0  0  0  0
  153.0770  138.7538  157.4649 C   0  0  2  0  0  0  0  0  0  0  0  0
  152.3647  137.8460  156.4463 C   0  0  0  0  0  0  0  0  0  0  0  0
  153.0458  136.6231  156.2561 O   0  0  0  0  0  0  0  0  0  0  0  0
  154.2403  138.1463  158.2501 C   0  0  1  0  0  0  0  0  0  0  0  0
  155.4256  138.0268  157.4860 O   0  0  0  0  0  0  0  0  0  0  0  0
  154.3669  139.1217  159.4169 C   0  0  1  0  0  0  0  0  0  0  0  0
  155.2718  140.1803  159.1338 O   0  0  0  0  0  0  0  0  0  0  0  0
  151.5939  144.2635  158.6265 C   0  0  0  0  0  0  0  0  0  0  0  0
  151.6313  145.4640  158.8873 O   0  0  0  0  0  0  0  0  0  0  0  0
  150.8528  143.8193  157.5237 N   0  0  0  0  0  0  0  0  0  0  0  0
  152.4298  139.2049  160.5095 H   0  0  0  0  0  0  0  0  0  0  0  0
  153.4197  139.6534  156.9499 H   0  0  0  0  0  0  0  0  0  0  0  0
  153.9666  137.1655  158.6400 H   0  0  0  0  0  0  0  0  0  0  0  0
  154.7050  138.6169  160.3226 H   0  0  0  0  0  0  0  0  0  0  0  0
  147.7426  142.9213  154.8561 H   0  0  0  0  0  0  0  0  0  0  0  0
  146.9048  141.4145  155.2238 H   0  0  0  0  0  0  0  0  0  0  0  0
  146.8803  142.0626  153.5877 H   0  0  0  0  0  0  0  0  0  0  0  0
  149.3135  141.6856  153.3489 H   0  0  0  0  0  0  0  0  0  0  0  0
  149.3472  139.1789  153.3527 H   0  0  0  0  0  0  0  0  0  0  0  0
  147.8576  139.8132  152.6675 H   0  0  0  0  0  0  0  0  0  0  0  0
  147.8619  139.1620  154.3021 H   0  0  0  0  0  0  0  0  0  0  0  0
  149.5036  143.1092  155.6555 H   0  0  0  0  0  0  0  0  0  0  0  0
  153.9632  141.6024  161.4524 H   0  0  0  0  0  0  0  0  0  0  0  0
  151.3396  137.6483  156.7602 H   0  0  0  0  0  0  0  0  0  0  0  0
  152.3111  138.3501  155.4813 H   0  0  0  0  0  0  0  0  0  0  0  0
  152.7162  135.9948  156.8804 H   0  0  0  0  0  0  0  0  0  0  0  0
  155.2624  137.4188  156.7807 H   0  0  0  0  0  0  0  0  0  0  0  0
  155.6561  140.4666  159.9484 H   0  0  0  0  0  0  0  0  0  0  0  0
  150.3747  144.5285  156.9878 H   0  0  0  0  0  0  0  0  0  0  0  0
  1  2  1  0  0  0  0
  1 30  1  0  0  0  0
  1 31  1  0  0  0  0
  1 32  1  0  0  0  0
  2  3  1  0  0  0  0
  2  4  1  0  0  0  0
  2 33  1  0  0  0  0
  3 34  1  0  0  0  0
  3 35  1  0  0  0  0
  3 36  1  0  0  0  0
  4  5  2  0  0  0  0
  4  6  1  0  0  0  0
  6 37  1  0  0  0  0
  6  7  1  0  0  0  0
  7 25  1  0  0  0  0
  7  8  2  0  0  0  0
  8  9  1  0  0  0  0
  9 13  1  0  0  0  0
  9 10  2  0  0  0  0
 10 11  1  0  0  0  0
 10 23  1  0  0  0  0
 11 12  2  0  0  0  0
 12 13  1  0  0  0  0
 12 38  1  0  0  0  0
 13 14  1  0  0  0  0
 14 26  1  0  0  0  0
 14 21  1  0  0  0  0
 14 15  1  0  0  0  0
 15 16  1  0  0  0  0
 16 27  1  0  0  0  0
 16 17  1  0  0  0  0
 16 19  1  0  0  0  0
 17 18  1  0  0  0  0
 17 39  1  0  0  0  0
 17 40  1  0  0  0  0
 18 41  1  0  0  0  0
 19 28  1  0  0  0  0
 19 20  1  0  0  0  0
 19 21  1  0  0  0  0
 20 42  1  0  0  0  0
 21 29  1  0  0  0  0
 21 22  1  0  0  0  0
 22 43  1  0  0  0  0
 23 24  2  0  0  0  0
 23 25  1  0  0  0  0
 25 44  1  0  0  0  0
M  END
> <s_m_source_file>
AV-unprocessed.smi

> <i_m_source_file_index>
54

> <i_lp_mmshare_version>
43012

> <i_f3d_flags>
0

> <s_epik_input>
W0NIM11bQ0hdKFtDSDNdKUMoPU8pW05IXWMobjEpW25IXWMoPU8pYyhjMTIpbltjSF1uMltDQEBIXTNPW0NASF0oW0NIMl1bT0hdKVtDQEBIXShbT0hdKVtDQEhdM1tPSF0=

> <s_epik_cmdline>
J2VwaWtfcHl0aG9uJywgJy1waCcsICc3LjAnLCAnLXRuJywgJzgnLCAnLW1hJywgJzIwMCcsICctbWV0YWxfYmluZGluZycsICctaW1hZScsICc8aW5maWxlLm1hZT4nLCAnLW9tYWUnLCAnPG91dGZpbGUubWFlPic=

> <r_lp_tautomer_probability>
0.85571

> <r_epik_Ionization_Penalty>
0.0316551

> <r_epik_Ionization_Penalty_Charging>
0.0316043

> <r_epik_Ionization_Penalty_Neutral>
5.07097e-05

> <r_epik_State_Penalty>
3.15494e-07

> <r_epik_Charging_Adjusted_Penalty>
0.0316047

> <i_epik_Tot_Q>
0

> <i_epik_Tot_abs_Q>
0

> <r_epik_Metal_State_Penalty>
0.421206

> <b_epik_Metal_Only>
0

> <s_epik_Chemistry_Notes>
This compound contains an acetal/aminal-like group ( X-CH(R)-Y where X, Y are N, S, or O) that may be acid/base labile, releasing an aldehyde.

> <s_lp_Force_Field>
OPLS_2005

> <r_lp_Energy>
47.6187

> <b_lp_Chiralities_Consistent>
1

> <s_lp_Variant>
AV-unprocessed.smi:54-2

> <Gold.Version>
5.8.1

> <Gold.Id.Protein>
6NUR|6NUR_protein|mol2

> <Gold.PLP.Fitness>
50.3996

> <Gold.PLP.PLP>
-40.6579

> <Gold.PLP.part.hbond>
-5.7190

> <Gold.PLP.part.metal>
0.0000

> <Gold.PLP.part.buried>
-1.8009

> <Gold.PLP.part.nonpolar>
-33.4263

> <Gold.PLP.part.repulsive>
0.2674

> <Gold.PLP.ligand.clash>
0.0000

> <Gold.PLP.ligand.torsion>
0.8415

> <Gold.PLP.Chemscore.Hbond>
3.8000

> <Gold.PLP.Chemscore.CHOScore>
0.0000

> <Gold.PLP.Chemscore.Metal>
0.0000

> <Gold.Chemscore.Hbonds>
donor molecule, donor type, donor heavy atom, donor atom, acceptor molecule, acceptor atom, score
      L1  H     6    37       P1  8028  1.00
      L1  H    25    44       P1  8028  0.85
      P1  H  7997  8009       L1    22  0.90
      P1  H 10752 10763       L1    18  0.49

> <Gold.PLP.Chemscore.Internal.Correction>
0.0247

> <Gold.Rescore>
     Score         DG    S(hbond)    S(metal)    S(lipo)     H(rot)  DE(clash)    DE(int)     intcor
      8.54     -13.42       3.82        0.00      47.33       4.05       0.07       4.81       ----

> <Gold.Chemscore.Fitness>
8.5387

> <Gold.Chemscore.DG>
-13.4221

> <Gold.Chemscore.ZeroCoef>
-5.4800

> <Gold.Chemscore.Hbond>
3.8235

> <Gold.Chemscore.Metal>
0.0000

> <Gold.Chemscore.Lipo>
47.3331

> <Gold.Chemscore.Internal_Hbond>
0.0000

> <Gold.Chemscore.DEClash>
0.0712

> <Gold.Chemscore.DEInternal>
4.8122

> <Gold.Chemscore.Rot>
4.0493

> <Gold.Chemscore.Internal.Correction>
   9.000000E+99

> <Gold.Chemscore.Hbonds>
donor molecule, donor type, donor heavy atom, donor atom, acceptor molecule, acceptor atom, score
      L1  H     6    37       P1  8028  0.99
      L1  H    25    44       P1  8028  0.64
      P1  H  7997  8009       L1    22  0.20
      P1  H 10752 10763       L1    18  0.03

> <Gold.Chemscore.Hbond.Weighted>
-12.7704

> <Gold.Chemscore.Metal.Weighted>
-0.0000

> <Gold.Chemscore.Lipo.Weighted>
-5.5380

> <Gold.Chemscore.Internal_Hbond.Weighted>
0.0000

> <Gold.Chemscore.DEClash.Weighted>
0.0712

> <Gold.Chemscore.DEInternal.Weighted>
4.8122

> <Gold.Chemscore.Rot.Weighted>
10.3662

> <Gold.Chemscore.Internal.Correction.Weighted>
   9.000000E+99

> <Gold.Protein.RotatedTorsions>
[ 6907 6896 6895 6894 ] final  -89.49 input  -60.11 | X-H torsion
[ 7974 7965 7964 7962 ] final   55.07 input  175.53 | X-H torsion
[ 8008 7997 7996 7995 ] final  109.52 input   59.86 | X-H torsion
[ 10167 10162 10161 10158 ] final -133.16 input  -65.29 | X-H torsion
[ 10718 10713 10712 10709 ] final -100.25 input   66.30 | X-H torsion
[ 10763 10752 10751 10750 ] final   95.83 input  -60.55 | X-H torsion
[ 11005 11000 10999 10996 ] final -125.60 input  -57.11 | X-H torsion

> <Gold.Protein.ActiveResidues>
 VAL166  LYS551  ARG553  GLY616  TRP617  ASP618  TYR619  PRO620  LYS621  CYS622 
 ASP623  PHE694  ASN695  SER759  ASP760  ASP761  ALA762  ILE779  LEU786  VAL792 
 PHE793  MET794  SER795  GLU796  ALA797  LYS798  CYS799  TRP800  GLU811  SER814 

> <Gold.Protein.RotatedAtoms>
  150.6874  134.2579  159.4537 H   0  0  0  0  0  0  0  0  0  0  0  0  # atno 6907 bound_to 6896
  152.0511  134.9650  160.0584 H   0  0  0  0  0  0  0  0  0  0  0  0  # atno 6908 bound_to 6896
  152.1114  133.4268  159.4669 H   0  0  0  0  0  0  0  0  0  0  0  0  # atno 6909 bound_to 6896
  145.9542  139.4000  143.0287 H   0  0  0  0  0  0  0  0  0  0  0  0  # atno 7974 bound_to 7965
  156.1985  140.3056  155.9478 H   0  0  0  0  0  0  0  0  0  0  0  0  # atno 8008 bound_to 7997
  155.3009  140.0446  157.3046 H   0  0  0  0  0  0  0  0  0  0  0  0  # atno 8009 bound_to 7997
  154.5541  140.2300  155.8448 H   0  0  0  0  0  0  0  0  0  0  0  0  # atno 8010 bound_to 7997
  139.9012  143.6606  152.2594 H   0  0  0  0  0  0  0  0  0  0  0  0  # atno 10167 bound_to 10162
  156.0157  130.5319  150.6790 H   0  0  0  0  0  0  0  0  0  0  0  0  # atno 10718 bound_to 10713
  153.2578  135.4240  155.0863 H   0  0  0  0  0  0  0  0  0  0  0  0  # atno 10763 bound_to 10752
  154.8408  135.3441  154.6420 H   0  0  0  0  0  0  0  0  0  0  0  0  # atno 10764 bound_to 10752
  153.6841  135.7037  153.5166 H   0  0  0  0  0  0  0  0  0  0  0  0  # atno 10765 bound_to 10752
  140.9749  134.0754  157.3829 H   0  0  0  0  0  0  0  0  0  0  0  0  # atno 11005 bound_to 11000
  145.8129  140.9717  143.0939 LP  0  0  0  0  0  0  0  0  0  0  0  0  # atno 17320 bound_to 7965
  144.6802  139.9944  143.7484 LP  0  0  0  0  0  0  0  0  0  0  0  0  # atno 17321 bound_to 7965
  139.7024  144.7633  151.1251 LP  0  0  0  0  0  0  0  0  0  0  0  0  # atno 17342 bound_to 10162
  140.7706  143.5440  150.9280 LP  0  0  0  0  0  0  0  0  0  0  0  0  # atno 17343 bound_to 10162
  157.4496  131.0871  151.0859 LP  0  0  0  0  0  0  0  0  0  0  0  0  # atno 17370 bound_to 10713
  157.1379  130.6130  149.5547 LP  0  0  0  0  0  0  0  0  0  0  0  0  # atno 17371 bound_to 10713
  139.8926  135.0126  156.6857 LP  0  0  0  0  0  0  0  0  0  0  0  0  # atno 17394 bound_to 11000
  140.7274  133.9088  155.8188 LP  0  0  0  0  0  0  0  0  0  0  0  0  # atno 17395 bound_to 11000

$$$$
