AV-unprocessed.smi:1952|AV-procd|sdf|7885|dock5
  -GOLD-   2272010 33D 1   1.00000     0.00000
 Structure written by MMmdl.
 40 41  0  0  0  0  0  0  0  0  2 V2000
  137.7279  137.2423  154.4082 C   0  0  0  0  0  0  0  0  0  0  0  0
  139.2035  137.1753  154.2103 C   0  0  0  0  0  0  0  0  0  0  0  0
  140.0807  137.9371  153.4905 C   0  0  0  0  0  0  0  0  0  0  0  0
  141.3310  137.3162  153.7511 C   0  0  0  0  0  0  0  0  0  0  0  0
  142.5263  137.8162  153.1743 N   0  0  0  0  0  0  0  0  0  0  0  0
  143.6493  137.1320  152.8982 C   0  0  0  0  0  0  0  0  0  0  0  0
  143.8243  135.9349  153.1261 O   0  0  0  0  0  0  0  0  0  0  0  0
  144.5726  137.9187  152.3251 N   0  0  0  0  0  0  0  0  0  0  0  0
  145.9232  137.5152  151.9301 C   0  0  2  0  0  0  0  0  0  0  0  0
  146.8445  138.7415  151.9883 C   0  0  0  0  0  0  0  0  0  0  0  0
  145.9368  136.8731  150.5229 C   0  0  0  0  0  0  0  0  0  0  0  0
  145.7338  135.4022  150.5476 N   0  3  0  0  0  0  0  0  0  0  0  0
  146.4779  134.7316  151.6391 C   0  0  0  0  0  0  0  0  0  0  0  0
  146.2836  133.2077  151.5586 C   0  0  0  0  0  0  0  0  0  0  0  0
  144.8962  132.8972  151.6050 O   0  0  0  0  0  0  0  0  0  0  0  0
  144.1845  133.4703  150.5149 C   0  0  0  0  0  0  0  0  0  0  0  0
  144.3058  135.0018  150.5724 C   0  0  0  0  0  0  0  0  0  0  0  0
  141.2264  136.2672  154.5526 N   0  0  0  0  0  0  0  0  0  0  0  0
  139.8623  136.1727  154.8527 O   0  0  0  0  0  0  0  0  0  0  0  0
  137.2709  137.9317  153.6982 H   0  0  0  0  0  0  0  0  0  0  0  0
  137.4889  137.5855  155.4148 H   0  0  0  0  0  0  0  0  0  0  0  0
  137.2727  136.2619  154.2672 H   0  0  0  0  0  0  0  0  0  0  0  0
  139.8599  138.7996  152.8793 H   0  0  0  0  0  0  0  0  0  0  0  0
  142.5237  138.7998  152.9472 H   0  0  0  0  0  0  0  0  0  0  0  0
  144.3347  138.8891  152.1779 H   0  0  0  0  0  0  0  0  0  0  0  0
  146.3073  136.7999  152.6585 H   0  0  0  0  0  0  0  0  0  0  0  0
  147.8704  138.4736  151.7329 H   0  0  0  0  0  0  0  0  0  0  0  0
  146.8592  139.1750  152.9887 H   0  0  0  0  0  0  0  0  0  0  0  0
  146.5211  139.5173  151.2933 H   0  0  0  0  0  0  0  0  0  0  0  0
  145.1424  137.3337  149.9335 H   0  0  0  0  0  0  0  0  0  0  0  0
  146.8687  137.1011  150.0029 H   0  0  0  0  0  0  0  0  0  0  0  0
  147.5400  134.9683  151.5652 H   0  0  0  0  0  0  0  0  0  0  0  0
  146.1300  135.1052  152.6034 H   0  0  0  0  0  0  0  0  0  0  0  0
  146.7278  132.8060  150.6463 H   0  0  0  0  0  0  0  0  0  0  0  0
  146.7823  132.7208  152.3967 H   0  0  0  0  0  0  0  0  0  0  0  0
  144.5669  133.0836  149.5686 H   0  0  0  0  0  0  0  0  0  0  0  0
  143.1377  133.1733  150.5808 H   0  0  0  0  0  0  0  0  0  0  0  0
  143.8318  135.3802  151.4795 H   0  0  0  0  0  0  0  0  0  0  0  0
  143.7722  135.4381  149.7287 H   0  0  0  0  0  0  0  0  0  0  0  0
  146.1201  135.0475  149.6837 H   0  0  0  0  0  0  0  0  0  0  0  0
  1  2  1  0  0  0  0
  1 20  1  0  0  0  0
  1 21  1  0  0  0  0
  1 22  1  0  0  0  0
  2 19  1  0  0  0  0
  2  3  2  0  0  0  0
  3  4  1  0  0  0  0
  3 23  1  0  0  0  0
  4  5  1  0  0  0  0
  4 18  2  0  0  0  0
  5  6  1  0  0  0  0
  5 24  1  0  0  0  0
  6  7  2  0  0  0  0
  6  8  1  0  0  0  0
  8  9  1  0  0  0  0
  8 25  1  0  0  0  0
  9 10  1  0  0  0  0
  9 11  1  0  0  0  0
  9 26  1  0  0  0  0
 10 27  1  0  0  0  0
 10 28  1  0  0  0  0
 10 29  1  0  0  0  0
 11 12  1  0  0  0  0
 11 30  1  0  0  0  0
 11 31  1  0  0  0  0
 12 17  1  0  0  0  0
 12 13  1  0  0  0  0
 12 40  1  0  0  0  0
 13 14  1  0  0  0  0
 13 32  1  0  0  0  0
 13 33  1  0  0  0  0
 14 15  1  0  0  0  0
 14 34  1  0  0  0  0
 14 35  1  0  0  0  0
 15 16  1  0  0  0  0
 16 17  1  0  0  0  0
 16 36  1  0  0  0  0
 16 37  1  0  0  0  0
 17 38  1  0  0  0  0
 17 39  1  0  0  0  0
 18 19  1  0  0  0  0
M  CHG  1  12   1
M  END
> <s_m_source_file>
AV-unprocessed.smi

> <i_m_source_file_index>
1952

> <i_lp_mmshare_version>
43012

> <i_f3d_flags>
0

> <s_epik_input>
W0NIM11jMVtjSF1jKG5vMSlbTkhdQyg9TylbTkhdW0NASF0oW0NIM10pW0NIMl1OMltDSDJdW0NIMl1PW0NIMl1bQ0gyXTI=

> <s_epik_cmdline>
J2VwaWtfcHl0aG9uJywgJy1waCcsICc3LjAnLCAnLXRuJywgJzgnLCAnLW1hJywgJzIwMCcsICctbWV0YWxfYmluZGluZycsICctaW1hZScsICc8aW5maWxlLm1hZT4nLCAnLW9tYWUnLCAnPG91dGZpbGUubWFlPic=

> <r_epik_Ionization_Penalty>
0.707079

> <r_epik_Ionization_Penalty_Charging>
0.707039

> <r_epik_Ionization_Penalty_Neutral>
4.01892e-05

> <r_epik_State_Penalty>
0.730276

> <r_epik_Charging_Adjusted_Penalty>
1.43732

> <i_epik_Tot_Q>
1

> <i_epik_Tot_abs_Q>
1

> <r_epik_Metal_State_Penalty>
0.744847

> <b_epik_Metal_Only>
0

> <s_lp_Force_Field>
OPLS_2005

> <r_lp_Energy>
19.2222

> <b_lp_Chiralities_Consistent>
1

> <s_lp_Variant>
AV-unprocessed.smi:1952-3

> <Gold.Version>
5.8.1

> <Gold.Id.Protein>
6NUR|6NUR_protein|mol2

> <Gold.PLP.Fitness>
44.7869

> <Gold.PLP.PLP>
-35.2628

> <Gold.PLP.part.hbond>
-5.6605

> <Gold.PLP.part.metal>
0.0000

> <Gold.PLP.part.buried>
0.6668

> <Gold.PLP.part.nonpolar>
-30.3828

> <Gold.PLP.part.repulsive>
0.4744

> <Gold.PLP.ligand.clash>
0.0000

> <Gold.PLP.ligand.torsion>
1.1235

> <Gold.PLP.Chemscore.Hbond>
3.9100

> <Gold.PLP.Chemscore.CHOScore>
0.0000

> <Gold.PLP.Chemscore.Metal>
0.0000

> <Gold.Chemscore.Hbonds>
donor molecule, donor type, donor heavy atom, donor atom, acceptor molecule, acceptor atom, score
      L1  H     5    24       P1 10175  0.96
      L1  H     8    25       P1 10175  1.00
      L1  H    12    40       P1  7921  0.94
      P1  H 11000 11005       L1    19  0.98

> <Gold.PLP.Chemscore.Internal.Correction>
0.0411

> <Gold.Rescore>
     Score         DG    S(hbond)    S(metal)    S(lipo)     H(rot)  DE(clash)    DE(int)     intcor
     16.56     -21.11       3.45        0.00      70.17       1.61       2.28       2.27       ----

> <Gold.Chemscore.Fitness>
16.5639

> <Gold.Chemscore.DG>
-21.1091

> <Gold.Chemscore.ZeroCoef>
-5.4800

> <Gold.Chemscore.Hbond>
3.4538

> <Gold.Chemscore.Metal>
0.0000

> <Gold.Chemscore.Lipo>
70.1653

> <Gold.Chemscore.Internal_Hbond>
0.0000

> <Gold.Chemscore.DEClash>
2.2768

> <Gold.Chemscore.DEInternal>
2.2683

> <Gold.Chemscore.Rot>
1.6078

> <Gold.Chemscore.Internal.Correction>
   9.000000E+99

> <Gold.Chemscore.Hbonds>
donor molecule, donor type, donor heavy atom, donor atom, acceptor molecule, acceptor atom, score
      L1  H     5    24       P1 10175  0.87
      L1  H     8    25       P1 10175  1.00
      L1  H    12    40       P1  7921  0.61
      P1  H 11000 11005       L1    19  0.28

> <Gold.Chemscore.Hbond.Weighted>
-11.5356

> <Gold.Chemscore.Metal.Weighted>
-0.0000

> <Gold.Chemscore.Lipo.Weighted>
-8.2093

> <Gold.Chemscore.Internal_Hbond.Weighted>
0.0000

> <Gold.Chemscore.DEClash.Weighted>
2.2768

> <Gold.Chemscore.DEInternal.Weighted>
2.2683

> <Gold.Chemscore.Rot.Weighted>
4.1158

> <Gold.Chemscore.Internal.Correction.Weighted>
   9.000000E+99

> <Gold.Protein.RotatedTorsions>
[ 6907 6896 6895 6894 ] final -125.98 input  -60.11 | X-H torsion
[ 7974 7965 7964 7962 ] final  -34.45 input  175.53 | X-H torsion
[ 8008 7997 7996 7995 ] final  124.37 input   59.86 | X-H torsion
[ 10167 10162 10161 10158 ] final -175.23 input  -65.29 | X-H torsion
[ 10718 10713 10712 10709 ] final  101.39 input   66.30 | X-H torsion
[ 10763 10752 10751 10750 ] final  -70.88 input  -60.55 | X-H torsion
[ 11005 11000 10999 10996 ] final   87.80 input  -57.11 | X-H torsion

> <Gold.Protein.ActiveResidues>
 VAL166  LYS551  ARG553  GLY616  TRP617  ASP618  TYR619  PRO620  LYS621  CYS622 
 ASP623  PHE694  ASN695  SER759  ASP760  ASP761  ALA762  ILE779  LEU786  VAL792 
 PHE793  MET794  SER795  GLU796  ALA797  LYS798  CYS799  TRP800  GLU811  SER814 

> <Gold.Protein.RotatedAtoms>
  150.8923  133.7227  159.2901 H   0  0  0  0  0  0  0  0  0  0  0  0  # atno 6907 bound_to 6896
  151.4773  135.1048  159.9777 H   0  0  0  0  0  0  0  0  0  0  0  0  # atno 6908 bound_to 6896
  152.4827  133.8248  159.7128 H   0  0  0  0  0  0  0  0  0  0  0  0  # atno 6909 bound_to 6896
  146.0828  140.6040  142.8900 H   0  0  0  0  0  0  0  0  0  0  0  0  # atno 7974 bound_to 7965
  156.2799  140.2741  156.1777 H   0  0  0  0  0  0  0  0  0  0  0  0  # atno 8008 bound_to 7997
  155.0589  140.0386  157.2588 H   0  0  0  0  0  0  0  0  0  0  0  0  # atno 8009 bound_to 7997
  154.7133  140.2673  155.6614 H   0  0  0  0  0  0  0  0  0  0  0  0  # atno 8010 bound_to 7997
  139.5592  144.1913  152.1210 H   0  0  0  0  0  0  0  0  0  0  0  0  # atno 10167 bound_to 10162
  157.6830  131.0724  150.5244 H   0  0  0  0  0  0  0  0  0  0  0  0  # atno 10718 bound_to 10713
  154.4239  135.5980  153.6027 H   0  0  0  0  0  0  0  0  0  0  0  0  # atno 10763 bound_to 10752
  152.9795  135.5959  154.3922 H   0  0  0  0  0  0  0  0  0  0  0  0  # atno 10764 bound_to 10752
  154.3751  135.2841  155.2223 H   0  0  0  0  0  0  0  0  0  0  0  0  # atno 10765 bound_to 10752
  139.8911  134.8446  156.2911 H   0  0  0  0  0  0  0  0  0  0  0  0  # atno 11005 bound_to 11000
  144.7305  140.4657  143.6941 LP  0  0  0  0  0  0  0  0  0  0  0  0  # atno 17320 bound_to 7965
  145.6185  139.1521  143.3035 LP  0  0  0  0  0  0  0  0  0  0  0  0  # atno 17321 bound_to 7965
  140.1423  144.5191  150.6736 LP  0  0  0  0  0  0  0  0  0  0  0  0  # atno 17342 bound_to 10162
  140.6869  143.2355  151.5236 LP  0  0  0  0  0  0  0  0  0  0  0  0  # atno 17343 bound_to 10162
  156.5556  130.4242  149.6087 LP  0  0  0  0  0  0  0  0  0  0  0  0  # atno 17370 bound_to 10713
  156.2865  130.7100  151.1938 LP  0  0  0  0  0  0  0  0  0  0  0  0  # atno 17371 bound_to 10713
  140.9976  133.7171  156.0910 LP  0  0  0  0  0  0  0  0  0  0  0  0  # atno 17394 bound_to 11000
  140.7542  134.4011  157.5536 LP  0  0  0  0  0  0  0  0  0  0  0  0  # atno 17395 bound_to 11000

$$$$
