AV-unprocessed.smi:2083|AV-procd|sdf|8490|dock1
  -GOLD-   2272011193D 1   1.00000     0.00000
 Structure written by MMmdl.
 45 46  0  0  0  0  0  0  0  0  2 V2000
  143.9495  143.0041  162.9604 C   0  0  0  0  0  0  0  0  0  0  0  0
  144.6577  143.3418  161.6933 C   0  0  0  0  0  0  0  0  0  0  0  0
  145.8175  142.8921  161.1278 C   0  0  0  0  0  0  0  0  0  0  0  0
  145.8985  143.6425  159.9250 C   0  0  0  0  0  0  0  0  0  0  0  0
  146.9875  143.4706  159.0330 N   0  0  0  0  0  0  0  0  0  0  0  0
  147.5527  142.3154  158.6443 C   0  0  0  0  0  0  0  0  0  0  0  0
  147.2158  141.1941  159.0258 O   0  0  0  0  0  0  0  0  0  0  0  0
  148.5513  142.5293  157.7753 N   0  0  0  0  0  0  0  0  0  0  0  0
  149.3567  141.4819  157.1536 C   0  0  0  0  0  0  0  0  0  0  0  0
  150.6681  142.0171  156.5111 C   0  0  2  0  0  0  0  0  0  0  0  0
  151.3012  140.9343  155.6079 C   0  0  0  0  0  0  0  0  0  0  0  0
  151.6826  142.5120  157.5001 N   0  3  1  0  0  0  0  0  0  0  0  0
  151.2935  143.8256  158.0887 C   0  0  0  0  0  0  0  0  0  0  0  0
  152.4253  144.4232  158.9369 C   0  0  0  0  0  0  0  0  0  0  0  0
  152.8251  143.4597  160.0575 C   0  0  0  0  0  0  0  0  0  0  0  0
  153.2110  142.0990  159.4603 C   0  0  1  0  0  0  0  0  0  0  0  0
  153.6007  141.0971  160.5568 C   0  0  0  0  0  0  0  0  0  0  0  0
  152.0735  141.5502  158.5735 C   0  0  0  0  0  0  0  0  0  0  0  0
  144.8792  144.4729  159.7680 N   0  0  0  0  0  0  0  0  0  0  0  0
  144.0788  144.2849  160.9012 O   0  0  0  0  0  0  0  0  0  0  0  0
  144.4156  142.1492  163.4508 H   0  0  0  0  0  0  0  0  0  0  0  0
  142.9060  142.7551  162.7670 H   0  0  0  0  0  0  0  0  0  0  0  0
  143.9748  143.8460  163.6522 H   0  0  0  0  0  0  0  0  0  0  0  0
  146.4967  142.1478  161.5161 H   0  0  0  0  0  0  0  0  0  0  0  0
  147.3699  144.3185  158.6417 H   0  0  0  0  0  0  0  0  0  0  0  0
  148.7618  143.4821  157.5153 H   0  0  0  0  0  0  0  0  0  0  0  0
  149.5650  140.7360  157.9222 H   0  0  0  0  0  0  0  0  0  0  0  0
  148.7398  140.9946  156.3976 H   0  0  0  0  0  0  0  0  0  0  0  0
  150.3907  142.8650  155.8827 H   0  0  0  0  0  0  0  0  0  0  0  0
  150.6122  140.6016  154.8316 H   0  0  0  0  0  0  0  0  0  0  0  0
  151.5879  140.0576  156.1894 H   0  0  0  0  0  0  0  0  0  0  0  0
  152.1903  141.2874  155.0886 H   0  0  0  0  0  0  0  0  0  0  0  0
  151.0343  144.5418  157.3110 H   0  0  0  0  0  0  0  0  0  0  0  0
  150.3994  143.6977  158.7014 H   0  0  0  0  0  0  0  0  0  0  0  0
  153.2882  144.6361  158.3043 H   0  0  0  0  0  0  0  0  0  0  0  0
  152.1097  145.3766  159.3616 H   0  0  0  0  0  0  0  0  0  0  0  0
  153.6574  143.8755  160.6266 H   0  0  0  0  0  0  0  0  0  0  0  0
  151.9952  143.3410  160.7558 H   0  0  0  0  0  0  0  0  0  0  0  0
  154.0874  142.2473  158.8270 H   0  0  0  0  0  0  0  0  0  0  0  0
  152.7635  140.8959  161.2260 H   0  0  0  0  0  0  0  0  0  0  0  0
  154.4255  141.4766  161.1606 H   0  0  0  0  0  0  0  0  0  0  0  0
  153.9190  140.1468  160.1271 H   0  0  0  0  0  0  0  0  0  0  0  0
  151.1994  141.3056  159.1795 H   0  0  0  0  0  0  0  0  0  0  0  0
  152.4389  140.6214  158.1375 H   0  0  0  0  0  0  0  0  0  0  0  0
  152.5256  142.6722  156.9676 H   0  0  0  0  0  0  0  0  0  0  0  0
  1  2  1  0  0  0  0
  1 21  1  0  0  0  0
  1 22  1  0  0  0  0
  1 23  1  0  0  0  0
  2 20  1  0  0  0  0
  2  3  2  0  0  0  0
  3  4  1  0  0  0  0
  3 24  1  0  0  0  0
  4  5  1  0  0  0  0
  4 19  2  0  0  0  0
  5  6  1  0  0  0  0
  5 25  1  0  0  0  0
  6  7  2  0  0  0  0
  6  8  1  0  0  0  0
  8  9  1  0  0  0  0
  8 26  1  0  0  0  0
  9 10  1  0  0  0  0
  9 27  1  0  0  0  0
  9 28  1  0  0  0  0
 10 11  1  0  0  0  0
 10 12  1  0  0  0  0
 10 29  1  0  0  0  0
 11 30  1  0  0  0  0
 11 31  1  0  0  0  0
 11 32  1  0  0  0  0
 12 18  1  0  0  0  0
 12 13  1  0  0  0  0
 12 45  1  0  0  0  0
 13 14  1  0  0  0  0
 13 33  1  0  0  0  0
 13 34  1  0  0  0  0
 14 15  1  0  0  0  0
 14 35  1  0  0  0  0
 14 36  1  0  0  0  0
 15 16  1  0  0  0  0
 15 37  1  0  0  0  0
 15 38  1  0  0  0  0
 16 17  1  0  0  0  0
 16 18  1  0  0  0  0
 16 39  1  0  0  0  0
 17 40  1  0  0  0  0
 17 41  1  0  0  0  0
 17 42  1  0  0  0  0
 18 43  1  0  0  0  0
 18 44  1  0  0  0  0
 19 20  1  0  0  0  0
M  CHG  1  12   1
M  END
> <s_m_source_file>
AV-unprocessed.smi

> <i_m_source_file_index>
2083

> <i_lp_mmshare_version>
43012

> <i_f3d_flags>
0

> <s_epik_input>
W0NIM11jMVtjSF1jKG5vMSlbTkhdQyg9TylbTkhdW0NIMl1bQ0BIXShbQ0gzXSlOMltDSDJdW0NIMl1bQ0gyXVtDQEBIXShbQ0gzXSlbQ0gyXTI=

> <s_epik_cmdline>
J2VwaWtfcHl0aG9uJywgJy1waCcsICc3LjAnLCAnLXRuJywgJzgnLCAnLW1hJywgJzIwMCcsICctbWV0YWxfYmluZGluZycsICctaW1hZScsICc8aW5maWxlLm1hZT4nLCAnLW9tYWUnLCAnPG91dGZpbGUubWFlPic=

> <r_epik_Ionization_Penalty>
0.00216453

> <r_epik_Ionization_Penalty_Charging>
0.00212879

> <r_epik_Ionization_Penalty_Neutral>
3.57418e-05

> <r_epik_State_Penalty>
0.00146033

> <r_epik_Charging_Adjusted_Penalty>
0.00358912

> <i_epik_Tot_Q>
1

> <i_epik_Tot_abs_Q>
1

> <r_epik_Metal_State_Penalty>
0.0215827

> <b_epik_Metal_Only>
0

> <s_lp_Force_Field>
OPLS_2005

> <r_lp_Energy>
19.0311

> <b_lp_Chiralities_Consistent>
1

> <s_lp_Variant>
AV-unprocessed.smi:2083-1

> <Gold.Version>
5.8.1

> <Gold.Id.Protein>
6NUR|6NUR_protein|mol2

> <Gold.PLP.Fitness>
46.3360

> <Gold.PLP.PLP>
-40.8574

> <Gold.PLP.part.hbond>
-3.0190

> <Gold.PLP.part.metal>
0.0000

> <Gold.PLP.part.buried>
-2.0265

> <Gold.PLP.part.nonpolar>
-35.5156

> <Gold.PLP.part.repulsive>
0.4035

> <Gold.PLP.ligand.clash>
0.0000

> <Gold.PLP.ligand.torsion>
0.6747

> <Gold.PLP.Chemscore.Hbond>
2.2536

> <Gold.PLP.Chemscore.CHOScore>
0.0000

> <Gold.PLP.Chemscore.Metal>
0.0000

> <Gold.Chemscore.Hbonds>
donor molecule, donor type, donor heavy atom, donor atom, acceptor molecule, acceptor atom, score
      L1  H     5    25       P1  8029  0.63
      L1  H     8    26       P1  8028  0.36
      P1  H  6934  6946       L1     7  0.26

> <Gold.PLP.Chemscore.Internal.Correction>
0.0673

> <Gold.Rescore>
     Score         DG    S(hbond)    S(metal)    S(lipo)     H(rot)  DE(clash)    DE(int)     intcor
     17.36     -19.33       1.55        0.00     108.02       1.55       0.27       1.70       ----

> <Gold.Chemscore.Fitness>
17.3636

> <Gold.Chemscore.DG>
-19.3286

> <Gold.Chemscore.ZeroCoef>
-5.4800

> <Gold.Chemscore.Hbond>
1.5483

> <Gold.Chemscore.Metal>
0.0000

> <Gold.Chemscore.Lipo>
108.0218

> <Gold.Chemscore.Internal_Hbond>
0.0000

> <Gold.Chemscore.DEClash>
0.2693

> <Gold.Chemscore.DEInternal>
1.6958

> <Gold.Chemscore.Rot>
1.5474

> <Gold.Chemscore.Internal.Correction>
   9.000000E+99

> <Gold.Chemscore.Hbonds>
donor molecule, donor type, donor heavy atom, donor atom, acceptor molecule, acceptor atom, score
      L1  H     5    25       P1  8029  0.58
      L1  H     8    26       P1  8028  0.06
      P1  H  6934  6946       L1     7  0.26

> <Gold.Chemscore.Hbond.Weighted>
-5.1713

> <Gold.Chemscore.Metal.Weighted>
-0.0000

> <Gold.Chemscore.Lipo.Weighted>
-12.6386

> <Gold.Chemscore.Internal_Hbond.Weighted>
0.0000

> <Gold.Chemscore.DEClash.Weighted>
0.2693

> <Gold.Chemscore.DEInternal.Weighted>
1.6958

> <Gold.Chemscore.Rot.Weighted>
3.9612

> <Gold.Chemscore.Internal.Correction.Weighted>
   9.000000E+99

> <Gold.Protein.RotatedTorsions>
[ 6907 6896 6895 6894 ] final -141.06 input  -60.11 | X-H torsion
[ 7974 7965 7964 7962 ] final  129.24 input  175.53 | X-H torsion
[ 8008 7997 7996 7995 ] final  155.13 input   59.86 | X-H torsion
[ 10167 10162 10161 10158 ] final  -77.08 input  -65.29 | X-H torsion
[ 10718 10713 10712 10709 ] final  -51.24 input   66.30 | X-H torsion
[ 10763 10752 10751 10750 ] final   32.88 input  -60.55 | X-H torsion
[ 11005 11000 10999 10996 ] final   29.07 input  -57.11 | X-H torsion

> <Gold.Protein.ActiveResidues>
 VAL166  LYS551  ARG553  GLY616  TRP617  ASP618  TYR619  PRO620  LYS621  CYS622 
 ASP623  PHE694  ASN695  SER759  ASP760  ASP761  ALA762  ILE779  LEU786  VAL792 
 PHE793  MET794  SER795  GLU796  ALA797  LYS798  CYS799  TRP800  GLU811  SER814 

> <Gold.Protein.RotatedAtoms>
  151.0688  133.5483  159.2628 H   0  0  0  0  0  0  0  0  0  0  0  0  # atno 6907 bound_to 6896
  151.2430  135.0595  159.9042 H   0  0  0  0  0  0  0  0  0  0  0  0  # atno 6908 bound_to 6896
  152.5408  134.0460  159.8142 H   0  0  0  0  0  0  0  0  0  0  0  0  # atno 6909 bound_to 6896
  145.0308  139.4048  143.5150 H   0  0  0  0  0  0  0  0  0  0  0  0  # atno 7974 bound_to 7965
  156.2495  140.1948  156.6753 H   0  0  0  0  0  0  0  0  0  0  0  0  # atno 8008 bound_to 7997
  154.6362  140.0589  156.9817 H   0  0  0  0  0  0  0  0  0  0  0  0  # atno 8009 bound_to 7997
  155.1633  140.3262  155.4409 H   0  0  0  0  0  0  0  0  0  0  0  0  # atno 8010 bound_to 7997
  140.4802  143.2404  151.8070 H   0  0  0  0  0  0  0  0  0  0  0  0  # atno 10167 bound_to 10162
  156.1728  130.4149  149.9622 H   0  0  0  0  0  0  0  0  0  0  0  0  # atno 10718 bound_to 10713
  153.0240  135.6401  154.1424 H   0  0  0  0  0  0  0  0  0  0  0  0  # atno 10763 bound_to 10752
  154.1156  135.2850  155.3222 H   0  0  0  0  0  0  0  0  0  0  0  0  # atno 10764 bound_to 10752
  154.6300  135.5495  153.7733 H   0  0  0  0  0  0  0  0  0  0  0  0  # atno 10765 bound_to 10752
  140.3089  134.2672  155.7738 H   0  0  0  0  0  0  0  0  0  0  0  0  # atno 11005 bound_to 11000
  146.3498  139.9857  142.8691 LP  0  0  0  0  0  0  0  0  0  0  0  0  # atno 17320 bound_to 7965
  145.1773  140.9750  143.4287 LP  0  0  0  0  0  0  0  0  0  0  0  0  # atno 17321 bound_to 7965
  139.4832  144.4782  151.9339 LP  0  0  0  0  0  0  0  0  0  0  0  0  # atno 17342 bound_to 10162
  140.3868  144.2666  150.5903 LP  0  0  0  0  0  0  0  0  0  0  0  0  # atno 17343 bound_to 10162
  156.7416  130.9082  151.3632 LP  0  0  0  0  0  0  0  0  0  0  0  0  # atno 17370 bound_to 10713
  157.6815  130.9144  150.0278 LP  0  0  0  0  0  0  0  0  0  0  0  0  # atno 17371 bound_to 10713
  141.2112  133.7695  156.9877 LP  0  0  0  0  0  0  0  0  0  0  0  0  # atno 17394 bound_to 11000
  140.1043  134.9516  157.1970 LP  0  0  0  0  0  0  0  0  0  0  0  0  # atno 17395 bound_to 11000

$$$$
