AV-unprocessed.smi:1888|AV-procd|sdf|7658|dock9
  -GOLD-   22720 9393D 1   1.00000     0.00000
 Structure written by MMmdl.
 43 45  0  0  0  0  0  0  0  0  2 V2000
  148.3222  141.4924  154.5353 C   0  0  0  0  0  0  0  0  0  0  0  0
  147.8848  140.0409  154.7445 C   0  0  0  0  0  0  0  0  0  0  0  0
  147.0036  139.9819  155.8531 O   0  0  0  0  0  0  0  0  0  0  0  0
  147.6755  139.7051  157.0701 C   0  0  0  0  0  0  0  0  0  0  0  0
  147.8273  138.1856  157.2159 C   0  0  0  0  0  0  0  0  0  0  0  0
  148.9056  137.8331  158.1334 N   0  0  0  0  0  0  0  0  0  0  0  0
  148.8127  137.1268  159.2889 C   0  0  0  0  0  0  0  0  0  0  0  0
  147.5746  136.6327  159.7514 N   0  0  0  0  0  0  0  0  0  0  0  0
  147.0433  137.0999  160.9022 N   0  0  0  0  0  0  0  0  0  0  0  0
  145.9052  136.4413  161.0434 C   0  0  0  0  0  0  0  0  0  0  0  0
  145.0328  136.7238  162.2304 C   0  0  0  0  0  0  0  0  0  0  0  0
  145.6822  135.5179  159.9838 C   0  0  0  0  0  0  0  0  0  0  0  0
  146.7736  135.6644  159.1746 C   0  0  0  0  0  0  0  0  0  0  0  0
  147.1289  134.9778  157.8967 C   0  0  0  0  0  0  0  0  0  0  0  0
  149.9701  136.9265  159.9223 N   0  0  0  0  0  0  0  0  0  0  0  0
  150.8809  137.5771  159.1014 C   0  0  0  0  0  0  0  0  0  0  0  0
  150.2656  138.1321  158.0221 C   0  0  0  0  0  0  0  0  0  0  0  0
  150.9723  138.8917  156.9688 C   0  0  0  0  0  0  0  0  0  0  0  0
  150.3612  139.3750  156.0180 O   0  0  0  0  0  0  0  0  0  0  0  0
  152.3204  138.9680  157.2046 N   0  5  0  0  0  0  0  0  0  0  0  0
  152.9872  138.4208  158.2803 C   0  0  0  0  0  0  0  0  0  0  0  0
  154.2058  138.5368  158.4170 O   0  0  0  0  0  0  0  0  0  0  0  0
  152.2889  137.7251  159.2327 N   0  0  0  0  0  0  0  0  0  0  0  0
  152.9722  137.1305  160.3850 C   0  0  0  0  0  0  0  0  0  0  0  0
  149.0067  141.5750  153.6910 H   0  0  0  0  0  0  0  0  0  0  0  0
  148.8313  141.8788  155.4186 H   0  0  0  0  0  0  0  0  0  0  0  0
  147.4637  142.1338  154.3347 H   0  0  0  0  0  0  0  0  0  0  0  0
  147.3875  139.6693  153.8471 H   0  0  0  0  0  0  0  0  0  0  0  0
  148.7576  139.4114  154.9243 H   0  0  0  0  0  0  0  0  0  0  0  0
  148.6538  140.1875  157.0756 H   0  0  0  0  0  0  0  0  0  0  0  0
  147.1068  140.1098  157.9083 H   0  0  0  0  0  0  0  0  0  0  0  0
  146.8936  137.7505  157.5725 H   0  0  0  0  0  0  0  0  0  0  0  0
  148.0145  137.7205  156.2486 H   0  0  0  0  0  0  0  0  0  0  0  0
  144.0958  136.1700  162.1715 H   0  0  0  0  0  0  0  0  0  0  0  0
  144.7874  137.7842  162.2944 H   0  0  0  0  0  0  0  0  0  0  0  0
  145.5293  136.4390  163.1582 H   0  0  0  0  0  0  0  0  0  0  0  0
  144.8461  134.8499  159.8394 H   0  0  0  0  0  0  0  0  0  0  0  0
  146.3069  134.3527  157.5481 H   0  0  0  0  0  0  0  0  0  0  0  0
  148.0034  134.3409  158.0302 H   0  0  0  0  0  0  0  0  0  0  0  0
  147.3541  135.7034  157.1147 H   0  0  0  0  0  0  0  0  0  0  0  0
  153.4742  137.9018  160.9699 H   0  0  0  0  0  0  0  0  0  0  0  0
  153.7214  136.4101  160.0544 H   0  0  0  0  0  0  0  0  0  0  0  0
  152.2908  136.6071  161.0551 H   0  0  0  0  0  0  0  0  0  0  0  0
  1  2  1  0  0  0  0
  1 25  1  0  0  0  0
  1 26  1  0  0  0  0
  1 27  1  0  0  0  0
  2  3  1  0  0  0  0
  2 28  1  0  0  0  0
  2 29  1  0  0  0  0
  3  4  1  0  0  0  0
  4  5  1  0  0  0  0
  4 30  1  0  0  0  0
  4 31  1  0  0  0  0
  5  6  1  0  0  0  0
  5 32  1  0  0  0  0
  5 33  1  0  0  0  0
  6 17  1  0  0  0  0
  6  7  1  0  0  0  0
  7  8  1  0  0  0  0
  7 15  2  0  0  0  0
  8 13  1  0  0  0  0
  8  9  1  0  0  0  0
  9 10  2  0  0  0  0
 10 11  1  0  0  0  0
 10 12  1  0  0  0  0
 11 34  1  0  0  0  0
 11 35  1  0  0  0  0
 11 36  1  0  0  0  0
 12 13  2  0  0  0  0
 12 37  1  0  0  0  0
 13 14  1  0  0  0  0
 14 38  1  0  0  0  0
 14 39  1  0  0  0  0
 14 40  1  0  0  0  0
 15 16  1  0  0  0  0
 16 23  1  0  0  0  0
 16 17  2  0  0  0  0
 17 18  1  0  0  0  0
 18 19  2  0  0  0  0
 18 20  1  0  0  0  0
 20 21  1  0  0  0  0
 21 22  2  0  0  0  0
 21 23  1  0  0  0  0
 23 24  1  0  0  0  0
 24 41  1  0  0  0  0
 24 42  1  0  0  0  0
 24 43  1  0  0  0  0
M  CHG  1  20  -1
M  END
> <s_m_source_file>
AV-unprocessed.smi

> <i_m_source_file_index>
1888

> <i_lp_mmshare_version>
43012

> <i_f3d_flags>
0

> <s_epik_input>
W0NIM11uMWMoPU8pW25IXWMoPU8pYyhjMTIpbihbQ0gyXVtDSDJdT1tDSDJdW0NIM10pYyhuMiktbjNuYyhbQ0gzXSlbY0hdYzNbQ0gzXQ==

> <s_epik_cmdline>
J2VwaWtfcHl0aG9uJywgJy1waCcsICc3LjAnLCAnLXRuJywgJzgnLCAnLW1hJywgJzIwMCcsICctbWV0YWxfYmluZGluZycsICctaW1hZScsICc8aW5maWxlLm1hZT4nLCAnLW9tYWUnLCAnPG91dGZpbGUubWFlPic=

> <r_lp_tautomer_probability>
1

> <r_epik_Ionization_Penalty>
3.99912

> <r_epik_Ionization_Penalty_Charging>
0.0169474

> <r_epik_Ionization_Penalty_Neutral>
3.98217

> <r_epik_State_Penalty>
3.98062

> <r_epik_Charging_Adjusted_Penalty>
3.99756

> <i_epik_Tot_Q>
-1

> <i_epik_Tot_abs_Q>
1

> <r_epik_Metal_State_Penalty>
0.61592

> <b_epik_Metal_Only>
1

> <s_lp_Force_Field>
OPLS_2005

> <r_lp_Energy>
30.4579

> <b_lp_Chiralities_Consistent>
1

> <s_lp_Variant>
AV-unprocessed.smi:1888-2

> <Gold.Version>
5.8.1

> <Gold.Id.Protein>
6NUR|6NUR_protein|mol2

> <Gold.PLP.Fitness>
41.0617

> <Gold.PLP.PLP>
-28.5306

> <Gold.PLP.part.hbond>
-5.6228

> <Gold.PLP.part.metal>
0.0000

> <Gold.PLP.part.buried>
-2.0059

> <Gold.PLP.part.nonpolar>
-20.3277

> <Gold.PLP.part.repulsive>
0.0011

> <Gold.PLP.ligand.clash>
0.0000

> <Gold.PLP.ligand.torsion>
1.7169

> <Gold.PLP.Chemscore.Hbond>
5.1404

> <Gold.PLP.Chemscore.CHOScore>
0.0000

> <Gold.PLP.Chemscore.Metal>
0.0000

> <Gold.Chemscore.Hbonds>
donor molecule, donor type, donor heavy atom, donor atom, acceptor molecule, acceptor atom, score
      P1  H  6896  6909       L1    15  0.33
      P1  H  6934  6947       L1     9  1.00

> <Gold.PLP.Chemscore.Internal.Correction>
0.5439

> <Gold.Rescore>
     Score         DG    S(hbond)    S(metal)    S(lipo)     H(rot)  DE(clash)    DE(int)     intcor
     12.28     -14.34       2.44        0.00      42.46       1.67       0.16       1.90       ----

> <Gold.Chemscore.Fitness>
12.2750

> <Gold.Chemscore.DG>
-14.3436

> <Gold.Chemscore.ZeroCoef>
-5.4800

> <Gold.Chemscore.Hbond>
2.4444

> <Gold.Chemscore.Metal>
0.0000

> <Gold.Chemscore.Lipo>
42.4635

> <Gold.Chemscore.Internal_Hbond>
0.0000

> <Gold.Chemscore.DEClash>
0.1644

> <Gold.Chemscore.DEInternal>
1.9042

> <Gold.Chemscore.Rot>
1.6675

> <Gold.Chemscore.Internal.Correction>
   9.000000E+99

> <Gold.Chemscore.Hbonds>
donor molecule, donor type, donor heavy atom, donor atom, acceptor molecule, acceptor atom, score
      P1  H  6896  6909       L1    15  0.02
      P1  H  6934  6947       L1     9  0.69

> <Gold.Chemscore.Hbond.Weighted>
-8.1643

> <Gold.Chemscore.Metal.Weighted>
-0.0000

> <Gold.Chemscore.Lipo.Weighted>
-4.9682

> <Gold.Chemscore.Internal_Hbond.Weighted>
0.0000

> <Gold.Chemscore.DEClash.Weighted>
0.1644

> <Gold.Chemscore.DEInternal.Weighted>
1.9042

> <Gold.Chemscore.Rot.Weighted>
4.2689

> <Gold.Chemscore.Internal.Correction.Weighted>
   9.000000E+99

> <Gold.Protein.RotatedTorsions>
[ 6907 6896 6895 6894 ] final   99.01 input  -60.11 | X-H torsion
[ 7974 7965 7964 7962 ] final  -23.27 input  175.53 | X-H torsion
[ 8008 7997 7996 7995 ] final -169.02 input   59.86 | X-H torsion
[ 10167 10162 10161 10158 ] final   86.63 input  -65.29 | X-H torsion
[ 10718 10713 10712 10709 ] final  118.97 input   66.30 | X-H torsion
[ 10763 10752 10751 10750 ] final  172.53 input  -60.55 | X-H torsion
[ 11005 11000 10999 10996 ] final -109.15 input  -57.11 | X-H torsion

> <Gold.Protein.ActiveResidues>
 VAL166  LYS551  ARG553  GLY616  TRP617  ASP618  TYR619  PRO620  LYS621  CYS622 
 ASP623  PHE694  ASN695  SER759  ASP760  ASP761  ALA762  ILE779  LEU786  VAL792 
 PHE793  MET794  SER795  GLU796  ALA797  LYS798  CYS799  TRP800  GLU811  SER814 

> <Gold.Protein.RotatedAtoms>
  152.5399  134.0494  159.8102 H   0  0  0  0  0  0  0  0  0  0  0  0  # atno 6907 bound_to 6896
  151.0638  133.5515  159.2639 H   0  0  0  0  0  0  0  0  0  0  0  0  # atno 6908 bound_to 6896
  151.2404  135.0595  159.9076 H   0  0  0  0  0  0  0  0  0  0  0  0  # atno 6909 bound_to 6896
  146.1626  140.4593  142.8565 H   0  0  0  0  0  0  0  0  0  0  0  0  # atno 7974 bound_to 7965
  155.8993  140.1038  157.1362 H   0  0  0  0  0  0  0  0  0  0  0  0  # atno 8008 bound_to 7997
  154.4024  140.1295  156.4480 H   0  0  0  0  0  0  0  0  0  0  0  0  # atno 8009 bound_to 7997
  155.7442  140.3466  155.5121 H   0  0  0  0  0  0  0  0  0  0  0  0  # atno 8010 bound_to 7997
  139.8855  144.6415  150.8796 H   0  0  0  0  0  0  0  0  0  0  0  0  # atno 10167 bound_to 10162
  157.5994  131.1053  150.7831 H   0  0  0  0  0  0  0  0  0  0  0  0  # atno 10718 bound_to 10713
  154.4273  135.2759  155.1936 H   0  0  0  0  0  0  0  0  0  0  0  0  # atno 10763 bound_to 10752
  154.3856  135.6077  153.5818 H   0  0  0  0  0  0  0  0  0  0  0  0  # atno 10764 bound_to 10752
  152.9835  135.5891  154.4579 H   0  0  0  0  0  0  0  0  0  0  0  0  # atno 10765 bound_to 10752
  141.0863  133.9133  157.2177 H   0  0  0  0  0  0  0  0  0  0  0  0  # atno 11005 bound_to 11000
  144.8048  140.6279  143.6454 LP  0  0  0  0  0  0  0  0  0  0  0  0  # atno 17320 bound_to 7965
  145.4549  139.1519  143.3898 LP  0  0  0  0  0  0  0  0  0  0  0  0  # atno 17321 bound_to 7965
  140.7736  143.3551  151.1937 LP  0  0  0  0  0  0  0  0  0  0  0  0  # atno 17342 bound_to 10162
  139.7157  143.9305  152.2965 LP  0  0  0  0  0  0  0  0  0  0  0  0  # atno 17343 bound_to 10162
  156.8233  130.4991  149.5340 LP  0  0  0  0  0  0  0  0  0  0  0  0  # atno 17370 bound_to 10713
  156.1063  130.6007  150.9977 LP  0  0  0  0  0  0  0  0  0  0  0  0  # atno 17371 bound_to 10713
  139.9682  135.0136  156.9443 LP  0  0  0  0  0  0  0  0  0  0  0  0  # atno 17394 bound_to 11000
  140.5355  134.0772  155.7327 LP  0  0  0  0  0  0  0  0  0  0  0  0  # atno 17395 bound_to 11000

$$$$
