AV-unprocessed.smi:1535|AV-procd|sdf|6183|dock10
  -GOLD-   22720 6343D 1   1.00000     0.00000
 Structure written by MMmdl.
 47 48  0  0  0  0  0  0  0  0  2 V2000
  151.5987  144.0466  160.0089 C   0  0  0  0  0  0  0  0  0  0  0  0
  151.5573  142.9169  158.9949 C   0  0  0  0  0  0  0  0  0  0  0  0
  150.6377  142.9874  157.9243 C   0  0  0  0  0  0  0  0  0  0  0  0
  150.5685  141.9581  156.9604 C   0  0  0  0  0  0  0  0  0  0  0  0
  149.7577  141.8223  155.8467 N   0  0  0  0  0  0  0  0  0  0  0  0
  150.1680  140.6569  155.3558 C   0  0  0  0  0  0  0  0  0  0  0  0
  151.1623  140.0276  156.0118 N   0  0  0  0  0  0  0  0  0  0  0  0
  151.7830  138.7634  155.6595 C   0  0  0  0  0  0  0  0  0  0  0  0
  150.8902  137.9028  154.7435 C   0  0  1  0  0  0  0  0  0  0  0  0
  151.7285  137.0407  154.0010 O   0  0  0  0  0  0  0  0  0  0  0  0
  149.8504  137.0530  155.5048 C   0  0  0  0  0  0  0  0  0  0  0  0
  148.6089  136.8682  154.7102 N   0  3  2  0  0  0  0  0  0  0  0  0
  147.9099  138.1484  154.4481 C   0  0  0  0  0  0  0  0  0  0  0  0
  147.6958  135.8420  155.2739 C   0  0  0  0  0  0  0  0  0  0  0  0
  148.4113  134.5050  155.5510 C   0  0  1  0  0  0  0  0  0  0  0  0
  149.5027  134.2266  154.5099 C   0  0  0  0  0  0  0  0  0  0  0  0
  148.9667  134.4675  156.9136 C   0  0  0  0  0  0  0  0  0  0  0  0
  149.4046  134.4421  157.9835 N   0  0  0  0  0  0  0  0  0  0  0  0
  151.4535  140.8488  157.0960 C   0  0  0  0  0  0  0  0  0  0  0  0
  152.3696  140.7653  158.1592 C   0  0  0  0  0  0  0  0  0  0  0  0
  152.4245  141.8013  159.1146 C   0  0  0  0  0  0  0  0  0  0  0  0
  153.4166  141.7008  160.2597 C   0  0  0  0  0  0  0  0  0  0  0  0
  150.8871  144.8338  159.7574 H   0  0  0  0  0  0  0  0  0  0  0  0
  152.5925  144.4935  160.0436 H   0  0  0  0  0  0  0  0  0  0  0  0
  151.3500  143.6755  161.0033 H   0  0  0  0  0  0  0  0  0  0  0  0
  149.9751  143.8359  157.8348 H   0  0  0  0  0  0  0  0  0  0  0  0
  149.7276  140.2423  154.4607 H   0  0  0  0  0  0  0  0  0  0  0  0
  152.7347  138.9773  155.1704 H   0  0  0  0  0  0  0  0  0  0  0  0
  152.0168  138.2236  156.5784 H   0  0  0  0  0  0  0  0  0  0  0  0
  150.3856  138.5590  154.0349 H   0  0  0  0  0  0  0  0  0  0  0  0
  151.4385  137.0319  153.1012 H   0  0  0  0  0  0  0  0  0  0  0  0
  150.3023  136.0948  155.7607 H   0  0  0  0  0  0  0  0  0  0  0  0
  149.5838  137.5115  156.4579 H   0  0  0  0  0  0  0  0  0  0  0  0
  147.5144  138.5733  155.3716 H   0  0  0  0  0  0  0  0  0  0  0  0
  147.0783  137.9988  153.7588 H   0  0  0  0  0  0  0  0  0  0  0  0
  148.5778  138.8821  153.9969 H   0  0  0  0  0  0  0  0  0  0  0  0
  147.2260  136.2283  156.1798 H   0  0  0  0  0  0  0  0  0  0  0  0
  146.8881  135.6520  154.5651 H   0  0  0  0  0  0  0  0  0  0  0  0
  147.6940  133.6869  155.5007 H   0  0  0  0  0  0  0  0  0  0  0  0
  149.9835  133.2660  154.6960 H   0  0  0  0  0  0  0  0  0  0  0  0
  150.2761  134.9949  154.5327 H   0  0  0  0  0  0  0  0  0  0  0  0
  149.0879  134.1985  153.5020 H   0  0  0  0  0  0  0  0  0  0  0  0
  153.0242  139.9104  158.2413 H   0  0  0  0  0  0  0  0  0  0  0  0
  153.9777  140.7668  160.2190 H   0  0  0  0  0  0  0  0  0  0  0  0
  152.8993  141.7369  161.2187 H   0  0  0  0  0  0  0  0  0  0  0  0
  154.1307  142.5233  160.2196 H   0  0  0  0  0  0  0  0  0  0  0  0
  148.8993  136.5143  153.8092 H   0  0  0  0  0  0  0  0  0  0  0  0
  1  2  1  0  0  0  0
  1 23  1  0  0  0  0
  1 24  1  0  0  0  0
  1 25  1  0  0  0  0
  2 21  1  0  0  0  0
  2  3  2  0  0  0  0
  3  4  1  0  0  0  0
  3 26  1  0  0  0  0
  4 19  2  0  0  0  0
  4  5  1  0  0  0  0
  5  6  2  0  0  0  0
  6  7  1  0  0  0  0
  6 27  1  0  0  0  0
  7  8  1  0  0  0  0
  7 19  1  0  0  0  0
  8  9  1  0  0  0  0
  8 28  1  0  0  0  0
  8 29  1  0  0  0  0
  9 10  1  0  0  0  0
  9 11  1  0  0  0  0
  9 30  1  0  0  0  0
 10 31  1  0  0  0  0
 11 12  1  0  0  0  0
 11 32  1  0  0  0  0
 11 33  1  0  0  0  0
 12 13  1  0  0  0  0
 12 14  1  0  0  0  0
 12 47  1  0  0  0  0
 13 34  1  0  0  0  0
 13 35  1  0  0  0  0
 13 36  1  0  0  0  0
 14 15  1  0  0  0  0
 14 37  1  0  0  0  0
 14 38  1  0  0  0  0
 15 16  1  0  0  0  0
 15 17  1  0  0  0  0
 15 39  1  0  0  0  0
 16 40  1  0  0  0  0
 16 41  1  0  0  0  0
 16 42  1  0  0  0  0
 17 18  3  0  0  0  0
 19 20  1  0  0  0  0
 20 21  2  0  0  0  0
 20 43  1  0  0  0  0
 21 22  1  0  0  0  0
 22 44  1  0  0  0  0
 22 45  1  0  0  0  0
 22 46  1  0  0  0  0
M  CHG  1  12   1
M  END
> <s_m_source_file>
AV-unprocessed.smi

> <i_m_source_file_index>
1535

> <i_lp_mmshare_version>
43012

> <i_f3d_flags>
0

> <s_epik_input>
W0NIM11jKFtjSF0xKWMoW0NIM10pW2NIXWMoYzEyKW4oW2NIXW4yKVtDSDJdW0NASF0oW09IXSlbQ0gyXU4oW0NIM10pW0NIMl1bQ0BIXShbQ0gzXSlDI04=

> <s_epik_cmdline>
J2VwaWtfcHl0aG9uJywgJy1waCcsICc3LjAnLCAnLXRuJywgJzgnLCAnLW1hJywgJzIwMCcsICctbWV0YWxfYmluZGluZycsICctaW1hZScsICc8aW5maWxlLm1hZT4nLCAnLW9tYWUnLCAnPG91dGZpbGUubWFlPic=

> <r_epik_Ionization_Penalty>
2.21058

> <r_epik_Ionization_Penalty_Charging>
2.12381

> <r_epik_Ionization_Penalty_Neutral>
0.0867699

> <r_epik_State_Penalty>
2.36208

> <r_epik_Charging_Adjusted_Penalty>
4.48589

> <i_epik_Tot_Q>
1

> <i_epik_Tot_abs_Q>
1

> <r_epik_Metal_State_Penalty>
2.2818

> <b_epik_Metal_Only>
0

> <s_lp_Force_Field>
OPLS_2005

> <r_lp_Energy>
13.4259

> <b_lp_Chiralities_Consistent>
1

> <s_lp_Variant>
AV-unprocessed.smi:1535-14

> <Gold.Version>
5.8.1

> <Gold.Id.Protein>
6NUR|6NUR_protein|mol2

> <Gold.PLP.Fitness>
52.6359

> <Gold.PLP.PLP>
-40.3029

> <Gold.PLP.part.hbond>
-4.0000

> <Gold.PLP.part.metal>
0.0000

> <Gold.PLP.part.buried>
-4.6232

> <Gold.PLP.part.nonpolar>
-32.4387

> <Gold.PLP.part.repulsive>
0.4623

> <Gold.PLP.ligand.clash>
0.0000

> <Gold.PLP.ligand.torsion>
1.3663

> <Gold.PLP.Chemscore.Hbond>
4.9760

> <Gold.PLP.Chemscore.CHOScore>
0.0000

> <Gold.PLP.Chemscore.Metal>
0.0000

> <Gold.Chemscore.Hbonds>
donor molecule, donor type, donor heavy atom, donor atom, acceptor molecule, acceptor atom, score
      L1  H    10    31       P1  7949  0.94
      L1  H    12    47       P1  7948  2.00
      P1  H  6896  6908       L1    18  1.00
      P1  H 10752 10765       L1    10  1.00

> <Gold.PLP.Chemscore.Internal.Correction>
0.1376

> <Gold.Rescore>
     Score         DG    S(hbond)    S(metal)    S(lipo)     H(rot)  DE(clash)    DE(int)     intcor
     21.18     -22.85       3.66        0.00     100.86       2.60       0.20       1.46       ----

> <Gold.Chemscore.Fitness>
21.1833

> <Gold.Chemscore.DG>
-22.8457

> <Gold.Chemscore.ZeroCoef>
-5.4800

> <Gold.Chemscore.Hbond>
3.6613

> <Gold.Chemscore.Metal>
0.0000

> <Gold.Chemscore.Lipo>
100.8624

> <Gold.Chemscore.Internal_Hbond>
0.0000

> <Gold.Chemscore.DEClash>
0.2038

> <Gold.Chemscore.DEInternal>
1.4586

> <Gold.Chemscore.Rot>
2.6031

> <Gold.Chemscore.Internal.Correction>
   9.000000E+99

> <Gold.Chemscore.Hbonds>
donor molecule, donor type, donor heavy atom, donor atom, acceptor molecule, acceptor atom, score
      L1  H    10    31       P1  7949  0.77
      L1  H    12    47       P1  7948  0.98
      P1  H  6896  6908       L1    18  0.98
      P1  H 10752 10765       L1    10  0.29

> <Gold.Chemscore.Hbond.Weighted>
-12.2288

> <Gold.Chemscore.Metal.Weighted>
-0.0000

> <Gold.Chemscore.Lipo.Weighted>
-11.8009

> <Gold.Chemscore.Internal_Hbond.Weighted>
0.0000

> <Gold.Chemscore.DEClash.Weighted>
0.2038

> <Gold.Chemscore.DEInternal.Weighted>
1.4586

> <Gold.Chemscore.Rot.Weighted>
6.6640

> <Gold.Chemscore.Internal.Correction.Weighted>
   9.000000E+99

> <Gold.Protein.RotatedTorsions>
[ 6907 6896 6895 6894 ] final  129.63 input  -60.11 | X-H torsion
[ 7974 7965 7964 7962 ] final  -99.06 input  175.53 | X-H torsion
[ 8008 7997 7996 7995 ] final   66.09 input   59.86 | X-H torsion
[ 10167 10162 10161 10158 ] final  -41.16 input  -65.29 | X-H torsion
[ 10718 10713 10712 10709 ] final   44.07 input   66.30 | X-H torsion
[ 10763 10752 10751 10750 ] final  140.47 input  -60.55 | X-H torsion
[ 11005 11000 10999 10996 ] final   39.83 input  -57.11 | X-H torsion

> <Gold.Protein.ActiveResidues>
 VAL166  LYS551  ARG553  GLY616  TRP617  ASP618  TYR619  PRO620  LYS621  CYS622 
 ASP623  PHE694  ASN695  SER759  ASP760  ASP761  ALA762  ILE779  LEU786  VAL792 
 PHE793  MET794  SER795  GLU796  ALA797  LYS798  CYS799  TRP800  GLU811  SER814 

> <Gold.Protein.RotatedAtoms>
  152.3605  133.6291  159.6011 H   0  0  0  0  0  0  0  0  0  0  0  0  # atno 6907 bound_to 6896
  150.7598  133.9431  159.3471 H   0  0  0  0  0  0  0  0  0  0  0  0  # atno 6908 bound_to 6896
  151.7270  135.0884  160.0345 H   0  0  0  0  0  0  0  0  0  0  0  0  # atno 6909 bound_to 6896
  145.3125  140.9403  143.2762 H   0  0  0  0  0  0  0  0  0  0  0  0  # atno 7974 bound_to 7965
  155.6719  140.3497  155.4821 H   0  0  0  0  0  0  0  0  0  0  0  0  # atno 8008 bound_to 7997
  155.9681  140.1150  157.0859 H   0  0  0  0  0  0  0  0  0  0  0  0  # atno 8009 bound_to 7997
  154.4159  140.1162  156.5255 H   0  0  0  0  0  0  0  0  0  0  0  0  # atno 8010 bound_to 7997
  140.7011  143.3111  151.3027 H   0  0  0  0  0  0  0  0  0  0  0  0  # atno 10167 bound_to 10162
  157.4228  130.7979  149.7531 H   0  0  0  0  0  0  0  0  0  0  0  0  # atno 10718 bound_to 10713
  153.9232  135.2998  155.3447 H   0  0  0  0  0  0  0  0  0  0  0  0  # atno 10763 bound_to 10752
  154.7565  135.4955  153.9387 H   0  0  0  0  0  0  0  0  0  0  0  0  # atno 10764 bound_to 10752
  153.1131  135.6764  153.9569 H   0  0  0  0  0  0  0  0  0  0  0  0  # atno 10765 bound_to 10752
  140.1989  134.3894  155.8106 H   0  0  0  0  0  0  0  0  0  0  0  0  # atno 11005 bound_to 11000
  144.9004  139.4656  143.6635 LP  0  0  0  0  0  0  0  0  0  0  0  0  # atno 17320 bound_to 7965
  146.3113  139.7755  142.9018 LP  0  0  0  0  0  0  0  0  0  0  0  0  # atno 17321 bound_to 7965
  139.6533  144.0321  152.2642 LP  0  0  0  0  0  0  0  0  0  0  0  0  # atno 17342 bound_to 10162
  139.9865  144.6392  150.7853 LP  0  0  0  0  0  0  0  0  0  0  0  0  # atno 17343 bound_to 10162
  155.9886  130.3958  150.3110 LP  0  0  0  0  0  0  0  0  0  0  0  0  # atno 17370 bound_to 10713
  157.1259  131.0259  151.2989 LP  0  0  0  0  0  0  0  0  0  0  0  0  # atno 17371 bound_to 10713
  141.2227  133.7084  156.8224 LP  0  0  0  0  0  0  0  0  0  0  0  0  # atno 17394 bound_to 11000
  140.2076  134.8851  157.3238 LP  0  0  0  0  0  0  0  0  0  0  0  0  # atno 17395 bound_to 11000

$$$$
