AV-unprocessed.smi:529|AV-procd|sdf|2841|dock6
  -GOLD-   2262023333D 1   1.00000     0.00000
 Structure written by MMmdl.
 30 31  0  0  0  0  0  0  0  0  1 V2000
  148.9347  139.5517  157.7724 N   0  0  0  0  0  0  0  0  0  0  0  0
  149.0649  139.4744  156.4947 C   0  0  0  0  0  0  0  0  0  0  0  0
  148.9040  137.9686  155.4719 S   0  0  0  0  0  0  0  0  0  0  0  0
  149.2228  138.9199  154.0370 C   0  0  0  0  0  0  0  0  0  0  0  0
  149.4252  140.2053  154.3212 C   0  0  0  0  0  0  0  0  0  0  0  0
  149.3543  140.5523  155.6551 N   0  0  0  0  0  0  0  0  0  0  0  0
  149.4989  141.9335  156.1160 C   0  0  0  0  0  0  0  0  0  0  0  0
  150.7488  142.1585  156.9777 C   0  0  0  0  0  0  0  0  0  0  0  0
  151.4413  141.2114  157.3538 O   0  0  0  0  0  0  0  0  0  0  0  0
  151.0147  143.4336  157.2987 N   0  0  0  0  0  0  0  0  0  0  0  0
  152.1506  143.8774  158.1021 C   0  0  0  0  0  0  0  0  0  0  0  0
  152.3804  142.9676  159.3275 C   0  0  0  0  0  0  0  0  0  0  0  0
  152.4957  143.9010  160.5339 C   0  0  0  0  0  0  0  0  0  0  0  0
  151.6456  145.1100  160.1579 C   0  0  0  0  0  0  0  0  0  0  0  0
  151.8973  145.2897  158.6607 C   0  0  0  0  0  0  0  0  0  0  0  0
  149.0720  140.5038  158.0802 H   0  0  0  0  0  0  0  0  0  0  0  0
  149.2385  138.4671  153.0568 H   0  0  0  0  0  0  0  0  0  0  0  0
  149.6357  140.9931  153.6128 H   0  0  0  0  0  0  0  0  0  0  0  0
  149.5162  142.6140  155.2630 H   0  0  0  0  0  0  0  0  0  0  0  0
  148.6228  142.2114  156.7032 H   0  0  0  0  0  0  0  0  0  0  0  0
  150.3922  144.1497  156.9535 H   0  0  0  0  0  0  0  0  0  0  0  0
  153.0448  143.9014  157.4763 H   0  0  0  0  0  0  0  0  0  0  0  0
  151.5311  142.2988  159.4769 H   0  0  0  0  0  0  0  0  0  0  0  0
  153.2650  142.3406  159.2124 H   0  0  0  0  0  0  0  0  0  0  0  0
  152.1711  143.4296  161.4620 H   0  0  0  0  0  0  0  0  0  0  0  0
  153.5343  144.2090  160.6620 H   0  0  0  0  0  0  0  0  0  0  0  0
  150.5920  144.8858  160.3295 H   0  0  0  0  0  0  0  0  0  0  0  0
  151.8972  145.9989  160.7366 H   0  0  0  0  0  0  0  0  0  0  0  0
  152.7929  145.8963  158.5195 H   0  0  0  0  0  0  0  0  0  0  0  0
  151.0773  145.8123  158.1663 H   0  0  0  0  0  0  0  0  0  0  0  0
  1  2  2  0  0  0  0
  1 16  1  0  0  0  0
  2  6  1  0  0  0  0
  2  3  1  0  0  0  0
  3  4  1  0  0  0  0
  4  5  2  0  0  0  0
  4 17  1  0  0  0  0
  5  6  1  0  0  0  0
  5 18  1  0  0  0  0
  6  7  1  0  0  0  0
  7  8  1  0  0  0  0
  7 19  1  0  0  0  0
  7 20  1  0  0  0  0
  8  9  2  0  0  0  0
  8 10  1  0  0  0  0
 10 11  1  0  0  0  0
 10 21  1  0  0  0  0
 11 15  1  0  0  0  0
 11 12  1  0  0  0  0
 11 22  1  0  0  0  0
 12 13  1  0  0  0  0
 12 23  1  0  0  0  0
 12 24  1  0  0  0  0
 13 14  1  0  0  0  0
 13 25  1  0  0  0  0
 13 26  1  0  0  0  0
 14 15  1  0  0  0  0
 14 27  1  0  0  0  0
 14 28  1  0  0  0  0
 15 29  1  0  0  0  0
 15 30  1  0  0  0  0
M  END
> <s_m_source_file>
AV-unprocessed.smi

> <i_m_source_file_index>
529

> <i_lp_mmshare_version>
43012

> <i_f3d_flags>
0

> <s_epik_input>
W0hdL049YzFcc1tjSF1bY0hdbjFbQ0gyXUMoPU8pW05IXVtDSF0yW0NIMl1bQ0gyXVtDSDJdW0NIMl0y

> <s_epik_cmdline>
J2VwaWtfcHl0aG9uJywgJy1waCcsICc3LjAnLCAnLXRuJywgJzgnLCAnLW1hJywgJzIwMCcsICctbWV0YWxfYmluZGluZycsICctaW1hZScsICc8aW5maWxlLm1hZT4nLCAnLW9tYWUnLCAnPG91dGZpbGUubWFlPic=

> <r_epik_Ionization_Penalty>
2.18041

> <r_epik_Ionization_Penalty_Charging>
2.18041

> <r_epik_Ionization_Penalty_Neutral>
1.25369e-07

> <r_epik_State_Penalty>
2.33404

> <r_epik_Charging_Adjusted_Penalty>
4.51444

> <i_epik_Tot_Q>
0

> <i_epik_Tot_abs_Q>
0

> <r_epik_Metal_State_Penalty>
2.33404

> <b_epik_Metal_Only>
0

> <s_lp_Force_Field>
OPLS_2005

> <r_lp_Energy>
18.55

> <b_lp_Chiralities_Consistent>
1

> <s_lp_Variant>
AV-unprocessed.smi:529-3

> <Gold.Version>
5.8.1

> <Gold.Id.Protein>
6NUR|6NUR_protein|mol2

> <Gold.PLP.Fitness>
39.3478

> <Gold.PLP.PLP>
-30.7068

> <Gold.PLP.part.hbond>
-1.0000

> <Gold.PLP.part.metal>
0.0000

> <Gold.PLP.part.buried>
-1.2440

> <Gold.PLP.part.nonpolar>
-27.5565

> <Gold.PLP.part.repulsive>
0.0163

> <Gold.PLP.ligand.clash>
0.0000

> <Gold.PLP.ligand.torsion>
0.3538

> <Gold.PLP.Chemscore.Hbond>
0.9913

> <Gold.PLP.Chemscore.CHOScore>
2.1213

> <Gold.PLP.Chemscore.Metal>
0.0000

> <Gold.Chemscore.Hbonds>
donor molecule, donor type, donor heavy atom, donor atom, acceptor molecule, acceptor atom, score
      L1  H    10    21       P1  8028  0.98
      L1  C     4    17       P1  7948  1.00
      L1  C     4    17       P1  7957  0.73
      L1  C     5    18       P1  7957  0.47

> <Gold.PLP.Chemscore.Internal.Correction>
0.0108

> <Gold.Rescore>
     Score         DG    S(hbond)    S(metal)    S(lipo)     H(rot)  DE(clash)    DE(int)     intcor
     12.53     -14.44       0.97        0.00      83.08       1.56       0.07       1.85       ----

> <Gold.Chemscore.Fitness>
12.5277

> <Gold.Chemscore.DG>
-14.4446

> <Gold.Chemscore.ZeroCoef>
-5.4800

> <Gold.Chemscore.Hbond>
0.9721

> <Gold.Chemscore.Metal>
0.0000

> <Gold.Chemscore.Lipo>
83.0798

> <Gold.Chemscore.Internal_Hbond>
0.0000

> <Gold.Chemscore.DEClash>
0.0680

> <Gold.Chemscore.DEInternal>
1.8488

> <Gold.Chemscore.Rot>
1.5635

> <Gold.Chemscore.Internal.Correction>
   9.000000E+99

> <Gold.Chemscore.Hbonds>
donor molecule, donor type, donor heavy atom, donor atom, acceptor molecule, acceptor atom, score
      L1  H    10    21       P1  8028  0.84

> <Gold.Chemscore.Hbond.Weighted>
-3.2468

> <Gold.Chemscore.Metal.Weighted>
-0.0000

> <Gold.Chemscore.Lipo.Weighted>
-9.7203

> <Gold.Chemscore.Internal_Hbond.Weighted>
0.0000

> <Gold.Chemscore.DEClash.Weighted>
0.0680

> <Gold.Chemscore.DEInternal.Weighted>
1.8488

> <Gold.Chemscore.Rot.Weighted>
4.0025

> <Gold.Chemscore.Internal.Correction.Weighted>
   9.000000E+99

> <Gold.Protein.RotatedTorsions>
[ 6907 6896 6895 6894 ] final -171.57 input  -60.11 | X-H torsion
[ 7974 7965 7964 7962 ] final   57.59 input  175.53 | X-H torsion
[ 8008 7997 7996 7995 ] final  -99.96 input   59.86 | X-H torsion
[ 10167 10162 10161 10158 ] final   52.20 input  -65.29 | X-H torsion
[ 10718 10713 10712 10709 ] final  155.48 input   66.30 | X-H torsion
[ 10763 10752 10751 10750 ] final  -55.65 input  -60.55 | X-H torsion
[ 11005 11000 10999 10996 ] final -116.01 input  -57.11 | X-H torsion

> <Gold.Protein.ActiveResidues>
 VAL166  LYS551  ARG553  GLY616  TRP617  ASP618  TYR619  PRO620  LYS621  CYS622 
 ASP623  PHE694  ASN695  SER759  ASP760  ASP761  ALA762  ILE779  LEU786  VAL792 
 PHE793  MET794  SER795  GLU796  ALA797  LYS798  CYS799  TRP800  GLU811  SER814 

> <Gold.Protein.RotatedAtoms>
  151.5259  133.3458  159.2909 H   0  0  0  0  0  0  0  0  0  0  0  0  # atno 6907 bound_to 6896
  150.8623  134.7981  159.7103 H   0  0  0  0  0  0  0  0  0  0  0  0  # atno 6908 bound_to 6896
  152.4639  134.5130  159.9811 H   0  0  0  0  0  0  0  0  0  0  0  0  # atno 6909 bound_to 6896
  145.9274  139.3779  143.0442 H   0  0  0  0  0  0  0  0  0  0  0  0  # atno 7974 bound_to 7965
  154.8221  140.0444  157.1418 H   0  0  0  0  0  0  0  0  0  0  0  0  # atno 8008 bound_to 7997
  154.9248  140.3032  155.5177 H   0  0  0  0  0  0  0  0  0  0  0  0  # atno 8009 bound_to 7997
  156.2981  140.2334  156.4302 H   0  0  0  0  0  0  0  0  0  0  0  0  # atno 8010 bound_to 7997
  140.2539  144.3448  150.6339 H   0  0  0  0  0  0  0  0  0  0  0  0  # atno 10167 bound_to 10162
  157.2178  131.0712  151.1930 H   0  0  0  0  0  0  0  0  0  0  0  0  # atno 10718 bound_to 10713
  154.1941  135.6422  153.5068 H   0  0  0  0  0  0  0  0  0  0  0  0  # atno 10763 bound_to 10752
  153.0028  135.5435  154.6384 H   0  0  0  0  0  0  0  0  0  0  0  0  # atno 10764 bound_to 10752
  154.5780  135.2922  155.0734 H   0  0  0  0  0  0  0  0  0  0  0  0  # atno 10765 bound_to 10752
  141.0450  133.9776  157.2932 H   0  0  0  0  0  0  0  0  0  0  0  0  # atno 11005 bound_to 11000
  145.8471  140.9549  143.0769 LP  0  0  0  0  0  0  0  0  0  0  0  0  # atno 17320 bound_to 7965
  144.6760  140.0359  143.7482 LP  0  0  0  0  0  0  0  0  0  0  0  0  # atno 17321 bound_to 7965
  140.6019  143.2167  151.7056 LP  0  0  0  0  0  0  0  0  0  0  0  0  # atno 17342 bound_to 10162
  139.5037  144.3779  152.0405 LP  0  0  0  0  0  0  0  0  0  0  0  0  # atno 17343 bound_to 10162
  157.3607  130.7129  149.6500 LP  0  0  0  0  0  0  0  0  0  0  0  0  # atno 17370 bound_to 10713
  155.9685  130.4226  150.4525 LP  0  0  0  0  0  0  0  0  0  0  0  0  # atno 17371 bound_to 10713
  139.9305  135.0200  156.8383 LP  0  0  0  0  0  0  0  0  0  0  0  0  # atno 17394 bound_to 11000
  140.6163  134.0035  155.7598 LP  0  0  0  0  0  0  0  0  0  0  0  0  # atno 17395 bound_to 11000

$$$$
