AV-unprocessed.smi:2205|AV-procd|sdf|8941|dock6
  -GOLD-   2272012163D 1   1.00000     0.00000
 Structure written by MMmdl.
 36 37  0  0  0  0  0  0  0  0  1 V2000
  145.6166  142.8096  154.5467 C   0  0  0  0  0  0  0  0  0  0  0  0
  146.6983  142.1346  153.9298 O   0  0  0  0  0  0  0  0  0  0  0  0
  147.6420  141.6459  154.8690 C   0  0  0  0  0  0  0  0  0  0  0  0
  148.8698  141.0985  154.1233 C   0  0  0  0  0  0  0  0  0  0  0  0
  149.9435  140.7134  155.0510 N   0  0  0  0  0  0  0  0  0  0  0  0
  150.3453  141.6759  155.9982 C   0  0  0  0  0  0  0  0  0  0  0  0
  151.3160  141.4378  156.9076 C   0  0  0  0  0  0  0  0  0  0  0  0
  151.7621  142.3417  157.8842 N   0  0  0  0  0  0  0  0  0  0  0  0
  152.6175  142.1508  158.9085 C   0  0  0  0  0  0  0  0  0  0  0  0
  153.1755  141.0880  159.1814 O   0  0  0  0  0  0  0  0  0  0  0  0
  152.8772  143.3908  159.7777 C   0  0  0  0  0  0  0  0  0  0  0  0
  152.2061  143.3524  161.1608 C   0  0  0  0  0  0  0  0  0  0  0  0
  151.1965  144.4077  160.6985 C   0  0  0  0  0  0  0  0  0  0  0  0
  152.0170  144.6150  159.4215 C   0  0  0  0  0  0  0  0  0  0  0  0
  151.9368  140.1310  156.8714 C   0  0  0  0  0  0  0  0  0  0  0  0
  151.5551  139.2008  155.9754 C   0  0  0  0  0  0  0  0  0  0  0  0
  150.4985  139.4663  154.9968 C   0  0  0  0  0  0  0  0  0  0  0  0
  150.1346  138.6185  154.1815 O   0  0  0  0  0  0  0  0  0  0  0  0
  144.9156  143.1497  153.7848 H   0  0  0  0  0  0  0  0  0  0  0  0
  145.9626  143.6840  155.0995 H   0  0  0  0  0  0  0  0  0  0  0  0
  145.0785  142.1524  155.2308 H   0  0  0  0  0  0  0  0  0  0  0  0
  147.9348  142.4338  155.5648 H   0  0  0  0  0  0  0  0  0  0  0  0
  147.1868  140.8481  155.4575 H   0  0  0  0  0  0  0  0  0  0  0  0
  148.5752  140.2420  153.5147 H   0  0  0  0  0  0  0  0  0  0  0  0
  149.2260  141.8399  153.4066 H   0  0  0  0  0  0  0  0  0  0  0  0
  149.7930  142.5987  155.9229 H   0  0  0  0  0  0  0  0  0  0  0  0
  151.3792  143.2720  157.8005 H   0  0  0  0  0  0  0  0  0  0  0  0
  153.9376  143.6397  159.8416 H   0  0  0  0  0  0  0  0  0  0  0  0
  151.7475  142.3996  161.4294 H   0  0  0  0  0  0  0  0  0  0  0  0
  152.8626  143.7098  161.9550 H   0  0  0  0  0  0  0  0  0  0  0  0
  150.2088  143.9886  160.5027 H   0  0  0  0  0  0  0  0  0  0  0  0
  151.1423  145.2862  161.3422 H   0  0  0  0  0  0  0  0  0  0  0  0
  152.5881  145.5439  159.4285 H   0  0  0  0  0  0  0  0  0  0  0  0
  151.4303  144.5219  158.5062 H   0  0  0  0  0  0  0  0  0  0  0  0
  152.7207  139.8912  157.5753 H   0  0  0  0  0  0  0  0  0  0  0  0
  152.0387  138.2349  155.9770 H   0  0  0  0  0  0  0  0  0  0  0  0
  1  2  1  0  0  0  0
  1 19  1  0  0  0  0
  1 20  1  0  0  0  0
  1 21  1  0  0  0  0
  2  3  1  0  0  0  0
  3  4  1  0  0  0  0
  3 22  1  0  0  0  0
  3 23  1  0  0  0  0
  4  5  1  0  0  0  0
  4 24  1  0  0  0  0
  4 25  1  0  0  0  0
  5 17  1  0  0  0  0
  5  6  1  0  0  0  0
  6  7  2  0  0  0  0
  6 26  1  0  0  0  0
  7  8  1  0  0  0  0
  7 15  1  0  0  0  0
  8  9  1  0  0  0  0
  8 27  1  0  0  0  0
  9 10  2  0  0  0  0
  9 11  1  0  0  0  0
 11 14  1  0  0  0  0
 11 12  1  0  0  0  0
 11 28  1  0  0  0  0
 12 13  1  0  0  0  0
 12 29  1  0  0  0  0
 12 30  1  0  0  0  0
 13 14  1  0  0  0  0
 13 31  1  0  0  0  0
 13 32  1  0  0  0  0
 14 33  1  0  0  0  0
 14 34  1  0  0  0  0
 15 16  2  0  0  0  0
 15 35  1  0  0  0  0
 16 17  1  0  0  0  0
 16 36  1  0  0  0  0
 17 18  2  0  0  0  0
M  END
> <s_m_source_file>
AV-unprocessed.smi

> <i_m_source_file_index>
2205

> <i_lp_mmshare_version>
43012

> <i_f3d_flags>
0

> <s_epik_input>
W0NIM11PW0NIMl1bQ0gyXW4xW2NIXWMoW2NIXVtjSF1jMT1PKVtOSF1DKD1PKVtDSF0yW0NIMl1bQ0gyXVtDSDJdMg==

> <s_epik_cmdline>
J2VwaWtfcHl0aG9uJywgJy1waCcsICc3LjAnLCAnLXRuJywgJzgnLCAnLW1hJywgJzIwMCcsICctbWV0YWxfYmluZGluZycsICctaW1hZScsICc8aW5maWxlLm1hZT4nLCAnLW9tYWUnLCAnPG91dGZpbGUubWFlPic=

> <r_lp_tautomer_probability>
1

> <r_epik_Ionization_Penalty>
2.40107e-06

> <r_epik_Ionization_Penalty_Charging>
2.27812e-06

> <r_epik_Ionization_Penalty_Neutral>
1.2295e-07

> <r_epik_State_Penalty>
-0

> <r_epik_Charging_Adjusted_Penalty>
2.27812e-06

> <i_epik_Tot_Q>
0

> <i_epik_Tot_abs_Q>
0

> <r_epik_Metal_State_Penalty>
-0

> <b_epik_Metal_Only>
0

> <s_lp_Force_Field>
OPLS_2005

> <r_lp_Energy>
28.3384

> <b_lp_Chiralities_Consistent>
1

> <s_lp_Variant>
AV-unprocessed.smi:2205-1

> <Gold.Version>
5.8.1

> <Gold.Id.Protein>
6NUR|6NUR_protein|mol2

> <Gold.PLP.Fitness>
44.3407

> <Gold.PLP.PLP>
-41.5171

> <Gold.PLP.part.hbond>
0.0000

> <Gold.PLP.part.metal>
0.0000

> <Gold.PLP.part.buried>
-2.8915

> <Gold.PLP.part.nonpolar>
-38.2567

> <Gold.PLP.part.repulsive>
0.4605

> <Gold.PLP.ligand.clash>
0.0000

> <Gold.PLP.ligand.torsion>
0.2804

> <Gold.PLP.Chemscore.Hbond>
0.0000

> <Gold.PLP.Chemscore.CHOScore>
1.0000

> <Gold.PLP.Chemscore.Metal>
0.0000

> <Gold.Chemscore.Hbonds>
donor molecule, donor type, donor heavy atom, donor atom, acceptor molecule, acceptor atom, score
      L1  C     6    26       P1  8028  1.00

> <Gold.PLP.Chemscore.Internal.Correction>
0.3843

> <Gold.Rescore>
     Score         DG    S(hbond)    S(metal)    S(lipo)     H(rot)  DE(clash)    DE(int)     intcor
     10.89     -12.57       0.00        0.00      94.73       1.56       0.02       1.65       ----

> <Gold.Chemscore.Fitness>
10.8943

> <Gold.Chemscore.DG>
-12.5716

> <Gold.Chemscore.ZeroCoef>
-5.4800

> <Gold.Chemscore.Hbond>
0.0000

> <Gold.Chemscore.Metal>
0.0000

> <Gold.Chemscore.Lipo>
94.7321

> <Gold.Chemscore.Internal_Hbond>
0.0000

> <Gold.Chemscore.DEClash>
0.0237

> <Gold.Chemscore.DEInternal>
1.6536

> <Gold.Chemscore.Rot>
1.5594

> <Gold.Chemscore.Internal.Correction>
   9.000000E+99

> <Gold.Chemscore.Hbond.Weighted>
-0.0000

> <Gold.Chemscore.Metal.Weighted>
-0.0000

> <Gold.Chemscore.Lipo.Weighted>
-11.0837

> <Gold.Chemscore.Internal_Hbond.Weighted>
0.0000

> <Gold.Chemscore.DEClash.Weighted>
0.0237

> <Gold.Chemscore.DEInternal.Weighted>
1.6536

> <Gold.Chemscore.Rot.Weighted>
3.9920

> <Gold.Chemscore.Internal.Correction.Weighted>
   9.000000E+99

> <Gold.Protein.RotatedTorsions>
[ 6907 6896 6895 6894 ] final   11.90 input  -60.11 | X-H torsion
[ 7974 7965 7964 7962 ] final -139.41 input  175.53 | X-H torsion
[ 8008 7997 7996 7995 ] final  119.91 input   59.86 | X-H torsion
[ 10167 10162 10161 10158 ] final  -33.05 input  -65.29 | X-H torsion
[ 10718 10713 10712 10709 ] final -123.63 input   66.30 | X-H torsion
[ 10763 10752 10751 10750 ] final  153.90 input  -60.55 | X-H torsion
[ 11005 11000 10999 10996 ] final  151.61 input  -57.11 | X-H torsion

> <Gold.Protein.ActiveResidues>
 VAL166  LYS551  ARG553  GLY616  TRP617  ASP618  TYR619  PRO620  LYS621  CYS622 
 ASP623  PHE694  ASN695  SER759  ASP760  ASP761  ALA762  ILE779  LEU786  VAL792 
 PHE793  MET794  SER795  GLU796  ALA797  LYS798  CYS799  TRP800  GLU811  SER814 

> <Gold.Protein.RotatedAtoms>
  151.7617  135.0808  160.0346 H   0  0  0  0  0  0  0  0  0  0  0  0  # atno 6907 bound_to 6896
  152.3348  133.5995  159.5843 H   0  0  0  0  0  0  0  0  0  0  0  0  # atno 6908 bound_to 6896
  150.7444  133.9728  159.3593 H   0  0  0  0  0  0  0  0  0  0  0  0  # atno 6909 bound_to 6896
  144.8679  140.6322  143.5286 H   0  0  0  0  0  0  0  0  0  0  0  0  # atno 7974 bound_to 7965
  156.2618  140.2842  156.1067 H   0  0  0  0  0  0  0  0  0  0  0  0  # atno 8008 bound_to 7997
  155.1302  140.0393  157.2790 H   0  0  0  0  0  0  0  0  0  0  0  0  # atno 8009 bound_to 7997
  154.6605  140.2565  155.7120 H   0  0  0  0  0  0  0  0  0  0  0  0  # atno 8010 bound_to 7997
  140.7211  143.3649  151.1890 H   0  0  0  0  0  0  0  0  0  0  0  0  # atno 10167 bound_to 10162
  156.1519  130.6540  150.9925 H   0  0  0  0  0  0  0  0  0  0  0  0  # atno 10718 bound_to 10713
  154.1437  135.2819  155.3154 H   0  0  0  0  0  0  0  0  0  0  0  0  # atno 10763 bound_to 10752
  154.6268  135.5448  153.7639 H   0  0  0  0  0  0  0  0  0  0  0  0  # atno 10764 bound_to 10752
  153.0242  135.6453  154.1583 H   0  0  0  0  0  0  0  0  0  0  0  0  # atno 10765 bound_to 10752
  140.1234  134.8849  157.2104 H   0  0  0  0  0  0  0  0  0  0  0  0  # atno 11005 bound_to 11000
  145.4186  139.1568  143.4087 LP  0  0  0  0  0  0  0  0  0  0  0  0  # atno 17320 bound_to 7965
  146.2909  140.4294  142.8740 LP  0  0  0  0  0  0  0  0  0  0  0  0  # atno 17321 bound_to 7965
  139.7209  143.9225  152.2985 LP  0  0  0  0  0  0  0  0  0  0  0  0  # atno 17342 bound_to 10162
  139.8982  144.6927  150.8695 LP  0  0  0  0  0  0  0  0  0  0  0  0  # atno 17343 bound_to 10162
  157.6663  131.0871  150.7719 LP  0  0  0  0  0  0  0  0  0  0  0  0  # atno 17370 bound_to 10713
  156.7787  130.4852  149.5405 LP  0  0  0  0  0  0  0  0  0  0  0  0  # atno 17371 bound_to 10713
  140.2935  134.3213  155.7309 LP  0  0  0  0  0  0  0  0  0  0  0  0  # atno 17394 bound_to 11000
  141.2156  133.7549  156.9537 LP  0  0  0  0  0  0  0  0  0  0  0  0  # atno 17395 bound_to 11000

$$$$
