AV-unprocessed.smi:2736|AV-procd|sdf|10545|dock10
  -GOLD-   2272014593D 1   1.00000     0.00000
 Structure written by MMmdl.
 38 40  0  0  0  0  0  0  0  0  1 V2000
  153.8345  137.6599  156.2109 C   0  0  0  0  0  0  0  0  0  0  0  0
  152.6449  138.4004  155.7508 N   0  0  0  0  0  0  0  0  0  0  0  0
  152.4946  139.7006  156.1559 C   0  0  0  0  0  0  0  0  0  0  0  0
  153.2814  140.3096  156.8810 O   0  0  0  0  0  0  0  0  0  0  0  0
  151.2823  140.3444  155.6447 C   0  0  0  0  0  0  0  0  0  0  0  0
  150.3936  139.7120  154.8414 C   0  0  0  0  0  0  0  0  0  0  0  0
  149.3368  140.5477  154.4982 N   0  0  0  0  0  0  0  0  0  0  0  0
  149.6559  141.6744  155.1372 C   0  0  0  0  0  0  0  0  0  0  0  0
  150.8018  141.6362  155.8483 N   0  0  0  0  0  0  0  0  0  0  0  0
  151.3680  142.7222  156.6349 C   0  0  0  0  0  0  0  0  0  0  0  0
  150.6198  142.9547  157.9638 C   0  0  2  0  0  0  0  0  0  0  0  0
  149.9987  144.2270  157.9439 O   0  0  0  0  0  0  0  0  0  0  0  0
  151.5570  142.7899  159.1581 C   0  0  0  0  0  0  0  0  0  0  0  0
  152.2992  141.5935  159.2928 C   0  0  0  0  0  0  0  0  0  0  0  0
  153.1668  141.4036  160.3846 C   0  0  0  0  0  0  0  0  0  0  0  0
  153.2998  142.4090  161.3585 C   0  0  0  0  0  0  0  0  0  0  0  0
  152.5605  143.6000  161.2402 C   0  0  0  0  0  0  0  0  0  0  0  0
  151.6888  143.7957  160.1499 C   0  0  0  0  0  0  0  0  0  0  0  0
  150.7990  145.2760  160.0731 Cl  0  0  0  0  0  0  0  0  0  0  0  0
  150.6428  138.3644  154.4808 N   0  0  0  0  0  0  0  0  0  0  0  0
  149.6573  137.7108  153.6147 C   0  0  0  0  0  0  0  0  0  0  0  0
  151.7629  137.7107  154.9351 C   0  0  0  0  0  0  0  0  0  0  0  0
  151.9767  136.5361  154.6229 O   0  0  0  0  0  0  0  0  0  0  0  0
  154.5185  138.2327  156.8381 H   0  0  0  0  0  0  0  0  0  0  0  0
  154.4187  137.3097  155.3584 H   0  0  0  0  0  0  0  0  0  0  0  0
  153.5362  136.7874  156.7942 H   0  0  0  0  0  0  0  0  0  0  0  0
  149.0326  142.5554  155.0904 H   0  0  0  0  0  0  0  0  0  0  0  0
  152.4209  142.5085  156.8194 H   0  0  0  0  0  0  0  0  0  0  0  0
  151.3464  143.6294  156.0291 H   0  0  0  0  0  0  0  0  0  0  0  0
  149.8014  142.2403  158.0381 H   0  0  0  0  0  0  0  0  0  0  0  0
  149.4772  144.2928  157.1584 H   0  0  0  0  0  0  0  0  0  0  0  0
  152.2035  140.8089  158.5564 H   0  0  0  0  0  0  0  0  0  0  0  0
  153.7285  140.4854  160.4752 H   0  0  0  0  0  0  0  0  0  0  0  0
  153.9649  142.2657  162.1973 H   0  0  0  0  0  0  0  0  0  0  0  0
  152.6614  144.3676  161.9933 H   0  0  0  0  0  0  0  0  0  0  0  0
  149.8990  136.6804  153.3527 H   0  0  0  0  0  0  0  0  0  0  0  0
  149.5577  138.2663  152.6818 H   0  0  0  0  0  0  0  0  0  0  0  0
  148.6824  137.7006  154.1030 H   0  0  0  0  0  0  0  0  0  0  0  0
  1  2  1  0  0  0  0
  1 24  1  0  0  0  0
  1 25  1  0  0  0  0
  1 26  1  0  0  0  0
  2 22  1  0  0  0  0
  2  3  1  0  0  0  0
  3  4  2  0  0  0  0
  3  5  1  0  0  0  0
  5  9  1  0  0  0  0
  5  6  2  0  0  0  0
  6  7  1  0  0  0  0
  6 20  1  0  0  0  0
  7  8  2  0  0  0  0
  8  9  1  0  0  0  0
  8 27  1  0  0  0  0
  9 10  1  0  0  0  0
 10 11  1  0  0  0  0
 10 28  1  0  0  0  0
 10 29  1  0  0  0  0
 11 12  1  0  0  0  0
 11 13  1  0  0  0  0
 11 30  1  0  0  0  0
 12 31  1  0  0  0  0
 13 18  1  0  0  0  0
 13 14  2  0  0  0  0
 14 15  1  0  0  0  0
 14 32  1  0  0  0  0
 15 16  2  0  0  0  0
 15 33  1  0  0  0  0
 16 17  1  0  0  0  0
 16 34  1  0  0  0  0
 17 18  2  0  0  0  0
 17 35  1  0  0  0  0
 18 19  1  0  0  0  0
 20 21  1  0  0  0  0
 20 22  1  0  0  0  0
 21 36  1  0  0  0  0
 21 37  1  0  0  0  0
 21 38  1  0  0  0  0
 22 23  2  0  0  0  0
M  END
> <s_m_source_file>
AV-unprocessed.smi

> <i_m_source_file_index>
2736

> <i_lp_mmshare_version>
43012

> <i_f3d_flags>
0

> <s_epik_input>
Tz1jMW4oW0NIM10pYyg9TyluKFtDSDNdKWMoYzEyKW5bY0hdbjJbQ0gyXVtDQEhdKFtPSF0pYzNbY0hdW2NIXVtjSF1bY0hdYzNDbA==

> <s_epik_cmdline>
J2VwaWtfcHl0aG9uJywgJy1waCcsICc3LjAnLCAnLXRuJywgJzgnLCAnLW1hJywgJzIwMCcsICctbWV0YWxfYmluZGluZycsICctaW1hZScsICc8aW5maWxlLm1hZT4nLCAnLW9tYWUnLCAnPG91dGZpbGUubWFlPic=

> <r_lp_tautomer_probability>
1

> <r_epik_Ionization_Penalty>
1.63404e-06

> <r_epik_Ionization_Penalty_Charging>
3.74189e-09

> <r_epik_Ionization_Penalty_Neutral>
1.63029e-06

> <r_epik_State_Penalty>
-0

> <r_epik_Charging_Adjusted_Penalty>
3.74189e-09

> <i_epik_Tot_Q>
0

> <i_epik_Tot_abs_Q>
0

> <r_epik_Metal_State_Penalty>
-0

> <b_epik_Metal_Only>
0

> <s_lp_Force_Field>
OPLS_2005

> <r_lp_Energy>
36.4155

> <b_lp_Chiralities_Consistent>
1

> <s_lp_Variant>
AV-unprocessed.smi:2736-1

> <Gold.Version>
5.8.1

> <Gold.Id.Protein>
6NUR|6NUR_protein|mol2

> <Gold.PLP.Fitness>
50.0888

> <Gold.PLP.PLP>
-40.0438

> <Gold.PLP.part.hbond>
-3.7560

> <Gold.PLP.part.metal>
0.0000

> <Gold.PLP.part.buried>
4.4539

> <Gold.PLP.part.nonpolar>
-41.1484

> <Gold.PLP.part.repulsive>
0.2925

> <Gold.PLP.ligand.clash>
0.0000

> <Gold.PLP.ligand.torsion>
0.9738

> <Gold.PLP.Chemscore.Hbond>
2.9920

> <Gold.PLP.Chemscore.CHOScore>
1.0000

> <Gold.PLP.Chemscore.Metal>
0.0000

> <Gold.Chemscore.Hbonds>
donor molecule, donor type, donor heavy atom, donor atom, acceptor molecule, acceptor atom, score
      L1  H    12    31       P1  8028  0.95
      P1  H  7997  8010       L1     4  0.13
      P1  H 10752 10764       L1    23  0.49
      L1  C     8    27       P1  8028  1.00

> <Gold.PLP.Chemscore.Internal.Correction>
0.0166

> <Gold.Rescore>
     Score         DG    S(hbond)    S(metal)    S(lipo)     H(rot)  DE(clash)    DE(int)     intcor
     12.97     -19.74       2.27        0.00     104.05       2.15       4.00       2.77       ----

> <Gold.Chemscore.Fitness>
12.9676

> <Gold.Chemscore.DG>
-19.7358

> <Gold.Chemscore.ZeroCoef>
-5.4800

> <Gold.Chemscore.Hbond>
2.2692

> <Gold.Chemscore.Metal>
0.0000

> <Gold.Chemscore.Lipo>
104.0500

> <Gold.Chemscore.Internal_Hbond>
0.0000

> <Gold.Chemscore.DEClash>
3.9956

> <Gold.Chemscore.DEInternal>
2.7726

> <Gold.Chemscore.Rot>
2.1474

> <Gold.Chemscore.Internal.Correction>
   9.000000E+99

> <Gold.Chemscore.Hbonds>
donor molecule, donor type, donor heavy atom, donor atom, acceptor molecule, acceptor atom, score
      L1  H    12    31       P1  8028  0.21
      P1  H  7997  8010       L1     4  0.06
      P1  H 10752 10764       L1    23  0.48

> <Gold.Chemscore.Hbond.Weighted>
-7.5793

> <Gold.Chemscore.Metal.Weighted>
-0.0000

> <Gold.Chemscore.Lipo.Weighted>
-12.1739

> <Gold.Chemscore.Internal_Hbond.Weighted>
0.0000

> <Gold.Chemscore.DEClash.Weighted>
3.9956

> <Gold.Chemscore.DEInternal.Weighted>
2.7726

> <Gold.Chemscore.Rot.Weighted>
5.4974

> <Gold.Chemscore.Internal.Correction.Weighted>
   9.000000E+99

> <Gold.Protein.RotatedTorsions>
[ 6907 6896 6895 6894 ] final   76.19 input  -60.11 | X-H torsion
[ 7974 7965 7964 7962 ] final   42.55 input  175.53 | X-H torsion
[ 8008 7997 7996 7995 ] final   80.89 input   59.86 | X-H torsion
[ 10167 10162 10161 10158 ] final  177.82 input  -65.29 | X-H torsion
[ 10718 10713 10712 10709 ] final -126.37 input   66.30 | X-H torsion
[ 10763 10752 10751 10750 ] final  -70.06 input  -60.55 | X-H torsion
[ 11005 11000 10999 10996 ] final -146.26 input  -57.11 | X-H torsion

> <Gold.Protein.ActiveResidues>
 VAL166  LYS551  ARG553  GLY616  TRP617  ASP618  TYR619  PRO620  LYS621  CYS622 
 ASP623  PHE694  ASN695  SER759  ASP760  ASP761  ALA762  ILE779  LEU786  VAL792 
 PHE793  MET794  SER795  GLU796  ALA797  LYS798  CYS799  TRP800  GLU811  SER814 

> <Gold.Protein.RotatedAtoms>
  152.5061  134.4006  159.9415 H   0  0  0  0  0  0  0  0  0  0  0  0  # atno 6907 bound_to 6896
  151.3970  133.3764  159.2735 H   0  0  0  0  0  0  0  0  0  0  0  0  # atno 6908 bound_to 6896
  150.9390  134.8821  159.7659 H   0  0  0  0  0  0  0  0  0  0  0  0  # atno 6909 bound_to 6896
  146.0731  139.5288  142.9585 H   0  0  0  0  0  0  0  0  0  0  0  0  # atno 7974 bound_to 7965
  155.8896  140.3439  155.5947 H   0  0  0  0  0  0  0  0  0  0  0  0  # atno 8008 bound_to 7997
  155.7625  140.0834  157.2167 H   0  0  0  0  0  0  0  0  0  0  0  0  # atno 8009 bound_to 7997
  154.4032  140.1533  156.2837 H   0  0  0  0  0  0  0  0  0  0  0  0  # atno 8010 bound_to 7997
  139.5268  144.2754  152.0593 H   0  0  0  0  0  0  0  0  0  0  0  0  # atno 10167 bound_to 10162
  156.1759  130.6699  151.0241 H   0  0  0  0  0  0  0  0  0  0  0  0  # atno 10718 bound_to 10713
  154.4123  135.6006  153.5960 H   0  0  0  0  0  0  0  0  0  0  0  0  # atno 10763 bound_to 10752
  152.9791  135.5932  154.4055 H   0  0  0  0  0  0  0  0  0  0  0  0  # atno 10764 bound_to 10752
  154.3869  135.2841  155.2156 H   0  0  0  0  0  0  0  0  0  0  0  0  # atno 10765 bound_to 10752
  140.7839  134.3047  157.5036 H   0  0  0  0  0  0  0  0  0  0  0  0  # atno 11005 bound_to 11000
  145.6355  141.0295  143.1840 LP  0  0  0  0  0  0  0  0  0  0  0  0  # atno 17320 bound_to 7965
  144.7244  139.7923  143.7370 LP  0  0  0  0  0  0  0  0  0  0  0  0  # atno 17321 bound_to 7965
  140.2211  144.4465  150.6341 LP  0  0  0  0  0  0  0  0  0  0  0  0  # atno 17342 bound_to 10162
  140.6418  143.2205  151.6274 LP  0  0  0  0  0  0  0  0  0  0  0  0  # atno 17343 bound_to 10162
  157.6835  131.0831  150.7306 LP  0  0  0  0  0  0  0  0  0  0  0  0  # atno 17370 bound_to 10713
  156.7364  130.4725  149.5487 LP  0  0  0  0  0  0  0  0  0  0  0  0  # atno 17371 bound_to 10713
  139.8739  134.9334  156.3580 LP  0  0  0  0  0  0  0  0  0  0  0  0  # atno 17394 bound_to 11000
  140.9456  133.7485  156.0204 LP  0  0  0  0  0  0  0  0  0  0  0  0  # atno 17395 bound_to 11000

$$$$
