AV-unprocessed.smi:2850|AV-procd|sdf|10965|dock1
  -GOLD-   2272015413D 1   1.00000     0.00000
 Structure written by MMmdl.
 45 46  0  0  0  0  0  0  0  0  2 V2000
  144.4427  134.2459  162.7258 C   0  0  0  0  0  0  0  0  0  0  0  0
  146.0577  134.2641  161.8993 S   0  0  0  0  0  0  0  0  0  0  0  0
  146.2036  135.8174  161.0693 C   0  0  0  0  0  0  0  0  0  0  0  0
  145.2764  136.1906  160.0800 C   0  0  0  0  0  0  0  0  0  0  0  0
  145.4620  137.4441  159.4716 C   0  0  0  0  0  0  0  0  0  0  0  0
  146.5550  138.2252  159.8982 C   0  0  0  0  0  0  0  0  0  0  0  0
  146.7550  139.4828  159.3111 N   0  0  0  0  0  0  0  0  0  0  0  0
  147.1775  140.6401  160.0922 C   0  0  0  0  0  0  0  0  0  0  0  0
  147.8206  141.7475  159.2363 C   0  0  2  0  0  0  0  0  0  0  0  0
  149.3215  141.5083  158.9708 C   0  0  0  0  0  0  0  0  0  0  0  0
  149.9009  142.6408  158.2107 N   0  3  2  0  0  0  0  0  0  0  0  0
  151.3262  142.4181  157.8559 C   0  0  0  0  0  0  0  0  0  0  0  0
  152.2919  142.6761  159.0330 C   0  0  0  0  0  0  0  0  0  0  0  0
  152.7092  144.1539  159.1223 C   0  0  0  0  0  0  0  0  0  0  0  0
  153.5313  141.7760  158.9209 C   0  0  0  0  0  0  0  0  0  0  0  0
  149.6534  143.9183  158.9227 C   0  0  0  0  0  0  0  0  0  0  0  0
  148.1521  144.0887  159.2059 C   0  0  0  0  0  0  0  0  0  0  0  0
  147.6758  142.9724  159.9470 O   0  0  0  0  0  0  0  0  0  0  0  0
  147.4108  137.7958  160.8603 N   0  0  0  0  0  0  0  0  0  0  0  0
  147.2379  136.6045  161.4433 N   0  0  0  0  0  0  0  0  0  0  0  0
  144.3048  133.3041  163.2567 H   0  0  0  0  0  0  0  0  0  0  0  0
  143.6385  134.3514  161.9974 H   0  0  0  0  0  0  0  0  0  0  0  0
  144.3732  135.0613  163.4461 H   0  0  0  0  0  0  0  0  0  0  0  0
  144.4577  135.5448  159.7993 H   0  0  0  0  0  0  0  0  0  0  0  0
  144.7852  137.7922  158.7051 H   0  0  0  0  0  0  0  0  0  0  0  0
  146.6066  139.5967  158.3187 H   0  0  0  0  0  0  0  0  0  0  0  0
  146.3221  141.0377  160.6398 H   0  0  0  0  0  0  0  0  0  0  0  0
  147.8875  140.3000  160.8466 H   0  0  0  0  0  0  0  0  0  0  0  0
  147.2886  141.8300  158.2872 H   0  0  0  0  0  0  0  0  0  0  0  0
  149.8597  141.3846  159.9122 H   0  0  0  0  0  0  0  0  0  0  0  0
  149.4527  140.5872  158.4017 H   0  0  0  0  0  0  0  0  0  0  0  0
  151.4461  141.4029  157.4743 H   0  0  0  0  0  0  0  0  0  0  0  0
  151.6025  143.0838  157.0366 H   0  0  0  0  0  0  0  0  0  0  0  0
  151.7968  142.4103  159.9666 H   0  0  0  0  0  0  0  0  0  0  0  0
  153.2130  144.4804  158.2119 H   0  0  0  0  0  0  0  0  0  0  0  0
  153.3929  144.3177  159.9558 H   0  0  0  0  0  0  0  0  0  0  0  0
  151.8486  144.8047  159.2788 H   0  0  0  0  0  0  0  0  0  0  0  0
  154.0950  141.9876  158.0117 H   0  0  0  0  0  0  0  0  0  0  0  0
  153.2532  140.7218  158.9024 H   0  0  0  0  0  0  0  0  0  0  0  0
  154.2017  141.9222  159.7684 H   0  0  0  0  0  0  0  0  0  0  0  0
  150.2124  143.9299  159.8597 H   0  0  0  0  0  0  0  0  0  0  0  0
  150.0035  144.7633  158.3311 H   0  0  0  0  0  0  0  0  0  0  0  0
  147.9798  144.9962  159.7847 H   0  0  0  0  0  0  0  0  0  0  0  0
  147.5889  144.1921  158.2769 H   0  0  0  0  0  0  0  0  0  0  0  0
  149.3921  142.6831  157.3390 H   0  0  0  0  0  0  0  0  0  0  0  0
  1  2  1  0  0  0  0
  1 21  1  0  0  0  0
  1 22  1  0  0  0  0
  1 23  1  0  0  0  0
  2  3  1  0  0  0  0
  3 20  1  0  0  0  0
  3  4  2  0  0  0  0
  4  5  1  0  0  0  0
  4 24  1  0  0  0  0
  5  6  2  0  0  0  0
  5 25  1  0  0  0  0
  6  7  1  0  0  0  0
  6 19  1  0  0  0  0
  7  8  1  0  0  0  0
  7 26  1  0  0  0  0
  8  9  1  0  0  0  0
  8 27  1  0  0  0  0
  8 28  1  0  0  0  0
  9 18  1  0  0  0  0
  9 10  1  0  0  0  0
  9 29  1  0  0  0  0
 10 11  1  0  0  0  0
 10 30  1  0  0  0  0
 10 31  1  0  0  0  0
 11 12  1  0  0  0  0
 11 16  1  0  0  0  0
 11 45  1  0  0  0  0
 12 13  1  0  0  0  0
 12 32  1  0  0  0  0
 12 33  1  0  0  0  0
 13 14  1  0  0  0  0
 13 15  1  0  0  0  0
 13 34  1  0  0  0  0
 14 35  1  0  0  0  0
 14 36  1  0  0  0  0
 14 37  1  0  0  0  0
 15 38  1  0  0  0  0
 15 39  1  0  0  0  0
 15 40  1  0  0  0  0
 16 17  1  0  0  0  0
 16 41  1  0  0  0  0
 16 42  1  0  0  0  0
 17 18  1  0  0  0  0
 17 43  1  0  0  0  0
 17 44  1  0  0  0  0
 19 20  2  0  0  0  0
M  CHG  1  11   1
M  END
> <s_m_source_file>
AV-unprocessed.smi

> <i_m_source_file_index>
2850

> <i_lp_mmshare_version>
43012

> <i_f3d_flags>
0

> <s_epik_input>
W0NIM11TYzFbY0hdW2NIXWMobm4xKVtOSF1bQ0gyXVtDQEBIXTJbQ0gyXU4oW0NIMl1bQ0gyXU8yKVtDSDJdW0NIXShbQ0gzXSlbQ0gzXQ==

> <s_epik_cmdline>
J2VwaWtfcHl0aG9uJywgJy1waCcsICc3LjAnLCAnLXRuJywgJzgnLCAnLW1hJywgJzIwMCcsICctbWV0YWxfYmluZGluZycsICctaW1hZScsICc8aW5maWxlLm1hZT4nLCAnLW9tYWUnLCAnPG91dGZpbGUubWFlPic=

> <r_lp_tautomer_probability>
0.999978

> <r_epik_Ionization_Penalty>
0.0874875

> <r_epik_Ionization_Penalty_Charging>
0.0831532

> <r_epik_Ionization_Penalty_Neutral>
0.00433433

> <r_epik_State_Penalty>
0.0738301

> <r_epik_Charging_Adjusted_Penalty>
0.156983

> <i_epik_Tot_Q>
1

> <i_epik_Tot_abs_Q>
1

> <r_epik_Metal_State_Penalty>
0.073888

> <b_epik_Metal_Only>
0

> <s_lp_Force_Field>
OPLS_2005

> <r_lp_Energy>
24.5925

> <b_lp_Chiralities_Consistent>
1

> <s_lp_Variant>
AV-unprocessed.smi:2850-1

> <Gold.Version>
5.8.1

> <Gold.Id.Protein>
6NUR|6NUR_protein|mol2

> <Gold.PLP.Fitness>
38.6214

> <Gold.PLP.PLP>
-35.7038

> <Gold.PLP.part.hbond>
-2.0000

> <Gold.PLP.part.metal>
0.0000

> <Gold.PLP.part.buried>
-4.1586

> <Gold.PLP.part.nonpolar>
-30.3945

> <Gold.PLP.part.repulsive>
0.2640

> <Gold.PLP.ligand.clash>
0.0000

> <Gold.PLP.ligand.torsion>
1.1808

> <Gold.PLP.Chemscore.Hbond>
1.6800

> <Gold.PLP.Chemscore.CHOScore>
0.0000

> <Gold.PLP.Chemscore.Metal>
0.0000

> <Gold.Chemscore.Hbonds>
donor molecule, donor type, donor heavy atom, donor atom, acceptor molecule, acceptor atom, score
      P1  H  6931  6943       L1    19  0.41
      P1  H  6933  6944       L1    18  0.54

> <Gold.PLP.Chemscore.Internal.Correction>
0.2391

> <Gold.Rescore>
     Score         DG    S(hbond)    S(metal)    S(lipo)     H(rot)  DE(clash)    DE(int)     intcor
     14.92     -16.51       1.13        0.00      96.85       1.60       0.02       1.57       ----

> <Gold.Chemscore.Fitness>
14.9171

> <Gold.Chemscore.DG>
-16.5055

> <Gold.Chemscore.ZeroCoef>
-5.4800

> <Gold.Chemscore.Hbond>
1.1349

> <Gold.Chemscore.Metal>
0.0000

> <Gold.Chemscore.Lipo>
96.8508

> <Gold.Chemscore.Internal_Hbond>
0.0000

> <Gold.Chemscore.DEClash>
0.0174

> <Gold.Chemscore.DEInternal>
1.5709

> <Gold.Chemscore.Rot>
1.6003

> <Gold.Chemscore.Internal.Correction>
   9.000000E+99

> <Gold.Chemscore.Hbonds>
donor molecule, donor type, donor heavy atom, donor atom, acceptor molecule, acceptor atom, score
      P1  H  6931  6943       L1    19  0.06
      P1  H  6933  6944       L1    18  0.05

> <Gold.Chemscore.Hbond.Weighted>
-3.7907

> <Gold.Chemscore.Metal.Weighted>
-0.0000

> <Gold.Chemscore.Lipo.Weighted>
-11.3315

> <Gold.Chemscore.Internal_Hbond.Weighted>
0.0000

> <Gold.Chemscore.DEClash.Weighted>
0.0174

> <Gold.Chemscore.DEInternal.Weighted>
1.5709

> <Gold.Chemscore.Rot.Weighted>
4.0968

> <Gold.Chemscore.Internal.Correction.Weighted>
   9.000000E+99

> <Gold.Protein.RotatedTorsions>
[ 6907 6896 6895 6894 ] final   38.06 input  -60.11 | X-H torsion
[ 7974 7965 7964 7962 ] final   98.53 input  175.53 | X-H torsion
[ 8008 7997 7996 7995 ] final  -84.10 input   59.86 | X-H torsion
[ 10167 10162 10161 10158 ] final   57.29 input  -65.29 | X-H torsion
[ 10718 10713 10712 10709 ] final   85.25 input   66.30 | X-H torsion
[ 10763 10752 10751 10750 ] final  144.55 input  -60.55 | X-H torsion
[ 11005 11000 10999 10996 ] final  106.89 input  -57.11 | X-H torsion

> <Gold.Protein.ActiveResidues>
 VAL166  LYS551  ARG553  GLY616  TRP617  ASP618  TYR619  PRO620  LYS621  CYS622 
 ASP623  PHE694  ASN695  SER759  ASP760  ASP761  ALA762  ILE779  LEU786  VAL792 
 PHE793  MET794  SER795  GLU796  ALA797  LYS798  CYS799  TRP800  GLU811  SER814 

> <Gold.Protein.RotatedAtoms>
  152.1514  134.8985  160.0547 H   0  0  0  0  0  0  0  0  0  0  0  0  # atno 6907 bound_to 6896
  152.0015  133.3822  159.4192 H   0  0  0  0  0  0  0  0  0  0  0  0  # atno 6908 bound_to 6896
  150.6876  134.3751  159.5053 H   0  0  0  0  0  0  0  0  0  0  0  0  # atno 6909 bound_to 6896
  145.4109  139.2334  143.3248 H   0  0  0  0  0  0  0  0  0  0  0  0  # atno 7974 bound_to 7965
  154.6261  140.0609  156.9675 H   0  0  0  0  0  0  0  0  0  0  0  0  # atno 8008 bound_to 7997
  155.1739  140.3293  155.4369 H   0  0  0  0  0  0  0  0  0  0  0  0  # atno 8009 bound_to 7997
  156.2458  140.1909  156.6840 H   0  0  0  0  0  0  0  0  0  0  0  0  # atno 8010 bound_to 7997
  140.1996  144.4002  150.6535 H   0  0  0  0  0  0  0  0  0  0  0  0  # atno 10167 bound_to 10162
  157.6911  131.0167  150.2794 H   0  0  0  0  0  0  0  0  0  0  0  0  # atno 10718 bound_to 10713
  153.9908  135.2932  155.3412 H   0  0  0  0  0  0  0  0  0  0  0  0  # atno 10763 bound_to 10752
  154.7216  135.5107  153.8823 H   0  0  0  0  0  0  0  0  0  0  0  0  # atno 10764 bound_to 10752
  153.0811  135.6679  154.0160 H   0  0  0  0  0  0  0  0  0  0  0  0  # atno 10765 bound_to 10752
  139.8820  134.9383  156.5735 H   0  0  0  0  0  0  0  0  0  0  0  0  # atno 11005 bound_to 11000
  146.2705  140.4820  142.8816 LP  0  0  0  0  0  0  0  0  0  0  0  0  # atno 17320 bound_to 7965
  144.8309  140.6706  143.6291 LP  0  0  0  0  0  0  0  0  0  0  0  0  # atno 17321 bound_to 7965
  140.6400  143.2202  151.6311 LP  0  0  0  0  0  0  0  0  0  0  0  0  # atno 17342 bound_to 10162
  139.5223  144.3168  152.0945 LP  0  0  0  0  0  0  0  0  0  0  0  0  # atno 17343 bound_to 10162
  156.3343  130.3805  149.7463 LP  0  0  0  0  0  0  0  0  0  0  0  0  # atno 17370 bound_to 10713
  156.4993  130.8121  151.3126 LP  0  0  0  0  0  0  0  0  0  0  0  0  # atno 17371 bound_to 10713
  140.8080  133.8451  155.8785 LP  0  0  0  0  0  0  0  0  0  0  0  0  # atno 17394 bound_to 11000
  140.9532  134.1752  157.4712 LP  0  0  0  0  0  0  0  0  0  0  0  0  # atno 17395 bound_to 11000

$$$$
