AV-unprocessed.smi:2780|AV-procd|sdf|10713|dock4
  -GOLD-   2272015153D 1   1.00000     0.00000
 Structure written by MMmdl.
 47 49  0  0  0  0  0  0  0  0  2 V2000
  145.1588  135.6292  152.5242 C   0  0  0  0  0  0  0  0  0  0  0  0
  145.0227  134.4220  151.6108 C   0  0  0  0  0  0  0  0  0  0  0  0
  144.3705  134.5173  150.4351 C   0  0  0  0  0  0  0  0  0  0  0  0
  144.1286  133.3604  149.4815 C   0  0  0  0  0  0  0  0  0  0  0  0
  144.8644  132.0743  149.8923 C   0  0  0  0  0  0  0  0  0  0  0  0
  144.8831  131.9005  151.4209 C   0  0  1  0  0  0  0  0  0  0  0  0
  145.4013  130.5136  151.8397 C   0  0  0  0  0  0  0  0  0  0  0  0
  145.6072  133.0929  152.1080 C   0  0  1  0  0  0  0  0  0  0  0  0
  147.1498  133.0331  151.9534 C   0  0  0  0  0  0  0  0  0  0  0  0
  147.8579  133.9336  152.8841 N   0  3  0  0  0  0  0  0  0  0  0  0
  149.1611  133.4186  153.3452 C   0  0  0  0  0  0  0  0  0  0  0  0
  148.9787  132.2164  154.2816 C   0  0  0  0  0  0  0  0  0  0  0  0
  149.9957  132.1885  155.3171 N   0  0  0  0  0  0  0  0  0  0  0  0
  150.1535  133.0270  156.3529 C   0  0  0  0  0  0  0  0  0  0  0  0
  151.1779  132.7450  157.1562 N   0  0  0  0  0  0  0  0  0  0  0  0
  151.7476  131.6132  156.6079 N   0  0  0  0  0  0  0  0  0  0  0  0
  151.0203  131.3347  155.5197 C   0  0  0  0  0  0  0  0  0  0  0  0
  151.2730  130.1556  154.6348 C   0  0  0  0  0  0  0  0  0  0  0  0
  151.1945  128.7421  155.1683 C   0  0  0  0  0  0  0  0  0  0  0  0
  152.5287  129.3247  154.7816 C   0  0  0  0  0  0  0  0  0  0  0  0
  144.8674  135.3731  153.5430 H   0  0  0  0  0  0  0  0  0  0  0  0
  144.5152  136.4447  152.1924 H   0  0  0  0  0  0  0  0  0  0  0  0
  146.1787  136.0097  152.5369 H   0  0  0  0  0  0  0  0  0  0  0  0
  143.9490  135.4655  150.1336 H   0  0  0  0  0  0  0  0  0  0  0  0
  143.0541  133.1759  149.4606 H   0  0  0  0  0  0  0  0  0  0  0  0
  144.4171  133.6531  148.4717 H   0  0  0  0  0  0  0  0  0  0  0  0
  144.3859  131.2180  149.4153 H   0  0  0  0  0  0  0  0  0  0  0  0
  145.8855  132.0982  149.5110 H   0  0  0  0  0  0  0  0  0  0  0  0
  143.8436  131.9355  151.7529 H   0  0  0  0  0  0  0  0  0  0  0  0
  146.3889  130.3043  151.4292 H   0  0  0  0  0  0  0  0  0  0  0  0
  144.7341  129.7290  151.4815 H   0  0  0  0  0  0  0  0  0  0  0  0
  145.4572  130.4241  152.9248 H   0  0  0  0  0  0  0  0  0  0  0  0
  145.3775  133.0209  153.1722 H   0  0  0  0  0  0  0  0  0  0  0  0
  147.5161  132.0266  152.1509 H   0  0  0  0  0  0  0  0  0  0  0  0
  147.4385  133.2820  150.9317 H   0  0  0  0  0  0  0  0  0  0  0  0
  148.0067  134.8182  152.4194 H   0  0  0  0  0  0  0  0  0  0  0  0
  149.7575  133.1325  152.4784 H   0  0  0  0  0  0  0  0  0  0  0  0
  149.7015  134.2152  153.8587 H   0  0  0  0  0  0  0  0  0  0  0  0
  148.0008  132.2544  154.7635 H   0  0  0  0  0  0  0  0  0  0  0  0
  149.0147  131.2828  153.7195 H   0  0  0  0  0  0  0  0  0  0  0  0
  149.4982  133.8679  156.5268 H   0  0  0  0  0  0  0  0  0  0  0  0
  150.8986  130.3418  153.6301 H   0  0  0  0  0  0  0  0  0  0  0  0
  150.9953  128.6085  156.2298 H   0  0  0  0  0  0  0  0  0  0  0  0
  150.7686  127.9829  154.5154 H   0  0  0  0  0  0  0  0  0  0  0  0
  152.9950  128.9553  153.8708 H   0  0  0  0  0  0  0  0  0  0  0  0
  153.2138  129.5704  155.5902 H   0  0  0  0  0  0  0  0  0  0  0  0
  147.2690  134.0877  153.6902 H   0  0  0  0  0  0  0  0  0  0  0  0
  1  2  1  0  0  0  0
  1 21  1  0  0  0  0
  1 22  1  0  0  0  0
  1 23  1  0  0  0  0
  2  8  1  0  0  0  0
  2  3  2  0  0  0  0
  3  4  1  0  0  0  0
  3 24  1  0  0  0  0
  4  5  1  0  0  0  0
  4 25  1  0  0  0  0
  4 26  1  0  0  0  0
  5  6  1  0  0  0  0
  5 27  1  0  0  0  0
  5 28  1  0  0  0  0
  6  7  1  0  0  0  0
  6  8  1  0  0  0  0
  6 29  1  0  0  0  0
  7 30  1  0  0  0  0
  7 31  1  0  0  0  0
  7 32  1  0  0  0  0
  8  9  1  0  0  0  0
  8 33  1  0  0  0  0
  9 10  1  0  0  0  0
  9 34  1  0  0  0  0
  9 35  1  0  0  0  0
 10 11  1  0  0  0  0
 10 36  1  0  0  0  0
 10 47  1  0  0  0  0
 11 12  1  0  0  0  0
 11 37  1  0  0  0  0
 11 38  1  0  0  0  0
 12 13  1  0  0  0  0
 12 39  1  0  0  0  0
 12 40  1  0  0  0  0
 13 17  1  0  0  0  0
 13 14  1  0  0  0  0
 14 15  2  0  0  0  0
 14 41  1  0  0  0  0
 15 16  1  0  0  0  0
 16 17  2  0  0  0  0
 17 18  1  0  0  0  0
 18 20  1  0  0  0  0
 18 19  1  0  0  0  0
 18 42  1  0  0  0  0
 19 20  1  0  0  0  0
 19 43  1  0  0  0  0
 19 44  1  0  0  0  0
 20 45  1  0  0  0  0
 20 46  1  0  0  0  0
M  CHG  1  10   1
M  END
> <s_m_source_file>
AV-unprocessed.smi

> <i_m_source_file_index>
2780

> <i_lp_mmshare_version>
43012

> <i_f3d_flags>
0

> <s_epik_input>
W0NIM11DMT1bQ0hdW0NIMl1bQ0gyXVtDQEBIXShbQ0gzXSlbQ0BIXTFbQ0gyXVtOSF1bQ0gyXVtDSDJdbjJbY0hdbm5jMltDSF0zW0NIMl1bQ0gyXTM=

> <s_epik_cmdline>
J2VwaWtfcHl0aG9uJywgJy1waCcsICc3LjAnLCAnLXRuJywgJzgnLCAnLW1hJywgJzIwMCcsICctbWV0YWxfYmluZGluZycsICctaW1hZScsICc8aW5maWxlLm1hZT4nLCAnLW9tYWUnLCAnPG91dGZpbGUubWFlPic=

> <r_lp_tautomer_probability>
1

> <r_epik_Ionization_Penalty>
0.00176214

> <r_epik_Ionization_Penalty_Charging>
0.00175191

> <r_epik_Ionization_Penalty_Neutral>
1.02377e-05

> <r_epik_State_Penalty>
-0

> <r_epik_Charging_Adjusted_Penalty>
0.00175191

> <i_epik_Tot_Q>
1

> <i_epik_Tot_abs_Q>
1

> <r_epik_Metal_State_Penalty>
-0

> <b_epik_Metal_Only>
0

> <s_lp_Force_Field>
OPLS_2005

> <r_lp_Energy>
21.6978

> <b_lp_Chiralities_Consistent>
1

> <s_lp_Variant>
AV-unprocessed.smi:2780-1

> <Gold.Version>
5.8.1

> <Gold.Id.Protein>
6NUR|6NUR_protein|mol2

> <Gold.PLP.Fitness>
46.5106

> <Gold.PLP.PLP>
-38.7077

> <Gold.PLP.part.hbond>
-2.0000

> <Gold.PLP.part.metal>
0.0000

> <Gold.PLP.part.buried>
-2.7721

> <Gold.PLP.part.nonpolar>
-33.1893

> <Gold.PLP.part.repulsive>
0.0000

> <Gold.PLP.ligand.clash>
0.0000

> <Gold.PLP.ligand.torsion>
0.7200

> <Gold.PLP.Chemscore.Hbond>
3.0000

> <Gold.PLP.Chemscore.CHOScore>
0.0000

> <Gold.PLP.Chemscore.Metal>
0.0000

> <Gold.Chemscore.Hbonds>
donor molecule, donor type, donor heavy atom, donor atom, acceptor molecule, acceptor atom, score
      L1  H    10    36       P1  7948  2.00
      P1  H  6896  6909       L1    15  0.70

> <Gold.PLP.Chemscore.Internal.Correction>
0.2429

> <Gold.Rescore>
     Score         DG    S(hbond)    S(metal)    S(lipo)     H(rot)  DE(clash)    DE(int)     intcor
     16.31     -17.09       1.83        0.00      90.35       1.98       0.04       0.74       ----

> <Gold.Chemscore.Fitness>
16.3144

> <Gold.Chemscore.DG>
-17.0891

> <Gold.Chemscore.ZeroCoef>
-5.4800

> <Gold.Chemscore.Hbond>
1.8283

> <Gold.Chemscore.Metal>
0.0000

> <Gold.Chemscore.Lipo>
90.3518

> <Gold.Chemscore.Internal_Hbond>
0.0000

> <Gold.Chemscore.DEClash>
0.0354

> <Gold.Chemscore.DEInternal>
0.7393

> <Gold.Chemscore.Rot>
1.9799

> <Gold.Chemscore.Internal.Correction>
   9.000000E+99

> <Gold.Chemscore.Hbonds>
donor molecule, donor type, donor heavy atom, donor atom, acceptor molecule, acceptor atom, score
      L1  H    10    36       P1  7948  0.64
      P1  H  6896  6909       L1    15  0.64

> <Gold.Chemscore.Hbond.Weighted>
-6.1065

> <Gold.Chemscore.Metal.Weighted>
-0.0000

> <Gold.Chemscore.Lipo.Weighted>
-10.5712

> <Gold.Chemscore.Internal_Hbond.Weighted>
0.0000

> <Gold.Chemscore.DEClash.Weighted>
0.0354

> <Gold.Chemscore.DEInternal.Weighted>
0.7393

> <Gold.Chemscore.Rot.Weighted>
5.0685

> <Gold.Chemscore.Internal.Correction.Weighted>
   9.000000E+99

> <Gold.Protein.RotatedTorsions>
[ 6907 6896 6895 6894 ] final  -31.96 input  -60.11 | X-H torsion
[ 7974 7965 7964 7962 ] final  -74.63 input  175.53 | X-H torsion
[ 8008 7997 7996 7995 ] final  -12.19 input   59.86 | X-H torsion
[ 10167 10162 10161 10158 ] final  165.87 input  -65.29 | X-H torsion
[ 10718 10713 10712 10709 ] final  101.96 input   66.30 | X-H torsion
[ 10763 10752 10751 10750 ] final   79.46 input  -60.55 | X-H torsion
[ 11005 11000 10999 10996 ] final   42.53 input  -57.11 | X-H torsion

> <Gold.Protein.ActiveResidues>
 VAL166  LYS551  ARG553  GLY616  TRP617  ASP618  TYR619  PRO620  LYS621  CYS622 
 ASP623  PHE694  ASN695  SER759  ASP760  ASP761  ALA762  ILE779  LEU786  VAL792 
 PHE793  MET794  SER795  GLU796  ALA797  LYS798  CYS799  TRP800  GLU811  SER814 

> <Gold.Protein.RotatedAtoms>
  151.0851  134.9882  159.8374 H   0  0  0  0  0  0  0  0  0  0  0  0  # atno 6907 bound_to 6896
  152.5423  134.2134  159.8769 H   0  0  0  0  0  0  0  0  0  0  0  0  # atno 6908 bound_to 6896
  151.2167  133.4482  159.2633 H   0  0  0  0  0  0  0  0  0  0  0  0  # atno 6909 bound_to 6896
  145.6366  140.9323  143.1058 H   0  0  0  0  0  0  0  0  0  0  0  0  # atno 7974 bound_to 7965
  154.5398  140.2282  155.8660 H   0  0  0  0  0  0  0  0  0  0  0  0  # atno 8008 bound_to 7997
  156.1848  140.3091  155.9179 H   0  0  0  0  0  0  0  0  0  0  0  0  # atno 8009 bound_to 7997
  155.3280  140.0444  157.3032 H   0  0  0  0  0  0  0  0  0  0  0  0  # atno 8010 bound_to 7997
  139.4914  144.4087  151.9325 H   0  0  0  0  0  0  0  0  0  0  0  0  # atno 10167 bound_to 10162
  157.6815  131.0740  150.5332 H   0  0  0  0  0  0  0  0  0  0  0  0  # atno 10718 bound_to 10713
  153.0955  135.4839  154.8770 H   0  0  0  0  0  0  0  0  0  0  0  0  # atno 10763 bound_to 10752
  154.7319  135.3062  154.8879 H   0  0  0  0  0  0  0  0  0  0  0  0  # atno 10764 bound_to 10752
  153.9513  135.6823  153.4797 H   0  0  0  0  0  0  0  0  0  0  0  0  # atno 10765 bound_to 10752
  140.1730  134.4198  155.8245 H   0  0  0  0  0  0  0  0  0  0  0  0  # atno 11005 bound_to 11000
  144.7173  139.8151  143.7394 LP  0  0  0  0  0  0  0  0  0  0  0  0  # atno 17320 bound_to 7965
  146.1314  139.4351  143.0166 LP  0  0  0  0  0  0  0  0  0  0  0  0  # atno 17321 bound_to 7965
  140.3527  144.3069  150.5946 LP  0  0  0  0  0  0  0  0  0  0  0  0  # atno 17342 bound_to 10162
  140.5471  143.2213  151.7989 LP  0  0  0  0  0  0  0  0  0  0  0  0  # atno 17343 bound_to 10162
  156.5641  130.4263  149.6049 LP  0  0  0  0  0  0  0  0  0  0  0  0  # atno 17370 bound_to 10713
  156.2796  130.7063  151.1883 LP  0  0  0  0  0  0  0  0  0  0  0  0  # atno 17371 bound_to 10713
  141.2218  133.6965  156.7797 LP  0  0  0  0  0  0  0  0  0  0  0  0  # atno 17394 bound_to 11000
  140.2355  134.8653  157.3520 LP  0  0  0  0  0  0  0  0  0  0  0  0  # atno 17395 bound_to 11000

$$$$
