AV-unprocessed.smi:109|AV-procd|sdf|1032|dock5
  -GOLD-   2262018 43D 1   1.00000     0.00000
 Structure written by MMmdl.
 58 61  0  0  0  0  0  0  0  0  1 V2000
  149.7816  141.3361  153.4753 O   0  0  0  0  0  0  0  0  0  0  0  0
  149.3037  141.1208  154.7854 C   0  0  0  0  0  0  0  0  0  0  0  0
  150.3126  141.6699  155.8064 C   0  0  0  0  0  0  0  0  0  0  0  0
  149.8042  141.5818  157.2592 C   0  0  1  0  0  0  0  0  0  0  0  0
  149.6346  140.1819  157.6549 N   0  0  0  0  0  0  0  0  0  0  0  0
  148.5031  139.4866  157.4014 C   0  0  0  0  0  0  0  0  0  0  0  0
  147.4264  139.5501  158.2271 N   0  0  0  0  0  0  0  0  0  0  0  0
  146.3215  138.8549  157.9423 C   0  0  0  0  0  0  0  0  0  0  0  0
  146.0872  138.0510  156.9035 N   0  0  0  0  0  0  0  0  0  0  0  0
  147.1661  137.9789  156.0713 C   0  0  0  0  0  0  0  0  0  0  0  0
  148.4015  138.6619  156.2512 C   0  0  0  0  0  0  0  0  0  0  0  0
  149.2657  138.3527  155.2094 N   0  0  0  0  0  0  0  0  0  0  0  0
  148.5761  137.5368  154.4583 C   0  0  0  0  0  0  0  0  0  0  0  0
  147.3033  137.2556  154.9037 N   0  0  0  0  0  0  0  0  0  0  0  0
  146.2887  136.3682  154.2581 C   0  0  2  0  0  0  0  0  0  0  0  0
  146.7547  136.0288  152.9881 O   0  0  0  0  0  0  0  0  0  0  0  0
  145.6829  136.0827  152.0537 C   0  0  2  0  0  0  0  0  0  0  0  0
  146.2393  136.3059  150.6396 C   0  0  0  0  0  0  0  0  0  0  0  0
  146.7239  137.6255  150.5146 O   0  0  0  0  0  0  0  0  0  0  0  0
  144.8507  137.2554  152.5755 C   0  0  1  0  0  0  0  0  0  0  0  0
  143.5214  137.2564  152.0879 O   0  0  0  0  0  0  0  0  0  0  0  0
  144.9428  137.0935  154.0914 C   0  0  1  0  0  0  0  0  0  0  0  0
  143.8842  136.3083  154.6114 O   0  0  0  0  0  0  0  0  0  0  0  0
  150.7087  142.3430  158.2609 C   0  0  0  0  0  0  0  0  0  0  0  0
  151.0728  143.7789  157.8146 C   0  0  0  0  0  0  0  0  0  0  0  0
  151.9357  144.4963  158.8658 C   0  0  0  0  0  0  0  0  0  0  0  0
  153.2008  143.6900  159.1962 C   0  0  0  0  0  0  0  0  0  0  0  0
  152.8446  142.2673  159.6524 C   0  0  0  0  0  0  0  0  0  0  0  0
  151.9867  141.5449  158.6015 C   0  0  0  0  0  0  0  0  0  0  0  0
  146.2382  135.4885  154.9017 H   0  0  0  0  0  0  0  0  0  0  0  0
  145.1015  135.1602  152.1143 H   0  0  0  0  0  0  0  0  0  0  0  0
  145.3210  138.1947  152.2845 H   0  0  0  0  0  0  0  0  0  0  0  0
  144.9467  138.0586  154.6005 H   0  0  0  0  0  0  0  0  0  0  0  0
  149.5515  140.5878  152.9459 H   0  0  0  0  0  0  0  0  0  0  0  0
  148.3367  141.6122  154.8964 H   0  0  0  0  0  0  0  0  0  0  0  0
  149.1450  140.0518  154.9298 H   0  0  0  0  0  0  0  0  0  0  0  0
  151.2594  141.1379  155.7043 H   0  0  0  0  0  0  0  0  0  0  0  0
  150.5189  142.7127  155.5618 H   0  0  0  0  0  0  0  0  0  0  0  0
  148.8486  142.1046  157.2657 H   0  0  0  0  0  0  0  0  0  0  0  0
  150.4236  139.7717  158.1337 H   0  0  0  0  0  0  0  0  0  0  0  0
  145.5090  138.9590  158.6460 H   0  0  0  0  0  0  0  0  0  0  0  0
  148.9819  137.1130  153.5511 H   0  0  0  0  0  0  0  0  0  0  0  0
  147.0762  135.6316  150.4551 H   0  0  0  0  0  0  0  0  0  0  0  0
  145.4854  136.1027  149.8782 H   0  0  0  0  0  0  0  0  0  0  0  0
  145.9931  138.1957  150.3302 H   0  0  0  0  0  0  0  0  0  0  0  0
  143.5300  137.5543  151.1912 H   0  0  0  0  0  0  0  0  0  0  0  0
  143.1489  136.8749  154.7883 H   0  0  0  0  0  0  0  0  0  0  0  0
  150.1432  142.4305  159.1901 H   0  0  0  0  0  0  0  0  0  0  0  0
  151.6123  143.7534  156.8672 H   0  0  0  0  0  0  0  0  0  0  0  0
  150.1704  144.3645  157.6405 H   0  0  0  0  0  0  0  0  0  0  0  0
  152.2114  145.4880  158.5059 H   0  0  0  0  0  0  0  0  0  0  0  0
  151.3525  144.6490  159.7747 H   0  0  0  0  0  0  0  0  0  0  0  0
  153.8449  143.6423  158.3171 H   0  0  0  0  0  0  0  0  0  0  0  0
  153.7731  144.1980  159.9731 H   0  0  0  0  0  0  0  0  0  0  0  0
  153.7555  141.6991  159.8428 H   0  0  0  0  0  0  0  0  0  0  0  0
  152.3040  142.3110  160.5987 H   0  0  0  0  0  0  0  0  0  0  0  0
  151.7202  140.5534  158.9692 H   0  0  0  0  0  0  0  0  0  0  0  0
  152.5824  141.3881  157.7014 H   0  0  0  0  0  0  0  0  0  0  0  0
  1  2  1  0  0  0  0
  1 34  1  0  0  0  0
  2  3  1  0  0  0  0
  2 35  1  0  0  0  0
  2 36  1  0  0  0  0
  3  4  1  0  0  0  0
  3 37  1  0  0  0  0
  3 38  1  0  0  0  0
  4  5  1  0  0  0  0
  4 24  1  0  0  0  0
  4 39  1  0  0  0  0
  5  6  1  0  0  0  0
  5 40  1  0  0  0  0
  6 11  1  0  0  0  0
  6  7  2  0  0  0  0
  7  8  1  0  0  0  0
  8  9  2  0  0  0  0
  8 41  1  0  0  0  0
  9 10  1  0  0  0  0
 10 14  1  0  0  0  0
 10 11  2  0  0  0  0
 11 12  1  0  0  0  0
 12 13  2  0  0  0  0
 13 14  1  0  0  0  0
 13 42  1  0  0  0  0
 14 15  1  0  0  0  0
 15 30  1  0  0  0  0
 15 22  1  0  0  0  0
 15 16  1  0  0  0  0
 16 17  1  0  0  0  0
 17 31  1  0  0  0  0
 17 18  1  0  0  0  0
 17 20  1  0  0  0  0
 18 19  1  0  0  0  0
 18 43  1  0  0  0  0
 18 44  1  0  0  0  0
 19 45  1  0  0  0  0
 20 32  1  0  0  0  0
 20 21  1  0  0  0  0
 20 22  1  0  0  0  0
 21 46  1  0  0  0  0
 22 33  1  0  0  0  0
 22 23  1  0  0  0  0
 23 47  1  0  0  0  0
 24 29  1  0  0  0  0
 24 25  1  0  0  0  0
 24 48  1  0  0  0  0
 25 26  1  0  0  0  0
 25 49  1  0  0  0  0
 25 50  1  0  0  0  0
 26 27  1  0  0  0  0
 26 51  1  0  0  0  0
 26 52  1  0  0  0  0
 27 28  1  0  0  0  0
 27 53  1  0  0  0  0
 27 54  1  0  0  0  0
 28 29  1  0  0  0  0
 28 55  1  0  0  0  0
 28 56  1  0  0  0  0
 29 57  1  0  0  0  0
 29 58  1  0  0  0  0
M  END
> <s_m_source_file>
AV-unprocessed.smi

> <i_m_source_file_index>
109

> <i_lp_mmshare_version>
43012

> <i_f3d_flags>
0

> <s_epik_input>
W0NIMl0xW0NIMl1bQ0gyXVtDSDJdW0NIMl1bQ0hdMVtDQEhdKFtDSDJdW0NIMl1bT0hdKVtOSF1jKG5bY0hdbjIpYyhjMjMpbltjSF1uM1tDQEBIXTRPW0NASF0oW0NIMl1bT0hdKVtDQEBIXShbT0hdKVtDQEhdNFtPSF0=

> <s_epik_cmdline>
J2VwaWtfcHl0aG9uJywgJy1waCcsICc3LjAnLCAnLXRuJywgJzgnLCAnLW1hJywgJzIwMCcsICctbWV0YWxfYmluZGluZycsICctaW1hZScsICc8aW5maWxlLm1hZT4nLCAnLW9tYWUnLCAnPG91dGZpbGUubWFlPic=

> <r_lp_tautomer_probability>
1

> <r_epik_Ionization_Penalty>
0.000793976

> <r_epik_Ionization_Penalty_Charging>
0

> <r_epik_Ionization_Penalty_Neutral>
0.000793976

> <r_epik_State_Penalty>
-0

> <r_epik_Charging_Adjusted_Penalty>
0

> <i_epik_Tot_Q>
0

> <i_epik_Tot_abs_Q>
0

> <r_epik_Metal_State_Penalty>
-0

> <b_epik_Metal_Only>
0

> <s_epik_Chemistry_Notes>
This compound contains an acetal/aminal-like group ( X-CH(R)-Y where X, Y are N, S, or O) that may be acid/base labile, releasing an aldehyde.

> <s_lp_Force_Field>
OPLS_2005

> <r_lp_Energy>
54.9407

> <b_lp_Chiralities_Consistent>
1

> <s_lp_Variant>
AV-unprocessed.smi:109-2

> <Gold.Version>
5.8.1

> <Gold.Id.Protein>
6NUR|6NUR_protein|mol2

> <Gold.PLP.Fitness>
55.3907

> <Gold.PLP.PLP>
-41.1165

> <Gold.PLP.part.hbond>
-8.4763

> <Gold.PLP.part.metal>
0.0000

> <Gold.PLP.part.buried>
-1.2846

> <Gold.PLP.part.nonpolar>
-31.2460

> <Gold.PLP.part.repulsive>
0.2988

> <Gold.PLP.ligand.clash>
0.0000

> <Gold.PLP.ligand.torsion>
1.5814

> <Gold.PLP.Chemscore.Hbond>
4.7593

> <Gold.PLP.Chemscore.CHOScore>
1.0000

> <Gold.PLP.Chemscore.Metal>
0.0000

> <Gold.Chemscore.Hbonds>
donor molecule, donor type, donor heavy atom, donor atom, acceptor molecule, acceptor atom, score
      L1  H     1    34       P1  7957  0.77
      L1  H    19    45       P1 10171  0.57
      L1  H    21    46       P1 10171  1.00
      P1  H  7954  7966       L1    19  1.00
      P1  H  7989  7998       L1     1  0.06
      P1  H  8011  8017       L1     1  0.82
      L1  C    13    42       P1  7948  0.65

> <Gold.PLP.Chemscore.Internal.Correction>
0.1592

> <Gold.Rescore>
     Score         DG    S(hbond)    S(metal)    S(lipo)     H(rot)  DE(clash)    DE(int)     intcor
      8.76     -13.34       3.12        0.00      97.80       5.47       0.82       3.77       ----

> <Gold.Chemscore.Fitness>
8.7572

> <Gold.Chemscore.DG>
-13.3419

> <Gold.Chemscore.ZeroCoef>
-5.4800

> <Gold.Chemscore.Hbond>
3.1177

> <Gold.Chemscore.Metal>
0.0000

> <Gold.Chemscore.Lipo>
97.7986

> <Gold.Chemscore.Internal_Hbond>
0.0000

> <Gold.Chemscore.DEClash>
0.8181

> <Gold.Chemscore.DEInternal>
3.7666

> <Gold.Chemscore.Rot>
5.4662

> <Gold.Chemscore.Internal.Correction>
   9.000000E+99

> <Gold.Chemscore.Hbonds>
donor molecule, donor type, donor heavy atom, donor atom, acceptor molecule, acceptor atom, score
      L1  H     1    34       P1  7957  0.78
      L1  H    19    45       P1 10171  0.57
      L1  H    21    46       P1 10171  0.97
      P1  H  7954  7966       L1    19  0.89
      P1  H  8011  8017       L1     1  0.15

> <Gold.Chemscore.Hbond.Weighted>
-10.4130

> <Gold.Chemscore.Metal.Weighted>
-0.0000

> <Gold.Chemscore.Lipo.Weighted>
-11.4424

> <Gold.Chemscore.Internal_Hbond.Weighted>
0.0000

> <Gold.Chemscore.DEClash.Weighted>
0.8181

> <Gold.Chemscore.DEInternal.Weighted>
3.7666

> <Gold.Chemscore.Rot.Weighted>
13.9935

> <Gold.Chemscore.Internal.Correction.Weighted>
   9.000000E+99

> <Gold.Protein.RotatedTorsions>
[ 6907 6896 6895 6894 ] final  167.72 input  -60.11 | X-H torsion
[ 7974 7965 7964 7962 ] final  -77.14 input  175.53 | X-H torsion
[ 8008 7997 7996 7995 ] final   52.21 input   59.86 | X-H torsion
[ 10167 10162 10161 10158 ] final  116.23 input  -65.29 | X-H torsion
[ 10718 10713 10712 10709 ] final  149.70 input   66.30 | X-H torsion
[ 10763 10752 10751 10750 ] final -163.74 input  -60.55 | X-H torsion
[ 11005 11000 10999 10996 ] final  -98.81 input  -57.11 | X-H torsion

> <Gold.Protein.ActiveResidues>
 VAL166  LYS551  ARG553  GLY616  TRP617  ASP618  TYR619  PRO620  LYS621  CYS622 
 ASP623  PHE694  ASN695  SER759  ASP760  ASP761  ALA762  ILE779  LEU786  VAL792 
 PHE793  MET794  SER795  GLU796  ALA797  LYS798  CYS799  TRP800  GLU811  SER814 

> <Gold.Protein.RotatedAtoms>
  151.8589  133.3453  159.3697 H   0  0  0  0  0  0  0  0  0  0  0  0  # atno 6907 bound_to 6896
  150.7185  134.5226  159.5670 H   0  0  0  0  0  0  0  0  0  0  0  0  # atno 6908 bound_to 6896
  152.2735  134.7907  160.0461 H   0  0  0  0  0  0  0  0  0  0  0  0  # atno 6909 bound_to 6896
  145.6036  140.9403  143.1227 H   0  0  0  0  0  0  0  0  0  0  0  0  # atno 7974 bound_to 7965
  155.4481  140.3457  155.4297 H   0  0  0  0  0  0  0  0  0  0  0  0  # atno 8008 bound_to 7997
  156.1237  140.1494  156.9197 H   0  0  0  0  0  0  0  0  0  0  0  0  # atno 8009 bound_to 7997
  154.4842  140.0860  156.7428 H   0  0  0  0  0  0  0  0  0  0  0  0  # atno 8010 bound_to 7997
  139.6262  144.7108  151.2529 H   0  0  0  0  0  0  0  0  0  0  0  0  # atno 10167 bound_to 10162
  157.2928  131.0856  151.1449 H   0  0  0  0  0  0  0  0  0  0  0  0  # atno 10718 bound_to 10713
  154.7094  135.3003  154.9220 H   0  0  0  0  0  0  0  0  0  0  0  0  # atno 10763 bound_to 10752
  154.0126  135.6693  153.4770 H   0  0  0  0  0  0  0  0  0  0  0  0  # atno 10764 bound_to 10752
  153.0743  135.5043  154.8284 H   0  0  0  0  0  0  0  0  0  0  0  0  # atno 10765 bound_to 10752
  141.1331  133.8273  157.0888 H   0  0  0  0  0  0  0  0  0  0  0  0  # atno 11005 bound_to 11000
  144.7299  139.7757  143.7351 LP  0  0  0  0  0  0  0  0  0  0  0  0  # atno 17320 bound_to 7965
  146.1558  139.4655  143.0020 LP  0  0  0  0  0  0  0  0  0  0  0  0  # atno 17321 bound_to 7965
  140.7412  143.6564  150.8203 LP  0  0  0  0  0  0  0  0  0  0  0  0  # atno 17342 bound_to 10162
  140.0182  143.5570  152.2811 LP  0  0  0  0  0  0  0  0  0  0  0  0  # atno 17343 bound_to 10162
  157.2838  130.6763  149.6079 LP  0  0  0  0  0  0  0  0  0  0  0  0  # atno 17370 bound_to 10713
  155.9668  130.4441  150.5450 LP  0  0  0  0  0  0  0  0  0  0  0  0  # atno 17371 bound_to 10713
  140.0405  134.9856  157.0953 LP  0  0  0  0  0  0  0  0  0  0  0  0  # atno 17394 bound_to 11000
  140.4143  134.1948  155.7163 LP  0  0  0  0  0  0  0  0  0  0  0  0  # atno 17395 bound_to 11000

$$$$
