AV-unprocessed.smi:3028|AV-procd|sdf|11524|dock1
  -GOLD-   2272016463D 1   1.00000     0.00000
 Structure written by MMmdl.
 47 48  0  0  0  0  0  0  0  0  1 V2000
  146.3149  134.2000  154.8083 C   0  0  0  0  0  0  0  0  0  0  0  0
  146.7865  135.6254  154.7817 C   0  0  0  0  0  0  0  0  0  0  0  0
  146.6300  136.6177  155.7906 C   0  0  0  0  0  0  0  0  0  0  0  0
  147.1629  137.7805  155.4549 N   0  0  0  0  0  0  0  0  0  0  0  0
  147.6802  137.5750  154.2226 N   0  0  0  0  0  0  0  0  0  0  0  0
  148.3631  138.6558  153.5219 C   0  0  1  0  0  0  0  0  0  0  0  0
  147.3509  139.7493  153.1283 C   0  0  0  0  0  0  0  0  0  0  0  0
  149.5633  139.2063  154.3394 C   0  0  1  0  0  0  0  0  0  0  0  0
  150.8457  138.3675  154.1866 C   0  0  0  0  0  0  0  0  0  0  0  0
  149.8847  140.5567  153.8867 N   0  0  0  0  0  0  0  0  0  0  0  0
  149.4649  141.5777  154.8559 C   0  0  0  0  0  0  0  0  0  0  0  0
  150.4466  141.7379  156.0268 C   0  0  0  0  0  0  0  0  0  0  0  0
  151.3088  140.8853  156.2364 O   0  0  0  0  0  0  0  0  0  0  0  0
  150.3554  142.8264  156.8099 N   0  0  0  0  0  0  0  0  0  0  0  0
  151.1852  143.1657  157.9645 C   0  0  0  0  0  0  0  0  0  0  0  0
  151.1749  142.0054  158.9710 C   0  0  0  0  0  0  0  0  0  0  0  0
  151.9195  142.3974  160.2580 C   0  0  0  0  0  0  0  0  0  0  0  0
  151.3397  143.5708  160.8182 O   0  0  0  0  0  0  0  0  0  0  0  0
  151.4338  144.7017  159.9584 C   0  0  0  0  0  0  0  0  0  0  0  0
  150.6637  144.4378  158.6544 C   0  0  0  0  0  0  0  0  0  0  0  0
  147.4648  136.2815  153.7937 C   0  0  0  0  0  0  0  0  0  0  0  0
  145.7133  133.9884  155.6925 H   0  0  0  0  0  0  0  0  0  0  0  0
  147.1510  133.5005  154.8138 H   0  0  0  0  0  0  0  0  0  0  0  0
  145.7015  133.9628  153.9388 H   0  0  0  0  0  0  0  0  0  0  0  0
  146.1466  136.5275  156.7524 H   0  0  0  0  0  0  0  0  0  0  0  0
  148.7541  138.2249  152.5984 H   0  0  0  0  0  0  0  0  0  0  0  0
  147.8040  140.4969  152.4774 H   0  0  0  0  0  0  0  0  0  0  0  0
  146.9586  140.2665  154.0046 H   0  0  0  0  0  0  0  0  0  0  0  0
  146.5053  139.3230  152.5875 H   0  0  0  0  0  0  0  0  0  0  0  0
  149.3002  139.2042  155.3993 H   0  0  0  0  0  0  0  0  0  0  0  0
  150.7180  137.3599  154.5825 H   0  0  0  0  0  0  0  0  0  0  0  0
  151.6771  138.8189  154.7297 H   0  0  0  0  0  0  0  0  0  0  0  0
  151.1413  138.2783  153.1405 H   0  0  0  0  0  0  0  0  0  0  0  0
  149.4691  140.7143  152.9797 H   0  0  0  0  0  0  0  0  0  0  0  0
  149.3692  142.5400  154.3514 H   0  0  0  0  0  0  0  0  0  0  0  0
  148.4827  141.3094  155.2456 H   0  0  0  0  0  0  0  0  0  0  0  0
  149.6322  143.4915  156.5767 H   0  0  0  0  0  0  0  0  0  0  0  0
  152.2195  143.3248  157.6564 H   0  0  0  0  0  0  0  0  0  0  0  0
  150.1471  141.7372  159.2203 H   0  0  0  0  0  0  0  0  0  0  0  0
  151.6319  141.1183  158.5308 H   0  0  0  0  0  0  0  0  0  0  0  0
  151.8557  141.5905  160.9882 H   0  0  0  0  0  0  0  0  0  0  0  0
  152.9795  142.5627  160.0591 H   0  0  0  0  0  0  0  0  0  0  0  0
  151.0161  145.5687  160.4705 H   0  0  0  0  0  0  0  0  0  0  0  0
  152.4809  144.9285  159.7516 H   0  0  0  0  0  0  0  0  0  0  0  0
  150.7505  145.2993  157.9922 H   0  0  0  0  0  0  0  0  0  0  0  0
  149.6025  144.3275  158.8827 H   0  0  0  0  0  0  0  0  0  0  0  0
  147.8100  135.9374  152.8299 H   0  0  0  0  0  0  0  0  0  0  0  0
  1  2  1  0  0  0  0
  1 22  1  0  0  0  0
  1 23  1  0  0  0  0
  1 24  1  0  0  0  0
  2 21  2  0  0  0  0
  2  3  1  0  0  0  0
  3  4  2  0  0  0  0
  3 25  1  0  0  0  0
  4  5  1  0  0  0  0
  5  6  1  0  0  0  0
  5 21  1  0  0  0  0
  6  7  1  0  0  0  0
  6  8  1  0  0  0  0
  6 26  1  0  0  0  0
  7 27  1  0  0  0  0
  7 28  1  0  0  0  0
  7 29  1  0  0  0  0
  8  9  1  0  0  0  0
  8 10  1  0  0  0  0
  8 30  1  0  0  0  0
  9 31  1  0  0  0  0
  9 32  1  0  0  0  0
  9 33  1  0  0  0  0
 10 11  1  0  0  0  0
 10 34  1  0  0  0  0
 11 12  1  0  0  0  0
 11 35  1  0  0  0  0
 11 36  1  0  0  0  0
 12 13  2  0  0  0  0
 12 14  1  0  0  0  0
 14 15  1  0  0  0  0
 14 37  1  0  0  0  0
 15 20  1  0  0  0  0
 15 16  1  0  0  0  0
 15 38  1  0  0  0  0
 16 17  1  0  0  0  0
 16 39  1  0  0  0  0
 16 40  1  0  0  0  0
 17 18  1  0  0  0  0
 17 41  1  0  0  0  0
 17 42  1  0  0  0  0
 18 19  1  0  0  0  0
 19 20  1  0  0  0  0
 19 43  1  0  0  0  0
 19 44  1  0  0  0  0
 20 45  1  0  0  0  0
 20 46  1  0  0  0  0
 21 47  1  0  0  0  0
M  END
> <s_m_source_file>
AV-unprocessed.smi

> <i_m_source_file_index>
3028

> <i_lp_mmshare_version>
43012

> <i_f3d_flags>
0

> <s_epik_input>
W0NIM11jMVtjSF1ubihbY0hdMSlbQ0BIXShbQ0gzXSlbQ0BIXShbQ0gzXSlbTkhdW0NIMl1DKD1PKVtOSF1bQ0hdMltDSDJdW0NIMl1PW0NIMl1bQ0gyXTI=

> <s_epik_cmdline>
J2VwaWtfcHl0aG9uJywgJy1waCcsICc3LjAnLCAnLXRuJywgJzgnLCAnLW1hJywgJzIwMCcsICctbWV0YWxfYmluZGluZycsICctaW1hZScsICc8aW5maWxlLm1hZT4nLCAnLW9tYWUnLCAnPG91dGZpbGUubWFlPic=

> <r_lp_tautomer_probability>
1

> <r_epik_Ionization_Penalty>
0.88617

> <r_epik_Ionization_Penalty_Charging>
0

> <r_epik_Ionization_Penalty_Neutral>
0.88617

> <r_epik_State_Penalty>
0.921066

> <r_epik_Charging_Adjusted_Penalty>
0.921066

> <i_epik_Tot_Q>
0

> <i_epik_Tot_abs_Q>
0

> <r_epik_Metal_State_Penalty>
0.917309

> <b_epik_Metal_Only>
0

> <s_lp_Force_Field>
OPLS_2005

> <r_lp_Energy>
18.7055

> <b_lp_Chiralities_Consistent>
1

> <s_lp_Variant>
AV-unprocessed.smi:3028-8

> <Gold.Version>
5.8.1

> <Gold.Id.Protein>
6NUR|6NUR_protein|mol2

> <Gold.PLP.Fitness>
44.0227

> <Gold.PLP.PLP>
-36.8479

> <Gold.PLP.part.hbond>
-3.0000

> <Gold.PLP.part.metal>
0.0000

> <Gold.PLP.part.buried>
-5.0162

> <Gold.PLP.part.nonpolar>
-27.8453

> <Gold.PLP.part.repulsive>
0.1575

> <Gold.PLP.ligand.clash>
0.0000

> <Gold.PLP.ligand.torsion>
1.5922

> <Gold.PLP.Chemscore.Hbond>
2.3920

> <Gold.PLP.Chemscore.CHOScore>
1.0000

> <Gold.PLP.Chemscore.Metal>
0.0000

> <Gold.Chemscore.Hbonds>
donor molecule, donor type, donor heavy atom, donor atom, acceptor molecule, acceptor atom, score
      L1  H    10    34       P1  7957  0.78
      L1  H    14    37       P1  8028  1.00
      P1  H  7989  7998       L1    10  0.59

> <Gold.PLP.Chemscore.Internal.Correction>
0.1833

> <Gold.Rescore>
     Score         DG    S(hbond)    S(metal)    S(lipo)     H(rot)  DE(clash)    DE(int)     intcor
     15.91     -17.97       1.95        0.00      93.07       1.92       0.49       1.57       ----

> <Gold.Chemscore.Fitness>
15.9135

> <Gold.Chemscore.DG>
-17.9728

> <Gold.Chemscore.ZeroCoef>
-5.4800

> <Gold.Chemscore.Hbond>
1.9542

> <Gold.Chemscore.Metal>
0.0000

> <Gold.Chemscore.Lipo>
93.0699

> <Gold.Chemscore.Internal_Hbond>
0.0000

> <Gold.Chemscore.DEClash>
0.4920

> <Gold.Chemscore.DEInternal>
1.5673

> <Gold.Chemscore.Rot>
1.9233

> <Gold.Chemscore.Internal.Correction>
   9.000000E+99

> <Gold.Chemscore.Hbonds>
donor molecule, donor type, donor heavy atom, donor atom, acceptor molecule, acceptor atom, score
      L1  H    10    34       P1  7957  0.77
      L1  H    14    37       P1  8028  0.98
      P1  H  7989  7998       L1    10  0.08

> <Gold.Chemscore.Hbond.Weighted>
-6.5271

> <Gold.Chemscore.Metal.Weighted>
-0.0000

> <Gold.Chemscore.Lipo.Weighted>
-10.8892

> <Gold.Chemscore.Internal_Hbond.Weighted>
0.0000

> <Gold.Chemscore.DEClash.Weighted>
0.4920

> <Gold.Chemscore.DEInternal.Weighted>
1.5673

> <Gold.Chemscore.Rot.Weighted>
4.9235

> <Gold.Chemscore.Internal.Correction.Weighted>
   9.000000E+99

> <Gold.Protein.RotatedTorsions>
[ 6907 6896 6895 6894 ] final   45.52 input  -60.11 | X-H torsion
[ 7974 7965 7964 7962 ] final -108.20 input  175.53 | X-H torsion
[ 8008 7997 7996 7995 ] final  161.89 input   59.86 | X-H torsion
[ 10167 10162 10161 10158 ] final  -57.08 input  -65.29 | X-H torsion
[ 10718 10713 10712 10709 ] final -100.51 input   66.30 | X-H torsion
[ 10763 10752 10751 10750 ] final   11.73 input  -60.55 | X-H torsion
[ 11005 11000 10999 10996 ] final  -17.28 input  -57.11 | X-H torsion

> <Gold.Protein.ActiveResidues>
 VAL166  LYS551  ARG553  GLY616  TRP617  ASP618  TYR619  PRO620  LYS621  CYS622 
 ASP623  PHE694  ASN695  SER759  ASP760  ASP761  ALA762  ILE779  LEU786  VAL792 
 PHE793  MET794  SER795  GLU796  ALA797  LYS798  CYS799  TRP800  GLU811  SER814 

> <Gold.Protein.RotatedAtoms>
  152.2455  134.8186  160.0453 H   0  0  0  0  0  0  0  0  0  0  0  0  # atno 6907 bound_to 6896
  151.8885  133.3505  159.3798 H   0  0  0  0  0  0  0  0  0  0  0  0  # atno 6908 bound_to 6896
  150.7067  134.4874  159.5543 H   0  0  0  0  0  0  0  0  0  0  0  0  # atno 6909 bound_to 6896
  145.1958  140.9035  143.3398 H   0  0  0  0  0  0  0  0  0  0  0  0  # atno 7974 bound_to 7965
  156.2071  140.1765  156.7777 H   0  0  0  0  0  0  0  0  0  0  0  0  # atno 8008 bound_to 7997
  154.5670  140.0689  156.8936 H   0  0  0  0  0  0  0  0  0  0  0  0  # atno 8009 bound_to 7997
  155.2743  140.3344  155.4265 H   0  0  0  0  0  0  0  0  0  0  0  0  # atno 8010 bound_to 7997
  140.6279  143.2446  151.5315 H   0  0  0  0  0  0  0  0  0  0  0  0  # atno 10167 bound_to 10162
  156.0165  130.5331  150.6827 H   0  0  0  0  0  0  0  0  0  0  0  0  # atno 10718 bound_to 10713
  153.1895  135.6840  153.8371 H   0  0  0  0  0  0  0  0  0  0  0  0  # atno 10763 bound_to 10752
  153.7675  135.3201  155.3348 H   0  0  0  0  0  0  0  0  0  0  0  0  # atno 10764 bound_to 10752
  154.8109  135.4718  154.0611 H   0  0  0  0  0  0  0  0  0  0  0  0  # atno 10765 bound_to 10752
  140.8153  133.8110  155.9604 H   0  0  0  0  0  0  0  0  0  0  0  0  # atno 11005 bound_to 11000
  144.9996  139.3611  143.6174 LP  0  0  0  0  0  0  0  0  0  0  0  0  # atno 17320 bound_to 7965
  146.3427  139.9213  142.8766 LP  0  0  0  0  0  0  0  0  0  0  0  0  # atno 17321 bound_to 7965
  139.5497  144.2427  152.1508 LP  0  0  0  0  0  0  0  0  0  0  0  0  # atno 17342 bound_to 10162
  140.1664  144.4977  150.6604 LP  0  0  0  0  0  0  0  0  0  0  0  0  # atno 17343 bound_to 10162
  157.4526  131.0874  151.0830 LP  0  0  0  0  0  0  0  0  0  0  0  0  # atno 17370 bound_to 10713
  157.1341  130.6115  149.5537 LP  0  0  0  0  0  0  0  0  0  0  0  0  # atno 17371 bound_to 10713
  140.9156  134.2206  157.4959 LP  0  0  0  0  0  0  0  0  0  0  0  0  # atno 17394 bound_to 11000
  139.8711  134.9769  156.4940 LP  0  0  0  0  0  0  0  0  0  0  0  0  # atno 17395 bound_to 11000

$$$$
