AV-unprocessed.smi:203|AV-procd|sdf|1597|dock8
  -GOLD-   2262019503D 1   1.00000     0.00000
 Structure written by MMmdl.
 57 61  0  0  0  0  0  0  0  0  1 V2000
  152.8092  136.9491  159.9730 O   0  0  0  0  0  0  0  0  0  0  0  0
  152.3321  137.8349  159.2677 C   0  0  0  0  0  0  0  0  0  0  0  0
  153.1361  139.0097  158.7384 C   0  0  0  0  0  0  0  0  0  0  0  0
  152.0660  139.9372  158.1272 C   0  0  2  0  0  0  0  0  0  0  0  0
  151.8493  141.2750  158.9037 C   0  0  1  0  0  0  0  0  0  0  0  0
  153.1674  141.8513  159.4863 C   0  0  0  0  0  0  0  0  0  0  0  0
  152.9296  143.1654  160.2419 C   0  0  0  0  0  0  0  0  0  0  0  0
  152.2329  144.1750  159.3240 C   0  0  0  0  0  0  0  0  0  0  0  0
  150.9305  143.5823  158.7705 C   0  0  0  0  0  0  0  0  0  0  0  0
  151.1698  142.3058  158.0977 N   0  0  0  0  0  0  0  0  0  0  0  0
  150.0639  141.9172  157.4244 C   0  0  0  0  0  0  0  0  0  0  0  0
  150.2494  141.1532  156.3201 N   0  0  0  0  0  0  0  0  0  0  0  0
  149.1946  140.7306  155.6165 C   0  0  0  0  0  0  0  0  0  0  0  0
  147.8975  140.9559  155.8386 N   0  0  0  0  0  0  0  0  0  0  0  0
  147.7107  141.7312  156.9450 C   0  0  0  0  0  0  0  0  0  0  0  0
  148.7298  142.2550  157.7885 C   0  0  0  0  0  0  0  0  0  0  0  0
  148.1607  143.0028  158.8127 N   0  0  0  0  0  0  0  0  0  0  0  0
  146.8771  142.9221  158.5895 C   0  0  0  0  0  0  0  0  0  0  0  0
  146.5193  142.1781  157.4882 N   0  0  0  0  0  0  0  0  0  0  0  0
  145.1690  141.9247  157.0155 C   0  0  0  0  0  0  0  0  0  0  0  0
  145.0033  142.2192  155.5092 C   0  0  1  0  0  0  0  0  0  0  0  0
  143.7769  141.6575  155.0823 O   0  0  0  0  0  0  0  0  0  0  0  0
  144.9649  143.7272  155.1888 C   0  0  1  0  0  0  0  0  0  0  0  0
  144.9465  144.0691  153.6974 C   0  0  0  0  0  0  0  0  0  0  0  0
  144.3124  145.4494  153.6547 C   0  0  0  0  0  0  0  0  0  0  0  0
  143.5985  145.5654  155.0033 C   0  0  0  0  0  0  0  0  0  0  0  0
  143.7252  144.2830  155.6022 O   0  0  0  0  0  0  0  0  0  0  0  0
  150.7928  139.0685  158.0350 C   0  0  0  0  0  0  0  0  0  0  0  0
  151.0668  137.9081  158.8600 N   0  0  0  0  0  0  0  0  0  0  0  0
  153.7189  139.4825  159.5293 H   0  0  0  0  0  0  0  0  0  0  0  0
  153.8293  138.6553  157.9752 H   0  0  0  0  0  0  0  0  0  0  0  0
  152.3551  140.1666  157.1012 H   0  0  0  0  0  0  0  0  0  0  0  0
  151.1990  141.0560  159.7512 H   0  0  0  0  0  0  0  0  0  0  0  0
  153.6394  141.1390  160.1620 H   0  0  0  0  0  0  0  0  0  0  0  0
  153.8863  142.0345  158.6877 H   0  0  0  0  0  0  0  0  0  0  0  0
  152.3147  142.9797  161.1234 H   0  0  0  0  0  0  0  0  0  0  0  0
  153.8763  143.5716  160.5983 H   0  0  0  0  0  0  0  0  0  0  0  0
  152.0238  145.0967  159.8674 H   0  0  0  0  0  0  0  0  0  0  0  0
  152.8948  144.4418  158.4989 H   0  0  0  0  0  0  0  0  0  0  0  0
  150.2184  143.4345  159.5837 H   0  0  0  0  0  0  0  0  0  0  0  0
  150.4764  144.2908  158.0758 H   0  0  0  0  0  0  0  0  0  0  0  0
  149.4223  140.1246  154.7519 H   0  0  0  0  0  0  0  0  0  0  0  0
  146.1508  143.4075  159.2251 H   0  0  0  0  0  0  0  0  0  0  0  0
  144.9078  140.8880  157.2324 H   0  0  0  0  0  0  0  0  0  0  0  0
  144.4929  142.5442  157.6051 H   0  0  0  0  0  0  0  0  0  0  0  0
  145.8177  141.7469  154.9583 H   0  0  0  0  0  0  0  0  0  0  0  0
  143.8930  141.3090  154.2117 H   0  0  0  0  0  0  0  0  0  0  0  0
  145.7886  144.2538  155.6760 H   0  0  0  0  0  0  0  0  0  0  0  0
  145.9382  144.0475  153.2449 H   0  0  0  0  0  0  0  0  0  0  0  0
  144.3139  143.3624  153.1582 H   0  0  0  0  0  0  0  0  0  0  0  0
  145.0691  146.2288  153.5569 H   0  0  0  0  0  0  0  0  0  0  0  0
  143.6225  145.5423  152.8150 H   0  0  0  0  0  0  0  0  0  0  0  0
  144.0876  146.3086  155.6342 H   0  0  0  0  0  0  0  0  0  0  0  0
  142.5496  145.8435  154.8991 H   0  0  0  0  0  0  0  0  0  0  0  0
  149.8907  139.5860  158.3622 H   0  0  0  0  0  0  0  0  0  0  0  0
  150.6245  138.7351  157.0103 H   0  0  0  0  0  0  0  0  0  0  0  0
  150.3576  137.2285  159.0950 H   0  0  0  0  0  0  0  0  0  0  0  0
  1  2  2  0  0  0  0
  2 29  1  0  0  0  0
  2  3  1  0  0  0  0
  3  4  1  0  0  0  0
  3 30  1  0  0  0  0
  3 31  1  0  0  0  0
  4  5  1  0  0  0  0
  4 28  1  0  0  0  0
  4 32  1  0  0  0  0
  5 10  1  0  0  0  0
  5  6  1  0  0  0  0
  5 33  1  0  0  0  0
  6  7  1  0  0  0  0
  6 34  1  0  0  0  0
  6 35  1  0  0  0  0
  7  8  1  0  0  0  0
  7 36  1  0  0  0  0
  7 37  1  0  0  0  0
  8  9  1  0  0  0  0
  8 38  1  0  0  0  0
  8 39  1  0  0  0  0
  9 10  1  0  0  0  0
  9 40  1  0  0  0  0
  9 41  1  0  0  0  0
 10 11  1  0  0  0  0
 11 16  1  0  0  0  0
 11 12  2  0  0  0  0
 12 13  1  0  0  0  0
 13 14  2  0  0  0  0
 13 42  1  0  0  0  0
 14 15  1  0  0  0  0
 15 19  1  0  0  0  0
 15 16  2  0  0  0  0
 16 17  1  0  0  0  0
 17 18  2  0  0  0  0
 18 19  1  0  0  0  0
 18 43  1  0  0  0  0
 19 20  1  0  0  0  0
 20 21  1  0  0  0  0
 20 44  1  0  0  0  0
 20 45  1  0  0  0  0
 21 22  1  0  0  0  0
 21 23  1  0  0  0  0
 21 46  1  0  0  0  0
 22 47  1  0  0  0  0
 23 27  1  0  0  0  0
 23 24  1  0  0  0  0
 23 48  1  0  0  0  0
 24 25  1  0  0  0  0
 24 49  1  0  0  0  0
 24 50  1  0  0  0  0
 25 26  1  0  0  0  0
 25 51  1  0  0  0  0
 25 52  1  0  0  0  0
 26 27  1  0  0  0  0
 26 53  1  0  0  0  0
 26 54  1  0  0  0  0
 28 29  1  0  0  0  0
 28 55  1  0  0  0  0
 28 56  1  0  0  0  0
 29 57  1  0  0  0  0
M  END
> <s_m_source_file>
AV-unprocessed.smi

> <i_m_source_file_index>
203

> <i_lp_mmshare_version>
43012

> <i_f3d_flags>
0

> <s_epik_input>
Tz1DMVtDSDJdW0NASF0oW0NIMl1bTkhdMSlbQ0BASF0yW0NIMl1bQ0gyXVtDSDJdW0NIMl1OMmMobltjSF1uMyljKGMzNCluW2NIXW40W0NIMl1bQ0BIXShbT0hdKVtDQEBIXTVbQ0gyXVtDSDJdW0NIMl1PNQ==

> <s_epik_cmdline>
J2VwaWtfcHl0aG9uJywgJy1waCcsICc3LjAnLCAnLXRuJywgJzgnLCAnLW1hJywgJzIwMCcsICctbWV0YWxfYmluZGluZycsICctaW1hZScsICc8aW5maWxlLm1hZT4nLCAnLW9tYWUnLCAnPG91dGZpbGUubWFlPic=

> <r_lp_tautomer_probability>
1

> <r_epik_Ionization_Penalty>
0.00175146

> <r_epik_Ionization_Penalty_Charging>
0

> <r_epik_Ionization_Penalty_Neutral>
0.00175146

> <r_epik_State_Penalty>
0.00109045

> <r_epik_Charging_Adjusted_Penalty>
0.00109045

> <i_epik_Tot_Q>
0

> <i_epik_Tot_abs_Q>
0

> <r_epik_Metal_State_Penalty>
-0

> <b_epik_Metal_Only>
0

> <s_lp_Force_Field>
OPLS_2005

> <r_lp_Energy>
57.64

> <b_lp_Chiralities_Consistent>
1

> <s_lp_Variant>
AV-unprocessed.smi:203-16

> <Gold.Version>
5.8.1

> <Gold.Id.Protein>
6NUR|6NUR_protein|mol2

> <Gold.PLP.Fitness>
49.1822

> <Gold.PLP.PLP>
-45.3577

> <Gold.PLP.part.hbond>
-2.5620

> <Gold.PLP.part.metal>
0.0000

> <Gold.PLP.part.buried>
-7.5634

> <Gold.PLP.part.nonpolar>
-36.7097

> <Gold.PLP.part.repulsive>
0.5606

> <Gold.PLP.ligand.clash>
0.0000

> <Gold.PLP.ligand.torsion>
1.2421

> <Gold.PLP.Chemscore.Hbond>
2.0000

> <Gold.PLP.Chemscore.CHOScore>
0.0000

> <Gold.PLP.Chemscore.Metal>
0.0000

> <Gold.Chemscore.Hbonds>
donor molecule, donor type, donor heavy atom, donor atom, acceptor molecule, acceptor atom, score
      L1  H    22    47       P1 10175  1.00
      P1  H  6896  6908       L1     1  0.91

> <Gold.PLP.Chemscore.Internal.Correction>
0.3086

> <Gold.Rescore>
     Score         DG    S(hbond)    S(metal)    S(lipo)     H(rot)  DE(clash)    DE(int)     intcor
      9.40     -15.64       1.63        0.00      99.65       2.72       0.01       6.23       ----

> <Gold.Chemscore.Fitness>
9.3994

> <Gold.Chemscore.DG>
-15.6355

> <Gold.Chemscore.ZeroCoef>
-5.4800

> <Gold.Chemscore.Hbond>
1.6325

> <Gold.Chemscore.Metal>
0.0000

> <Gold.Chemscore.Lipo>
99.6464

> <Gold.Chemscore.Internal_Hbond>
0.0000

> <Gold.Chemscore.DEClash>
0.0093

> <Gold.Chemscore.DEInternal>
6.2268

> <Gold.Chemscore.Rot>
2.7171

> <Gold.Chemscore.Internal.Correction>
   9.000000E+99

> <Gold.Chemscore.Hbonds>
donor molecule, donor type, donor heavy atom, donor atom, acceptor molecule, acceptor atom, score
      L1  H    22    47       P1 10175  0.45
      P1  H  6896  6908       L1     1  0.83

> <Gold.Chemscore.Hbond.Weighted>
-5.4526

> <Gold.Chemscore.Metal.Weighted>
-0.0000

> <Gold.Chemscore.Lipo.Weighted>
-11.6586

> <Gold.Chemscore.Internal_Hbond.Weighted>
0.0000

> <Gold.Chemscore.DEClash.Weighted>
0.0093

> <Gold.Chemscore.DEInternal.Weighted>
6.2268

> <Gold.Chemscore.Rot.Weighted>
6.9557

> <Gold.Chemscore.Internal.Correction.Weighted>
   9.000000E+99

> <Gold.Protein.RotatedTorsions>
[ 6907 6896 6895 6894 ] final -106.75 input  -60.11 | X-H torsion
[ 7974 7965 7964 7962 ] final    1.77 input  175.53 | X-H torsion
[ 8008 7997 7996 7995 ] final   14.36 input   59.86 | X-H torsion
[ 10167 10162 10161 10158 ] final  167.11 input  -65.29 | X-H torsion
[ 10718 10713 10712 10709 ] final  135.31 input   66.30 | X-H torsion
[ 10763 10752 10751 10750 ] final   88.38 input  -60.55 | X-H torsion
[ 11005 11000 10999 10996 ] final  167.59 input  -57.11 | X-H torsion

> <Gold.Protein.ActiveResidues>
 VAL166  LYS551  ARG553  GLY616  TRP617  ASP618  TYR619  PRO620  LYS621  CYS622 
 ASP623  PHE694  ASN695  SER759  ASP760  ASP761  ALA762  ILE779  LEU786  VAL792 
 PHE793  MET794  SER795  GLU796  ALA797  LYS798  CYS799  TRP800  GLU811  SER814 

> <Gold.Protein.RotatedAtoms>
  150.7406  133.9930  159.3612 H   0  0  0  0  0  0  0  0  0  0  0  0  # atno 6907 bound_to 6896
  151.7879  135.0742  160.0392 H   0  0  0  0  0  0  0  0  0  0  0  0  # atno 6908 bound_to 6896
  152.3228  133.5836  159.5792 H   0  0  0  0  0  0  0  0  0  0  0  0  # atno 6909 bound_to 6896
  146.2441  140.0937  142.8351 H   0  0  0  0  0  0  0  0  0  0  0  0  # atno 7974 bound_to 7965
  154.8473  140.2924  155.5620 H   0  0  0  0  0  0  0  0  0  0  0  0  # atno 8008 bound_to 7997
  156.3015  140.2502  156.3358 H   0  0  0  0  0  0  0  0  0  0  0  0  # atno 8009 bound_to 7997
  154.9059  140.0390  157.1908 H   0  0  0  0  0  0  0  0  0  0  0  0  # atno 8010 bound_to 7997
  139.4938  144.3957  151.9467 H   0  0  0  0  0  0  0  0  0  0  0  0  # atno 10167 bound_to 10162
  157.4584  131.1071  150.9950 H   0  0  0  0  0  0  0  0  0  0  0  0  # atno 10718 bound_to 10713
  153.1762  135.4509  154.9968 H   0  0  0  0  0  0  0  0  0  0  0  0  # atno 10763 bound_to 10752
  154.8000  135.3252  154.7577 H   0  0  0  0  0  0  0  0  0  0  0  0  # atno 10764 bound_to 10752
  153.8046  135.6960  153.4905 H   0  0  0  0  0  0  0  0  0  0  0  0  # atno 10765 bound_to 10752
  140.2784  134.7770  157.3736 H   0  0  0  0  0  0  0  0  0  0  0  0  # atno 11005 bound_to 11000
  145.0628  140.9100  143.4928 LP  0  0  0  0  0  0  0  0  0  0  0  0  # atno 17320 bound_to 7965
  145.1056  139.2792  143.5664 LP  0  0  0  0  0  0  0  0  0  0  0  0  # atno 17321 bound_to 7965
  140.3395  144.3220  150.5970 LP  0  0  0  0  0  0  0  0  0  0  0  0  # atno 17342 bound_to 10162
  140.5578  143.2196  151.7818 LP  0  0  0  0  0  0  0  0  0  0  0  0  # atno 17343 bound_to 10162
  157.0756  130.5882  149.5410 LP  0  0  0  0  0  0  0  0  0  0  0  0  # atno 17370 bound_to 10713
  156.0017  130.5098  150.7688 LP  0  0  0  0  0  0  0  0  0  0  0  0  # atno 17371 bound_to 10713
  140.1307  134.5099  155.8108 LP  0  0  0  0  0  0  0  0  0  0  0  0  # atno 17394 bound_to 11000
  141.2167  133.6789  156.7034 LP  0  0  0  0  0  0  0  0  0  0  0  0  # atno 17395 bound_to 11000

$$$$
