AV-unprocessed.smi:1202|AV-procd|sdf|5030|dock3
  -GOLD-   22720 4 53D 1   1.00000     0.00000
 Structure written by MMmdl.
 45 46  0  0  0  0  0  0  0  0  2 V2000
  141.0702  140.9529  154.8917 C   0  0  0  0  0  0  0  0  0  0  0  0
  142.3552  140.2902  154.7273 N   0  0  0  0  0  0  0  0  0  0  0  0
  143.0231  139.6841  155.7189 C   0  0  0  0  0  0  0  0  0  0  0  0
  142.6129  139.6371  156.8792 O   0  0  0  0  0  0  0  0  0  0  0  0
  144.3664  139.0502  155.3423 C   0  0  0  0  0  0  0  0  0  0  0  0
  145.3623  140.0397  154.8557 N   0  3  2  0  0  0  0  0  0  0  0  0
  146.6791  139.4185  154.5619 C   0  0  0  0  0  0  0  0  0  0  0  0
  147.6474  140.4336  153.9267 C   0  0  0  0  0  0  0  0  0  0  0  0
  147.8178  141.6931  154.7936 C   0  0  2  0  0  0  0  0  0  0  0  0
  148.5937  141.3862  155.9947 N   0  0  0  0  0  0  0  0  0  0  0  0
  149.8636  140.9529  156.0082 C   0  0  0  0  0  0  0  0  0  0  0  0
  150.5286  140.7855  154.9853 O   0  0  0  0  0  0  0  0  0  0  0  0
  150.4721  140.6954  157.3939 C   0  0  0  0  0  0  0  0  0  0  0  0
  151.3334  141.7939  157.8627 N   0  0  0  0  0  0  0  0  0  0  0  0
  151.1787  143.0450  157.2331 C   0  0  0  0  0  0  0  0  0  0  0  0
  151.9169  144.1108  157.5809 C   0  0  0  0  0  0  0  0  0  0  0  0
  152.8925  143.9517  158.6334 C   0  0  0  0  0  0  0  0  0  0  0  0
  153.0500  142.7586  159.2406 C   0  0  0  0  0  0  0  0  0  0  0  0
  152.2468  141.5902  158.8619 C   0  0  0  0  0  0  0  0  0  0  0  0
  152.3856  140.4952  159.4082 O   0  0  0  0  0  0  0  0  0  0  0  0
  146.4332  142.2761  155.1390 C   0  0  0  0  0  0  0  0  0  0  0  0
  145.5010  141.2176  155.7535 C   0  0  0  0  0  0  0  0  0  0  0  0
  140.7677  141.4150  153.9520 H   0  0  0  0  0  0  0  0  0  0  0  0
  141.1272  141.7337  155.6513 H   0  0  0  0  0  0  0  0  0  0  0  0
  140.2998  140.2381  155.1832 H   0  0  0  0  0  0  0  0  0  0  0  0
  142.7599  140.2946  153.8018 H   0  0  0  0  0  0  0  0  0  0  0  0
  144.7764  138.4905  156.1848 H   0  0  0  0  0  0  0  0  0  0  0  0
  144.1562  138.3238  154.5560 H   0  0  0  0  0  0  0  0  0  0  0  0
  147.1030  139.0099  155.4805 H   0  0  0  0  0  0  0  0  0  0  0  0
  146.5450  138.5806  153.8767 H   0  0  0  0  0  0  0  0  0  0  0  0
  148.6157  139.9654  153.7444 H   0  0  0  0  0  0  0  0  0  0  0  0
  147.2635  140.7244  152.9477 H   0  0  0  0  0  0  0  0  0  0  0  0
  148.3758  142.4297  154.2124 H   0  0  0  0  0  0  0  0  0  0  0  0
  148.1243  141.4919  156.8825 H   0  0  0  0  0  0  0  0  0  0  0  0
  149.6551  140.5230  158.0955 H   0  0  0  0  0  0  0  0  0  0  0  0
  151.0349  139.7598  157.3771 H   0  0  0  0  0  0  0  0  0  0  0  0
  150.4335  143.0791  156.4516 H   0  0  0  0  0  0  0  0  0  0  0  0
  151.7872  145.0610  157.0840 H   0  0  0  0  0  0  0  0  0  0  0  0
  153.4994  144.7929  158.9348 H   0  0  0  0  0  0  0  0  0  0  0  0
  153.7854  142.6583  160.0253 H   0  0  0  0  0  0  0  0  0  0  0  0
  146.5301  143.1269  155.8143 H   0  0  0  0  0  0  0  0  0  0  0  0
  145.9745  142.6672  154.2298 H   0  0  0  0  0  0  0  0  0  0  0  0
  144.5254  141.6686  155.9358 H   0  0  0  0  0  0  0  0  0  0  0  0
  145.8820  140.8958  156.7239 H   0  0  0  0  0  0  0  0  0  0  0  0
  145.0064  140.3822  153.9740 H   0  0  0  0  0  0  0  0  0  0  0  0
  1  2  1  0  0  0  0
  1 23  1  0  0  0  0
  1 24  1  0  0  0  0
  1 25  1  0  0  0  0
  2  3  1  0  0  0  0
  2 26  1  0  0  0  0
  3  4  2  0  0  0  0
  3  5  1  0  0  0  0
  5  6  1  0  0  0  0
  5 27  1  0  0  0  0
  5 28  1  0  0  0  0
  6 22  1  0  0  0  0
  6  7  1  0  0  0  0
  6 45  1  0  0  0  0
  7  8  1  0  0  0  0
  7 29  1  0  0  0  0
  7 30  1  0  0  0  0
  8  9  1  0  0  0  0
  8 31  1  0  0  0  0
  8 32  1  0  0  0  0
  9 10  1  0  0  0  0
  9 21  1  0  0  0  0
  9 33  1  0  0  0  0
 10 11  1  0  0  0  0
 10 34  1  0  0  0  0
 11 12  2  0  0  0  0
 11 13  1  0  0  0  0
 13 14  1  0  0  0  0
 13 35  1  0  0  0  0
 13 36  1  0  0  0  0
 14 19  1  0  0  0  0
 14 15  1  0  0  0  0
 15 16  2  0  0  0  0
 15 37  1  0  0  0  0
 16 17  1  0  0  0  0
 16 38  1  0  0  0  0
 17 18  2  0  0  0  0
 17 39  1  0  0  0  0
 18 19  1  0  0  0  0
 18 40  1  0  0  0  0
 19 20  2  0  0  0  0
 21 22  1  0  0  0  0
 21 41  1  0  0  0  0
 21 42  1  0  0  0  0
 22 43  1  0  0  0  0
 22 44  1  0  0  0  0
M  CHG  1   6   1
M  END
> <s_m_source_file>
AV-unprocessed.smi

> <i_m_source_file_index>
1202

> <i_lp_mmshare_version>
43012

> <i_f3d_flags>
0

> <s_epik_input>
W0NIM11bTkhdQyg9TylbQ0gyXU4xW0NIMl1bQ0gyXVtDSF0oW0NIMl1bQ0gyXTEpW05IXUMoPU8pW0NIMl1uMltjSF1bY0hdW2NIXVtjSF1jMj1P

> <s_epik_cmdline>
J2VwaWtfcHl0aG9uJywgJy1waCcsICc3LjAnLCAnLXRuJywgJzgnLCAnLW1hJywgJzIwMCcsICctbWV0YWxfYmluZGluZycsICctaW1hZScsICc8aW5maWxlLm1hZT4nLCAnLW9tYWUnLCAnPG91dGZpbGUubWFlPic=

> <r_lp_tautomer_probability>
1

> <r_epik_Ionization_Penalty>
0.983979

> <r_epik_Ionization_Penalty_Charging>
0.983957

> <r_epik_Ionization_Penalty_Neutral>
2.18432e-05

> <r_epik_State_Penalty>
1.03106

> <r_epik_Charging_Adjusted_Penalty>
2.01502

> <i_epik_Tot_Q>
1

> <i_epik_Tot_abs_Q>
1

> <r_epik_Metal_State_Penalty>
1.03477

> <b_epik_Metal_Only>
0

> <s_lp_Force_Field>
OPLS_2005

> <r_lp_Energy>
22.4374

> <b_lp_Chiralities_Consistent>
1

> <s_lp_Variant>
AV-unprocessed.smi:1202-3

> <Gold.Version>
5.8.1

> <Gold.Id.Protein>
6NUR|6NUR_protein|mol2

> <Gold.PLP.Fitness>
48.7584

> <Gold.PLP.PLP>
-35.3607

> <Gold.PLP.part.hbond>
-3.0000

> <Gold.PLP.part.metal>
0.0000

> <Gold.PLP.part.buried>
-3.8539

> <Gold.PLP.part.nonpolar>
-29.0773

> <Gold.PLP.part.repulsive>
0.1410

> <Gold.PLP.ligand.clash>
0.0000

> <Gold.PLP.ligand.torsion>
0.5799

> <Gold.PLP.Chemscore.Hbond>
3.8320

> <Gold.PLP.Chemscore.CHOScore>
1.0000

> <Gold.PLP.Chemscore.Metal>
0.0000

> <Gold.Chemscore.Hbonds>
donor molecule, donor type, donor heavy atom, donor atom, acceptor molecule, acceptor atom, score
      L1  H     2    26       P1 10175  1.00
      L1  H     6    45       P1 10175  2.00
      P1  H  7989  7998       L1    12  0.85
      L1  C    15    37       P1  8028  1.00

> <Gold.PLP.Chemscore.Internal.Correction>
0.0615

> <Gold.Rescore>
     Score         DG    S(hbond)    S(metal)    S(lipo)     H(rot)  DE(clash)    DE(int)     intcor
     17.77     -18.39       2.90        0.00      76.45       2.23       0.00       0.62       ----

> <Gold.Chemscore.Fitness>
17.7671

> <Gold.Chemscore.DG>
-18.3873

> <Gold.Chemscore.ZeroCoef>
-5.4800

> <Gold.Chemscore.Hbond>
2.8991

> <Gold.Chemscore.Metal>
0.0000

> <Gold.Chemscore.Lipo>
76.4513

> <Gold.Chemscore.Internal_Hbond>
0.0000

> <Gold.Chemscore.DEClash>
0.0000

> <Gold.Chemscore.DEInternal>
0.6202

> <Gold.Chemscore.Rot>
2.2346

> <Gold.Chemscore.Internal.Correction>
   9.000000E+99

> <Gold.Chemscore.Hbonds>
donor molecule, donor type, donor heavy atom, donor atom, acceptor molecule, acceptor atom, score
      L1  H     2    26       P1 10175  0.91
      L1  H     6    45       P1 10175  0.94
      P1  H  7989  7998       L1    12  0.83

> <Gold.Chemscore.Hbond.Weighted>
-9.6830

> <Gold.Chemscore.Metal.Weighted>
-0.0000

> <Gold.Chemscore.Lipo.Weighted>
-8.9448

> <Gold.Chemscore.Internal_Hbond.Weighted>
0.0000

> <Gold.Chemscore.DEClash.Weighted>
0.0000

> <Gold.Chemscore.DEInternal.Weighted>
0.6202

> <Gold.Chemscore.Rot.Weighted>
5.7205

> <Gold.Chemscore.Internal.Correction.Weighted>
   9.000000E+99

> <Gold.Protein.RotatedTorsions>
[ 6907 6896 6895 6894 ] final  -47.57 input  -60.11 | X-H torsion
[ 7974 7965 7964 7962 ] final   86.35 input  175.53 | X-H torsion
[ 8008 7997 7996 7995 ] final  101.00 input   59.86 | X-H torsion
[ 10167 10162 10161 10158 ] final  -78.07 input  -65.29 | X-H torsion
[ 10718 10713 10712 10709 ] final  -32.02 input   66.30 | X-H torsion
[ 10763 10752 10751 10750 ] final -136.67 input  -60.55 | X-H torsion
[ 11005 11000 10999 10996 ] final -123.71 input  -57.11 | X-H torsion

> <Gold.Protein.ActiveResidues>
 VAL166  LYS551  ARG553  GLY616  TRP617  ASP618  TYR619  PRO620  LYS621  CYS622 
 ASP623  PHE694  ASN695  SER759  ASP760  ASP761  ALA762  ILE779  LEU786  VAL792 
 PHE793  MET794  SER795  GLU796  ALA797  LYS798  CYS799  TRP800  GLU811  SER814 

> <Gold.Protein.RotatedAtoms>
  150.8994  134.8405  159.7349 H   0  0  0  0  0  0  0  0  0  0  0  0  # atno 6907 bound_to 6896
  152.4884  134.4525  159.9589 H   0  0  0  0  0  0  0  0  0  0  0  0  # atno 6908 bound_to 6896
  151.4579  133.3561  159.2840 H   0  0  0  0  0  0  0  0  0  0  0  0  # atno 6909 bound_to 6896
  145.5734  139.2316  143.2393 H   0  0  0  0  0  0  0  0  0  0  0  0  # atno 7974 bound_to 7965
  156.1258  140.3204  155.8275 H   0  0  0  0  0  0  0  0  0  0  0  0  # atno 8008 bound_to 7997
  155.4423  140.0526  157.3026 H   0  0  0  0  0  0  0  0  0  0  0  0  # atno 8009 bound_to 7997
  154.4861  140.2073  155.9665 H   0  0  0  0  0  0  0  0  0  0  0  0  # atno 8010 bound_to 7997
  140.4715  143.2425  151.8198 H   0  0  0  0  0  0  0  0  0  0  0  0  # atno 10167 bound_to 10162
  156.3800  130.4354  149.7476 H   0  0  0  0  0  0  0  0  0  0  0  0  # atno 10718 bound_to 10713
  154.8679  135.3665  154.5098 H   0  0  0  0  0  0  0  0  0  0  0  0  # atno 10763 bound_to 10752
  153.5734  135.7020  153.5499 H   0  0  0  0  0  0  0  0  0  0  0  0  # atno 10764 bound_to 10752
  153.3521  135.4069  155.1617 H   0  0  0  0  0  0  0  0  0  0  0  0  # atno 10765 bound_to 10752
  140.9898  134.0555  157.3668 H   0  0  0  0  0  0  0  0  0  0  0  0  # atno 11005 bound_to 11000
  146.1768  140.6560  142.9208 LP  0  0  0  0  0  0  0  0  0  0  0  0  # atno 17320 bound_to 7965
  144.7427  140.4985  143.6858 LP  0  0  0  0  0  0  0  0  0  0  0  0  # atno 17321 bound_to 7965
  139.4819  144.4886  151.9214 LP  0  0  0  0  0  0  0  0  0  0  0  0  # atno 17342 bound_to 10162
  140.3971  144.2541  150.5895 LP  0  0  0  0  0  0  0  0  0  0  0  0  # atno 17343 bound_to 10162
  156.4570  130.7934  151.2954 LP  0  0  0  0  0  0  0  0  0  0  0  0  # atno 17370 bound_to 10713
  157.7491  131.0077  150.3202 LP  0  0  0  0  0  0  0  0  0  0  0  0  # atno 17371 bound_to 10713
  139.8987  135.0155  156.7160 LP  0  0  0  0  0  0  0  0  0  0  0  0  # atno 17394 bound_to 11000
  140.7058  133.9266  155.8053 LP  0  0  0  0  0  0  0  0  0  0  0  0  # atno 17395 bound_to 11000

$$$$
