AV-unprocessed.smi:3196|AV-procd|sdf|12223|dock5
  -GOLD-   2272018 53D 1   1.00000     0.00000
 Structure written by MMmdl.
 33 34  0  0  0  0  0  0  0  0  1 V2000
  148.0037  145.3525  161.1653 C   0  0  0  0  0  0  0  0  0  0  0  0
  149.4547  144.8934  160.9868 C   0  0  0  0  0  0  0  0  0  0  0  0
  149.8463  144.7427  159.5106 C   0  0  0  0  0  0  0  0  0  0  0  0
  151.2848  144.2875  159.3382 C   0  0  2  0  0  0  0  0  0  0  0  0
  152.1845  144.9337  158.3187 C   0  0  0  0  0  0  0  0  0  0  0  0
  151.7450  143.4958  158.1295 C   0  0  2  0  0  0  0  0  0  0  0  0
  150.8156  143.2317  157.0708 N   0  0  0  0  0  0  0  0  0  0  0  0
  150.4618  142.0381  156.5621 C   0  0  0  0  0  0  0  0  0  0  0  0
  150.9733  141.0006  156.9767 O   0  0  0  0  0  0  0  0  0  0  0  0
  149.5579  142.1113  155.5644 N   0  0  0  0  0  0  0  0  0  0  0  0
  148.9625  141.0764  154.7902 C   0  0  0  0  0  0  0  0  0  0  0  0
  149.5121  139.7838  154.6046 C   0  0  0  0  0  0  0  0  0  0  0  0
  148.8055  138.8567  153.8119 C   0  0  0  0  0  0  0  0  0  0  0  0
  147.6244  139.1304  153.2190 N   0  0  0  0  0  0  0  0  0  0  0  0
  147.1003  140.3603  153.4024 C   0  0  0  0  0  0  0  0  0  0  0  0
  147.7251  141.3606  154.1736 C   0  0  0  0  0  0  0  0  0  0  0  0
  147.1417  142.5754  154.3171 F   0  0  0  0  0  0  0  0  0  0  0  0
  147.7545  145.4502  162.2220 H   0  0  0  0  0  0  0  0  0  0  0  0
  147.3079  144.6389  160.7235 H   0  0  0  0  0  0  0  0  0  0  0  0
  147.8366  146.3208  160.6928 H   0  0  0  0  0  0  0  0  0  0  0  0
  150.1205  145.6092  161.4701 H   0  0  0  0  0  0  0  0  0  0  0  0
  149.5963  143.9427  161.5023 H   0  0  0  0  0  0  0  0  0  0  0  0
  149.1947  144.0160  159.0244 H   0  0  0  0  0  0  0  0  0  0  0  0
  149.6990  145.6925  158.9953 H   0  0  0  0  0  0  0  0  0  0  0  0
  151.7576  144.0051  160.2770 H   0  0  0  0  0  0  0  0  0  0  0  0
  151.7493  145.6896  157.6674 H   0  0  0  0  0  0  0  0  0  0  0  0
  153.2191  145.1099  158.6056 H   0  0  0  0  0  0  0  0  0  0  0  0
  152.5274  142.7580  158.3004 H   0  0  0  0  0  0  0  0  0  0  0  0
  150.4265  144.0458  156.6175 H   0  0  0  0  0  0  0  0  0  0  0  0
  149.2659  143.0451  155.3145 H   0  0  0  0  0  0  0  0  0  0  0  0
  150.4455  139.4767  155.0474 H   0  0  0  0  0  0  0  0  0  0  0  0
  149.2009  137.8645  153.6520 H   0  0  0  0  0  0  0  0  0  0  0  0
  146.1532  140.5531  152.9207 H   0  0  0  0  0  0  0  0  0  0  0  0
  1  2  1  0  0  0  0
  1 18  1  0  0  0  0
  1 19  1  0  0  0  0
  1 20  1  0  0  0  0
  2  3  1  0  0  0  0
  2 21  1  0  0  0  0
  2 22  1  0  0  0  0
  3  4  1  0  0  0  0
  3 23  1  0  0  0  0
  3 24  1  0  0  0  0
  4  6  1  0  0  0  0
  4  5  1  0  0  0  0
  4 25  1  0  0  0  0
  5  6  1  0  0  0  0
  5 26  1  0  0  0  0
  5 27  1  0  0  0  0
  6  7  1  0  0  0  0
  6 28  1  0  0  0  0
  7  8  1  0  0  0  0
  7 29  1  0  0  0  0
  8  9  2  0  0  0  0
  8 10  1  0  0  0  0
 10 11  1  0  0  0  0
 10 30  1  0  0  0  0
 11 16  1  0  0  0  0
 11 12  2  0  0  0  0
 12 13  1  0  0  0  0
 12 31  1  0  0  0  0
 13 14  2  0  0  0  0
 13 32  1  0  0  0  0
 14 15  1  0  0  0  0
 15 16  2  0  0  0  0
 15 33  1  0  0  0  0
 16 17  1  0  0  0  0
M  END
> <s_m_source_file>
AV-unprocessed.smi

> <i_m_source_file_index>
3196

> <i_lp_mmshare_version>
43012

> <i_f3d_flags>
0

> <s_epik_input>
W0NIM11bQ0gyXVtDSDJdW0NAQEhdMVtDSDJdW0NASF0xW05IXUMoPU8pW05IXWMyW2NIXVtjSF1uW2NIXWMyRg==

> <s_epik_cmdline>
J2VwaWtfcHl0aG9uJywgJy1waCcsICc3LjAnLCAnLXRuJywgJzgnLCAnLW1hJywgJzIwMCcsICctbWV0YWxfYmluZGluZycsICctaW1hZScsICc8aW5maWxlLm1hZT4nLCAnLW9tYWUnLCAnPG91dGZpbGUubWFlPic=

> <r_epik_Ionization_Penalty>
0.00341997

> <r_epik_Ionization_Penalty_Charging>
0

> <r_epik_Ionization_Penalty_Neutral>
0.00341997

> <r_epik_State_Penalty>
0.00239198

> <r_epik_Charging_Adjusted_Penalty>
0.00239198

> <i_epik_Tot_Q>
0

> <i_epik_Tot_abs_Q>
0

> <r_epik_Metal_State_Penalty>
-0

> <b_epik_Metal_Only>
0

> <s_lp_Force_Field>
OPLS_2005

> <r_lp_Energy>
35.1312

> <b_lp_Chiralities_Consistent>
1

> <s_lp_Variant>
AV-unprocessed.smi:3196-3

> <Gold.Version>
5.8.1

> <Gold.Id.Protein>
6NUR|6NUR_protein|mol2

> <Gold.PLP.Fitness>
48.0634

> <Gold.PLP.PLP>
-37.1968

> <Gold.PLP.part.hbond>
-2.0000

> <Gold.PLP.part.metal>
0.0000

> <Gold.PLP.part.buried>
-2.0161

> <Gold.PLP.part.nonpolar>
-34.2976

> <Gold.PLP.part.repulsive>
1.3059

> <Gold.PLP.ligand.clash>
0.0000

> <Gold.PLP.ligand.torsion>
0.6681

> <Gold.PLP.Chemscore.Hbond>
1.8800

> <Gold.PLP.Chemscore.CHOScore>
2.0000

> <Gold.PLP.Chemscore.Metal>
0.0000

> <Gold.Chemscore.Hbonds>
donor molecule, donor type, donor heavy atom, donor atom, acceptor molecule, acceptor atom, score
      L1  H     7    29       P1  8028  0.91
      L1  H    10    30       P1  8028  1.00
      L1  C    13    32       P1  7948  1.00
      L1  C    15    33       P1 10175  1.00

> <Gold.PLP.Chemscore.Internal.Correction>
0.5628

> <Gold.Rescore>
     Score         DG    S(hbond)    S(metal)    S(lipo)     H(rot)  DE(clash)    DE(int)     intcor
     16.84     -18.69       1.85        0.00      90.50       1.39       0.33       1.53       ----

> <Gold.Chemscore.Fitness>
16.8401

> <Gold.Chemscore.DG>
-18.6938

> <Gold.Chemscore.ZeroCoef>
-5.4800

> <Gold.Chemscore.Hbond>
1.8476

> <Gold.Chemscore.Metal>
0.0000

> <Gold.Chemscore.Lipo>
90.5030

> <Gold.Chemscore.Internal_Hbond>
0.0000

> <Gold.Chemscore.DEClash>
0.3270

> <Gold.Chemscore.DEInternal>
1.5267

> <Gold.Chemscore.Rot>
1.3852

> <Gold.Chemscore.Internal.Correction>
   9.000000E+99

> <Gold.Chemscore.Hbonds>
donor molecule, donor type, donor heavy atom, donor atom, acceptor molecule, acceptor atom, score
      L1  H     7    29       P1  8028  0.88
      L1  H    10    30       P1  8028  0.98

> <Gold.Chemscore.Hbond.Weighted>
-6.1710

> <Gold.Chemscore.Metal.Weighted>
-0.0000

> <Gold.Chemscore.Lipo.Weighted>
-10.5888

> <Gold.Chemscore.Internal_Hbond.Weighted>
0.0000

> <Gold.Chemscore.DEClash.Weighted>
0.3270

> <Gold.Chemscore.DEInternal.Weighted>
1.5267

> <Gold.Chemscore.Rot.Weighted>
3.5460

> <Gold.Chemscore.Internal.Correction.Weighted>
   9.000000E+99

> <Gold.Protein.RotatedTorsions>
[ 6907 6896 6895 6894 ] final  -92.90 input  -60.11 | X-H torsion
[ 7974 7965 7964 7962 ] final -128.15 input  175.53 | X-H torsion
[ 8008 7997 7996 7995 ] final  155.95 input   59.86 | X-H torsion
[ 10167 10162 10161 10158 ] final -140.83 input  -65.29 | X-H torsion
[ 10718 10713 10712 10709 ] final   61.15 input   66.30 | X-H torsion
[ 10763 10752 10751 10750 ] final    4.59 input  -60.55 | X-H torsion
[ 11005 11000 10999 10996 ] final -163.65 input  -57.11 | X-H torsion

> <Gold.Protein.ActiveResidues>
 VAL166  LYS551  ARG553  GLY616  TRP617  ASP618  TYR619  PRO620  LYS621  CYS622 
 ASP623  PHE694  ASN695  SER759  ASP760  ASP761  ALA762  ILE779  LEU786  VAL792 
 PHE793  MET794  SER795  GLU796  ALA797  LYS798  CYS799  TRP800  GLU811  SER814 

> <Gold.Protein.RotatedAtoms>
  150.6913  134.2050  159.4336 H   0  0  0  0  0  0  0  0  0  0  0  0  # atno 6907 bound_to 6896
  152.0015  134.9923  160.0574 H   0  0  0  0  0  0  0  0  0  0  0  0  # atno 6908 bound_to 6896
  152.1574  133.4525  159.4881 H   0  0  0  0  0  0  0  0  0  0  0  0  # atno 6909 bound_to 6896
  144.9699  140.7535  143.4677 H   0  0  0  0  0  0  0  0  0  0  0  0  # atno 7974 bound_to 7965
  156.2450  140.1925  156.6880 H   0  0  0  0  0  0  0  0  0  0  0  0  # atno 8008 bound_to 7997
  154.6273  140.0600  156.9715 H   0  0  0  0  0  0  0  0  0  0  0  0  # atno 8009 bound_to 7997
  155.1767  140.3273  155.4385 H   0  0  0  0  0  0  0  0  0  0  0  0  # atno 8010 bound_to 7997
  139.8243  143.7531  152.2666 H   0  0  0  0  0  0  0  0  0  0  0  0  # atno 10167 bound_to 10162
  157.5807  130.8979  149.9425 H   0  0  0  0  0  0  0  0  0  0  0  0  # atno 10718 bound_to 10713
  153.2695  135.6931  153.7495 H   0  0  0  0  0  0  0  0  0  0  0  0  # atno 10763 bound_to 10752
  153.6524  135.3374  155.3104 H   0  0  0  0  0  0  0  0  0  0  0  0  # atno 10764 bound_to 10752
  154.8459  135.4457  154.1712 H   0  0  0  0  0  0  0  0  0  0  0  0  # atno 10765 bound_to 10752
  140.5957  134.4998  157.5199 H   0  0  0  0  0  0  0  0  0  0  0  0  # atno 11005 bound_to 11000
  145.2574  139.2006  143.4910 LP  0  0  0  0  0  0  0  0  0  0  0  0  # atno 17320 bound_to 7965
  146.3379  140.2498  142.8598 LP  0  0  0  0  0  0  0  0  0  0  0  0  # atno 17321 bound_to 7965
  139.7719  144.7473  151.0212 LP  0  0  0  0  0  0  0  0  0  0  0  0  # atno 17342 bound_to 10162
  140.7811  143.4635  151.0244 LP  0  0  0  0  0  0  0  0  0  0  0  0  # atno 17343 bound_to 10162
  156.0853  130.3669  150.0501 LP  0  0  0  0  0  0  0  0  0  0  0  0  # atno 17370 bound_to 10713
  156.8640  130.9501  151.3615 LP  0  0  0  0  0  0  0  0  0  0  0  0  # atno 17371 bound_to 10713
  139.9254  134.8066  156.1084 LP  0  0  0  0  0  0  0  0  0  0  0  0  # atno 17394 bound_to 11000
  141.0905  133.6716  156.2530 LP  0  0  0  0  0  0  0  0  0  0  0  0  # atno 17395 bound_to 11000

$$$$
