AV-unprocessed.smi:529|AV-procd|sdf|2839|dock10
  -GOLD-   2262023333D 1   1.00000     0.00000
 Structure written by MMmdl.
 31 32  0  0  0  0  0  0  0  0  2 V2000
  149.1873  138.7927  153.4995 N   0  0  0  0  0  0  0  0  0  0  0  0
  150.3163  138.9328  154.1986 C   0  0  0  0  0  0  0  0  0  0  0  0
  151.6014  137.7631  154.2424 S   0  0  0  0  0  0  0  0  0  0  0  0
  152.5027  138.7800  155.3257 C   0  0  0  0  0  0  0  0  0  0  0  0
  151.8236  139.9351  155.6106 C   0  0  0  0  0  0  0  0  0  0  0  0
  150.5906  140.0089  154.9655 N   0  3  0  0  0  0  0  0  0  0  0  0
  149.6730  141.1531  155.1211 C   0  0  0  0  0  0  0  0  0  0  0  0
  149.6739  141.6882  156.5557 C   0  0  0  0  0  0  0  0  0  0  0  0
  148.7232  141.4550  157.3021 O   0  0  0  0  0  0  0  0  0  0  0  0
  150.7415  142.4137  156.9218 N   0  0  0  0  0  0  0  0  0  0  0  0
  150.9216  143.0405  158.2284 C   0  0  0  0  0  0  0  0  0  0  0  0
  151.2449  144.5390  158.0765 C   0  0  0  0  0  0  0  0  0  0  0  0
  152.4353  144.8088  158.9976 C   0  0  0  0  0  0  0  0  0  0  0  0
  153.2009  143.4895  159.0179 C   0  0  0  0  0  0  0  0  0  0  0  0
  152.1068  142.4210  158.9960 C   0  0  0  0  0  0  0  0  0  0  0  0
  148.4597  139.4927  153.5017 H   0  0  0  0  0  0  0  0  0  0  0  0
  153.4710  138.4661  155.6873 H   0  0  0  0  0  0  0  0  0  0  0  0
  152.1213  140.7525  156.2521 H   0  0  0  0  0  0  0  0  0  0  0  0
  149.9936  141.9463  154.4445 H   0  0  0  0  0  0  0  0  0  0  0  0
  148.6727  140.8542  154.8032 H   0  0  0  0  0  0  0  0  0  0  0  0
  151.4829  142.5452  156.2490 H   0  0  0  0  0  0  0  0  0  0  0  0
  150.0102  142.9275  158.8186 H   0  0  0  0  0  0  0  0  0  0  0  0
  151.5348  144.7685  157.0498 H   0  0  0  0  0  0  0  0  0  0  0  0
  150.3904  145.1721  158.3178 H   0  0  0  0  0  0  0  0  0  0  0  0
  153.0471  145.6457  158.6597 H   0  0  0  0  0  0  0  0  0  0  0  0
  152.0786  145.0406  160.0024 H   0  0  0  0  0  0  0  0  0  0  0  0
  153.8145  143.4073  158.1197 H   0  0  0  0  0  0  0  0  0  0  0  0
  153.8599  143.3987  159.8817 H   0  0  0  0  0  0  0  0  0  0  0  0
  151.7955  142.2041  160.0187 H   0  0  0  0  0  0  0  0  0  0  0  0
  152.4623  141.4833  158.5664 H   0  0  0  0  0  0  0  0  0  0  0  0
  148.9881  137.9651  152.9556 H   0  0  0  0  0  0  0  0  0  0  0  0
  1  2  1  0  0  0  0
  1 16  1  0  0  0  0
  1 31  1  0  0  0  0
  2  6  2  0  0  0  0
  2  3  1  0  0  0  0
  3  4  1  0  0  0  0
  4  5  2  0  0  0  0
  4 17  1  0  0  0  0
  5  6  1  0  0  0  0
  5 18  1  0  0  0  0
  6  7  1  0  0  0  0
  7  8  1  0  0  0  0
  7 19  1  0  0  0  0
  7 20  1  0  0  0  0
  8  9  2  0  0  0  0
  8 10  1  0  0  0  0
 10 11  1  0  0  0  0
 10 21  1  0  0  0  0
 11 15  1  0  0  0  0
 11 12  1  0  0  0  0
 11 22  1  0  0  0  0
 12 13  1  0  0  0  0
 12 23  1  0  0  0  0
 12 24  1  0  0  0  0
 13 14  1  0  0  0  0
 13 25  1  0  0  0  0
 13 26  1  0  0  0  0
 14 15  1  0  0  0  0
 14 27  1  0  0  0  0
 14 28  1  0  0  0  0
 15 29  1  0  0  0  0
 15 30  1  0  0  0  0
M  CHG  1   6   1
M  END
> <s_m_source_file>
AV-unprocessed.smi

> <i_m_source_file_index>
529

> <i_lp_mmshare_version>
43012

> <i_f3d_flags>
0

> <s_epik_input>
W0hdL049YzFcc1tjSF1bY0hdbjFbQ0gyXUMoPU8pW05IXVtDSF0yW0NIMl1bQ0gyXVtDSDJdW0NIMl0y

> <s_epik_cmdline>
J2VwaWtfcHl0aG9uJywgJy1waCcsICc3LjAnLCAnLXRuJywgJzgnLCAnLW1hJywgJzIwMCcsICctbWV0YWxfYmluZGluZycsICctaW1hZScsICc8aW5maWxlLm1hZT4nLCAnLW9tYWUnLCAnPG91dGZpbGUubWFlPic=

> <r_lp_tautomer_probability>
1

> <r_epik_Ionization_Penalty>
0.0151346

> <r_epik_Ionization_Penalty_Charging>
0

> <r_epik_Ionization_Penalty_Neutral>
0.0151346

> <r_epik_State_Penalty>
0.0235202

> <r_epik_Charging_Adjusted_Penalty>
0.0235202

> <i_epik_Tot_Q>
1

> <i_epik_Tot_abs_Q>
1

> <r_epik_Metal_State_Penalty>
0.0235202

> <b_epik_Metal_Only>
0

> <s_lp_Force_Field>
OPLS_2005

> <r_lp_Energy>
21.8229

> <b_lp_Chiralities_Consistent>
1

> <s_lp_Variant>
AV-unprocessed.smi:529-1

> <Gold.Version>
5.8.1

> <Gold.Id.Protein>
6NUR|6NUR_protein|mol2

> <Gold.PLP.Fitness>
43.1475

> <Gold.PLP.PLP>
-38.2204

> <Gold.PLP.part.hbond>
-2.1959

> <Gold.PLP.part.metal>
0.0000

> <Gold.PLP.part.buried>
-2.7367

> <Gold.PLP.part.nonpolar>
-34.4443

> <Gold.PLP.part.repulsive>
0.1917

> <Gold.PLP.ligand.clash>
0.0000

> <Gold.PLP.ligand.torsion>
0.5379

> <Gold.PLP.Chemscore.Hbond>
2.0000

> <Gold.PLP.Chemscore.CHOScore>
0.0000

> <Gold.PLP.Chemscore.Metal>
0.0000

> <Gold.Chemscore.Hbonds>
donor molecule, donor type, donor heavy atom, donor atom, acceptor molecule, acceptor atom, score
      L1  H     1    31       P1  7948  2.00

> <Gold.PLP.Chemscore.Internal.Correction>
0.0029

> <Gold.Rescore>
     Score         DG    S(hbond)    S(metal)    S(lipo)     H(rot)  DE(clash)    DE(int)     intcor
     14.53     -15.21       0.99        0.00      90.03       1.61       0.03       0.64       ----

> <Gold.Chemscore.Fitness>
14.5342

> <Gold.Chemscore.DG>
-15.2081

> <Gold.Chemscore.ZeroCoef>
-5.4800

> <Gold.Chemscore.Hbond>
0.9922

> <Gold.Chemscore.Metal>
0.0000

> <Gold.Chemscore.Lipo>
90.0263

> <Gold.Chemscore.Internal_Hbond>
0.0000

> <Gold.Chemscore.DEClash>
0.0348

> <Gold.Chemscore.DEInternal>
0.6392

> <Gold.Chemscore.Rot>
1.6089

> <Gold.Chemscore.Internal.Correction>
   9.000000E+99

> <Gold.Chemscore.Hbonds>
donor molecule, donor type, donor heavy atom, donor atom, acceptor molecule, acceptor atom, score
      L1  H     1    31       P1  7948  0.94

> <Gold.Chemscore.Hbond.Weighted>
-3.3138

> <Gold.Chemscore.Metal.Weighted>
-0.0000

> <Gold.Chemscore.Lipo.Weighted>
-10.5331

> <Gold.Chemscore.Internal_Hbond.Weighted>
0.0000

> <Gold.Chemscore.DEClash.Weighted>
0.0348

> <Gold.Chemscore.DEInternal.Weighted>
0.6392

> <Gold.Chemscore.Rot.Weighted>
4.1188

> <Gold.Chemscore.Internal.Correction.Weighted>
   9.000000E+99

> <Gold.Protein.RotatedTorsions>
[ 6907 6896 6895 6894 ] final  177.55 input  -60.11 | X-H torsion
[ 7974 7965 7964 7962 ] final  136.32 input  175.53 | X-H torsion
[ 8008 7997 7996 7995 ] final  -79.18 input   59.86 | X-H torsion
[ 10167 10162 10161 10158 ] final -132.97 input  -65.29 | X-H torsion
[ 10718 10713 10712 10709 ] final  -80.90 input   66.30 | X-H torsion
[ 10763 10752 10751 10750 ] final -126.65 input  -60.55 | X-H torsion
[ 11005 11000 10999 10996 ] final  -49.35 input  -57.11 | X-H torsion

> <Gold.Protein.ActiveResidues>
 VAL166  LYS551  ARG553  GLY616  TRP617  ASP618  TYR619  PRO620  LYS621  CYS622 
 ASP623  PHE694  ASN695  SER759  ASP760  ASP761  ALA762  ILE779  LEU786  VAL792 
 PHE793  MET794  SER795  GLU796  ALA797  LYS798  CYS799  TRP800  GLU811  SER814 

> <Gold.Protein.RotatedAtoms>
  151.7022  133.3311  159.3269 H   0  0  0  0  0  0  0  0  0  0  0  0  # atno 6907 bound_to 6896
  150.7731  134.6605  159.6346 H   0  0  0  0  0  0  0  0  0  0  0  0  # atno 6908 bound_to 6896
  152.3762  134.6662  160.0211 H   0  0  0  0  0  0  0  0  0  0  0  0  # atno 6909 bound_to 6896
  144.9577  139.4746  143.5495 H   0  0  0  0  0  0  0  0  0  0  0  0  # atno 7974 bound_to 7965
  154.5761  140.0682  156.9035 H   0  0  0  0  0  0  0  0  0  0  0  0  # atno 8008 bound_to 7997
  155.2547  140.3354  155.4260 H   0  0  0  0  0  0  0  0  0  0  0  0  # atno 8009 bound_to 7997
  156.2154  140.1776  156.7585 H   0  0  0  0  0  0  0  0  0  0  0  0  # atno 8010 bound_to 7997
  139.9031  143.6584  152.2591 H   0  0  0  0  0  0  0  0  0  0  0  0  # atno 10167 bound_to 10162
  156.0061  130.4588  150.3871 H   0  0  0  0  0  0  0  0  0  0  0  0  # atno 10718 bound_to 10713
  154.8747  135.3988  154.3466 H   0  0  0  0  0  0  0  0  0  0  0  0  # atno 10763 bound_to 10752
  153.4257  135.7024  153.6269 H   0  0  0  0  0  0  0  0  0  0  0  0  # atno 10764 bound_to 10752
  153.4912  135.3748  155.2462 H   0  0  0  0  0  0  0  0  0  0  0  0  # atno 10765 bound_to 10752
  141.0754  133.6667  156.3573 H   0  0  0  0  0  0  0  0  0  0  0  0  # atno 11005 bound_to 11000
  146.3342  139.8705  142.8841 LP  0  0  0  0  0  0  0  0  0  0  0  0  # atno 17320 bound_to 7965
  145.2748  141.0120  143.3751 LP  0  0  0  0  0  0  0  0  0  0  0  0  # atno 17321 bound_to 7965
  139.7008  144.7635  151.1277 LP  0  0  0  0  0  0  0  0  0  0  0  0  # atno 17342 bound_to 10162
  140.7702  143.5461  150.9257 LP  0  0  0  0  0  0  0  0  0  0  0  0  # atno 17343 bound_to 10162
  157.1948  131.0424  151.2681 LP  0  0  0  0  0  0  0  0  0  0  0  0  # atno 17370 bound_to 10713
  157.4029  130.7343  149.6780 LP  0  0  0  0  0  0  0  0  0  0  0  0  # atno 17371 bound_to 10713
  140.5584  134.5958  157.5427 LP  0  0  0  0  0  0  0  0  0  0  0  0  # atno 17394 bound_to 11000
  139.9566  134.7524  156.0327 LP  0  0  0  0  0  0  0  0  0  0  0  0  # atno 17395 bound_to 11000

$$$$
