AV-unprocessed.smi:2673|AV-procd|sdf|10356|dock3
  -GOLD-   2272014383D 1   1.00000     0.00000
 Structure written by MMmdl.
 32 33  0  0  0  0  0  0  0  0  1 V2000
  147.0810  132.2310  153.7285 O   0  0  0  0  0  0  0  0  0  0  0  0
  147.5659  133.2349  153.2087 C   0  0  0  0  0  0  0  0  0  0  0  0
  148.7547  133.7729  153.5336 N   0  0  0  0  0  0  0  0  0  0  0  0
  149.6975  133.3153  154.4921 C   0  0  0  0  0  0  0  0  0  0  0  0
  149.9274  132.0185  154.7517 N   0  0  0  0  0  0  0  0  0  0  0  0
  150.9002  131.8487  155.7284 N   0  0  0  0  0  0  0  0  0  0  0  0
  151.3648  133.0222  156.1665 C   0  0  0  0  0  0  0  0  0  0  0  0
  150.6585  134.4500  155.4296 S   0  0  0  0  0  0  0  0  0  0  0  0
  146.9720  133.9467  152.2363 N   0  0  0  0  0  0  0  0  0  0  0  0
  145.6828  133.7178  151.5605 C   0  0  0  0  0  0  0  0  0  0  0  0
  145.7271  132.3755  150.7742 C   0  0  0  0  0  0  0  0  0  0  0  0
  144.5845  132.1835  150.1134 F   0  0  0  0  0  0  0  0  0  0  0  0
  146.7226  132.3924  149.8858 F   0  0  0  0  0  0  0  0  0  0  0  0
  145.9054  131.3304  151.5815 F   0  0  0  0  0  0  0  0  0  0  0  0
  144.4858  133.7387  152.5551 C   0  0  0  0  0  0  0  0  0  0  0  0
  144.3172  135.0924  153.2689 C   0  0  0  0  0  0  0  0  0  0  0  0
  144.1557  136.2343  152.2554 C   0  0  0  0  0  0  0  0  0  0  0  0
  145.3218  136.2580  151.2572 C   0  0  0  0  0  0  0  0  0  0  0  0
  145.4926  134.8925  150.5626 C   0  0  0  0  0  0  0  0  0  0  0  0
  149.0233  134.6036  153.0271 H   0  0  0  0  0  0  0  0  0  0  0  0
  152.1291  133.0471  156.9289 H   0  0  0  0  0  0  0  0  0  0  0  0
  147.4830  134.7502  151.9020 H   0  0  0  0  0  0  0  0  0  0  0  0
  143.5661  133.5227  152.0104 H   0  0  0  0  0  0  0  0  0  0  0  0
  144.5696  132.9431  153.2944 H   0  0  0  0  0  0  0  0  0  0  0  0
  143.4469  135.0571  153.9247 H   0  0  0  0  0  0  0  0  0  0  0  0
  145.1760  135.2867  153.9121 H   0  0  0  0  0  0  0  0  0  0  0  0
  143.2164  136.1111  151.7149 H   0  0  0  0  0  0  0  0  0  0  0  0
  144.0898  137.1898  152.7764 H   0  0  0  0  0  0  0  0  0  0  0  0
  145.1486  137.0319  150.5090 H   0  0  0  0  0  0  0  0  0  0  0  0
  146.2416  136.5351  151.7734 H   0  0  0  0  0  0  0  0  0  0  0  0
  146.3354  134.9418  149.8720 H   0  0  0  0  0  0  0  0  0  0  0  0
  144.6125  134.7123  149.9444 H   0  0  0  0  0  0  0  0  0  0  0  0
  1  2  2  0  0  0  0
  2  3  1  0  0  0  0
  2  9  1  0  0  0  0
  3  4  1  0  0  0  0
  3 20  1  0  0  0  0
  4  8  1  0  0  0  0
  4  5  2  0  0  0  0
  5  6  1  0  0  0  0
  6  7  2  0  0  0  0
  7  8  1  0  0  0  0
  7 21  1  0  0  0  0
  9 10  1  0  0  0  0
  9 22  1  0  0  0  0
 10 19  1  0  0  0  0
 10 11  1  0  0  0  0
 10 15  1  0  0  0  0
 11 12  1  0  0  0  0
 11 13  1  0  0  0  0
 11 14  1  0  0  0  0
 15 16  1  0  0  0  0
 15 23  1  0  0  0  0
 15 24  1  0  0  0  0
 16 17  1  0  0  0  0
 16 25  1  0  0  0  0
 16 26  1  0  0  0  0
 17 18  1  0  0  0  0
 17 27  1  0  0  0  0
 17 28  1  0  0  0  0
 18 19  1  0  0  0  0
 18 29  1  0  0  0  0
 18 30  1  0  0  0  0
 19 31  1  0  0  0  0
 19 32  1  0  0  0  0
M  END
> <s_m_source_file>
AV-unprocessed.smi

> <i_m_source_file_index>
2673

> <i_lp_mmshare_version>
43012

> <i_f3d_flags>
0

> <s_epik_input>
czFbY0hdbm5jMVtOSF1DKD1PKVtOSF1DMihDKEYpKEYpRilbQ0gyXVtDSDJdW0NIMl1bQ0gyXVtDSDJdMg==

> <s_epik_cmdline>
J2VwaWtfcHl0aG9uJywgJy1waCcsICc3LjAnLCAnLXRuJywgJzgnLCAnLW1hJywgJzIwMCcsICctbWV0YWxfYmluZGluZycsICctaW1hZScsICc8aW5maWxlLm1hZT4nLCAnLW9tYWUnLCAnPG91dGZpbGUubWFlPic=

> <r_lp_tautomer_probability>
1

> <r_epik_Ionization_Penalty>
1.40881

> <r_epik_Ionization_Penalty_Charging>
0

> <r_epik_Ionization_Penalty_Neutral>
1.40881

> <r_epik_State_Penalty>
1.51827

> <r_epik_Charging_Adjusted_Penalty>
1.51827

> <i_epik_Tot_Q>
0

> <i_epik_Tot_abs_Q>
0

> <r_epik_Metal_State_Penalty>
1.5692

> <b_epik_Metal_Only>
0

> <s_lp_Force_Field>
OPLS_2005

> <r_lp_Energy>
12.8136

> <b_lp_Chiralities_Consistent>
1

> <s_lp_Variant>
AV-unprocessed.smi:2673-2

> <Gold.Version>
5.8.1

> <Gold.Id.Protein>
6NUR|6NUR_protein|mol2

> <Gold.PLP.Fitness>
34.2318

> <Gold.PLP.PLP>
-29.6294

> <Gold.PLP.part.hbond>
-2.0000

> <Gold.PLP.part.metal>
0.0000

> <Gold.PLP.part.buried>
-0.0911

> <Gold.PLP.part.nonpolar>
-27.1843

> <Gold.PLP.part.repulsive>
0.1102

> <Gold.PLP.ligand.clash>
0.0000

> <Gold.PLP.ligand.torsion>
0.2641

> <Gold.PLP.Chemscore.Hbond>
1.7000

> <Gold.PLP.Chemscore.CHOScore>
0.0000

> <Gold.PLP.Chemscore.Metal>
0.0000

> <Gold.Chemscore.Hbonds>
donor molecule, donor type, donor heavy atom, donor atom, acceptor molecule, acceptor atom, score
      L1  H     3    20       P1  7948  0.55
      L1  H     9    22       P1  7948  0.98

> <Gold.PLP.Chemscore.Internal.Correction>
0.0306

> <Gold.Rescore>
     Score         DG    S(hbond)    S(metal)    S(lipo)     H(rot)  DE(clash)    DE(int)     intcor
      9.18     -12.92       1.49        0.00      42.90       1.00       0.14       3.59       ----

> <Gold.Chemscore.Fitness>
9.1832

> <Gold.Chemscore.DG>
-12.9175

> <Gold.Chemscore.ZeroCoef>
-5.4800

> <Gold.Chemscore.Hbond>
1.4906

> <Gold.Chemscore.Metal>
0.0000

> <Gold.Chemscore.Lipo>
42.8973

> <Gold.Chemscore.Internal_Hbond>
0.0000

> <Gold.Chemscore.DEClash>
0.1446

> <Gold.Chemscore.DEInternal>
3.5896

> <Gold.Chemscore.Rot>
1.0000

> <Gold.Chemscore.Internal.Correction>
   9.000000E+99

> <Gold.Chemscore.Hbonds>
donor molecule, donor type, donor heavy atom, donor atom, acceptor molecule, acceptor atom, score
      L1  H     3    20       P1  7948  0.03
      L1  H     9    22       P1  7948  0.64

> <Gold.Chemscore.Hbond.Weighted>
-4.9785

> <Gold.Chemscore.Metal.Weighted>
-0.0000

> <Gold.Chemscore.Lipo.Weighted>
-5.0190

> <Gold.Chemscore.Internal_Hbond.Weighted>
0.0000

> <Gold.Chemscore.DEClash.Weighted>
0.1446

> <Gold.Chemscore.DEInternal.Weighted>
3.5896

> <Gold.Chemscore.Rot.Weighted>
2.5600

> <Gold.Chemscore.Internal.Correction.Weighted>
   9.000000E+99

> <Gold.Protein.RotatedTorsions>
[ 6907 6896 6895 6894 ] final   -6.89 input  -60.11 | X-H torsion
[ 7974 7965 7964 7962 ] final   74.58 input  175.53 | X-H torsion
[ 8008 7997 7996 7995 ] final  -86.96 input   59.86 | X-H torsion
[ 10167 10162 10161 10158 ] final   39.74 input  -65.29 | X-H torsion
[ 10718 10713 10712 10709 ] final  127.13 input   66.30 | X-H torsion
[ 10763 10752 10751 10750 ] final   62.03 input  -60.55 | X-H torsion
[ 11005 11000 10999 10996 ] final  -20.21 input  -57.11 | X-H torsion

> <Gold.Protein.ActiveResidues>
 VAL166  LYS551  ARG553  GLY616  TRP617  ASP618  TYR619  PRO620  LYS621  CYS622 
 ASP623  PHE694  ASN695  SER759  ASP760  ASP761  ALA762  ILE779  LEU786  VAL792 
 PHE793  MET794  SER795  GLU796  ALA797  LYS798  CYS799  TRP800  GLU811  SER814 

> <Gold.Protein.RotatedAtoms>
  151.4584  135.1036  159.9717 H   0  0  0  0  0  0  0  0  0  0  0  0  # atno 6907 bound_to 6896
  152.4862  133.8376  159.7146 H   0  0  0  0  0  0  0  0  0  0  0  0  # atno 6908 bound_to 6896
  150.8974  133.7103  159.2915 H   0  0  0  0  0  0  0  0  0  0  0  0  # atno 6909 bound_to 6896
  145.7265  139.2668  143.1566 H   0  0  0  0  0  0  0  0  0  0  0  0  # atno 7974 bound_to 7965
  154.6578  140.0572  157.0028 H   0  0  0  0  0  0  0  0  0  0  0  0  # atno 8008 bound_to 7997
  155.1274  140.3253  155.4464 H   0  0  0  0  0  0  0  0  0  0  0  0  # atno 8009 bound_to 7997
  156.2605  140.1987  156.6394 H   0  0  0  0  0  0  0  0  0  0  0  0  # atno 8010 bound_to 7997
  140.3810  144.1979  150.6131 H   0  0  0  0  0  0  0  0  0  0  0  0  # atno 10167 bound_to 10162
  157.5359  131.1097  150.8936 H   0  0  0  0  0  0  0  0  0  0  0  0  # atno 10718 bound_to 10713
  152.9969  135.5479  154.6128 H   0  0  0  0  0  0  0  0  0  0  0  0  # atno 10763 bound_to 10752
  154.5445  135.2822  155.1068 H   0  0  0  0  0  0  0  0  0  0  0  0  # atno 10764 bound_to 10752
  154.2332  135.6430  153.5235 H   0  0  0  0  0  0  0  0  0  0  0  0  # atno 10765 bound_to 10752
  140.8442  133.7904  155.9894 H   0  0  0  0  0  0  0  0  0  0  0  0  # atno 11005 bound_to 11000
  146.0577  140.8003  142.9750 LP  0  0  0  0  0  0  0  0  0  0  0  0  # atno 17320 bound_to 7965
  144.6903  140.3149  143.7242 LP  0  0  0  0  0  0  0  0  0  0  0  0  # atno 17321 bound_to 7965
  140.4937  143.2339  151.8781 LP  0  0  0  0  0  0  0  0  0  0  0  0  # atno 17342 bound_to 10162
  139.4795  144.5137  151.8897 LP  0  0  0  0  0  0  0  0  0  0  0  0  # atno 17343 bound_to 10162
  156.9503  130.5417  149.5282 LP  0  0  0  0  0  0  0  0  0  0  0  0  # atno 17370 bound_to 10713
  156.0458  130.5535  150.8878 LP  0  0  0  0  0  0  0  0  0  0  0  0  # atno 17371 bound_to 10713
  140.8862  134.2551  157.5118 LP  0  0  0  0  0  0  0  0  0  0  0  0  # atno 17394 bound_to 11000
  139.8703  134.9639  156.4478 LP  0  0  0  0  0  0  0  0  0  0  0  0  # atno 17395 bound_to 11000

$$$$
