AV-unprocessed.smi:1969|AV-procd|sdf|7958|dock2
  -GOLD-   2272010123D 1   1.00000     0.00000
 Structure written by MMmdl.
 44 45  0  0  0  0  0  0  0  0  1 V2000
  151.5884  145.0242  158.9082 C   0  0  0  0  0  0  0  0  0  0  0  0
  152.1031  143.6462  158.4801 C   0  0  2  0  0  0  0  0  0  0  0  0
  151.0627  142.8728  157.6481 C   0  0  0  0  0  0  0  0  0  0  0  0
  151.5402  141.5228  157.3619 N   0  0  0  0  0  0  0  0  0  0  0  0
  150.8120  140.8148  156.3816 C   0  0  0  0  0  0  0  0  0  0  0  0
  151.3886  139.6932  155.7406 C   0  0  0  0  0  0  0  0  0  0  0  0
  150.6488  139.0015  154.7626 C   0  0  0  0  0  0  0  0  0  0  0  0
  149.3416  139.4428  154.4539 C   0  0  0  0  0  0  0  0  0  0  0  0
  148.5066  138.8477  153.4706 N   0  0  0  0  0  0  0  0  0  0  0  0
  147.3215  139.2783  152.9993 C   0  0  0  0  0  0  0  0  0  0  0  0
  146.7634  140.3163  153.3524 O   0  0  0  0  0  0  0  0  0  0  0  0
  146.6508  138.3907  151.9498 C   0  0  0  0  0  0  0  0  0  0  0  0
  145.6573  137.5876  152.5695 O   0  0  0  0  0  0  0  0  0  0  0  0
  145.2672  136.4835  151.7686 C   0  0  0  0  0  0  0  0  0  0  0  0
  144.0745  135.7741  152.4209 C   0  0  0  0  0  0  0  0  0  0  0  0
  143.6792  134.7700  151.6394 F   0  0  0  0  0  0  0  0  0  0  0  0
  144.4255  135.2799  153.6079 F   0  0  0  0  0  0  0  0  0  0  0  0
  143.0593  136.6240  152.5722 F   0  0  0  0  0  0  0  0  0  0  0  0
  148.8552  140.5735  155.1393 C   0  0  0  0  0  0  0  0  0  0  0  0
  149.5602  141.2378  156.0786 N   0  0  0  0  0  0  0  0  0  0  0  0
  151.9663  140.7967  158.5561 C   0  0  0  0  0  0  0  0  0  0  0  0
  152.9822  141.6303  159.3591 C   0  0  2  0  0  0  0  0  0  0  0  0
  153.3643  140.9563  160.6808 C   0  0  0  0  0  0  0  0  0  0  0  0
  152.4125  142.9021  159.6551 O   0  0  0  0  0  0  0  0  0  0  0  0
  151.3426  145.6381  158.0415 H   0  0  0  0  0  0  0  0  0  0  0  0
  152.3408  145.5565  159.4903 H   0  0  0  0  0  0  0  0  0  0  0  0
  150.6917  144.9370  159.5224 H   0  0  0  0  0  0  0  0  0  0  0  0
  153.0131  143.7833  157.8932 H   0  0  0  0  0  0  0  0  0  0  0  0
  150.1216  142.8014  158.1950 H   0  0  0  0  0  0  0  0  0  0  0  0
  150.8557  143.4276  156.7340 H   0  0  0  0  0  0  0  0  0  0  0  0
  152.3810  139.3508  155.9923 H   0  0  0  0  0  0  0  0  0  0  0  0
  151.1034  138.1598  154.2641 H   0  0  0  0  0  0  0  0  0  0  0  0
  148.8821  138.0242  153.0225 H   0  0  0  0  0  0  0  0  0  0  0  0
  146.2052  139.0262  151.1831 H   0  0  0  0  0  0  0  0  0  0  0  0
  147.4009  137.7602  151.4692 H   0  0  0  0  0  0  0  0  0  0  0  0
  144.9945  136.8251  150.7687 H   0  0  0  0  0  0  0  0  0  0  0  0
  146.1009  135.7879  151.6607 H   0  0  0  0  0  0  0  0  0  0  0  0
  147.8672  140.9575  154.9318 H   0  0  0  0  0  0  0  0  0  0  0  0
  151.0932  140.5723  159.1706 H   0  0  0  0  0  0  0  0  0  0  0  0
  152.4205  139.8461  158.2739 H   0  0  0  0  0  0  0  0  0  0  0  0
  153.8888  141.7735  158.7684 H   0  0  0  0  0  0  0  0  0  0  0  0
  153.8179  139.9803  160.5068 H   0  0  0  0  0  0  0  0  0  0  0  0
  152.4905  140.8116  161.3165 H   0  0  0  0  0  0  0  0  0  0  0  0
  154.0819  141.5631  161.2336 H   0  0  0  0  0  0  0  0  0  0  0  0
  1  2  1  0  0  0  0
  1 25  1  0  0  0  0
  1 26  1  0  0  0  0
  1 27  1  0  0  0  0
  2 24  1  0  0  0  0
  2  3  1  0  0  0  0
  2 28  1  0  0  0  0
  3  4  1  0  0  0  0
  3 29  1  0  0  0  0
  3 30  1  0  0  0  0
  4  5  1  0  0  0  0
  4 21  1  0  0  0  0
  5 20  1  0  0  0  0
  5  6  2  0  0  0  0
  6  7  1  0  0  0  0
  6 31  1  0  0  0  0
  7  8  2  0  0  0  0
  7 32  1  0  0  0  0
  8  9  1  0  0  0  0
  8 19  1  0  0  0  0
  9 10  1  0  0  0  0
  9 33  1  0  0  0  0
 10 11  2  0  0  0  0
 10 12  1  0  0  0  0
 12 13  1  0  0  0  0
 12 34  1  0  0  0  0
 12 35  1  0  0  0  0
 13 14  1  0  0  0  0
 14 15  1  0  0  0  0
 14 36  1  0  0  0  0
 14 37  1  0  0  0  0
 15 16  1  0  0  0  0
 15 17  1  0  0  0  0
 15 18  1  0  0  0  0
 19 20  2  0  0  0  0
 19 38  1  0  0  0  0
 21 22  1  0  0  0  0
 21 39  1  0  0  0  0
 21 40  1  0  0  0  0
 22 23  1  0  0  0  0
 22 24  1  0  0  0  0
 22 41  1  0  0  0  0
 23 42  1  0  0  0  0
 23 43  1  0  0  0  0
 23 44  1  0  0  0  0
M  END
> <s_m_source_file>
AV-unprocessed.smi

> <i_m_source_file_index>
1969

> <i_lp_mmshare_version>
43012

> <i_f3d_flags>
0

> <s_epik_input>
W0NIM11bQ0BASF0xW0NIMl1OKFtDSDJdW0NASF0oTzEpW0NIM10pYzJbY0hdW2NIXWMoW2NIXW4yKVtOSF1DKD1PKVtDSDJdT1tDSDJdQyhGKShGKUY=

> <s_epik_cmdline>
J2VwaWtfcHl0aG9uJywgJy1waCcsICc3LjAnLCAnLXRuJywgJzgnLCAnLW1hJywgJzIwMCcsICctbWV0YWxfYmluZGluZycsICctaW1hZScsICc8aW5maWxlLm1hZT4nLCAnLW9tYWUnLCAnPG91dGZpbGUubWFlPic=

> <r_lp_tautomer_probability>
1

> <r_epik_Ionization_Penalty>
0.000531129

> <r_epik_Ionization_Penalty_Charging>
0

> <r_epik_Ionization_Penalty_Neutral>
0.000531129

> <r_epik_State_Penalty>
0.000331002

> <r_epik_Charging_Adjusted_Penalty>
0.000331002

> <i_epik_Tot_Q>
0

> <i_epik_Tot_abs_Q>
0

> <r_epik_Metal_State_Penalty>
-0

> <b_epik_Metal_Only>
0

> <s_lp_Force_Field>
OPLS_2005

> <r_lp_Energy>
22.4216

> <b_lp_Chiralities_Consistent>
1

> <s_lp_Variant>
AV-unprocessed.smi:1969-2

> <Gold.Version>
5.8.1

> <Gold.Id.Protein>
6NUR|6NUR_protein|mol2

> <Gold.PLP.Fitness>
49.5507

> <Gold.PLP.PLP>
-47.9557

> <Gold.PLP.part.hbond>
-1.9265

> <Gold.PLP.part.metal>
0.0000

> <Gold.PLP.part.buried>
-3.2086

> <Gold.PLP.part.nonpolar>
-43.9488

> <Gold.PLP.part.repulsive>
0.6086

> <Gold.PLP.ligand.clash>
0.0000

> <Gold.PLP.ligand.torsion>
0.6567

> <Gold.PLP.Chemscore.Hbond>
0.8450

> <Gold.PLP.Chemscore.CHOScore>
0.0000

> <Gold.PLP.Chemscore.Metal>
0.0000

> <Gold.Chemscore.Hbonds>
donor molecule, donor type, donor heavy atom, donor atom, acceptor molecule, acceptor atom, score
      L1  H     9    33       P1  7948  0.80

> <Gold.PLP.Chemscore.Internal.Correction>
0.3734

> <Gold.Rescore>
     Score         DG    S(hbond)    S(metal)    S(lipo)     H(rot)  DE(clash)    DE(int)     intcor
     13.36     -15.80       0.93        0.00     104.16       1.94       0.49       1.95       ----

> <Gold.Chemscore.Fitness>
13.3644

> <Gold.Chemscore.DG>
-15.7977

> <Gold.Chemscore.ZeroCoef>
-5.4800

> <Gold.Chemscore.Hbond>
0.9304

> <Gold.Chemscore.Metal>
0.0000

> <Gold.Chemscore.Lipo>
104.1552

> <Gold.Chemscore.Internal_Hbond>
0.0000

> <Gold.Chemscore.DEClash>
0.4859

> <Gold.Chemscore.DEInternal>
1.9474

> <Gold.Chemscore.Rot>
1.9438

> <Gold.Chemscore.Internal.Correction>
   9.000000E+99

> <Gold.Chemscore.Hbonds>
donor molecule, donor type, donor heavy atom, donor atom, acceptor molecule, acceptor atom, score
      L1  H     9    33       P1  7948  0.78

> <Gold.Chemscore.Hbond.Weighted>
-3.1077

> <Gold.Chemscore.Metal.Weighted>
-0.0000

> <Gold.Chemscore.Lipo.Weighted>
-12.1862

> <Gold.Chemscore.Internal_Hbond.Weighted>
0.0000

> <Gold.Chemscore.DEClash.Weighted>
0.4859

> <Gold.Chemscore.DEInternal.Weighted>
1.9474

> <Gold.Chemscore.Rot.Weighted>
4.9761

> <Gold.Chemscore.Internal.Correction.Weighted>
   9.000000E+99

> <Gold.Protein.RotatedTorsions>
[ 6907 6896 6895 6894 ] final  -49.27 input  -60.11 | X-H torsion
[ 7974 7965 7964 7962 ] final   46.97 input  175.53 | X-H torsion
[ 8008 7997 7996 7995 ] final -113.11 input   59.86 | X-H torsion
[ 10167 10162 10161 10158 ] final -107.43 input  -65.29 | X-H torsion
[ 10718 10713 10712 10709 ] final  148.03 input   66.30 | X-H torsion
[ 10763 10752 10751 10750 ] final -145.80 input  -60.55 | X-H torsion
[ 11005 11000 10999 10996 ] final  -11.18 input  -57.11 | X-H torsion

> <Gold.Protein.ActiveResidues>
 VAL166  LYS551  ARG553  GLY616  TRP617  ASP618  TYR619  PRO620  LYS621  CYS622 
 ASP623  PHE694  ASN695  SER759  ASP760  ASP761  ALA762  ILE779  LEU786  VAL792 
 PHE793  MET794  SER795  GLU796  ALA797  LYS798  CYS799  TRP800  GLU811  SER814 

> <Gold.Protein.RotatedAtoms>
  150.8822  134.8215  159.7233 H   0  0  0  0  0  0  0  0  0  0  0  0  # atno 6907 bound_to 6896
  152.4785  134.4778  159.9666 H   0  0  0  0  0  0  0  0  0  0  0  0  # atno 6908 bound_to 6896
  151.4851  133.3499  159.2880 H   0  0  0  0  0  0  0  0  0  0  0  0  # atno 6909 bound_to 6896
  146.0341  139.4799  142.9819 H   0  0  0  0  0  0  0  0  0  0  0  0  # atno 7974 bound_to 7965
  155.0156  140.0393  157.2417 H   0  0  0  0  0  0  0  0  0  0  0  0  # atno 8008 bound_to 7997
  154.7422  140.2751  155.6340 H   0  0  0  0  0  0  0  0  0  0  0  0  # atno 8009 bound_to 7997
  156.2867  140.2663  156.2153 H   0  0  0  0  0  0  0  0  0  0  0  0  # atno 8010 bound_to 7997
  140.1770  143.3997  152.1310 H   0  0  0  0  0  0  0  0  0  0  0  0  # atno 10167 bound_to 10162
  157.3136  131.0892  151.1296 H   0  0  0  0  0  0  0  0  0  0  0  0  # atno 10718 bound_to 10713
  154.8366  135.3403  154.6561 H   0  0  0  0  0  0  0  0  0  0  0  0  # atno 10763 bound_to 10752
  153.7175  135.6960  153.5026 H   0  0  0  0  0  0  0  0  0  0  0  0  # atno 10764 bound_to 10752
  153.2406  135.4386  155.0647 H   0  0  0  0  0  0  0  0  0  0  0  0  # atno 10765 bound_to 10752
  140.7526  133.8580  155.9057 H   0  0  0  0  0  0  0  0  0  0  0  0  # atno 11005 bound_to 11000
  145.6993  141.0141  143.1513 LP  0  0  0  0  0  0  0  0  0  0  0  0  # atno 17320 bound_to 7965
  144.7043  139.8625  143.7434 LP  0  0  0  0  0  0  0  0  0  0  0  0  # atno 17321 bound_to 7965
  139.5312  144.7161  151.5048 LP  0  0  0  0  0  0  0  0  0  0  0  0  # atno 17342 bound_to 10162
  140.6544  143.8629  150.6820 LP  0  0  0  0  0  0  0  0  0  0  0  0  # atno 17343 bound_to 10162
  157.2608  130.6658  149.5974 LP  0  0  0  0  0  0  0  0  0  0  0  0  # atno 17370 bound_to 10713
  155.9680  130.4509  150.5715 LP  0  0  0  0  0  0  0  0  0  0  0  0  # atno 17371 bound_to 10713
  140.9737  134.1498  157.4555 LP  0  0  0  0  0  0  0  0  0  0  0  0  # atno 17394 bound_to 11000
  139.8785  134.9987  156.5915 LP  0  0  0  0  0  0  0  0  0  0  0  0  # atno 17395 bound_to 11000

$$$$
