AV-unprocessed.smi:1937|AV-procd|sdf|7833|dock10
  -GOLD-   22720 9583D 1   1.00000     0.00000
 Structure written by MMmdl.
 40 41  0  0  0  0  0  0  0  0  1 V2000
  144.7795  137.4097  153.1986 O   0  0  0  0  0  0  0  0  0  0  0  0
  145.8365  137.0357  152.6910 C   0  0  0  0  0  0  0  0  0  0  0  0
  146.9789  137.7327  152.7684 N   0  0  0  0  0  0  0  0  0  0  0  0
  147.1278  139.0196  153.4368 C   0  0  0  0  0  0  0  0  0  0  0  0
  148.5863  139.5128  153.3920 C   0  0  0  0  0  0  0  0  0  0  0  0
  148.8253  140.5558  154.3973 N   0  0  0  0  0  0  0  0  0  0  0  0
  147.6815  141.4249  154.7214 C   0  0  0  0  0  0  0  0  0  0  0  0
  147.1059  141.1967  156.1388 C   0  0  0  0  0  0  0  0  0  0  0  0
  148.1017  140.7149  157.2120 C   0  0  0  0  0  0  0  0  0  0  0  0
  149.3790  141.5698  157.3477 C   0  0  0  0  0  0  0  0  0  0  0  0
  150.1946  141.8030  156.0536 C   0  0  0  0  0  0  0  0  0  0  0  0
  150.0340  140.7000  154.9948 C   0  0  0  0  0  0  0  0  0  0  0  0
  151.0028  139.9875  154.7301 O   0  0  0  0  0  0  0  0  0  0  0  0
  146.0122  135.8915  152.0079 N   0  0  0  0  0  0  0  0  0  0  0  0
  145.0561  134.8896  151.6879 C   0  0  0  0  0  0  0  0  0  0  0  0
  143.8826  134.6326  152.4380 C   0  0  0  0  0  0  0  0  0  0  0  0
  143.0071  133.6185  152.0040 C   0  0  0  0  0  0  0  0  0  0  0  0
  143.3313  132.9042  150.8343 C   0  0  0  0  0  0  0  0  0  0  0  0
  144.4384  133.1477  150.1020 N   0  0  0  0  0  0  0  0  0  0  0  0
  145.2731  134.1212  150.5242 C   0  0  0  0  0  0  0  0  0  0  0  0
  147.8034  137.3496  152.3295 H   0  0  0  0  0  0  0  0  0  0  0  0
  146.4609  139.7551  152.9834 H   0  0  0  0  0  0  0  0  0  0  0  0
  146.7994  138.9012  154.4697 H   0  0  0  0  0  0  0  0  0  0  0  0
  149.2675  138.6753  153.5524 H   0  0  0  0  0  0  0  0  0  0  0  0
  148.8251  139.8817  152.3943 H   0  0  0  0  0  0  0  0  0  0  0  0
  147.9827  142.4667  154.6094 H   0  0  0  0  0  0  0  0  0  0  0  0
  146.8743  141.3059  153.9983 H   0  0  0  0  0  0  0  0  0  0  0  0
  146.6228  142.1150  156.4739 H   0  0  0  0  0  0  0  0  0  0  0  0
  146.3092  140.4549  156.0725 H   0  0  0  0  0  0  0  0  0  0  0  0
  147.5925  140.6883  158.1759 H   0  0  0  0  0  0  0  0  0  0  0  0
  148.3768  139.6784  157.0108 H   0  0  0  0  0  0  0  0  0  0  0  0
  149.1123  142.5402  157.7678 H   0  0  0  0  0  0  0  0  0  0  0  0
  150.0257  141.0995  158.0891 H   0  0  0  0  0  0  0  0  0  0  0  0
  149.9268  142.7613  155.6090 H   0  0  0  0  0  0  0  0  0  0  0  0
  151.2503  141.9014  156.3098 H   0  0  0  0  0  0  0  0  0  0  0  0
  146.9583  135.6913  151.7178 H   0  0  0  0  0  0  0  0  0  0  0  0
  143.6283  135.1949  153.3227 H   0  0  0  0  0  0  0  0  0  0  0  0
  142.1049  133.3961  152.5544 H   0  0  0  0  0  0  0  0  0  0  0  0
  142.6811  132.1204  150.4744 H   0  0  0  0  0  0  0  0  0  0  0  0
  146.1473  134.2892  149.9121 H   0  0  0  0  0  0  0  0  0  0  0  0
  1  2  2  0  0  0  0
  2  3  1  0  0  0  0
  2 14  1  0  0  0  0
  3  4  1  0  0  0  0
  3 21  1  0  0  0  0
  4  5  1  0  0  0  0
  4 22  1  0  0  0  0
  4 23  1  0  0  0  0
  5  6  1  0  0  0  0
  5 24  1  0  0  0  0
  5 25  1  0  0  0  0
  6 12  1  0  0  0  0
  6  7  1  0  0  0  0
  7  8  1  0  0  0  0
  7 26  1  0  0  0  0
  7 27  1  0  0  0  0
  8  9  1  0  0  0  0
  8 28  1  0  0  0  0
  8 29  1  0  0  0  0
  9 10  1  0  0  0  0
  9 30  1  0  0  0  0
  9 31  1  0  0  0  0
 10 11  1  0  0  0  0
 10 32  1  0  0  0  0
 10 33  1  0  0  0  0
 11 12  1  0  0  0  0
 11 34  1  0  0  0  0
 11 35  1  0  0  0  0
 12 13  2  0  0  0  0
 14 15  1  0  0  0  0
 14 36  1  0  0  0  0
 15 20  1  0  0  0  0
 15 16  2  0  0  0  0
 16 17  1  0  0  0  0
 16 37  1  0  0  0  0
 17 18  2  0  0  0  0
 17 38  1  0  0  0  0
 18 19  1  0  0  0  0
 18 39  1  0  0  0  0
 19 20  2  0  0  0  0
 20 40  1  0  0  0  0
M  END
> <s_m_source_file>
AV-unprocessed.smi

> <i_m_source_file_index>
1937

> <i_lp_mmshare_version>
43012

> <i_f3d_flags>
0

> <s_epik_input>
W2NIXTFuW2NIXVtjSF1bY0hdYzFbTkhdQyg9TylbTkhdW0NIMl1bQ0gyXU4yW0NIMl1bQ0gyXVtDSDJdW0NIMl1bQ0gyXUMyPU8=

> <s_epik_cmdline>
J2VwaWtfcHl0aG9uJywgJy1waCcsICc3LjAnLCAnLXRuJywgJzgnLCAnLW1hJywgJzIwMCcsICctbWV0YWxfYmluZGluZycsICctaW1hZScsICc8aW5maWxlLm1hZT4nLCAnLW9tYWUnLCAnPG91dGZpbGUubWFlPic=

> <r_epik_Ionization_Penalty>
0.00465308

> <r_epik_Ionization_Penalty_Charging>
0

> <r_epik_Ionization_Penalty_Neutral>
0.00465308

> <r_epik_State_Penalty>
0.00334133

> <r_epik_Charging_Adjusted_Penalty>
0.00334133

> <i_epik_Tot_Q>
0

> <i_epik_Tot_abs_Q>
0

> <r_epik_Metal_State_Penalty>
-0

> <b_epik_Metal_Only>
0

> <s_lp_Force_Field>
OPLS_2005

> <r_lp_Energy>
23.2929

> <b_lp_Chiralities_Consistent>
1

> <s_lp_Variant>
AV-unprocessed.smi:1937-1

> <Gold.Version>
5.8.1

> <Gold.Id.Protein>
6NUR|6NUR_protein|mol2

> <Gold.PLP.Fitness>
40.5671

> <Gold.PLP.PLP>
-28.4987

> <Gold.PLP.part.hbond>
-3.0000

> <Gold.PLP.part.metal>
0.0000

> <Gold.PLP.part.buried>
2.2073

> <Gold.PLP.part.nonpolar>
-28.8389

> <Gold.PLP.part.repulsive>
0.4985

> <Gold.PLP.ligand.clash>
0.0000

> <Gold.PLP.ligand.torsion>
0.6067

> <Gold.PLP.Chemscore.Hbond>
2.9516

> <Gold.PLP.Chemscore.CHOScore>
1.4707

> <Gold.PLP.Chemscore.Metal>
0.0000

> <Gold.Chemscore.Hbonds>
donor molecule, donor type, donor heavy atom, donor atom, acceptor molecule, acceptor atom, score
      L1  H     3    21       P1  7948  1.00
      L1  H    14    36       P1  7948  0.95
      P1  H  7989  7998       L1    13  0.95
      L1  C    18    39       P1 10952  0.53
      L1  C    20    40       P1  7921  0.92

> <Gold.PLP.Chemscore.Internal.Correction>
0.0150

> <Gold.Rescore>
     Score         DG    S(hbond)    S(metal)    S(lipo)     H(rot)  DE(clash)    DE(int)     intcor
     14.94     -18.02       2.83        0.00      59.58       1.52       1.42       1.66       ----

> <Gold.Chemscore.Fitness>
14.9372

> <Gold.Chemscore.DG>
-18.0179

> <Gold.Chemscore.ZeroCoef>
-5.4800

> <Gold.Chemscore.Hbond>
2.8314

> <Gold.Chemscore.Metal>
0.0000

> <Gold.Chemscore.Lipo>
59.5814

> <Gold.Chemscore.Internal_Hbond>
0.0000

> <Gold.Chemscore.DEClash>
1.4179

> <Gold.Chemscore.DEInternal>
1.6627

> <Gold.Chemscore.Rot>
1.5195

> <Gold.Chemscore.Internal.Correction>
   9.000000E+99

> <Gold.Chemscore.Hbonds>
donor molecule, donor type, donor heavy atom, donor atom, acceptor molecule, acceptor atom, score
      L1  H     3    21       P1  7948  0.99
      L1  H    14    36       P1  7948  0.85
      P1  H  7989  7998       L1    13  0.21

> <Gold.Chemscore.Hbond.Weighted>
-9.4569

> <Gold.Chemscore.Metal.Weighted>
-0.0000

> <Gold.Chemscore.Lipo.Weighted>
-6.9710

> <Gold.Chemscore.Internal_Hbond.Weighted>
0.0000

> <Gold.Chemscore.DEClash.Weighted>
1.4179

> <Gold.Chemscore.DEInternal.Weighted>
1.6627

> <Gold.Chemscore.Rot.Weighted>
3.8900

> <Gold.Chemscore.Internal.Correction.Weighted>
   9.000000E+99

> <Gold.Protein.RotatedTorsions>
[ 6907 6896 6895 6894 ] final -131.00 input  -60.11 | X-H torsion
[ 7974 7965 7964 7962 ] final  174.56 input  175.53 | X-H torsion
[ 8008 7997 7996 7995 ] final   58.77 input   59.86 | X-H torsion
[ 10167 10162 10161 10158 ] final   70.57 input  -65.29 | X-H torsion
[ 10718 10713 10712 10709 ] final  -49.70 input   66.30 | X-H torsion
[ 10763 10752 10751 10750 ] final  172.36 input  -60.55 | X-H torsion
[ 11005 11000 10999 10996 ] final   54.02 input  -57.11 | X-H torsion

> <Gold.Protein.ActiveResidues>
 VAL166  LYS551  ARG553  GLY616  TRP617  ASP618  TYR619  PRO620  LYS621  CYS622 
 ASP623  PHE694  ASN695  SER759  ASP760  ASP761  ALA762  ILE779  LEU786  VAL792 
 PHE793  MET794  SER795  GLU796  ALA797  LYS798  CYS799  TRP800  GLU811  SER814 

> <Gold.Protein.RotatedAtoms>
  150.9460  133.6603  159.2781 H   0  0  0  0  0  0  0  0  0  0  0  0  # atno 6907 bound_to 6896
  151.3975  135.0964  159.9555 H   0  0  0  0  0  0  0  0  0  0  0  0  # atno 6908 bound_to 6896
  152.5090  133.8961  159.7472 H   0  0  0  0  0  0  0  0  0  0  0  0  # atno 6909 bound_to 6896
  144.7219  139.9815  143.6439 H   0  0  0  0  0  0  0  0  0  0  0  0  # atno 7974 bound_to 7965
  155.5553  140.3487  155.4478 H   0  0  0  0  0  0  0  0  0  0  0  0  # atno 8008 bound_to 7997
  156.0553  140.1327  157.0029 H   0  0  0  0  0  0  0  0  0  0  0  0  # atno 8009 bound_to 7997
  154.4454  140.0996  156.6422 H   0  0  0  0  0  0  0  0  0  0  0  0  # atno 8010 bound_to 7997
  140.0555  144.5276  150.7332 H   0  0  0  0  0  0  0  0  0  0  0  0  # atno 10167 bound_to 10162
  156.1869  130.4152  149.9426 H   0  0  0  0  0  0  0  0  0  0  0  0  # atno 10718 bound_to 10713
  154.4250  135.2758  155.1950 H   0  0  0  0  0  0  0  0  0  0  0  0  # atno 10763 bound_to 10752
  154.3880  135.6072  153.5831 H   0  0  0  0  0  0  0  0  0  0  0  0  # atno 10764 bound_to 10752
  152.9834  135.5896  154.4552 H   0  0  0  0  0  0  0  0  0  0  0  0  # atno 10765 bound_to 10752
  140.0720  134.5456  155.9036 H   0  0  0  0  0  0  0  0  0  0  0  0  # atno 11005 bound_to 11000
  146.0484  139.3487  143.0654 LP  0  0  0  0  0  0  0  0  0  0  0  0  # atno 17320 bound_to 7965
  145.8246  140.9662  143.0881 LP  0  0  0  0  0  0  0  0  0  0  0  0  # atno 17321 bound_to 7965
  140.7196  143.2576  151.4321 LP  0  0  0  0  0  0  0  0  0  0  0  0  # atno 17342 bound_to 10162
  139.5926  144.1466  152.2106 LP  0  0  0  0  0  0  0  0  0  0  0  0  # atno 17343 bound_to 10162
  156.7179  130.8995  151.3615 LP  0  0  0  0  0  0  0  0  0  0  0  0  # atno 17370 bound_to 10713
  157.6904  130.9228  150.0499 LP  0  0  0  0  0  0  0  0  0  0  0  0  # atno 17371 bound_to 10713
  141.2015  133.6619  156.5956 LP  0  0  0  0  0  0  0  0  0  0  0  0  # atno 17394 bound_to 11000
  140.3613  134.7685  157.4536 LP  0  0  0  0  0  0  0  0  0  0  0  0  # atno 17395 bound_to 11000

$$$$
