AV-unprocessed.smi:438|AV-procd|sdf|2576|dock4
  -GOLD-   2262022553D 1   1.00000     0.00000
 Structure written by MMmdl.
 48 49  0  0  0  0  0  0  0  0  1 V2000
  145.7937  129.6469  151.6857 C   0  0  0  0  0  0  0  0  0  0  0  0
  146.3844  130.9681  152.1420 C   0  0  0  0  0  0  0  0  0  0  0  0
  147.2183  130.9046  153.2032 N   0  0  0  0  0  0  0  0  0  0  0  0
  147.7412  132.0564  153.6216 C   0  0  0  0  0  0  0  0  0  0  0  0
  148.8190  131.9377  155.0364 S   0  0  0  0  0  0  0  0  0  0  0  0
  147.8014  132.6729  156.3638 C   0  0  0  0  0  0  0  0  0  0  0  0
  148.5309  132.9765  157.6792 C   0  0  0  0  0  0  0  0  0  0  0  0
  149.7206  133.2885  157.6495 O   0  0  0  0  0  0  0  0  0  0  0  0
  147.8293  132.8783  158.8196 N   0  0  0  0  0  0  0  0  0  0  0  0
  148.3345  133.1112  160.1723 C   0  0  1  0  0  0  0  0  0  0  0  0
  147.5620  134.2470  160.8816 C   0  0  0  0  0  0  0  0  0  0  0  0
  146.1142  133.8481  161.2093 C   0  0  0  0  0  0  0  0  0  0  0  0
  146.0650  132.5518  162.0310 C   0  0  0  0  0  0  0  0  0  0  0  0
  146.8191  131.4124  161.3271 C   0  0  0  0  0  0  0  0  0  0  0  0
  148.2768  131.8073  161.0069 C   0  0  1  0  0  0  0  0  0  0  0  0
  149.0449  130.6451  160.3538 C   0  0  0  0  0  0  0  0  0  0  0  0
  147.5431  133.2693  153.1025 N   0  0  0  0  0  0  0  0  0  0  0  0
  146.7112  133.3506  152.0429 C   0  0  0  0  0  0  0  0  0  0  0  0
  146.4927  134.5817  151.4967 O   0  0  0  0  0  0  0  0  0  0  0  0
  146.0810  132.1999  151.5069 C   0  0  0  0  0  0  0  0  0  0  0  0
  145.1375  132.2930  150.3152 C   0  0  0  0  0  0  0  0  0  0  0  0
  143.6811  132.0148  150.7095 C   0  0  0  0  0  0  0  0  0  0  0  0
  142.8517  132.1169  149.5731 O   0  0  0  0  0  0  0  0  0  0  0  0
  145.9658  129.4972  150.6199 H   0  0  0  0  0  0  0  0  0  0  0  0
  144.7195  129.6292  151.8692 H   0  0  0  0  0  0  0  0  0  0  0  0
  146.2395  128.8059  152.2183 H   0  0  0  0  0  0  0  0  0  0  0  0
  147.3869  133.6078  155.9867 H   0  0  0  0  0  0  0  0  0  0  0  0
  146.9511  132.0211  156.5661 H   0  0  0  0  0  0  0  0  0  0  0  0
  146.8576  132.6133  158.7455 H   0  0  0  0  0  0  0  0  0  0  0  0
  149.3804  133.4117  160.0860 H   0  0  0  0  0  0  0  0  0  0  0  0
  148.0772  134.5020  161.8084 H   0  0  0  0  0  0  0  0  0  0  0  0
  147.5684  135.1555  160.2786 H   0  0  0  0  0  0  0  0  0  0  0  0
  145.6195  134.6526  161.7537 H   0  0  0  0  0  0  0  0  0  0  0  0
  145.5564  133.7176  160.2836 H   0  0  0  0  0  0  0  0  0  0  0  0
  146.5044  132.7267  163.0138 H   0  0  0  0  0  0  0  0  0  0  0  0
  145.0288  132.2605  162.2036 H   0  0  0  0  0  0  0  0  0  0  0  0
  146.8050  130.5245  161.9602 H   0  0  0  0  0  0  0  0  0  0  0  0
  146.2948  131.1409  160.4099 H   0  0  0  0  0  0  0  0  0  0  0  0
  148.7710  132.0133  161.9576 H   0  0  0  0  0  0  0  0  0  0  0  0
  148.5839  130.3298  159.4173 H   0  0  0  0  0  0  0  0  0  0  0  0
  149.0726  129.7775  161.0133 H   0  0  0  0  0  0  0  0  0  0  0  0
  150.0760  130.9280  160.1400 H   0  0  0  0  0  0  0  0  0  0  0  0
  147.2633  135.1280  151.5121 H   0  0  0  0  0  0  0  0  0  0  0  0
  145.2189  133.2753  149.8497 H   0  0  0  0  0  0  0  0  0  0  0  0
  145.4566  131.5845  149.5496 H   0  0  0  0  0  0  0  0  0  0  0  0
  143.5799  131.0154  151.1339 H   0  0  0  0  0  0  0  0  0  0  0  0
  143.3403  132.7258  151.4624 H   0  0  0  0  0  0  0  0  0  0  0  0
  142.2333  132.8174  149.7144 H   0  0  0  0  0  0  0  0  0  0  0  0
  1  2  1  0  0  0  0
  1 24  1  0  0  0  0
  1 25  1  0  0  0  0
  1 26  1  0  0  0  0
  2 20  1  0  0  0  0
  2  3  2  0  0  0  0
  3  4  1  0  0  0  0
  4  5  1  0  0  0  0
  4 17  2  0  0  0  0
  5  6  1  0  0  0  0
  6  7  1  0  0  0  0
  6 27  1  0  0  0  0
  6 28  1  0  0  0  0
  7  8  2  0  0  0  0
  7  9  1  0  0  0  0
  9 10  1  0  0  0  0
  9 29  1  0  0  0  0
 10 15  1  0  0  0  0
 10 11  1  0  0  0  0
 10 30  1  0  0  0  0
 11 12  1  0  0  0  0
 11 31  1  0  0  0  0
 11 32  1  0  0  0  0
 12 13  1  0  0  0  0
 12 33  1  0  0  0  0
 12 34  1  0  0  0  0
 13 14  1  0  0  0  0
 13 35  1  0  0  0  0
 13 36  1  0  0  0  0
 14 15  1  0  0  0  0
 14 37  1  0  0  0  0
 14 38  1  0  0  0  0
 15 16  1  0  0  0  0
 15 39  1  0  0  0  0
 16 40  1  0  0  0  0
 16 41  1  0  0  0  0
 16 42  1  0  0  0  0
 17 18  1  0  0  0  0
 18 19  1  0  0  0  0
 18 20  2  0  0  0  0
 19 43  1  0  0  0  0
 20 21  1  0  0  0  0
 21 22  1  0  0  0  0
 21 44  1  0  0  0  0
 21 45  1  0  0  0  0
 22 23  1  0  0  0  0
 22 46  1  0  0  0  0
 22 47  1  0  0  0  0
 23 48  1  0  0  0  0
M  END
> <s_m_source_file>
AV-unprocessed.smi

> <i_m_source_file_index>
438

> <i_lp_mmshare_version>
43012

> <i_f3d_flags>
0

> <s_epik_input>
W09IXVtDSDJdW0NIMl1jMWMoW09IXSluYyhuYzFbQ0gzXSlTW0NIMl1DKD1PKVtOSF1bQ0BASF0yW0NIMl1bQ0gyXVtDSDJdW0NIMl1bQ0BIXTJbQ0gzXQ==

> <s_epik_cmdline>
J2VwaWtfcHl0aG9uJywgJy1waCcsICc3LjAnLCAnLXRuJywgJzgnLCAnLW1hJywgJzIwMCcsICctbWV0YWxfYmluZGluZycsICctaW1hZScsICc8aW5maWxlLm1hZT4nLCAnLW9tYWUnLCAnPG91dGZpbGUubWFlPic=

> <r_lp_tautomer_probability>
0.0660145

> <r_epik_Ionization_Penalty>
2.91405

> <r_epik_Ionization_Penalty_Charging>
0

> <r_epik_Ionization_Penalty_Neutral>
2.91405

> <r_epik_State_Penalty>
2.44767

> <r_epik_Charging_Adjusted_Penalty>
2.44767

> <i_epik_Tot_Q>
0

> <i_epik_Tot_abs_Q>
0

> <r_epik_Metal_State_Penalty>
3.04288

> <b_epik_Metal_Only>
0

> <s_lp_Force_Field>
OPLS_2005

> <r_lp_Energy>
-3.37475

> <b_lp_Chiralities_Consistent>
1

> <s_lp_Variant>
AV-unprocessed.smi:438-14

> <Gold.Version>
5.8.1

> <Gold.Id.Protein>
6NUR|6NUR_protein|mol2

> <Gold.PLP.Fitness>
45.8107

> <Gold.PLP.PLP>
-35.8273

> <Gold.PLP.part.hbond>
-4.6827

> <Gold.PLP.part.metal>
0.0000

> <Gold.PLP.part.buried>
-6.4507

> <Gold.PLP.part.nonpolar>
-25.2468

> <Gold.PLP.part.repulsive>
0.3048

> <Gold.PLP.ligand.clash>
0.0000

> <Gold.PLP.ligand.torsion>
0.6371

> <Gold.PLP.Chemscore.Hbond>
3.7225

> <Gold.PLP.Chemscore.CHOScore>
0.0000

> <Gold.PLP.Chemscore.Metal>
0.0000

> <Gold.Chemscore.Hbonds>
donor molecule, donor type, donor heavy atom, donor atom, acceptor molecule, acceptor atom, score
      L1  H    19    43       P1  7948  1.00
      L1  H    23    48       P1 10186  1.00
      P1  H  6896  6909       L1     8  1.00
      P1  H 10785 10796       L1    23  0.62

> <Gold.PLP.Chemscore.Internal.Correction>
0.0900

> <Gold.Rescore>
     Score         DG    S(hbond)    S(metal)    S(lipo)     H(rot)  DE(clash)    DE(int)     intcor
     17.66     -18.38       3.51        0.00      85.26       3.44       0.00       0.72       ----

> <Gold.Chemscore.Fitness>
17.6636

> <Gold.Chemscore.DG>
-18.3833

> <Gold.Chemscore.ZeroCoef>
-5.4800

> <Gold.Chemscore.Hbond>
3.5102

> <Gold.Chemscore.Metal>
0.0000

> <Gold.Chemscore.Lipo>
85.2588

> <Gold.Chemscore.Internal_Hbond>
0.0000

> <Gold.Chemscore.DEClash>
0.0000

> <Gold.Chemscore.DEInternal>
0.7197

> <Gold.Chemscore.Rot>
3.4359

> <Gold.Chemscore.Internal.Correction>
   9.000000E+99

> <Gold.Chemscore.Hbonds>
donor molecule, donor type, donor heavy atom, donor atom, acceptor molecule, acceptor atom, score
      L1  H    19    43       P1  7948  0.79
      L1  H    23    48       P1 10186  0.94
      P1  H  6896  6909       L1     8  0.96
      P1  H 10785 10796       L1    23  0.14

> <Gold.Chemscore.Hbond.Weighted>
-11.7240

> <Gold.Chemscore.Metal.Weighted>
-0.0000

> <Gold.Chemscore.Lipo.Weighted>
-9.9753

> <Gold.Chemscore.Internal_Hbond.Weighted>
0.0000

> <Gold.Chemscore.DEClash.Weighted>
0.0000

> <Gold.Chemscore.DEInternal.Weighted>
0.7197

> <Gold.Chemscore.Rot.Weighted>
8.7960

> <Gold.Chemscore.Internal.Correction.Weighted>
   9.000000E+99

> <Gold.Protein.RotatedTorsions>
[ 6907 6896 6895 6894 ] final   -1.15 input  -60.11 | X-H torsion
[ 7974 7965 7964 7962 ] final  -21.32 input  175.53 | X-H torsion
[ 8008 7997 7996 7995 ] final  117.68 input   59.86 | X-H torsion
[ 10167 10162 10161 10158 ] final -158.57 input  -65.29 | X-H torsion
[ 10718 10713 10712 10709 ] final  123.79 input   66.30 | X-H torsion
[ 10763 10752 10751 10750 ] final  -78.04 input  -60.55 | X-H torsion
[ 11005 11000 10999 10996 ] final -110.47 input  -57.11 | X-H torsion

> <Gold.Protein.ActiveResidues>
 VAL166  LYS551  ARG553  GLY616  TRP617  ASP618  TYR619  PRO620  LYS621  CYS622 
 ASP623  PHE694  ASN695  SER759  ASP760  ASP761  ALA762  ILE779  LEU786  VAL792 
 PHE793  MET794  SER795  GLU796  ALA797  LYS798  CYS799  TRP800  GLU811  SER814 

> <Gold.Protein.RotatedAtoms>
  151.5508  135.1067  159.9948 H   0  0  0  0  0  0  0  0  0  0  0  0  # atno 6907 bound_to 6896
  152.4492  133.7592  159.6748 H   0  0  0  0  0  0  0  0  0  0  0  0  # atno 6908 bound_to 6896
  150.8416  133.7860  159.3083 H   0  0  0  0  0  0  0  0  0  0  0  0  # atno 6909 bound_to 6896
  146.1739  140.4325  142.8521 H   0  0  0  0  0  0  0  0  0  0  0  0  # atno 7974 bound_to 7965
  156.2507  140.2891  156.0716 H   0  0  0  0  0  0  0  0  0  0  0  0  # atno 8008 bound_to 7997
  155.1665  140.0401  157.2871 H   0  0  0  0  0  0  0  0  0  0  0  0  # atno 8009 bound_to 7997
  154.6356  140.2510  155.7389 H   0  0  0  0  0  0  0  0  0  0  0  0  # atno 8010 bound_to 7997
  139.6682  143.9792  152.2268 H   0  0  0  0  0  0  0  0  0  0  0  0  # atno 10167 bound_to 10162
  157.5636  131.1088  150.8494 H   0  0  0  0  0  0  0  0  0  0  0  0  # atno 10718 bound_to 10713
  154.5208  135.5743  153.6679 H   0  0  0  0  0  0  0  0  0  0  0  0  # atno 10763 bound_to 10752
  152.9917  135.6181  154.2757 H   0  0  0  0  0  0  0  0  0  0  0  0  # atno 10764 bound_to 10752
  154.2678  135.2854  155.2730 H   0  0  0  0  0  0  0  0  0  0  0  0  # atno 10765 bound_to 10752
  141.0790  133.9253  157.2330 H   0  0  0  0  0  0  0  0  0  0  0  0  # atno 11005 bound_to 11000
  144.8206  140.6543  143.6355 LP  0  0  0  0  0  0  0  0  0  0  0  0  # atno 17320 bound_to 7965
  145.4264  139.1556  143.4046 LP  0  0  0  0  0  0  0  0  0  0  0  0  # atno 17321 bound_to 7965
  139.9549  144.6596  150.8136 LP  0  0  0  0  0  0  0  0  0  0  0  0  # atno 17342 bound_to 10162
  140.7608  143.3159  151.2735 LP  0  0  0  0  0  0  0  0  0  0  0  0  # atno 17343 bound_to 10162
  156.8985  130.5238  149.5283 LP  0  0  0  0  0  0  0  0  0  0  0  0  # atno 17370 bound_to 10713
  156.0686  130.5724  150.9339 LP  0  0  0  0  0  0  0  0  0  0  0  0  # atno 17371 bound_to 10713
  139.9603  135.0156  156.9241 LP  0  0  0  0  0  0  0  0  0  0  0  0  # atno 17394 bound_to 11000
  140.5511  134.0626  155.7369 LP  0  0  0  0  0  0  0  0  0  0  0  0  # atno 17395 bound_to 11000

$$$$
