AV-unprocessed.smi:2520|AV-procd|sdf|9914|dock2
  -GOLD-   2272013553D 1   1.00000     0.00000
 Structure written by MMmdl.
 41 44  0  0  0  0  0  0  0  0  1 V2000
  145.5971  136.9443  154.1563 O   0  0  0  0  0  0  0  0  0  0  0  0
  146.5446  136.7765  153.3909 C   0  0  0  0  0  0  0  0  0  0  0  0
  147.4730  137.7401  153.2112 N   0  0  0  0  0  0  0  0  0  0  0  0
  147.6003  139.0443  153.7736 C   0  0  0  0  0  0  0  0  0  0  0  0
  148.9296  139.4797  153.9609 C   0  0  0  0  0  0  0  0  0  0  0  0
  149.1462  140.7555  154.5091 C   0  0  0  0  0  0  0  0  0  0  0  0
  148.0113  141.5172  154.8343 C   0  0  0  0  0  0  0  0  0  0  0  0
  146.7549  141.0642  154.6363 N   0  0  0  0  0  0  0  0  0  0  0  0
  146.5585  139.8493  154.1135 N   0  0  0  0  0  0  0  0  0  0  0  0
  146.7231  135.6430  152.6956 N   0  0  0  0  0  0  0  0  0  0  0  0
  145.8828  134.4559  152.7887 C   0  0  1  0  0  0  0  0  0  0  0  0
  145.5294  133.8906  151.4131 C   0  0  2  0  0  0  0  0  0  0  0  0
  144.2736  133.7812  150.6245 C   0  0  0  0  0  0  0  0  0  0  0  0
  144.4154  132.2956  150.1996 C   0  0  0  0  0  0  0  0  0  0  0  0
  145.5099  131.7610  150.9828 O   0  0  0  0  0  0  0  0  0  0  0  0
  145.5221  132.5647  152.1455 C   0  0  1  0  0  0  0  0  0  0  0  0
  146.6907  133.1160  152.9881 C   0  0  0  0  0  0  0  0  0  0  0  0
  146.8133  132.5925  154.4261 C   0  0  0  0  0  0  0  0  0  0  0  0
  148.2632  132.1668  154.6697 C   0  0  0  0  0  0  0  0  0  0  0  0
  149.0695  132.9105  153.6149 C   0  0  0  0  0  0  0  0  0  0  0  0
  148.1206  132.9870  152.4234 C   0  0  0  0  0  0  0  0  0  0  0  0
  148.1878  137.5072  152.5375 H   0  0  0  0  0  0  0  0  0  0  0  0
  149.7671  138.8522  153.6925 H   0  0  0  0  0  0  0  0  0  0  0  0
  150.1434  141.1354  154.6740 H   0  0  0  0  0  0  0  0  0  0  0  0
  148.1108  142.5051  155.2593 H   0  0  0  0  0  0  0  0  0  0  0  0
  147.5241  135.5870  152.0824 H   0  0  0  0  0  0  0  0  0  0  0  0
  145.0182  134.5679  153.4497 H   0  0  0  0  0  0  0  0  0  0  0  0
  146.3800  133.9871  150.7311 H   0  0  0  0  0  0  0  0  0  0  0  0
  143.3891  133.9476  151.2410 H   0  0  0  0  0  0  0  0  0  0  0  0
  144.2481  134.4606  149.7723 H   0  0  0  0  0  0  0  0  0  0  0  0
  143.4968  131.7438  150.4024 H   0  0  0  0  0  0  0  0  0  0  0  0
  144.6442  132.1952  149.1384 H   0  0  0  0  0  0  0  0  0  0  0  0
  144.6212  132.3923  152.7457 H   0  0  0  0  0  0  0  0  0  0  0  0
  146.5429  133.3743  155.1359 H   0  0  0  0  0  0  0  0  0  0  0  0
  146.1357  131.7593  154.6162 H   0  0  0  0  0  0  0  0  0  0  0  0
  148.6000  132.3815  155.6843 H   0  0  0  0  0  0  0  0  0  0  0  0
  148.3590  131.0924  154.5080 H   0  0  0  0  0  0  0  0  0  0  0  0
  149.2975  133.9170  153.9685 H   0  0  0  0  0  0  0  0  0  0  0  0
  150.0115  132.4168  153.3752 H   0  0  0  0  0  0  0  0  0  0  0  0
  148.2050  132.0690  151.8405 H   0  0  0  0  0  0  0  0  0  0  0  0
  148.4057  133.8027  151.7590 H   0  0  0  0  0  0  0  0  0  0  0  0
  1  2  2  0  0  0  0
  2  3  1  0  0  0  0
  2 10  1  0  0  0  0
  3  4  1  0  0  0  0
  3 22  1  0  0  0  0
  4  9  1  0  0  0  0
  4  5  2  0  0  0  0
  5  6  1  0  0  0  0
  5 23  1  0  0  0  0
  6  7  2  0  0  0  0
  6 24  1  0  0  0  0
  7  8  1  0  0  0  0
  7 25  1  0  0  0  0
  8  9  2  0  0  0  0
 10 11  1  0  0  0  0
 10 26  1  0  0  0  0
 11 17  1  0  0  0  0
 11 12  1  0  0  0  0
 11 27  1  0  0  0  0
 12 16  1  0  0  0  0
 12 13  1  0  0  0  0
 12 28  1  0  0  0  0
 13 14  1  0  0  0  0
 13 29  1  0  0  0  0
 13 30  1  0  0  0  0
 14 15  1  0  0  0  0
 14 31  1  0  0  0  0
 14 32  1  0  0  0  0
 15 16  1  0  0  0  0
 16 17  1  0  0  0  0
 16 33  1  0  0  0  0
 17 21  1  0  0  0  0
 17 18  1  0  0  0  0
 18 19  1  0  0  0  0
 18 34  1  0  0  0  0
 18 35  1  0  0  0  0
 19 20  1  0  0  0  0
 19 36  1  0  0  0  0
 19 37  1  0  0  0  0
 20 21  1  0  0  0  0
 20 38  1  0  0  0  0
 20 39  1  0  0  0  0
 21 40  1  0  0  0  0
 21 41  1  0  0  0  0
M  END
> <s_m_source_file>
AV-unprocessed.smi

> <i_m_source_file_index>
2520

> <i_lp_mmshare_version>
43012

> <i_f3d_flags>
0

> <s_epik_input>
bjFuW2NIXVtjSF1bY0hdYzFbTkhdQyg9TylbTkhdW0NAQEhdMltDQEBIXShbQ0gyXVtDSDJdTzMpW0NASF0zQzI0W0NIMl1bQ0gyXVtDSDJdW0NIMl00

> <s_epik_cmdline>
J2VwaWtfcHl0aG9uJywgJy1waCcsICc3LjAnLCAnLXRuJywgJzgnLCAnLW1hJywgJzIwMCcsICctbWV0YWxfYmluZGluZycsICctaW1hZScsICc8aW5maWxlLm1hZT4nLCAnLW9tYWUnLCAnPG91dGZpbGUubWFlPic=

> <r_lp_tautomer_probability>
1

> <r_epik_Ionization_Penalty>
0.00552561

> <r_epik_Ionization_Penalty_Charging>
0

> <r_epik_Ionization_Penalty_Neutral>
0.00552561

> <r_epik_State_Penalty>
-0

> <r_epik_Charging_Adjusted_Penalty>
0

> <i_epik_Tot_Q>
0

> <i_epik_Tot_abs_Q>
0

> <r_epik_Metal_State_Penalty>
-0

> <b_epik_Metal_Only>
0

> <s_lp_Force_Field>
OPLS_2005

> <r_lp_Energy>
83.483

> <b_lp_Chiralities_Consistent>
1

> <s_lp_Variant>
AV-unprocessed.smi:2520-8

> <Gold.Version>
5.8.1

> <Gold.Id.Protein>
6NUR|6NUR_protein|mol2

> <Gold.PLP.Fitness>
37.3258

> <Gold.PLP.PLP>
-29.2975

> <Gold.PLP.part.hbond>
-1.8254

> <Gold.PLP.part.metal>
0.0000

> <Gold.PLP.part.buried>
-2.2777

> <Gold.PLP.part.nonpolar>
-26.5343

> <Gold.PLP.part.repulsive>
0.5267

> <Gold.PLP.ligand.clash>
0.0000

> <Gold.PLP.ligand.torsion>
0.3631

> <Gold.PLP.Chemscore.Hbond>
1.8240

> <Gold.PLP.Chemscore.CHOScore>
1.0000

> <Gold.PLP.Chemscore.Metal>
0.0000

> <Gold.Chemscore.Hbonds>
donor molecule, donor type, donor heavy atom, donor atom, acceptor molecule, acceptor atom, score
      L1  H     3    22       P1  7948  0.86
      L1  H    10    26       P1  7948  0.86
      L1  C     7    25       P1  8028  1.00

> <Gold.PLP.Chemscore.Internal.Correction>
0.2825

> <Gold.Rescore>
     Score         DG    S(hbond)    S(metal)    S(lipo)     H(rot)  DE(clash)    DE(int)     intcor
     16.55     -17.11       1.88        0.00      67.64       1.00       0.12       0.45       ----

> <Gold.Chemscore.Fitness>
16.5503

> <Gold.Chemscore.DG>
-17.1120

> <Gold.Chemscore.ZeroCoef>
-5.4800

> <Gold.Chemscore.Hbond>
1.8796

> <Gold.Chemscore.Metal>
0.0000

> <Gold.Chemscore.Lipo>
67.6418

> <Gold.Chemscore.Internal_Hbond>
0.0000

> <Gold.Chemscore.DEClash>
0.1156

> <Gold.Chemscore.DEInternal>
0.4461

> <Gold.Chemscore.Rot>
1.0000

> <Gold.Chemscore.Internal.Correction>
   9.000000E+99

> <Gold.Chemscore.Hbonds>
donor molecule, donor type, donor heavy atom, donor atom, acceptor molecule, acceptor atom, score
      L1  H     3    22       P1  7948  0.84
      L1  H    10    26       P1  7948  0.81

> <Gold.Chemscore.Hbond.Weighted>
-6.2779

> <Gold.Chemscore.Metal.Weighted>
-0.0000

> <Gold.Chemscore.Lipo.Weighted>
-7.9141

> <Gold.Chemscore.Internal_Hbond.Weighted>
0.0000

> <Gold.Chemscore.DEClash.Weighted>
0.1156

> <Gold.Chemscore.DEInternal.Weighted>
0.4461

> <Gold.Chemscore.Rot.Weighted>
2.5600

> <Gold.Chemscore.Internal.Correction.Weighted>
   9.000000E+99

> <Gold.Protein.RotatedTorsions>
[ 6907 6896 6895 6894 ] final  -41.53 input  -60.11 | X-H torsion
[ 7974 7965 7964 7962 ] final   -8.77 input  175.53 | X-H torsion
[ 8008 7997 7996 7995 ] final    1.69 input   59.86 | X-H torsion
[ 10167 10162 10161 10158 ] final -103.49 input  -65.29 | X-H torsion
[ 10718 10713 10712 10709 ] final  -91.48 input   66.30 | X-H torsion
[ 10763 10752 10751 10750 ] final   36.80 input  -60.55 | X-H torsion
[ 11005 11000 10999 10996 ] final    8.60 input  -57.11 | X-H torsion

> <Gold.Protein.ActiveResidues>
 VAL166  LYS551  ARG553  GLY616  TRP617  ASP618  TYR619  PRO620  LYS621  CYS622 
 ASP623  PHE694  ASN695  SER759  ASP760  ASP761  ALA762  ILE779  LEU786  VAL792 
 PHE793  MET794  SER795  GLU796  ALA797  LYS798  CYS799  TRP800  GLU811  SER814 

> <Gold.Protein.RotatedAtoms>
  150.9657  134.9038  159.7757 H   0  0  0  0  0  0  0  0  0  0  0  0  # atno 6907 bound_to 6896
  152.5172  134.3611  159.9295 H   0  0  0  0  0  0  0  0  0  0  0  0  # atno 6908 bound_to 6896
  151.3622  133.3845  159.2725 H   0  0  0  0  0  0  0  0  0  0  0  0  # atno 6909 bound_to 6896
  146.2271  140.2518  142.8347 H   0  0  0  0  0  0  0  0  0  0  0  0  # atno 7974 bound_to 7965
  154.6827  140.2636  155.6891 H   0  0  0  0  0  0  0  0  0  0  0  0  # atno 8008 bound_to 7997
  156.2703  140.2807  156.1300 H   0  0  0  0  0  0  0  0  0  0  0  0  # atno 8009 bound_to 7997
  155.1008  140.0374  157.2686 H   0  0  0  0  0  0  0  0  0  0  0  0  # atno 8010 bound_to 7997
  140.2194  143.3687  152.0982 H   0  0  0  0  0  0  0  0  0  0  0  0  # atno 10167 bound_to 10162
  155.9994  130.4949  150.5481 H   0  0  0  0  0  0  0  0  0  0  0  0  # atno 10718 bound_to 10713
  153.0062  135.6295  154.2043 H   0  0  0  0  0  0  0  0  0  0  0  0  # atno 10763 bound_to 10752
  154.1786  135.2814  155.3060 H   0  0  0  0  0  0  0  0  0  0  0  0  # atno 10764 bound_to 10752
  154.5852  135.5635  153.7284 H   0  0  0  0  0  0  0  0  0  0  0  0  # atno 10765 bound_to 10752
  140.5352  134.0428  155.7886 H   0  0  0  0  0  0  0  0  0  0  0  0  # atno 11005 bound_to 11000
  144.9406  140.8074  143.5633 LP  0  0  0  0  0  0  0  0  0  0  0  0  # atno 17320 bound_to 7965
  145.2469  139.2048  143.4963 LP  0  0  0  0  0  0  0  0  0  0  0  0  # atno 17321 bound_to 7965
  139.5150  144.6956  151.5640 LP  0  0  0  0  0  0  0  0  0  0  0  0  # atno 17342 bound_to 10162
  140.6266  143.9157  150.6570 LP  0  0  0  0  0  0  0  0  0  0  0  0  # atno 17343 bound_to 10162
  157.3408  131.0716  151.1790 LP  0  0  0  0  0  0  0  0  0  0  0  0  # atno 17370 bound_to 10713
  157.2639  130.6672  149.5987 LP  0  0  0  0  0  0  0  0  0  0  0  0  # atno 17371 bound_to 10713
  141.1259  133.9384  157.2637 LP  0  0  0  0  0  0  0  0  0  0  0  0  # atno 17394 bound_to 11000
  139.9533  135.0171  156.9056 LP  0  0  0  0  0  0  0  0  0  0  0  0  # atno 17395 bound_to 11000

$$$$
