AV-unprocessed.smi:3140|AV-procd|sdf|11959|dock7
  -GOLD-   2272017363D 1   1.00000     0.00000
 Structure written by MMmdl.
 38 39  0  0  0  0  0  0  0  0  2 V2000
  146.5379  138.5406  151.5639 C   0  0  0  0  0  0  0  0  0  0  0  0
  145.7601  137.2834  151.9758 C   0  0  1  0  0  0  0  0  0  0  0  0
  145.6489  136.2982  150.7917 C   0  0  0  0  0  0  0  0  0  0  0  0
  144.8805  135.1089  151.1138 N   0  0  0  0  0  0  0  0  0  0  0  0
  144.6506  133.9973  150.3305 C   0  0  0  0  0  0  0  0  0  0  0  0
  143.8554  133.1521  151.0502 C   0  0  0  0  0  0  0  0  0  0  0  0
  143.6532  133.8402  152.2792 C   0  0  0  0  0  0  0  0  0  0  0  0
  144.2684  135.0115  152.3142 N   0  0  0  0  0  0  0  0  0  0  0  0
  146.4259  136.6525  153.1385 N   0  3  0  0  0  0  0  0  0  0  0  0
  146.7707  137.5797  154.2361 C   0  0  0  0  0  0  0  0  0  0  0  0
  148.2265  138.0546  154.1176 C   0  0  0  0  0  0  0  0  0  0  0  0
  148.3333  139.5007  154.2883 N   0  0  0  0  0  0  0  0  0  0  0  0
  147.1531  140.3473  154.2418 C   0  0  0  0  0  0  0  0  0  0  0  0
  147.6470  141.7397  154.6612 C   0  0  0  0  0  0  0  0  0  0  0  0
  149.1758  141.6841  154.5682 C   0  0  0  0  0  0  0  0  0  0  0  0
  149.4652  140.1978  154.4457 C   0  0  0  0  0  0  0  0  0  0  0  0
  150.6027  139.7315  154.4908 O   0  0  0  0  0  0  0  0  0  0  0  0
  146.0510  139.0477  150.7304 H   0  0  0  0  0  0  0  0  0  0  0  0
  147.5556  138.2979  151.2562 H   0  0  0  0  0  0  0  0  0  0  0  0
  146.5997  139.2521  152.3882 H   0  0  0  0  0  0  0  0  0  0  0  0
  144.7583  137.6037  152.2672 H   0  0  0  0  0  0  0  0  0  0  0  0
  145.1647  136.7873  149.9453 H   0  0  0  0  0  0  0  0  0  0  0  0
  146.6402  135.9977  150.4475 H   0  0  0  0  0  0  0  0  0  0  0  0
  145.0621  133.9035  149.3361 H   0  0  0  0  0  0  0  0  0  0  0  0
  143.4748  132.1882  150.7457 H   0  0  0  0  0  0  0  0  0  0  0  0
  143.0788  133.5276  153.1390 H   0  0  0  0  0  0  0  0  0  0  0  0
  145.8163  135.9309  153.4971 H   0  0  0  0  0  0  0  0  0  0  0  0
  146.0906  138.4324  154.2086 H   0  0  0  0  0  0  0  0  0  0  0  0
  146.6186  137.0862  155.1954 H   0  0  0  0  0  0  0  0  0  0  0  0
  148.8449  137.5607  154.8693 H   0  0  0  0  0  0  0  0  0  0  0  0
  148.6353  137.7716  153.1465 H   0  0  0  0  0  0  0  0  0  0  0  0
  146.7613  140.3622  153.2238 H   0  0  0  0  0  0  0  0  0  0  0  0
  146.3702  139.9783  154.9056 H   0  0  0  0  0  0  0  0  0  0  0  0
  147.2269  142.5243  154.0308 H   0  0  0  0  0  0  0  0  0  0  0  0
  147.3471  141.9501  155.6887 H   0  0  0  0  0  0  0  0  0  0  0  0
  149.5397  142.1987  153.6783 H   0  0  0  0  0  0  0  0  0  0  0  0
  149.6596  142.1143  155.4456 H   0  0  0  0  0  0  0  0  0  0  0  0
  147.2823  136.2211  152.8213 H   0  0  0  0  0  0  0  0  0  0  0  0
  1  2  1  0  0  0  0
  1 18  1  0  0  0  0
  1 19  1  0  0  0  0
  1 20  1  0  0  0  0
  2  3  1  0  0  0  0
  2  9  1  0  0  0  0
  2 21  1  0  0  0  0
  3  4  1  0  0  0  0
  3 22  1  0  0  0  0
  3 23  1  0  0  0  0
  4  8  1  0  0  0  0
  4  5  1  0  0  0  0
  5  6  2  0  0  0  0
  5 24  1  0  0  0  0
  6  7  1  0  0  0  0
  6 25  1  0  0  0  0
  7  8  2  0  0  0  0
  7 26  1  0  0  0  0
  9 10  1  0  0  0  0
  9 27  1  0  0  0  0
  9 38  1  0  0  0  0
 10 11  1  0  0  0  0
 10 28  1  0  0  0  0
 10 29  1  0  0  0  0
 11 12  1  0  0  0  0
 11 30  1  0  0  0  0
 11 31  1  0  0  0  0
 12 16  1  0  0  0  0
 12 13  1  0  0  0  0
 13 14  1  0  0  0  0
 13 32  1  0  0  0  0
 13 33  1  0  0  0  0
 14 15  1  0  0  0  0
 14 34  1  0  0  0  0
 14 35  1  0  0  0  0
 15 16  1  0  0  0  0
 15 36  1  0  0  0  0
 15 37  1  0  0  0  0
 16 17  2  0  0  0  0
M  CHG  1   9   1
M  END
> <s_m_source_file>
AV-unprocessed.smi

> <i_m_source_file_index>
3140

> <i_lp_mmshare_version>
43012

> <i_f3d_flags>
0

> <s_epik_input>
bjFbY0hdW2NIXVtjSF1uMVtDSDJdW0NAQEhdKFtDSDNdKVtOSF1bQ0gyXVtDSDJdTjJbQ0gyXVtDSDJdW0NIMl1DMj1P

> <s_epik_cmdline>
J2VwaWtfcHl0aG9uJywgJy1waCcsICc3LjAnLCAnLXRuJywgJzgnLCAnLW1hJywgJzIwMCcsICctbWV0YWxfYmluZGluZycsICctaW1hZScsICc8aW5maWxlLm1hZT4nLCAnLW9tYWUnLCAnPG91dGZpbGUubWFlPic=

> <r_lp_tautomer_probability>
1

> <r_epik_Ionization_Penalty>
0.00826299

> <r_epik_Ionization_Penalty_Charging>
0.00825899

> <r_epik_Ionization_Penalty_Neutral>
3.99893e-06

> <r_epik_State_Penalty>
0.00621436

> <r_epik_Charging_Adjusted_Penalty>
0.0144734

> <i_epik_Tot_Q>
1

> <i_epik_Tot_abs_Q>
1

> <r_epik_Metal_State_Penalty>
0.00621472

> <b_epik_Metal_Only>
0

> <s_lp_Force_Field>
OPLS_2005

> <r_lp_Energy>
19.0418

> <b_lp_Chiralities_Consistent>
1

> <s_lp_Variant>
AV-unprocessed.smi:3140-2

> <Gold.Version>
5.8.1

> <Gold.Id.Protein>
6NUR|6NUR_protein|mol2

> <Gold.PLP.Fitness>
43.5405

> <Gold.PLP.PLP>
-30.0879

> <Gold.PLP.part.hbond>
-2.0000

> <Gold.PLP.part.metal>
0.0000

> <Gold.PLP.part.buried>
4.1865

> <Gold.PLP.part.nonpolar>
-32.4731

> <Gold.PLP.part.repulsive>
0.2169

> <Gold.PLP.ligand.clash>
0.0000

> <Gold.PLP.ligand.torsion>
0.7916

> <Gold.PLP.Chemscore.Hbond>
3.0000

> <Gold.PLP.Chemscore.CHOScore>
2.0000

> <Gold.PLP.Chemscore.Metal>
0.0000

> <Gold.Chemscore.Hbonds>
donor molecule, donor type, donor heavy atom, donor atom, acceptor molecule, acceptor atom, score
      L1  H     9    38       P1  7948  2.00
      P1  H  7989  7998       L1    17  1.00
      L1  C     5    24       P1  7921  1.00
      L1  C     7    26       P1 10957  1.00

> <Gold.PLP.Chemscore.Internal.Correction>
0.0357

> <Gold.Rescore>
     Score         DG    S(hbond)    S(metal)    S(lipo)     H(rot)  DE(clash)    DE(int)     intcor
     13.91     -14.86       1.98        0.00      68.75       2.06       0.31       0.64       ----

> <Gold.Chemscore.Fitness>
13.9115

> <Gold.Chemscore.DG>
-14.8623

> <Gold.Chemscore.ZeroCoef>
-5.4800

> <Gold.Chemscore.Hbond>
1.9764

> <Gold.Chemscore.Metal>
0.0000

> <Gold.Chemscore.Lipo>
68.7502

> <Gold.Chemscore.Internal_Hbond>
0.0000

> <Gold.Chemscore.DEClash>
0.3072

> <Gold.Chemscore.DEInternal>
0.6436

> <Gold.Chemscore.Rot>
2.0557

> <Gold.Chemscore.Internal.Correction>
   9.000000E+99

> <Gold.Chemscore.Hbonds>
donor molecule, donor type, donor heavy atom, donor atom, acceptor molecule, acceptor atom, score
      L1  H     9    38       P1  7948  0.96
      P1  H  7989  7998       L1    17  0.50

> <Gold.Chemscore.Hbond.Weighted>
-6.6012

> <Gold.Chemscore.Metal.Weighted>
-0.0000

> <Gold.Chemscore.Lipo.Weighted>
-8.0438

> <Gold.Chemscore.Internal_Hbond.Weighted>
0.0000

> <Gold.Chemscore.DEClash.Weighted>
0.3072

> <Gold.Chemscore.DEInternal.Weighted>
0.6436

> <Gold.Chemscore.Rot.Weighted>
5.2627

> <Gold.Chemscore.Internal.Correction.Weighted>
   9.000000E+99

> <Gold.Protein.RotatedTorsions>
[ 6907 6896 6895 6894 ] final   19.95 input  -60.11 | X-H torsion
[ 7974 7965 7964 7962 ] final  -54.98 input  175.53 | X-H torsion
[ 8008 7997 7996 7995 ] final  -73.22 input   59.86 | X-H torsion
[ 10167 10162 10161 10158 ] final  -35.98 input  -65.29 | X-H torsion
[ 10718 10713 10712 10709 ] final -136.86 input   66.30 | X-H torsion
[ 10763 10752 10751 10750 ] final  124.54 input  -60.55 | X-H torsion
[ 11005 11000 10999 10996 ] final -153.53 input  -57.11 | X-H torsion

> <Gold.Protein.ActiveResidues>
 VAL166  LYS551  ARG553  GLY616  TRP617  ASP618  TYR619  PRO620  LYS621  CYS622 
 ASP623  PHE694  ASN695  SER759  ASP760  ASP761  ALA762  ILE779  LEU786  VAL792 
 PHE793  MET794  SER795  GLU796  ALA797  LYS798  CYS799  TRP800  GLU811  SER814 

> <Gold.Protein.RotatedAtoms>
  151.8887  135.0425  160.0495 H   0  0  0  0  0  0  0  0  0  0  0  0  # atno 6907 bound_to 6896
  152.2453  133.5165  159.5302 H   0  0  0  0  0  0  0  0  0  0  0  0  # atno 6908 bound_to 6896
  150.7066  134.0950  159.3988 H   0  0  0  0  0  0  0  0  0  0  0  0  # atno 6909 bound_to 6896
  145.8794  140.8156  142.9847 H   0  0  0  0  0  0  0  0  0  0  0  0  # atno 7974 bound_to 7965
  154.5229  140.0783  156.8206 H   0  0  0  0  0  0  0  0  0  0  0  0  # atno 8008 bound_to 7997
  155.3537  140.3414  155.4221 H   0  0  0  0  0  0  0  0  0  0  0  0  # atno 8009 bound_to 7997
  156.1701  140.1617  156.8450 H   0  0  0  0  0  0  0  0  0  0  0  0  # atno 8010 bound_to 7997
  140.7153  143.3440  151.2296 H   0  0  0  0  0  0  0  0  0  0  0  0  # atno 10167 bound_to 10162
  156.2817  130.7324  151.1324 H   0  0  0  0  0  0  0  0  0  0  0  0  # atno 10718 bound_to 10713
  153.6630  135.3343  155.3132 H   0  0  0  0  0  0  0  0  0  0  0  0  # atno 10763 bound_to 10752
  154.8510  135.4368  154.1784 H   0  0  0  0  0  0  0  0  0  0  0  0  # atno 10764 bound_to 10752
  153.2756  135.7004  153.7512 H   0  0  0  0  0  0  0  0  0  0  0  0  # atno 10765 bound_to 10752
  140.7071  134.3873  157.5202 H   0  0  0  0  0  0  0  0  0  0  0  0  # atno 11005 bound_to 11000
  144.6727  140.1361  143.7440 LP  0  0  0  0  0  0  0  0  0  0  0  0  # atno 17320 bound_to 7965
  145.9042  139.2448  143.1476 LP  0  0  0  0  0  0  0  0  0  0  0  0  # atno 17321 bound_to 7965
  139.6954  143.9621  152.2880 LP  0  0  0  0  0  0  0  0  0  0  0  0  # atno 17342 bound_to 10162
  139.9297  144.6749  150.8376 LP  0  0  0  0  0  0  0  0  0  0  0  0  # atno 17343 bound_to 10162
  157.7316  131.0606  150.5668 LP  0  0  0  0  0  0  0  0  0  0  0  0  # atno 17370 bound_to 10713
  156.5774  130.4295  149.5992 LP  0  0  0  0  0  0  0  0  0  0  0  0  # atno 17371 bound_to 10713
  139.8881  134.8865  156.2492 LP  0  0  0  0  0  0  0  0  0  0  0  0  # atno 17394 bound_to 11000
  141.0115  133.7093  156.1119 LP  0  0  0  0  0  0  0  0  0  0  0  0  # atno 17395 bound_to 11000

$$$$
