AV-unprocessed.smi:1300|AV-procd|sdf|5420|dock10
  -GOLD-   22720 4583D 1   1.00000     0.00000
 Structure written by MMmdl.
 35 36  0  0  0  0  0  0  0  0  1 V2000
  147.5808  141.2894  153.8413 C   0  0  0  0  0  0  0  0  0  0  0  0
  148.7400  140.8931  154.7187 C   0  0  0  0  0  0  0  0  0  0  0  0
  148.9573  141.6691  155.7290 N   0  0  0  0  0  0  0  0  0  0  0  0
  149.9879  141.4310  156.6150 N   0  0  0  0  0  0  0  0  0  0  0  0
  150.0759  142.4132  157.7029 C   0  0  0  0  0  0  0  0  0  0  0  0
  151.4648  143.0833  157.7843 C   0  0  1  0  0  0  0  0  0  0  0  0
  151.3970  144.3496  157.1558 O   0  0  0  0  0  0  0  0  0  0  0  0
  151.9240  143.1942  159.2329 C   0  0  0  0  0  0  0  0  0  0  0  0
  152.6145  142.1275  159.8523 C   0  0  0  0  0  0  0  0  0  0  0  0
  153.0493  142.2394  161.1869 C   0  0  0  0  0  0  0  0  0  0  0  0
  152.8024  143.4205  161.9113 C   0  0  0  0  0  0  0  0  0  0  0  0
  152.1226  144.4902  161.2990 C   0  0  0  0  0  0  0  0  0  0  0  0
  151.6863  144.3805  159.9641 C   0  0  0  0  0  0  0  0  0  0  0  0
  151.0432  145.4245  159.3880 F   0  0  0  0  0  0  0  0  0  0  0  0
  150.8614  140.3882  156.5271 C   0  0  0  0  0  0  0  0  0  0  0  0
  151.7695  140.2141  157.3413 O   0  0  0  0  0  0  0  0  0  0  0  0
  150.6124  139.5096  155.3823 C   0  0  0  0  0  0  0  0  0  0  0  0
  151.5083  138.4055  155.2538 C   0  0  0  0  0  0  0  0  0  0  0  0
  152.2240  137.5000  155.1637 N   0  0  0  0  0  0  0  0  0  0  0  0
  149.6004  139.7296  154.5053 C   0  0  0  0  0  0  0  0  0  0  0  0
  149.3088  138.8365  153.3068 C   0  0  0  0  0  0  0  0  0  0  0  0
  147.4588  140.6393  152.9770 H   0  0  0  0  0  0  0  0  0  0  0  0
  147.7135  142.3045  153.4652 H   0  0  0  0  0  0  0  0  0  0  0  0
  146.6471  141.2629  154.4039 H   0  0  0  0  0  0  0  0  0  0  0  0
  149.2934  143.1700  157.6158 H   0  0  0  0  0  0  0  0  0  0  0  0
  149.8645  141.8986  158.6424 H   0  0  0  0  0  0  0  0  0  0  0  0
  152.2004  142.4959  157.2345 H   0  0  0  0  0  0  0  0  0  0  0  0
  150.5368  144.4496  156.7774 H   0  0  0  0  0  0  0  0  0  0  0  0
  152.8180  141.2182  159.3056 H   0  0  0  0  0  0  0  0  0  0  0  0
  153.5750  141.4196  161.6540 H   0  0  0  0  0  0  0  0  0  0  0  0
  153.1372  143.5074  162.9344 H   0  0  0  0  0  0  0  0  0  0  0  0
  151.9374  145.3985  161.8534 H   0  0  0  0  0  0  0  0  0  0  0  0
  149.9816  137.9815  153.2536 H   0  0  0  0  0  0  0  0  0  0  0  0
  149.4179  139.3967  152.3777 H   0  0  0  0  0  0  0  0  0  0  0  0
  148.2921  138.4451  153.3601 H   0  0  0  0  0  0  0  0  0  0  0  0
  1  2  1  0  0  0  0
  1 22  1  0  0  0  0
  1 23  1  0  0  0  0
  1 24  1  0  0  0  0
  2 20  1  0  0  0  0
  2  3  2  0  0  0  0
  3  4  1  0  0  0  0
  4  5  1  0  0  0  0
  4 15  1  0  0  0  0
  5  6  1  0  0  0  0
  5 25  1  0  0  0  0
  5 26  1  0  0  0  0
  6  7  1  0  0  0  0
  6  8  1  0  0  0  0
  6 27  1  0  0  0  0
  7 28  1  0  0  0  0
  8 13  1  0  0  0  0
  8  9  2  0  0  0  0
  9 10  1  0  0  0  0
  9 29  1  0  0  0  0
 10 11  2  0  0  0  0
 10 30  1  0  0  0  0
 11 12  1  0  0  0  0
 11 31  1  0  0  0  0
 12 13  2  0  0  0  0
 12 32  1  0  0  0  0
 13 14  1  0  0  0  0
 15 16  2  0  0  0  0
 15 17  1  0  0  0  0
 17 18  1  0  0  0  0
 17 20  2  0  0  0  0
 18 19  3  0  0  0  0
 20 21  1  0  0  0  0
 21 33  1  0  0  0  0
 21 34  1  0  0  0  0
 21 35  1  0  0  0  0
M  END
> <s_m_source_file>
AV-unprocessed.smi

> <i_m_source_file_index>
1300

> <i_lp_mmshare_version>
43012

> <i_f3d_flags>
0

> <s_epik_input>
TiNDYyhjMVtDSDNdKWMoPU8pbihuYzFbQ0gzXSlbQ0gyXVtDQEhdKFtPSF0pYzJbY0hdW2NIXVtjSF1bY0hdYzJG

> <s_epik_cmdline>
J2VwaWtfcHl0aG9uJywgJy1waCcsICc3LjAnLCAnLXRuJywgJzgnLCAnLW1hJywgJzIwMCcsICctbWV0YWxfYmluZGluZycsICctaW1hZScsICc8aW5maWxlLm1hZT4nLCAnLW9tYWUnLCAnPG91dGZpbGUubWFlPic=

> <r_lp_tautomer_probability>
1

> <r_epik_Ionization_Penalty>
7.1854e-08

> <r_epik_Ionization_Penalty_Charging>
1.40848e-10

> <r_epik_Ionization_Penalty_Neutral>
7.17131e-08

> <r_epik_State_Penalty>
-0

> <r_epik_Charging_Adjusted_Penalty>
1.40848e-10

> <i_epik_Tot_Q>
0

> <i_epik_Tot_abs_Q>
0

> <r_epik_Metal_State_Penalty>
-0

> <b_epik_Metal_Only>
0

> <s_lp_Force_Field>
OPLS_2005

> <r_lp_Energy>
29.2167

> <b_lp_Chiralities_Consistent>
1

> <s_lp_Variant>
AV-unprocessed.smi:1300-2

> <Gold.Version>
5.8.1

> <Gold.Id.Protein>
6NUR|6NUR_protein|mol2

> <Gold.PLP.Fitness>
48.5257

> <Gold.PLP.PLP>
-46.4364

> <Gold.PLP.part.hbond>
-2.0000

> <Gold.PLP.part.metal>
0.0000

> <Gold.PLP.part.buried>
-0.5454

> <Gold.PLP.part.nonpolar>
-44.3935

> <Gold.PLP.part.repulsive>
0.8529

> <Gold.PLP.ligand.clash>
0.0000

> <Gold.PLP.ligand.torsion>
1.3238

> <Gold.PLP.Chemscore.Hbond>
1.5763

> <Gold.PLP.Chemscore.CHOScore>
0.0000

> <Gold.PLP.Chemscore.Metal>
0.0000

> <Gold.Chemscore.Hbonds>
donor molecule, donor type, donor heavy atom, donor atom, acceptor molecule, acceptor atom, score
      L1  H     7    28       P1  8028  1.00
      P1  H 10752 10765       L1    19  0.61

> <Gold.PLP.Chemscore.Internal.Correction>
0.0082

> <Gold.Rescore>
     Score         DG    S(hbond)    S(metal)    S(lipo)     H(rot)  DE(clash)    DE(int)     intcor
     14.35     -20.66       1.76        0.00     123.09       2.00       2.56       3.75       ----

> <Gold.Chemscore.Fitness>
14.3547

> <Gold.Chemscore.DG>
-20.6592

> <Gold.Chemscore.ZeroCoef>
-5.4800

> <Gold.Chemscore.Hbond>
1.7627

> <Gold.Chemscore.Metal>
0.0000

> <Gold.Chemscore.Lipo>
123.0900

> <Gold.Chemscore.Internal_Hbond>
0.0000

> <Gold.Chemscore.DEClash>
2.5573

> <Gold.Chemscore.DEInternal>
3.7471

> <Gold.Chemscore.Rot>
1.9960

> <Gold.Chemscore.Internal.Correction>
   9.000000E+99

> <Gold.Chemscore.Hbonds>
donor molecule, donor type, donor heavy atom, donor atom, acceptor molecule, acceptor atom, score
      L1  H     7    28       P1  8028  0.94
      P1  H 10752 10765       L1    19  0.61

> <Gold.Chemscore.Hbond.Weighted>
-5.8874

> <Gold.Chemscore.Metal.Weighted>
-0.0000

> <Gold.Chemscore.Lipo.Weighted>
-14.4015

> <Gold.Chemscore.Internal_Hbond.Weighted>
0.0000

> <Gold.Chemscore.DEClash.Weighted>
2.5573

> <Gold.Chemscore.DEInternal.Weighted>
3.7471

> <Gold.Chemscore.Rot.Weighted>
5.1097

> <Gold.Chemscore.Internal.Correction.Weighted>
   9.000000E+99

> <Gold.Protein.RotatedTorsions>
[ 6907 6896 6895 6894 ] final  -68.50 input  -60.11 | X-H torsion
[ 7974 7965 7964 7962 ] final   56.28 input  175.53 | X-H torsion
[ 8008 7997 7996 7995 ] final  148.75 input   59.86 | X-H torsion
[ 10167 10162 10161 10158 ] final -162.93 input  -65.29 | X-H torsion
[ 10718 10713 10712 10709 ] final  155.93 input   66.30 | X-H torsion
[ 10763 10752 10751 10750 ] final  175.80 input  -60.55 | X-H torsion
[ 11005 11000 10999 10996 ] final  -48.81 input  -57.11 | X-H torsion

> <Gold.Protein.ActiveResidues>
 VAL166  LYS551  ARG553  GLY616  TRP617  ASP618  TYR619  PRO620  LYS621  CYS622 
 ASP623  PHE694  ASN695  SER759  ASP760  ASP761  ALA762  ILE779  LEU786  VAL792 
 PHE793  MET794  SER795  GLU796  ALA797  LYS798  CYS799  TRP800  GLU811  SER814 

> <Gold.Protein.RotatedAtoms>
  150.7353  134.5730  159.5899 H   0  0  0  0  0  0  0  0  0  0  0  0  # atno 6907 bound_to 6896
  152.3163  134.7432  160.0333 H   0  0  0  0  0  0  0  0  0  0  0  0  # atno 6908 bound_to 6896
  151.7963  133.3329  159.3550 H   0  0  0  0  0  0  0  0  0  0  0  0  # atno 6909 bound_to 6896
  145.9415  139.3892  143.0361 H   0  0  0  0  0  0  0  0  0  0  0  0  # atno 7974 bound_to 7965
  156.2780  140.2120  156.5747 H   0  0  0  0  0  0  0  0  0  0  0  0  # atno 8008 bound_to 7997
  154.7107  140.0512  157.0570 H   0  0  0  0  0  0  0  0  0  0  0  0  # atno 8009 bound_to 7997
  155.0610  140.3166  155.4664 H   0  0  0  0  0  0  0  0  0  0  0  0  # atno 8010 bound_to 7997
  139.6357  144.0355  152.2052 H   0  0  0  0  0  0  0  0  0  0  0  0  # atno 10167 bound_to 10162
  157.2117  131.0699  151.1965 H   0  0  0  0  0  0  0  0  0  0  0  0  # atno 10718 bound_to 10713
  154.4725  135.2771  155.1632 H   0  0  0  0  0  0  0  0  0  0  0  0  # atno 10763 bound_to 10752
  154.3375  135.6177  153.5584 H   0  0  0  0  0  0  0  0  0  0  0  0  # atno 10764 bound_to 10752
  152.9866  135.5780  154.5109 H   0  0  0  0  0  0  0  0  0  0  0  0  # atno 10765 bound_to 10752
  141.0722  133.6676  156.3495 H   0  0  0  0  0  0  0  0  0  0  0  0  # atno 11005 bound_to 11000
  145.8294  140.9638  143.0857 LP  0  0  0  0  0  0  0  0  0  0  0  0  # atno 17320 bound_to 7965
  144.6780  140.0143  143.7484 LP  0  0  0  0  0  0  0  0  0  0  0  0  # atno 17321 bound_to 7965
  140.0032  144.6278  150.7712 LP  0  0  0  0  0  0  0  0  0  0  0  0  # atno 17342 bound_to 10162
  140.7464  143.2890  151.3384 LP  0  0  0  0  0  0  0  0  0  0  0  0  # atno 17343 bound_to 10162
  157.3665  130.7158  149.6536 LP  0  0  0  0  0  0  0  0  0  0  0  0  # atno 17370 bound_to 10713
  155.9690  130.4211  150.4452 LP  0  0  0  0  0  0  0  0  0  0  0  0  # atno 17371 bound_to 10713
  140.5648  134.5898  157.5443 LP  0  0  0  0  0  0  0  0  0  0  0  0  # atno 17394 bound_to 11000
  139.9535  134.7575  156.0393 LP  0  0  0  0  0  0  0  0  0  0  0  0  # atno 17395 bound_to 11000

$$$$
