AV-unprocessed.smi:40|AV-procd|sdf|368|dock3
  -GOLD-   2262016203D 1   1.00000     0.00000
 Structure written by MMmdl.
 47 48  0  0  0  0  0  0  0  0  1 V2000
  150.8210  144.7484  160.5834 C   0  0  0  0  0  0  0  0  0  0  0  0
  151.6051  145.6600  159.6302 C   0  0  0  0  0  0  0  0  0  0  0  0
  152.4954  144.8975  158.6352 C   0  0  0  0  0  0  0  0  0  0  0  0
  151.7057  144.1254  157.5630 C   0  0  0  0  0  0  0  0  0  0  0  0
  150.8456  142.9969  158.1474 C   0  0  0  0  0  0  0  0  0  0  0  0
  150.6573  141.9873  157.1698 O   0  0  0  0  0  0  0  0  0  0  0  0
  150.5690  140.6952  157.5323 C   0  0  0  0  0  0  0  0  0  0  0  0
  151.0070  140.2473  158.5917 O   0  0  0  0  0  0  0  0  0  0  0  0
  149.9301  139.8900  156.5034 N   0  0  0  0  0  0  0  0  0  0  0  0
  149.6607  138.5608  156.4927 C   0  0  0  0  0  0  0  0  0  0  0  0
  149.5707  137.8365  157.5975 N   0  0  0  0  0  0  0  0  0  0  0  0
  149.3173  136.4916  157.6135 C   0  0  0  0  0  0  0  0  0  0  0  0
  149.2511  135.8751  158.6763 O   0  0  0  0  0  0  0  0  0  0  0  0
  149.1455  135.8473  156.3665 N   0  0  0  0  0  0  0  0  0  0  0  0
  148.8733  134.3569  156.3584 C   0  0  1  0  0  0  0  0  0  0  0  0
  148.6868  133.9242  155.0404 O   0  0  0  0  0  0  0  0  0  0  0  0
  149.7497  133.0589  154.6528 C   0  0  2  0  0  0  0  0  0  0  0  0
  149.2695  132.0920  153.5648 C   0  0  0  0  0  0  0  0  0  0  0  0
  150.1421  132.3832  155.9644 C   0  0  1  0  0  0  0  0  0  0  0  0
  151.4299  131.7981  155.9200 O   0  0  0  0  0  0  0  0  0  0  0  0
  150.0254  133.5244  156.9691 C   0  0  1  0  0  0  0  0  0  0  0  0
  151.2413  134.2464  157.1032 O   0  0  0  0  0  0  0  0  0  0  0  0
  149.2577  136.5819  155.1950 C   0  0  0  0  0  0  0  0  0  0  0  0
  149.5104  137.9083  155.2092 C   0  0  0  0  0  0  0  0  0  0  0  0
  149.6173  138.5986  154.0606 F   0  0  0  0  0  0  0  0  0  0  0  0
  147.9230  134.2187  156.8768 H   0  0  0  0  0  0  0  0  0  0  0  0
  150.5788  133.6623  154.2805 H   0  0  0  0  0  0  0  0  0  0  0  0
  149.4101  131.6134  156.2133 H   0  0  0  0  0  0  0  0  0  0  0  0
  149.7314  133.1625  157.9549 H   0  0  0  0  0  0  0  0  0  0  0  0
  150.2539  145.3396  161.3028 H   0  0  0  0  0  0  0  0  0  0  0  0
  151.4911  144.0974  161.1454 H   0  0  0  0  0  0  0  0  0  0  0  0
  150.1117  144.1196  160.0460 H   0  0  0  0  0  0  0  0  0  0  0  0
  150.9166  146.3102  159.0891 H   0  0  0  0  0  0  0  0  0  0  0  0
  152.2360  146.3199  160.2267 H   0  0  0  0  0  0  0  0  0  0  0  0
  153.1486  145.6183  158.1416 H   0  0  0  0  0  0  0  0  0  0  0  0
  153.1527  144.2161  159.1766 H   0  0  0  0  0  0  0  0  0  0  0  0
  151.0513  144.8112  157.0256 H   0  0  0  0  0  0  0  0  0  0  0  0
  152.3921  143.7128  156.8226 H   0  0  0  0  0  0  0  0  0  0  0  0
  151.3225  142.5746  159.0328 H   0  0  0  0  0  0  0  0  0  0  0  0
  149.8765  143.3930  158.4538 H   0  0  0  0  0  0  0  0  0  0  0  0
  149.6137  140.4219  155.7056 H   0  0  0  0  0  0  0  0  0  0  0  0
  150.0638  131.4042  153.2745 H   0  0  0  0  0  0  0  0  0  0  0  0
  148.9568  132.6357  152.6733 H   0  0  0  0  0  0  0  0  0  0  0  0
  148.4216  131.4986  153.9083 H   0  0  0  0  0  0  0  0  0  0  0  0
  151.5747  131.3312  156.7290 H   0  0  0  0  0  0  0  0  0  0  0  0
  151.5557  134.4629  156.2390 H   0  0  0  0  0  0  0  0  0  0  0  0
  149.1490  136.1020  154.2345 H   0  0  0  0  0  0  0  0  0  0  0  0
  1  2  1  0  0  0  0
  1 30  1  0  0  0  0
  1 31  1  0  0  0  0
  1 32  1  0  0  0  0
  2  3  1  0  0  0  0
  2 33  1  0  0  0  0
  2 34  1  0  0  0  0
  3  4  1  0  0  0  0
  3 35  1  0  0  0  0
  3 36  1  0  0  0  0
  4  5  1  0  0  0  0
  4 37  1  0  0  0  0
  4 38  1  0  0  0  0
  5  6  1  0  0  0  0
  5 39  1  0  0  0  0
  5 40  1  0  0  0  0
  6  7  1  0  0  0  0
  7  8  2  0  0  0  0
  7  9  1  0  0  0  0
  9 10  1  0  0  0  0
  9 41  1  0  0  0  0
 10 24  1  0  0  0  0
 10 11  2  0  0  0  0
 11 12  1  0  0  0  0
 12 13  2  0  0  0  0
 12 14  1  0  0  0  0
 14 15  1  0  0  0  0
 14 23  1  0  0  0  0
 15 26  1  0  0  0  0
 15 21  1  0  0  0  0
 15 16  1  0  0  0  0
 16 17  1  0  0  0  0
 17 27  1  0  0  0  0
 17 18  1  0  0  0  0
 17 19  1  0  0  0  0
 18 42  1  0  0  0  0
 18 43  1  0  0  0  0
 18 44  1  0  0  0  0
 19 28  1  0  0  0  0
 19 20  1  0  0  0  0
 19 21  1  0  0  0  0
 20 45  1  0  0  0  0
 21 29  1  0  0  0  0
 21 22  1  0  0  0  0
 22 46  1  0  0  0  0
 23 24  2  0  0  0  0
 23 47  1  0  0  0  0
 24 25  1  0  0  0  0
M  END
> <s_m_source_file>
AV-unprocessed.smi

> <i_m_source_file_index>
40

> <i_lp_mmshare_version>
43012

> <i_f3d_flags>
0

> <s_epik_input>
W0NIM11bQ0gyXVtDSDJdW0NIMl1bQ0gyXU9DKD1PKVtOSF1jMW5jKD1PKW4oW2NIXWMxRilbQ0BASF0yT1tDQEhdKFtDSDNdKVtDQEBIXShbT0hdKVtDQEhdMltPSF0=

> <s_epik_cmdline>
J2VwaWtfcHl0aG9uJywgJy1waCcsICc3LjAnLCAnLXRuJywgJzgnLCAnLW1hJywgJzIwMCcsICctbWV0YWxfYmluZGluZycsICctaW1hZScsICc8aW5maWxlLm1hZT4nLCAnLW9tYWUnLCAnPG91dGZpbGUubWFlPic=

> <r_lp_tautomer_probability>
1

> <r_epik_Ionization_Penalty>
2.29506e-06

> <r_epik_Ionization_Penalty_Charging>
8.26867e-09

> <r_epik_Ionization_Penalty_Neutral>
2.2868e-06

> <r_epik_State_Penalty>
-0

> <r_epik_Charging_Adjusted_Penalty>
8.26867e-09

> <i_epik_Tot_Q>
0

> <i_epik_Tot_abs_Q>
0

> <r_epik_Metal_State_Penalty>
-0

> <b_epik_Metal_Only>
0

> <s_epik_Chemistry_Notes>
This compound has an ester and may undergo hydrolysis at high or low pH. This compound contains an acetal/aminal-like group ( X-CH(R)-Y where X, Y are N, S, or O) that may be acid/base labile, releasing an aldehyde.

> <s_lp_Force_Field>
OPLS_2005

> <r_lp_Energy>
42.3286

> <b_lp_Chiralities_Consistent>
1

> <s_lp_Variant>
AV-unprocessed.smi:40-2

> <Gold.Version>
5.8.1

> <Gold.Id.Protein>
6NUR|6NUR_protein|mol2

> <Gold.PLP.Fitness>
40.8103

> <Gold.PLP.PLP>
-36.1450

> <Gold.PLP.part.hbond>
-1.8852

> <Gold.PLP.part.metal>
0.0000

> <Gold.PLP.part.buried>
-5.0026

> <Gold.PLP.part.nonpolar>
-29.6561

> <Gold.PLP.part.repulsive>
0.1593

> <Gold.PLP.ligand.clash>
0.0000

> <Gold.PLP.ligand.torsion>
0.8292

> <Gold.PLP.Chemscore.Hbond>
1.0000

> <Gold.PLP.Chemscore.CHOScore>
1.0000

> <Gold.PLP.Chemscore.Metal>
0.0000

> <Gold.Chemscore.Hbonds>
donor molecule, donor type, donor heavy atom, donor atom, acceptor molecule, acceptor atom, score
      P1  H  6896  6908       L1    13  0.80
      L1  C    23    47       P1  7948  1.00

> <Gold.PLP.Chemscore.Internal.Correction>
0.3237

> <Gold.Rescore>
     Score         DG    S(hbond)    S(metal)    S(lipo)     H(rot)  DE(clash)    DE(int)     intcor
      7.65      -9.74       1.00        0.00      88.73       3.70       0.06       2.03       ----

> <Gold.Chemscore.Fitness>
7.6463

> <Gold.Chemscore.DG>
-9.7395

> <Gold.Chemscore.ZeroCoef>
-5.4800

> <Gold.Chemscore.Hbond>
0.9997

> <Gold.Chemscore.Metal>
0.0000

> <Gold.Chemscore.Lipo>
88.7309

> <Gold.Chemscore.Internal_Hbond>
0.0000

> <Gold.Chemscore.DEClash>
0.0635

> <Gold.Chemscore.DEInternal>
2.0297

> <Gold.Chemscore.Rot>
3.6957

> <Gold.Chemscore.Internal.Correction>
   9.000000E+99

> <Gold.Chemscore.Hbonds>
donor molecule, donor type, donor heavy atom, donor atom, acceptor molecule, acceptor atom, score
      P1  H  6896  6908       L1    13  0.79

> <Gold.Chemscore.Hbond.Weighted>
-3.3390

> <Gold.Chemscore.Metal.Weighted>
-0.0000

> <Gold.Chemscore.Lipo.Weighted>
-10.3815

> <Gold.Chemscore.Internal_Hbond.Weighted>
0.0000

> <Gold.Chemscore.DEClash.Weighted>
0.0635

> <Gold.Chemscore.DEInternal.Weighted>
2.0297

> <Gold.Chemscore.Rot.Weighted>
9.4610

> <Gold.Chemscore.Internal.Correction.Weighted>
   9.000000E+99

> <Gold.Protein.RotatedTorsions>
[ 6907 6896 6895 6894 ] final  168.85 input  -60.11 | X-H torsion
[ 7974 7965 7964 7962 ] final  -79.35 input  175.53 | X-H torsion
[ 8008 7997 7996 7995 ] final  -51.28 input   59.86 | X-H torsion
[ 10167 10162 10161 10158 ] final -129.07 input  -65.29 | X-H torsion
[ 10718 10713 10712 10709 ] final  -23.76 input   66.30 | X-H torsion
[ 10763 10752 10751 10750 ] final  -89.67 input  -60.55 | X-H torsion
[ 11005 11000 10999 10996 ] final  150.94 input  -57.11 | X-H torsion

> <Gold.Protein.ActiveResidues>
 VAL166  LYS551  ARG553  GLY616  TRP617  ASP618  TYR619  PRO620  LYS621  CYS622 
 ASP623  PHE694  ASN695  SER759  ASP760  ASP761  ALA762  ILE779  LEU786  VAL792 
 PHE793  MET794  SER795  GLU796  ALA797  LYS798  CYS799  TRP800  GLU811  SER814 

> <Gold.Protein.RotatedAtoms>
  151.8411  133.3424  159.3643 H   0  0  0  0  0  0  0  0  0  0  0  0  # atno 6907 bound_to 6896
  150.7234  134.5390  159.5747 H   0  0  0  0  0  0  0  0  0  0  0  0  # atno 6908 bound_to 6896
  152.2864  134.7772  160.0437 H   0  0  0  0  0  0  0  0  0  0  0  0  # atno 6909 bound_to 6896
  145.5744  140.9460  143.1378 H   0  0  0  0  0  0  0  0  0  0  0  0  # atno 7974 bound_to 7965
  154.4079  140.1252  156.4803 H   0  0  0  0  0  0  0  0  0  0  0  0  # atno 8008 bound_to 7997
  155.7091  140.3494  155.4946 H   0  0  0  0  0  0  0  0  0  0  0  0  # atno 8009 bound_to 7997
  155.9316  140.1071  157.1117 H   0  0  0  0  0  0  0  0  0  0  0  0  # atno 8010 bound_to 7997
  139.9436  143.6135  152.2496 H   0  0  0  0  0  0  0  0  0  0  0  0  # atno 10167 bound_to 10162
  156.4867  130.4557  149.6779 H   0  0  0  0  0  0  0  0  0  0  0  0  # atno 10718 bound_to 10713
  154.6578  135.5332  153.7980 H   0  0  0  0  0  0  0  0  0  0  0  0  # atno 10763 bound_to 10752
  153.0423  135.6498  154.0919 H   0  0  0  0  0  0  0  0  0  0  0  0  # atno 10764 bound_to 10752
  154.0830  135.2945  155.3266 H   0  0  0  0  0  0  0  0  0  0  0  0  # atno 10765 bound_to 10752
  140.1175  134.8885  157.2025 H   0  0  0  0  0  0  0  0  0  0  0  0  # atno 11005 bound_to 11000
  144.7422  139.7416  143.7306 LP  0  0  0  0  0  0  0  0  0  0  0  0  # atno 17320 bound_to 7965
  146.1761  139.4932  142.9896 LP  0  0  0  0  0  0  0  0  0  0  0  0  # atno 17321 bound_to 7965
  139.6684  144.7661  151.1829 LP  0  0  0  0  0  0  0  0  0  0  0  0  # atno 17342 bound_to 10162
  140.7603  143.5902  150.8804 LP  0  0  0  0  0  0  0  0  0  0  0  0  # atno 17343 bound_to 10162
  156.3467  130.7410  151.2364 LP  0  0  0  0  0  0  0  0  0  0  0  0  # atno 17370 bound_to 10713
  157.7478  131.0388  150.4522 LP  0  0  0  0  0  0  0  0  0  0  0  0  # atno 17371 bound_to 10713
  140.3009  134.3133  155.7290 LP  0  0  0  0  0  0  0  0  0  0  0  0  # atno 17394 bound_to 11000
  141.2144  133.7591  156.9639 LP  0  0  0  0  0  0  0  0  0  0  0  0  # atno 17395 bound_to 11000

$$$$
