AV-unprocessed.smi:1875|AV-procd|sdf|7613|dock10
  -GOLD-   22720 9333D 1   1.00000     0.00000
 Structure written by MMmdl.
 48 50  0  0  0  0  0  0  0  0  2 V2000
  142.1139  145.7150  155.2028 C   0  0  0  0  0  0  0  0  0  0  0  0
  143.3311  145.0869  154.5559 C   0  0  0  0  0  0  0  0  0  0  0  0
  143.7751  145.6533  153.4298 N   0  0  0  0  0  0  0  0  0  0  0  0
  144.8549  145.0904  152.8449 C   0  0  0  0  0  0  0  0  0  0  0  0
  145.4868  143.9550  153.3920 C   0  0  0  0  0  0  0  0  0  0  0  0
  144.9302  143.4472  154.5845 C   0  0  0  0  0  0  0  0  0  0  0  0
  145.5057  142.2243  155.2670 C   0  0  0  0  0  0  0  0  0  0  0  0
  145.7238  141.1457  154.2859 N   0  3  0  0  0  0  0  0  0  0  0  0
  147.0008  141.2470  153.5530 C   0  0  0  0  0  0  0  0  0  0  0  0
  148.0834  140.3561  154.1900 C   0  0  1  0  0  0  0  0  0  0  0  0
  148.3740  139.2988  153.2969 O   0  0  0  0  0  0  0  0  0  0  0  0
  149.3863  141.1131  154.5302 C   0  0  0  0  0  0  0  0  0  0  0  0
  150.1561  140.5048  155.6038 N   0  0  0  0  0  0  0  0  0  0  0  0
  150.5224  139.2123  155.7085 C   0  0  0  0  0  0  0  0  0  0  0  0
  151.2259  138.8621  156.7807 N   0  0  0  0  0  0  0  0  0  0  0  0
  151.3425  140.0711  157.4446 C   0  0  0  0  0  0  0  0  0  0  0  0
  151.9847  140.3900  158.6609 C   0  0  0  0  0  0  0  0  0  0  0  0
  151.9816  141.7131  159.1570 C   0  0  0  0  0  0  0  0  0  0  0  0
  152.6849  142.0115  160.4696 C   0  0  0  0  0  0  0  0  0  0  0  0
  151.3283  142.7418  158.4320 C   0  0  0  0  0  0  0  0  0  0  0  0
  151.3138  144.1711  158.9445 C   0  0  0  0  0  0  0  0  0  0  0  0
  150.6812  142.4403  157.2153 C   0  0  0  0  0  0  0  0  0  0  0  0
  150.6888  141.1195  156.7329 C   0  0  0  0  0  0  0  0  0  0  0  0
  143.8465  144.0123  155.1624 N   0  0  0  0  0  0  0  0  0  0  0  0
  142.0337  146.7722  154.9470 H   0  0  0  0  0  0  0  0  0  0  0  0
  142.1659  145.6363  156.2894 H   0  0  0  0  0  0  0  0  0  0  0  0
  141.2079  145.2112  154.8651 H   0  0  0  0  0  0  0  0  0  0  0  0
  145.2150  145.5457  151.9342 H   0  0  0  0  0  0  0  0  0  0  0  0
  146.3486  143.5054  152.9207 H   0  0  0  0  0  0  0  0  0  0  0  0
  146.4494  142.4802  155.7503 H   0  0  0  0  0  0  0  0  0  0  0  0
  144.8231  141.8848  156.0474 H   0  0  0  0  0  0  0  0  0  0  0  0
  145.6971  140.2625  154.7749 H   0  0  0  0  0  0  0  0  0  0  0  0
  146.8416  140.9765  152.5081 H   0  0  0  0  0  0  0  0  0  0  0  0
  147.3258  142.2882  153.5692 H   0  0  0  0  0  0  0  0  0  0  0  0
  147.6952  139.9177  155.1105 H   0  0  0  0  0  0  0  0  0  0  0  0
  149.1336  139.5352  152.7857 H   0  0  0  0  0  0  0  0  0  0  0  0
  150.0220  141.1652  153.6452 H   0  0  0  0  0  0  0  0  0  0  0  0
  149.1648  142.1453  154.8048 H   0  0  0  0  0  0  0  0  0  0  0  0
  150.2504  138.4846  154.9580 H   0  0  0  0  0  0  0  0  0  0  0  0
  152.4837  139.6065  159.2121 H   0  0  0  0  0  0  0  0  0  0  0  0
  153.4588  142.7660  160.3271 H   0  0  0  0  0  0  0  0  0  0  0  0
  153.1599  141.1194  160.8789 H   0  0  0  0  0  0  0  0  0  0  0  0
  151.9729  142.3804  161.2082 H   0  0  0  0  0  0  0  0  0  0  0  0
  150.7434  144.8249  158.2844 H   0  0  0  0  0  0  0  0  0  0  0  0
  152.3291  144.5632  159.0086 H   0  0  0  0  0  0  0  0  0  0  0  0
  150.8603  144.2184  159.9349 H   0  0  0  0  0  0  0  0  0  0  0  0
  150.1811  143.2155  156.6540 H   0  0  0  0  0  0  0  0  0  0  0  0
  144.9688  141.1652  153.6151 H   0  0  0  0  0  0  0  0  0  0  0  0
  1  2  1  0  0  0  0
  1 25  1  0  0  0  0
  1 26  1  0  0  0  0
  1 27  1  0  0  0  0
  2 24  1  0  0  0  0
  2  3  2  0  0  0  0
  3  4  1  0  0  0  0
  4  5  2  0  0  0  0
  4 28  1  0  0  0  0
  5  6  1  0  0  0  0
  5 29  1  0  0  0  0
  6  7  1  0  0  0  0
  6 24  2  0  0  0  0
  7  8  1  0  0  0  0
  7 30  1  0  0  0  0
  7 31  1  0  0  0  0
  8  9  1  0  0  0  0
  8 32  1  0  0  0  0
  8 48  1  0  0  0  0
  9 10  1  0  0  0  0
  9 33  1  0  0  0  0
  9 34  1  0  0  0  0
 10 11  1  0  0  0  0
 10 12  1  0  0  0  0
 10 35  1  0  0  0  0
 11 36  1  0  0  0  0
 12 13  1  0  0  0  0
 12 37  1  0  0  0  0
 12 38  1  0  0  0  0
 13 23  1  0  0  0  0
 13 14  1  0  0  0  0
 14 15  2  0  0  0  0
 14 39  1  0  0  0  0
 15 16  1  0  0  0  0
 16 23  2  0  0  0  0
 16 17  1  0  0  0  0
 17 18  2  0  0  0  0
 17 40  1  0  0  0  0
 18 19  1  0  0  0  0
 18 20  1  0  0  0  0
 19 41  1  0  0  0  0
 19 42  1  0  0  0  0
 19 43  1  0  0  0  0
 20 21  1  0  0  0  0
 20 22  2  0  0  0  0
 21 44  1  0  0  0  0
 21 45  1  0  0  0  0
 21 46  1  0  0  0  0
 22 23  1  0  0  0  0
 22 47  1  0  0  0  0
M  CHG  1   8   1
M  END
> <s_m_source_file>
AV-unprocessed.smi

> <i_m_source_file_index>
1875

> <i_lp_mmshare_version>
43012

> <i_f3d_flags>
0

> <s_epik_input>
W0NIM11jMW5bY0hdW2NIXWMobjEpW0NIMl1bTkhdW0NIMl1bQ0BIXShbT0hdKVtDSDJdbihbY0hdbjIpYyhjMjMpW2NIXWMoW0NIM10pYyhbY0hdMylbQ0gzXQ==

> <s_epik_cmdline>
J2VwaWtfcHl0aG9uJywgJy1waCcsICc3LjAnLCAnLXRuJywgJzgnLCAnLW1hJywgJzIwMCcsICctbWV0YWxfYmluZGluZycsICctaW1hZScsICc8aW5maWxlLm1hZT4nLCAnLW9tYWUnLCAnPG91dGZpbGUubWFlPic=

> <r_lp_tautomer_probability>
1

> <r_epik_Ionization_Penalty>
0.192455

> <r_epik_Ionization_Penalty_Charging>
0.102343

> <r_epik_Ionization_Penalty_Neutral>
0.0901122

> <r_epik_State_Penalty>
0.175389

> <r_epik_Charging_Adjusted_Penalty>
0.277732

> <i_epik_Tot_Q>
1

> <i_epik_Tot_abs_Q>
1

> <r_epik_Metal_State_Penalty>
0.167659

> <b_epik_Metal_Only>
0

> <s_epik_Chemistry_Notes>
This compound contains an electron-poor aromatic ring that is susceptible to covalent hydrolysis at low pH, typically resulting in measured values for nitrogen ring protonation that are around two units higher than predicted values.

> <s_lp_Force_Field>
OPLS_2005

> <r_lp_Energy>
1.49454

> <b_lp_Chiralities_Consistent>
1

> <s_lp_Variant>
AV-unprocessed.smi:1875-2

> <Gold.Version>
5.8.1

> <Gold.Id.Protein>
6NUR|6NUR_protein|mol2

> <Gold.PLP.Fitness>
59.9917

> <Gold.PLP.PLP>
-54.4542

> <Gold.PLP.part.hbond>
-3.1840

> <Gold.PLP.part.metal>
0.0000

> <Gold.PLP.part.buried>
-4.8099

> <Gold.PLP.part.nonpolar>
-46.8092

> <Gold.PLP.part.repulsive>
0.2269

> <Gold.PLP.ligand.clash>
0.0000

> <Gold.PLP.ligand.torsion>
1.6039

> <Gold.PLP.Chemscore.Hbond>
2.8800

> <Gold.PLP.Chemscore.CHOScore>
0.0000

> <Gold.PLP.Chemscore.Metal>
0.0000

> <Gold.Chemscore.Hbonds>
donor molecule, donor type, donor heavy atom, donor atom, acceptor molecule, acceptor atom, score
      L1  H     8    48       P1 10175  2.00
      L1  H    11    36       P1  7957  0.83

> <Gold.PLP.Chemscore.Internal.Correction>
0.1053

> <Gold.Rescore>
     Score         DG    S(hbond)    S(metal)    S(lipo)     H(rot)  DE(clash)    DE(int)     intcor
     16.34     -19.19       1.85        0.00     125.70       2.80       1.58       1.27       ----

> <Gold.Chemscore.Fitness>
16.3354

> <Gold.Chemscore.DG>
-19.1866

> <Gold.Chemscore.ZeroCoef>
-5.4800

> <Gold.Chemscore.Hbond>
1.8504

> <Gold.Chemscore.Metal>
0.0000

> <Gold.Chemscore.Lipo>
125.6957

> <Gold.Chemscore.Internal_Hbond>
0.0000

> <Gold.Chemscore.DEClash>
1.5770

> <Gold.Chemscore.DEInternal>
1.2743

> <Gold.Chemscore.Rot>
2.8047

> <Gold.Chemscore.Internal.Correction>
   9.000000E+99

> <Gold.Chemscore.Hbonds>
donor molecule, donor type, donor heavy atom, donor atom, acceptor molecule, acceptor atom, score
      L1  H     8    48       P1 10175  0.50
      L1  H    11    36       P1  7957  0.81

> <Gold.Chemscore.Hbond.Weighted>
-6.1803

> <Gold.Chemscore.Metal.Weighted>
-0.0000

> <Gold.Chemscore.Lipo.Weighted>
-14.7064

> <Gold.Chemscore.Internal_Hbond.Weighted>
0.0000

> <Gold.Chemscore.DEClash.Weighted>
1.5770

> <Gold.Chemscore.DEInternal.Weighted>
1.2743

> <Gold.Chemscore.Rot.Weighted>
7.1801

> <Gold.Chemscore.Internal.Correction.Weighted>
   9.000000E+99

> <Gold.Protein.RotatedTorsions>
[ 6907 6896 6895 6894 ] final   77.80 input  -60.11 | X-H torsion
[ 7974 7965 7964 7962 ] final    3.23 input  175.53 | X-H torsion
[ 8008 7997 7996 7995 ] final   74.20 input   59.86 | X-H torsion
[ 10167 10162 10161 10158 ] final   23.33 input  -65.29 | X-H torsion
[ 10718 10713 10712 10709 ] final  127.88 input   66.30 | X-H torsion
[ 10763 10752 10751 10750 ] final  -49.94 input  -60.55 | X-H torsion
[ 11005 11000 10999 10996 ] final -168.81 input  -57.11 | X-H torsion

> <Gold.Protein.ActiveResidues>
 VAL166  LYS551  ARG553  GLY616  TRP617  ASP618  TYR619  PRO620  LYS621  CYS622 
 ASP623  PHE694  ASN695  SER759  ASP760  ASP761  ALA762  ILE779  LEU786  VAL792 
 PHE793  MET794  SER795  GLU796  ALA797  LYS798  CYS799  TRP800  GLU811  SER814 

> <Gold.Protein.RotatedAtoms>
  152.5133  134.3761  159.9334 H   0  0  0  0  0  0  0  0  0  0  0  0  # atno 6907 bound_to 6896
  151.3717  133.3846  159.2708 H   0  0  0  0  0  0  0  0  0  0  0  0  # atno 6908 bound_to 6896
  150.9573  134.8985  159.7767 H   0  0  0  0  0  0  0  0  0  0  0  0  # atno 6909 bound_to 6896
  146.2445  140.0717  142.8362 H   0  0  0  0  0  0  0  0  0  0  0  0  # atno 7974 bound_to 7965
  155.7948  140.3478  155.5369 H   0  0  0  0  0  0  0  0  0  0  0  0  # atno 8008 bound_to 7997
  155.8597  140.0969  157.1642 H   0  0  0  0  0  0  0  0  0  0  0  0  # atno 8009 bound_to 7997
  154.4011  140.1361  156.3933 H   0  0  0  0  0  0  0  0  0  0  0  0  # atno 8010 bound_to 7997
  140.5277  143.9894  150.6449 H   0  0  0  0  0  0  0  0  0  0  0  0  # atno 10167 bound_to 10162
  157.5294  131.1098  150.9032 H   0  0  0  0  0  0  0  0  0  0  0  0  # atno 10718 bound_to 10713
  154.1022  135.6561  153.4870 H   0  0  0  0  0  0  0  0  0  0  0  0  # atno 10763 bound_to 10752
  153.0285  135.5228  154.7275 H   0  0  0  0  0  0  0  0  0  0  0  0  # atno 10764 bound_to 10752
  154.6430  135.2991  155.0049 H   0  0  0  0  0  0  0  0  0  0  0  0  # atno 10765 bound_to 10752
  140.5378  134.5553  157.5092 H   0  0  0  0  0  0  0  0  0  0  0  0  # atno 11005 bound_to 11000
  145.0810  140.9221  143.4825 LP  0  0  0  0  0  0  0  0  0  0  0  0  # atno 17320 bound_to 7965
  145.0870  139.2918  143.5754 LP  0  0  0  0  0  0  0  0  0  0  0  0  # atno 17321 bound_to 7965
  140.3261  143.3107  152.0735 LP  0  0  0  0  0  0  0  0  0  0  0  0  # atno 17342 bound_to 10162
  139.4944  144.6541  151.6611 LP  0  0  0  0  0  0  0  0  0  0  0  0  # atno 17343 bound_to 10162
  156.9618  130.5458  149.5286 LP  0  0  0  0  0  0  0  0  0  0  0  0  # atno 17370 bound_to 10713
  156.0411  130.5493  150.8773 LP  0  0  0  0  0  0  0  0  0  0  0  0  # atno 17371 bound_to 10713
  139.9520  134.7600  156.0427 LP  0  0  0  0  0  0  0  0  0  0  0  0  # atno 17394 bound_to 11000
  141.1245  133.6603  156.3300 LP  0  0  0  0  0  0  0  0  0  0  0  0  # atno 17395 bound_to 11000

$$$$
