AV-unprocessed.smi:1010|AV-procd|sdf|4416|dock1
  -GOLD-   22720 2363D 1   1.00000     0.00000
 Structure written by MMmdl.
 56 58  0  0  0  0  0  0  0  0  3 V2000
  146.7500  135.5869  154.4416 C   0  0  0  0  0  0  0  0  0  0  0  0
  147.6562  134.5607  153.8656 N   0  3  0  0  0  0  0  0  0  0  0  0
  146.8674  133.5411  153.1251 C   0  0  0  0  0  0  0  0  0  0  0  0
  148.7253  134.0079  154.7800 C   0  0  0  0  0  0  0  0  0  0  0  0
  149.9212  135.0148  154.8005 C   0  0  0  0  0  0  0  0  0  0  0  0
  149.5438  136.3657  155.2173 N   0  0  0  0  0  0  0  0  0  0  0  0
  150.3851  137.3401  155.5911 C   0  0  0  0  0  0  0  0  0  0  0  0
  151.6089  137.2164  155.5962 O   0  0  0  0  0  0  0  0  0  0  0  0
  149.7164  138.4448  155.9605 N   0  0  0  0  0  0  0  0  0  0  0  0
  150.2454  139.6799  156.4334 C   0  0  0  0  0  0  0  0  0  0  0  0
  151.4371  139.7612  157.1988 C   0  0  0  0  0  0  0  0  0  0  0  0
  151.9161  141.0194  157.6142 C   0  0  0  0  0  0  0  0  0  0  0  0
  151.2046  142.1775  157.2510 C   0  0  0  0  0  0  0  0  0  0  0  0
  150.0821  142.0679  156.5102 N   0  3  0  0  0  0  0  0  0  0  0  0
  149.5781  140.8827  156.0868 C   0  0  0  0  0  0  0  0  0  0  0  0
  148.4010  140.8788  155.3183 N   0  0  0  0  0  0  0  0  0  0  0  0
  147.2172  141.3972  155.9838 C   0  0  0  0  0  0  0  0  0  0  0  0
  146.2011  141.6519  154.8676 C   0  0  0  0  0  0  0  0  0  0  0  0
  147.0406  141.7749  153.5898 C   0  0  0  0  0  0  0  0  0  0  0  0
  148.4881  141.5815  154.0492 C   0  0  0  0  0  0  0  0  0  0  0  0
  148.1968  133.8018  156.2345 C   0  0  0  0  0  0  0  0  0  0  0  0
  149.2012  133.0703  157.1422 C   0  0  0  0  0  0  0  0  0  0  0  0
  149.5139  131.8066  156.5723 O   0  0  0  0  0  0  0  0  0  0  0  0
  150.1402  131.9096  155.3006 C   0  0  0  0  0  0  0  0  0  0  0  0
  149.2088  132.6134  154.2933 C   0  0  0  0  0  0  0  0  0  0  0  0
  146.2375  135.2129  155.3285 H   0  0  0  0  0  0  0  0  0  0  0  0
  145.9890  135.8795  153.7173 H   0  0  0  0  0  0  0  0  0  0  0  0
  147.2873  136.4997  154.6985 H   0  0  0  0  0  0  0  0  0  0  0  0
  146.1570  133.0342  153.7794 H   0  0  0  0  0  0  0  0  0  0  0  0
  147.4938  132.7864  152.6535 H   0  0  0  0  0  0  0  0  0  0  0  0
  146.2960  134.0165  152.3272 H   0  0  0  0  0  0  0  0  0  0  0  0
  150.6963  134.6927  155.4926 H   0  0  0  0  0  0  0  0  0  0  0  0
  150.4291  135.0496  153.8370 H   0  0  0  0  0  0  0  0  0  0  0  0
  148.5534  136.5618  155.2515 H   0  0  0  0  0  0  0  0  0  0  0  0
  148.7102  138.3658  155.9912 H   0  0  0  0  0  0  0  0  0  0  0  0
  152.0027  138.8813  157.4641 H   0  0  0  0  0  0  0  0  0  0  0  0
  152.8215  141.0946  158.1990 H   0  0  0  0  0  0  0  0  0  0  0  0
  151.5000  143.1807  157.5227 H   0  0  0  0  0  0  0  0  0  0  0  0
  146.8366  140.6871  156.7187 H   0  0  0  0  0  0  0  0  0  0  0  0
  147.4446  142.3298  156.5022 H   0  0  0  0  0  0  0  0  0  0  0  0
  145.5136  140.8096  154.7802 H   0  0  0  0  0  0  0  0  0  0  0  0
  145.6074  142.5456  155.0624 H   0  0  0  0  0  0  0  0  0  0  0  0
  146.7583  140.9926  152.8842 H   0  0  0  0  0  0  0  0  0  0  0  0
  146.9025  142.7356  153.0929 H   0  0  0  0  0  0  0  0  0  0  0  0
  148.9730  142.5498  154.1808 H   0  0  0  0  0  0  0  0  0  0  0  0
  149.0668  141.0110  153.3221 H   0  0  0  0  0  0  0  0  0  0  0  0
  147.9032  134.7491  156.6874 H   0  0  0  0  0  0  0  0  0  0  0  0
  147.3056  133.1748  156.2390 H   0  0  0  0  0  0  0  0  0  0  0  0
  150.1069  133.6523  157.3116 H   0  0  0  0  0  0  0  0  0  0  0  0
  148.7565  132.9027  158.1232 H   0  0  0  0  0  0  0  0  0  0  0  0
  151.0957  132.4263  155.3940 H   0  0  0  0  0  0  0  0  0  0  0  0
  150.3698  130.9040  154.9478 H   0  0  0  0  0  0  0  0  0  0  0  0
  148.3479  131.9666  154.1197 H   0  0  0  0  0  0  0  0  0  0  0  0
  149.7302  132.6911  153.3390 H   0  0  0  0  0  0  0  0  0  0  0  0
  148.1718  135.0555  153.1517 H   0  0  0  0  0  0  0  0  0  0  0  0
  149.5875  142.9231  156.2556 H   0  0  0  0  0  0  0  0  0  0  0  0
  1  2  1  0  0  0  0
  1 26  1  0  0  0  0
  1 27  1  0  0  0  0
  1 28  1  0  0  0  0
  2  3  1  0  0  0  0
  2  4  1  0  0  0  0
  2 55  1  0  0  0  0
  3 29  1  0  0  0  0
  3 30  1  0  0  0  0
  3 31  1  0  0  0  0
  4 25  1  0  0  0  0
  4  5  1  0  0  0  0
  4 21  1  0  0  0  0
  5  6  1  0  0  0  0
  5 32  1  0  0  0  0
  5 33  1  0  0  0  0
  6  7  1  0  0  0  0
  6 34  1  0  0  0  0
  7  8  2  0  0  0  0
  7  9  1  0  0  0  0
  9 10  1  0  0  0  0
  9 35  1  0  0  0  0
 10 15  1  0  0  0  0
 10 11  2  0  0  0  0
 11 12  1  0  0  0  0
 11 36  1  0  0  0  0
 12 13  2  0  0  0  0
 12 37  1  0  0  0  0
 13 14  1  0  0  0  0
 13 38  1  0  0  0  0
 14 15  2  0  0  0  0
 14 56  1  0  0  0  0
 15 16  1  0  0  0  0
 16 20  1  0  0  0  0
 16 17  1  0  0  0  0
 17 18  1  0  0  0  0
 17 39  1  0  0  0  0
 17 40  1  0  0  0  0
 18 19  1  0  0  0  0
 18 41  1  0  0  0  0
 18 42  1  0  0  0  0
 19 20  1  0  0  0  0
 19 43  1  0  0  0  0
 19 44  1  0  0  0  0
 20 45  1  0  0  0  0
 20 46  1  0  0  0  0
 21 22  1  0  0  0  0
 21 47  1  0  0  0  0
 21 48  1  0  0  0  0
 22 23  1  0  0  0  0
 22 49  1  0  0  0  0
 22 50  1  0  0  0  0
 23 24  1  0  0  0  0
 24 25  1  0  0  0  0
 24 51  1  0  0  0  0
 24 52  1  0  0  0  0
 25 53  1  0  0  0  0
 25 54  1  0  0  0  0
M  CHG  1   2   1
M  CHG  1  14   1
M  END
> <s_m_source_file>
AV-unprocessed.smi

> <i_m_source_file_index>
1010

> <i_lp_mmshare_version>
43012

> <i_f3d_flags>
0

> <s_epik_input>
W0NIMl0xW0NIMl1PW0NIMl1bQ0gyXUMxKE4oW0NIM10pW0NIM10pW0NIMl1bTkhdQyg9TylbTkhdYzJbY0hdW2NIXVtjSF1uYzJOM1tDSDJdW0NIMl1bQ0gyXVtDSDJdMw==

> <s_epik_cmdline>
J2VwaWtfcHl0aG9uJywgJy1waCcsICc3LjAnLCAnLXRuJywgJzgnLCAnLW1hJywgJzIwMCcsICctbWV0YWxfYmluZGluZycsICctaW1hZScsICc8aW5maWxlLm1hZT4nLCAnLW9tYWUnLCAnPG91dGZpbGUubWFlPic=

> <r_lp_tautomer_probability>
0.999994

> <r_epik_Ionization_Penalty>
1.20932

> <r_epik_Ionization_Penalty_Charging>
1.2093

> <r_epik_Ionization_Penalty_Neutral>
2.0507e-05

> <r_epik_State_Penalty>
1.27047

> <r_epik_Charging_Adjusted_Penalty>
2.47977

> <i_epik_Tot_Q>
2

> <i_epik_Tot_abs_Q>
2

> <r_epik_Metal_State_Penalty>
1.34666

> <b_epik_Metal_Only>
0

> <s_lp_Force_Field>
OPLS_2005

> <r_lp_Energy>
72.2457

> <b_lp_Chiralities_Consistent>
1

> <s_lp_Variant>
AV-unprocessed.smi:1010-2

> <Gold.Version>
5.8.1

> <Gold.Id.Protein>
6NUR|6NUR_protein|mol2

> <Gold.PLP.Fitness>
42.8769

> <Gold.PLP.PLP>
-31.8730

> <Gold.PLP.part.hbond>
-2.4976

> <Gold.PLP.part.metal>
0.0000

> <Gold.PLP.part.buried>
-4.8039

> <Gold.PLP.part.nonpolar>
-24.3465

> <Gold.PLP.part.repulsive>
0.2247

> <Gold.PLP.ligand.clash>
0.0000

> <Gold.PLP.ligand.torsion>
1.3173

> <Gold.PLP.Chemscore.Hbond>
4.4225

> <Gold.PLP.Chemscore.CHOScore>
0.0000

> <Gold.PLP.Chemscore.Metal>
0.0000

> <Gold.Chemscore.Hbonds>
donor molecule, donor type, donor heavy atom, donor atom, acceptor molecule, acceptor atom, score
      L1  H     2    55       P1  7948  2.00
      L1  H    14    56       P1  8028  2.00
      P1  H 10752 10764       L1     8  0.31

> <Gold.PLP.Chemscore.Internal.Correction>
0.3709

> <Gold.Rescore>
     Score         DG    S(hbond)    S(metal)    S(lipo)     H(rot)  DE(clash)    DE(int)     intcor
     15.93     -18.63       2.34        0.00      81.35       1.63       0.04       2.67       ----

> <Gold.Chemscore.Fitness>
15.9258

> <Gold.Chemscore.DG>
-18.6339

> <Gold.Chemscore.ZeroCoef>
-5.4800

> <Gold.Chemscore.Hbond>
2.3405

> <Gold.Chemscore.Metal>
0.0000

> <Gold.Chemscore.Lipo>
81.3469

> <Gold.Chemscore.Internal_Hbond>
0.0000

> <Gold.Chemscore.DEClash>
0.0416

> <Gold.Chemscore.DEInternal>
2.6664

> <Gold.Chemscore.Rot>
1.6332

> <Gold.Chemscore.Internal.Correction>
   9.000000E+99

> <Gold.Chemscore.Hbonds>
donor molecule, donor type, donor heavy atom, donor atom, acceptor molecule, acceptor atom, score
      L1  H     2    55       P1  7948  0.96
      L1  H    14    56       P1  8028  0.94
      P1  H 10752 10764       L1     8  0.30

> <Gold.Chemscore.Hbond.Weighted>
-7.8173

> <Gold.Chemscore.Metal.Weighted>
-0.0000

> <Gold.Chemscore.Lipo.Weighted>
-9.5176

> <Gold.Chemscore.Internal_Hbond.Weighted>
0.0000

> <Gold.Chemscore.DEClash.Weighted>
0.0416

> <Gold.Chemscore.DEInternal.Weighted>
2.6664

> <Gold.Chemscore.Rot.Weighted>
4.1810

> <Gold.Chemscore.Internal.Correction.Weighted>
   9.000000E+99

> <Gold.Protein.RotatedTorsions>
[ 6907 6896 6895 6894 ] final  -38.48 input  -60.11 | X-H torsion
[ 7974 7965 7964 7962 ] final -120.55 input  175.53 | X-H torsion
[ 8008 7997 7996 7995 ] final  -63.62 input   59.86 | X-H torsion
[ 10167 10162 10161 10158 ] final  -52.43 input  -65.29 | X-H torsion
[ 10718 10713 10712 10709 ] final  -58.78 input   66.30 | X-H torsion
[ 10763 10752 10751 10750 ] final  -54.57 input  -60.55 | X-H torsion
[ 11005 11000 10999 10996 ] final -138.67 input  -57.11 | X-H torsion

> <Gold.Protein.ActiveResidues>
 VAL166  LYS551  ARG553  GLY616  TRP617  ASP618  TYR619  PRO620  LYS621  CYS622 
 ASP623  PHE694  ASN695  SER759  ASP760  ASP761  ALA762  ILE779  LEU786  VAL792 
 PHE793  MET794  SER795  GLU796  ALA797  LYS798  CYS799  TRP800  GLU811  SER814 

> <Gold.Protein.RotatedAtoms>
  151.0020  134.9329  159.7958 H   0  0  0  0  0  0  0  0  0  0  0  0  # atno 6907 bound_to 6896
  152.5280  134.3142  159.9134 H   0  0  0  0  0  0  0  0  0  0  0  0  # atno 6908 bound_to 6896
  151.3148  133.4023  159.2684 H   0  0  0  0  0  0  0  0  0  0  0  0  # atno 6909 bound_to 6896
  145.0501  140.8212  143.4214 H   0  0  0  0  0  0  0  0  0  0  0  0  # atno 7974 bound_to 7965
  154.4565  140.0971  156.6771 H   0  0  0  0  0  0  0  0  0  0  0  0  # atno 8008 bound_to 7997
  155.5124  140.3476  155.4372 H   0  0  0  0  0  0  0  0  0  0  0  0  # atno 8009 bound_to 7997
  156.0787  140.1367  156.9728 H   0  0  0  0  0  0  0  0  0  0  0  0  # atno 8010 bound_to 7997
  140.6538  143.2584  151.4646 H   0  0  0  0  0  0  0  0  0  0  0  0  # atno 10167 bound_to 10162
  156.1110  130.4175  150.0624 H   0  0  0  0  0  0  0  0  0  0  0  0  # atno 10718 bound_to 10713
  154.1770  135.6449  153.5024 H   0  0  0  0  0  0  0  0  0  0  0  0  # atno 10763 bound_to 10752
  153.0069  135.5397  154.6553 H   0  0  0  0  0  0  0  0  0  0  0  0  # atno 10764 bound_to 10752
  154.5908  135.2934  155.0610 H   0  0  0  0  0  0  0  0  0  0  0  0  # atno 10765 bound_to 10752
  140.8593  134.2188  157.4716 H   0  0  0  0  0  0  0  0  0  0  0  0  # atno 11005 bound_to 11000
  145.1538  139.2499  143.5427 LP  0  0  0  0  0  0  0  0  0  0  0  0  # atno 17320 bound_to 7965
  146.3517  140.1247  142.8599 LP  0  0  0  0  0  0  0  0  0  0  0  0  # atno 17321 bound_to 7965
  139.5757  144.1825  152.1899 LP  0  0  0  0  0  0  0  0  0  0  0  0  # atno 17342 bound_to 10162
  140.1135  144.5436  150.6909 LP  0  0  0  0  0  0  0  0  0  0  0  0  # atno 17343 bound_to 10162
  156.8588  130.9484  151.3619 LP  0  0  0  0  0  0  0  0  0  0  0  0  # atno 17370 bound_to 10713
  157.6291  130.8715  149.9241 LP  0  0  0  0  0  0  0  0  0  0  0  0  # atno 17371 bound_to 10713
  139.8706  134.9722  156.4763 LP  0  0  0  0  0  0  0  0  0  0  0  0  # atno 17394 bound_to 11000
  140.8701  133.7995  155.9355 LP  0  0  0  0  0  0  0  0  0  0  0  0  # atno 17395 bound_to 11000

$$$$
