AV-unprocessed.smi:2008|AV-procd|sdf|8143|dock10
  -GOLD-   2272010383D 1   1.00000     0.00000
 Structure written by MMmdl.
 46 47  0  0  0  0  0  0  0  0  2 V2000
  152.2181  141.4159  159.3422 C   0  0  0  0  0  0  0  0  0  0  0  0
  152.6919  140.4318  158.4290 O   0  0  0  0  0  0  0  0  0  0  0  0
  151.9166  140.1336  157.3273 C   0  0  0  0  0  0  0  0  0  0  0  0
  150.5735  140.5572  157.3120 C   0  0  0  0  0  0  0  0  0  0  0  0
  149.7799  140.2533  156.1900 C   0  0  0  0  0  0  0  0  0  0  0  0
  150.3456  139.5365  155.1155 C   0  0  0  0  0  0  0  0  0  0  0  0
  149.5036  139.2492  154.0045 N   0  0  0  0  0  0  0  0  0  0  0  0
  148.2096  138.8839  153.9814 C   0  0  0  0  0  0  0  0  0  0  0  0
  147.4971  138.6930  154.9659 O   0  0  0  0  0  0  0  0  0  0  0  0
  147.7699  138.7415  152.7228 N   0  0  0  0  0  0  0  0  0  0  0  0
  146.4075  138.3753  152.3526 C   0  0  0  0  0  0  0  0  0  0  0  0
  145.9224  137.1348  153.1293 C   0  0  0  0  0  0  0  0  0  0  0  0
  146.1296  135.8574  152.3940 N   0  3  2  0  0  0  0  0  0  0  0  0
  145.1468  135.6861  151.2895 C   0  0  0  0  0  0  0  0  0  0  0  0
  145.5028  134.4836  150.4010 C   0  0  0  0  0  0  0  0  0  0  0  0
  145.6173  133.2007  151.2311 C   0  0  0  0  0  0  0  0  0  0  0  0
  146.6219  133.4077  152.3728 C   0  0  0  0  0  0  0  0  0  0  0  0
  146.2729  134.6333  153.2447 C   0  0  2  0  0  0  0  0  0  0  0  0
  145.0589  134.3702  154.1614 C   0  0  0  0  0  0  0  0  0  0  0  0
  151.7062  139.1550  155.2279 C   0  0  0  0  0  0  0  0  0  0  0  0
  152.4724  139.4440  156.3012 N   0  0  0  0  0  0  0  0  0  0  0  0
  152.9406  141.5367  160.1491 H   0  0  0  0  0  0  0  0  0  0  0  0
  151.2682  141.1207  159.7905 H   0  0  0  0  0  0  0  0  0  0  0  0
  152.0990  142.3858  158.8572 H   0  0  0  0  0  0  0  0  0  0  0  0
  150.1592  141.1041  158.1462 H   0  0  0  0  0  0  0  0  0  0  0  0
  148.7469  140.5682  156.1592 H   0  0  0  0  0  0  0  0  0  0  0  0
  149.9447  139.3490  153.1021 H   0  0  0  0  0  0  0  0  0  0  0  0
  148.4184  138.9162  151.9686 H   0  0  0  0  0  0  0  0  0  0  0  0
  145.7355  139.2198  152.5163 H   0  0  0  0  0  0  0  0  0  0  0  0
  146.4150  138.1828  151.2804 H   0  0  0  0  0  0  0  0  0  0  0  0
  146.3919  137.0881  154.1122 H   0  0  0  0  0  0  0  0  0  0  0  0
  144.8532  137.2436  153.3153 H   0  0  0  0  0  0  0  0  0  0  0  0
  144.1414  135.5740  151.6964 H   0  0  0  0  0  0  0  0  0  0  0  0
  145.1308  136.5844  150.6710 H   0  0  0  0  0  0  0  0  0  0  0  0
  144.7486  134.3583  149.6233 H   0  0  0  0  0  0  0  0  0  0  0  0
  146.4466  134.6740  149.8883 H   0  0  0  0  0  0  0  0  0  0  0  0
  144.6409  132.9278  151.6325 H   0  0  0  0  0  0  0  0  0  0  0  0
  145.9344  132.3711  150.5980 H   0  0  0  0  0  0  0  0  0  0  0  0
  146.6802  132.5086  152.9875 H   0  0  0  0  0  0  0  0  0  0  0  0
  147.6170  133.5447  151.9469 H   0  0  0  0  0  0  0  0  0  0  0  0
  147.1337  134.7808  153.8957 H   0  0  0  0  0  0  0  0  0  0  0  0
  145.2068  133.4587  154.7414 H   0  0  0  0  0  0  0  0  0  0  0  0
  144.1328  134.2492  153.6000 H   0  0  0  0  0  0  0  0  0  0  0  0
  144.9109  135.1756  154.8800 H   0  0  0  0  0  0  0  0  0  0  0  0
  152.2218  138.6039  154.4590 H   0  0  0  0  0  0  0  0  0  0  0  0
  147.0216  135.9636  151.9319 H   0  0  0  0  0  0  0  0  0  0  0  0
  1  2  1  0  0  0  0
  1 22  1  0  0  0  0
  1 23  1  0  0  0  0
  1 24  1  0  0  0  0
  2  3  1  0  0  0  0
  3 21  1  0  0  0  0
  3  4  2  0  0  0  0
  4  5  1  0  0  0  0
  4 25  1  0  0  0  0
  5  6  2  0  0  0  0
  5 26  1  0  0  0  0
  6  7  1  0  0  0  0
  6 20  1  0  0  0  0
  7  8  1  0  0  0  0
  7 27  1  0  0  0  0
  8  9  2  0  0  0  0
  8 10  1  0  0  0  0
 10 11  1  0  0  0  0
 10 28  1  0  0  0  0
 11 12  1  0  0  0  0
 11 29  1  0  0  0  0
 11 30  1  0  0  0  0
 12 13  1  0  0  0  0
 12 31  1  0  0  0  0
 12 32  1  0  0  0  0
 13 18  1  0  0  0  0
 13 14  1  0  0  0  0
 13 46  1  0  0  0  0
 14 15  1  0  0  0  0
 14 33  1  0  0  0  0
 14 34  1  0  0  0  0
 15 16  1  0  0  0  0
 15 35  1  0  0  0  0
 15 36  1  0  0  0  0
 16 17  1  0  0  0  0
 16 37  1  0  0  0  0
 16 38  1  0  0  0  0
 17 18  1  0  0  0  0
 17 39  1  0  0  0  0
 17 40  1  0  0  0  0
 18 19  1  0  0  0  0
 18 41  1  0  0  0  0
 19 42  1  0  0  0  0
 19 43  1  0  0  0  0
 19 44  1  0  0  0  0
 20 21  2  0  0  0  0
 20 45  1  0  0  0  0
M  CHG  1  13   1
M  END
> <s_m_source_file>
AV-unprocessed.smi

> <i_m_source_file_index>
2008

> <i_lp_mmshare_version>
43012

> <i_f3d_flags>
0

> <s_epik_input>
W0NIM11PYzFbY0hdW2NIXWMoW2NIXW4xKVtOSF1DKD1PKVtOSF1bQ0gyXVtDSDJdTjJbQ0gyXVtDSDJdW0NIMl1bQ0gyXVtDQEhdMltDSDNd

> <s_epik_cmdline>
J2VwaWtfcHl0aG9uJywgJy1waCcsICc3LjAnLCAnLXRuJywgJzgnLCAnLW1hJywgJzIwMCcsICctbWV0YWxfYmluZGluZycsICctaW1hZScsICc8aW5maWxlLm1hZT4nLCAnLW9tYWUnLCAnPG91dGZpbGUubWFlPic=

> <r_lp_tautomer_probability>
1

> <r_epik_Ionization_Penalty>
0.00219526

> <r_epik_Ionization_Penalty_Charging>
0.00211816

> <r_epik_Ionization_Penalty_Neutral>
7.71003e-05

> <r_epik_State_Penalty>
0.00145254

> <r_epik_Charging_Adjusted_Penalty>
0.0035707

> <i_epik_Tot_Q>
1

> <i_epik_Tot_abs_Q>
1

> <r_epik_Metal_State_Penalty>
-0

> <b_epik_Metal_Only>
0

> <s_lp_Force_Field>
OPLS_2005

> <r_lp_Energy>
23.262

> <b_lp_Chiralities_Consistent>
1

> <s_lp_Variant>
AV-unprocessed.smi:2008-3

> <Gold.Version>
5.8.1

> <Gold.Id.Protein>
6NUR|6NUR_protein|mol2

> <Gold.PLP.Fitness>
46.1250

> <Gold.PLP.PLP>
-33.3815

> <Gold.PLP.part.hbond>
-5.4334

> <Gold.PLP.part.metal>
0.0000

> <Gold.PLP.part.buried>
-0.3589

> <Gold.PLP.part.nonpolar>
-26.5683

> <Gold.PLP.part.repulsive>
0.2654

> <Gold.PLP.ligand.clash>
0.0000

> <Gold.PLP.ligand.torsion>
0.9767

> <Gold.PLP.Chemscore.Hbond>
4.8800

> <Gold.PLP.Chemscore.CHOScore>
0.0000

> <Gold.PLP.Chemscore.Metal>
0.0000

> <Gold.Chemscore.Hbonds>
donor molecule, donor type, donor heavy atom, donor atom, acceptor molecule, acceptor atom, score
      L1  H     7    27       P1  7957  0.76
      L1  H    10    28       P1  7957  1.00
      L1  H    13    46       P1  7948  2.00
      P1  H  7997  8009       L1    21  0.85

> <Gold.PLP.Chemscore.Internal.Correction>
0.0568

> <Gold.Rescore>
     Score         DG    S(hbond)    S(metal)    S(lipo)     H(rot)  DE(clash)    DE(int)     intcor
     17.64     -21.22       3.60        0.00      69.09       1.71       0.43       3.14       ----

> <Gold.Chemscore.Fitness>
17.6425

> <Gold.Chemscore.DG>
-21.2157

> <Gold.Chemscore.ZeroCoef>
-5.4800

> <Gold.Chemscore.Hbond>
3.6022

> <Gold.Chemscore.Metal>
0.0000

> <Gold.Chemscore.Lipo>
69.0920

> <Gold.Chemscore.Internal_Hbond>
0.0000

> <Gold.Chemscore.DEClash>
0.4315

> <Gold.Chemscore.DEInternal>
3.1416

> <Gold.Chemscore.Rot>
1.7107

> <Gold.Chemscore.Internal.Correction>
   9.000000E+99

> <Gold.Chemscore.Hbonds>
donor molecule, donor type, donor heavy atom, donor atom, acceptor molecule, acceptor atom, score
      L1  H     7    27       P1  7957  0.72
      L1  H    10    28       P1  7957  0.89
      L1  H    13    46       P1  7948  0.98
      P1  H  7997  8009       L1    21  0.14

> <Gold.Chemscore.Hbond.Weighted>
-12.0314

> <Gold.Chemscore.Metal.Weighted>
-0.0000

> <Gold.Chemscore.Lipo.Weighted>
-8.0838

> <Gold.Chemscore.Internal_Hbond.Weighted>
0.0000

> <Gold.Chemscore.DEClash.Weighted>
0.4315

> <Gold.Chemscore.DEInternal.Weighted>
3.1416

> <Gold.Chemscore.Rot.Weighted>
4.3794

> <Gold.Chemscore.Internal.Correction.Weighted>
   9.000000E+99

> <Gold.Protein.RotatedTorsions>
[ 6907 6896 6895 6894 ] final   26.94 input  -60.11 | X-H torsion
[ 7974 7965 7964 7962 ] final -122.39 input  175.53 | X-H torsion
[ 8008 7997 7996 7995 ] final -175.81 input   59.86 | X-H torsion
[ 10167 10162 10161 10158 ] final  105.28 input  -65.29 | X-H torsion
[ 10718 10713 10712 10709 ] final   23.85 input   66.30 | X-H torsion
[ 10763 10752 10751 10750 ] final  167.14 input  -60.55 | X-H torsion
[ 11005 11000 10999 10996 ] final   38.19 input  -57.11 | X-H torsion

> <Gold.Protein.ActiveResidues>
 VAL166  LYS551  ARG553  GLY616  TRP617  ASP618  TYR619  PRO620  LYS621  CYS622 
 ASP623  PHE694  ASN695  SER759  ASP760  ASP761  ALA762  ILE779  LEU786  VAL792 
 PHE793  MET794  SER795  GLU796  ALA797  LYS798  CYS799  TRP800  GLU811  SER814 

> <Gold.Protein.RotatedAtoms>
  151.9949  134.9959  160.0562 H   0  0  0  0  0  0  0  0  0  0  0  0  # atno 6907 bound_to 6896
  152.1574  133.4555  159.4852 H   0  0  0  0  0  0  0  0  0  0  0  0  # atno 6908 bound_to 6896
  150.6883  134.2032  159.4373 H   0  0  0  0  0  0  0  0  0  0  0  0  # atno 6909 bound_to 6896
  145.0299  140.8059  143.4330 H   0  0  0  0  0  0  0  0  0  0  0  0  # atno 7974 bound_to 7965
  155.9871  140.1193  157.0673 H   0  0  0  0  0  0  0  0  0  0  0  0  # atno 8008 bound_to 7997
  154.4200  140.1133  156.5583 H   0  0  0  0  0  0  0  0  0  0  0  0  # atno 8009 bound_to 7997
  155.6393  140.3473  155.4711 H   0  0  0  0  0  0  0  0  0  0  0  0  # atno 8010 bound_to 7997
  139.7105  144.7078  151.1034 H   0  0  0  0  0  0  0  0  0  0  0  0  # atno 10167 bound_to 10162
  157.1717  130.6762  149.6080 H   0  0  0  0  0  0  0  0  0  0  0  0  # atno 10718 bound_to 10713
  154.3494  135.2753  155.2380 H   0  0  0  0  0  0  0  0  0  0  0  0  # atno 10763 bound_to 10752
  154.4616  135.5905  153.6263 H   0  0  0  0  0  0  0  0  0  0  0  0  # atno 10764 bound_to 10752
  152.9851  135.6066  154.3703 H   0  0  0  0  0  0  0  0  0  0  0  0  # atno 10765 bound_to 10752
  140.2151  134.3708  155.8030 H   0  0  0  0  0  0  0  0  0  0  0  0  # atno 11005 bound_to 11000
  145.1784  139.2365  143.5305 LP  0  0  0  0  0  0  0  0  0  0  0  0  # atno 17320 bound_to 7965
  146.3497  140.1552  142.8591 LP  0  0  0  0  0  0  0  0  0  0  0  0  # atno 17321 bound_to 7965
  140.7732  143.5299  150.9436 LP  0  0  0  0  0  0  0  0  0  0  0  0  # atno 17342 bound_to 10162
  139.8983  143.6867  152.3135 LP  0  0  0  0  0  0  0  0  0  0  0  0  # atno 17343 bound_to 10162
  155.9737  130.4677  150.6333 LP  0  0  0  0  0  0  0  0  0  0  0  0  # atno 17370 bound_to 10713
  157.4037  131.0813  151.1285 LP  0  0  0  0  0  0  0  0  0  0  0  0  # atno 17371 bound_to 10713
  141.2225  133.7163  156.8483 LP  0  0  0  0  0  0  0  0  0  0  0  0  # atno 17394 bound_to 11000
  140.1909  134.8966  157.3059 LP  0  0  0  0  0  0  0  0  0  0  0  0  # atno 17395 bound_to 11000

$$$$
