AV-unprocessed.smi:3252|AV-procd|sdf|12441|dock2
  -GOLD-   2272018333D 1   1.00000     0.00000
 Structure written by MMmdl.
 37 38  0  0  0  0  0  0  0  0  2 V2000
  146.5594  129.9373  152.7132 C   0  0  0  0  0  0  0  0  0  0  0  0
  145.8410  130.3550  151.4226 C   0  0  0  0  0  0  0  0  0  0  0  0
  146.2114  131.7275  150.9866 N   0  3  1  0  0  0  0  0  0  0  0  0
  145.6692  132.0921  149.6554 C   0  0  0  0  0  0  0  0  0  0  0  0
  144.1816  132.4724  149.7483 C   0  0  0  0  0  0  0  0  0  0  0  0
  144.0291  133.5340  150.6807 O   0  0  0  0  0  0  0  0  0  0  0  0
  144.4212  133.1691  152.0005 C   0  0  2  0  0  0  0  0  0  0  0  0
  144.1546  134.3534  152.9466 C   0  0  0  0  0  0  0  0  0  0  0  0
  142.8350  134.2901  153.5652 N   0  0  0  0  0  0  0  0  0  0  0  0
  141.9791  135.4009  153.5971 C   0  0  0  0  0  0  0  0  0  0  0  0
  142.4942  136.6580  153.2164 C   0  0  0  0  0  0  0  0  0  0  0  0
  141.6423  137.7797  153.2449 C   0  0  0  0  0  0  0  0  0  0  0  0
  140.3052  137.6051  153.6528 C   0  0  0  0  0  0  0  0  0  0  0  0
  139.3876  138.7303  153.7011 C   0  0  0  0  0  0  0  0  0  0  0  0
  138.6567  139.6263  153.7397 N   0  0  0  0  0  0  0  0  0  0  0  0
  139.8800  136.3105  154.0125 C   0  0  0  0  0  0  0  0  0  0  0  0
  140.6925  135.2321  153.9854 N   0  0  0  0  0  0  0  0  0  0  0  0
  145.9211  132.7978  151.9761 C   0  0  0  0  0  0  0  0  0  0  0  0
  146.3442  128.8952  152.9506 H   0  0  0  0  0  0  0  0  0  0  0  0
  146.2457  130.5341  153.5689 H   0  0  0  0  0  0  0  0  0  0  0  0
  147.6408  130.0350  152.6113 H   0  0  0  0  0  0  0  0  0  0  0  0
  146.1275  129.6468  150.6442 H   0  0  0  0  0  0  0  0  0  0  0  0
  144.7618  130.2584  151.5391 H   0  0  0  0  0  0  0  0  0  0  0  0
  146.2343  132.9449  149.2770 H   0  0  0  0  0  0  0  0  0  0  0  0
  145.8208  131.2835  148.9395 H   0  0  0  0  0  0  0  0  0  0  0  0
  143.8189  132.8054  148.7756 H   0  0  0  0  0  0  0  0  0  0  0  0
  143.5680  131.6187  150.0398 H   0  0  0  0  0  0  0  0  0  0  0  0
  143.8313  132.3147  152.3359 H   0  0  0  0  0  0  0  0  0  0  0  0
  144.8809  134.3299  153.7593 H   0  0  0  0  0  0  0  0  0  0  0  0
  144.3081  135.3043  152.4357 H   0  0  0  0  0  0  0  0  0  0  0  0
  142.4810  133.3884  153.8508 H   0  0  0  0  0  0  0  0  0  0  0  0
  143.5240  136.7664  152.9080 H   0  0  0  0  0  0  0  0  0  0  0  0
  142.0140  138.7531  152.9586 H   0  0  0  0  0  0  0  0  0  0  0  0
  138.8635  136.1290  154.3313 H   0  0  0  0  0  0  0  0  0  0  0  0
  146.2640  132.5136  152.9702 H   0  0  0  0  0  0  0  0  0  0  0  0
  146.5035  133.6773  151.6977 H   0  0  0  0  0  0  0  0  0  0  0  0
  147.2152  131.7039  150.8756 H   0  0  0  0  0  0  0  0  0  0  0  0
  1  2  1  0  0  0  0
  1 19  1  0  0  0  0
  1 20  1  0  0  0  0
  1 21  1  0  0  0  0
  2  3  1  0  0  0  0
  2 22  1  0  0  0  0
  2 23  1  0  0  0  0
  3 18  1  0  0  0  0
  3  4  1  0  0  0  0
  3 37  1  0  0  0  0
  4  5  1  0  0  0  0
  4 24  1  0  0  0  0
  4 25  1  0  0  0  0
  5  6  1  0  0  0  0
  5 26  1  0  0  0  0
  5 27  1  0  0  0  0
  6  7  1  0  0  0  0
  7  8  1  0  0  0  0
  7 18  1  0  0  0  0
  7 28  1  0  0  0  0
  8  9  1  0  0  0  0
  8 29  1  0  0  0  0
  8 30  1  0  0  0  0
  9 10  1  0  0  0  0
  9 31  1  0  0  0  0
 10 17  1  0  0  0  0
 10 11  2  0  0  0  0
 11 12  1  0  0  0  0
 11 32  1  0  0  0  0
 12 13  2  0  0  0  0
 12 33  1  0  0  0  0
 13 14  1  0  0  0  0
 13 16  1  0  0  0  0
 14 15  3  0  0  0  0
 16 17  2  0  0  0  0
 16 34  1  0  0  0  0
 18 35  1  0  0  0  0
 18 36  1  0  0  0  0
M  CHG  1   3   1
M  END
> <s_m_source_file>
AV-unprocessed.smi

> <i_m_source_file_index>
3252

> <i_lp_mmshare_version>
43012

> <i_f3d_flags>
0

> <s_epik_input>
W0NIM11bQ0gyXU4xW0NIMl1bQ0gyXU9bQ0BIXShbQ0gyXTEpW0NIMl1bTkhdYzJbY0hdW2NIXWMoQyNOKVtjSF1uMg==

> <s_epik_cmdline>
J2VwaWtfcHl0aG9uJywgJy1waCcsICc3LjAnLCAnLXRuJywgJzgnLCAnLW1hJywgJzIwMCcsICctbWV0YWxfYmluZGluZycsICctaW1hZScsICc8aW5maWxlLm1hZT4nLCAnLW9tYWUnLCAnPG91dGZpbGUubWFlPic=

> <r_epik_Ionization_Penalty>
0.178512

> <r_epik_Ionization_Penalty_Charging>
0.178504

> <r_epik_Ionization_Penalty_Neutral>
8.15545e-06

> <r_epik_State_Penalty>
0.167974

> <r_epik_Charging_Adjusted_Penalty>
0.346478

> <i_epik_Tot_Q>
1

> <i_epik_Tot_abs_Q>
1

> <r_epik_Metal_State_Penalty>
0.167974

> <b_epik_Metal_Only>
0

> <s_lp_Force_Field>
OPLS_2005

> <r_lp_Energy>
19.5584

> <b_lp_Chiralities_Consistent>
1

> <s_lp_Variant>
AV-unprocessed.smi:3252-3

> <Gold.Version>
5.8.1

> <Gold.Id.Protein>
6NUR|6NUR_protein|mol2

> <Gold.PLP.Fitness>
45.8585

> <Gold.PLP.PLP>
-37.8680

> <Gold.PLP.part.hbond>
-3.3513

> <Gold.PLP.part.metal>
0.0000

> <Gold.PLP.part.buried>
-8.8406

> <Gold.PLP.part.nonpolar>
-26.8567

> <Gold.PLP.part.repulsive>
0.4887

> <Gold.PLP.ligand.clash>
0.0000

> <Gold.PLP.ligand.torsion>
0.5131

> <Gold.PLP.Chemscore.Hbond>
2.9913

> <Gold.PLP.Chemscore.CHOScore>
0.0000

> <Gold.PLP.Chemscore.Metal>
0.0000

> <Gold.Chemscore.Hbonds>
donor molecule, donor type, donor heavy atom, donor atom, acceptor molecule, acceptor atom, score
      L1  H     3    37       P1 10747  0.96
      L1  H     9    31       P1 10957  1.00
      P1  H 11000 11005       L1    17  1.00

> <Gold.PLP.Chemscore.Internal.Correction>
0.0429

> <Gold.Rescore>
     Score         DG    S(hbond)    S(metal)    S(lipo)     H(rot)  DE(clash)    DE(int)     intcor
     18.95     -19.46       2.61        0.00      77.16       1.47       0.03       0.49       ----

> <Gold.Chemscore.Fitness>
18.9475

> <Gold.Chemscore.DG>
-19.4633

> <Gold.Chemscore.ZeroCoef>
-5.4800

> <Gold.Chemscore.Hbond>
2.6089

> <Gold.Chemscore.Metal>
0.0000

> <Gold.Chemscore.Lipo>
77.1617

> <Gold.Chemscore.Internal_Hbond>
0.0000

> <Gold.Chemscore.DEClash>
0.0270

> <Gold.Chemscore.DEInternal>
0.4888

> <Gold.Chemscore.Rot>
1.4681

> <Gold.Chemscore.Internal.Correction>
   9.000000E+99

> <Gold.Chemscore.Hbonds>
donor molecule, donor type, donor heavy atom, donor atom, acceptor molecule, acceptor atom, score
      L1  H     3    37       P1 10747  0.89
      L1  H     9    31       P1 10957  0.96
      P1  H 11000 11005       L1    17  0.37

> <Gold.Chemscore.Hbond.Weighted>
-8.7138

> <Gold.Chemscore.Metal.Weighted>
-0.0000

> <Gold.Chemscore.Lipo.Weighted>
-9.0279

> <Gold.Chemscore.Internal_Hbond.Weighted>
0.0000

> <Gold.Chemscore.DEClash.Weighted>
0.0270

> <Gold.Chemscore.DEInternal.Weighted>
0.4888

> <Gold.Chemscore.Rot.Weighted>
3.7584

> <Gold.Chemscore.Internal.Correction.Weighted>
   9.000000E+99

> <Gold.Protein.RotatedTorsions>
[ 6907 6896 6895 6894 ] final  -54.48 input  -60.11 | X-H torsion
[ 7974 7965 7964 7962 ] final  -22.68 input  175.53 | X-H torsion
[ 8008 7997 7996 7995 ] final  -19.36 input   59.86 | X-H torsion
[ 10167 10162 10161 10158 ] final   18.33 input  -65.29 | X-H torsion
[ 10718 10713 10712 10709 ] final -115.01 input   66.30 | X-H torsion
[ 10763 10752 10751 10750 ] final  -82.26 input  -60.55 | X-H torsion
[ 11005 11000 10999 10996 ] final   31.14 input  -57.11 | X-H torsion

> <Gold.Protein.ActiveResidues>
 VAL166  LYS551  ARG553  GLY616  TRP617  ASP618  TYR619  PRO620  LYS621  CYS622 
 ASP623  PHE694  ASN695  SER759  ASP760  ASP761  ALA762  ILE779  LEU786  VAL792 
 PHE793  MET794  SER795  GLU796  ALA797  LYS798  CYS799  TRP800  GLU811  SER814 

> <Gold.Protein.RotatedAtoms>
  150.8334  134.7598  159.6872 H   0  0  0  0  0  0  0  0  0  0  0  0  # atno 6907 bound_to 6896
  152.4435  134.5539  159.9884 H   0  0  0  0  0  0  0  0  0  0  0  0  # atno 6908 bound_to 6896
  151.5694  133.3354  159.3022 H   0  0  0  0  0  0  0  0  0  0  0  0  # atno 6909 bound_to 6896
  146.1661  140.4512  142.8551 H   0  0  0  0  0  0  0  0  0  0  0  0  # atno 7974 bound_to 7965
  154.4842  140.2091  155.9694 H   0  0  0  0  0  0  0  0  0  0  0  0  # atno 8008 bound_to 7997
  156.1211  140.3213  155.8178 H   0  0  0  0  0  0  0  0  0  0  0  0  # atno 8009 bound_to 7997
  155.4466  140.0514  157.2996 H   0  0  0  0  0  0  0  0  0  0  0  0  # atno 8010 bound_to 7997
  140.5661  143.9248  150.6678 H   0  0  0  0  0  0  0  0  0  0  0  0  # atno 10167 bound_to 10162
  156.0868  130.6058  150.8850 H   0  0  0  0  0  0  0  0  0  0  0  0  # atno 10718 bound_to 10713
  154.5735  135.5597  153.7118 H   0  0  0  0  0  0  0  0  0  0  0  0  # atno 10763 bound_to 10752
  153.0057  135.6303  154.2081 H   0  0  0  0  0  0  0  0  0  0  0  0  # atno 10764 bound_to 10752
  154.2021  135.2877  155.2967 H   0  0  0  0  0  0  0  0  0  0  0  0  # atno 10765 bound_to 10752
  140.2870  134.2908  155.7785 H   0  0  0  0  0  0  0  0  0  0  0  0  # atno 11005 bound_to 11000
  144.8095  140.6360  143.6425 LP  0  0  0  0  0  0  0  0  0  0  0  0  # atno 17320 bound_to 7965
  145.4463  139.1529  143.3943 LP  0  0  0  0  0  0  0  0  0  0  0  0  # atno 17321 bound_to 7965
  140.2711  143.3455  152.1237 LP  0  0  0  0  0  0  0  0  0  0  0  0  # atno 17342 bound_to 10162
  139.5094  144.6866  151.5871 LP  0  0  0  0  0  0  0  0  0  0  0  0  # atno 17343 bound_to 10162
  157.6004  131.0941  150.8969 LP  0  0  0  0  0  0  0  0  0  0  0  0  # atno 17370 bound_to 10713
  156.9128  130.5287  149.5280 LP  0  0  0  0  0  0  0  0  0  0  0  0  # atno 17371 bound_to 10713
  141.2153  133.7561  156.9567 LP  0  0  0  0  0  0  0  0  0  0  0  0  # atno 17394 bound_to 11000
  140.1230  134.9404  157.2231 LP  0  0  0  0  0  0  0  0  0  0  0  0  # atno 17395 bound_to 11000

$$$$
