AV-unprocessed.smi:3303|AV-procd|sdf|12657|dock3
  -GOLD-   2272018593D 1   1.00000     0.00000
 Structure written by MMmdl.
 45 46  0  0  0  0  0  0  0  0  3 V2000
  144.9454  135.8767  152.4077 C   0  0  0  0  0  0  0  0  0  0  0  0
  145.5108  134.9122  151.3498 C   0  0  2  0  0  0  0  0  0  0  0  0
  144.3857  134.4450  150.4036 C   0  0  0  0  0  0  0  0  0  0  0  0
  144.8806  133.5196  149.3512 N   0  3  2  0  0  0  0  0  0  0  0  0
  143.8085  133.2075  148.3749 C   0  0  0  0  0  0  0  0  0  0  0  0
  145.5416  132.3143  149.9354 C   0  0  1  0  0  0  0  0  0  0  0  0
  146.0870  131.3551  148.8594 C   0  0  0  0  0  0  0  0  0  0  0  0
  146.6872  132.7410  150.8761 C   0  0  0  0  0  0  0  0  0  0  0  0
  146.2110  133.6923  151.9851 C   0  0  1  0  0  0  0  0  0  0  0  0
  147.3693  134.1126  152.8070 N   0  3  0  0  0  0  0  0  0  0  0  0
  148.2522  133.0119  153.2416 C   0  0  0  0  0  0  0  0  0  0  0  0
  147.4503  131.9102  153.9473 C   0  0  0  0  0  0  0  0  0  0  0  0
  147.5792  130.5710  153.2478 C   0  0  0  0  0  0  0  0  0  0  0  0
  146.5090  130.0454  152.4932 C   0  0  0  0  0  0  0  0  0  0  0  0
  146.6858  128.8020  151.8559 C   0  0  0  0  0  0  0  0  0  0  0  0
  147.9188  128.1367  151.9974 C   0  0  0  0  0  0  0  0  0  0  0  0
  148.9253  128.7470  152.7719 C   0  0  0  0  0  0  0  0  0  0  0  0
  148.7671  129.9407  153.3848 N   0  0  0  0  0  0  0  0  0  0  0  0
  144.2234  135.3780  153.0553 H   0  0  0  0  0  0  0  0  0  0  0  0
  144.4401  136.7211  151.9379 H   0  0  0  0  0  0  0  0  0  0  0  0
  145.7321  136.2865  153.0416 H   0  0  0  0  0  0  0  0  0  0  0  0
  146.2427  135.4618  150.7550 H   0  0  0  0  0  0  0  0  0  0  0  0
  143.5943  133.9531  150.9721 H   0  0  0  0  0  0  0  0  0  0  0  0
  143.9334  135.3170  149.9289 H   0  0  0  0  0  0  0  0  0  0  0  0
  143.0474  132.5656  148.8201 H   0  0  0  0  0  0  0  0  0  0  0  0
  144.2047  132.7134  147.4884 H   0  0  0  0  0  0  0  0  0  0  0  0
  143.3211  134.1200  148.0295 H   0  0  0  0  0  0  0  0  0  0  0  0
  144.7975  131.7726  150.5224 H   0  0  0  0  0  0  0  0  0  0  0  0
  146.6481  130.5384  149.3147 H   0  0  0  0  0  0  0  0  0  0  0  0
  146.7565  131.8684  148.1685 H   0  0  0  0  0  0  0  0  0  0  0  0
  145.2884  130.8940  148.2784 H   0  0  0  0  0  0  0  0  0  0  0  0
  147.1390  131.8567  151.3281 H   0  0  0  0  0  0  0  0  0  0  0  0
  147.4745  133.2222  150.2928 H   0  0  0  0  0  0  0  0  0  0  0  0
  145.4913  133.1582  152.6087 H   0  0  0  0  0  0  0  0  0  0  0  0
  147.9212  134.7698  152.2739 H   0  0  0  0  0  0  0  0  0  0  0  0
  148.7657  132.5966  152.3733 H   0  0  0  0  0  0  0  0  0  0  0  0
  149.0158  133.4105  153.9109 H   0  0  0  0  0  0  0  0  0  0  0  0
  147.7875  131.8027  154.9795 H   0  0  0  0  0  0  0  0  0  0  0  0
  146.3964  132.1877  153.9960 H   0  0  0  0  0  0  0  0  0  0  0  0
  145.5745  130.5794  152.4017 H   0  0  0  0  0  0  0  0  0  0  0  0
  145.8908  128.3671  151.2681 H   0  0  0  0  0  0  0  0  0  0  0  0
  148.0895  127.1817  151.5230 H   0  0  0  0  0  0  0  0  0  0  0  0
  149.8831  128.2653  152.9012 H   0  0  0  0  0  0  0  0  0  0  0  0
  147.0208  134.5829  153.6304 H   0  0  0  0  0  0  0  0  0  0  0  0
  145.5913  134.0221  148.8383 H   0  0  0  0  0  0  0  0  0  0  0  0
  1  2  1  0  0  0  0
  1 19  1  0  0  0  0
  1 20  1  0  0  0  0
  1 21  1  0  0  0  0
  2  9  1  0  0  0  0
  2  3  1  0  0  0  0
  2 22  1  0  0  0  0
  3  4  1  0  0  0  0
  3 23  1  0  0  0  0
  3 24  1  0  0  0  0
  4  5  1  0  0  0  0
  4  6  1  0  0  0  0
  4 45  1  0  0  0  0
  5 25  1  0  0  0  0
  5 26  1  0  0  0  0
  5 27  1  0  0  0  0
  6  7  1  0  0  0  0
  6  8  1  0  0  0  0
  6 28  1  0  0  0  0
  7 29  1  0  0  0  0
  7 30  1  0  0  0  0
  7 31  1  0  0  0  0
  8  9  1  0  0  0  0
  8 32  1  0  0  0  0
  8 33  1  0  0  0  0
  9 10  1  0  0  0  0
  9 34  1  0  0  0  0
 10 11  1  0  0  0  0
 10 35  1  0  0  0  0
 10 44  1  0  0  0  0
 11 12  1  0  0  0  0
 11 36  1  0  0  0  0
 11 37  1  0  0  0  0
 12 13  1  0  0  0  0
 12 38  1  0  0  0  0
 12 39  1  0  0  0  0
 13 18  1  0  0  0  0
 13 14  2  0  0  0  0
 14 15  1  0  0  0  0
 14 40  1  0  0  0  0
 15 16  2  0  0  0  0
 15 41  1  0  0  0  0
 16 17  1  0  0  0  0
 16 42  1  0  0  0  0
 17 18  2  0  0  0  0
 17 43  1  0  0  0  0
M  CHG  1   4   1
M  CHG  1  10   1
M  END
> <s_m_source_file>
AV-unprocessed.smi

> <i_m_source_file_index>
3303

> <i_lp_mmshare_version>
43012

> <i_f3d_flags>
0

> <s_epik_input>
W0NIM11bQ0BASF0xW0NIMl1OKFtDSDNdKVtDQEBIXShbQ0gzXSlbQ0gyXVtDQEhdMVtOSF1bQ0gyXVtDSDJdYzJbY0hdW2NIXVtjSF1bY0hdbjI=

> <s_epik_cmdline>
J2VwaWtfcHl0aG9uJywgJy1waCcsICc3LjAnLCAnLXRuJywgJzgnLCAnLW1hJywgJzIwMCcsICctbWV0YWxfYmluZGluZycsICctaW1hZScsICc8aW5maWxlLm1hZT4nLCAnLW9tYWUnLCAnPG91dGZpbGUubWFlPic=

> <r_epik_Ionization_Penalty>
0.0769462

> <r_epik_Ionization_Penalty_Charging>
0.0759813

> <r_epik_Ionization_Penalty_Neutral>
0.000964829

> <r_epik_State_Penalty>
0.0654373

> <r_epik_Charging_Adjusted_Penalty>
0.141419

> <i_epik_Tot_Q>
2

> <i_epik_Tot_abs_Q>
2

> <r_epik_Metal_State_Penalty>
0.0656439

> <b_epik_Metal_Only>
0

> <s_lp_Force_Field>
OPLS_2005

> <r_lp_Energy>
29.1913

> <b_lp_Chiralities_Consistent>
1

> <s_lp_Variant>
AV-unprocessed.smi:3303-1

> <Gold.Version>
5.8.1

> <Gold.Id.Protein>
6NUR|6NUR_protein|mol2

> <Gold.PLP.Fitness>
45.4599

> <Gold.PLP.PLP>
-34.6544

> <Gold.PLP.part.hbond>
-1.8521

> <Gold.PLP.part.metal>
0.0000

> <Gold.PLP.part.buried>
1.2026

> <Gold.PLP.part.nonpolar>
-34.0568

> <Gold.PLP.part.repulsive>
0.2790

> <Gold.PLP.ligand.clash>
0.0000

> <Gold.PLP.ligand.torsion>
0.6061

> <Gold.PLP.Chemscore.Hbond>
3.0000

> <Gold.PLP.Chemscore.CHOScore>
1.0000

> <Gold.PLP.Chemscore.Metal>
0.0000

> <Gold.Chemscore.Hbonds>
donor molecule, donor type, donor heavy atom, donor atom, acceptor molecule, acceptor atom, score
      L1  H     4    45       P1  7921  1.00
      L1  H    10    35       P1  7948  2.00
      L1  C    17    43       P1 10737  1.00

> <Gold.PLP.Chemscore.Internal.Correction>
0.0177

> <Gold.Rescore>
     Score         DG    S(hbond)    S(metal)    S(lipo)     H(rot)  DE(clash)    DE(int)     intcor
     19.19     -20.47       1.79        0.00     107.06       1.37       0.70       0.57       ----

> <Gold.Chemscore.Fitness>
19.1901

> <Gold.Chemscore.DG>
-20.4663

> <Gold.Chemscore.ZeroCoef>
-5.4800

> <Gold.Chemscore.Hbond>
1.7901

> <Gold.Chemscore.Metal>
0.0000

> <Gold.Chemscore.Lipo>
107.0569

> <Gold.Chemscore.Internal_Hbond>
0.0000

> <Gold.Chemscore.DEClash>
0.7012

> <Gold.Chemscore.DEInternal>
0.5749

> <Gold.Chemscore.Rot>
1.3744

> <Gold.Chemscore.Internal.Correction>
   9.000000E+99

> <Gold.Chemscore.Hbonds>
donor molecule, donor type, donor heavy atom, donor atom, acceptor molecule, acceptor atom, score
      L1  H     4    45       P1  7921  0.60
      L1  H    10    35       P1  7948  0.60

> <Gold.Chemscore.Hbond.Weighted>
-5.9791

> <Gold.Chemscore.Metal.Weighted>
-0.0000

> <Gold.Chemscore.Lipo.Weighted>
-12.5257

> <Gold.Chemscore.Internal_Hbond.Weighted>
0.0000

> <Gold.Chemscore.DEClash.Weighted>
0.7012

> <Gold.Chemscore.DEInternal.Weighted>
0.5749

> <Gold.Chemscore.Rot.Weighted>
3.5185

> <Gold.Chemscore.Internal.Correction.Weighted>
   9.000000E+99

> <Gold.Protein.RotatedTorsions>
[ 6907 6896 6895 6894 ] final  163.90 input  -60.11 | X-H torsion
[ 7974 7965 7964 7962 ] final   43.79 input  175.53 | X-H torsion
[ 8008 7997 7996 7995 ] final  -64.74 input   59.86 | X-H torsion
[ 10167 10162 10161 10158 ] final   60.80 input  -65.29 | X-H torsion
[ 10718 10713 10712 10709 ] final   18.81 input   66.30 | X-H torsion
[ 10763 10752 10751 10750 ] final   43.29 input  -60.55 | X-H torsion
[ 11005 11000 10999 10996 ] final  -78.48 input  -57.11 | X-H torsion

> <Gold.Protein.ActiveResidues>
 VAL166  LYS551  ARG553  GLY616  TRP617  ASP618  TYR619  PRO620  LYS621  CYS622 
 ASP623  PHE694  ASN695  SER759  ASP760  ASP761  ALA762  ILE779  LEU786  VAL792 
 PHE793  MET794  SER795  GLU796  ALA797  LYS798  CYS799  TRP800  GLU811  SER814 

> <Gold.Protein.RotatedAtoms>
  151.9180  133.3578  159.3886 H   0  0  0  0  0  0  0  0  0  0  0  0  # atno 6907 bound_to 6896
  150.7043  134.4664  159.5414 H   0  0  0  0  0  0  0  0  0  0  0  0  # atno 6908 bound_to 6896
  152.2282  134.8347  160.0528 H   0  0  0  0  0  0  0  0  0  0  0  0  # atno 6909 bound_to 6896
  146.0625  139.5147  142.9649 H   0  0  0  0  0  0  0  0  0  0  0  0  # atno 7974 bound_to 7965
  154.4629  140.0947  156.6943 H   0  0  0  0  0  0  0  0  0  0  0  0  # atno 8008 bound_to 7997
  155.4940  140.3471  155.4341 H   0  0  0  0  0  0  0  0  0  0  0  0  # atno 8009 bound_to 7997
  156.0904  140.1396  156.9587 H   0  0  0  0  0  0  0  0  0  0  0  0  # atno 8010 bound_to 7997
  140.1617  144.4364  150.6706 H   0  0  0  0  0  0  0  0  0  0  0  0  # atno 10167 bound_to 10162
  157.1016  130.6470  149.5874 H   0  0  0  0  0  0  0  0  0  0  0  0  # atno 10718 bound_to 10713
  152.9864  135.6106  154.3088 H   0  0  0  0  0  0  0  0  0  0  0  0  # atno 10763 bound_to 10752
  154.2804  135.2777  155.2701 H   0  0  0  0  0  0  0  0  0  0  0  0  # atno 10764 bound_to 10752
  154.5042  135.5858  153.6611 H   0  0  0  0  0  0  0  0  0  0  0  0  # atno 10765 bound_to 10752
  141.1665  133.7065  156.7977 H   0  0  0  0  0  0  0  0  0  0  0  0  # atno 11005 bound_to 11000
  145.6535  141.0257  143.1747 LP  0  0  0  0  0  0  0  0  0  0  0  0  # atno 17320 bound_to 7965
  144.7183  139.8118  143.7391 LP  0  0  0  0  0  0  0  0  0  0  0  0  # atno 17321 bound_to 7965
  140.6639  143.2261  151.5791 LP  0  0  0  0  0  0  0  0  0  0  0  0  # atno 17342 bound_to 10162
  139.5378  144.2732  152.1288 LP  0  0  0  0  0  0  0  0  0  0  0  0  # atno 17343 bound_to 10162
  155.9872  130.4910  150.7115 LP  0  0  0  0  0  0  0  0  0  0  0  0  # atno 17370 bound_to 10713
  157.4636  131.0886  151.0719 LP  0  0  0  0  0  0  0  0  0  0  0  0  # atno 17371 bound_to 10713
  140.2279  134.8708  157.3446 LP  0  0  0  0  0  0  0  0  0  0  0  0  # atno 17394 bound_to 11000
  140.1921  134.4359  155.7710 LP  0  0  0  0  0  0  0  0  0  0  0  0  # atno 17395 bound_to 11000

$$$$
