AV-unprocessed.smi:271|AV-procd|sdf|2052|dock8
  -GOLD-   2262021293D 1   1.00000     0.00000
 Structure written by MMmdl.
 58 60  0  0  0  0  0  0  0  0  1 V2000
  151.6755  144.7124  160.2086 C   0  0  0  0  0  0  0  0  0  0  0  0
  151.8799  143.1905  160.1208 C   0  0  0  0  0  0  0  0  0  0  0  0
  152.8364  142.7142  161.2247 C   0  0  0  0  0  0  0  0  0  0  0  0
  152.3849  142.7471  158.7336 C   0  0  0  0  0  0  0  0  0  0  0  0
  151.2712  142.6434  157.6724 C   0  0  0  0  0  0  0  0  0  0  0  0
  150.9579  141.2635  157.3028 N   0  0  0  0  0  0  0  0  0  0  0  0
  151.4725  140.2102  158.1798 C   0  0  0  0  0  0  0  0  0  0  0  0
  151.3349  138.8060  157.5713 C   0  0  0  0  0  0  0  0  0  0  0  0
  151.5568  137.7436  158.5630 C   0  0  0  0  0  0  0  0  0  0  0  0
  151.7308  136.9074  159.3434 N   0  0  0  0  0  0  0  0  0  0  0  0
  149.7287  141.0960  156.7477 C   0  0  0  0  0  0  0  0  0  0  0  0
  148.6363  141.6430  157.3458 N   0  0  0  0  0  0  0  0  0  0  0  0
  147.4252  141.5028  156.7995 C   0  0  0  0  0  0  0  0  0  0  0  0
  147.0852  140.8671  155.6771 N   0  0  0  0  0  0  0  0  0  0  0  0
  148.1752  140.3165  155.0708 C   0  0  0  0  0  0  0  0  0  0  0  0
  149.5203  140.3823  155.5333 C   0  0  0  0  0  0  0  0  0  0  0  0
  150.3537  139.6948  154.6585 N   0  0  0  0  0  0  0  0  0  0  0  0
  149.5500  139.2568  153.7284 C   0  0  0  0  0  0  0  0  0  0  0  0
  148.2252  139.5904  153.8937 N   0  0  0  0  0  0  0  0  0  0  0  0
  147.1266  139.2306  153.0134 C   0  0  0  0  0  0  0  0  0  0  0  0
  146.2902  138.0355  153.5333 C   0  0  1  0  0  0  0  0  0  0  0  0
  145.6080  138.3963  154.8743 C   0  0  0  0  0  0  0  0  0  0  0  0
  144.8047  139.5492  154.7298 O   0  0  0  0  0  0  0  0  0  0  0  0
  145.3032  137.4868  152.4647 C   0  0  1  0  0  0  0  0  0  0  0  0
  145.9339  137.0988  151.1257 C   0  0  0  0  0  0  0  0  0  0  0  0
  145.4078  135.6890  150.8569 C   0  0  0  0  0  0  0  0  0  0  0  0
  144.2210  135.6118  151.6289 O   0  0  0  0  0  0  0  0  0  0  0  0
  144.5046  136.2397  152.8680 C   0  0  0  0  0  0  0  0  0  0  0  0
  152.6033  145.2488  160.0075 H   0  0  0  0  0  0  0  0  0  0  0  0
  151.3333  145.0044  161.2019 H   0  0  0  0  0  0  0  0  0  0  0  0
  150.9274  145.0613  159.4975 H   0  0  0  0  0  0  0  0  0  0  0  0
  150.9167  142.7109  160.2998 H   0  0  0  0  0  0  0  0  0  0  0  0
  153.8314  143.1424  161.0988 H   0  0  0  0  0  0  0  0  0  0  0  0
  152.9378  141.6287  161.2162 H   0  0  0  0  0  0  0  0  0  0  0  0
  152.4732  142.9999  162.2124 H   0  0  0  0  0  0  0  0  0  0  0  0
  153.1641  143.4309  158.3950 H   0  0  0  0  0  0  0  0  0  0  0  0
  152.8626  141.7716  158.8322 H   0  0  0  0  0  0  0  0  0  0  0  0
  150.3771  143.1555  158.0256 H   0  0  0  0  0  0  0  0  0  0  0  0
  151.5704  143.1689  156.7659 H   0  0  0  0  0  0  0  0  0  0  0  0
  152.5267  140.4052  158.3795 H   0  0  0  0  0  0  0  0  0  0  0  0
  150.9689  140.2522  159.1465 H   0  0  0  0  0  0  0  0  0  0  0  0
  150.3461  138.6495  157.1416 H   0  0  0  0  0  0  0  0  0  0  0  0
  152.0608  138.6680  156.7698 H   0  0  0  0  0  0  0  0  0  0  0  0
  146.6127  141.9683  157.3379 H   0  0  0  0  0  0  0  0  0  0  0  0
  149.9031  138.6768  152.8880 H   0  0  0  0  0  0  0  0  0  0  0  0
  146.4979  140.1139  152.8971 H   0  0  0  0  0  0  0  0  0  0  0  0
  147.5265  139.0081  152.0236 H   0  0  0  0  0  0  0  0  0  0  0  0
  146.9870  137.2214  153.7401 H   0  0  0  0  0  0  0  0  0  0  0  0
  144.9821  137.5781  155.2309 H   0  0  0  0  0  0  0  0  0  0  0  0
  146.3385  138.6005  155.6557 H   0  0  0  0  0  0  0  0  0  0  0  0
  144.5364  139.6179  153.8261 H   0  0  0  0  0  0  0  0  0  0  0  0
  144.5776  138.2651  152.2266 H   0  0  0  0  0  0  0  0  0  0  0  0
  145.5933  137.7824  150.3469 H   0  0  0  0  0  0  0  0  0  0  0  0
  147.0232  137.1289  151.1211 H   0  0  0  0  0  0  0  0  0  0  0  0
  145.2138  135.5052  149.7999 H   0  0  0  0  0  0  0  0  0  0  0  0
  146.1171  134.9387  151.2099 H   0  0  0  0  0  0  0  0  0  0  0  0
  145.0863  135.5526  153.4823 H   0  0  0  0  0  0  0  0  0  0  0  0
  143.5897  136.4834  153.4075 H   0  0  0  0  0  0  0  0  0  0  0  0
  1  2  1  0  0  0  0
  1 29  1  0  0  0  0
  1 30  1  0  0  0  0
  1 31  1  0  0  0  0
  2  3  1  0  0  0  0
  2  4  1  0  0  0  0
  2 32  1  0  0  0  0
  3 33  1  0  0  0  0
  3 34  1  0  0  0  0
  3 35  1  0  0  0  0
  4  5  1  0  0  0  0
  4 36  1  0  0  0  0
  4 37  1  0  0  0  0
  5  6  1  0  0  0  0
  5 38  1  0  0  0  0
  5 39  1  0  0  0  0
  6  7  1  0  0  0  0
  6 11  1  0  0  0  0
  7  8  1  0  0  0  0
  7 40  1  0  0  0  0
  7 41  1  0  0  0  0
  8  9  1  0  0  0  0
  8 42  1  0  0  0  0
  8 43  1  0  0  0  0
  9 10  3  0  0  0  0
 11 16  1  0  0  0  0
 11 12  2  0  0  0  0
 12 13  1  0  0  0  0
 13 14  2  0  0  0  0
 13 44  1  0  0  0  0
 14 15  1  0  0  0  0
 15 19  1  0  0  0  0
 15 16  2  0  0  0  0
 16 17  1  0  0  0  0
 17 18  2  0  0  0  0
 18 19  1  0  0  0  0
 18 45  1  0  0  0  0
 19 20  1  0  0  0  0
 20 21  1  0  0  0  0
 20 46  1  0  0  0  0
 20 47  1  0  0  0  0
 21 22  1  0  0  0  0
 21 24  1  0  0  0  0
 21 48  1  0  0  0  0
 22 23  1  0  0  0  0
 22 49  1  0  0  0  0
 22 50  1  0  0  0  0
 23 51  1  0  0  0  0
 24 28  1  0  0  0  0
 24 25  1  0  0  0  0
 24 52  1  0  0  0  0
 25 26  1  0  0  0  0
 25 53  1  0  0  0  0
 25 54  1  0  0  0  0
 26 27  1  0  0  0  0
 26 55  1  0  0  0  0
 26 56  1  0  0  0  0
 27 28  1  0  0  0  0
 28 57  1  0  0  0  0
 28 58  1  0  0  0  0
M  END
> <s_m_source_file>
AV-unprocessed.smi

> <i_m_source_file_index>
271

> <i_lp_mmshare_version>
43012

> <i_f3d_flags>
0

> <s_epik_input>
W0NIM11bQ0hdKFtDSDNdKVtDSDJdW0NIMl1OKFtDSDJdW0NIMl1DI04pYyhuW2NIXW4xKWMoYzEyKW5bY0hdbjJbQ0gyXVtDQEhdKFtDSDJdW09IXSlbQ0BASF0zW0NIMl1bQ0gyXU9bQ0gyXTM=

> <s_epik_cmdline>
J2VwaWtfcHl0aG9uJywgJy1waCcsICc3LjAnLCAnLXRuJywgJzgnLCAnLW1hJywgJzIwMCcsICctbWV0YWxfYmluZGluZycsICctaW1hZScsICc8aW5maWxlLm1hZT4nLCAnLW9tYWUnLCAnPG91dGZpbGUubWFlPic=

> <r_lp_tautomer_probability>
1

> <r_epik_Ionization_Penalty>
0.000825874

> <r_epik_Ionization_Penalty_Charging>
0

> <r_epik_Ionization_Penalty_Neutral>
0.000825874

> <r_epik_State_Penalty>
0.000396768

> <r_epik_Charging_Adjusted_Penalty>
0.000396768

> <i_epik_Tot_Q>
0

> <i_epik_Tot_abs_Q>
0

> <r_epik_Metal_State_Penalty>
-0

> <b_epik_Metal_Only>
0

> <s_lp_Force_Field>
OPLS_2005

> <r_lp_Energy>
37.4576

> <b_lp_Chiralities_Consistent>
1

> <s_lp_Variant>
AV-unprocessed.smi:271-4

> <Gold.Version>
5.8.1

> <Gold.Id.Protein>
6NUR|6NUR_protein|mol2

> <Gold.PLP.Fitness>
50.8583

> <Gold.PLP.PLP>
-42.2513

> <Gold.PLP.part.hbond>
-2.8312

> <Gold.PLP.part.metal>
0.0000

> <Gold.PLP.part.buried>
-0.7665

> <Gold.PLP.part.nonpolar>
-39.4752

> <Gold.PLP.part.repulsive>
0.4737

> <Gold.PLP.ligand.clash>
0.0000

> <Gold.PLP.ligand.torsion>
1.9113

> <Gold.PLP.Chemscore.Hbond>
2.8525

> <Gold.PLP.Chemscore.CHOScore>
0.9017

> <Gold.PLP.Chemscore.Metal>
0.0000

> <Gold.Chemscore.Hbonds>
donor molecule, donor type, donor heavy atom, donor atom, acceptor molecule, acceptor atom, score
      L1  H    23    51       P1 10175  1.00
      P1  H  6896  6909       L1    10  1.00
      P1  H  7989  7998       L1    17  0.82
      L1  C    18    45       P1  7948  0.41
      L1  C    18    45       P1  7957  0.49

> <Gold.PLP.Chemscore.Internal.Correction>
1.1668

> <Gold.Rescore>
     Score         DG    S(hbond)    S(metal)    S(lipo)     H(rot)  DE(clash)    DE(int)     intcor
     11.61     -14.55       2.00        0.00     102.77       3.77       1.13       1.81       ----

> <Gold.Chemscore.Fitness>
11.6096

> <Gold.Chemscore.DG>
-14.5494

> <Gold.Chemscore.ZeroCoef>
-5.4800

> <Gold.Chemscore.Hbond>
2.0037

> <Gold.Chemscore.Metal>
0.0000

> <Gold.Chemscore.Lipo>
102.7670

> <Gold.Chemscore.Internal_Hbond>
0.0000

> <Gold.Chemscore.DEClash>
1.1278

> <Gold.Chemscore.DEInternal>
1.8120

> <Gold.Chemscore.Rot>
3.7683

> <Gold.Chemscore.Internal.Correction>
   9.000000E+99

> <Gold.Chemscore.Hbonds>
donor molecule, donor type, donor heavy atom, donor atom, acceptor molecule, acceptor atom, score
      L1  H    23    51       P1 10175  0.95
      P1  H  6896  6909       L1    10  0.99
      P1  H  7989  7998       L1    17  0.17

> <Gold.Chemscore.Hbond.Weighted>
-6.6924

> <Gold.Chemscore.Metal.Weighted>
-0.0000

> <Gold.Chemscore.Lipo.Weighted>
-12.0237

> <Gold.Chemscore.Internal_Hbond.Weighted>
0.0000

> <Gold.Chemscore.DEClash.Weighted>
1.1278

> <Gold.Chemscore.DEInternal.Weighted>
1.8120

> <Gold.Chemscore.Rot.Weighted>
9.6468

> <Gold.Chemscore.Internal.Correction.Weighted>
   9.000000E+99

> <Gold.Protein.RotatedTorsions>
[ 6907 6896 6895 6894 ] final  113.69 input  -60.11 | X-H torsion
[ 7974 7965 7964 7962 ] final   88.02 input  175.53 | X-H torsion
[ 8008 7997 7996 7995 ] final   64.30 input   59.86 | X-H torsion
[ 10167 10162 10161 10158 ] final  -68.50 input  -65.29 | X-H torsion
[ 10718 10713 10712 10709 ] final  146.16 input   66.30 | X-H torsion
[ 10763 10752 10751 10750 ] final  168.83 input  -60.55 | X-H torsion
[ 11005 11000 10999 10996 ] final -139.64 input  -57.11 | X-H torsion

> <Gold.Protein.ActiveResidues>
 VAL166  LYS551  ARG553  GLY616  TRP617  ASP618  TYR619  PRO620  LYS621  CYS622 
 ASP623  PHE694  ASN695  SER759  ASP760  ASP761  ALA762  ILE779  LEU786  VAL792 
 PHE793  MET794  SER795  GLU796  ALA797  LYS798  CYS799  TRP800  GLU811  SER814 

> <Gold.Protein.RotatedAtoms>
  152.4846  133.8340  159.7117 H   0  0  0  0  0  0  0  0  0  0  0  0  # atno 6907 bound_to 6896
  150.8922  133.7219  159.2908 H   0  0  0  0  0  0  0  0  0  0  0  0  # atno 6908 bound_to 6896
  151.4688  135.1048  159.9798 H   0  0  0  0  0  0  0  0  0  0  0  0  # atno 6909 bound_to 6896
  145.5512  139.2295  143.2512 H   0  0  0  0  0  0  0  0  0  0  0  0  # atno 7974 bound_to 7965
  155.6438  140.3497  155.4724 H   0  0  0  0  0  0  0  0  0  0  0  0  # atno 8008 bound_to 7997
  155.9904  140.1192  157.0667 H   0  0  0  0  0  0  0  0  0  0  0  0  # atno 8009 bound_to 7997
  154.4217  140.1120  156.5544 H   0  0  0  0  0  0  0  0  0  0  0  0  # atno 8010 bound_to 7997
  140.5503  143.2312  151.6924 H   0  0  0  0  0  0  0  0  0  0  0  0  # atno 10167 bound_to 10162
  157.3366  131.0929  151.1118 H   0  0  0  0  0  0  0  0  0  0  0  0  # atno 10718 bound_to 10713
  154.3744  135.2753  155.2248 H   0  0  0  0  0  0  0  0  0  0  0  0  # atno 10763 bound_to 10752
  154.4382  135.5961  153.6115 H   0  0  0  0  0  0  0  0  0  0  0  0  # atno 10764 bound_to 10752
  152.9837  135.6012  154.3979 H   0  0  0  0  0  0  0  0  0  0  0  0  # atno 10765 bound_to 10752
  140.8500  134.2298  157.4765 H   0  0  0  0  0  0  0  0  0  0  0  0  # atno 11005 bound_to 11000
  146.1915  140.6335  142.9143 LP  0  0  0  0  0  0  0  0  0  0  0  0  # atno 17320 bound_to 7965
  144.7528  140.5235  143.6789 LP  0  0  0  0  0  0  0  0  0  0  0  0  # atno 17321 bound_to 7965
  139.5024  144.3829  152.0358 LP  0  0  0  0  0  0  0  0  0  0  0  0  # atno 17342 bound_to 10162
  140.2945  144.3716  150.6078 LP  0  0  0  0  0  0  0  0  0  0  0  0  # atno 17343 bound_to 10162
  157.2346  130.6541  149.5864 LP  0  0  0  0  0  0  0  0  0  0  0  0  # atno 17370 bound_to 10713
  155.9702  130.4588  150.6012 LP  0  0  0  0  0  0  0  0  0  0  0  0  # atno 17371 bound_to 10713
  139.8704  134.9678  156.4610 LP  0  0  0  0  0  0  0  0  0  0  0  0  # atno 17394 bound_to 11000
  140.8801  133.7924  155.9457 LP  0  0  0  0  0  0  0  0  0  0  0  0  # atno 17395 bound_to 11000

$$$$
