AV-unprocessed.smi:1439|AV-procd|sdf|5871|dock6
  -GOLD-   22720 5543D 1   1.00000     0.00000
 Structure written by MMmdl.
 35 36  0  0  0  0  0  0  0  0  2 V2000
  142.5441  133.0195  148.0728 N   0  0  0  0  0  0  0  0  0  0  0  0
  143.5855  132.5749  148.7837 C   0  0  0  0  0  0  0  0  0  0  0  0
  144.5744  132.0792  148.2478 O   0  0  0  0  0  0  0  0  0  0  0  0
  143.5305  132.7301  150.3084 C   0  0  0  0  0  0  0  0  0  0  0  0
  144.8905  132.5858  150.9321 C   0  0  0  0  0  0  0  0  0  0  0  0
  145.9712  133.4095  150.7467 C   0  0  0  0  0  0  0  0  0  0  0  0
  147.3513  132.8785  151.6640 S   0  0  0  0  0  0  0  0  0  0  0  0
  146.4033  131.5261  152.2859 C   0  0  0  0  0  0  0  0  0  0  0  0
  146.8598  130.5947  153.1375 N   0  5  0  0  0  0  0  0  0  0  0  0
  146.4103  129.3211  153.0370 C   0  0  0  0  0  0  0  0  0  0  0  0
  145.2482  128.9108  153.0748 O   0  0  0  0  0  0  0  0  0  0  0  0
  147.5745  128.3369  152.8561 C   0  0  0  0  0  0  0  0  0  0  0  0
  147.6068  127.6613  151.4719 C   0  0  0  0  0  0  0  0  0  0  0  0
  148.2276  126.2575  151.5147 C   0  0  2  0  0  0  0  0  0  0  0  0
  148.3279  125.5815  150.1504 C   0  0  0  0  0  0  0  0  0  0  0  0
  148.4032  124.1058  150.5037 C   0  0  0  0  0  0  0  0  0  0  0  0
  147.8289  124.0331  151.9225 C   0  0  0  0  0  0  0  0  0  0  0  0
  147.4025  125.3537  152.2324 O   0  0  0  0  0  0  0  0  0  0  0  0
  145.1591  131.5189  151.7949 N   0  0  0  0  0  0  0  0  0  0  0  0
  142.5373  132.9070  147.0696 H   0  0  0  0  0  0  0  0  0  0  0  0
  141.7566  133.4408  148.5437 H   0  0  0  0  0  0  0  0  0  0  0  0
  143.1033  133.7032  150.5548 H   0  0  0  0  0  0  0  0  0  0  0  0
  142.8431  131.9838  150.7077 H   0  0  0  0  0  0  0  0  0  0  0  0
  146.0391  134.2940  150.1316 H   0  0  0  0  0  0  0  0  0  0  0  0
  148.5119  128.8707  153.0201 H   0  0  0  0  0  0  0  0  0  0  0  0
  147.5094  127.5722  153.6319 H   0  0  0  0  0  0  0  0  0  0  0  0
  146.5970  127.6000  151.0633 H   0  0  0  0  0  0  0  0  0  0  0  0
  148.1843  128.2791  150.7825 H   0  0  0  0  0  0  0  0  0  0  0  0
  149.2131  126.2907  151.9832 H   0  0  0  0  0  0  0  0  0  0  0  0
  147.4253  125.7728  149.5681 H   0  0  0  0  0  0  0  0  0  0  0  0
  149.1840  125.9251  149.5691 H   0  0  0  0  0  0  0  0  0  0  0  0
  147.8370  123.4973  149.7979 H   0  0  0  0  0  0  0  0  0  0  0  0
  149.4360  123.7559  150.4966 H   0  0  0  0  0  0  0  0  0  0  0  0
  146.9966  123.3331  151.9999 H   0  0  0  0  0  0  0  0  0  0  0  0
  148.5982  123.7260  152.6324 H   0  0  0  0  0  0  0  0  0  0  0  0
  1  2  1  0  0  0  0
  1 20  1  0  0  0  0
  1 21  1  0  0  0  0
  2  3  2  0  0  0  0
  2  4  1  0  0  0  0
  4  5  1  0  0  0  0
  4 22  1  0  0  0  0
  4 23  1  0  0  0  0
  5 19  1  0  0  0  0
  5  6  2  0  0  0  0
  6  7  1  0  0  0  0
  6 24  1  0  0  0  0
  7  8  1  0  0  0  0
  8  9  1  0  0  0  0
  8 19  2  0  0  0  0
  9 10  1  0  0  0  0
 10 11  2  0  0  0  0
 10 12  1  0  0  0  0
 12 13  1  0  0  0  0
 12 25  1  0  0  0  0
 12 26  1  0  0  0  0
 13 14  1  0  0  0  0
 13 27  1  0  0  0  0
 13 28  1  0  0  0  0
 14 18  1  0  0  0  0
 14 15  1  0  0  0  0
 14 29  1  0  0  0  0
 15 16  1  0  0  0  0
 15 30  1  0  0  0  0
 15 31  1  0  0  0  0
 16 17  1  0  0  0  0
 16 32  1  0  0  0  0
 16 33  1  0  0  0  0
 17 18  1  0  0  0  0
 17 34  1  0  0  0  0
 17 35  1  0  0  0  0
M  CHG  1   9  -1
M  END
> <s_m_source_file>
AV-unprocessed.smi

> <i_m_source_file_index>
1439

> <i_lp_mmshare_version>
43012

> <i_f3d_flags>
0

> <s_epik_input>
W05IMl1DKD1PKVtDSDJdYzFbY0hdc2MobjEpW05IXUMoPU8pW0NIMl1bQ0gyXVtDQEBIXTJbQ0gyXVtDSDJdW0NIMl1PMg==

> <s_epik_cmdline>
J2VwaWtfcHl0aG9uJywgJy1waCcsICc3LjAnLCAnLXRuJywgJzgnLCAnLW1hJywgJzIwMCcsICctbWV0YWxfYmluZGluZycsICctaW1hZScsICc8aW5maWxlLm1hZT4nLCAnLW9tYWUnLCAnPG91dGZpbGUubWFlPic=

> <r_lp_tautomer_probability>
1

> <r_epik_Ionization_Penalty>
4.85214

> <r_epik_Ionization_Penalty_Charging>
4.5239

> <r_epik_Ionization_Penalty_Neutral>
0.32824

> <r_epik_State_Penalty>
4.52362

> <r_epik_Charging_Adjusted_Penalty>
9.04752

> <i_epik_Tot_Q>
-1

> <i_epik_Tot_abs_Q>
1

> <r_epik_Metal_State_Penalty>
0.831335

> <b_epik_Metal_Only>
1

> <s_lp_Force_Field>
OPLS_2005

> <r_lp_Energy>
14.205

> <b_lp_Chiralities_Consistent>
1

> <s_lp_Variant>
AV-unprocessed.smi:1439-3

> <Gold.Version>
5.8.1

> <Gold.Id.Protein>
6NUR|6NUR_protein|mol2

> <Gold.PLP.Fitness>
44.5844

> <Gold.PLP.PLP>
-38.0415

> <Gold.PLP.part.hbond>
-4.6889

> <Gold.PLP.part.metal>
0.0000

> <Gold.PLP.part.buried>
-3.2665

> <Gold.PLP.part.nonpolar>
-31.3457

> <Gold.PLP.part.repulsive>
1.6560

> <Gold.PLP.ligand.clash>
0.0000

> <Gold.PLP.ligand.torsion>
1.2430

> <Gold.PLP.Chemscore.Hbond>
1.9920

> <Gold.PLP.Chemscore.CHOScore>
0.9613

> <Gold.PLP.Chemscore.Metal>
0.0000

> <Gold.Chemscore.Hbonds>
donor molecule, donor type, donor heavy atom, donor atom, acceptor molecule, acceptor atom, score
      L1  H     1    20       P1 10195  0.99
      L1  H     1    21       P1 10186  1.00
      L1  C     6    24       P1  7921  0.96

> <Gold.PLP.Chemscore.Internal.Correction>
0.1689

> <Gold.Rescore>
     Score         DG    S(hbond)    S(metal)    S(lipo)     H(rot)  DE(clash)    DE(int)     intcor
     10.55     -13.87       1.91        0.00      72.16       2.51       0.77       2.55       ----

> <Gold.Chemscore.Fitness>
10.5518

> <Gold.Chemscore.DG>
-13.8741

> <Gold.Chemscore.ZeroCoef>
-5.4800

> <Gold.Chemscore.Hbond>
1.9094

> <Gold.Chemscore.Metal>
0.0000

> <Gold.Chemscore.Lipo>
72.1619

> <Gold.Chemscore.Internal_Hbond>
0.0000

> <Gold.Chemscore.DEClash>
0.7680

> <Gold.Chemscore.DEInternal>
2.5542

> <Gold.Chemscore.Rot>
2.5103

> <Gold.Chemscore.Internal.Correction>
   9.000000E+99

> <Gold.Chemscore.Hbonds>
donor molecule, donor type, donor heavy atom, donor atom, acceptor molecule, acceptor atom, score
      L1  H     1    20       P1 10195  0.94
      L1  H     1    21       P1 10186  0.95

> <Gold.Chemscore.Hbond.Weighted>
-6.3776

> <Gold.Chemscore.Metal.Weighted>
-0.0000

> <Gold.Chemscore.Lipo.Weighted>
-8.4429

> <Gold.Chemscore.Internal_Hbond.Weighted>
0.0000

> <Gold.Chemscore.DEClash.Weighted>
0.7680

> <Gold.Chemscore.DEInternal.Weighted>
2.5542

> <Gold.Chemscore.Rot.Weighted>
6.4264

> <Gold.Chemscore.Internal.Correction.Weighted>
   9.000000E+99

> <Gold.Protein.RotatedTorsions>
[ 6907 6896 6895 6894 ] final  -81.11 input  -60.11 | X-H torsion
[ 7974 7965 7964 7962 ] final  126.89 input  175.53 | X-H torsion
[ 8008 7997 7996 7995 ] final  -40.62 input   59.86 | X-H torsion
[ 10167 10162 10161 10158 ] final  -22.54 input  -65.29 | X-H torsion
[ 10718 10713 10712 10709 ] final  141.38 input   66.30 | X-H torsion
[ 10763 10752 10751 10750 ] final   71.90 input  -60.55 | X-H torsion
[ 11005 11000 10999 10996 ] final -128.93 input  -57.11 | X-H torsion

> <Gold.Protein.ActiveResidues>
 VAL166  LYS551  ARG553  GLY616  TRP617  ASP618  TYR619  PRO620  LYS621  CYS622 
 ASP623  PHE694  ASN695  SER759  ASP760  ASP761  ALA762  ILE779  LEU786  VAL792 
 PHE793  MET794  SER795  GLU796  ALA797  LYS798  CYS799  TRP800  GLU811  SER814 

> <Gold.Protein.RotatedAtoms>
  150.6917  134.3867  159.5058 H   0  0  0  0  0  0  0  0  0  0  0  0  # atno 6907 bound_to 6896
  152.1662  134.8869  160.0547 H   0  0  0  0  0  0  0  0  0  0  0  0  # atno 6908 bound_to 6896
  151.9913  133.3757  159.4182 H   0  0  0  0  0  0  0  0  0  0  0  0  # atno 6909 bound_to 6896
  145.0567  139.3838  143.5027 H   0  0  0  0  0  0  0  0  0  0  0  0  # atno 7974 bound_to 7965
  154.4010  140.1521  156.3056 H   0  0  0  0  0  0  0  0  0  0  0  0  # atno 8008 bound_to 7997
  155.8661  140.3451  155.5767 H   0  0  0  0  0  0  0  0  0  0  0  0  # atno 8009 bound_to 7997
  155.7826  140.0845  157.2041 H   0  0  0  0  0  0  0  0  0  0  0  0  # atno 8010 bound_to 7997
  140.7286  143.4525  151.0495 H   0  0  0  0  0  0  0  0  0  0  0  0  # atno 10167 bound_to 10162
  157.3926  131.1006  151.0631 H   0  0  0  0  0  0  0  0  0  0  0  0  # atno 10718 bound_to 10713
  153.0426  135.5119  154.7663 H   0  0  0  0  0  0  0  0  0  0  0  0  # atno 10763 bound_to 10752
  154.6588  135.2935  154.9895 H   0  0  0  0  0  0  0  0  0  0  0  0  # atno 10764 bound_to 10752
  154.0753  135.6672  153.4882 H   0  0  0  0  0  0  0  0  0  0  0  0  # atno 10765 bound_to 10752
  140.9475  134.1110  157.4093 H   0  0  0  0  0  0  0  0  0  0  0  0  # atno 11005 bound_to 11000
  146.3522  140.0244  142.8656 LP  0  0  0  0  0  0  0  0  0  0  0  0  # atno 17320 bound_to 7965
  145.1460  140.9597  143.4461 LP  0  0  0  0  0  0  0  0  0  0  0  0  # atno 17321 bound_to 7965
  139.8203  143.7829  152.3176 LP  0  0  0  0  0  0  0  0  0  0  0  0  # atno 17342 bound_to 10162
  139.7909  144.7410  150.9956 LP  0  0  0  0  0  0  0  0  0  0  0  0  # atno 17343 bound_to 10162
  157.1659  130.6246  149.5625 LP  0  0  0  0  0  0  0  0  0  0  0  0  # atno 17370 bound_to 10713
  155.9802  130.4801  150.6760 LP  0  0  0  0  0  0  0  0  0  0  0  0  # atno 17371 bound_to 10713
  139.8837  135.0056  156.6322 LP  0  0  0  0  0  0  0  0  0  0  0  0  # atno 17394 bound_to 11000
  140.7649  133.8787  155.8446 LP  0  0  0  0  0  0  0  0  0  0  0  0  # atno 17395 bound_to 11000

$$$$
