AV-unprocessed.smi:742|AV-procd|sdf|3559|dock2
  -GOLD-   22720 0553D 1   1.00000     0.00000
 Structure written by MMmdl.
 24 24  0  0  0  0  0  0  0  0  3 V2000
  148.0664  139.2048  152.7510 N   0  3  0  0  0  0  0  0  0  0  0  0
  148.0030  139.7463  154.1167 C   0  0  0  0  0  0  0  0  0  0  0  0
  149.1190  140.7764  154.3474 C   0  0  0  0  0  0  0  0  0  0  0  0
  150.3754  140.1185  154.6629 N   0  5  0  0  0  0  0  0  0  0  0  0
  150.9702  140.1761  156.1732 S   0  0  0  0  0  0  0  0  0  0  0  0
  150.0286  139.6442  157.1721 O   0  0  0  0  0  0  0  0  0  0  0  0
  152.3589  139.6929  156.2380 O   0  0  0  0  0  0  0  0  0  0  0  0
  151.0606  142.0012  156.4457 C   0  0  0  0  0  0  0  0  0  0  0  0
  151.4624  142.3079  157.8628 C   0  0  0  0  0  0  0  0  0  0  0  0
  152.4499  143.2218  158.3253 C   0  0  0  0  0  0  0  0  0  0  0  0
  152.3943  143.0927  159.6830 C   0  0  0  0  0  0  0  0  0  0  0  0
  151.4602  142.1739  160.0351 O   0  0  0  0  0  0  0  0  0  0  0  0
  150.8731  141.6759  158.8664 N   0  0  0  0  0  0  0  0  0  0  0  0
  148.4366  138.2658  152.7775 H   0  0  0  0  0  0  0  0  0  0  0  0
  148.6669  139.7920  152.1900 H   0  0  0  0  0  0  0  0  0  0  0  0
  147.0226  140.2003  154.2669 H   0  0  0  0  0  0  0  0  0  0  0  0
  148.0858  138.9114  154.8118 H   0  0  0  0  0  0  0  0  0  0  0  0
  149.2029  141.4211  153.4720 H   0  0  0  0  0  0  0  0  0  0  0  0
  148.8161  141.4343  155.1628 H   0  0  0  0  0  0  0  0  0  0  0  0
  151.7940  142.4006  155.7445 H   0  0  0  0  0  0  0  0  0  0  0  0
  150.0975  142.4443  156.1932 H   0  0  0  0  0  0  0  0  0  0  0  0
  153.0920  143.8722  157.7502 H   0  0  0  0  0  0  0  0  0  0  0  0
  152.9298  143.5612  160.4954 H   0  0  0  0  0  0  0  0  0  0  0  0
  147.1380  139.1948  152.3539 H   0  0  0  0  0  0  0  0  0  0  0  0
  1  2  1  0  0  0  0
  1 14  1  0  0  0  0
  1 15  1  0  0  0  0
  1 24  1  0  0  0  0
  2  3  1  0  0  0  0
  2 16  1  0  0  0  0
  2 17  1  0  0  0  0
  3  4  1  0  0  0  0
  3 18  1  0  0  0  0
  3 19  1  0  0  0  0
  4  5  1  0  0  0  0
  5  6  2  0  0  0  0
  5  7  2  0  0  0  0
  5  8  1  0  0  0  0
  8  9  1  0  0  0  0
  8 20  1  0  0  0  0
  8 21  1  0  0  0  0
  9 13  2  0  0  0  0
  9 10  1  0  0  0  0
 10 11  2  0  0  0  0
 10 22  1  0  0  0  0
 11 12  1  0  0  0  0
 11 23  1  0  0  0  0
 12 13  1  0  0  0  0
M  CHG  1   1   1
M  CHG  1   4  -1
M  END
> <s_m_source_file>
AV-unprocessed.smi

> <i_m_source_file_index>
742

> <i_lp_mmshare_version>
43012

> <i_f3d_flags>
0

> <s_epik_input>
W05IMl1bQ0gyXVtDSDJdW05IXVMoPU8pKD1PKVtDSDJdYzFbY0hdW2NIXW9uMQ==

> <s_epik_cmdline>
J2VwaWtfcHl0aG9uJywgJy1waCcsICc3LjAnLCAnLXRuJywgJzgnLCAnLW1hJywgJzIwMCcsICctbWV0YWxfYmluZGluZycsICctaW1hZScsICc8aW5maWxlLm1hZT4nLCAnLW9tYWUnLCAnPG91dGZpbGUubWFlPic=

> <r_lp_tautomer_probability>
1

> <r_epik_Ionization_Penalty>
3.53052

> <r_epik_Ionization_Penalty_Charging>
3.53052

> <r_epik_Ionization_Penalty_Neutral>
1.92474e-10

> <r_epik_State_Penalty>
3.52863

> <r_epik_Charging_Adjusted_Penalty>
7.05915

> <i_epik_Tot_Q>
0

> <i_epik_Tot_abs_Q>
2

> <r_epik_Metal_State_Penalty>
0.514327

> <b_epik_Metal_Only>
1

> <s_lp_Force_Field>
OPLS_2005

> <r_lp_Energy>
-11.204

> <b_lp_Chiralities_Consistent>
1

> <s_lp_Variant>
AV-unprocessed.smi:742-2

> <Gold.Version>
5.8.1

> <Gold.Id.Protein>
6NUR|6NUR_protein|mol2

> <Gold.PLP.Fitness>
39.6428

> <Gold.PLP.PLP>
-25.4621

> <Gold.PLP.part.hbond>
-4.7991

> <Gold.PLP.part.metal>
0.0000

> <Gold.PLP.part.buried>
-4.2575

> <Gold.PLP.part.nonpolar>
-16.4769

> <Gold.PLP.part.repulsive>
0.1623

> <Gold.PLP.ligand.clash>
0.0000

> <Gold.PLP.ligand.torsion>
0.9221

> <Gold.PLP.Chemscore.Hbond>
5.0000

> <Gold.PLP.Chemscore.CHOScore>
0.0000

> <Gold.PLP.Chemscore.Metal>
0.0000

> <Gold.Chemscore.Hbonds>
donor molecule, donor type, donor heavy atom, donor atom, acceptor molecule, acceptor atom, score
      L1  H     1    14       P1  7948  0.81
      L1  H     1    15       P1  7957  0.70
      P1  H  7989  7998       L1     4  1.00
      P1  H  7997  8009       L1     7  0.94

> <Gold.PLP.Chemscore.Internal.Correction>
1.0248

> <Gold.Rescore>
     Score         DG    S(hbond)    S(metal)    S(lipo)     H(rot)  DE(clash)    DE(int)     intcor
     14.62     -16.88       3.29        0.00      52.22       2.23       0.02       2.24       ----

> <Gold.Chemscore.Fitness>
14.6218

> <Gold.Chemscore.DG>
-16.8794

> <Gold.Chemscore.ZeroCoef>
-5.4800

> <Gold.Chemscore.Hbond>
3.2930

> <Gold.Chemscore.Metal>
0.0000

> <Gold.Chemscore.Lipo>
52.2250

> <Gold.Chemscore.Internal_Hbond>
0.0000

> <Gold.Chemscore.DEClash>
0.0208

> <Gold.Chemscore.DEInternal>
2.2368

> <Gold.Chemscore.Rot>
2.2303

> <Gold.Chemscore.Internal.Correction>
   9.000000E+99

> <Gold.Chemscore.Hbonds>
donor molecule, donor type, donor heavy atom, donor atom, acceptor molecule, acceptor atom, score
      L1  H     1    14       P1  7948  0.40
      L1  H     1    15       P1  7957  0.67
      P1  H  7989  7998       L1     4  0.35
      P1  H  7997  8009       L1     7  0.90

> <Gold.Chemscore.Hbond.Weighted>
-10.9985

> <Gold.Chemscore.Metal.Weighted>
-0.0000

> <Gold.Chemscore.Lipo.Weighted>
-6.1103

> <Gold.Chemscore.Internal_Hbond.Weighted>
0.0000

> <Gold.Chemscore.DEClash.Weighted>
0.0208

> <Gold.Chemscore.DEInternal.Weighted>
2.2368

> <Gold.Chemscore.Rot.Weighted>
5.7094

> <Gold.Chemscore.Internal.Correction.Weighted>
   9.000000E+99

> <Gold.Protein.RotatedTorsions>
[ 6907 6896 6895 6894 ] final  -48.56 input  -60.11 | X-H torsion
[ 7974 7965 7964 7962 ] final  -79.83 input  175.53 | X-H torsion
[ 8008 7997 7996 7995 ] final -174.37 input   59.86 | X-H torsion
[ 10167 10162 10161 10158 ] final -125.61 input  -65.29 | X-H torsion
[ 10718 10713 10712 10709 ] final  145.16 input   66.30 | X-H torsion
[ 10763 10752 10751 10750 ] final  -51.33 input  -60.55 | X-H torsion
[ 11005 11000 10999 10996 ] final -135.42 input  -57.11 | X-H torsion

> <Gold.Protein.ActiveResidues>
 VAL166  LYS551  ARG553  GLY616  TRP617  ASP618  TYR619  PRO620  LYS621  CYS622 
 ASP623  PHE694  ASN695  SER759  ASP760  ASP761  ALA762  ILE779  LEU786  VAL792 
 PHE793  MET794  SER795  GLU796  ALA797  LYS798  CYS799  TRP800  GLU811  SER814 

> <Gold.Protein.RotatedAtoms>
  150.8893  134.8295  159.7281 H   0  0  0  0  0  0  0  0  0  0  0  0  # atno 6907 bound_to 6896
  152.4827  134.4673  159.9634 H   0  0  0  0  0  0  0  0  0  0  0  0  # atno 6908 bound_to 6896
  151.4737  133.3524  159.2863 H   0  0  0  0  0  0  0  0  0  0  0  0  # atno 6909 bound_to 6896
  145.5681  140.9471  143.1411 H   0  0  0  0  0  0  0  0  0  0  0  0  # atno 7974 bound_to 7965
  155.9692  140.1159  157.0827 H   0  0  0  0  0  0  0  0  0  0  0  0  # atno 8008 bound_to 7997
  154.4152  140.1166  156.5351 H   0  0  0  0  0  0  0  0  0  0  0  0  # atno 8009 bound_to 7997
  155.6618  140.3473  155.4788 H   0  0  0  0  0  0  0  0  0  0  0  0  # atno 8010 bound_to 7997
  139.9802  143.5750  152.2381 H   0  0  0  0  0  0  0  0  0  0  0  0  # atno 10167 bound_to 10162
  157.3486  131.0947  151.1020 H   0  0  0  0  0  0  0  0  0  0  0  0  # atno 10718 bound_to 10713
  154.1248  135.6529  153.4910 H   0  0  0  0  0  0  0  0  0  0  0  0  # atno 10763 bound_to 10752
  153.0214  135.5279  154.7060 H   0  0  0  0  0  0  0  0  0  0  0  0  # atno 10764 bound_to 10752
  154.6278  135.2972  155.0222 H   0  0  0  0  0  0  0  0  0  0  0  0  # atno 10765 bound_to 10752
  140.8899  134.1824  157.4534 H   0  0  0  0  0  0  0  0  0  0  0  0  # atno 11005 bound_to 11000
  144.7451  139.7342  143.7295 LP  0  0  0  0  0  0  0  0  0  0  0  0  # atno 17320 bound_to 7965
  146.1804  139.4994  142.9870 LP  0  0  0  0  0  0  0  0  0  0  0  0  # atno 17321 bound_to 7965
  139.6415  144.7655  151.2329 LP  0  0  0  0  0  0  0  0  0  0  0  0  # atno 17342 bound_to 10162
  140.7491  143.6309  150.8424 LP  0  0  0  0  0  0  0  0  0  0  0  0  # atno 17343 bound_to 10162
  157.2204  130.6478  149.5809 LP  0  0  0  0  0  0  0  0  0  0  0  0  # atno 17370 bound_to 10713
  155.9718  130.4631  150.6170 LP  0  0  0  0  0  0  0  0  0  0  0  0  # atno 17371 bound_to 10713
  139.8728  134.9854  156.5280 LP  0  0  0  0  0  0  0  0  0  0  0  0  # atno 17394 bound_to 11000
  140.8359  133.8243  155.9028 LP  0  0  0  0  0  0  0  0  0  0  0  0  # atno 17395 bound_to 11000

$$$$
