AV-unprocessed.smi:170|AV-procd|sdf|1412|dock6
  -GOLD-   2262019173D 1   1.00000     0.00000
 Structure written by MMmdl.
 57 61  0  0  0  0  0  0  0  0  1 V2000
  146.2740  133.4656  153.4909 O   0  0  0  0  0  0  0  0  0  0  0  0
  146.9022  132.5828  152.5797 C   0  0  2  0  0  0  0  0  0  0  0  0
  148.4233  132.8274  152.5368 C   0  0  0  0  0  0  0  0  0  0  0  0
  149.0884  132.3692  153.7436 N   0  0  0  0  0  0  0  0  0  0  0  0
  148.9946  131.1180  154.3103 C   0  0  0  0  0  0  0  0  0  0  0  0
  149.6811  130.9513  155.4082 N   0  0  0  0  0  0  0  0  0  0  0  0
  150.2927  132.1822  155.6113 C   0  0  0  0  0  0  0  0  0  0  0  0
  151.1593  132.6994  156.6099 C   0  0  0  0  0  0  0  0  0  0  0  0
  151.5826  131.9411  157.6491 N   0  0  0  0  0  0  0  0  0  0  0  0
  150.4423  131.5349  158.4637 C   0  0  0  0  0  0  0  0  0  0  0  0
  150.9175  130.8262  159.7379 C   0  0  0  0  0  0  0  0  0  0  0  0
  151.7271  129.7184  159.3705 O   0  0  0  0  0  0  0  0  0  0  0  0
  152.8964  130.1282  158.6717 C   0  0  0  0  0  0  0  0  0  0  0  0
  152.5243  130.8511  157.3546 C   0  0  2  0  0  0  0  0  0  0  0  0
  153.7933  131.3572  156.6180 C   0  0  0  0  0  0  0  0  0  0  0  0
  154.6556  130.2471  156.0193 C   0  0  0  0  0  0  0  0  0  0  0  0
  155.8516  130.6101  155.1265 C   0  0  0  0  0  0  0  0  0  0  0  0
  155.5588  129.3525  154.3032 C   0  0  0  0  0  0  0  0  0  0  0  0
  154.1265  129.4154  154.8406 C   0  0  0  0  0  0  0  0  0  0  0  0
  151.5849  133.9844  156.4774 N   0  0  0  0  0  0  0  0  0  0  0  0
  151.1699  134.7223  155.4431 C   0  0  0  0  0  0  0  0  0  0  0  0
  150.3524  134.3774  154.4453 N   0  0  0  0  0  0  0  0  0  0  0  0
  149.9360  133.0843  154.5709 C   0  0  0  0  0  0  0  0  0  0  0  0
  146.2353  132.6849  151.1926 C   0  0  1  0  0  0  0  0  0  0  0  0
  145.0124  131.7775  150.9757 C   0  0  0  0  0  0  0  0  0  0  0  0
  143.8756  132.7586  150.7615 C   0  0  0  0  0  0  0  0  0  0  0  0
  144.5977  133.9714  150.1906 C   0  0  0  0  0  0  0  0  0  0  0  0
  145.7972  134.0196  150.9465 O   0  0  0  0  0  0  0  0  0  0  0  0
  146.5607  134.3455  153.2980 H   0  0  0  0  0  0  0  0  0  0  0  0
  146.7284  131.5751  152.9596 H   0  0  0  0  0  0  0  0  0  0  0  0
  148.8646  132.3084  151.6850 H   0  0  0  0  0  0  0  0  0  0  0  0
  148.6402  133.8878  152.4014 H   0  0  0  0  0  0  0  0  0  0  0  0
  148.3919  130.3296  153.8833 H   0  0  0  0  0  0  0  0  0  0  0  0
  149.8405  132.4046  158.7327 H   0  0  0  0  0  0  0  0  0  0  0  0
  149.8019  130.8669  157.8853 H   0  0  0  0  0  0  0  0  0  0  0  0
  151.4742  131.5079  160.3829 H   0  0  0  0  0  0  0  0  0  0  0  0
  150.0619  130.4685  160.3108 H   0  0  0  0  0  0  0  0  0  0  0  0
  153.5038  130.7706  159.3118 H   0  0  0  0  0  0  0  0  0  0  0  0
  153.4860  129.2348  158.4686 H   0  0  0  0  0  0  0  0  0  0  0  0
  152.0114  130.1317  156.7145 H   0  0  0  0  0  0  0  0  0  0  0  0
  153.5129  132.0401  155.8167 H   0  0  0  0  0  0  0  0  0  0  0  0
  154.3939  131.9523  157.3067 H   0  0  0  0  0  0  0  0  0  0  0  0
  155.0094  129.5663  156.7957 H   0  0  0  0  0  0  0  0  0  0  0  0
  155.6962  131.5288  154.5582 H   0  0  0  0  0  0  0  0  0  0  0  0
  156.8169  130.6100  155.6336 H   0  0  0  0  0  0  0  0  0  0  0  0
  155.6490  129.4804  153.2241 H   0  0  0  0  0  0  0  0  0  0  0  0
  156.1061  128.4772  154.6568 H   0  0  0  0  0  0  0  0  0  0  0  0
  153.6979  128.4520  155.1188 H   0  0  0  0  0  0  0  0  0  0  0  0
  153.4569  129.9807  154.1902 H   0  0  0  0  0  0  0  0  0  0  0  0
  151.5476  135.7337  155.4097 H   0  0  0  0  0  0  0  0  0  0  0  0
  146.9787  132.4456  150.4306 H   0  0  0  0  0  0  0  0  0  0  0  0
  145.1563  131.1740  150.0783 H   0  0  0  0  0  0  0  0  0  0  0  0
  144.8196  131.0932  151.8025 H   0  0  0  0  0  0  0  0  0  0  0  0
  143.0965  132.3749  150.1024 H   0  0  0  0  0  0  0  0  0  0  0  0
  143.4192  133.0154  151.7185 H   0  0  0  0  0  0  0  0  0  0  0  0
  144.8356  133.8225  149.1360 H   0  0  0  0  0  0  0  0  0  0  0  0
  144.0224  134.8922  150.2894 H   0  0  0  0  0  0  0  0  0  0  0  0
  1  2  1  0  0  0  0
  1 29  1  0  0  0  0
  2  3  1  0  0  0  0
  2 24  1  0  0  0  0
  2 30  1  0  0  0  0
  3  4  1  0  0  0  0
  3 31  1  0  0  0  0
  3 32  1  0  0  0  0
  4 23  1  0  0  0  0
  4  5  1  0  0  0  0
  5  6  2  0  0  0  0
  5 33  1  0  0  0  0
  6  7  1  0  0  0  0
  7 23  2  0  0  0  0
  7  8  1  0  0  0  0
  8  9  1  0  0  0  0
  8 20  2  0  0  0  0
  9 14  1  0  0  0  0
  9 10  1  0  0  0  0
 10 11  1  0  0  0  0
 10 34  1  0  0  0  0
 10 35  1  0  0  0  0
 11 12  1  0  0  0  0
 11 36  1  0  0  0  0
 11 37  1  0  0  0  0
 12 13  1  0  0  0  0
 13 14  1  0  0  0  0
 13 38  1  0  0  0  0
 13 39  1  0  0  0  0
 14 15  1  0  0  0  0
 14 40  1  0  0  0  0
 15 16  1  0  0  0  0
 15 41  1  0  0  0  0
 15 42  1  0  0  0  0
 16 19  1  0  0  0  0
 16 17  1  0  0  0  0
 16 43  1  0  0  0  0
 17 18  1  0  0  0  0
 17 44  1  0  0  0  0
 17 45  1  0  0  0  0
 18 19  1  0  0  0  0
 18 46  1  0  0  0  0
 18 47  1  0  0  0  0
 19 48  1  0  0  0  0
 19 49  1  0  0  0  0
 20 21  1  0  0  0  0
 21 22  2  0  0  0  0
 21 50  1  0  0  0  0
 22 23  1  0  0  0  0
 24 28  1  0  0  0  0
 24 25  1  0  0  0  0
 24 51  1  0  0  0  0
 25 26  1  0  0  0  0
 25 52  1  0  0  0  0
 25 53  1  0  0  0  0
 26 27  1  0  0  0  0
 26 54  1  0  0  0  0
 26 55  1  0  0  0  0
 27 28  1  0  0  0  0
 27 56  1  0  0  0  0
 27 57  1  0  0  0  0
M  END
> <s_m_source_file>
AV-unprocessed.smi

> <i_m_source_file_index>
170

> <i_lp_mmshare_version>
43012

> <i_f3d_flags>
0

> <s_epik_input>
TzFbQ0gyXVtDSDJdW0NIMl1bQ0BIXTFbQ0BIXShbT0hdKVtDSDJdbihbY0hdbjIpYyhjMjMpbltjSF1uYzNONFtDSDJdW0NIMl1PW0NIMl1bQ0BIXTRbQ0gyXVtDSF01W0NIMl1bQ0gyXVtDSDJdNQ==

> <s_epik_cmdline>
J2VwaWtfcHl0aG9uJywgJy1waCcsICc3LjAnLCAnLXRuJywgJzgnLCAnLW1hJywgJzIwMCcsICctbWV0YWxfYmluZGluZycsICctaW1hZScsICc8aW5maWxlLm1hZT4nLCAnLW9tYWUnLCAnPG91dGZpbGUubWFlPic=

> <r_lp_tautomer_probability>
1

> <r_epik_Ionization_Penalty>
4.98275e-05

> <r_epik_Ionization_Penalty_Charging>
0

> <r_epik_Ionization_Penalty_Neutral>
4.98275e-05

> <r_epik_State_Penalty>
-0

> <r_epik_Charging_Adjusted_Penalty>
0

> <i_epik_Tot_Q>
0

> <i_epik_Tot_abs_Q>
0

> <r_epik_Metal_State_Penalty>
-0

> <b_epik_Metal_Only>
0

> <s_lp_Force_Field>
OPLS_2005

> <r_lp_Energy>
52.9545

> <b_lp_Chiralities_Consistent>
1

> <s_lp_Variant>
AV-unprocessed.smi:170-7

> <Gold.Version>
5.8.1

> <Gold.Id.Protein>
6NUR|6NUR_protein|mol2

> <Gold.PLP.Fitness>
42.9754

> <Gold.PLP.PLP>
-42.6903

> <Gold.PLP.part.hbond>
-1.7909

> <Gold.PLP.part.metal>
0.0000

> <Gold.PLP.part.buried>
-5.9653

> <Gold.PLP.part.nonpolar>
-35.4219

> <Gold.PLP.part.repulsive>
0.2921

> <Gold.PLP.ligand.clash>
0.0000

> <Gold.PLP.ligand.torsion>
1.0551

> <Gold.PLP.Chemscore.Hbond>
0.6939

> <Gold.PLP.Chemscore.CHOScore>
0.0000

> <Gold.PLP.Chemscore.Metal>
0.0000

> <Gold.PLP.Chemscore.Internal.Correction>
0.3138

> <Gold.Rescore>
     Score         DG    S(hbond)    S(metal)    S(lipo)     H(rot)  DE(clash)    DE(int)     intcor
      8.88      -9.86       0.01        0.00      94.34       2.61       0.00       0.98       ----

> <Gold.Chemscore.Fitness>
8.8786

> <Gold.Chemscore.DG>
-9.8619

> <Gold.Chemscore.ZeroCoef>
-5.4800

> <Gold.Chemscore.Hbond>
0.0111

> <Gold.Chemscore.Metal>
0.0000

> <Gold.Chemscore.Lipo>
94.3393

> <Gold.Chemscore.Internal_Hbond>
0.0000

> <Gold.Chemscore.DEClash>
0.0000

> <Gold.Chemscore.DEInternal>
0.9832

> <Gold.Chemscore.Rot>
2.6144

> <Gold.Chemscore.Internal.Correction>
   9.000000E+99

> <Gold.Chemscore.Hbond.Weighted>
-0.0371

> <Gold.Chemscore.Metal.Weighted>
-0.0000

> <Gold.Chemscore.Lipo.Weighted>
-11.0377

> <Gold.Chemscore.Internal_Hbond.Weighted>
0.0000

> <Gold.Chemscore.DEClash.Weighted>
0.0000

> <Gold.Chemscore.DEInternal.Weighted>
0.9832

> <Gold.Chemscore.Rot.Weighted>
6.6929

> <Gold.Chemscore.Internal.Correction.Weighted>
   9.000000E+99

> <Gold.Protein.RotatedTorsions>
[ 6907 6896 6895 6894 ] final   58.71 input  -60.11 | X-H torsion
[ 7974 7965 7964 7962 ] final  158.52 input  175.53 | X-H torsion
[ 8008 7997 7996 7995 ] final -178.95 input   59.86 | X-H torsion
[ 10167 10162 10161 10158 ] final -141.11 input  -65.29 | X-H torsion
[ 10718 10713 10712 10709 ] final  -38.87 input   66.30 | X-H torsion
[ 10763 10752 10751 10750 ] final  134.73 input  -60.55 | X-H torsion
[ 11005 11000 10999 10996 ] final  -81.77 input  -57.11 | X-H torsion

> <Gold.Protein.ActiveResidues>
 VAL166  LYS551  ARG553  GLY616  TRP617  ASP618  TYR619  PRO620  LYS621  CYS622 
 ASP623  PHE694  ASN695  SER759  ASP760  ASP761  ALA762  ILE779  LEU786  VAL792 
 PHE793  MET794  SER795  GLU796  ALA797  LYS798  CYS799  TRP800  GLU811  SER814 

> <Gold.Protein.RotatedAtoms>
  152.3849  134.6533  160.0129 H   0  0  0  0  0  0  0  0  0  0  0  0  # atno 6907 bound_to 6896
  151.6785  133.3307  159.3221 H   0  0  0  0  0  0  0  0  0  0  0  0  # atno 6908 bound_to 6896
  150.7777  134.6738  159.6451 H   0  0  0  0  0  0  0  0  0  0  0  0  # atno 6909 bound_to 6896
  144.7841  139.7489  143.6248 H   0  0  0  0  0  0  0  0  0  0  0  0  # atno 7974 bound_to 7965
  156.0248  140.1269  157.0320 H   0  0  0  0  0  0  0  0  0  0  0  0  # atno 8008 bound_to 7997
  154.4326  140.1061  156.6085 H   0  0  0  0  0  0  0  0  0  0  0  0  # atno 8009 bound_to 7997
  155.5892  140.3469  155.4564 H   0  0  0  0  0  0  0  0  0  0  0  0  # atno 8010 bound_to 7997
  139.8216  143.7566  152.2666 H   0  0  0  0  0  0  0  0  0  0  0  0  # atno 10167 bound_to 10162
  156.2989  130.4237  149.8163 H   0  0  0  0  0  0  0  0  0  0  0  0  # atno 10718 bound_to 10713
  153.8283  135.3107  155.3416 H   0  0  0  0  0  0  0  0  0  0  0  0  # atno 10763 bound_to 10752
  154.7984  135.4742  154.0218 H   0  0  0  0  0  0  0  0  0  0  0  0  # atno 10764 bound_to 10752
  153.1650  135.6867  153.8779 H   0  0  0  0  0  0  0  0  0  0  0  0  # atno 10765 bound_to 10752
  141.1665  133.7212  156.8472 H   0  0  0  0  0  0  0  0  0  0  0  0  # atno 11005 bound_to 11000
  146.2064  139.5392  142.9709 LP  0  0  0  0  0  0  0  0  0  0  0  0  # atno 17320 bound_to 7965
  145.5969  141.0361  143.2039 LP  0  0  0  0  0  0  0  0  0  0  0  0  # atno 17321 bound_to 7965
  139.7746  144.7465  151.0175 LP  0  0  0  0  0  0  0  0  0  0  0  0  # atno 17342 bound_to 10162
  140.7813  143.4608  151.0281 LP  0  0  0  0  0  0  0  0  0  0  0  0  # atno 17343 bound_to 10162
  156.5548  130.8358  151.3311 LP  0  0  0  0  0  0  0  0  0  0  0  0  # atno 17370 bound_to 10713
  157.7363  130.9776  150.2127 LP  0  0  0  0  0  0  0  0  0  0  0  0  # atno 17371 bound_to 10713
  140.1941  134.8944  157.3095 LP  0  0  0  0  0  0  0  0  0  0  0  0  # atno 17394 bound_to 11000
  140.2258  134.3969  155.7544 LP  0  0  0  0  0  0  0  0  0  0  0  0  # atno 17395 bound_to 11000

$$$$
