AV-unprocessed.smi:1419|AV-procd|sdf|5775|dock9
  -GOLD-   22720 5423D 1   1.00000     0.00000
 Structure written by MMmdl.
 42 43  0  0  0  0  0  0  0  0  2 V2000
  148.1338  141.7021  156.5800 C   0  0  0  0  0  0  0  0  0  0  0  0
  149.5047  141.0195  156.4847 C   0  0  1  0  0  0  0  0  0  0  0  0
  149.9787  140.9143  155.0191 C   0  0  0  0  0  0  0  0  0  0  0  0
  150.6732  139.6537  154.7333 N   0  0  0  0  0  0  0  0  0  0  0  0
  151.8596  139.2203  155.2670 C   0  0  0  0  0  0  0  0  0  0  0  0
  152.1250  138.0038  154.6926 C   0  0  0  0  0  0  0  0  0  0  0  0
  151.0880  137.7439  153.8371 N   0  3  0  0  0  0  0  0  0  0  0  0
  150.2031  138.7455  153.8675 C   0  0  0  0  0  0  0  0  0  0  0  0
  150.4670  141.7723  157.2881 N   0  0  0  0  0  0  0  0  0  0  0  0
  151.2760  141.2623  158.2338 C   0  0  0  0  0  0  0  0  0  0  0  0
  151.2263  140.0792  158.5729 O   0  0  0  0  0  0  0  0  0  0  0  0
  152.1426  142.1526  158.7757 N   0  0  0  0  0  0  0  0  0  0  0  0
  153.1706  141.8653  159.7849 C   0  0  0  0  0  0  0  0  0  0  0  0
  152.6494  142.3666  161.1470 C   0  0  1  0  0  0  0  0  0  0  0  0
  153.6692  142.1576  162.2714 C   0  0  0  0  0  0  0  0  0  0  0  0
  152.3682  143.7634  161.0536 O   0  0  0  0  0  0  0  0  0  0  0  0
  151.4197  144.1004  160.0405 C   0  0  1  0  0  0  0  0  0  0  0  0
  151.2148  145.6187  160.0611 C   0  0  0  0  0  0  0  0  0  0  0  0
  151.9386  143.5991  158.6772 C   0  0  0  0  0  0  0  0  0  0  0  0
  147.3816  141.1519  156.0137 H   0  0  0  0  0  0  0  0  0  0  0  0
  148.1667  142.7190  156.1874 H   0  0  0  0  0  0  0  0  0  0  0  0
  147.7919  141.7545  157.6142 H   0  0  0  0  0  0  0  0  0  0  0  0
  149.3908  140.0124  156.8902 H   0  0  0  0  0  0  0  0  0  0  0  0
  149.1259  140.9708  154.3412 H   0  0  0  0  0  0  0  0  0  0  0  0
  150.6407  141.7435  154.7632 H   0  0  0  0  0  0  0  0  0  0  0  0
  152.4164  139.7989  155.9900 H   0  0  0  0  0  0  0  0  0  0  0  0
  152.9533  137.3227  154.8240 H   0  0  0  0  0  0  0  0  0  0  0  0
  149.2949  138.8123  153.2949 H   0  0  0  0  0  0  0  0  0  0  0  0
  150.5521  142.7575  157.0841 H   0  0  0  0  0  0  0  0  0  0  0  0
  153.4420  140.8116  159.8504 H   0  0  0  0  0  0  0  0  0  0  0  0
  154.0916  142.3866  159.5189 H   0  0  0  0  0  0  0  0  0  0  0  0
  151.7307  141.8374  161.4067 H   0  0  0  0  0  0  0  0  0  0  0  0
  153.9081  141.1009  162.3939 H   0  0  0  0  0  0  0  0  0  0  0  0
  153.2808  142.5229  163.2224 H   0  0  0  0  0  0  0  0  0  0  0  0
  154.5983  142.6897  162.0648 H   0  0  0  0  0  0  0  0  0  0  0  0
  150.4686  143.6174  160.2726 H   0  0  0  0  0  0  0  0  0  0  0  0
  150.4834  145.9263  159.3134 H   0  0  0  0  0  0  0  0  0  0  0  0
  152.1472  146.1455  159.8546 H   0  0  0  0  0  0  0  0  0  0  0  0
  150.8536  145.9500  161.0350 H   0  0  0  0  0  0  0  0  0  0  0  0
  152.8829  144.0848  158.4260 H   0  0  0  0  0  0  0  0  0  0  0  0
  151.2425  143.8712  157.8820 H   0  0  0  0  0  0  0  0  0  0  0  0
  151.0017  136.9145  153.2628 H   0  0  0  0  0  0  0  0  0  0  0  0
  1  2  1  0  0  0  0
  1 20  1  0  0  0  0
  1 21  1  0  0  0  0
  1 22  1  0  0  0  0
  2  3  1  0  0  0  0
  2  9  1  0  0  0  0
  2 23  1  0  0  0  0
  3  4  1  0  0  0  0
  3 24  1  0  0  0  0
  3 25  1  0  0  0  0
  4  8  1  0  0  0  0
  4  5  1  0  0  0  0
  5  6  2  0  0  0  0
  5 26  1  0  0  0  0
  6  7  1  0  0  0  0
  6 27  1  0  0  0  0
  7  8  2  0  0  0  0
  7 42  1  0  0  0  0
  8 28  1  0  0  0  0
  9 10  1  0  0  0  0
  9 29  1  0  0  0  0
 10 11  2  0  0  0  0
 10 12  1  0  0  0  0
 12 19  1  0  0  0  0
 12 13  1  0  0  0  0
 13 14  1  0  0  0  0
 13 30  1  0  0  0  0
 13 31  1  0  0  0  0
 14 15  1  0  0  0  0
 14 16  1  0  0  0  0
 14 32  1  0  0  0  0
 15 33  1  0  0  0  0
 15 34  1  0  0  0  0
 15 35  1  0  0  0  0
 16 17  1  0  0  0  0
 17 18  1  0  0  0  0
 17 19  1  0  0  0  0
 17 36  1  0  0  0  0
 18 37  1  0  0  0  0
 18 38  1  0  0  0  0
 18 39  1  0  0  0  0
 19 40  1  0  0  0  0
 19 41  1  0  0  0  0
M  CHG  1   7   1
M  END
> <s_m_source_file>
AV-unprocessed.smi

> <i_m_source_file_index>
1419

> <i_lp_mmshare_version>
43012

> <i_f3d_flags>
0

> <s_epik_input>
W2NIXTFuW2NIXVtjSF1uMVtDSDJdW0NAQEhdKFtDSDNdKVtOSF1DKD1PKU4yW0NIMl1bQ0BASF0oW0NIM10pT1tDQEBIXShbQ0gzXSlbQ0gyXTI=

> <s_epik_cmdline>
J2VwaWtfcHl0aG9uJywgJy1waCcsICc3LjAnLCAnLXRuJywgJzgnLCAnLW1hJywgJzIwMCcsICctbWV0YWxfYmluZGluZycsICctaW1hZScsICc8aW5maWxlLm1hZT4nLCAnLW9tYWUnLCAnPG91dGZpbGUubWFlPic=

> <r_lp_tautomer_probability>
1

> <r_epik_Ionization_Penalty>
0.253607

> <r_epik_Ionization_Penalty_Charging>
0

> <r_epik_Ionization_Penalty_Neutral>
0.253607

> <r_epik_State_Penalty>
0.245018

> <r_epik_Charging_Adjusted_Penalty>
0.245018

> <i_epik_Tot_Q>
1

> <i_epik_Tot_abs_Q>
1

> <r_epik_Metal_State_Penalty>
0.535379

> <b_epik_Metal_Only>
0

> <s_lp_Force_Field>
OPLS_2005

> <r_lp_Energy>
29.1854

> <b_lp_Chiralities_Consistent>
1

> <s_lp_Variant>
AV-unprocessed.smi:1419-2

> <Gold.Version>
5.8.1

> <Gold.Id.Protein>
6NUR|6NUR_protein|mol2

> <Gold.PLP.Fitness>
49.2794

> <Gold.PLP.PLP>
-43.5853

> <Gold.PLP.part.hbond>
-1.4093

> <Gold.PLP.part.metal>
0.0000

> <Gold.PLP.part.buried>
0.0448

> <Gold.PLP.part.nonpolar>
-40.3991

> <Gold.PLP.part.repulsive>
0.2473

> <Gold.PLP.ligand.clash>
0.8628

> <Gold.PLP.ligand.torsion>
0.6977

> <Gold.PLP.Chemscore.Hbond>
2.0000

> <Gold.PLP.Chemscore.CHOScore>
0.6279

> <Gold.PLP.Chemscore.Metal>
0.0000

> <Gold.Chemscore.Hbonds>
donor molecule, donor type, donor heavy atom, donor atom, acceptor molecule, acceptor atom, score
      L1  H     7    42       P1  7949  2.00
      L1  C     8    28       P1  7957  0.65

> <Gold.PLP.Chemscore.Internal.Correction>
0.0685

> <Gold.Rescore>
     Score         DG    S(hbond)    S(metal)    S(lipo)     H(rot)  DE(clash)    DE(int)     intcor
     14.05     -15.42       0.88        0.00      95.46       1.63       0.64       0.72       ----

> <Gold.Chemscore.Fitness>
14.0517

> <Gold.Chemscore.DG>
-15.4165

> <Gold.Chemscore.ZeroCoef>
-5.4800

> <Gold.Chemscore.Hbond>
0.8784

> <Gold.Chemscore.Metal>
0.0000

> <Gold.Chemscore.Lipo>
95.4576

> <Gold.Chemscore.Internal_Hbond>
0.0000

> <Gold.Chemscore.DEClash>
0.6411

> <Gold.Chemscore.DEInternal>
0.7237

> <Gold.Chemscore.Rot>
1.6273

> <Gold.Chemscore.Internal.Correction>
   9.000000E+99

> <Gold.Chemscore.Hbonds>
donor molecule, donor type, donor heavy atom, donor atom, acceptor molecule, acceptor atom, score
      L1  H     7    42       P1  7949  0.27

> <Gold.Chemscore.Hbond.Weighted>
-2.9338

> <Gold.Chemscore.Metal.Weighted>
-0.0000

> <Gold.Chemscore.Lipo.Weighted>
-11.1685

> <Gold.Chemscore.Internal_Hbond.Weighted>
0.0000

> <Gold.Chemscore.DEClash.Weighted>
0.6411

> <Gold.Chemscore.DEInternal.Weighted>
0.7237

> <Gold.Chemscore.Rot.Weighted>
4.1658

> <Gold.Chemscore.Internal.Correction.Weighted>
   9.000000E+99

> <Gold.Protein.RotatedTorsions>
[ 6907 6896 6895 6894 ] final   60.21 input  -60.11 | X-H torsion
[ 7974 7965 7964 7962 ] final  -90.38 input  175.53 | X-H torsion
[ 8008 7997 7996 7995 ] final    9.91 input   59.86 | X-H torsion
[ 10167 10162 10161 10158 ] final  167.17 input  -65.29 | X-H torsion
[ 10718 10713 10712 10709 ] final  113.54 input   66.30 | X-H torsion
[ 10763 10752 10751 10750 ] final  145.06 input  -60.55 | X-H torsion
[ 11005 11000 10999 10996 ] final -145.70 input  -57.11 | X-H torsion

> <Gold.Protein.ActiveResidues>
 VAL166  LYS551  ARG553  GLY616  TRP617  ASP618  TYR619  PRO620  LYS621  CYS622 
 ASP623  PHE694  ASN695  SER759  ASP760  ASP761  ALA762  ILE779  LEU786  VAL792 
 PHE793  MET794  SER795  GLU796  ALA797  LYS798  CYS799  TRP800  GLU811  SER814 

> <Gold.Protein.RotatedAtoms>
  152.3983  134.6328  160.0079 H   0  0  0  0  0  0  0  0  0  0  0  0  # atno 6907 bound_to 6896
  151.6541  133.3314  159.3167 H   0  0  0  0  0  0  0  0  0  0  0  0  # atno 6908 bound_to 6896
  150.7887  134.6937  159.6555 H   0  0  0  0  0  0  0  0  0  0  0  0  # atno 6909 bound_to 6896
  145.4272  140.9554  143.2148 H   0  0  0  0  0  0  0  0  0  0  0  0  # atno 7974 bound_to 7965
  154.7863  140.2828  155.6025 H   0  0  0  0  0  0  0  0  0  0  0  0  # atno 8008 bound_to 7997
  156.2958  140.2613  156.2628 H   0  0  0  0  0  0  0  0  0  0  0  0  # atno 8009 bound_to 7997
  154.9724  140.0376  157.2230 H   0  0  0  0  0  0  0  0  0  0  0  0  # atno 8010 bound_to 7997
  139.4940  144.3949  151.9475 H   0  0  0  0  0  0  0  0  0  0  0  0  # atno 10167 bound_to 10162
  157.6332  131.0985  150.7056 H   0  0  0  0  0  0  0  0  0  0  0  0  # atno 10718 bound_to 10713
  153.9992  135.2925  155.3404 H   0  0  0  0  0  0  0  0  0  0  0  0  # atno 10763 bound_to 10752
  154.7169  135.5126  153.8755 H   0  0  0  0  0  0  0  0  0  0  0  0  # atno 10764 bound_to 10752
  153.0774  135.6668  154.0236 H   0  0  0  0  0  0  0  0  0  0  0  0  # atno 10765 bound_to 10752
  140.7895  134.2985  157.5018 H   0  0  0  0  0  0  0  0  0  0  0  0  # atno 11005 bound_to 11000
  144.8206  139.5798  143.6988 LP  0  0  0  0  0  0  0  0  0  0  0  0  # atno 17320 bound_to 7965
  146.2626  139.6445  142.9352 LP  0  0  0  0  0  0  0  0  0  0  0  0  # atno 17321 bound_to 7965
  140.3388  144.3229  150.5971 LP  0  0  0  0  0  0  0  0  0  0  0  0  # atno 17342 bound_to 10162
  140.5584  143.2195  151.7808 LP  0  0  0  0  0  0  0  0  0  0  0  0  # atno 17343 bound_to 10162
  156.7392  130.4733  149.5481 LP  0  0  0  0  0  0  0  0  0  0  0  0  # atno 17370 bound_to 10713
  156.1551  130.6336  151.0646 LP  0  0  0  0  0  0  0  0  0  0  0  0  # atno 17371 bound_to 10713
  139.8733  134.9366  156.3665 LP  0  0  0  0  0  0  0  0  0  0  0  0  # atno 17394 bound_to 11000
  140.9403  133.7519  156.0138 LP  0  0  0  0  0  0  0  0  0  0  0  0  # atno 17395 bound_to 11000

$$$$
