AV-unprocessed.smi:3028|AV-procd|sdf|11522|dock6
  -GOLD-   2272016463D 1   1.00000     0.00000
 Structure written by MMmdl.
 47 48  0  0  0  0  0  0  0  0  1 V2000
  152.3575  145.6183  159.2194 C   0  0  0  0  0  0  0  0  0  0  0  0
  152.0724  144.1639  158.9809 C   0  0  0  0  0  0  0  0  0  0  0  0
  152.6536  143.0401  159.6333 C   0  0  0  0  0  0  0  0  0  0  0  0
  152.1861  141.8868  159.1857 N   0  0  0  0  0  0  0  0  0  0  0  0
  151.2875  142.2281  158.2369 N   0  0  0  0  0  0  0  0  0  0  0  0
  150.5634  141.1883  157.5145 C   0  0  1  0  0  0  0  0  0  0  0  0
  150.9228  141.2711  156.0188 C   0  0  0  0  0  0  0  0  0  0  0  0
  150.8079  139.7808  158.1304 C   0  0  2  0  0  0  0  0  0  0  0  0
  152.2635  139.3040  157.9838 C   0  0  0  0  0  0  0  0  0  0  0  0
  149.9918  138.7796  157.4464 N   0  0  0  0  0  0  0  0  0  0  0  0
  148.6736  138.5949  158.0686 C   0  0  0  0  0  0  0  0  0  0  0  0
  148.6887  137.5446  159.1902 C   0  0  0  0  0  0  0  0  0  0  0  0
  149.5010  136.6209  159.1607 O   0  0  0  0  0  0  0  0  0  0  0  0
  147.8168  137.6553  160.2070 N   0  0  0  0  0  0  0  0  0  0  0  0
  147.6715  136.7690  161.3597 C   0  0  0  0  0  0  0  0  0  0  0  0
  147.0358  135.4417  160.9200 C   0  0  0  0  0  0  0  0  0  0  0  0
  146.7339  134.5552  162.1393 C   0  0  0  0  0  0  0  0  0  0  0  0
  145.8945  135.2518  163.0542 O   0  0  0  0  0  0  0  0  0  0  0  0
  146.4985  136.4312  163.5740 C   0  0  0  0  0  0  0  0  0  0  0  0
  146.7847  137.4208  162.4338 C   0  0  0  0  0  0  0  0  0  0  0  0
  151.2011  143.5988  158.0938 C   0  0  0  0  0  0  0  0  0  0  0  0
  153.3261  145.7674  159.6964 H   0  0  0  0  0  0  0  0  0  0  0  0
  151.6070  146.0736  159.8653 H   0  0  0  0  0  0  0  0  0  0  0  0
  152.3695  146.1852  158.2883 H   0  0  0  0  0  0  0  0  0  0  0  0
  153.4011  143.0289  160.4127 H   0  0  0  0  0  0  0  0  0  0  0  0
  149.4975  141.4117  157.5946 H   0  0  0  0  0  0  0  0  0  0  0  0
  150.2708  140.6427  155.4126 H   0  0  0  0  0  0  0  0  0  0  0  0
  151.9520  140.9605  155.8368 H   0  0  0  0  0  0  0  0  0  0  0  0
  150.8127  142.2905  155.6473 H   0  0  0  0  0  0  0  0  0  0  0  0
  150.5781  139.8003  159.1973 H   0  0  0  0  0  0  0  0  0  0  0  0
  152.9486  139.9233  158.5627 H   0  0  0  0  0  0  0  0  0  0  0  0
  152.5892  139.3271  156.9431 H   0  0  0  0  0  0  0  0  0  0  0  0
  152.3826  138.2823  158.3469 H   0  0  0  0  0  0  0  0  0  0  0  0
  150.4988  137.9064  157.4202 H   0  0  0  0  0  0  0  0  0  0  0  0
  148.3341  139.5412  158.4912 H   0  0  0  0  0  0  0  0  0  0  0  0
  147.9559  138.3007  157.3061 H   0  0  0  0  0  0  0  0  0  0  0  0
  147.1890  138.4457  160.1786 H   0  0  0  0  0  0  0  0  0  0  0  0
  148.6482  136.5407  161.7884 H   0  0  0  0  0  0  0  0  0  0  0  0
  146.1077  135.6334  160.3793 H   0  0  0  0  0  0  0  0  0  0  0  0
  147.6965  134.9154  160.2305 H   0  0  0  0  0  0  0  0  0  0  0  0
  146.2281  133.6430  161.8225 H   0  0  0  0  0  0  0  0  0  0  0  0
  147.6566  134.2509  162.6360 H   0  0  0  0  0  0  0  0  0  0  0  0
  145.8230  136.8828  164.3006 H   0  0  0  0  0  0  0  0  0  0  0  0
  147.4159  136.1775  164.1070 H   0  0  0  0  0  0  0  0  0  0  0  0
  147.2578  138.3183  162.8302 H   0  0  0  0  0  0  0  0  0  0  0  0
  145.8394  137.7395  161.9918 H   0  0  0  0  0  0  0  0  0  0  0  0
  150.5344  144.0539  157.3764 H   0  0  0  0  0  0  0  0  0  0  0  0
  1  2  1  0  0  0  0
  1 22  1  0  0  0  0
  1 23  1  0  0  0  0
  1 24  1  0  0  0  0
  2 21  2  0  0  0  0
  2  3  1  0  0  0  0
  3  4  2  0  0  0  0
  3 25  1  0  0  0  0
  4  5  1  0  0  0  0
  5  6  1  0  0  0  0
  5 21  1  0  0  0  0
  6  7  1  0  0  0  0
  6  8  1  0  0  0  0
  6 26  1  0  0  0  0
  7 27  1  0  0  0  0
  7 28  1  0  0  0  0
  7 29  1  0  0  0  0
  8  9  1  0  0  0  0
  8 10  1  0  0  0  0
  8 30  1  0  0  0  0
  9 31  1  0  0  0  0
  9 32  1  0  0  0  0
  9 33  1  0  0  0  0
 10 11  1  0  0  0  0
 10 34  1  0  0  0  0
 11 12  1  0  0  0  0
 11 35  1  0  0  0  0
 11 36  1  0  0  0  0
 12 13  2  0  0  0  0
 12 14  1  0  0  0  0
 14 15  1  0  0  0  0
 14 37  1  0  0  0  0
 15 20  1  0  0  0  0
 15 16  1  0  0  0  0
 15 38  1  0  0  0  0
 16 17  1  0  0  0  0
 16 39  1  0  0  0  0
 16 40  1  0  0  0  0
 17 18  1  0  0  0  0
 17 41  1  0  0  0  0
 17 42  1  0  0  0  0
 18 19  1  0  0  0  0
 19 20  1  0  0  0  0
 19 43  1  0  0  0  0
 19 44  1  0  0  0  0
 20 45  1  0  0  0  0
 20 46  1  0  0  0  0
 21 47  1  0  0  0  0
M  END
> <s_m_source_file>
AV-unprocessed.smi

> <i_m_source_file_index>
3028

> <i_lp_mmshare_version>
43012

> <i_f3d_flags>
0

> <s_epik_input>
W0NIM11jMVtjSF1ubihbY0hdMSlbQ0BIXShbQ0gzXSlbQ0BIXShbQ0gzXSlbTkhdW0NIMl1DKD1PKVtOSF1bQ0hdMltDSDJdW0NIMl1PW0NIMl1bQ0gyXTI=

> <s_epik_cmdline>
J2VwaWtfcHl0aG9uJywgJy1waCcsICc3LjAnLCAnLXRuJywgJzgnLCAnLW1hJywgJzIwMCcsICctbWV0YWxfYmluZGluZycsICctaW1hZScsICc8aW5maWxlLm1hZT4nLCAnLW9tYWUnLCAnPG91dGZpbGUubWFlPic=

> <r_lp_tautomer_probability>
1

> <r_epik_Ionization_Penalty>
0.88617

> <r_epik_Ionization_Penalty_Charging>
0

> <r_epik_Ionization_Penalty_Neutral>
0.88617

> <r_epik_State_Penalty>
0.921066

> <r_epik_Charging_Adjusted_Penalty>
0.921066

> <i_epik_Tot_Q>
0

> <i_epik_Tot_abs_Q>
0

> <r_epik_Metal_State_Penalty>
0.917309

> <b_epik_Metal_Only>
0

> <s_lp_Force_Field>
OPLS_2005

> <r_lp_Energy>
17.6671

> <b_lp_Chiralities_Consistent>
1

> <s_lp_Variant>
AV-unprocessed.smi:3028-6

> <Gold.Version>
5.8.1

> <Gold.Id.Protein>
6NUR|6NUR_protein|mol2

> <Gold.PLP.Fitness>
47.2107

> <Gold.PLP.PLP>
-43.4915

> <Gold.PLP.part.hbond>
-1.0000

> <Gold.PLP.part.metal>
0.0000

> <Gold.PLP.part.buried>
-6.4783

> <Gold.PLP.part.nonpolar>
-36.4081

> <Gold.PLP.part.repulsive>
0.2324

> <Gold.PLP.ligand.clash>
0.0000

> <Gold.PLP.ligand.torsion>
1.1816

> <Gold.PLP.Chemscore.Hbond>
1.0000

> <Gold.PLP.Chemscore.CHOScore>
1.0000

> <Gold.PLP.Chemscore.Metal>
0.0000

> <Gold.Chemscore.Hbonds>
donor molecule, donor type, donor heavy atom, donor atom, acceptor molecule, acceptor atom, score
      P1  H  6896  6907       L1    13  0.39
      L1  C    21    47       P1  8028  1.00

> <Gold.PLP.Chemscore.Internal.Correction>
0.0823

> <Gold.Rescore>
     Score         DG    S(hbond)    S(metal)    S(lipo)     H(rot)  DE(clash)    DE(int)     intcor
     14.29     -16.79       0.99        0.00     110.39       1.92       0.16       2.34       ----

> <Gold.Chemscore.Fitness>
14.2926

> <Gold.Chemscore.DG>
-16.7934

> <Gold.Chemscore.ZeroCoef>
-5.4800

> <Gold.Chemscore.Hbond>
0.9943

> <Gold.Chemscore.Metal>
0.0000

> <Gold.Chemscore.Lipo>
110.3922

> <Gold.Chemscore.Internal_Hbond>
0.0000

> <Gold.Chemscore.DEClash>
0.1595

> <Gold.Chemscore.DEInternal>
2.3413

> <Gold.Chemscore.Rot>
1.9233

> <Gold.Chemscore.Internal.Correction>
   9.000000E+99

> <Gold.Chemscore.Hbonds>
donor molecule, donor type, donor heavy atom, donor atom, acceptor molecule, acceptor atom, score
      P1  H  6896  6907       L1    13  0.39

> <Gold.Chemscore.Hbond.Weighted>
-3.3210

> <Gold.Chemscore.Metal.Weighted>
-0.0000

> <Gold.Chemscore.Lipo.Weighted>
-12.9159

> <Gold.Chemscore.Internal_Hbond.Weighted>
0.0000

> <Gold.Chemscore.DEClash.Weighted>
0.1595

> <Gold.Chemscore.DEInternal.Weighted>
2.3413

> <Gold.Chemscore.Rot.Weighted>
4.9235

> <Gold.Chemscore.Internal.Correction.Weighted>
   9.000000E+99

> <Gold.Protein.RotatedTorsions>
[ 6907 6896 6895 6894 ] final  -51.83 input  -60.11 | X-H torsion
[ 7974 7965 7964 7962 ] final  -45.66 input  175.53 | X-H torsion
[ 8008 7997 7996 7995 ] final   -5.75 input   59.86 | X-H torsion
[ 10167 10162 10161 10158 ] final -158.73 input  -65.29 | X-H torsion
[ 10718 10713 10712 10709 ] final  -82.99 input   66.30 | X-H torsion
[ 10763 10752 10751 10750 ] final -154.07 input  -60.55 | X-H torsion
[ 11005 11000 10999 10996 ] final -121.56 input  -57.11 | X-H torsion

> <Gold.Protein.ActiveResidues>
 VAL166  LYS551  ARG553  GLY616  TRP617  ASP618  TYR619  PRO620  LYS621  CYS622 
 ASP623  PHE694  ASN695  SER759  ASP760  ASP761  ALA762  ILE779  LEU786  VAL792 
 PHE793  MET794  SER795  GLU796  ALA797  LYS798  CYS799  TRP800  GLU811  SER814 

> <Gold.Protein.RotatedAtoms>
  150.8574  134.7917  159.7056 H   0  0  0  0  0  0  0  0  0  0  0  0  # atno 6907 bound_to 6896
  152.4622  134.5155  159.9776 H   0  0  0  0  0  0  0  0  0  0  0  0  # atno 6908 bound_to 6896
  151.5265  133.3418  159.2946 H   0  0  0  0  0  0  0  0  0  0  0  0  # atno 6909 bound_to 6896
  145.9798  140.7295  142.9369 H   0  0  0  0  0  0  0  0  0  0  0  0  # atno 7974 bound_to 7965
  154.6007  140.2450  155.7796 H   0  0  0  0  0  0  0  0  0  0  0  0  # atno 8008 bound_to 7997
  156.2309  140.2967  156.0138 H   0  0  0  0  0  0  0  0  0  0  0  0  # atno 8009 bound_to 7997
  155.2215  140.0400  157.2939 H   0  0  0  0  0  0  0  0  0  0  0  0  # atno 8010 bound_to 7997
  139.6670  143.9812  152.2260 H   0  0  0  0  0  0  0  0  0  0  0  0  # atno 10167 bound_to 10162
  156.0025  130.4651  150.4189 H   0  0  0  0  0  0  0  0  0  0  0  0  # atno 10718 bound_to 10713
  154.7884  135.3198  154.7833 H   0  0  0  0  0  0  0  0  0  0  0  0  # atno 10763 bound_to 10752
  153.8527  135.6861  153.4795 H   0  0  0  0  0  0  0  0  0  0  0  0  # atno 10764 bound_to 10752
  153.1545  135.4686  154.9624 H   0  0  0  0  0  0  0  0  0  0  0  0  # atno 10765 bound_to 10752
  141.0061  134.0333  157.3475 H   0  0  0  0  0  0  0  0  0  0  0  0  # atno 11005 bound_to 11000
  144.6858  140.2889  143.7281 LP  0  0  0  0  0  0  0  0  0  0  0  0  # atno 17320 bound_to 7965
  145.7786  139.1883  143.2171 LP  0  0  0  0  0  0  0  0  0  0  0  0  # atno 17321 bound_to 7965
  139.9566  144.6585  150.8119 LP  0  0  0  0  0  0  0  0  0  0  0  0  # atno 17342 bound_to 10162
  140.7603  143.3148  151.2759 LP  0  0  0  0  0  0  0  0  0  0  0  0  # atno 17343 bound_to 10162
  157.2246  131.0490  151.2527 LP  0  0  0  0  0  0  0  0  0  0  0  0  # atno 17370 bound_to 10713
  157.3768  130.7210  149.6602 LP  0  0  0  0  0  0  0  0  0  0  0  0  # atno 17371 bound_to 10713
  139.9064  135.0180  156.7504 LP  0  0  0  0  0  0  0  0  0  0  0  0  # atno 17394 bound_to 11000
  140.6811  133.9474  155.7911 LP  0  0  0  0  0  0  0  0  0  0  0  0  # atno 17395 bound_to 11000

$$$$
