AV-unprocessed.smi:110|AV-procd|sdf|1070|dock1
  -GOLD-   2262018153D 1   1.00000     0.00000
 Structure written by MMmdl.
 46 50  0  0  0  0  0  0  0  0  1 V2000
  147.9444  135.9059  154.0895 O   0  0  0  0  0  0  0  0  0  0  0  0
  146.8259  136.7361  154.3194 C   0  0  0  0  0  0  0  0  0  0  0  0
  147.0986  138.1512  153.7798 C   0  0  2  0  0  0  0  0  0  0  0  0
  148.3361  138.6500  154.2639 O   0  0  0  0  0  0  0  0  0  0  0  0
  148.3578  140.0291  154.0868 C   0  0  2  0  0  0  0  0  0  0  0  0
  149.1699  140.6264  155.1889 N   0  0  0  0  0  0  0  0  0  0  0  0
  148.8755  141.7415  155.9393 C   0  0  0  0  0  0  0  0  0  0  0  0
  149.7577  142.0496  156.8506 N   0  0  0  0  0  0  0  0  0  0  0  0
  150.7466  141.0814  156.7146 C   0  0  0  0  0  0  0  0  0  0  0  0
  151.9784  140.8113  157.3803 C   0  0  0  0  0  0  0  0  0  0  0  0
  152.4757  141.5776  158.3856 N   0  0  0  0  0  0  0  0  0  0  0  0
  153.1845  140.9307  159.5009 C   0  0  0  0  0  0  0  0  0  0  0  0
  153.1608  141.8934  160.7013 C   0  0  0  0  0  0  0  0  0  0  0  0
  152.5136  143.0915  160.0904 C   0  0  0  0  0  0  0  0  0  0  0  0
  152.2828  144.3352  160.7036 C   0  0  0  0  0  0  0  0  0  0  0  0
  151.6657  145.3487  159.9408 C   0  0  0  0  0  0  0  0  0  0  0  0
  151.3013  145.1074  158.5962 C   0  0  0  0  0  0  0  0  0  0  0  0
  151.5438  143.8497  158.0009 C   0  0  0  0  0  0  0  0  0  0  0  0
  152.1478  142.8330  158.7723 C   0  0  0  0  0  0  0  0  0  0  0  0
  152.6926  139.7384  156.9515 N   0  0  0  0  0  0  0  0  0  0  0  0
  152.2389  138.9774  155.9527 C   0  0  0  0  0  0  0  0  0  0  0  0
  151.1130  139.1089  155.2514 N   0  0  0  0  0  0  0  0  0  0  0  0
  150.3852  140.1834  155.6694 C   0  0  0  0  0  0  0  0  0  0  0  0
  146.9024  140.5302  154.1249 C   0  0  1  0  0  0  0  0  0  0  0  0
  146.5700  141.2135  152.9325 O   0  0  0  0  0  0  0  0  0  0  0  0
  146.0949  139.2348  154.2061 C   0  0  2  0  0  0  0  0  0  0  0  0
  145.6265  139.0239  155.5251 O   0  0  0  0  0  0  0  0  0  0  0  0
  147.1364  138.1364  152.6886 H   0  0  0  0  0  0  0  0  0  0  0  0
  148.8873  140.2862  153.1680 H   0  0  0  0  0  0  0  0  0  0  0  0
  146.7271  141.1858  154.9798 H   0  0  0  0  0  0  0  0  0  0  0  0
  145.2225  139.2423  153.5509 H   0  0  0  0  0  0  0  0  0  0  0  0
  148.2133  136.0056  153.1892 H   0  0  0  0  0  0  0  0  0  0  0  0
  145.9789  136.2906  153.7971 H   0  0  0  0  0  0  0  0  0  0  0  0
  146.5817  136.7561  155.3821 H   0  0  0  0  0  0  0  0  0  0  0  0
  147.9761  142.3216  155.7927 H   0  0  0  0  0  0  0  0  0  0  0  0
  152.7232  139.9764  159.7587 H   0  0  0  0  0  0  0  0  0  0  0  0
  154.2149  140.7345  159.2033 H   0  0  0  0  0  0  0  0  0  0  0  0
  152.5532  141.5099  161.5213 H   0  0  0  0  0  0  0  0  0  0  0  0
  154.1614  142.1258  161.0668 H   0  0  0  0  0  0  0  0  0  0  0  0
  152.5726  144.5116  161.7291 H   0  0  0  0  0  0  0  0  0  0  0  0
  151.4766  146.3152  160.3842 H   0  0  0  0  0  0  0  0  0  0  0  0
  150.8382  145.8926  158.0172 H   0  0  0  0  0  0  0  0  0  0  0  0
  151.2749  143.6860  156.9682 H   0  0  0  0  0  0  0  0  0  0  0  0
  152.8683  138.1450  155.6748 H   0  0  0  0  0  0  0  0  0  0  0  0
  145.6756  141.0064  152.7085 H   0  0  0  0  0  0  0  0  0  0  0  0
  145.1365  139.7847  155.7962 H   0  0  0  0  0  0  0  0  0  0  0  0
  1  2  1  0  0  0  0
  1 32  1  0  0  0  0
  2  3  1  0  0  0  0
  2 33  1  0  0  0  0
  2 34  1  0  0  0  0
  3 28  1  0  0  0  0
  3 26  1  0  0  0  0
  3  4  1  0  0  0  0
  4  5  1  0  0  0  0
  5 29  1  0  0  0  0
  5  6  1  0  0  0  0
  5 24  1  0  0  0  0
  6 23  1  0  0  0  0
  6  7  1  0  0  0  0
  7  8  2  0  0  0  0
  7 35  1  0  0  0  0
  8  9  1  0  0  0  0
  9 23  2  0  0  0  0
  9 10  1  0  0  0  0
 10 11  1  0  0  0  0
 10 20  2  0  0  0  0
 11 19  1  0  0  0  0
 11 12  1  0  0  0  0
 12 13  1  0  0  0  0
 12 36  1  0  0  0  0
 12 37  1  0  0  0  0
 13 14  1  0  0  0  0
 13 38  1  0  0  0  0
 13 39  1  0  0  0  0
 14 19  2  0  0  0  0
 14 15  1  0  0  0  0
 15 16  2  0  0  0  0
 15 40  1  0  0  0  0
 16 17  1  0  0  0  0
 16 41  1  0  0  0  0
 17 18  2  0  0  0  0
 17 42  1  0  0  0  0
 18 19  1  0  0  0  0
 18 43  1  0  0  0  0
 20 21  1  0  0  0  0
 21 22  2  0  0  0  0
 21 44  1  0  0  0  0
 22 23  1  0  0  0  0
 24 30  1  0  0  0  0
 24 25  1  0  0  0  0
 24 26  1  0  0  0  0
 25 45  1  0  0  0  0
 26 31  1  0  0  0  0
 26 27  1  0  0  0  0
 27 46  1  0  0  0  0
M  END
> <s_m_source_file>
AV-unprocessed.smi

> <i_m_source_file_index>
110

> <i_lp_mmshare_version>
43012

> <i_f3d_flags>
0

> <s_epik_input>
W09IXVtDSDJdW0NASF0xT1tDQEhdKFtDQEhdKFtPSF0pW0NAQEhdMVtPSF0pbihbY0hdbjIpYyhjMjMpbltjSF1uYzNOKFtDSDJdW0NIMl00KWMoYzQ1KVtjSF1bY0hdW2NIXVtjSF01

> <s_epik_cmdline>
J2VwaWtfcHl0aG9uJywgJy1waCcsICc3LjAnLCAnLXRuJywgJzgnLCAnLW1hJywgJzIwMCcsICctbWV0YWxfYmluZGluZycsICctaW1hZScsICc8aW5maWxlLm1hZT4nLCAnLW9tYWUnLCAnPG91dGZpbGUubWFlPic=

> <r_lp_tautomer_probability>
1

> <r_epik_Ionization_Penalty>
0.00068475

> <r_epik_Ionization_Penalty_Charging>
0

> <r_epik_Ionization_Penalty_Neutral>
0.00068475

> <r_epik_State_Penalty>
0.000417442

> <r_epik_Charging_Adjusted_Penalty>
0.000417442

> <i_epik_Tot_Q>
0

> <i_epik_Tot_abs_Q>
0

> <r_epik_Metal_State_Penalty>
-0

> <b_epik_Metal_Only>
0

> <s_epik_Chemistry_Notes>
This compound contains an acetal/aminal-like group ( X-CH(R)-Y where X, Y are N, S, or O) that may be acid/base labile, releasing an aldehyde.

> <s_lp_Force_Field>
OPLS_2005

> <r_lp_Energy>
57.5739

> <b_lp_Chiralities_Consistent>
1

> <s_lp_Variant>
AV-unprocessed.smi:110-8

> <Gold.Version>
5.8.1

> <Gold.Id.Protein>
6NUR|6NUR_protein|mol2

> <Gold.PLP.Fitness>
56.3174

> <Gold.PLP.PLP>
-47.8354

> <Gold.PLP.part.hbond>
-2.8753

> <Gold.PLP.part.metal>
0.0000

> <Gold.PLP.part.buried>
-4.8640

> <Gold.PLP.part.nonpolar>
-39.8238

> <Gold.PLP.part.repulsive>
0.5050

> <Gold.PLP.ligand.clash>
0.0000

> <Gold.PLP.ligand.torsion>
0.8309

> <Gold.PLP.Chemscore.Hbond>
3.0000

> <Gold.PLP.Chemscore.CHOScore>
0.3440

> <Gold.PLP.Chemscore.Metal>
0.0000

> <Gold.Chemscore.Hbonds>
donor molecule, donor type, donor heavy atom, donor atom, acceptor molecule, acceptor atom, score
      L1  H     1    32       P1  7948  1.00
      L1  H    25    45       P1 10175  0.79
      P1  H  7997  8008       L1    20  1.00
      L1  C     7    35       P1  8028  0.44

> <Gold.PLP.Chemscore.Internal.Correction>
0.1116

> <Gold.Rescore>
     Score         DG    S(hbond)    S(metal)    S(lipo)     H(rot)  DE(clash)    DE(int)     intcor
     14.55     -18.08       2.67        0.00     105.45       3.38       0.02       3.51       ----

> <Gold.Chemscore.Fitness>
14.5509

> <Gold.Chemscore.DG>
-18.0789

> <Gold.Chemscore.ZeroCoef>
-5.4800

> <Gold.Chemscore.Hbond>
2.6715

> <Gold.Chemscore.Metal>
0.0000

> <Gold.Chemscore.Lipo>
105.4548

> <Gold.Chemscore.Internal_Hbond>
0.0000

> <Gold.Chemscore.DEClash>
0.0174

> <Gold.Chemscore.DEInternal>
3.5106

> <Gold.Chemscore.Rot>
3.3837

> <Gold.Chemscore.Internal.Correction>
   9.000000E+99

> <Gold.Chemscore.Hbonds>
donor molecule, donor type, donor heavy atom, donor atom, acceptor molecule, acceptor atom, score
      L1  H     1    32       P1  7948  0.93
      L1  H    25    45       P1 10175  0.13
      P1  H  7997  8008       L1    20  0.69

> <Gold.Chemscore.Hbond.Weighted>
-8.9228

> <Gold.Chemscore.Metal.Weighted>
-0.0000

> <Gold.Chemscore.Lipo.Weighted>
-12.3382

> <Gold.Chemscore.Internal_Hbond.Weighted>
0.0000

> <Gold.Chemscore.DEClash.Weighted>
0.0174

> <Gold.Chemscore.DEInternal.Weighted>
3.5106

> <Gold.Chemscore.Rot.Weighted>
8.6622

> <Gold.Chemscore.Internal.Correction.Weighted>
   9.000000E+99

> <Gold.Protein.RotatedTorsions>
[ 6907 6896 6895 6894 ] final -179.05 input  -60.11 | X-H torsion
[ 7974 7965 7964 7962 ] final  -28.97 input  175.53 | X-H torsion
[ 8008 7997 7996 7995 ] final  -70.16 input   59.86 | X-H torsion
[ 10167 10162 10161 10158 ] final   40.78 input  -65.29 | X-H torsion
[ 10718 10713 10712 10709 ] final -166.57 input   66.30 | X-H torsion
[ 10763 10752 10751 10750 ] final  127.21 input  -60.55 | X-H torsion
[ 11005 11000 10999 10996 ] final  142.00 input  -57.11 | X-H torsion

> <Gold.Protein.ActiveResidues>
 VAL166  LYS551  ARG553  GLY616  TRP617  ASP618  TYR619  PRO620  LYS621  CYS622 
 ASP623  PHE694  ASN695  SER759  ASP760  ASP761  ALA762  ILE779  LEU786  VAL792 
 PHE793  MET794  SER795  GLU796  ALA797  LYS798  CYS799  TRP800  GLU811  SER814 

> <Gold.Protein.RotatedAtoms>
  151.6471  133.3323  159.3143 H   0  0  0  0  0  0  0  0  0  0  0  0  # atno 6907 bound_to 6896
  150.7979  134.7055  159.6584 H   0  0  0  0  0  0  0  0  0  0  0  0  # atno 6908 bound_to 6896
  152.4068  134.6198  160.0099 H   0  0  0  0  0  0  0  0  0  0  0  0  # atno 6909 bound_to 6896
  146.1250  140.5352  142.8718 H   0  0  0  0  0  0  0  0  0  0  0  0  # atno 7974 bound_to 7965
  154.4992  140.0839  156.7761 H   0  0  0  0  0  0  0  0  0  0  0  0  # atno 8008 bound_to 7997
  155.4044  140.3438  155.4241 H   0  0  0  0  0  0  0  0  0  0  0  0  # atno 8009 bound_to 7997
  156.1434  140.1536  156.8873 H   0  0  0  0  0  0  0  0  0  0  0  0  # atno 8010 bound_to 7997
  140.3708  144.2107  150.6133 H   0  0  0  0  0  0  0  0  0  0  0  0  # atno 10167 bound_to 10162
  156.6699  130.9079  151.3042 H   0  0  0  0  0  0  0  0  0  0  0  0  # atno 10718 bound_to 10713
  153.7058  135.3276  155.3235 H   0  0  0  0  0  0  0  0  0  0  0  0  # atno 10763 bound_to 10752
  154.8400  135.4465  154.1365 H   0  0  0  0  0  0  0  0  0  0  0  0  # atno 10764 bound_to 10752
  153.2445  135.6974  153.7826 H   0  0  0  0  0  0  0  0  0  0  0  0  # atno 10765 bound_to 10752
  140.0444  134.9288  157.0902 H   0  0  0  0  0  0  0  0  0  0  0  0  # atno 11005 bound_to 11000
  144.7633  140.5473  143.6720 LP  0  0  0  0  0  0  0  0  0  0  0  0  # atno 17320 bound_to 7965
  145.5385  139.1475  143.3460 LP  0  0  0  0  0  0  0  0  0  0  0  0  # atno 17321 bound_to 7965
  140.5035  143.2311  151.8643 LP  0  0  0  0  0  0  0  0  0  0  0  0  # atno 17342 bound_to 10162
  139.4804  144.5032  151.9032 LP  0  0  0  0  0  0  0  0  0  0  0  0  # atno 17343 bound_to 10162
  157.7081  130.9408  150.0997 LP  0  0  0  0  0  0  0  0  0  0  0  0  # atno 17370 bound_to 10713
  156.1947  130.3656  149.8865 LP  0  0  0  0  0  0  0  0  0  0  0  0  # atno 17371 bound_to 10713
  140.4018  134.2075  155.7163 LP  0  0  0  0  0  0  0  0  0  0  0  0  # atno 17394 bound_to 11000
  141.1899  133.8228  157.0938 LP  0  0  0  0  0  0  0  0  0  0  0  0  # atno 17395 bound_to 11000

$$$$
