AV-unprocessed.smi:1230|AV-procd|sdf|5152|dock10
  -GOLD-   22720 4223D 1   1.00000     0.00000
 Structure written by MMmdl.
 38 39  0  0  0  0  0  0  0  0  2 V2000
  153.2470  141.1454  160.1334 C   0  0  0  0  0  0  0  0  0  0  0  0
  152.7814  142.4390  159.4450 C   0  0  2  0  0  0  0  0  0  0  0  0
  152.6386  143.5804  160.4722 C   0  0  0  0  0  0  0  0  0  0  0  0
  152.1671  144.8855  159.8131 C   0  0  0  0  0  0  0  0  0  0  0  0
  150.8489  144.6750  159.0557 C   0  0  0  0  0  0  0  0  0  0  0  0
  150.9839  143.5482  158.0217 C   0  0  0  0  0  0  0  0  0  0  0  0
  151.4591  142.2316  158.6728 C   0  0  1  0  0  0  0  0  0  0  0  0
  151.6925  141.2771  157.6472 O   0  0  0  0  0  0  0  0  0  0  0  0
  150.6236  141.1360  156.7229 C   0  0  0  0  0  0  0  0  0  0  0  0
  151.0891  140.2417  155.5647 C   0  0  0  0  0  0  0  0  0  0  0  0
  151.3381  138.8687  156.0256 N   0  0  0  0  0  0  0  0  0  0  0  0
  150.3228  138.2392  156.7656 C   0  0  0  0  0  0  0  0  0  0  0  0
  150.4736  136.9941  157.2550 C   0  0  0  0  0  0  0  0  0  0  0  0
  149.4633  136.3379  158.0177 C   0  0  0  0  0  0  0  0  0  0  0  0
  148.6389  135.8316  158.6540 N   0  0  0  0  0  0  0  0  0  0  0  0
  151.7277  136.2893  157.0009 C   0  0  0  0  0  0  0  0  0  0  0  0
  151.8904  135.1478  157.4301 O   0  0  0  0  0  0  0  0  0  0  0  0
  152.6822  136.9506  156.2822 N   0  5  0  0  0  0  0  0  0  0  0  0
  152.5201  138.2213  155.7969 C   0  0  0  0  0  0  0  0  0  0  0  0
  153.4036  138.8014  155.1654 O   0  0  0  0  0  0  0  0  0  0  0  0
  152.5114  140.7956  160.8583 H   0  0  0  0  0  0  0  0  0  0  0  0
  154.1877  141.2993  160.6622 H   0  0  0  0  0  0  0  0  0  0  0  0
  153.4070  140.3459  159.4097 H   0  0  0  0  0  0  0  0  0  0  0  0
  153.5507  142.7290  158.7276 H   0  0  0  0  0  0  0  0  0  0  0  0
  151.9287  143.2907  161.2483 H   0  0  0  0  0  0  0  0  0  0  0  0
  153.5912  143.7510  160.9748 H   0  0  0  0  0  0  0  0  0  0  0  0
  152.0418  145.6609  160.5691 H   0  0  0  0  0  0  0  0  0  0  0  0
  152.9320  145.2452  159.1237 H   0  0  0  0  0  0  0  0  0  0  0  0
  150.0538  144.4317  159.7616 H   0  0  0  0  0  0  0  0  0  0  0  0
  150.5525  145.6000  158.5603 H   0  0  0  0  0  0  0  0  0  0  0  0
  150.0285  143.4056  157.5171 H   0  0  0  0  0  0  0  0  0  0  0  0
  151.6934  143.8486  157.2496 H   0  0  0  0  0  0  0  0  0  0  0  0
  150.7015  141.8650  159.3688 H   0  0  0  0  0  0  0  0  0  0  0  0
  149.7720  140.6834  157.2319 H   0  0  0  0  0  0  0  0  0  0  0  0
  150.2905  142.1006  156.3387 H   0  0  0  0  0  0  0  0  0  0  0  0
  150.3441  140.2494  154.7678 H   0  0  0  0  0  0  0  0  0  0  0  0
  151.9911  140.6594  155.1152 H   0  0  0  0  0  0  0  0  0  0  0  0
  149.4313  138.8300  156.9180 H   0  0  0  0  0  0  0  0  0  0  0  0
  1  2  1  0  0  0  0
  1 21  1  0  0  0  0
  1 22  1  0  0  0  0
  1 23  1  0  0  0  0
  2  7  1  0  0  0  0
  2  3  1  0  0  0  0
  2 24  1  0  0  0  0
  3  4  1  0  0  0  0
  3 25  1  0  0  0  0
  3 26  1  0  0  0  0
  4  5  1  0  0  0  0
  4 27  1  0  0  0  0
  4 28  1  0  0  0  0
  5  6  1  0  0  0  0
  5 29  1  0  0  0  0
  5 30  1  0  0  0  0
  6  7  1  0  0  0  0
  6 31  1  0  0  0  0
  6 32  1  0  0  0  0
  7  8  1  0  0  0  0
  7 33  1  0  0  0  0
  8  9  1  0  0  0  0
  9 10  1  0  0  0  0
  9 34  1  0  0  0  0
  9 35  1  0  0  0  0
 10 11  1  0  0  0  0
 10 36  1  0  0  0  0
 10 37  1  0  0  0  0
 11 19  1  0  0  0  0
 11 12  1  0  0  0  0
 12 13  2  0  0  0  0
 12 38  1  0  0  0  0
 13 14  1  0  0  0  0
 13 16  1  0  0  0  0
 14 15  3  0  0  0  0
 16 17  2  0  0  0  0
 16 18  1  0  0  0  0
 18 19  1  0  0  0  0
 19 20  2  0  0  0  0
M  CHG  1  18  -1
M  END
> <s_m_source_file>
AV-unprocessed.smi

> <i_m_source_file_index>
1230

> <i_lp_mmshare_version>
43012

> <i_f3d_flags>
0

> <s_epik_input>
W0NIM11bQ0BASF0xW0NIMl1bQ0gyXVtDSDJdW0NIMl1bQ0BIXTFPW0NIMl1bQ0gyXW4yW2NIXWMoQyNOKWMoPU8pW25IXWMyPU8=

> <s_epik_cmdline>
J2VwaWtfcHl0aG9uJywgJy1waCcsICc3LjAnLCAnLXRuJywgJzgnLCAnLW1hJywgJzIwMCcsICctbWV0YWxfYmluZGluZycsICctaW1hZScsICc8aW5maWxlLm1hZT4nLCAnLW9tYWUnLCAnPG91dGZpbGUubWFlPic=

> <r_epik_Ionization_Penalty>
0.400014

> <r_epik_Ionization_Penalty_Charging>
4.81474e-10

> <r_epik_Ionization_Penalty_Neutral>
0.400014

> <r_epik_State_Penalty>
0.399305

> <r_epik_Charging_Adjusted_Penalty>
0.399305

> <i_epik_Tot_Q>
-1

> <i_epik_Tot_abs_Q>
1

> <r_epik_Metal_State_Penalty>
0.00056968

> <b_epik_Metal_Only>
0

> <s_lp_Force_Field>
OPLS_2005

> <r_lp_Energy>
24.1099

> <b_lp_Chiralities_Consistent>
1

> <s_lp_Variant>
AV-unprocessed.smi:1230-1

> <Gold.Version>
5.8.1

> <Gold.Id.Protein>
6NUR|6NUR_protein|mol2

> <Gold.PLP.Fitness>
44.6923

> <Gold.PLP.PLP>
-36.4859

> <Gold.PLP.part.hbond>
-3.0000

> <Gold.PLP.part.metal>
0.0000

> <Gold.PLP.part.buried>
-5.2144

> <Gold.PLP.part.nonpolar>
-28.8774

> <Gold.PLP.part.repulsive>
0.0038

> <Gold.PLP.ligand.clash>
0.0000

> <Gold.PLP.ligand.torsion>
0.1372

> <Gold.PLP.Chemscore.Hbond>
2.8240

> <Gold.PLP.Chemscore.CHOScore>
0.0000

> <Gold.PLP.Chemscore.Metal>
0.0000

> <Gold.Chemscore.Hbonds>
donor molecule, donor type, donor heavy atom, donor atom, acceptor molecule, acceptor atom, score
      P1  H  7997  8009       L1    20  1.00
      P1  H 10752 10763       L1    18  1.58

> <Gold.PLP.Chemscore.Internal.Correction>
0.0088

> <Gold.Rescore>
     Score         DG    S(hbond)    S(metal)    S(lipo)     H(rot)  DE(clash)    DE(int)     intcor
     16.35     -16.50       1.51        0.00      92.69       1.90       0.03       0.13       ----

> <Gold.Chemscore.Fitness>
16.3460

> <Gold.Chemscore.DG>
-16.5003

> <Gold.Chemscore.ZeroCoef>
-5.4800

> <Gold.Chemscore.Hbond>
1.5076

> <Gold.Chemscore.Metal>
0.0000

> <Gold.Chemscore.Lipo>
92.6904

> <Gold.Chemscore.Internal_Hbond>
0.0000

> <Gold.Chemscore.DEClash>
0.0270

> <Gold.Chemscore.DEInternal>
0.1272

> <Gold.Chemscore.Rot>
1.8984

> <Gold.Chemscore.Internal.Correction>
   9.000000E+99

> <Gold.Chemscore.Hbonds>
donor molecule, donor type, donor heavy atom, donor atom, acceptor molecule, acceptor atom, score
      P1  H  7997  8009       L1    20  0.95
      P1  H 10752 10763       L1    18  0.15

> <Gold.Chemscore.Hbond.Weighted>
-5.0353

> <Gold.Chemscore.Metal.Weighted>
-0.0000

> <Gold.Chemscore.Lipo.Weighted>
-10.8448

> <Gold.Chemscore.Internal_Hbond.Weighted>
0.0000

> <Gold.Chemscore.DEClash.Weighted>
0.0270

> <Gold.Chemscore.DEInternal.Weighted>
0.1272

> <Gold.Chemscore.Rot.Weighted>
4.8598

> <Gold.Chemscore.Internal.Correction.Weighted>
   9.000000E+99

> <Gold.Protein.RotatedTorsions>
[ 6907 6896 6895 6894 ] final   99.17 input  -60.11 | X-H torsion
[ 7974 7965 7964 7962 ] final  -44.46 input  175.53 | X-H torsion
[ 8008 7997 7996 7995 ] final -136.15 input   59.86 | X-H torsion
[ 10167 10162 10161 10158 ] final  173.35 input  -65.29 | X-H torsion
[ 10718 10713 10712 10709 ] final  -37.85 input   66.30 | X-H torsion
[ 10763 10752 10751 10750 ] final   95.94 input  -60.55 | X-H torsion
[ 11005 11000 10999 10996 ] final -143.49 input  -57.11 | X-H torsion

> <Gold.Protein.ActiveResidues>
 VAL166  LYS551  ARG553  GLY616  TRP617  ASP618  TYR619  PRO620  LYS621  CYS622 
 ASP623  PHE694  ASN695  SER759  ASP760  ASP761  ALA762  ILE779  LEU786  VAL792 
 PHE793  MET794  SER795  GLU796  ALA797  LYS798  CYS799  TRP800  GLU811  SER814 

> <Gold.Protein.RotatedAtoms>
  152.5397  134.0470  159.8092 H   0  0  0  0  0  0  0  0  0  0  0  0  # atno 6907 bound_to 6896
  151.0617  133.5531  159.2641 H   0  0  0  0  0  0  0  0  0  0  0  0  # atno 6908 bound_to 6896
  151.2427  135.0602  159.9085 H   0  0  0  0  0  0  0  0  0  0  0  0  # atno 6909 bound_to 6896
  145.9918  140.7172  142.9313 H   0  0  0  0  0  0  0  0  0  0  0  0  # atno 7974 bound_to 7965
  155.3905  140.0499  157.3041 H   0  0  0  0  0  0  0  0  0  0  0  0  # atno 8008 bound_to 7997
  154.5039  140.2167  155.9253 H   0  0  0  0  0  0  0  0  0  0  0  0  # atno 8009 bound_to 7997
  156.1501  140.3137  155.8639 H   0  0  0  0  0  0  0  0  0  0  0  0  # atno 8010 bound_to 7997
  139.5105  144.3270  152.0147 H   0  0  0  0  0  0  0  0  0  0  0  0  # atno 10167 bound_to 10162
  156.3105  130.4252  149.8055 H   0  0  0  0  0  0  0  0  0  0  0  0  # atno 10718 bound_to 10713
  153.2591  135.4236  155.0876 H   0  0  0  0  0  0  0  0  0  0  0  0  # atno 10763 bound_to 10752
  154.8413  135.3444  154.6403 H   0  0  0  0  0  0  0  0  0  0  0  0  # atno 10764 bound_to 10752
  153.6823  135.7038  153.5171 H   0  0  0  0  0  0  0  0  0  0  0  0  # atno 10765 bound_to 10752
  140.8119  134.2734  157.4937 H   0  0  0  0  0  0  0  0  0  0  0  0  # atno 11005 bound_to 11000
  144.6891  140.3083  143.7252 LP  0  0  0  0  0  0  0  0  0  0  0  0  # atno 17320 bound_to 7965
  145.7618  139.1827  143.2262 LP  0  0  0  0  0  0  0  0  0  0  0  0  # atno 17321 bound_to 7965
  140.2711  144.3963  150.6151 LP  0  0  0  0  0  0  0  0  0  0  0  0  # atno 17342 bound_to 10162
  140.6088  143.2168  151.6928 LP  0  0  0  0  0  0  0  0  0  0  0  0  # atno 17343 bound_to 10162
  156.5400  130.8296  151.3266 LP  0  0  0  0  0  0  0  0  0  0  0  0  # atno 17370 bound_to 10713
  157.7390  130.9823  150.2285 LP  0  0  0  0  0  0  0  0  0  0  0  0  # atno 17371 bound_to 10713
  139.8713  134.9488  156.4007 LP  0  0  0  0  0  0  0  0  0  0  0  0  # atno 17394 bound_to 11000
  140.9188  133.7659  155.9881 LP  0  0  0  0  0  0  0  0  0  0  0  0  # atno 17395 bound_to 11000

$$$$
