AV-unprocessed.smi:2923|AV-procd|sdf|11215|dock5
  -GOLD-   2272016103D 1   1.00000     0.00000
 Structure written by MMmdl.
 46 48  0  0  0  0  0  0  0  0  1 V2000
  145.8021  131.8310  150.9969 C   0  0  0  0  0  0  0  0  0  0  0  0
  144.8272  132.8365  150.5920 N   0  0  0  0  0  0  0  0  0  0  0  0
  143.7568  132.4797  149.6666 C   0  0  0  0  0  0  0  0  0  0  0  0
  144.8695  134.1341  151.1516 C   0  0  0  0  0  0  0  0  0  0  0  0
  143.6948  134.9117  151.3065 C   0  0  0  0  0  0  0  0  0  0  0  0
  143.7877  136.2004  151.8659 C   0  0  0  0  0  0  0  0  0  0  0  0
  145.0537  136.6843  152.2682 C   0  0  0  0  0  0  0  0  0  0  0  0
  145.2817  137.9735  152.8206 N   0  0  0  0  0  0  0  0  0  0  0  0
  146.2934  138.3813  153.6053 C   0  0  0  0  0  0  0  0  0  0  0  0
  147.2630  137.6974  153.9326 O   0  0  0  0  0  0  0  0  0  0  0  0
  146.1269  139.6544  153.9871 N   0  0  0  0  0  0  0  0  0  0  0  0
  147.0553  140.3854  154.8439 C   0  0  1  0  0  0  0  0  0  0  0  0
  148.3953  140.6730  154.1493 C   0  0  2  0  0  0  0  0  0  0  0  0
  149.6584  140.0401  154.6663 C   0  0  0  0  0  0  0  0  0  0  0  0
  150.2347  141.1256  155.5798 C   0  0  0  0  0  0  0  0  0  0  0  0
  149.1161  141.9421  155.9186 O   0  0  0  0  0  0  0  0  0  0  0  0
  148.3087  142.0677  154.7505 C   0  0  2  0  0  0  0  0  0  0  0  0
  146.7854  141.9092  154.9406 C   0  0  0  0  0  0  0  0  0  0  0  0
  145.9435  142.5535  153.8298 C   0  0  0  0  0  0  0  0  0  0  0  0
  146.2194  142.4110  156.2698 C   0  0  0  0  0  0  0  0  0  0  0  0
  146.1659  135.8445  152.0658 C   0  0  0  0  0  0  0  0  0  0  0  0
  146.0814  134.6091  151.5303 N   0  0  0  0  0  0  0  0  0  0  0  0
  145.7428  131.6496  152.0704 H   0  0  0  0  0  0  0  0  0  0  0  0
  146.8129  132.1577  150.7517 H   0  0  0  0  0  0  0  0  0  0  0  0
  145.6281  130.8819  150.4896 H   0  0  0  0  0  0  0  0  0  0  0  0
  142.7841  132.5846  150.1482 H   0  0  0  0  0  0  0  0  0  0  0  0
  143.8517  131.4484  149.3265 H   0  0  0  0  0  0  0  0  0  0  0  0
  143.7797  133.1241  148.7872 H   0  0  0  0  0  0  0  0  0  0  0  0
  142.7243  134.5497  151.0025 H   0  0  0  0  0  0  0  0  0  0  0  0
  142.8904  136.7920  151.9588 H   0  0  0  0  0  0  0  0  0  0  0  0
  144.6073  138.6789  152.5626 H   0  0  0  0  0  0  0  0  0  0  0  0
  145.3059  140.1491  153.6709 H   0  0  0  0  0  0  0  0  0  0  0  0
  147.1997  139.9281  155.8255 H   0  0  0  0  0  0  0  0  0  0  0  0
  148.3103  140.7009  153.0613 H   0  0  0  0  0  0  0  0  0  0  0  0
  149.4368  139.1341  155.2314 H   0  0  0  0  0  0  0  0  0  0  0  0
  150.3532  139.7764  153.8685 H   0  0  0  0  0  0  0  0  0  0  0  0
  150.7186  140.7169  156.4671 H   0  0  0  0  0  0  0  0  0  0  0  0
  150.9647  141.7314  155.0408 H   0  0  0  0  0  0  0  0  0  0  0  0
  148.6316  142.8643  154.0782 H   0  0  0  0  0  0  0  0  0  0  0  0
  146.0044  143.6416  153.8656 H   0  0  0  0  0  0  0  0  0  0  0  0
  144.8900  142.2835  153.9133 H   0  0  0  0  0  0  0  0  0  0  0  0
  146.2790  142.2485  152.8382 H   0  0  0  0  0  0  0  0  0  0  0  0
  146.3099  143.4938  156.3603 H   0  0  0  0  0  0  0  0  0  0  0  0
  146.7408  141.9714  157.1205 H   0  0  0  0  0  0  0  0  0  0  0  0
  145.1645  142.1564  156.3764 H   0  0  0  0  0  0  0  0  0  0  0  0
  147.1576  136.1710  152.3436 H   0  0  0  0  0  0  0  0  0  0  0  0
  1  2  1  0  0  0  0
  1 23  1  0  0  0  0
  1 24  1  0  0  0  0
  1 25  1  0  0  0  0
  2  3  1  0  0  0  0
  2  4  1  0  0  0  0
  3 26  1  0  0  0  0
  3 27  1  0  0  0  0
  3 28  1  0  0  0  0
  4 22  1  0  0  0  0
  4  5  2  0  0  0  0
  5  6  1  0  0  0  0
  5 29  1  0  0  0  0
  6  7  2  0  0  0  0
  6 30  1  0  0  0  0
  7  8  1  0  0  0  0
  7 21  1  0  0  0  0
  8  9  1  0  0  0  0
  8 31  1  0  0  0  0
  9 10  2  0  0  0  0
  9 11  1  0  0  0  0
 11 12  1  0  0  0  0
 11 32  1  0  0  0  0
 12 18  1  0  0  0  0
 12 13  1  0  0  0  0
 12 33  1  0  0  0  0
 13 17  1  0  0  0  0
 13 14  1  0  0  0  0
 13 34  1  0  0  0  0
 14 15  1  0  0  0  0
 14 35  1  0  0  0  0
 14 36  1  0  0  0  0
 15 16  1  0  0  0  0
 15 37  1  0  0  0  0
 15 38  1  0  0  0  0
 16 17  1  0  0  0  0
 17 18  1  0  0  0  0
 17 39  1  0  0  0  0
 18 19  1  0  0  0  0
 18 20  1  0  0  0  0
 19 40  1  0  0  0  0
 19 41  1  0  0  0  0
 19 42  1  0  0  0  0
 20 43  1  0  0  0  0
 20 44  1  0  0  0  0
 20 45  1  0  0  0  0
 21 22  2  0  0  0  0
 21 46  1  0  0  0  0
M  END
> <s_m_source_file>
AV-unprocessed.smi

> <i_m_source_file_index>
2923

> <i_lp_mmshare_version>
43012

> <i_f3d_flags>
0

> <s_epik_input>
W0NIM11OKFtDSDNdKWMxW2NIXVtjSF1jKFtjSF1uMSlbTkhdQyg9TylbTkhdW0NASF0yQyhbQ0gzXSkoW0NIM10pW0NAQEhdKFtDQEhdMjMpT1tDSDJdW0NIMl0z

> <s_epik_cmdline>
J2VwaWtfcHl0aG9uJywgJy1waCcsICc3LjAnLCAnLXRuJywgJzgnLCAnLW1hJywgJzIwMCcsICctbWV0YWxfYmluZGluZycsICctaW1hZScsICc8aW5maWxlLm1hZT4nLCAnLW9tYWUnLCAnPG91dGZpbGUubWFlPic=

> <r_lp_tautomer_probability>
1

> <r_epik_Ionization_Penalty>
0.628785

> <r_epik_Ionization_Penalty_Charging>
0

> <r_epik_Ionization_Penalty_Neutral>
0.628785

> <r_epik_State_Penalty>
0.644286

> <r_epik_Charging_Adjusted_Penalty>
0.644286

> <i_epik_Tot_Q>
0

> <i_epik_Tot_abs_Q>
0

> <r_epik_Metal_State_Penalty>
0.308404

> <b_epik_Metal_Only>
0

> <s_lp_Force_Field>
OPLS_2005

> <r_lp_Energy>
39.1675

> <b_lp_Chiralities_Consistent>
1

> <s_lp_Variant>
AV-unprocessed.smi:2923-14

> <Gold.Version>
5.8.1

> <Gold.Id.Protein>
6NUR|6NUR_protein|mol2

> <Gold.PLP.Fitness>
40.6055

> <Gold.PLP.PLP>
-32.6044

> <Gold.PLP.part.hbond>
-2.0000

> <Gold.PLP.part.metal>
0.0000

> <Gold.PLP.part.buried>
-1.5973

> <Gold.PLP.part.nonpolar>
-32.3942

> <Gold.PLP.part.repulsive>
2.0489

> <Gold.PLP.ligand.clash>
0.0000

> <Gold.PLP.ligand.torsion>
0.5517

> <Gold.PLP.Chemscore.Hbond>
1.9750

> <Gold.PLP.Chemscore.CHOScore>
1.0000

> <Gold.PLP.Chemscore.Metal>
0.0000

> <Gold.Chemscore.Hbonds>
donor molecule, donor type, donor heavy atom, donor atom, acceptor molecule, acceptor atom, score
      L1  H     8    31       P1 10175  1.00
      L1  H    11    32       P1 10175  0.98
      L1  C    21    46       P1  7948  0.54

> <Gold.PLP.Chemscore.Internal.Correction>
0.1795

> <Gold.Rescore>
     Score         DG    S(hbond)    S(metal)    S(lipo)     H(rot)  DE(clash)    DE(int)     intcor
     13.83     -19.27       1.97        0.00      83.55       1.00       3.33       2.10       ----

> <Gold.Chemscore.Fitness>
13.8293

> <Gold.Chemscore.DG>
-19.2678

> <Gold.Chemscore.ZeroCoef>
-5.4800

> <Gold.Chemscore.Hbond>
1.9679

> <Gold.Chemscore.Metal>
0.0000

> <Gold.Chemscore.Lipo>
83.5479

> <Gold.Chemscore.Internal_Hbond>
0.0000

> <Gold.Chemscore.DEClash>
3.3349

> <Gold.Chemscore.DEInternal>
2.1037

> <Gold.Chemscore.Rot>
1.0000

> <Gold.Chemscore.Internal.Correction>
   9.000000E+99

> <Gold.Chemscore.Hbonds>
donor molecule, donor type, donor heavy atom, donor atom, acceptor molecule, acceptor atom, score
      L1  H     8    31       P1 10175  0.96
      L1  H    11    32       P1 10175  0.90

> <Gold.Chemscore.Hbond.Weighted>
-6.5727

> <Gold.Chemscore.Metal.Weighted>
-0.0000

> <Gold.Chemscore.Lipo.Weighted>
-9.7751

> <Gold.Chemscore.Internal_Hbond.Weighted>
0.0000

> <Gold.Chemscore.DEClash.Weighted>
3.3349

> <Gold.Chemscore.DEInternal.Weighted>
2.1037

> <Gold.Chemscore.Rot.Weighted>
2.5600

> <Gold.Chemscore.Internal.Correction.Weighted>
   9.000000E+99

> <Gold.Protein.RotatedTorsions>
[ 6907 6896 6895 6894 ] final   -0.56 input  -60.11 | X-H torsion
[ 7974 7965 7964 7962 ] final   38.93 input  175.53 | X-H torsion
[ 8008 7997 7996 7995 ] final   94.47 input   59.86 | X-H torsion
[ 10167 10162 10161 10158 ] final   64.45 input  -65.29 | X-H torsion
[ 10718 10713 10712 10709 ] final  151.84 input   66.30 | X-H torsion
[ 10763 10752 10751 10750 ] final   12.99 input  -60.55 | X-H torsion
[ 11005 11000 10999 10996 ] final    2.91 input  -57.11 | X-H torsion

> <Gold.Protein.ActiveResidues>
 VAL166  LYS551  ARG553  GLY616  TRP617  ASP618  TYR619  PRO620  LYS621  CYS622 
 ASP623  PHE694  ASN695  SER759  ASP760  ASP761  ALA762  ILE779  LEU786  VAL792 
 PHE793  MET794  SER795  GLU796  ALA797  LYS798  CYS799  TRP800  GLU811  SER814 

> <Gold.Protein.RotatedAtoms>
  151.5603  135.1065  159.9970 H   0  0  0  0  0  0  0  0  0  0  0  0  # atno 6907 bound_to 6896
  152.4450  133.7515  159.6707 H   0  0  0  0  0  0  0  0  0  0  0  0  # atno 6908 bound_to 6896
  150.8363  133.7940  159.3102 H   0  0  0  0  0  0  0  0  0  0  0  0  # atno 6909 bound_to 6896
  146.1023  139.5712  142.9406 H   0  0  0  0  0  0  0  0  0  0  0  0  # atno 7974 bound_to 7965
  156.0583  140.3299  155.7431 H   0  0  0  0  0  0  0  0  0  0  0  0  # atno 8008 bound_to 7997
  155.5494  140.0609  157.2870 H   0  0  0  0  0  0  0  0  0  0  0  0  # atno 8009 bound_to 7997
  154.4469  140.1897  156.0660 H   0  0  0  0  0  0  0  0  0  0  0  0  # atno 8010 bound_to 7997
  140.1221  144.4722  150.6914 H   0  0  0  0  0  0  0  0  0  0  0  0  # atno 10167 bound_to 10162
  157.2655  131.0806  151.1636 H   0  0  0  0  0  0  0  0  0  0  0  0  # atno 10718 bound_to 10713
  153.1766  135.6821  153.8534 H   0  0  0  0  0  0  0  0  0  0  0  0  # atno 10763 bound_to 10752
  153.7880  135.3173  155.3376 H   0  0  0  0  0  0  0  0  0  0  0  0  # atno 10764 bound_to 10752
  154.8033  135.4764  154.0423 H   0  0  0  0  0  0  0  0  0  0  0  0  # atno 10765 bound_to 10752
  140.5991  133.9853  155.8123 H   0  0  0  0  0  0  0  0  0  0  0  0  # atno 11005 bound_to 11000
  145.5829  141.0380  143.2112 LP  0  0  0  0  0  0  0  0  0  0  0  0  # atno 17320 bound_to 7965
  144.7443  139.7363  143.7298 LP  0  0  0  0  0  0  0  0  0  0  0  0  # atno 17321 bound_to 7965
  140.6866  143.2353  151.5244 LP  0  0  0  0  0  0  0  0  0  0  0  0  # atno 17342 bound_to 10162
  139.5563  144.2267  152.1618 LP  0  0  0  0  0  0  0  0  0  0  0  0  # atno 17343 bound_to 10162
  157.3129  130.6899  149.6226 LP  0  0  0  0  0  0  0  0  0  0  0  0  # atno 17370 bound_to 10713
  155.9663  130.4358  150.5107 LP  0  0  0  0  0  0  0  0  0  0  0  0  # atno 17371 bound_to 10713
  141.0884  133.9954  157.3276 LP  0  0  0  0  0  0  0  0  0  0  0  0  # atno 17394 bound_to 11000
  139.9240  135.0201  156.8169 LP  0  0  0  0  0  0  0  0  0  0  0  0  # atno 17395 bound_to 11000

$$$$
