AV-unprocessed.smi:1033|AV-procd|sdf|4494|dock7
  -GOLD-   22720 2483D 1   1.00000     0.00000
 Structure written by MMmdl.
 56 58  0  0  0  0  0  0  0  0  2 V2000
  154.2669  142.0553  163.3997 C   0  0  0  0  0  0  0  0  0  0  0  0
  153.4793  142.3020  162.1249 C   0  0  0  0  0  0  0  0  0  0  0  0
  152.6458  143.4396  162.0419 C   0  0  0  0  0  0  0  0  0  0  0  0
  151.9109  143.7148  160.8683 C   0  0  0  0  0  0  0  0  0  0  0  0
  151.0725  144.7719  160.5623 N   0  0  0  0  0  0  0  0  0  0  0  0
  150.7305  144.4889  159.3090 C   0  0  0  0  0  0  0  0  0  0  0  0
  151.2565  143.3762  158.7622 N   0  0  0  0  0  0  0  0  0  0  0  0
  151.0579  142.9007  157.4045 C   0  0  0  0  0  0  0  0  0  0  0  0
  149.6796  142.2327  157.2122 C   0  0  2  0  0  0  0  0  0  0  0  0
  149.2140  141.8518  158.4900 O   0  0  0  0  0  0  0  0  0  0  0  0
  149.7193  140.9719  156.3135 C   0  0  0  0  0  0  0  0  0  0  0  0
  149.9571  141.2155  154.8851 N   0  0  0  0  0  0  0  0  0  0  0  0
  150.4509  140.0535  154.1423 C   0  0  0  0  0  0  0  0  0  0  0  0
  149.4002  138.9384  153.9640 C   0  0  0  0  0  0  0  0  0  0  0  0
  148.1521  139.4522  153.3396 N   0  3  0  0  0  0  0  0  0  0  0  0
  147.0857  138.4223  153.2238 C   0  0  0  0  0  0  0  0  0  0  0  0
  145.8971  138.8462  152.3371 C   0  0  2  0  0  0  0  0  0  0  0  0
  144.6464  137.9807  152.5493 C   0  0  0  0  0  0  0  0  0  0  0  0
  146.2918  138.7231  150.9870 O   0  0  0  0  0  0  0  0  0  0  0  0
  147.6573  140.6611  154.0502 C   0  0  0  0  0  0  0  0  0  0  0  0
  148.7710  141.7184  154.1947 C   0  0  0  0  0  0  0  0  0  0  0  0
  152.0320  142.8126  159.7705 C   0  0  0  0  0  0  0  0  0  0  0  0
  152.8416  141.6653  159.8498 C   0  0  0  0  0  0  0  0  0  0  0  0
  153.5745  141.4095  161.0274 C   0  0  0  0  0  0  0  0  0  0  0  0
  154.4626  140.1800  161.0948 C   0  0  0  0  0  0  0  0  0  0  0  0
  154.0962  142.8443  164.1329 H   0  0  0  0  0  0  0  0  0  0  0  0
  155.3361  142.0216  163.1888 H   0  0  0  0  0  0  0  0  0  0  0  0
  153.9724  141.1083  163.8528 H   0  0  0  0  0  0  0  0  0  0  0  0
  152.5710  144.1190  162.8784 H   0  0  0  0  0  0  0  0  0  0  0  0
  150.0741  145.1381  158.7480 H   0  0  0  0  0  0  0  0  0  0  0  0
  151.1811  143.7367  156.7147 H   0  0  0  0  0  0  0  0  0  0  0  0
  151.8560  142.1915  157.1792 H   0  0  0  0  0  0  0  0  0  0  0  0
  148.9790  142.9732  156.8271 H   0  0  0  0  0  0  0  0  0  0  0  0
  149.9610  141.7011  159.0493 H   0  0  0  0  0  0  0  0  0  0  0  0
  150.4697  140.2814  156.6903 H   0  0  0  0  0  0  0  0  0  0  0  0
  148.7787  140.4318  156.4325 H   0  0  0  0  0  0  0  0  0  0  0  0
  150.7797  140.3823  153.1554 H   0  0  0  0  0  0  0  0  0  0  0  0
  151.3388  139.6417  154.6204 H   0  0  0  0  0  0  0  0  0  0  0  0
  149.8359  138.1529  153.3481 H   0  0  0  0  0  0  0  0  0  0  0  0
  149.1541  138.4850  154.9179 H   0  0  0  0  0  0  0  0  0  0  0  0
  147.5261  137.5003  152.8394 H   0  0  0  0  0  0  0  0  0  0  0  0
  146.7115  138.1897  154.2224 H   0  0  0  0  0  0  0  0  0  0  0  0
  145.6495  139.8955  152.4938 H   0  0  0  0  0  0  0  0  0  0  0  0
  144.2706  138.0717  153.5686 H   0  0  0  0  0  0  0  0  0  0  0  0
  144.8549  136.9265  152.3636 H   0  0  0  0  0  0  0  0  0  0  0  0
  143.8423  138.2832  151.8778 H   0  0  0  0  0  0  0  0  0  0  0  0
  145.5696  138.9797  150.4335 H   0  0  0  0  0  0  0  0  0  0  0  0
  146.8246  141.0906  153.4922 H   0  0  0  0  0  0  0  0  0  0  0  0
  147.2630  140.3813  155.0281 H   0  0  0  0  0  0  0  0  0  0  0  0
  148.3830  142.5940  154.7168 H   0  0  0  0  0  0  0  0  0  0  0  0
  149.0580  142.0695  153.2025 H   0  0  0  0  0  0  0  0  0  0  0  0
  152.9149  140.9993  159.0027 H   0  0  0  0  0  0  0  0  0  0  0  0
  154.4072  139.5981  160.1742 H   0  0  0  0  0  0  0  0  0  0  0  0
  154.1569  139.5328  161.9173 H   0  0  0  0  0  0  0  0  0  0  0  0
  155.5033  140.4674  161.2472 H   0  0  0  0  0  0  0  0  0  0  0  0
  148.3898  139.7456  152.4028 H   0  0  0  0  0  0  0  0  0  0  0  0
  1  2  1  0  0  0  0
  1 26  1  0  0  0  0
  1 27  1  0  0  0  0
  1 28  1  0  0  0  0
  2 24  1  0  0  0  0
  2  3  2  0  0  0  0
  3  4  1  0  0  0  0
  3 29  1  0  0  0  0
  4 22  2  0  0  0  0
  4  5  1  0  0  0  0
  5  6  2  0  0  0  0
  6  7  1  0  0  0  0
  6 30  1  0  0  0  0
  7  8  1  0  0  0  0
  7 22  1  0  0  0  0
  8  9  1  0  0  0  0
  8 31  1  0  0  0  0
  8 32  1  0  0  0  0
  9 10  1  0  0  0  0
  9 11  1  0  0  0  0
  9 33  1  0  0  0  0
 10 34  1  0  0  0  0
 11 12  1  0  0  0  0
 11 35  1  0  0  0  0
 11 36  1  0  0  0  0
 12 21  1  0  0  0  0
 12 13  1  0  0  0  0
 13 14  1  0  0  0  0
 13 37  1  0  0  0  0
 13 38  1  0  0  0  0
 14 15  1  0  0  0  0
 14 39  1  0  0  0  0
 14 40  1  0  0  0  0
 15 16  1  0  0  0  0
 15 20  1  0  0  0  0
 15 56  1  0  0  0  0
 16 17  1  0  0  0  0
 16 41  1  0  0  0  0
 16 42  1  0  0  0  0
 17 18  1  0  0  0  0
 17 19  1  0  0  0  0
 17 43  1  0  0  0  0
 18 44  1  0  0  0  0
 18 45  1  0  0  0  0
 18 46  1  0  0  0  0
 19 47  1  0  0  0  0
 20 21  1  0  0  0  0
 20 48  1  0  0  0  0
 20 49  1  0  0  0  0
 21 50  1  0  0  0  0
 21 51  1  0  0  0  0
 22 23  1  0  0  0  0
 23 24  2  0  0  0  0
 23 52  1  0  0  0  0
 24 25  1  0  0  0  0
 25 53  1  0  0  0  0
 25 54  1  0  0  0  0
 25 55  1  0  0  0  0
M  CHG  1  15   1
M  END
> <s_m_source_file>
AV-unprocessed.smi

> <i_m_source_file_index>
1033

> <i_lp_mmshare_version>
43012

> <i_f3d_flags>
0

> <s_epik_input>
W0NIM11jKFtjSF0xKWMoW0NIM10pW2NIXWMoYzEyKW4oW2NIXW4yKVtDSDJdW0NASF0oW09IXSlbQ0gyXU4zW0NIMl1bQ0gyXU4oW0NIMl1bQ0gyXTMpW0NIMl1bQ0BIXShbQ0gzXSlbT0hd

> <s_epik_cmdline>
J2VwaWtfcHl0aG9uJywgJy1waCcsICc3LjAnLCAnLXRuJywgJzgnLCAnLW1hJywgJzIwMCcsICctbWV0YWxfYmluZGluZycsICctaW1hZScsICc8aW5maWxlLm1hZT4nLCAnLW9tYWUnLCAnPG91dGZpbGUubWFlPic=

> <r_epik_Ionization_Penalty>
0.129152

> <r_epik_Ionization_Penalty_Charging>
0.00083231

> <r_epik_Ionization_Penalty_Neutral>
0.128319

> <r_epik_State_Penalty>
0.556973

> <r_epik_Charging_Adjusted_Penalty>
0.557805

> <i_epik_Tot_Q>
1

> <i_epik_Tot_abs_Q>
1

> <r_epik_Metal_State_Penalty>
0.490047

> <b_epik_Metal_Only>
0

> <s_lp_Force_Field>
OPLS_2005

> <r_lp_Energy>
33.6507

> <b_lp_Chiralities_Consistent>
1

> <s_lp_Variant>
AV-unprocessed.smi:1033-5

> <Gold.Version>
5.8.1

> <Gold.Id.Protein>
6NUR|6NUR_protein|mol2

> <Gold.PLP.Fitness>
63.5732

> <Gold.PLP.PLP>
-55.1198

> <Gold.PLP.part.hbond>
-5.0810

> <Gold.PLP.part.metal>
0.0000

> <Gold.PLP.part.buried>
0.9638

> <Gold.PLP.part.nonpolar>
-50.7660

> <Gold.PLP.part.repulsive>
0.3528

> <Gold.PLP.ligand.clash>
0.0000

> <Gold.PLP.ligand.torsion>
1.1666

> <Gold.PLP.Chemscore.Hbond>
2.5850

> <Gold.PLP.Chemscore.CHOScore>
0.9836

> <Gold.PLP.Chemscore.Metal>
0.0000

> <Gold.Chemscore.Hbonds>
donor molecule, donor type, donor heavy atom, donor atom, acceptor molecule, acceptor atom, score
      L1  H    15    56       P1  7957  1.00
      L1  H    19    47       P1 10171  0.98
      P1  H  7954  7966       L1    19  0.24
      L1  C     6    30       P1  8029  0.48

> <Gold.PLP.Chemscore.Internal.Correction>
0.0807

> <Gold.Rescore>
     Score         DG    S(hbond)    S(metal)    S(lipo)     H(rot)  DE(clash)    DE(int)     intcor
     19.04     -23.74       2.58        0.00     149.38       3.07       3.41       1.29       ----

> <Gold.Chemscore.Fitness>
19.0396

> <Gold.Chemscore.DG>
-23.7411

> <Gold.Chemscore.ZeroCoef>
-5.4800

> <Gold.Chemscore.Hbond>
2.5838

> <Gold.Chemscore.Metal>
0.0000

> <Gold.Chemscore.Lipo>
149.3828

> <Gold.Chemscore.Internal_Hbond>
0.0000

> <Gold.Chemscore.DEClash>
3.4142

> <Gold.Chemscore.DEInternal>
1.2873

> <Gold.Chemscore.Rot>
3.0650

> <Gold.Chemscore.Internal.Correction>
   9.000000E+99

> <Gold.Chemscore.Hbonds>
donor molecule, donor type, donor heavy atom, donor atom, acceptor molecule, acceptor atom, score
      L1  H    15    56       P1  7957  0.95
      L1  H    19    47       P1 10171  0.93
      P1  H  7954  7966       L1    19  0.22

> <Gold.Chemscore.Hbond.Weighted>
-8.6298

> <Gold.Chemscore.Metal.Weighted>
-0.0000

> <Gold.Chemscore.Lipo.Weighted>
-17.4778

> <Gold.Chemscore.Internal_Hbond.Weighted>
0.0000

> <Gold.Chemscore.DEClash.Weighted>
3.4142

> <Gold.Chemscore.DEInternal.Weighted>
1.2873

> <Gold.Chemscore.Rot.Weighted>
7.8465

> <Gold.Chemscore.Internal.Correction.Weighted>
   9.000000E+99

> <Gold.Protein.RotatedTorsions>
[ 6907 6896 6895 6894 ] final -130.83 input  -60.11 | X-H torsion
[ 7974 7965 7964 7962 ] final  106.99 input  175.53 | X-H torsion
[ 8008 7997 7996 7995 ] final -165.31 input   59.86 | X-H torsion
[ 10167 10162 10161 10158 ] final   50.74 input  -65.29 | X-H torsion
[ 10718 10713 10712 10709 ] final  -39.80 input   66.30 | X-H torsion
[ 10763 10752 10751 10750 ] final   20.39 input  -60.55 | X-H torsion
[ 11005 11000 10999 10996 ] final   25.40 input  -57.11 | X-H torsion

> <Gold.Protein.ActiveResidues>
 VAL166  LYS551  ARG553  GLY616  TRP617  ASP618  TYR619  PRO620  LYS621  CYS622 
 ASP623  PHE694  ASN695  SER759  ASP760  ASP761  ALA762  ILE779  LEU786  VAL792 
 PHE793  MET794  SER795  GLU796  ALA797  LYS798  CYS799  TRP800  GLU811  SER814 

> <Gold.Protein.RotatedAtoms>
  150.9441  133.6623  159.2784 H   0  0  0  0  0  0  0  0  0  0  0  0  # atno 6907 bound_to 6896
  151.4002  135.0968  159.9563 H   0  0  0  0  0  0  0  0  0  0  0  0  # atno 6908 bound_to 6896
  152.5082  133.8937  159.7461 H   0  0  0  0  0  0  0  0  0  0  0  0  # atno 6909 bound_to 6896
  145.2995  139.2574  143.3822 H   0  0  0  0  0  0  0  0  0  0  0  0  # atno 7974 bound_to 7965
  155.8479  140.0958  157.1693 H   0  0  0  0  0  0  0  0  0  0  0  0  # atno 8008 bound_to 7997
  154.3984  140.1388  156.3870 H   0  0  0  0  0  0  0  0  0  0  0  0  # atno 8009 bound_to 7997
  155.7993  140.3453  155.5396 H   0  0  0  0  0  0  0  0  0  0  0  0  # atno 8010 bound_to 7997
  140.2692  144.3284  150.6295 H   0  0  0  0  0  0  0  0  0  0  0  0  # atno 10167 bound_to 10162
  156.2884  130.4225  149.8263 H   0  0  0  0  0  0  0  0  0  0  0  0  # atno 10718 bound_to 10713
  153.1081  135.6690  153.9549 H   0  0  0  0  0  0  0  0  0  0  0  0  # atno 10763 bound_to 10752
  153.9100  135.3026  155.3450 H   0  0  0  0  0  0  0  0  0  0  0  0  # atno 10764 bound_to 10752
  154.7502  135.5038  153.9352 H   0  0  0  0  0  0  0  0  0  0  0  0  # atno 10765 bound_to 10752
  140.3483  134.2257  155.7682 H   0  0  0  0  0  0  0  0  0  0  0  0  # atno 11005 bound_to 11000
  146.3157  140.3505  142.8656 LP  0  0  0  0  0  0  0  0  0  0  0  0  # atno 17320 bound_to 7965
  144.9106  140.7752  143.5810 LP  0  0  0  0  0  0  0  0  0  0  0  0  # atno 17321 bound_to 7965
  140.5903  143.2168  151.7265 LP  0  0  0  0  0  0  0  0  0  0  0  0  # atno 17342 bound_to 10162
  139.4994  144.3949  152.0242 LP  0  0  0  0  0  0  0  0  0  0  0  0  # atno 17343 bound_to 10162
  156.5685  130.8414  151.3350 LP  0  0  0  0  0  0  0  0  0  0  0  0  # atno 17370 bound_to 10713
  157.7335  130.9732  150.1983 LP  0  0  0  0  0  0  0  0  0  0  0  0  # atno 17371 bound_to 10713
  141.2019  133.7950  157.0416 LP  0  0  0  0  0  0  0  0  0  0  0  0  # atno 17394 bound_to 11000
  140.0724  134.9694  157.1490 LP  0  0  0  0  0  0  0  0  0  0  0  0  # atno 17395 bound_to 11000

$$$$
