AV-unprocessed.smi:264|AV-procd|sdf|2014|dock8
  -GOLD-   2262021213D 1   1.00000     0.00000
 Structure written by MMmdl.
 52 56  0  0  0  0  0  0  0  0  1 V2000
  153.3193  141.7563  159.6648 C   0  0  0  0  0  0  0  0  0  0  0  0
  152.0537  142.6140  159.5074 C   0  0  1  0  0  0  0  0  0  0  0  0
  152.3810  143.9438  159.9033 O   0  0  0  0  0  0  0  0  0  0  0  0
  151.5777  144.8514  159.1702 C   0  0  0  0  0  0  0  0  0  0  0  0
  151.5689  144.2299  157.7823 C   0  0  0  0  0  0  0  0  0  0  0  0
  151.4607  142.7355  158.0745 C   0  0  2  0  0  0  0  0  0  0  0  0
  150.0831  142.4090  158.1497 O   0  0  0  0  0  0  0  0  0  0  0  0
  152.1073  141.8413  156.9839 C   0  0  0  0  0  0  0  0  0  0  0  0
  151.7130  140.4431  157.0703 N   0  0  0  0  0  0  0  0  0  0  0  0
  151.7874  139.6318  158.1801 C   0  0  0  0  0  0  0  0  0  0  0  0
  151.3653  138.4094  158.0058 N   0  0  0  0  0  0  0  0  0  0  0  0
  150.9658  138.3747  156.6750 C   0  0  0  0  0  0  0  0  0  0  0  0
  150.4038  137.3719  155.8357 C   0  0  0  0  0  0  0  0  0  0  0  0
  150.1532  136.1114  156.2710 N   0  0  0  0  0  0  0  0  0  0  0  0
  149.3002  136.0283  157.4496 C   0  0  0  0  0  0  0  0  0  0  0  0
  148.7919  134.5908  157.6263 C   0  0  0  0  0  0  0  0  0  0  0  0
  149.8876  133.6768  157.6548 O   0  0  0  0  0  0  0  0  0  0  0  0
  150.7486  133.7224  156.5098 C   0  0  2  0  0  0  0  0  0  0  0  0
  150.0992  133.1088  155.2728 C   0  0  0  0  0  0  0  0  0  0  0  0
  150.2646  131.6189  155.5321 C   0  0  0  0  0  0  0  0  0  0  0  0
  151.5632  131.5151  156.0959 O   0  0  0  0  0  0  0  0  0  0  0  0
  151.8906  132.7270  156.7727 C   0  0  0  0  0  0  0  0  0  0  0  0
  151.2633  135.1640  156.3075 C   0  0  0  0  0  0  0  0  0  0  0  0
  150.1136  137.7206  154.5534 N   0  0  0  0  0  0  0  0  0  0  0  0
  150.3607  138.9597  154.1181 C   0  0  0  0  0  0  0  0  0  0  0  0
  150.8812  139.9905  154.7864 N   0  0  0  0  0  0  0  0  0  0  0  0
  151.1709  139.6491  156.0745 C   0  0  0  0  0  0  0  0  0  0  0  0
  153.1350  140.7178  159.3894 H   0  0  0  0  0  0  0  0  0  0  0  0
  153.6596  141.7620  160.7005 H   0  0  0  0  0  0  0  0  0  0  0  0
  154.1385  142.1333  159.0522 H   0  0  0  0  0  0  0  0  0  0  0  0
  151.2984  142.2402  160.2013 H   0  0  0  0  0  0  0  0  0  0  0  0
  150.5732  144.8851  159.5950 H   0  0  0  0  0  0  0  0  0  0  0  0
  151.9948  145.8585  159.1803 H   0  0  0  0  0  0  0  0  0  0  0  0
  150.7730  144.6149  157.1429 H   0  0  0  0  0  0  0  0  0  0  0  0
  152.5206  144.4489  157.2966 H   0  0  0  0  0  0  0  0  0  0  0  0
  149.6741  142.6451  157.3313 H   0  0  0  0  0  0  0  0  0  0  0  0
  151.8359  142.1957  155.9891 H   0  0  0  0  0  0  0  0  0  0  0  0
  153.1950  141.8937  157.0444 H   0  0  0  0  0  0  0  0  0  0  0  0
  152.1679  139.9770  159.1305 H   0  0  0  0  0  0  0  0  0  0  0  0
  149.8782  136.3284  158.3248 H   0  0  0  0  0  0  0  0  0  0  0  0
  148.4522  136.7090  157.3826 H   0  0  0  0  0  0  0  0  0  0  0  0
  148.2427  134.5047  158.5635 H   0  0  0  0  0  0  0  0  0  0  0  0
  148.0887  134.3314  156.8357 H   0  0  0  0  0  0  0  0  0  0  0  0
  149.0633  133.3985  155.1053 H   0  0  0  0  0  0  0  0  0  0  0  0
  150.6620  133.3823  154.3793 H   0  0  0  0  0  0  0  0  0  0  0  0
  149.5276  131.2696  156.2566 H   0  0  0  0  0  0  0  0  0  0  0  0
  150.1702  131.0178  154.6276 H   0  0  0  0  0  0  0  0  0  0  0  0
  152.8321  133.0898  156.3586 H   0  0  0  0  0  0  0  0  0  0  0  0
  152.0485  132.5510  157.8373 H   0  0  0  0  0  0  0  0  0  0  0  0
  151.8467  135.2275  155.3877 H   0  0  0  0  0  0  0  0  0  0  0  0
  151.9289  135.4347  157.1287 H   0  0  0  0  0  0  0  0  0  0  0  0
  150.1050  139.1526  153.0868 H   0  0  0  0  0  0  0  0  0  0  0  0
  1  2  1  0  0  0  0
  1 28  1  0  0  0  0
  1 29  1  0  0  0  0
  1 30  1  0  0  0  0
  2  6  1  0  0  0  0
  2  3  1  0  0  0  0
  2 31  1  0  0  0  0
  3  4  1  0  0  0  0
  4  5  1  0  0  0  0
  4 32  1  0  0  0  0
  4 33  1  0  0  0  0
  5  6  1  0  0  0  0
  5 34  1  0  0  0  0
  5 35  1  0  0  0  0
  6  7  1  0  0  0  0
  6  8  1  0  0  0  0
  7 36  1  0  0  0  0
  8  9  1  0  0  0  0
  8 37  1  0  0  0  0
  8 38  1  0  0  0  0
  9 27  1  0  0  0  0
  9 10  1  0  0  0  0
 10 11  2  0  0  0  0
 10 39  1  0  0  0  0
 11 12  1  0  0  0  0
 12 27  2  0  0  0  0
 12 13  1  0  0  0  0
 13 14  1  0  0  0  0
 13 24  2  0  0  0  0
 14 23  1  0  0  0  0
 14 15  1  0  0  0  0
 15 16  1  0  0  0  0
 15 40  1  0  0  0  0
 15 41  1  0  0  0  0
 16 17  1  0  0  0  0
 16 42  1  0  0  0  0
 16 43  1  0  0  0  0
 17 18  1  0  0  0  0
 18 22  1  0  0  0  0
 18 19  1  0  0  0  0
 18 23  1  0  0  0  0
 19 20  1  0  0  0  0
 19 44  1  0  0  0  0
 19 45  1  0  0  0  0
 20 21  1  0  0  0  0
 20 46  1  0  0  0  0
 20 47  1  0  0  0  0
 21 22  1  0  0  0  0
 22 48  1  0  0  0  0
 22 49  1  0  0  0  0
 23 50  1  0  0  0  0
 23 51  1  0  0  0  0
 24 25  1  0  0  0  0
 25 26  2  0  0  0  0
 25 52  1  0  0  0  0
 26 27  1  0  0  0  0
M  END
> <s_m_source_file>
AV-unprocessed.smi

> <i_m_source_file_index>
264

> <i_lp_mmshare_version>
43012

> <i_f3d_flags>
0

> <s_epik_input>
W0NIMl0xW0NIMl1PW0NAQEhdKFtDSDNdKVtDQEBdMShbT0hdKVtDSDJdbihbY0hdbjIpYyhjMjMpbltjSF1uYzNOKFtDSDJdNClbQ0gyXVtDSDJdT1tDQF00NVtDSDJdW0NIMl1PW0NIMl01

> <s_epik_cmdline>
J2VwaWtfcHl0aG9uJywgJy1waCcsICc3LjAnLCAnLXRuJywgJzgnLCAnLW1hJywgJzIwMCcsICctbWV0YWxfYmluZGluZycsICctaW1hZScsICc8aW5maWxlLm1hZT4nLCAnLW9tYWUnLCAnPG91dGZpbGUubWFlPic=

> <r_lp_tautomer_probability>
1

> <r_epik_Ionization_Penalty>
0.00539389

> <r_epik_Ionization_Penalty_Charging>
0

> <r_epik_Ionization_Penalty_Neutral>
0.00539389

> <r_epik_State_Penalty>
0.00375441

> <r_epik_Charging_Adjusted_Penalty>
0.00375441

> <i_epik_Tot_Q>
0

> <i_epik_Tot_abs_Q>
0

> <r_epik_Metal_State_Penalty>
-0

> <b_epik_Metal_Only>
0

> <s_lp_Force_Field>
OPLS_2005

> <r_lp_Energy>
54.0321

> <b_lp_Chiralities_Consistent>
1

> <s_lp_Variant>
AV-unprocessed.smi:264-8

> <Gold.Version>
5.8.1

> <Gold.Id.Protein>
6NUR|6NUR_protein|mol2

> <Gold.PLP.Fitness>
45.1364

> <Gold.PLP.PLP>
-37.3830

> <Gold.PLP.part.hbond>
-2.0000

> <Gold.PLP.part.metal>
0.0000

> <Gold.PLP.part.buried>
-6.7231

> <Gold.PLP.part.nonpolar>
-28.1291

> <Gold.PLP.part.repulsive>
0.3152

> <Gold.PLP.ligand.clash>
0.0000

> <Gold.PLP.ligand.torsion>
0.5359

> <Gold.PLP.Chemscore.Hbond>
1.8480

> <Gold.PLP.Chemscore.CHOScore>
1.0000

> <Gold.PLP.Chemscore.Metal>
0.0000

> <Gold.Chemscore.Hbonds>
donor molecule, donor type, donor heavy atom, donor atom, acceptor molecule, acceptor atom, score
      P1  H  6896  6907       L1    17  0.85
      P1  H  7989  7998       L1    26  1.00
      L1  C    25    52       P1  7957  1.00

> <Gold.PLP.Chemscore.Internal.Correction>
0.2811

> <Gold.Rescore>
     Score         DG    S(hbond)    S(metal)    S(lipo)     H(rot)  DE(clash)    DE(int)     intcor
     13.59     -16.55       1.54        0.00      96.72       2.11       1.69       1.27       ----

> <Gold.Chemscore.Fitness>
13.5875

> <Gold.Chemscore.DG>
-16.5470

> <Gold.Chemscore.ZeroCoef>
-5.4800

> <Gold.Chemscore.Hbond>
1.5397

> <Gold.Chemscore.Metal>
0.0000

> <Gold.Chemscore.Lipo>
96.7217

> <Gold.Chemscore.Internal_Hbond>
0.0000

> <Gold.Chemscore.DEClash>
1.6940

> <Gold.Chemscore.DEInternal>
1.2655

> <Gold.Chemscore.Rot>
2.1063

> <Gold.Chemscore.Internal.Correction>
   9.000000E+99

> <Gold.Chemscore.Hbonds>
donor molecule, donor type, donor heavy atom, donor atom, acceptor molecule, acceptor atom, score
      P1  H  6896  6907       L1    17  0.45
      P1  H  7989  7998       L1    26  0.30

> <Gold.Chemscore.Hbond.Weighted>
-5.1427

> <Gold.Chemscore.Metal.Weighted>
-0.0000

> <Gold.Chemscore.Lipo.Weighted>
-11.3164

> <Gold.Chemscore.Internal_Hbond.Weighted>
0.0000

> <Gold.Chemscore.DEClash.Weighted>
1.6940

> <Gold.Chemscore.DEInternal.Weighted>
1.2655

> <Gold.Chemscore.Rot.Weighted>
5.3921

> <Gold.Chemscore.Internal.Correction.Weighted>
   9.000000E+99

> <Gold.Protein.RotatedTorsions>
[ 6907 6896 6895 6894 ] final -142.34 input  -60.11 | X-H torsion
[ 7974 7965 7964 7962 ] final -173.53 input  175.53 | X-H torsion
[ 8008 7997 7996 7995 ] final  158.58 input   59.86 | X-H torsion
[ 10167 10162 10161 10158 ] final  149.71 input  -65.29 | X-H torsion
[ 10718 10713 10712 10709 ] final  146.29 input   66.30 | X-H torsion
[ 10763 10752 10751 10750 ] final -107.09 input  -60.55 | X-H torsion
[ 11005 11000 10999 10996 ] final  -88.63 input  -57.11 | X-H torsion

> <Gold.Protein.ActiveResidues>
 VAL166  LYS551  ARG553  GLY616  TRP617  ASP618  TYR619  PRO620  LYS621  CYS622 
 ASP623  PHE694  ASN695  SER759  ASP760  ASP761  ALA762  ILE779  LEU786  VAL792 
 PHE793  MET794  SER795  GLU796  ALA797  LYS798  CYS799  TRP800  GLU811  SER814 

> <Gold.Protein.RotatedAtoms>
  151.0858  133.5354  159.2617 H   0  0  0  0  0  0  0  0  0  0  0  0  # atno 6907 bound_to 6896
  151.2241  135.0529  159.8971 H   0  0  0  0  0  0  0  0  0  0  0  0  # atno 6908 bound_to 6896
  152.5429  134.0656  159.8225 H   0  0  0  0  0  0  0  0  0  0  0  0  # atno 6909 bound_to 6896
  144.7137  140.1608  143.6376 H   0  0  0  0  0  0  0  0  0  0  0  0  # atno 7974 bound_to 7965
  156.2293  140.1854  156.7282 H   0  0  0  0  0  0  0  0  0  0  0  0  # atno 8008 bound_to 7997
  154.5995  140.0638  156.9377 H   0  0  0  0  0  0  0  0  0  0  0  0  # atno 8009 bound_to 7997
  155.2198  140.3306  155.4319 H   0  0  0  0  0  0  0  0  0  0  0  0  # atno 8010 bound_to 7997
  139.4858  144.5580  151.7282 H   0  0  0  0  0  0  0  0  0  0  0  0  # atno 10167 bound_to 10162
  157.3349  131.0926  151.1131 H   0  0  0  0  0  0  0  0  0  0  0  0  # atno 10718 bound_to 10713
  154.8053  135.4688  154.0377 H   0  0  0  0  0  0  0  0  0  0  0  0  # atno 10763 bound_to 10752
  153.1851  135.6846  153.8433 H   0  0  0  0  0  0  0  0  0  0  0  0  # atno 10764 bound_to 10752
  153.7970  135.3235  155.3363 H   0  0  0  0  0  0  0  0  0  0  0  0  # atno 10765 bound_to 10752
  141.1598  133.7581  156.9478 H   0  0  0  0  0  0  0  0  0  0  0  0  # atno 11005 bound_to 11000
  145.9032  139.2443  143.1481 LP  0  0  0  0  0  0  0  0  0  0  0  0  # atno 17320 bound_to 7965
  145.9790  140.8698  143.0124 LP  0  0  0  0  0  0  0  0  0  0  0  0  # atno 17321 bound_to 7965
  140.5145  144.0974  150.6004 LP  0  0  0  0  0  0  0  0  0  0  0  0  # atno 17342 bound_to 10162
  140.3911  143.2752  152.0059 LP  0  0  0  0  0  0  0  0  0  0  0  0  # atno 17343 bound_to 10162
  157.2365  130.6549  149.5871 LP  0  0  0  0  0  0  0  0  0  0  0  0  # atno 17370 bound_to 10713
  155.9700  130.4582  150.5990 LP  0  0  0  0  0  0  0  0  0  0  0  0  # atno 17371 bound_to 10713
  140.1277  134.9376  157.2294 LP  0  0  0  0  0  0  0  0  0  0  0  0  # atno 17394 bound_to 11000
  140.2992  134.3152  155.7294 LP  0  0  0  0  0  0  0  0  0  0  0  0  # atno 17395 bound_to 11000

$$$$
