AV-unprocessed.smi:3002|AV-procd|sdf|11436|dock8
  -GOLD-   2272016363D 1   1.00000     0.00000
 Structure written by MMmdl.
 34 35  0  0  0  0  0  0  0  0  1 V2000
  145.8573  135.4226  151.3710 C   0  0  0  0  0  0  0  0  0  0  0  0
  146.3973  133.9817  151.2670 C   0  0  1  0  0  0  0  0  0  0  0  0
  146.8988  133.4432  152.6154 C   0  0  0  0  0  0  0  0  0  0  0  0
  146.3306  132.4996  153.1661 O   0  0  0  0  0  0  0  0  0  0  0  0
  147.9695  134.0596  153.1402 N   0  0  0  0  0  0  0  0  0  0  0  0
  148.5913  133.7198  154.4154 C   0  0  0  0  0  0  0  0  0  0  0  0
  149.5139  134.8430  154.9288 C   0  0  1  0  0  0  0  0  0  0  0  0
  148.8020  136.2079  154.9928 C   0  0  0  0  0  0  0  0  0  0  0  0
  149.6978  137.1894  155.7551 C   0  0  0  0  0  0  0  0  0  0  0  0
  150.5528  136.1887  157.0286 S   0  0  0  0  0  0  0  0  0  0  0  0
  152.0034  136.4008  156.9113 O   0  0  0  0  0  0  0  0  0  0  0  0
  149.8658  136.3452  158.3197 O   0  0  0  0  0  0  0  0  0  0  0  0
  150.1123  134.5581  156.3173 C   0  0  0  0  0  0  0  0  0  0  0  0
  145.4234  133.0637  150.6900 N   0  0  0  0  0  0  0  0  0  0  0  0
  145.5208  131.7553  150.4431 C   0  0  0  0  0  0  0  0  0  0  0  0
  144.4147  131.2155  149.9507 N   0  0  0  0  0  0  0  0  0  0  0  0
  143.6121  132.3207  149.9295 C   0  0  0  0  0  0  0  0  0  0  0  0
  144.1625  133.4507  150.3726 N   0  0  0  0  0  0  0  0  0  0  0  0
  146.6192  136.0994  151.7593 H   0  0  0  0  0  0  0  0  0  0  0  0
  144.9901  135.4910  152.0288 H   0  0  0  0  0  0  0  0  0  0  0  0
  145.5582  135.7965  150.3914 H   0  0  0  0  0  0  0  0  0  0  0  0
  147.2506  134.0089  150.5870 H   0  0  0  0  0  0  0  0  0  0  0  0
  148.3768  134.8260  152.6244 H   0  0  0  0  0  0  0  0  0  0  0  0
  147.8204  133.4937  155.1542 H   0  0  0  0  0  0  0  0  0  0  0  0
  149.1617  132.8010  154.2761 H   0  0  0  0  0  0  0  0  0  0  0  0
  150.3468  134.9549  154.2331 H   0  0  0  0  0  0  0  0  0  0  0  0
  148.5571  136.5831  153.9987 H   0  0  0  0  0  0  0  0  0  0  0  0
  147.8605  136.0979  155.5329 H   0  0  0  0  0  0  0  0  0  0  0  0
  150.4549  137.6138  155.0953 H   0  0  0  0  0  0  0  0  0  0  0  0
  149.1433  138.0039  156.2215 H   0  0  0  0  0  0  0  0  0  0  0  0
  149.3768  134.0958  156.9761 H   0  0  0  0  0  0  0  0  0  0  0  0
  150.9935  133.9175  156.2766 H   0  0  0  0  0  0  0  0  0  0  0  0
  146.4187  131.1849  150.6306 H   0  0  0  0  0  0  0  0  0  0  0  0
  142.5893  132.2903  149.5835 H   0  0  0  0  0  0  0  0  0  0  0  0
  1  2  1  0  0  0  0
  1 19  1  0  0  0  0
  1 20  1  0  0  0  0
  1 21  1  0  0  0  0
  2  3  1  0  0  0  0
  2 14  1  0  0  0  0
  2 22  1  0  0  0  0
  3  4  2  0  0  0  0
  3  5  1  0  0  0  0
  5  6  1  0  0  0  0
  5 23  1  0  0  0  0
  6  7  1  0  0  0  0
  6 24  1  0  0  0  0
  6 25  1  0  0  0  0
  7 13  1  0  0  0  0
  7  8  1  0  0  0  0
  7 26  1  0  0  0  0
  8  9  1  0  0  0  0
  8 27  1  0  0  0  0
  8 28  1  0  0  0  0
  9 10  1  0  0  0  0
  9 29  1  0  0  0  0
  9 30  1  0  0  0  0
 10 11  2  0  0  0  0
 10 12  2  0  0  0  0
 10 13  1  0  0  0  0
 13 31  1  0  0  0  0
 13 32  1  0  0  0  0
 14 18  1  0  0  0  0
 14 15  1  0  0  0  0
 15 16  2  0  0  0  0
 15 33  1  0  0  0  0
 16 17  1  0  0  0  0
 17 18  2  0  0  0  0
 17 34  1  0  0  0  0
M  END
> <s_m_source_file>
AV-unprocessed.smi

> <i_m_source_file_index>
3002

> <i_lp_mmshare_version>
43012

> <i_f3d_flags>
0

> <s_epik_input>
bjFbY0hdbltjSF1uMVtDQEhdKFtDSDNdKUMoPU8pW05IXVtDSDJdW0NAQEhdKFtDSDJdMilbQ0gyXVtDSDJdUzIoPU8pPU8=

> <s_epik_cmdline>
J2VwaWtfcHl0aG9uJywgJy1waCcsICc3LjAnLCAnLXRuJywgJzgnLCAnLW1hJywgJzIwMCcsICctbWV0YWxfYmluZGluZycsICctaW1hZScsICc8aW5maWxlLm1hZT4nLCAnLW9tYWUnLCAnPG91dGZpbGUubWFlPic=

> <r_lp_tautomer_probability>
1

> <r_epik_Ionization_Penalty>
1.1748e-05

> <r_epik_Ionization_Penalty_Charging>
0

> <r_epik_Ionization_Penalty_Neutral>
1.1748e-05

> <r_epik_State_Penalty>
-0

> <r_epik_Charging_Adjusted_Penalty>
0

> <i_epik_Tot_Q>
0

> <i_epik_Tot_abs_Q>
0

> <r_epik_Metal_State_Penalty>
-0

> <b_epik_Metal_Only>
0

> <s_lp_Force_Field>
OPLS_2005

> <r_lp_Energy>
7.1985

> <b_lp_Chiralities_Consistent>
1

> <s_lp_Variant>
AV-unprocessed.smi:3002-4

> <Gold.Version>
5.8.1

> <Gold.Id.Protein>
6NUR|6NUR_protein|mol2

> <Gold.PLP.Fitness>
42.9947

> <Gold.PLP.PLP>
-26.4906

> <Gold.PLP.part.hbond>
-4.0000

> <Gold.PLP.part.metal>
0.0000

> <Gold.PLP.part.buried>
-1.1978

> <Gold.PLP.part.nonpolar>
-21.6119

> <Gold.PLP.part.repulsive>
0.4221

> <Gold.PLP.ligand.clash>
0.0000

> <Gold.PLP.ligand.torsion>
0.3102

> <Gold.PLP.Chemscore.Hbond>
3.1820

> <Gold.PLP.Chemscore.CHOScore>
2.4917

> <Gold.PLP.Chemscore.Metal>
0.0000

> <Gold.Chemscore.Hbonds>
donor molecule, donor type, donor heavy atom, donor atom, acceptor molecule, acceptor atom, score
      L1  H     5    23       P1  7948  1.00
      P1  H  6896  6908       L1    12  0.49
      P1  H 10752 10764       L1    11  0.19
      P1  H 10785 10796       L1    16  0.31
      L1  C    15    33       P1 10747  0.84
      L1  C    17    34       P1 10186  0.62
      L1  C    17    34       P1 10952  0.78

> <Gold.PLP.Chemscore.Internal.Correction>
0.1035

> <Gold.Rescore>
     Score         DG    S(hbond)    S(metal)    S(lipo)     H(rot)  DE(clash)    DE(int)     intcor
     10.99     -12.82       2.93        0.00      31.51       2.39       0.27       1.55       ----

> <Gold.Chemscore.Fitness>
10.9920

> <Gold.Chemscore.DG>
-12.8169

> <Gold.Chemscore.ZeroCoef>
-5.4800

> <Gold.Chemscore.Hbond>
2.9284

> <Gold.Chemscore.Metal>
0.0000

> <Gold.Chemscore.Lipo>
31.5054

> <Gold.Chemscore.Internal_Hbond>
0.0000

> <Gold.Chemscore.DEClash>
0.2743

> <Gold.Chemscore.DEInternal>
1.5506

> <Gold.Chemscore.Rot>
2.3946

> <Gold.Chemscore.Internal.Correction>
   9.000000E+99

> <Gold.Chemscore.Hbonds>
donor molecule, donor type, donor heavy atom, donor atom, acceptor molecule, acceptor atom, score
      L1  H     5    23       P1  7948  0.40
      P1  H  6896  6908       L1    12  0.23
      P1  H 10752 10764       L1    11  0.19
      P1  H 10785 10796       L1    16  0.04

> <Gold.Chemscore.Hbond.Weighted>
-9.7809

> <Gold.Chemscore.Metal.Weighted>
-0.0000

> <Gold.Chemscore.Lipo.Weighted>
-3.6861

> <Gold.Chemscore.Internal_Hbond.Weighted>
0.0000

> <Gold.Chemscore.DEClash.Weighted>
0.2743

> <Gold.Chemscore.DEInternal.Weighted>
1.5506

> <Gold.Chemscore.Rot.Weighted>
6.1301

> <Gold.Chemscore.Internal.Correction.Weighted>
   9.000000E+99

> <Gold.Protein.RotatedTorsions>
[ 6907 6896 6895 6894 ] final -174.06 input  -60.11 | X-H torsion
[ 7974 7965 7964 7962 ] final  132.15 input  175.53 | X-H torsion
[ 8008 7997 7996 7995 ] final  -90.31 input   59.86 | X-H torsion
[ 10167 10162 10161 10158 ] final  -15.10 input  -65.29 | X-H torsion
[ 10718 10713 10712 10709 ] final  145.78 input   66.30 | X-H torsion
[ 10763 10752 10751 10750 ] final  -26.27 input  -60.55 | X-H torsion
[ 11005 11000 10999 10996 ] final   19.39 input  -57.11 | X-H torsion

> <Gold.Protein.ActiveResidues>
 VAL166  LYS551  ARG553  GLY616  TRP617  ASP618  TYR619  PRO620  LYS621  CYS622 
 ASP623  PHE694  ASN695  SER759  ASP760  ASP761  ALA762  ILE779  LEU786  VAL792 
 PHE793  MET794  SER795  GLU796  ALA797  LYS798  CYS799  TRP800  GLU811  SER814 

> <Gold.Protein.RotatedAtoms>
  151.5662  133.3396  159.2980 H   0  0  0  0  0  0  0  0  0  0  0  0  # atno 6907 bound_to 6896
  150.8394  134.7683  159.6931 H   0  0  0  0  0  0  0  0  0  0  0  0  # atno 6908 bound_to 6896
  152.4464  134.5492  159.9913 H   0  0  0  0  0  0  0  0  0  0  0  0  # atno 6909 bound_to 6896
  144.9999  139.4323  143.5297 H   0  0  0  0  0  0  0  0  0  0  0  0  # atno 7974 bound_to 7965
  154.6970  140.0532  157.0421 H   0  0  0  0  0  0  0  0  0  0  0  0  # atno 8008 bound_to 7997
  155.0737  140.3202  155.4604 H   0  0  0  0  0  0  0  0  0  0  0  0  # atno 8009 bound_to 7997
  156.2747  140.2077  156.5864 H   0  0  0  0  0  0  0  0  0  0  0  0  # atno 8010 bound_to 7997
  140.7213  143.5253  150.9584 H   0  0  0  0  0  0  0  0  0  0  0  0  # atno 10167 bound_to 10162
  157.3411  131.0936  151.1082 H   0  0  0  0  0  0  0  0  0  0  0  0  # atno 10718 bound_to 10713
  153.7132  135.6949  153.5032 H   0  0  0  0  0  0  0  0  0  0  0  0  # atno 10763 bound_to 10752
  153.2257  135.4354  155.0538 H   0  0  0  0  0  0  0  0  0  0  0  0  # atno 10764 bound_to 10752
  154.8308  135.3471  154.6669 H   0  0  0  0  0  0  0  0  0  0  0  0  # atno 10765 bound_to 10752
  140.4142  134.1586  155.7669 H   0  0  0  0  0  0  0  0  0  0  0  0  # atno 11005 bound_to 11000
  146.3449  139.9380  142.8744 LP  0  0  0  0  0  0  0  0  0  0  0  0  # atno 17320 bound_to 7965
  145.2168  140.9919  143.4068 LP  0  0  0  0  0  0  0  0  0  0  0  0  # atno 17321 bound_to 7965
  139.8972  143.6880  152.3137 LP  0  0  0  0  0  0  0  0  0  0  0  0  # atno 17342 bound_to 10162
  139.7217  144.7601  151.0944 LP  0  0  0  0  0  0  0  0  0  0  0  0  # atno 17343 bound_to 10162
  157.2293  130.6518  149.5843 LP  0  0  0  0  0  0  0  0  0  0  0  0  # atno 17370 bound_to 10713
  155.9708  130.4604  150.6071 LP  0  0  0  0  0  0  0  0  0  0  0  0  # atno 17371 bound_to 10713
  141.1809  133.8416  157.1260 LP  0  0  0  0  0  0  0  0  0  0  0  0  # atno 17394 bound_to 11000
  140.0245  134.9930  157.0659 LP  0  0  0  0  0  0  0  0  0  0  0  0  # atno 17395 bound_to 11000

$$$$
