AV-unprocessed.smi:1645|AV-procd|sdf|6619|dock1
  -GOLD-   22720 7313D 1   1.00000     0.00000
 Structure written by MMmdl.
 55 58  0  0  0  0  0  0  0  0  4 V2000
  146.8283  136.2431  155.8324 O   0  0  0  0  0  0  0  0  0  0  0  0
  147.3564  135.9578  154.7513 C   0  0  0  0  0  0  0  0  0  0  0  0
  148.4741  136.5908  154.3541 N   0  0  0  0  0  0  0  0  0  0  0  0
  149.1776  137.6385  155.0043 C   0  0  0  0  0  0  0  0  0  0  0  0
  150.4127  138.0456  154.4575 C   0  0  0  0  0  0  0  0  0  0  0  0
  151.1329  139.0939  155.0655 C   0  0  0  0  0  0  0  0  0  0  0  0
  150.5970  139.7296  156.2090 C   0  0  0  0  0  0  0  0  0  0  0  0
  151.2405  140.7769  156.8808 N   0  0  0  0  0  0  0  0  0  0  0  0
  151.6630  140.4051  158.2287 C   0  0  0  0  0  0  0  0  0  0  0  0
  152.5205  141.5155  158.8606 C   0  0  0  0  0  0  0  0  0  0  0  0
  151.7852  142.8651  158.8254 C   0  0  0  0  0  0  0  0  0  0  0  0
  151.3462  143.1917  157.3890 C   0  0  0  0  0  0  0  0  0  0  0  0
  150.5137  142.0415  156.7967 C   0  0  0  0  0  0  0  0  0  0  0  0
  149.4008  139.3265  156.6893 N   0  3  0  0  0  0  0  0  0  0  0  0
  148.6809  138.3251  156.1384 C   0  0  0  0  0  0  0  0  0  0  0  0
  146.9570  135.0129  153.8581 N   0  5  0  0  0  0  0  0  0  0  0  0
  145.5860  134.5111  153.7354 C   0  0  1  0  0  0  0  0  0  0  0  0
  144.6023  135.5996  153.2868 C   0  0  0  0  0  0  0  0  0  0  0  0
  143.4889  134.8340  152.5488 C   0  0  0  0  0  0  0  0  0  0  0  0
  143.9495  133.4292  152.4572 N   0  3  1  0  0  0  0  0  0  0  0  0
  143.4327  132.6281  151.3179 C   0  0  0  0  0  0  0  0  0  0  0  0
  144.1822  132.9109  150.0063 C   0  0  0  0  0  0  0  0  0  0  0  0
  145.6922  132.7444  150.2020 C   0  0  0  0  0  0  0  0  0  0  0  0
  146.1695  133.6856  151.3133 C   0  0  0  0  0  0  0  0  0  0  0  0
  145.4177  133.4232  152.6538 C   0  0  1  0  0  0  0  0  0  0  0  0
  148.9030  136.2287  153.5150 H   0  0  0  0  0  0  0  0  0  0  0  0
  150.8119  137.5534  153.5826 H   0  0  0  0  0  0  0  0  0  0  0  0
  152.0825  139.4033  154.6540 H   0  0  0  0  0  0  0  0  0  0  0  0
  150.7845  140.2189  158.8477 H   0  0  0  0  0  0  0  0  0  0  0  0
  152.2315  139.4748  158.1923 H   0  0  0  0  0  0  0  0  0  0  0  0
  152.7742  141.2530  159.8882 H   0  0  0  0  0  0  0  0  0  0  0  0
  153.4642  141.6001  158.3201 H   0  0  0  0  0  0  0  0  0  0  0  0
  150.9107  142.8243  159.4760 H   0  0  0  0  0  0  0  0  0  0  0  0
  152.4272  143.6561  159.2139 H   0  0  0  0  0  0  0  0  0  0  0  0
  150.7701  144.1172  157.3733 H   0  0  0  0  0  0  0  0  0  0  0  0
  152.2265  143.3635  156.7679 H   0  0  0  0  0  0  0  0  0  0  0  0
  150.2718  142.2574  155.7551 H   0  0  0  0  0  0  0  0  0  0  0  0
  149.5683  141.9580  157.3345 H   0  0  0  0  0  0  0  0  0  0  0  0
  147.7354  138.1217  156.6190 H   0  0  0  0  0  0  0  0  0  0  0  0
  145.2190  134.1062  154.6806 H   0  0  0  0  0  0  0  0  0  0  0  0
  144.2206  136.1754  154.1304 H   0  0  0  0  0  0  0  0  0  0  0  0
  145.0792  136.3010  152.6001 H   0  0  0  0  0  0  0  0  0  0  0  0
  142.5400  134.8749  153.0852 H   0  0  0  0  0  0  0  0  0  0  0  0
  143.3289  135.2640  151.5591 H   0  0  0  0  0  0  0  0  0  0  0  0
  143.5474  131.5742  151.5742 H   0  0  0  0  0  0  0  0  0  0  0  0
  142.3631  132.8028  151.1985 H   0  0  0  0  0  0  0  0  0  0  0  0
  143.8310  132.2348  149.2263 H   0  0  0  0  0  0  0  0  0  0  0  0
  143.9637  133.9213  149.6591 H   0  0  0  0  0  0  0  0  0  0  0  0
  145.9272  131.7111  150.4601 H   0  0  0  0  0  0  0  0  0  0  0  0
  146.2180  132.9643  149.2722 H   0  0  0  0  0  0  0  0  0  0  0  0
  147.2443  133.5550  151.4498 H   0  0  0  0  0  0  0  0  0  0  0  0
  146.0312  134.7120  150.9663 H   0  0  0  0  0  0  0  0  0  0  0  0
  145.7195  132.4499  153.0434 H   0  0  0  0  0  0  0  0  0  0  0  0
  143.5815  132.9944  153.2911 H   0  0  0  0  0  0  0  0  0  0  0  0
  149.0203  139.8015  157.5081 H   0  0  0  0  0  0  0  0  0  0  0  0
  1  2  2  0  0  0  0
  2  3  1  0  0  0  0
  2 16  1  0  0  0  0
  3  4  1  0  0  0  0
  3 26  1  0  0  0  0
  4 15  1  0  0  0  0
  4  5  2  0  0  0  0
  5  6  1  0  0  0  0
  5 27  1  0  0  0  0
  6  7  2  0  0  0  0
  6 28  1  0  0  0  0
  7  8  1  0  0  0  0
  7 14  1  0  0  0  0
  8 13  1  0  0  0  0
  8  9  1  0  0  0  0
  9 10  1  0  0  0  0
  9 29  1  0  0  0  0
  9 30  1  0  0  0  0
 10 11  1  0  0  0  0
 10 31  1  0  0  0  0
 10 32  1  0  0  0  0
 11 12  1  0  0  0  0
 11 33  1  0  0  0  0
 11 34  1  0  0  0  0
 12 13  1  0  0  0  0
 12 35  1  0  0  0  0
 12 36  1  0  0  0  0
 13 37  1  0  0  0  0
 13 38  1  0  0  0  0
 14 15  2  0  0  0  0
 14 55  1  0  0  0  0
 15 39  1  0  0  0  0
 16 17  1  0  0  0  0
 17 25  1  0  0  0  0
 17 18  1  0  0  0  0
 17 40  1  0  0  0  0
 18 19  1  0  0  0  0
 18 41  1  0  0  0  0
 18 42  1  0  0  0  0
 19 20  1  0  0  0  0
 19 43  1  0  0  0  0
 19 44  1  0  0  0  0
 20 25  1  0  0  0  0
 20 21  1  0  0  0  0
 20 54  1  0  0  0  0
 21 22  1  0  0  0  0
 21 45  1  0  0  0  0
 21 46  1  0  0  0  0
 22 23  1  0  0  0  0
 22 47  1  0  0  0  0
 22 48  1  0  0  0  0
 23 24  1  0  0  0  0
 23 49  1  0  0  0  0
 23 50  1  0  0  0  0
 24 25  1  0  0  0  0
 24 51  1  0  0  0  0
 24 52  1  0  0  0  0
 25 53  1  0  0  0  0
M  CHG  1  14   1
M  CHG  1  16  -1
M  CHG  1  20   1
M  END
> <s_m_source_file>
AV-unprocessed.smi

> <i_m_source_file_index>
1645

> <i_lp_mmshare_version>
43012

> <i_f3d_flags>
0

> <s_epik_input>
W0NIMl0xW0NIMl1bQ0gyXVtDSDJdW0NASF0oTjEyKVtDQEBIXShbQ0gyXVtDSDJdMilbTkhdQyg9TylbTkhdYzNbY0hdW2NIXWMobltjSF0zKU40W0NIMl1bQ0gyXVtDSDJdW0NIMl1bQ0gyXTQ=

> <s_epik_cmdline>
J2VwaWtfcHl0aG9uJywgJy1waCcsICc3LjAnLCAnLXRuJywgJzgnLCAnLW1hJywgJzIwMCcsICctbWV0YWxfYmluZGluZycsICctaW1hZScsICc8aW5maWxlLm1hZT4nLCAnLW9tYWUnLCAnPG91dGZpbGUubWFlPic=

> <r_lp_tautomer_probability>
0.999994

> <r_epik_Ionization_Penalty>
8.55589

> <r_epik_Ionization_Penalty_Charging>
8.55589

> <r_epik_Ionization_Penalty_Neutral>
3.8092e-06

> <r_epik_State_Penalty>
8.15703

> <r_epik_Charging_Adjusted_Penalty>
16.7129

> <i_epik_Tot_Q>
1

> <i_epik_Tot_abs_Q>
3

> <r_epik_Metal_State_Penalty>
4.13781

> <b_epik_Metal_Only>
1

> <s_lp_Force_Field>
OPLS_2005

> <r_lp_Energy>
57.4093

> <b_lp_Chiralities_Consistent>
1

> <s_lp_Variant>
AV-unprocessed.smi:1645-20

> <Gold.Version>
5.8.1

> <Gold.Id.Protein>
6NUR|6NUR_protein|mol2

> <Gold.PLP.Fitness>
44.6497

> <Gold.PLP.PLP>
-36.0596

> <Gold.PLP.part.hbond>
-2.0000

> <Gold.PLP.part.metal>
0.0000

> <Gold.PLP.part.buried>
-7.4276

> <Gold.PLP.part.nonpolar>
-29.6324

> <Gold.PLP.part.repulsive>
0.4531

> <Gold.PLP.ligand.clash>
0.0000

> <Gold.PLP.ligand.torsion>
0.2202

> <Gold.PLP.Chemscore.Hbond>
2.9585

> <Gold.PLP.Chemscore.CHOScore>
0.0000

> <Gold.PLP.Chemscore.Metal>
0.0000

> <Gold.Chemscore.Hbonds>
donor molecule, donor type, donor heavy atom, donor atom, acceptor molecule, acceptor atom, score
      L1  H     3    26       P1  7948  0.98
      L1  H    20    54       P1 10957  1.50

> <Gold.PLP.Chemscore.Internal.Correction>
0.1551

> <Gold.Rescore>
     Score         DG    S(hbond)    S(metal)    S(lipo)     H(rot)  DE(clash)    DE(int)     intcor
     19.47     -21.11       1.93        0.00     104.07       1.17       0.01       1.63       ----

> <Gold.Chemscore.Fitness>
19.4707

> <Gold.Chemscore.DG>
-21.1071

> <Gold.Chemscore.ZeroCoef>
-5.4800

> <Gold.Chemscore.Hbond>
1.9322

> <Gold.Chemscore.Metal>
0.0000

> <Gold.Chemscore.Lipo>
104.0749

> <Gold.Chemscore.Internal_Hbond>
0.0000

> <Gold.Chemscore.DEClash>
0.0084

> <Gold.Chemscore.DEInternal>
1.6281

> <Gold.Chemscore.Rot>
1.1731

> <Gold.Chemscore.Internal.Correction>
   9.000000E+99

> <Gold.Chemscore.Hbonds>
donor molecule, donor type, donor heavy atom, donor atom, acceptor molecule, acceptor atom, score
      L1  H     3    26       P1  7948  0.93
      L1  H    20    54       P1 10957  0.56

> <Gold.Chemscore.Hbond.Weighted>
-6.4536

> <Gold.Chemscore.Metal.Weighted>
-0.0000

> <Gold.Chemscore.Lipo.Weighted>
-12.1768

> <Gold.Chemscore.Internal_Hbond.Weighted>
0.0000

> <Gold.Chemscore.DEClash.Weighted>
0.0084

> <Gold.Chemscore.DEInternal.Weighted>
1.6281

> <Gold.Chemscore.Rot.Weighted>
3.0032

> <Gold.Chemscore.Internal.Correction.Weighted>
   9.000000E+99

> <Gold.Protein.RotatedTorsions>
[ 6907 6896 6895 6894 ] final -113.03 input  -60.11 | X-H torsion
[ 7974 7965 7964 7962 ] final  -10.86 input  175.53 | X-H torsion
[ 8008 7997 7996 7995 ] final  121.70 input   59.86 | X-H torsion
[ 10167 10162 10161 10158 ] final  -52.89 input  -65.29 | X-H torsion
[ 10718 10713 10712 10709 ] final  144.07 input   66.30 | X-H torsion
[ 10763 10752 10751 10750 ] final   96.39 input  -60.55 | X-H torsion
[ 11005 11000 10999 10996 ] final  -16.88 input  -57.11 | X-H torsion

> <Gold.Protein.ActiveResidues>
 VAL166  LYS551  ARG553  GLY616  TRP617  ASP618  TYR619  PRO620  LYS621  CYS622 
 ASP623  PHE694  ASN695  SER759  ASP760  ASP761  ALA762  ILE779  LEU786  VAL792 
 PHE793  MET794  SER795  GLU796  ALA797  LYS798  CYS799  TRP800  GLU811  SER814 

> <Gold.Protein.RotatedAtoms>
  150.7800  133.9004  159.3339 H   0  0  0  0  0  0  0  0  0  0  0  0  # atno 6907 bound_to 6896
  151.6869  135.0951  160.0236 H   0  0  0  0  0  0  0  0  0  0  0  0  # atno 6908 bound_to 6896
  152.3848  133.6558  159.6225 H   0  0  0  0  0  0  0  0  0  0  0  0  # atno 6909 bound_to 6896
  146.2207  140.2826  142.8363 H   0  0  0  0  0  0  0  0  0  0  0  0  # atno 7974 bound_to 7965
  156.2697  140.2802  156.1350 H   0  0  0  0  0  0  0  0  0  0  0  0  # atno 8008 bound_to 7997
  155.1014  140.0389  157.2715 H   0  0  0  0  0  0  0  0  0  0  0  0  # atno 8009 bound_to 7997
  154.6812  140.2609  155.6912 H   0  0  0  0  0  0  0  0  0  0  0  0  # atno 8010 bound_to 7997
  140.6514  143.2568  151.4713 H   0  0  0  0  0  0  0  0  0  0  0  0  # atno 10167 bound_to 10162
  157.3616  131.0966  151.0910 H   0  0  0  0  0  0  0  0  0  0  0  0  # atno 10718 bound_to 10713
  153.2644  135.4220  155.0926 H   0  0  0  0  0  0  0  0  0  0  0  0  # atno 10763 bound_to 10752
  154.8432  135.3457  154.6332 H   0  0  0  0  0  0  0  0  0  0  0  0  # atno 10764 bound_to 10752
  153.6752  135.7041  153.5192 H   0  0  0  0  0  0  0  0  0  0  0  0  # atno 10765 bound_to 10752
  140.8112  133.8139  155.9565 H   0  0  0  0  0  0  0  0  0  0  0  0  # atno 11005 bound_to 11000
  144.9185  140.7841  143.5763 LP  0  0  0  0  0  0  0  0  0  0  0  0  # atno 17320 bound_to 7965
  145.2761  139.1936  143.4815 LP  0  0  0  0  0  0  0  0  0  0  0  0  # atno 17321 bound_to 7965
  139.5729  144.1886  152.1862 LP  0  0  0  0  0  0  0  0  0  0  0  0  # atno 17342 bound_to 10162
  140.1187  144.5392  150.6877 LP  0  0  0  0  0  0  0  0  0  0  0  0  # atno 17343 bound_to 10162
  157.2048  130.6411  149.5752 LP  0  0  0  0  0  0  0  0  0  0  0  0  # atno 17370 bound_to 10713
  155.9738  130.4679  150.6341 LP  0  0  0  0  0  0  0  0  0  0  0  0  # atno 17371 bound_to 10713
  140.9196  134.2158  157.4935 LP  0  0  0  0  0  0  0  0  0  0  0  0  # atno 17394 bound_to 11000
  139.8714  134.9786  156.5005 LP  0  0  0  0  0  0  0  0  0  0  0  0  # atno 17395 bound_to 11000

$$$$
