AV-unprocessed.smi:1780|AV-procd|sdf|7186|dock6
  -GOLD-   22720 8423D 1   1.00000     0.00000
 Structure written by MMmdl.
 44 45  0  0  0  0  0  0  0  0  2 V2000
  152.2987  143.5709  161.7015 C   0  0  0  0  0  0  0  0  0  0  0  0
  152.9088  142.7883  160.5324 C   0  0  0  0  0  0  0  0  0  0  0  0
  152.1531  142.9708  159.3084 N   0  0  0  0  0  0  0  0  0  0  0  0
  151.5880  142.0029  158.5016 C   0  0  0  0  0  0  0  0  0  0  0  0
  150.9855  142.6802  157.4791 C   0  0  0  0  0  0  0  0  0  0  0  0
  150.2598  142.1762  156.3702 N   0  0  0  0  0  0  0  0  0  0  0  0
  150.1482  140.8949  155.9841 C   0  0  0  0  0  0  0  0  0  0  0  0
  150.6740  139.9351  156.5483 O   0  0  0  0  0  0  0  0  0  0  0  0
  149.3748  140.7776  154.8956 N   0  0  0  0  0  0  0  0  0  0  0  0
  149.0429  139.5152  154.2414 C   0  0  0  0  0  0  0  0  0  0  0  0
  147.5269  139.3623  153.9428 C   0  0  1  0  0  0  0  0  0  0  0  0
  147.1062  140.3319  152.8113 C   0  0  0  0  0  0  0  0  0  0  0  0
  147.1959  137.9281  153.6544 N   0  3  0  0  0  0  0  0  0  0  0  0
  147.2168  137.0796  154.8775 C   0  0  0  0  0  0  0  0  0  0  0  0
  146.9700  135.6030  154.5295 C   0  0  0  0  0  0  0  0  0  0  0  0
  145.7194  135.4770  153.8694 O   0  0  0  0  0  0  0  0  0  0  0  0
  145.7012  136.1979  152.6465 C   0  0  0  0  0  0  0  0  0  0  0  0
  145.9240  137.6969  152.9145 C   0  0  0  0  0  0  0  0  0  0  0  0
  151.2290  144.0557  157.7291 C   0  0  0  0  0  0  0  0  0  0  0  0
  151.9328  144.2237  158.8382 N   0  0  0  0  0  0  0  0  0  0  0  0
  152.8845  143.4293  162.6099 H   0  0  0  0  0  0  0  0  0  0  0  0
  151.2801  143.2418  161.9092 H   0  0  0  0  0  0  0  0  0  0  0  0
  152.2694  144.6395  161.4870 H   0  0  0  0  0  0  0  0  0  0  0  0
  153.9362  143.1114  160.3602 H   0  0  0  0  0  0  0  0  0  0  0  0
  152.9468  141.7234  160.7662 H   0  0  0  0  0  0  0  0  0  0  0  0
  151.6679  140.9497  158.7273 H   0  0  0  0  0  0  0  0  0  0  0  0
  149.7670  142.8640  155.8196 H   0  0  0  0  0  0  0  0  0  0  0  0
  148.9849  141.6183  154.4942 H   0  0  0  0  0  0  0  0  0  0  0  0
  149.6075  139.4643  153.3098 H   0  0  0  0  0  0  0  0  0  0  0  0
  149.4212  138.7065  154.8652 H   0  0  0  0  0  0  0  0  0  0  0  0
  146.9616  139.6539  154.8295 H   0  0  0  0  0  0  0  0  0  0  0  0
  147.3832  141.3615  153.0368 H   0  0  0  0  0  0  0  0  0  0  0  0
  146.0261  140.3462  152.6652 H   0  0  0  0  0  0  0  0  0  0  0  0
  147.5774  140.0679  151.8638 H   0  0  0  0  0  0  0  0  0  0  0  0
  148.1701  137.1563  155.3966 H   0  0  0  0  0  0  0  0  0  0  0  0
  146.4516  137.4251  155.5745 H   0  0  0  0  0  0  0  0  0  0  0  0
  147.7719  135.2084  153.9032 H   0  0  0  0  0  0  0  0  0  0  0  0
  146.9502  135.0015  155.4383 H   0  0  0  0  0  0  0  0  0  0  0  0
  146.4616  135.8065  151.9687 H   0  0  0  0  0  0  0  0  0  0  0  0
  144.7366  136.0440  152.1623 H   0  0  0  0  0  0  0  0  0  0  0  0
  145.0884  138.1036  153.4866 H   0  0  0  0  0  0  0  0  0  0  0  0
  145.9377  138.2004  151.9484 H   0  0  0  0  0  0  0  0  0  0  0  0
  150.9240  144.9195  157.1572 H   0  0  0  0  0  0  0  0  0  0  0  0
  147.9287  137.5872  153.0486 H   0  0  0  0  0  0  0  0  0  0  0  0
  1  2  1  0  0  0  0
  1 21  1  0  0  0  0
  1 22  1  0  0  0  0
  1 23  1  0  0  0  0
  2  3  1  0  0  0  0
  2 24  1  0  0  0  0
  2 25  1  0  0  0  0
  3 20  1  0  0  0  0
  3  4  1  0  0  0  0
  4  5  2  0  0  0  0
  4 26  1  0  0  0  0
  5  6  1  0  0  0  0
  5 19  1  0  0  0  0
  6  7  1  0  0  0  0
  6 27  1  0  0  0  0
  7  8  2  0  0  0  0
  7  9  1  0  0  0  0
  9 10  1  0  0  0  0
  9 28  1  0  0  0  0
 10 11  1  0  0  0  0
 10 29  1  0  0  0  0
 10 30  1  0  0  0  0
 11 12  1  0  0  0  0
 11 13  1  0  0  0  0
 11 31  1  0  0  0  0
 12 32  1  0  0  0  0
 12 33  1  0  0  0  0
 12 34  1  0  0  0  0
 13 18  1  0  0  0  0
 13 14  1  0  0  0  0
 13 44  1  0  0  0  0
 14 15  1  0  0  0  0
 14 35  1  0  0  0  0
 14 36  1  0  0  0  0
 15 16  1  0  0  0  0
 15 37  1  0  0  0  0
 15 38  1  0  0  0  0
 16 17  1  0  0  0  0
 17 18  1  0  0  0  0
 17 39  1  0  0  0  0
 17 40  1  0  0  0  0
 18 41  1  0  0  0  0
 18 42  1  0  0  0  0
 19 20  2  0  0  0  0
 19 43  1  0  0  0  0
M  CHG  1  13   1
M  END
> <s_m_source_file>
AV-unprocessed.smi

> <i_m_source_file_index>
1780

> <i_lp_mmshare_version>
43012

> <i_f3d_flags>
0

> <s_epik_input>
W0NIM11bQ0gyXW4xW2NIXWMoW2NIXW4xKVtOSF1DKD1PKVtOSF1bQ0gyXVtDQEhdKFtDSDNdKU4yW0NIMl1bQ0gyXU9bQ0gyXVtDSDJdMg==

> <s_epik_cmdline>
J2VwaWtfcHl0aG9uJywgJy1waCcsICc3LjAnLCAnLXRuJywgJzgnLCAnLW1hJywgJzIwMCcsICctbWV0YWxfYmluZGluZycsICctaW1hZScsICc8aW5maWxlLm1hZT4nLCAnLW9tYWUnLCAnPG91dGZpbGUubWFlPic=

> <r_lp_tautomer_probability>
1

> <r_epik_Ionization_Penalty>
0.64612

> <r_epik_Ionization_Penalty_Charging>
0.645968

> <r_epik_Ionization_Penalty_Neutral>
0.000152026

> <r_epik_State_Penalty>
0.664063

> <r_epik_Charging_Adjusted_Penalty>
1.31003

> <i_epik_Tot_Q>
1

> <i_epik_Tot_abs_Q>
1

> <r_epik_Metal_State_Penalty>
0.664075

> <b_epik_Metal_Only>
0

> <s_lp_Force_Field>
OPLS_2005

> <r_lp_Energy>
24.1412

> <b_lp_Chiralities_Consistent>
1

> <s_lp_Variant>
AV-unprocessed.smi:1780-4

> <Gold.Version>
5.8.1

> <Gold.Id.Protein>
6NUR|6NUR_protein|mol2

> <Gold.PLP.Fitness>
44.0784

> <Gold.PLP.PLP>
-33.6919

> <Gold.PLP.part.hbond>
-2.0000

> <Gold.PLP.part.metal>
0.0000

> <Gold.PLP.part.buried>
-1.4153

> <Gold.PLP.part.nonpolar>
-30.5728

> <Gold.PLP.part.repulsive>
0.3630

> <Gold.PLP.ligand.clash>
0.0000

> <Gold.PLP.ligand.torsion>
0.5358

> <Gold.PLP.Chemscore.Hbond>
3.0000

> <Gold.PLP.Chemscore.CHOScore>
0.7893

> <Gold.PLP.Chemscore.Metal>
0.0000

> <Gold.Chemscore.Hbonds>
donor molecule, donor type, donor heavy atom, donor atom, acceptor molecule, acceptor atom, score
      L1  H     6    27       P1  8028  0.93
      L1  H    13    44       P1  7948  1.82
      L1  C    19    43       P1  8028  0.80

> <Gold.PLP.Chemscore.Internal.Correction>
0.0903

> <Gold.Rescore>
     Score         DG    S(hbond)    S(metal)    S(lipo)     H(rot)  DE(clash)    DE(int)     intcor
     15.58     -17.43       1.86        0.00      85.51       1.67       0.35       1.50       ----

> <Gold.Chemscore.Fitness>
15.5812

> <Gold.Chemscore.DG>
-17.4265

> <Gold.Chemscore.ZeroCoef>
-5.4800

> <Gold.Chemscore.Hbond>
1.8620

> <Gold.Chemscore.Metal>
0.0000

> <Gold.Chemscore.Lipo>
85.5107

> <Gold.Chemscore.Internal_Hbond>
0.0000

> <Gold.Chemscore.DEClash>
0.3502

> <Gold.Chemscore.DEInternal>
1.4951

> <Gold.Chemscore.Rot>
1.6708

> <Gold.Chemscore.Internal.Correction>
   9.000000E+99

> <Gold.Chemscore.Hbonds>
donor molecule, donor type, donor heavy atom, donor atom, acceptor molecule, acceptor atom, score
      L1  H     6    27       P1  8028  0.84
      L1  H    13    44       P1  7948  0.88

> <Gold.Chemscore.Hbond.Weighted>
-6.2190

> <Gold.Chemscore.Metal.Weighted>
-0.0000

> <Gold.Chemscore.Lipo.Weighted>
-10.0048

> <Gold.Chemscore.Internal_Hbond.Weighted>
0.0000

> <Gold.Chemscore.DEClash.Weighted>
0.3502

> <Gold.Chemscore.DEInternal.Weighted>
1.4951

> <Gold.Chemscore.Rot.Weighted>
4.2773

> <Gold.Chemscore.Internal.Correction.Weighted>
   9.000000E+99

> <Gold.Protein.RotatedTorsions>
[ 6907 6896 6895 6894 ] final -100.82 input  -60.11 | X-H torsion
[ 7974 7965 7964 7962 ] final -103.94 input  175.53 | X-H torsion
[ 8008 7997 7996 7995 ] final -116.01 input   59.86 | X-H torsion
[ 10167 10162 10161 10158 ] final -177.97 input  -65.29 | X-H torsion
[ 10718 10713 10712 10709 ] final -142.30 input   66.30 | X-H torsion
[ 10763 10752 10751 10750 ] final  -85.93 input  -60.55 | X-H torsion
[ 11005 11000 10999 10996 ] final   92.04 input  -57.11 | X-H torsion

> <Gold.Protein.ActiveResidues>
 VAL166  LYS551  ARG553  GLY616  TRP617  ASP618  TYR619  PRO620  LYS621  CYS622 
 ASP623  PHE694  ASN695  SER759  ASP760  ASP761  ALA762  ILE779  LEU786  VAL792 
 PHE793  MET794  SER795  GLU796  ALA797  LYS798  CYS799  TRP800  GLU811  SER814 

> <Gold.Protein.RotatedAtoms>
  150.7130  134.0828  159.3903 H   0  0  0  0  0  0  0  0  0  0  0  0  # atno 6907 bound_to 6896
  151.8813  135.0450  160.0498 H   0  0  0  0  0  0  0  0  0  0  0  0  # atno 6908 bound_to 6896
  152.2566  133.5225  159.5393 H   0  0  0  0  0  0  0  0  0  0  0  0  # atno 6909 bound_to 6896
  145.2495  140.9233  143.3103 H   0  0  0  0  0  0  0  0  0  0  0  0  # atno 7974 bound_to 7965
  155.0611  140.0393  157.2577 H   0  0  0  0  0  0  0  0  0  0  0  0  # atno 8008 bound_to 7997
  154.7059  140.2683  155.6651 H   0  0  0  0  0  0  0  0  0  0  0  0  # atno 8009 bound_to 7997
  156.2775  140.2731  156.1684 H   0  0  0  0  0  0  0  0  0  0  0  0  # atno 8010 bound_to 7997
  139.5455  144.2248  152.0978 H   0  0  0  0  0  0  0  0  0  0  0  0  # atno 10167 bound_to 10162
  156.3443  130.7654  151.1796 H   0  0  0  0  0  0  0  0  0  0  0  0  # atno 10718 bound_to 10713
  154.6167  135.5467  153.7531 H   0  0  0  0  0  0  0  0  0  0  0  0  # atno 10763 bound_to 10752
  153.0219  135.6403  154.1499 H   0  0  0  0  0  0  0  0  0  0  0  0  # atno 10764 bound_to 10752
  154.1435  135.2907  155.3134 H   0  0  0  0  0  0  0  0  0  0  0  0  # atno 10765 bound_to 10752
  139.8829  134.8709  156.3514 H   0  0  0  0  0  0  0  0  0  0  0  0  # atno 11005 bound_to 11000
  144.9516  139.4077  143.6400 LP  0  0  0  0  0  0  0  0  0  0  0  0  # atno 17320 bound_to 7965
  146.3306  139.8525  142.8870 LP  0  0  0  0  0  0  0  0  0  0  0  0  # atno 17321 bound_to 7965
  140.1734  144.4914  150.6567 LP  0  0  0  0  0  0  0  0  0  0  0  0  # atno 17342 bound_to 10162
  140.6701  143.2282  151.5647 LP  0  0  0  0  0  0  0  0  0  0  0  0  # atno 17343 bound_to 10162
  157.7451  131.0446  150.4800 LP  0  0  0  0  0  0  0  0  0  0  0  0  # atno 17370 bound_to 10713
  156.4985  130.4111  149.6366 LP  0  0  0  0  0  0  0  0  0  0  0  0  # atno 17371 bound_to 10713
  140.9591  133.7400  156.0377 LP  0  0  0  0  0  0  0  0  0  0  0  0  # atno 17394 bound_to 11000
  140.8011  134.3507  157.5439 LP  0  0  0  0  0  0  0  0  0  0  0  0  # atno 17395 bound_to 11000

$$$$
