AV-unprocessed.smi:342|AV-procd|sdf|2386|dock6
  -GOLD-   2262022313D 1   1.00000     0.00000
 Structure written by MMmdl.
 42 44  0  0  0  0  0  0  0  0  2 V2000
  148.0078  138.1239  153.6039 O   0  0  0  0  0  0  0  0  0  0  0  0
  147.1241  139.1088  153.1081 C   0  0  2  0  0  0  0  0  0  0  0  0
  146.6462  138.6872  151.7012 C   0  0  0  0  0  0  0  0  0  0  0  0
  146.1780  137.2789  151.6569 N   0  3  0  0  0  0  0  0  0  0  0  0
  145.1196  136.9720  152.6516 C   0  0  0  0  0  0  0  0  0  0  0  0
  144.7212  135.4887  152.5695 C   0  0  0  0  0  0  0  0  0  0  0  0
  144.2910  135.1824  151.2491 O   0  0  0  0  0  0  0  0  0  0  0  0
  145.3226  135.3898  150.2925 C   0  0  0  0  0  0  0  0  0  0  0  0
  145.7441  136.8692  150.3001 C   0  0  0  0  0  0  0  0  0  0  0  0
  147.8618  140.4640  153.1371 C   0  0  0  0  0  0  0  0  0  0  0  0
  148.3677  140.8058  154.4608 N   0  0  0  0  0  0  0  0  0  0  0  0
  147.7755  141.5514  155.4318 C   0  0  0  0  0  0  0  0  0  0  0  0
  146.4235  142.1858  155.2528 C   0  0  0  0  0  0  0  0  0  0  0  0
  145.4765  141.2582  155.1057 F   0  0  0  0  0  0  0  0  0  0  0  0
  146.1084  142.9251  156.3162 F   0  0  0  0  0  0  0  0  0  0  0  0
  146.4023  142.9602  154.1685 F   0  0  0  0  0  0  0  0  0  0  0  0
  148.4804  141.6930  156.5565 N   0  0  0  0  0  0  0  0  0  0  0  0
  149.6397  140.9956  156.2858 C   0  0  0  0  0  0  0  0  0  0  0  0
  150.7873  140.7787  157.0813 C   0  0  0  0  0  0  0  0  0  0  0  0
  151.8705  140.0271  156.5813 C   0  0  0  0  0  0  0  0  0  0  0  0
  151.8222  139.4844  155.2812 C   0  0  0  0  0  0  0  0  0  0  0  0
  150.6873  139.6880  154.4728 C   0  0  0  0  0  0  0  0  0  0  0  0
  149.6060  140.4352  154.9782 C   0  0  0  0  0  0  0  0  0  0  0  0
  148.4012  137.6728  152.8720 H   0  0  0  0  0  0  0  0  0  0  0  0
  146.2779  139.1623  153.7909 H   0  0  0  0  0  0  0  0  0  0  0  0
  145.8411  139.3321  151.3471 H   0  0  0  0  0  0  0  0  0  0  0  0
  147.4728  138.8209  151.0018 H   0  0  0  0  0  0  0  0  0  0  0  0
  145.4627  137.1957  153.6606 H   0  0  0  0  0  0  0  0  0  0  0  0
  144.2472  137.6006  152.4654 H   0  0  0  0  0  0  0  0  0  0  0  0
  145.5553  134.8446  152.8529 H   0  0  0  0  0  0  0  0  0  0  0  0
  143.9072  135.2792  153.2637 H   0  0  0  0  0  0  0  0  0  0  0  0
  146.1722  134.7401  150.5086 H   0  0  0  0  0  0  0  0  0  0  0  0
  144.9511  135.1102  149.3067 H   0  0  0  0  0  0  0  0  0  0  0  0
  144.9120  137.4970  149.9770 H   0  0  0  0  0  0  0  0  0  0  0  0
  146.5568  137.0211  149.5886 H   0  0  0  0  0  0  0  0  0  0  0  0
  148.7106  140.4395  152.4522 H   0  0  0  0  0  0  0  0  0  0  0  0
  147.2066  141.2556  152.7766 H   0  0  0  0  0  0  0  0  0  0  0  0
  150.8360  141.1940  158.0771 H   0  0  0  0  0  0  0  0  0  0  0  0
  152.7438  139.8691  157.1971 H   0  0  0  0  0  0  0  0  0  0  0  0
  152.6581  138.9130  154.9047 H   0  0  0  0  0  0  0  0  0  0  0  0
  150.6532  139.2770  153.4750 H   0  0  0  0  0  0  0  0  0  0  0  0
  146.9774  136.7045  151.8848 H   0  0  0  0  0  0  0  0  0  0  0  0
  1  2  1  0  0  0  0
  1 24  1  0  0  0  0
  2  3  1  0  0  0  0
  2 10  1  0  0  0  0
  2 25  1  0  0  0  0
  3  4  1  0  0  0  0
  3 26  1  0  0  0  0
  3 27  1  0  0  0  0
  4  9  1  0  0  0  0
  4  5  1  0  0  0  0
  4 42  1  0  0  0  0
  5  6  1  0  0  0  0
  5 28  1  0  0  0  0
  5 29  1  0  0  0  0
  6  7  1  0  0  0  0
  6 30  1  0  0  0  0
  6 31  1  0  0  0  0
  7  8  1  0  0  0  0
  8  9  1  0  0  0  0
  8 32  1  0  0  0  0
  8 33  1  0  0  0  0
  9 34  1  0  0  0  0
  9 35  1  0  0  0  0
 10 11  1  0  0  0  0
 10 36  1  0  0  0  0
 10 37  1  0  0  0  0
 11 23  1  0  0  0  0
 11 12  1  0  0  0  0
 12 13  1  0  0  0  0
 12 17  2  0  0  0  0
 13 14  1  0  0  0  0
 13 15  1  0  0  0  0
 13 16  1  0  0  0  0
 17 18  1  0  0  0  0
 18 23  2  0  0  0  0
 18 19  1  0  0  0  0
 19 20  2  0  0  0  0
 19 38  1  0  0  0  0
 20 21  1  0  0  0  0
 20 39  1  0  0  0  0
 21 22  2  0  0  0  0
 21 40  1  0  0  0  0
 22 23  1  0  0  0  0
 22 41  1  0  0  0  0
M  CHG  1   4   1
M  END
> <s_m_source_file>
AV-unprocessed.smi

> <i_m_source_file_index>
342

> <i_lp_mmshare_version>
43012

> <i_f3d_flags>
0

> <s_epik_input>
W2NIXTFbY0hdW2NIXVtjSF1jKGMxMiluKGMobjIpQyhGKShGKUYpW0NIMl1bQ0BIXShbT0hdKVtDSDJdTjNbQ0gyXVtDSDJdT1tDSDJdW0NIMl0z

> <s_epik_cmdline>
J2VwaWtfcHl0aG9uJywgJy1waCcsICc3LjAnLCAnLXRuJywgJzgnLCAnLW1hJywgJzIwMCcsICctbWV0YWxfYmluZGluZycsICctaW1hZScsICc8aW5maWxlLm1hZT4nLCAnLW9tYWUnLCAnPG91dGZpbGUubWFlPic=

> <r_epik_Ionization_Penalty>
0.608409

> <r_epik_Ionization_Penalty_Charging>
0.608065

> <r_epik_Ionization_Penalty_Neutral>
0.000344684

> <r_epik_State_Penalty>
0.623026

> <r_epik_Charging_Adjusted_Penalty>
1.23109

> <i_epik_Tot_Q>
1

> <i_epik_Tot_abs_Q>
1

> <r_epik_Metal_State_Penalty>
0.623013

> <b_epik_Metal_Only>
0

> <s_lp_Force_Field>
OPLS_2005

> <r_lp_Energy>
26.0931

> <b_lp_Chiralities_Consistent>
1

> <s_lp_Variant>
AV-unprocessed.smi:342-3

> <Gold.Version>
5.8.1

> <Gold.Id.Protein>
6NUR|6NUR_protein|mol2

> <Gold.PLP.Fitness>
45.0747

> <Gold.PLP.PLP>
-36.9850

> <Gold.PLP.part.hbond>
-2.3800

> <Gold.PLP.part.metal>
0.0000

> <Gold.PLP.part.buried>
7.8228

> <Gold.PLP.part.nonpolar>
-44.1481

> <Gold.PLP.part.repulsive>
0.3895

> <Gold.PLP.ligand.clash>
0.0000

> <Gold.PLP.ligand.torsion>
0.4876

> <Gold.PLP.Chemscore.Hbond>
3.0000

> <Gold.PLP.Chemscore.CHOScore>
0.0000

> <Gold.PLP.Chemscore.Metal>
0.0000

> <Gold.Chemscore.Hbonds>
donor molecule, donor type, donor heavy atom, donor atom, acceptor molecule, acceptor atom, score
      L1  H     1    24       P1  7948  1.00
      L1  H     4    42       P1  7948  2.00

> <Gold.PLP.Chemscore.Internal.Correction>
0.0648

> <Gold.Rescore>
     Score         DG    S(hbond)    S(metal)    S(lipo)     H(rot)  DE(clash)    DE(int)     intcor
     12.48     -14.54       1.63        0.00      81.71       2.32       0.80       1.26       ----

> <Gold.Chemscore.Fitness>
12.4831

> <Gold.Chemscore.DG>
-14.5442

> <Gold.Chemscore.ZeroCoef>
-5.4800

> <Gold.Chemscore.Hbond>
1.6301

> <Gold.Chemscore.Metal>
0.0000

> <Gold.Chemscore.Lipo>
81.7121

> <Gold.Chemscore.Internal_Hbond>
0.0000

> <Gold.Chemscore.DEClash>
0.7983

> <Gold.Chemscore.DEInternal>
1.2629

> <Gold.Chemscore.Rot>
2.3206

> <Gold.Chemscore.Internal.Correction>
   9.000000E+99

> <Gold.Chemscore.Hbonds>
donor molecule, donor type, donor heavy atom, donor atom, acceptor molecule, acceptor atom, score
      L1  H     1    24       P1  7948  0.99
      L1  H     4    42       P1  7948  0.92

> <Gold.Chemscore.Hbond.Weighted>
-5.4447

> <Gold.Chemscore.Metal.Weighted>
-0.0000

> <Gold.Chemscore.Lipo.Weighted>
-9.5603

> <Gold.Chemscore.Internal_Hbond.Weighted>
0.0000

> <Gold.Chemscore.DEClash.Weighted>
0.7983

> <Gold.Chemscore.DEInternal.Weighted>
1.2629

> <Gold.Chemscore.Rot.Weighted>
5.9407

> <Gold.Chemscore.Internal.Correction.Weighted>
   9.000000E+99

> <Gold.Protein.RotatedTorsions>
[ 6907 6896 6895 6894 ] final  -53.37 input  -60.11 | X-H torsion
[ 7974 7965 7964 7962 ] final  145.32 input  175.53 | X-H torsion
[ 8008 7997 7996 7995 ] final -157.35 input   59.86 | X-H torsion
[ 10167 10162 10161 10158 ] final -167.18 input  -65.29 | X-H torsion
[ 10718 10713 10712 10709 ] final    1.51 input   66.30 | X-H torsion
[ 10763 10752 10751 10750 ] final  -45.49 input  -60.55 | X-H torsion
[ 11005 11000 10999 10996 ] final -144.16 input  -57.11 | X-H torsion

> <Gold.Protein.ActiveResidues>
 VAL166  LYS551  ARG553  GLY616  TRP617  ASP618  TYR619  PRO620  LYS621  CYS622 
 ASP623  PHE694  ASN695  SER759  ASP760  ASP761  ALA762  ILE779  LEU786  VAL792 
 PHE793  MET794  SER795  GLU796  ALA797  LYS798  CYS799  TRP800  GLU811  SER814 

> <Gold.Protein.RotatedAtoms>
  150.8433  134.7733  159.6949 H   0  0  0  0  0  0  0  0  0  0  0  0  # atno 6907 bound_to 6896
  152.4515  134.5379  159.9840 H   0  0  0  0  0  0  0  0  0  0  0  0  # atno 6908 bound_to 6896
  151.5515  133.3379  159.2989 H   0  0  0  0  0  0  0  0  0  0  0  0  # atno 6909 bound_to 6896
  144.8762  139.5769  143.5864 H   0  0  0  0  0  0  0  0  0  0  0  0  # atno 7974 bound_to 7965
  155.7311  140.0802  157.2288 H   0  0  0  0  0  0  0  0  0  0  0  0  # atno 8008 bound_to 7997
  154.4033  140.1595  156.2564 H   0  0  0  0  0  0  0  0  0  0  0  0  # atno 8009 bound_to 7997
  155.9108  140.3404  155.6100 H   0  0  0  0  0  0  0  0  0  0  0  0  # atno 8010 bound_to 7997
  139.6066  144.0900  152.1799 H   0  0  0  0  0  0  0  0  0  0  0  0  # atno 10167 bound_to 10162
  156.8493  130.5548  149.5671 H   0  0  0  0  0  0  0  0  0  0  0  0  # atno 10718 bound_to 10713
  154.0293  135.6659  153.4779 H   0  0  0  0  0  0  0  0  0  0  0  0  # atno 10763 bound_to 10752
  153.0547  135.5063  154.7948 H   0  0  0  0  0  0  0  0  0  0  0  0  # atno 10764 bound_to 10752
  154.6888  135.3057  154.9474 H   0  0  0  0  0  0  0  0  0  0  0  0  # atno 10765 bound_to 10752
  140.8053  134.2809  157.4963 H   0  0  0  0  0  0  0  0  0  0  0  0  # atno 11005 bound_to 11000
  146.2964  139.7291  142.9123 LP  0  0  0  0  0  0  0  0  0  0  0  0  # atno 17320 bound_to 7965
  145.4038  141.0388  143.3055 LP  0  0  0  0  0  0  0  0  0  0  0  0  # atno 17321 bound_to 7965
  140.0509  144.5933  150.7337 LP  0  0  0  0  0  0  0  0  0  0  0  0  # atno 17342 bound_to 10162
  140.7289  143.2667  151.4022 LP  0  0  0  0  0  0  0  0  0  0  0  0  # atno 17343 bound_to 10162
  156.0837  130.5841  150.9609 LP  0  0  0  0  0  0  0  0  0  0  0  0  # atno 17370 bound_to 10713
  157.6312  131.0921  150.8437 LP  0  0  0  0  0  0  0  0  0  0  0  0  # atno 17371 bound_to 10713
  139.8718  134.9452  156.3904 LP  0  0  0  0  0  0  0  0  0  0  0  0  # atno 17394 bound_to 11000
  140.9254  133.7616  155.9957 LP  0  0  0  0  0  0  0  0  0  0  0  0  # atno 17395 bound_to 11000

$$$$
