AV-unprocessed.smi:44|AV-procd|sdf|401|dock6
  -GOLD-   2262016253D 1   1.00000     0.00000
 Structure written by MMmdl.
 29 31  0  0  0  0  0  0  0  0  3 V2000
  143.7847  141.3353  155.5762 O   0  0  0  0  0  0  0  0  0  0  0  0
  144.8905  141.4126  156.1076 C   0  0  0  0  0  0  0  0  0  0  0  0
  145.1769  141.5820  157.4385 N   0  5  0  0  0  0  0  0  0  0  0  0
  146.4860  141.6519  157.9014 C   0  0  0  0  0  0  0  0  0  0  0  0
  147.5653  141.5761  157.2070 N   0  0  0  0  0  0  0  0  0  0  0  0
  147.3770  141.4025  155.8273 C   0  0  0  0  0  0  0  0  0  0  0  0
  146.1260  141.3185  155.2612 C   0  0  0  0  0  0  0  0  0  0  0  0
  146.2442  141.1420  153.9089 N   0  3  0  0  0  0  0  0  0  0  0  0
  147.5630  141.1259  153.7153 C   0  0  0  0  0  0  0  0  0  0  0  0
  148.3234  141.2855  154.8382 N   0  0  0  0  0  0  0  0  0  0  0  0
  149.8143  141.2852  154.8995 C   0  0  1  0  0  0  0  0  0  0  0  0
  150.3047  141.3635  156.3503 C   0  0  0  0  0  0  0  0  0  0  0  0
  151.5450  140.5001  156.2892 C   0  0  0  0  0  0  0  0  0  0  0  0
  151.0811  139.4095  155.3218 C   0  0  2  0  0  0  0  0  0  0  0  0
  152.1744  138.5661  154.6442 C   0  0  0  0  0  0  0  0  0  0  0  0
  151.7022  137.2852  154.2817 O   0  0  0  0  0  0  0  0  0  0  0  0
  150.2751  140.0817  154.3591 O   0  0  0  0  0  0  0  0  0  0  0  0
  145.5078  141.0415  153.2220 H   0  0  0  0  0  0  0  0  0  0  0  0
  150.1393  142.1244  154.2830 H   0  0  0  0  0  0  0  0  0  0  0  0
  150.4169  138.7322  155.8605 H   0  0  0  0  0  0  0  0  0  0  0  0
  146.5288  141.7867  158.9851 H   0  0  0  0  0  0  0  0  0  0  0  0
  148.0026  140.9946  152.7429 H   0  0  0  0  0  0  0  0  0  0  0  0
  150.4967  142.3943  156.6486 H   0  0  0  0  0  0  0  0  0  0  0  0
  149.5701  140.9254  157.0276 H   0  0  0  0  0  0  0  0  0  0  0  0
  152.3749  141.0772  155.8806 H   0  0  0  0  0  0  0  0  0  0  0  0
  151.8428  140.1084  157.2622 H   0  0  0  0  0  0  0  0  0  0  0  0
  152.5146  139.0657  153.7367 H   0  0  0  0  0  0  0  0  0  0  0  0
  153.0414  138.4660  155.2978 H   0  0  0  0  0  0  0  0  0  0  0  0
  151.0378  137.3879  153.6177 H   0  0  0  0  0  0  0  0  0  0  0  0
  1  2  2  0  0  0  0
  2  7  1  0  0  0  0
  2  3  1  0  0  0  0
  3  4  1  0  0  0  0
  4 21  1  0  0  0  0
  4  5  2  0  0  0  0
  5  6  1  0  0  0  0
  6 10  1  0  0  0  0
  6  7  2  0  0  0  0
  7  8  1  0  0  0  0
  8  9  2  0  0  0  0
  8 18  1  0  0  0  0
  9 10  1  0  0  0  0
  9 22  1  0  0  0  0
 10 11  1  0  0  0  0
 11 19  1  0  0  0  0
 11 17  1  0  0  0  0
 11 12  1  0  0  0  0
 12 13  1  0  0  0  0
 12 23  1  0  0  0  0
 12 24  1  0  0  0  0
 13 14  1  0  0  0  0
 13 25  1  0  0  0  0
 13 26  1  0  0  0  0
 14 20  1  0  0  0  0
 14 15  1  0  0  0  0
 14 17  1  0  0  0  0
 15 16  1  0  0  0  0
 15 27  1  0  0  0  0
 15 28  1  0  0  0  0
 16 29  1  0  0  0  0
M  CHG  1   3  -1
M  CHG  1   8   1
M  END
> <s_m_source_file>
AV-unprocessed.smi

> <i_m_source_file_index>
44

> <i_lp_mmshare_version>
43012

> <i_f3d_flags>
0

> <s_epik_input>
bjFbY0hdW25IXWMoPU8pYyhjMTIpbltjSF1uMltDQEhdM1tDSDJdW0NIMl1bQ0BIXShPMylbQ0gyXVtPSF0=

> <s_epik_cmdline>
J2VwaWtfcHl0aG9uJywgJy1waCcsICc3LjAnLCAnLXRuJywgJzgnLCAnLW1hJywgJzIwMCcsICctbWV0YWxfYmluZGluZycsICctaW1hZScsICc8aW5maWxlLm1hZT4nLCAnLW9tYWUnLCAnPG91dGZpbGUubWFlPic=

> <r_lp_tautomer_probability>
0.144281

> <r_epik_Ionization_Penalty>
5.63685

> <r_epik_Ionization_Penalty_Charging>
5.58669

> <r_epik_Ionization_Penalty_Neutral>
0.0501585

> <r_epik_State_Penalty>
1.20809

> <r_epik_Charging_Adjusted_Penalty>
6.79478

> <i_epik_Tot_Q>
0

> <i_epik_Tot_abs_Q>
2

> <r_epik_Metal_State_Penalty>
1.52487

> <b_epik_Metal_Only>
0

> <s_epik_Chemistry_Notes>
This compound contains an acetal/aminal-like group ( X-CH(R)-Y where X, Y are N, S, or O) that may be acid/base labile, releasing an aldehyde.

> <s_lp_Force_Field>
OPLS_2005

> <r_lp_Energy>
46.8975

> <b_lp_Chiralities_Consistent>
1

> <s_lp_Variant>
AV-unprocessed.smi:44-7

> <Gold.Version>
5.8.1

> <Gold.Id.Protein>
6NUR|6NUR_protein|mol2

> <Gold.PLP.Fitness>
39.8405

> <Gold.PLP.PLP>
-26.7193

> <Gold.PLP.part.hbond>
-3.6249

> <Gold.PLP.part.metal>
0.0000

> <Gold.PLP.part.buried>
-4.7388

> <Gold.PLP.part.nonpolar>
-20.2655

> <Gold.PLP.part.repulsive>
0.3765

> <Gold.PLP.ligand.clash>
0.0000

> <Gold.PLP.ligand.torsion>
0.3226

> <Gold.PLP.Chemscore.Hbond>
3.5863

> <Gold.PLP.Chemscore.CHOScore>
1.0000

> <Gold.PLP.Chemscore.Metal>
0.0000

> <Gold.Chemscore.Hbonds>
donor molecule, donor type, donor heavy atom, donor atom, acceptor molecule, acceptor atom, score
      L1  H     8    18       P1 10175  1.95
      P1  H  7989  7998       L1    17  0.55
      P1  H 10752 10765       L1    16  0.94
      L1  C     9    22       P1  7957  1.00

> <Gold.PLP.Chemscore.Internal.Correction>
0.0077

> <Gold.Rescore>
     Score         DG    S(hbond)    S(metal)    S(lipo)     H(rot)  DE(clash)    DE(int)     intcor
      8.19      -9.83       1.92        0.00      32.05       2.27       0.03       1.61       ----

> <Gold.Chemscore.Fitness>
8.1888

> <Gold.Chemscore.DG>
-9.8279

> <Gold.Chemscore.ZeroCoef>
-5.4800

> <Gold.Chemscore.Hbond>
1.9204

> <Gold.Chemscore.Metal>
0.0000

> <Gold.Chemscore.Lipo>
32.0527

> <Gold.Chemscore.Internal_Hbond>
0.0000

> <Gold.Chemscore.DEClash>
0.0310

> <Gold.Chemscore.DEInternal>
1.6081

> <Gold.Chemscore.Rot>
2.2720

> <Gold.Chemscore.Internal.Correction>
   9.000000E+99

> <Gold.Chemscore.Hbonds>
donor molecule, donor type, donor heavy atom, donor atom, acceptor molecule, acceptor atom, score
      L1  H     8    18       P1 10175  0.36
      P1  H  7989  7998       L1    17  0.01
      P1  H 10752 10765       L1    16  0.84

> <Gold.Chemscore.Hbond.Weighted>
-6.4141

> <Gold.Chemscore.Metal.Weighted>
-0.0000

> <Gold.Chemscore.Lipo.Weighted>
-3.7502

> <Gold.Chemscore.Internal_Hbond.Weighted>
0.0000

> <Gold.Chemscore.DEClash.Weighted>
0.0310

> <Gold.Chemscore.DEInternal.Weighted>
1.6081

> <Gold.Chemscore.Rot.Weighted>
5.8164

> <Gold.Chemscore.Internal.Correction.Weighted>
   9.000000E+99

> <Gold.Protein.RotatedTorsions>
[ 6907 6896 6895 6894 ] final   76.64 input  -60.11 | X-H torsion
[ 7974 7965 7964 7962 ] final  156.00 input  175.53 | X-H torsion
[ 8008 7997 7996 7995 ] final  168.37 input   59.86 | X-H torsion
[ 10167 10162 10161 10158 ] final   95.00 input  -65.29 | X-H torsion
[ 10718 10713 10712 10709 ] final  172.66 input   66.30 | X-H torsion
[ 10763 10752 10751 10750 ] final  168.99 input  -60.55 | X-H torsion
[ 11005 11000 10999 10996 ] final  179.61 input  -57.11 | X-H torsion

> <Gold.Protein.ActiveResidues>
 VAL166  LYS551  ARG553  GLY616  TRP617  ASP618  TYR619  PRO620  LYS621  CYS622 
 ASP623  PHE694  ASN695  SER759  ASP760  ASP761  ALA762  ILE779  LEU786  VAL792 
 PHE793  MET794  SER795  GLU796  ALA797  LYS798  CYS799  TRP800  GLU811  SER814 

> <Gold.Protein.RotatedAtoms>
  152.5082  134.3938  159.9392 H   0  0  0  0  0  0  0  0  0  0  0  0  # atno 6907 bound_to 6896
  151.3899  133.3786  159.2727 H   0  0  0  0  0  0  0  0  0  0  0  0  # atno 6908 bound_to 6896
  150.9441  134.8868  159.7689 H   0  0  0  0  0  0  0  0  0  0  0  0  # atno 6909 bound_to 6896
  144.7990  139.7144  143.6190 H   0  0  0  0  0  0  0  0  0  0  0  0  # atno 7974 bound_to 7965
  156.1553  140.1592  156.8703 H   0  0  0  0  0  0  0  0  0  0  0  0  # atno 8008 bound_to 7997
  154.5109  140.0801  156.8023 H   0  0  0  0  0  0  0  0  0  0  0  0  # atno 8009 bound_to 7997
  155.3816  140.3405  155.4249 H   0  0  0  0  0  0  0  0  0  0  0  0  # atno 8010 bound_to 7997
  139.8030  144.6806  150.9740 H   0  0  0  0  0  0  0  0  0  0  0  0  # atno 10167 bound_to 10162
  156.9757  131.0104  151.2894 H   0  0  0  0  0  0  0  0  0  0  0  0  # atno 10718 bound_to 10713
  154.3766  135.2753  155.2236 H   0  0  0  0  0  0  0  0  0  0  0  0  # atno 10763 bound_to 10752
  154.4360  135.5966  153.6102 H   0  0  0  0  0  0  0  0  0  0  0  0  # atno 10764 bound_to 10752
  152.9836  135.6007  154.4003 H   0  0  0  0  0  0  0  0  0  0  0  0  # atno 10765 bound_to 10752
  140.4080  134.6717  157.4599 H   0  0  0  0  0  0  0  0  0  0  0  0  # atno 11005 bound_to 11000
  146.2266  139.5735  142.9583 LP  0  0  0  0  0  0  0  0  0  0  0  0  # atno 17320 bound_to 7965
  145.5600  141.0405  143.2231 LP  0  0  0  0  0  0  0  0  0  0  0  0  # atno 17321 bound_to 7965
  140.7820  143.4262  151.0765 LP  0  0  0  0  0  0  0  0  0  0  0  0  # atno 17342 bound_to 10162
  139.7933  143.8188  152.3154 LP  0  0  0  0  0  0  0  0  0  0  0  0  # atno 17343 bound_to 10162
  157.5561  130.8214  149.8206 LP  0  0  0  0  0  0  0  0  0  0  0  0  # atno 17370 bound_to 10713
  156.0264  130.3778  150.1810 LP  0  0  0  0  0  0  0  0  0  0  0  0  # atno 17371 bound_to 10713
  140.0288  134.6437  155.9136 LP  0  0  0  0  0  0  0  0  0  0  0  0  # atno 17394 bound_to 11000
  141.1832  133.6550  156.5106 LP  0  0  0  0  0  0  0  0  0  0  0  0  # atno 17395 bound_to 11000

$$$$
