AV-unprocessed.smi:1882|AV-procd|sdf|7641|dock1
  -GOLD-   22720 9373D 1   1.00000     0.00000
 Structure written by MMmdl.
 25 26  0  0  0  0  0  0  0  0  1 V2000
  153.5001  141.8552  161.6497 C   0  0  0  0  0  0  0  0  0  0  0  0
  152.8055  142.8726  160.8111 C   0  0  0  0  0  0  0  0  0  0  0  0
  152.5746  142.7200  159.5047 N   0  0  0  0  0  0  0  0  0  0  0  0
  151.9088  143.8141  158.9420 C   0  0  0  0  0  0  0  0  0  0  0  0
  151.5662  143.8102  157.4803 C   0  0  0  0  0  0  0  0  0  0  0  0
  150.9809  142.4557  157.0775 C   0  0  0  0  0  0  0  0  0  0  0  0
  151.5435  141.4159  157.4208 O   0  0  0  0  0  0  0  0  0  0  0  0
  149.8534  142.4853  156.3507 N   0  0  0  0  0  0  0  0  0  0  0  0
  149.1487  141.3431  155.8658 C   0  0  0  0  0  0  0  0  0  0  0  0
  149.9109  140.3649  154.9980 C   0  0  0  0  0  0  0  0  0  0  0  0
  148.8763  141.2639  154.3792 C   0  0  0  0  0  0  0  0  0  0  0  0
  151.6296  144.8022  159.8546 C   0  0  0  0  0  0  0  0  0  0  0  0
  152.2045  144.3978  161.4487 S   0  0  0  0  0  0  0  0  0  0  0  0
  153.7998  140.9984  161.0451 H   0  0  0  0  0  0  0  0  0  0  0  0
  152.8360  141.5091  162.4416 H   0  0  0  0  0  0  0  0  0  0  0  0
  154.3903  142.2912  162.1031 H   0  0  0  0  0  0  0  0  0  0  0  0
  150.8409  144.5915  157.2479 H   0  0  0  0  0  0  0  0  0  0  0  0
  152.4501  144.0259  156.8787 H   0  0  0  0  0  0  0  0  0  0  0  0
  149.4657  143.3883  156.1194 H   0  0  0  0  0  0  0  0  0  0  0  0
  148.3878  140.9118  156.5152 H   0  0  0  0  0  0  0  0  0  0  0  0
  150.9560  140.5800  154.7832 H   0  0  0  0  0  0  0  0  0  0  0  0
  149.6645  139.3096  155.0962 H   0  0  0  0  0  0  0  0  0  0  0  0
  147.9384  140.8098  154.0654 H   0  0  0  0  0  0  0  0  0  0  0  0
  149.2314  142.0789  153.7512 H   0  0  0  0  0  0  0  0  0  0  0  0
  151.1263  145.7424  159.6852 H   0  0  0  0  0  0  0  0  0  0  0  0
  1  2  1  0  0  0  0
  1 14  1  0  0  0  0
  1 15  1  0  0  0  0
  1 16  1  0  0  0  0
  2 13  1  0  0  0  0
  2  3  2  0  0  0  0
  3  4  1  0  0  0  0
  4  5  1  0  0  0  0
  4 12  2  0  0  0  0
  5  6  1  0  0  0  0
  5 17  1  0  0  0  0
  5 18  1  0  0  0  0
  6  7  2  0  0  0  0
  6  8  1  0  0  0  0
  8  9  1  0  0  0  0
  8 19  1  0  0  0  0
  9 11  1  0  0  0  0
  9 10  1  0  0  0  0
  9 20  1  0  0  0  0
 10 11  1  0  0  0  0
 10 21  1  0  0  0  0
 10 22  1  0  0  0  0
 11 23  1  0  0  0  0
 11 24  1  0  0  0  0
 12 13  1  0  0  0  0
 12 25  1  0  0  0  0
M  END
> <s_m_source_file>
AV-unprocessed.smi

> <i_m_source_file_index>
1882

> <i_lp_mmshare_version>
43012

> <i_f3d_flags>
0

> <s_epik_input>
W0NIM11jMW5jKFtjSF1zMSlbQ0gyXUMoPU8pW05IXVtDSF0yW0NIMl1bQ0gyXTI=

> <s_epik_cmdline>
J2VwaWtfcHl0aG9uJywgJy1waCcsICc3LjAnLCAnLXRuJywgJzgnLCAnLW1hJywgJzIwMCcsICctbWV0YWxfYmluZGluZycsICctaW1hZScsICc8aW5maWxlLm1hZT4nLCAnLW9tYWUnLCAnPG91dGZpbGUubWFlPic=

> <r_lp_tautomer_probability>
1

> <r_epik_Ionization_Penalty>
5.52242e-05

> <r_epik_Ionization_Penalty_Charging>
0

> <r_epik_Ionization_Penalty_Neutral>
5.52242e-05

> <r_epik_State_Penalty>
-0

> <r_epik_Charging_Adjusted_Penalty>
0

> <i_epik_Tot_Q>
0

> <i_epik_Tot_abs_Q>
0

> <r_epik_Metal_State_Penalty>
-0

> <b_epik_Metal_Only>
0

> <s_lp_Force_Field>
OPLS_2005

> <r_lp_Energy>
14.0294

> <b_lp_Chiralities_Consistent>
1

> <s_lp_Variant>
AV-unprocessed.smi:1882-1

> <Gold.Version>
5.8.1

> <Gold.Id.Protein>
6NUR|6NUR_protein|mol2

> <Gold.PLP.Fitness>
37.4349

> <Gold.PLP.PLP>
-35.0686

> <Gold.PLP.part.hbond>
-1.0000

> <Gold.PLP.part.metal>
0.0000

> <Gold.PLP.part.buried>
-3.8872

> <Gold.PLP.part.nonpolar>
-30.2394

> <Gold.PLP.part.repulsive>
0.1070

> <Gold.PLP.ligand.clash>
0.0000

> <Gold.PLP.ligand.torsion>
0.3346

> <Gold.PLP.Chemscore.Hbond>
1.0000

> <Gold.PLP.Chemscore.CHOScore>
0.0000

> <Gold.PLP.Chemscore.Metal>
0.0000

> <Gold.Chemscore.Hbonds>
donor molecule, donor type, donor heavy atom, donor atom, acceptor molecule, acceptor atom, score
      L1  H     8    19       P1  8028  0.98

> <Gold.PLP.Chemscore.Internal.Correction>
0.0355

> <Gold.Rescore>
     Score         DG    S(hbond)    S(metal)    S(lipo)     H(rot)  DE(clash)    DE(int)     intcor
     14.42     -16.26       1.00        0.00      93.35       1.36       0.07       1.77       ----

> <Gold.Chemscore.Fitness>
14.4234

> <Gold.Chemscore.DG>
-16.2637

> <Gold.Chemscore.ZeroCoef>
-5.4800

> <Gold.Chemscore.Hbond>
0.9988

> <Gold.Chemscore.Metal>
0.0000

> <Gold.Chemscore.Lipo>
93.3463

> <Gold.Chemscore.Internal_Hbond>
0.0000

> <Gold.Chemscore.DEClash>
0.0749

> <Gold.Chemscore.DEInternal>
1.7654

> <Gold.Chemscore.Rot>
1.3570

> <Gold.Chemscore.Internal.Correction>
   9.000000E+99

> <Gold.Chemscore.Hbonds>
donor molecule, donor type, donor heavy atom, donor atom, acceptor molecule, acceptor atom, score
      L1  H     8    19       P1  8028  0.92

> <Gold.Chemscore.Hbond.Weighted>
-3.3361

> <Gold.Chemscore.Metal.Weighted>
-0.0000

> <Gold.Chemscore.Lipo.Weighted>
-10.9215

> <Gold.Chemscore.Internal_Hbond.Weighted>
0.0000

> <Gold.Chemscore.DEClash.Weighted>
0.0749

> <Gold.Chemscore.DEInternal.Weighted>
1.7654

> <Gold.Chemscore.Rot.Weighted>
3.4740

> <Gold.Chemscore.Internal.Correction.Weighted>
   9.000000E+99

> <Gold.Protein.RotatedTorsions>
[ 6907 6896 6895 6894 ] final   96.99 input  -60.11 | X-H torsion
[ 7974 7965 7964 7962 ] final   15.29 input  175.53 | X-H torsion
[ 8008 7997 7996 7995 ] final  -70.77 input   59.86 | X-H torsion
[ 10167 10162 10161 10158 ] final  154.04 input  -65.29 | X-H torsion
[ 10718 10713 10712 10709 ] final -132.68 input   66.30 | X-H torsion
[ 10763 10752 10751 10750 ] final -172.29 input  -60.55 | X-H torsion
[ 11005 11000 10999 10996 ] final -170.58 input  -57.11 | X-H torsion

> <Gold.Protein.ActiveResidues>
 VAL166  LYS551  ARG553  GLY616  TRP617  ASP618  TYR619  PRO620  LYS621  CYS622 
 ASP623  PHE694  ASN695  SER759  ASP760  ASP761  ALA762  ILE779  LEU786  VAL792 
 PHE793  MET794  SER795  GLU796  ALA797  LYS798  CYS799  TRP800  GLU811  SER814 

> <Gold.Protein.RotatedAtoms>
  152.5429  134.0801  159.8231 H   0  0  0  0  0  0  0  0  0  0  0  0  # atno 6907 bound_to 6896
  151.0904  133.5313  159.2622 H   0  0  0  0  0  0  0  0  0  0  0  0  # atno 6908 bound_to 6896
  151.2106  135.0488  159.8964 H   0  0  0  0  0  0  0  0  0  0  0  0  # atno 6909 bound_to 6896
  146.2282  139.8915  142.8554 H   0  0  0  0  0  0  0  0  0  0  0  0  # atno 7974 bound_to 7965
  154.5037  140.0828  156.7851 H   0  0  0  0  0  0  0  0  0  0  0  0  # atno 8008 bound_to 7997
  155.3943  140.3434  155.4235 H   0  0  0  0  0  0  0  0  0  0  0  0  # atno 8009 bound_to 7997
  156.1489  140.1552  156.8790 H   0  0  0  0  0  0  0  0  0  0  0  0  # atno 8010 bound_to 7997
  139.4824  144.5221  151.7859 H   0  0  0  0  0  0  0  0  0  0  0  0  # atno 10167 bound_to 10162
  156.2371  130.7073  151.0918 H   0  0  0  0  0  0  0  0  0  0  0  0  # atno 10718 bound_to 10713
  154.6209  135.2875  155.0327 H   0  0  0  0  0  0  0  0  0  0  0  0  # atno 10763 bound_to 10752
  154.1522  135.6501  153.4970 H   0  0  0  0  0  0  0  0  0  0  0  0  # atno 10764 bound_to 10752
  153.0235  135.5358  154.6998 H   0  0  0  0  0  0  0  0  0  0  0  0  # atno 10765 bound_to 10752
  140.5179  134.5737  157.5039 H   0  0  0  0  0  0  0  0  0  0  0  0  # atno 11005 bound_to 11000
  145.2413  141.0010  143.3934 LP  0  0  0  0  0  0  0  0  0  0  0  0  # atno 17320 bound_to 7965
  144.9450  139.4146  143.6430 LP  0  0  0  0  0  0  0  0  0  0  0  0  # atno 17321 bound_to 7965
  140.4736  144.1551  150.5921 LP  0  0  0  0  0  0  0  0  0  0  0  0  # atno 17342 bound_to 10162
  140.4355  143.2549  151.9541 LP  0  0  0  0  0  0  0  0  0  0  0  0  # atno 17343 bound_to 10162
  157.7159  131.0710  150.6328 LP  0  0  0  0  0  0  0  0  0  0  0  0  # atno 17370 bound_to 10713
  156.6399  130.4455  149.5756 LP  0  0  0  0  0  0  0  0  0  0  0  0  # atno 17371 bound_to 10713
  139.9622  134.7433  156.0213 LP  0  0  0  0  0  0  0  0  0  0  0  0  # atno 17394 bound_to 11000
  141.1350  133.6577  156.3568 LP  0  0  0  0  0  0  0  0  0  0  0  0  # atno 17395 bound_to 11000

$$$$
