AV-unprocessed.smi:3345|AV-procd|sdf|12905|dock10
  -GOLD-   2272019323D 1   1.00000     0.00000
 Structure written by MMmdl.
 41 42  0  0  0  0  0  0  0  0  2 V2000
  146.8701  136.2506  156.2131 C   0  0  0  0  0  0  0  0  0  0  0  0
  146.6973  136.4698  154.7040 C   0  0  2  0  0  0  0  0  0  0  0  0
  146.7698  135.1332  153.9296 C   0  0  0  0  0  0  0  0  0  0  0  0
  145.7349  135.0189  152.8710 N   0  3  0  0  0  0  0  0  0  0  0  0
  145.8803  133.8021  152.0388 C   0  0  0  0  0  0  0  0  0  0  0  0
  144.8315  133.8029  150.9132 C   0  0  0  0  0  0  0  0  0  0  0  0
  143.5273  133.8958  151.4737 O   0  0  0  0  0  0  0  0  0  0  0  0
  143.3485  135.0962  152.2160 C   0  0  0  0  0  0  0  0  0  0  0  0
  144.3482  135.1315  153.3837 C   0  0  0  0  0  0  0  0  0  0  0  0
  147.7177  137.4111  154.2404 N   0  0  0  0  0  0  0  0  0  0  0  0
  147.9130  138.6575  154.7020 C   0  0  0  0  0  0  0  0  0  0  0  0
  147.2123  139.1684  155.5763 O   0  0  0  0  0  0  0  0  0  0  0  0
  149.0694  139.4457  154.0699 C   0  0  1  0  0  0  0  0  0  0  0  0
  148.9823  140.9546  154.3758 C   0  0  0  0  0  0  0  0  0  0  0  0
  150.3467  138.8695  154.4708 N   0  0  0  0  0  0  0  0  0  0  0  0
  150.7421  137.5945  154.4919 C   0  0  0  0  0  0  0  0  0  0  0  0
  151.9674  137.4178  154.9652 N   0  0  0  0  0  0  0  0  0  0  0  0
  152.2916  138.7141  155.2488 C   0  0  0  0  0  0  0  0  0  0  0  0
  151.3522  139.6218  154.9839 N   0  0  0  0  0  0  0  0  0  0  0  0
  146.1107  135.5703  156.5999 H   0  0  0  0  0  0  0  0  0  0  0  0
  146.7773  137.1898  156.7597 H   0  0  0  0  0  0  0  0  0  0  0  0
  147.8469  135.8249  156.4454 H   0  0  0  0  0  0  0  0  0  0  0  0
  145.7107  136.9133  154.5622 H   0  0  0  0  0  0  0  0  0  0  0  0
  147.7581  135.0607  153.4726 H   0  0  0  0  0  0  0  0  0  0  0  0
  146.6896  134.2855  154.6119 H   0  0  0  0  0  0  0  0  0  0  0  0
  146.8803  133.7646  151.6048 H   0  0  0  0  0  0  0  0  0  0  0  0
  145.7649  132.9141  152.6626 H   0  0  0  0  0  0  0  0  0  0  0  0
  145.0027  134.6303  150.2223 H   0  0  0  0  0  0  0  0  0  0  0  0
  144.9024  132.8830  150.3325 H   0  0  0  0  0  0  0  0  0  0  0  0
  143.4770  135.9641  151.5669 H   0  0  0  0  0  0  0  0  0  0  0  0
  142.3269  135.1290  152.5949 H   0  0  0  0  0  0  0  0  0  0  0  0
  144.1432  134.3122  154.0746 H   0  0  0  0  0  0  0  0  0  0  0  0
  144.2220  136.0586  153.9421 H   0  0  0  0  0  0  0  0  0  0  0  0
  148.3425  137.0773  153.5203 H   0  0  0  0  0  0  0  0  0  0  0  0
  148.9962  139.3336  152.9866 H   0  0  0  0  0  0  0  0  0  0  0  0
  148.0406  141.3728  154.0187 H   0  0  0  0  0  0  0  0  0  0  0  0
  149.7879  141.4980  153.8812 H   0  0  0  0  0  0  0  0  0  0  0  0
  149.0512  141.1640  155.4441 H   0  0  0  0  0  0  0  0  0  0  0  0
  150.1192  136.7778  154.1573 H   0  0  0  0  0  0  0  0  0  0  0  0
  153.2455  138.9964  155.6693 H   0  0  0  0  0  0  0  0  0  0  0  0
  145.8808  135.8022  152.2495 H   0  0  0  0  0  0  0  0  0  0  0  0
  1  2  1  0  0  0  0
  1 20  1  0  0  0  0
  1 21  1  0  0  0  0
  1 22  1  0  0  0  0
  2  3  1  0  0  0  0
  2 10  1  0  0  0  0
  2 23  1  0  0  0  0
  3  4  1  0  0  0  0
  3 24  1  0  0  0  0
  3 25  1  0  0  0  0
  4  9  1  0  0  0  0
  4  5  1  0  0  0  0
  4 41  1  0  0  0  0
  5  6  1  0  0  0  0
  5 26  1  0  0  0  0
  5 27  1  0  0  0  0
  6  7  1  0  0  0  0
  6 28  1  0  0  0  0
  6 29  1  0  0  0  0
  7  8  1  0  0  0  0
  8  9  1  0  0  0  0
  8 30  1  0  0  0  0
  8 31  1  0  0  0  0
  9 32  1  0  0  0  0
  9 33  1  0  0  0  0
 10 11  1  0  0  0  0
 10 34  1  0  0  0  0
 11 12  2  0  0  0  0
 11 13  1  0  0  0  0
 13 14  1  0  0  0  0
 13 15  1  0  0  0  0
 13 35  1  0  0  0  0
 14 36  1  0  0  0  0
 14 37  1  0  0  0  0
 14 38  1  0  0  0  0
 15 19  1  0  0  0  0
 15 16  1  0  0  0  0
 16 17  2  0  0  0  0
 16 39  1  0  0  0  0
 17 18  1  0  0  0  0
 18 19  2  0  0  0  0
 18 40  1  0  0  0  0
M  CHG  1   4   1
M  END
> <s_m_source_file>
AV-unprocessed.smi

> <i_m_source_file_index>
3345

> <i_lp_mmshare_version>
43012

> <i_f3d_flags>
0

> <s_epik_input>
W0NIMl0xW0NIMl1PW0NIMl1bQ0gyXU4xW0NIMl1bQ0BASF0oW0NIM10pW05IXUMoPU8pW0NASF0oW0NIM10pbjJbY0hdbltjSF1uMg==

> <s_epik_cmdline>
J2VwaWtfcHl0aG9uJywgJy1waCcsICc3LjAnLCAnLXRuJywgJzgnLCAnLW1hJywgJzIwMCcsICctbWV0YWxfYmluZGluZycsICctaW1hZScsICc8aW5maWxlLm1hZT4nLCAnLW9tYWUnLCAnPG91dGZpbGUubWFlPic=

> <r_lp_tautomer_probability>
1

> <r_epik_Ionization_Penalty>
0.71326

> <r_epik_Ionization_Penalty_Charging>
0.713252

> <r_epik_Ionization_Penalty_Neutral>
8.27671e-06

> <r_epik_State_Penalty>
0.737017

> <r_epik_Charging_Adjusted_Penalty>
1.45027

> <i_epik_Tot_Q>
1

> <i_epik_Tot_abs_Q>
1

> <r_epik_Metal_State_Penalty>
0.73702

> <b_epik_Metal_Only>
0

> <s_lp_Force_Field>
OPLS_2005

> <r_lp_Energy>
28.0971

> <b_lp_Chiralities_Consistent>
1

> <s_lp_Variant>
AV-unprocessed.smi:3345-7

> <Gold.Version>
5.8.1

> <Gold.Id.Protein>
6NUR|6NUR_protein|mol2

> <Gold.PLP.Fitness>
35.7755

> <Gold.PLP.PLP>
-26.0553

> <Gold.PLP.part.hbond>
-3.0000

> <Gold.PLP.part.metal>
0.0000

> <Gold.PLP.part.buried>
-3.3400

> <Gold.PLP.part.nonpolar>
-20.8043

> <Gold.PLP.part.repulsive>
0.3263

> <Gold.PLP.ligand.clash>
0.0000

> <Gold.PLP.ligand.torsion>
1.0322

> <Gold.PLP.Chemscore.Hbond>
2.8480

> <Gold.PLP.Chemscore.CHOScore>
1.0213

> <Gold.PLP.Chemscore.Metal>
0.0000

> <Gold.Chemscore.Hbonds>
donor molecule, donor type, donor heavy atom, donor atom, acceptor molecule, acceptor atom, score
      L1  H    10    34       P1  7948  1.00
      P1  H  7989  7998       L1    19  1.00
      P1  H 10752 10764       L1    17  0.72
      L1  C    16    39       P1  7948  0.84

> <Gold.PLP.Chemscore.Internal.Correction>
0.1767

> <Gold.Rescore>
     Score         DG    S(hbond)    S(metal)    S(lipo)     H(rot)  DE(clash)    DE(int)     intcor
      8.39     -11.96       2.73        0.00      34.66       2.61       0.68       2.90       ----

> <Gold.Chemscore.Fitness>
8.3902

> <Gold.Chemscore.DG>
-11.9621

> <Gold.Chemscore.ZeroCoef>
-5.4800

> <Gold.Chemscore.Hbond>
2.7300

> <Gold.Chemscore.Metal>
0.0000

> <Gold.Chemscore.Lipo>
34.6582

> <Gold.Chemscore.Internal_Hbond>
0.0000

> <Gold.Chemscore.DEClash>
0.6762

> <Gold.Chemscore.DEInternal>
2.8957

> <Gold.Chemscore.Rot>
2.6138

> <Gold.Chemscore.Internal.Correction>
   9.000000E+99

> <Gold.Chemscore.Hbonds>
donor molecule, donor type, donor heavy atom, donor atom, acceptor molecule, acceptor atom, score
      L1  H    10    34       P1  7948  0.99
      P1  H  7989  7998       L1    19  0.24
      P1  H 10752 10764       L1    17  0.65

> <Gold.Chemscore.Hbond.Weighted>
-9.1184

> <Gold.Chemscore.Metal.Weighted>
-0.0000

> <Gold.Chemscore.Lipo.Weighted>
-4.0550

> <Gold.Chemscore.Internal_Hbond.Weighted>
0.0000

> <Gold.Chemscore.DEClash.Weighted>
0.6762

> <Gold.Chemscore.DEInternal.Weighted>
2.8957

> <Gold.Chemscore.Rot.Weighted>
6.6912

> <Gold.Chemscore.Internal.Correction.Weighted>
   9.000000E+99

> <Gold.Protein.RotatedTorsions>
[ 6907 6896 6895 6894 ] final -104.72 input  -60.11 | X-H torsion
[ 7974 7965 7964 7962 ] final    5.63 input  175.53 | X-H torsion
[ 8008 7997 7996 7995 ] final   99.57 input   59.86 | X-H torsion
[ 10167 10162 10161 10158 ] final   33.31 input  -65.29 | X-H torsion
[ 10718 10713 10712 10709 ] final   42.30 input   66.30 | X-H torsion
[ 10763 10752 10751 10750 ] final  -72.21 input  -60.55 | X-H torsion
[ 11005 11000 10999 10996 ] final   36.02 input  -57.11 | X-H torsion

> <Gold.Protein.ActiveResidues>
 VAL166  LYS551  ARG553  GLY616  TRP617  ASP618  TYR619  PRO620  LYS621  CYS622 
 ASP623  PHE694  ASN695  SER759  ASP760  ASP761  ALA762  ILE779  LEU786  VAL792 
 PHE793  MET794  SER795  GLU796  ALA797  LYS798  CYS799  TRP800  GLU811  SER814 

> <Gold.Protein.RotatedAtoms>
  150.7301  134.0235  159.3709 H   0  0  0  0  0  0  0  0  0  0  0  0  # atno 6907 bound_to 6896
  151.8201  135.0652  160.0433 H   0  0  0  0  0  0  0  0  0  0  0  0  # atno 6908 bound_to 6896
  152.3010  133.5619  159.5654 H   0  0  0  0  0  0  0  0  0  0  0  0  # atno 6909 bound_to 6896
  146.2439  140.0355  142.8386 H   0  0  0  0  0  0  0  0  0  0  0  0  # atno 7974 bound_to 7965
  156.1118  140.3226  155.8084 H   0  0  0  0  0  0  0  0  0  0  0  0  # atno 8008 bound_to 7997
  155.4659  140.0543  157.3002 H   0  0  0  0  0  0  0  0  0  0  0  0  # atno 8009 bound_to 7997
  154.4765  140.2034  155.9879 H   0  0  0  0  0  0  0  0  0  0  0  0  # atno 8010 bound_to 7997
  140.4418  144.1176  150.6175 H   0  0  0  0  0  0  0  0  0  0  0  0  # atno 10167 bound_to 10162
  157.4033  130.7872  149.7367 H   0  0  0  0  0  0  0  0  0  0  0  0  # atno 10718 bound_to 10713
  154.4426  135.5937  153.6139 H   0  0  0  0  0  0  0  0  0  0  0  0  # atno 10763 bound_to 10752
  152.9806  135.6001  154.3704 H   0  0  0  0  0  0  0  0  0  0  0  0  # atno 10764 bound_to 10752
  154.3555  135.2841  155.2327 H   0  0  0  0  0  0  0  0  0  0  0  0  # atno 10765 bound_to 10752
  140.2368  134.3462  155.7941 H   0  0  0  0  0  0  0  0  0  0  0  0  # atno 11005 bound_to 11000
  145.1116  140.9408  143.4653 LP  0  0  0  0  0  0  0  0  0  0  0  0  # atno 17320 bound_to 7965
  145.0570  139.3135  143.5899 LP  0  0  0  0  0  0  0  0  0  0  0  0  # atno 17321 bound_to 7965
  140.4309  143.2568  151.9597 LP  0  0  0  0  0  0  0  0  0  0  0  0  # atno 17342 bound_to 10162
  139.4790  144.5745  151.8035 LP  0  0  0  0  0  0  0  0  0  0  0  0  # atno 17343 bound_to 10162
  155.9829  130.4005  150.3390 LP  0  0  0  0  0  0  0  0  0  0  0  0  # atno 17370 bound_to 10713
  157.1520  131.0323  151.2880 LP  0  0  0  0  0  0  0  0  0  0  0  0  # atno 17371 bound_to 10713
  141.2214  133.7276  156.8820 LP  0  0  0  0  0  0  0  0  0  0  0  0  # atno 17394 bound_to 11000
  140.1694  134.9110  157.2815 LP  0  0  0  0  0  0  0  0  0  0  0  0  # atno 17395 bound_to 11000

$$$$
