AV-unprocessed.smi:906|AV-procd|sdf|4100|dock9
  -GOLD-   22720 1593D 1   1.00000     0.00000
 Structure written by MMmdl.
 47 48  0  0  0  0  0  0  0  0  1 V2000
  151.2995  145.5573  160.0133 C   0  0  0  0  0  0  0  0  0  0  0  0
  151.6432  144.0900  159.8660 C   0  0  0  0  0  0  0  0  0  0  0  0
  152.5395  143.4631  160.7572 C   0  0  0  0  0  0  0  0  0  0  0  0
  152.8243  142.0968  160.5706 C   0  0  0  0  0  0  0  0  0  0  0  0
  152.2064  141.4124  159.5037 C   0  0  0  0  0  0  0  0  0  0  0  0
  152.4935  139.9431  159.2454 C   0  0  0  0  0  0  0  0  0  0  0  0
  151.8095  139.4092  157.9754 C   0  0  0  0  0  0  0  0  0  0  0  0
  150.8639  138.3446  158.2978 N   0  0  0  0  0  0  0  0  0  0  0  0
  149.5274  138.4668  158.3591 C   0  0  0  0  0  0  0  0  0  0  0  0
  148.9564  139.5461  158.1973 O   0  0  0  0  0  0  0  0  0  0  0  0
  148.8655  137.3029  158.5748 N   0  0  0  0  0  0  0  0  0  0  0  0
  149.3755  136.1125  159.2705 C   0  0  0  0  0  0  0  0  0  0  0  0
  148.6459  135.9787  160.6208 C   0  0  0  0  0  0  0  0  0  0  0  0
  147.1970  135.8645  160.4024 N   0  0  0  0  0  0  0  0  0  0  0  0
  146.4001  135.6140  161.6158 C   0  0  2  0  0  0  0  0  0  0  0  0
  146.4278  136.7772  162.6321 C   0  0  0  0  0  0  0  0  0  0  0  0
  146.7518  134.2554  162.2680 C   0  0  0  0  0  0  0  0  0  0  0  0
  146.8968  133.3175  161.3312 F   0  0  0  0  0  0  0  0  0  0  0  0
  147.8672  134.3178  162.9953 F   0  0  0  0  0  0  0  0  0  0  0  0
  145.7534  133.8858  163.0702 F   0  0  0  0  0  0  0  0  0  0  0  0
  146.6874  137.0162  159.6470 C   0  0  0  0  0  0  0  0  0  0  0  0
  147.4338  137.1464  158.3054 C   0  0  0  0  0  0  0  0  0  0  0  0
  151.3253  142.1327  158.6700 C   0  0  0  0  0  0  0  0  0  0  0  0
  151.0453  143.4425  158.8417 N   0  0  0  0  0  0  0  0  0  0  0  0
  151.7632  145.9848  160.9030 H   0  0  0  0  0  0  0  0  0  0  0  0
  150.2204  145.6894  160.0966 H   0  0  0  0  0  0  0  0  0  0  0  0
  151.6486  146.1167  159.1451 H   0  0  0  0  0  0  0  0  0  0  0  0
  153.0010  144.0138  161.5634 H   0  0  0  0  0  0  0  0  0  0  0  0
  153.5108  141.5882  161.2316 H   0  0  0  0  0  0  0  0  0  0  0  0
  153.5719  139.7988  159.1690 H   0  0  0  0  0  0  0  0  0  0  0  0
  152.1703  139.3631  160.1104 H   0  0  0  0  0  0  0  0  0  0  0  0
  151.2778  140.2144  157.4681 H   0  0  0  0  0  0  0  0  0  0  0  0
  152.5741  139.0552  157.2821 H   0  0  0  0  0  0  0  0  0  0  0  0
  151.2533  137.4237  158.4369 H   0  0  0  0  0  0  0  0  0  0  0  0
  149.1918  135.2299  158.6555 H   0  0  0  0  0  0  0  0  0  0  0  0
  150.4518  136.1260  159.4409 H   0  0  0  0  0  0  0  0  0  0  0  0
  149.0253  135.0990  161.1368 H   0  0  0  0  0  0  0  0  0  0  0  0
  148.8719  136.8441  161.2446 H   0  0  0  0  0  0  0  0  0  0  0  0
  145.3678  135.5109  161.2783 H   0  0  0  0  0  0  0  0  0  0  0  0
  145.7274  136.5898  163.4459 H   0  0  0  0  0  0  0  0  0  0  0  0
  146.1413  137.7262  162.1799 H   0  0  0  0  0  0  0  0  0  0  0  0
  147.4126  136.9025  163.0819 H   0  0  0  0  0  0  0  0  0  0  0  0
  145.6217  136.8887  159.4535 H   0  0  0  0  0  0  0  0  0  0  0  0
  146.8026  137.9344  160.2234 H   0  0  0  0  0  0  0  0  0  0  0  0
  147.0199  137.9778  157.7335 H   0  0  0  0  0  0  0  0  0  0  0  0
  147.2727  136.2575  157.6933 H   0  0  0  0  0  0  0  0  0  0  0  0
  150.8361  141.6466  157.8386 H   0  0  0  0  0  0  0  0  0  0  0  0
  1  2  1  0  0  0  0
  1 25  1  0  0  0  0
  1 26  1  0  0  0  0
  1 27  1  0  0  0  0
  2 24  1  0  0  0  0
  2  3  2  0  0  0  0
  3  4  1  0  0  0  0
  3 28  1  0  0  0  0
  4  5  2  0  0  0  0
  4 29  1  0  0  0  0
  5  6  1  0  0  0  0
  5 23  1  0  0  0  0
  6  7  1  0  0  0  0
  6 30  1  0  0  0  0
  6 31  1  0  0  0  0
  7  8  1  0  0  0  0
  7 32  1  0  0  0  0
  7 33  1  0  0  0  0
  8  9  1  0  0  0  0
  8 34  1  0  0  0  0
  9 10  2  0  0  0  0
  9 11  1  0  0  0  0
 11 22  1  0  0  0  0
 11 12  1  0  0  0  0
 12 13  1  0  0  0  0
 12 35  1  0  0  0  0
 12 36  1  0  0  0  0
 13 14  1  0  0  0  0
 13 37  1  0  0  0  0
 13 38  1  0  0  0  0
 14 15  1  0  0  0  0
 14 21  1  0  0  0  0
 15 16  1  0  0  0  0
 15 17  1  0  0  0  0
 15 39  1  0  0  0  0
 16 40  1  0  0  0  0
 16 41  1  0  0  0  0
 16 42  1  0  0  0  0
 17 18  1  0  0  0  0
 17 19  1  0  0  0  0
 17 20  1  0  0  0  0
 21 22  1  0  0  0  0
 21 43  1  0  0  0  0
 21 44  1  0  0  0  0
 22 45  1  0  0  0  0
 22 46  1  0  0  0  0
 23 24  2  0  0  0  0
 23 47  1  0  0  0  0
M  END
> <s_m_source_file>
AV-unprocessed.smi

> <i_m_source_file_index>
906

> <i_lp_mmshare_version>
43012

> <i_f3d_flags>
0

> <s_epik_input>
W0NIM11jMVtjSF1bY0hdYyhbY0hdbjEpW0NIMl1bQ0gyXVtOSF1DKD1PKU4yW0NIMl1bQ0gyXU4oW0NASF0oW0NIM10pQyhGKShGKUYpW0NIMl1bQ0gyXTI=

> <s_epik_cmdline>
J2VwaWtfcHl0aG9uJywgJy1waCcsICc3LjAnLCAnLXRuJywgJzgnLCAnLW1hJywgJzIwMCcsICctbWV0YWxfYmluZGluZycsICctaW1hZScsICc8aW5maWxlLm1hZT4nLCAnLW9tYWUnLCAnPG91dGZpbGUubWFlPic=

> <r_epik_Ionization_Penalty>
0.0782886

> <r_epik_Ionization_Penalty_Charging>
0

> <r_epik_Ionization_Penalty_Neutral>
0.0782886

> <r_epik_State_Penalty>
0.0661423

> <r_epik_Charging_Adjusted_Penalty>
0.0661423

> <i_epik_Tot_Q>
0

> <i_epik_Tot_abs_Q>
0

> <r_epik_Metal_State_Penalty>
0.060629

> <b_epik_Metal_Only>
0

> <s_lp_Force_Field>
OPLS_2005

> <r_lp_Energy>
48.1538

> <b_lp_Chiralities_Consistent>
1

> <s_lp_Variant>
AV-unprocessed.smi:906-1

> <Gold.Version>
5.8.1

> <Gold.Id.Protein>
6NUR|6NUR_protein|mol2

> <Gold.PLP.Fitness>
44.3764

> <Gold.PLP.PLP>
-45.9296

> <Gold.PLP.part.hbond>
0.0000

> <Gold.PLP.part.metal>
0.0000

> <Gold.PLP.part.buried>
-5.8639

> <Gold.PLP.part.nonpolar>
-40.0587

> <Gold.PLP.part.repulsive>
0.1512

> <Gold.PLP.ligand.clash>
0.0000

> <Gold.PLP.ligand.torsion>
1.0877

> <Gold.PLP.Chemscore.Hbond>
0.0000

> <Gold.PLP.Chemscore.CHOScore>
0.0000

> <Gold.PLP.Chemscore.Metal>
0.0000

> <Gold.PLP.Chemscore.Internal.Correction>
0.6222

> <Gold.Rescore>
     Score         DG    S(hbond)    S(metal)    S(lipo)     H(rot)  DE(clash)    DE(int)     intcor
     13.44     -14.75       0.00        0.00     113.85       1.58       0.05       1.25       ----

> <Gold.Chemscore.Fitness>
13.4443

> <Gold.Chemscore.DG>
-14.7456

> <Gold.Chemscore.ZeroCoef>
-5.4800

> <Gold.Chemscore.Hbond>
0.0000

> <Gold.Chemscore.Metal>
0.0000

> <Gold.Chemscore.Lipo>
113.8544

> <Gold.Chemscore.Internal_Hbond>
0.0000

> <Gold.Chemscore.DEClash>
0.0492

> <Gold.Chemscore.DEInternal>
1.2521

> <Gold.Chemscore.Rot>
1.5841

> <Gold.Chemscore.Internal.Correction>
   9.000000E+99

> <Gold.Chemscore.Hbond.Weighted>
-0.0000

> <Gold.Chemscore.Metal.Weighted>
-0.0000

> <Gold.Chemscore.Lipo.Weighted>
-13.3210

> <Gold.Chemscore.Internal_Hbond.Weighted>
0.0000

> <Gold.Chemscore.DEClash.Weighted>
0.0492

> <Gold.Chemscore.DEInternal.Weighted>
1.2521

> <Gold.Chemscore.Rot.Weighted>
4.0554

> <Gold.Chemscore.Internal.Correction.Weighted>
   9.000000E+99

> <Gold.Protein.RotatedTorsions>
[ 6907 6896 6895 6894 ] final  -66.00 input  -60.11 | X-H torsion
[ 7974 7965 7964 7962 ] final  145.39 input  175.53 | X-H torsion
[ 8008 7997 7996 7995 ] final -140.07 input   59.86 | X-H torsion
[ 10167 10162 10161 10158 ] final   54.96 input  -65.29 | X-H torsion
[ 10718 10713 10712 10709 ] final  138.95 input   66.30 | X-H torsion
[ 10763 10752 10751 10750 ] final  -25.31 input  -60.55 | X-H torsion
[ 11005 11000 10999 10996 ] final  123.02 input  -57.11 | X-H torsion

> <Gold.Protein.ActiveResidues>
 VAL166  LYS551  ARG553  GLY616  TRP617  ASP618  TYR619  PRO620  LYS621  CYS622 
 ASP623  PHE694  ASN695  SER759  ASP760  ASP761  ALA762  ILE779  LEU786  VAL792 
 PHE793  MET794  SER795  GLU796  ALA797  LYS798  CYS799  TRP800  GLU811  SER814 

> <Gold.Protein.RotatedAtoms>
  150.7491  134.6082  159.6071 H   0  0  0  0  0  0  0  0  0  0  0  0  # atno 6907 bound_to 6896
  152.3424  134.7114  160.0269 H   0  0  0  0  0  0  0  0  0  0  0  0  # atno 6908 bound_to 6896
  151.7562  133.3294  159.3441 H   0  0  0  0  0  0  0  0  0  0  0  0  # atno 6909 bound_to 6896
  144.8756  139.5778  143.5866 H   0  0  0  0  0  0  0  0  0  0  0  0  # atno 7974 bound_to 7965
  155.4552  140.0541  157.2997 H   0  0  0  0  0  0  0  0  0  0  0  0  # atno 8008 bound_to 7997
  154.4760  140.2061  155.9832 H   0  0  0  0  0  0  0  0  0  0  0  0  # atno 8009 bound_to 7997
  156.1132  140.3200  155.8107 H   0  0  0  0  0  0  0  0  0  0  0  0  # atno 8010 bound_to 7997
  140.2246  144.3752  150.6437 H   0  0  0  0  0  0  0  0  0  0  0  0  # atno 10167 bound_to 10162
  157.4197  131.1037  151.0366 H   0  0  0  0  0  0  0  0  0  0  0  0  # atno 10718 bound_to 10713
  153.6978  135.6958  153.5071 H   0  0  0  0  0  0  0  0  0  0  0  0  # atno 10763 bound_to 10752
  153.2365  135.4320  155.0651 H   0  0  0  0  0  0  0  0  0  0  0  0  # atno 10764 bound_to 10752
  154.8353  135.3497  154.6518 H   0  0  0  0  0  0  0  0  0  0  0  0  # atno 10765 bound_to 10752
  139.9294  134.9641  156.8196 H   0  0  0  0  0  0  0  0  0  0  0  0  # atno 11005 bound_to 11000
  146.2960  139.7280  142.9126 LP  0  0  0  0  0  0  0  0  0  0  0  0  # atno 17320 bound_to 7965
  145.4049  141.0389  143.3050 LP  0  0  0  0  0  0  0  0  0  0  0  0  # atno 17321 bound_to 7965
  140.6230  143.2178  151.6655 LP  0  0  0  0  0  0  0  0  0  0  0  0  # atno 17342 bound_to 10162
  139.5132  144.3452  152.0704 LP  0  0  0  0  0  0  0  0  0  0  0  0  # atno 17343 bound_to 10162
  157.1301  130.6098  149.5527 LP  0  0  0  0  0  0  0  0  0  0  0  0  # atno 17370 bound_to 10713
  155.9877  130.4917  150.7135 LP  0  0  0  0  0  0  0  0  0  0  0  0  # atno 17371 bound_to 10713
  140.6245  133.9963  155.7633 LP  0  0  0  0  0  0  0  0  0  0  0  0  # atno 17394 bound_to 11000
  141.0873  133.9971  157.3293 LP  0  0  0  0  0  0  0  0  0  0  0  0  # atno 17395 bound_to 11000

$$$$
