AV-unprocessed.smi:2002|AV-procd|sdf|8115|dock2
  -GOLD-   2272010343D 1   1.00000     0.00000
 Structure written by MMmdl.
 39 40  0  0  0  0  0  0  0  0  2 V2000
  145.2811  132.5027  150.1104 C   0  0  0  0  0  0  0  0  0  0  0  0
  143.9173  133.1322  149.7960 C   0  0  0  0  0  0  0  0  0  0  0  0
  143.5687  134.2173  150.7434 N   0  3  1  0  0  0  0  0  0  0  0  0
  143.3312  133.7785  152.1365 C   0  0  0  0  0  0  0  0  0  0  0  0
  143.7089  134.9738  153.0053 C   0  0  0  0  0  0  0  0  0  0  0  0
  144.9056  135.5633  152.2599 C   0  0  2  0  0  0  0  0  0  0  0  0
  145.2313  137.0331  152.5885 C   0  0  0  0  0  0  0  0  0  0  0  0
  146.6620  137.2540  152.7765 N   0  0  0  0  0  0  0  0  0  0  0  0
  147.2058  138.1717  153.5893 C   0  0  0  0  0  0  0  0  0  0  0  0
  146.5432  138.9224  154.3061 O   0  0  0  0  0  0  0  0  0  0  0  0
  148.5477  138.1573  153.5146 N   0  0  0  0  0  0  0  0  0  0  0  0
  149.4610  138.9876  154.2131 C   0  0  0  0  0  0  0  0  0  0  0  0
  148.9978  140.0441  155.0417 C   0  0  0  0  0  0  0  0  0  0  0  0
  150.1556  140.5889  155.5216 C   0  0  0  0  0  0  0  0  0  0  0  0
  150.4362  141.7253  156.4439 C   0  0  0  0  0  0  0  0  0  0  0  0
  151.2336  139.9221  155.0271 O   0  0  0  0  0  0  0  0  0  0  0  0
  150.7818  138.8964  154.1881 N   0  0  0  0  0  0  0  0  0  0  0  0
  144.5487  135.3300  150.7839 C   0  0  0  0  0  0  0  0  0  0  0  0
  145.4918  131.6802  149.4266 H   0  0  0  0  0  0  0  0  0  0  0  0
  145.3066  132.1041  151.1250 H   0  0  0  0  0  0  0  0  0  0  0  0
  146.0917  133.2250  150.0115 H   0  0  0  0  0  0  0  0  0  0  0  0
  143.8973  133.5096  148.7726 H   0  0  0  0  0  0  0  0  0  0  0  0
  143.1541  132.3553  149.8591 H   0  0  0  0  0  0  0  0  0  0  0  0
  142.2992  133.4620  152.2891 H   0  0  0  0  0  0  0  0  0  0  0  0
  143.9814  132.9360  152.3784 H   0  0  0  0  0  0  0  0  0  0  0  0
  142.8857  135.6894  153.0306 H   0  0  0  0  0  0  0  0  0  0  0  0
  143.9430  134.6899  154.0317 H   0  0  0  0  0  0  0  0  0  0  0  0
  145.7777  134.9494  152.4928 H   0  0  0  0  0  0  0  0  0  0  0  0
  144.9071  137.6691  151.7644 H   0  0  0  0  0  0  0  0  0  0  0  0
  144.6707  137.3639  153.4647 H   0  0  0  0  0  0  0  0  0  0  0  0
  147.2849  136.6797  152.2271 H   0  0  0  0  0  0  0  0  0  0  0  0
  148.9614  137.4883  152.8823 H   0  0  0  0  0  0  0  0  0  0  0  0
  147.9852  140.3535  155.2526 H   0  0  0  0  0  0  0  0  0  0  0  0
  149.5140  142.2314  156.7298 H   0  0  0  0  0  0  0  0  0  0  0  0
  151.0897  142.4571  155.9686 H   0  0  0  0  0  0  0  0  0  0  0  0
  150.9249  141.3736  157.3527 H   0  0  0  0  0  0  0  0  0  0  0  0
  145.4439  135.1228  150.1955 H   0  0  0  0  0  0  0  0  0  0  0  0
  144.0718  136.2103  150.3512 H   0  0  0  0  0  0  0  0  0  0  0  0
  142.7043  134.6272  150.4192 H   0  0  0  0  0  0  0  0  0  0  0  0
  1  2  1  0  0  0  0
  1 19  1  0  0  0  0
  1 20  1  0  0  0  0
  1 21  1  0  0  0  0
  2  3  1  0  0  0  0
  2 22  1  0  0  0  0
  2 23  1  0  0  0  0
  3 18  1  0  0  0  0
  3  4  1  0  0  0  0
  3 39  1  0  0  0  0
  4  5  1  0  0  0  0
  4 24  1  0  0  0  0
  4 25  1  0  0  0  0
  5  6  1  0  0  0  0
  5 26  1  0  0  0  0
  5 27  1  0  0  0  0
  6  7  1  0  0  0  0
  6 18  1  0  0  0  0
  6 28  1  0  0  0  0
  7  8  1  0  0  0  0
  7 29  1  0  0  0  0
  7 30  1  0  0  0  0
  8  9  1  0  0  0  0
  8 31  1  0  0  0  0
  9 10  2  0  0  0  0
  9 11  1  0  0  0  0
 11 12  1  0  0  0  0
 11 32  1  0  0  0  0
 12 17  2  0  0  0  0
 12 13  1  0  0  0  0
 13 14  2  0  0  0  0
 13 33  1  0  0  0  0
 14 15  1  0  0  0  0
 14 16  1  0  0  0  0
 15 34  1  0  0  0  0
 15 35  1  0  0  0  0
 15 36  1  0  0  0  0
 16 17  1  0  0  0  0
 18 37  1  0  0  0  0
 18 38  1  0  0  0  0
M  CHG  1   3   1
M  END
> <s_m_source_file>
AV-unprocessed.smi

> <i_m_source_file_index>
2002

> <i_lp_mmshare_version>
43012

> <i_f3d_flags>
0

> <s_epik_input>
W0NIM11bQ0gyXU4xW0NIMl1bQ0gyXVtDQEhdKFtDSDJdMSlbQ0gyXVtOSF1DKD1PKVtOSF1jMltjSF1jKFtDSDNdKW9uMg==

> <s_epik_cmdline>
J2VwaWtfcHl0aG9uJywgJy1waCcsICc3LjAnLCAnLXRuJywgJzgnLCAnLW1hJywgJzIwMCcsICctbWV0YWxfYmluZGluZycsICctaW1hZScsICc8aW5maWxlLm1hZT4nLCAnLW9tYWUnLCAnPG91dGZpbGUubWFlPic=

> <r_epik_Ionization_Penalty>
0.000632871

> <r_epik_Ionization_Penalty_Charging>
0.000610951

> <r_epik_Ionization_Penalty_Neutral>
2.19198e-05

> <r_epik_State_Penalty>
0.000385263

> <r_epik_Charging_Adjusted_Penalty>
0.000996214

> <i_epik_Tot_Q>
1

> <i_epik_Tot_abs_Q>
1

> <r_epik_Metal_State_Penalty>
-0

> <b_epik_Metal_Only>
0

> <s_lp_Force_Field>
OPLS_2005

> <r_lp_Energy>
25.0308

> <b_lp_Chiralities_Consistent>
1

> <s_lp_Variant>
AV-unprocessed.smi:2002-3

> <Gold.Version>
5.8.1

> <Gold.Id.Protein>
6NUR|6NUR_protein|mol2

> <Gold.PLP.Fitness>
43.4848

> <Gold.PLP.PLP>
-31.9596

> <Gold.PLP.part.hbond>
-5.5510

> <Gold.PLP.part.metal>
0.0000

> <Gold.PLP.part.buried>
-2.0237

> <Gold.PLP.part.nonpolar>
-25.1941

> <Gold.PLP.part.repulsive>
0.4882

> <Gold.PLP.ligand.clash>
0.0000

> <Gold.PLP.ligand.torsion>
0.8385

> <Gold.PLP.Chemscore.Hbond>
4.3970

> <Gold.PLP.Chemscore.CHOScore>
0.0000

> <Gold.PLP.Chemscore.Metal>
0.0000

> <Gold.Chemscore.Hbonds>
donor molecule, donor type, donor heavy atom, donor atom, acceptor molecule, acceptor atom, score
      L1  H     3    39       P1 10186  2.00
      L1  H     8    31       P1  7948  0.96
      L1  H    11    32       P1  7948  1.00
      P1  H  7989  7998       L1    16  0.35

> <Gold.PLP.Chemscore.Internal.Correction>
0.0113

> <Gold.Rescore>
     Score         DG    S(hbond)    S(metal)    S(lipo)     H(rot)  DE(clash)    DE(int)     intcor
     16.17     -18.52       2.87        0.00      62.76       1.52       0.07       2.28       ----

> <Gold.Chemscore.Fitness>
16.1681

> <Gold.Chemscore.DG>
-18.5179

> <Gold.Chemscore.ZeroCoef>
-5.4800

> <Gold.Chemscore.Hbond>
2.8720

> <Gold.Chemscore.Metal>
0.0000

> <Gold.Chemscore.Lipo>
62.7557

> <Gold.Chemscore.Internal_Hbond>
0.0000

> <Gold.Chemscore.DEClash>
0.0666

> <Gold.Chemscore.DEInternal>
2.2831

> <Gold.Chemscore.Rot>
1.5223

> <Gold.Chemscore.Internal.Correction>
   9.000000E+99

> <Gold.Chemscore.Hbonds>
donor molecule, donor type, donor heavy atom, donor atom, acceptor molecule, acceptor atom, score
      L1  H     3    39       P1 10186  0.33
      L1  H     8    31       P1  7948  0.92
      L1  H    11    32       P1  7948  0.97

> <Gold.Chemscore.Hbond.Weighted>
-9.5925

> <Gold.Chemscore.Metal.Weighted>
-0.0000

> <Gold.Chemscore.Lipo.Weighted>
-7.3424

> <Gold.Chemscore.Internal_Hbond.Weighted>
0.0000

> <Gold.Chemscore.DEClash.Weighted>
0.0666

> <Gold.Chemscore.DEInternal.Weighted>
2.2831

> <Gold.Chemscore.Rot.Weighted>
3.8971

> <Gold.Chemscore.Internal.Correction.Weighted>
   9.000000E+99

> <Gold.Protein.RotatedTorsions>
[ 6907 6896 6895 6894 ] final  -57.88 input  -60.11 | X-H torsion
[ 7974 7965 7964 7962 ] final -113.11 input  175.53 | X-H torsion
[ 8008 7997 7996 7995 ] final   42.90 input   59.86 | X-H torsion
[ 10167 10162 10161 10158 ] final -117.14 input  -65.29 | X-H torsion
[ 10718 10713 10712 10709 ] final -142.74 input   66.30 | X-H torsion
[ 10763 10752 10751 10750 ] final  -11.99 input  -60.55 | X-H torsion
[ 11005 11000 10999 10996 ] final  -48.45 input  -57.11 | X-H torsion

> <Gold.Protein.ActiveResidues>
 VAL166  LYS551  ARG553  GLY616  TRP617  ASP618  TYR619  PRO620  LYS621  CYS622 
 ASP623  PHE694  ASN695  SER759  ASP760  ASP761  ALA762  ILE779  LEU786  VAL792 
 PHE793  MET794  SER795  GLU796  ALA797  LYS798  CYS799  TRP800  GLU811  SER814 

> <Gold.Protein.RotatedAtoms>
  150.8051  134.7170  159.6636 H   0  0  0  0  0  0  0  0  0  0  0  0  # atno 6907 bound_to 6896
  152.4170  134.6021  160.0012 H   0  0  0  0  0  0  0  0  0  0  0  0  # atno 6908 bound_to 6896
  151.6247  133.3299  159.3131 H   0  0  0  0  0  0  0  0  0  0  0  0  # atno 6909 bound_to 6896
  145.1360  140.8751  143.3730 H   0  0  0  0  0  0  0  0  0  0  0  0  # atno 7974 bound_to 7965
  155.2939  140.3380  155.4251 H   0  0  0  0  0  0  0  0  0  0  0  0  # atno 8008 bound_to 7997
  156.2033  140.1741  156.7893 H   0  0  0  0  0  0  0  0  0  0  0  0  # atno 8009 bound_to 7997
  154.5587  140.0691  156.8769 H   0  0  0  0  0  0  0  0  0  0  0  0  # atno 8010 bound_to 7997
  140.0716  143.4872  152.1976 H   0  0  0  0  0  0  0  0  0  0  0  0  # atno 10167 bound_to 10162
  156.3496  130.7681  151.1831 H   0  0  0  0  0  0  0  0  0  0  0  0  # atno 10718 bound_to 10713
  153.4918  135.7017  153.5880 H   0  0  0  0  0  0  0  0  0  0  0  0  # atno 10763 bound_to 10752
  153.4049  135.3863  155.2012 H   0  0  0  0  0  0  0  0  0  0  0  0  # atno 10764 bound_to 10752
  154.8716  135.3890  154.4379 H   0  0  0  0  0  0  0  0  0  0  0  0  # atno 10765 bound_to 10752
  141.0701  133.6681  156.3442 H   0  0  0  0  0  0  0  0  0  0  0  0  # atno 11005 bound_to 11000
  145.0584  139.3125  143.5893 LP  0  0  0  0  0  0  0  0  0  0  0  0  # atno 17320 bound_to 7965
  146.3509  140.0017  142.8675 LP  0  0  0  0  0  0  0  0  0  0  0  0  # atno 17321 bound_to 7965
  139.5832  144.7520  151.3585 LP  0  0  0  0  0  0  0  0  0  0  0  0  # atno 17342 bound_to 10162
  140.7123  143.7359  150.7589 LP  0  0  0  0  0  0  0  0  0  0  0  0  # atno 17343 bound_to 10162
  157.7459  131.0431  150.4729 LP  0  0  0  0  0  0  0  0  0  0  0  0  # atno 17370 bound_to 10713
  156.4922  130.4098  149.6400 LP  0  0  0  0  0  0  0  0  0  0  0  0  # atno 17371 bound_to 10713
  140.5691  134.5858  157.5453 LP  0  0  0  0  0  0  0  0  0  0  0  0  # atno 17394 bound_to 11000
  139.9515  134.7609  156.0438 LP  0  0  0  0  0  0  0  0  0  0  0  0  # atno 17395 bound_to 11000

$$$$
