AV-unprocessed.smi:2077|AV-procd|sdf|8462|dock7
  -GOLD-   2272011163D 1   1.00000     0.00000
 Structure written by MMmdl.
 38 40  0  0  0  0  0  0  0  0  1 V2000
  149.7138  135.5215  155.2619 C   0  0  0  0  0  0  0  0  0  0  0  0
  149.3742  136.9514  155.1351 N   0  0  0  0  0  0  0  0  0  0  0  0
  150.3235  137.8757  155.4844 C   0  0  0  0  0  0  0  0  0  0  0  0
  151.4548  137.6076  155.8918 O   0  0  0  0  0  0  0  0  0  0  0  0
  149.8810  139.2643  155.3338 C   0  0  0  0  0  0  0  0  0  0  0  0
  148.6520  139.6029  154.8764 C   0  0  0  0  0  0  0  0  0  0  0  0
  148.4916  140.9834  154.8304 N   0  0  0  0  0  0  0  0  0  0  0  0
  149.6722  141.4154  155.2774 C   0  0  0  0  0  0  0  0  0  0  0  0
  150.5594  140.4519  155.5995 N   0  0  0  0  0  0  0  0  0  0  0  0
  151.9077  140.6471  156.1082 C   0  0  0  0  0  0  0  0  0  0  0  0
  151.9879  140.4988  157.6400 C   0  0  1  0  0  0  0  0  0  0  0  0
  153.0935  139.6851  157.9827 O   0  0  0  0  0  0  0  0  0  0  0  0
  152.0325  141.8562  158.3232 C   0  0  0  0  0  0  0  0  0  0  0  0
  151.8248  143.0440  157.5872 C   0  0  0  0  0  0  0  0  0  0  0  0
  151.8571  144.2945  158.2349 C   0  0  0  0  0  0  0  0  0  0  0  0
  152.0940  144.3645  159.6212 C   0  0  0  0  0  0  0  0  0  0  0  0
  152.2970  143.1833  160.3603 C   0  0  0  0  0  0  0  0  0  0  0  0
  152.5203  143.2491  161.6940 F   0  0  0  0  0  0  0  0  0  0  0  0
  152.2655  141.9329  159.7131 C   0  0  0  0  0  0  0  0  0  0  0  0
  147.7487  138.5679  154.5285 N   0  0  0  0  0  0  0  0  0  0  0  0
  146.4292  138.9702  154.0327 C   0  0  0  0  0  0  0  0  0  0  0  0
  148.1054  137.2475  154.6647 C   0  0  0  0  0  0  0  0  0  0  0  0
  147.3123  136.3478  154.3745 O   0  0  0  0  0  0  0  0  0  0  0  0
  150.7105  135.3189  155.6555 H   0  0  0  0  0  0  0  0  0  0  0  0
  149.6583  135.0304  154.2891 H   0  0  0  0  0  0  0  0  0  0  0  0
  149.0119  135.0211  155.9311 H   0  0  0  0  0  0  0  0  0  0  0  0
  149.9003  142.4671  155.3724 H   0  0  0  0  0  0  0  0  0  0  0  0
  152.5729  139.9320  155.6216 H   0  0  0  0  0  0  0  0  0  0  0  0
  152.2500  141.6354  155.8005 H   0  0  0  0  0  0  0  0  0  0  0  0
  151.0995  139.9738  157.9936 H   0  0  0  0  0  0  0  0  0  0  0  0
  152.9442  138.8173  157.6396 H   0  0  0  0  0  0  0  0  0  0  0  0
  151.6368  143.0003  156.5243 H   0  0  0  0  0  0  0  0  0  0  0  0
  151.6978  145.2000  157.6683 H   0  0  0  0  0  0  0  0  0  0  0  0
  152.1175  145.3233  160.1179 H   0  0  0  0  0  0  0  0  0  0  0  0
  152.4181  141.0317  160.2893 H   0  0  0  0  0  0  0  0  0  0  0  0
  145.7959  138.1420  153.7135 H   0  0  0  0  0  0  0  0  0  0  0  0
  146.5408  139.6362  153.1764 H   0  0  0  0  0  0  0  0  0  0  0  0
  145.8909  139.5129  154.8103 H   0  0  0  0  0  0  0  0  0  0  0  0
  1  2  1  0  0  0  0
  1 24  1  0  0  0  0
  1 25  1  0  0  0  0
  1 26  1  0  0  0  0
  2 22  1  0  0  0  0
  2  3  1  0  0  0  0
  3  4  2  0  0  0  0
  3  5  1  0  0  0  0
  5  9  1  0  0  0  0
  5  6  2  0  0  0  0
  6  7  1  0  0  0  0
  6 20  1  0  0  0  0
  7  8  2  0  0  0  0
  8  9  1  0  0  0  0
  8 27  1  0  0  0  0
  9 10  1  0  0  0  0
 10 11  1  0  0  0  0
 10 28  1  0  0  0  0
 10 29  1  0  0  0  0
 11 12  1  0  0  0  0
 11 13  1  0  0  0  0
 11 30  1  0  0  0  0
 12 31  1  0  0  0  0
 13 19  1  0  0  0  0
 13 14  2  0  0  0  0
 14 15  1  0  0  0  0
 14 32  1  0  0  0  0
 15 16  2  0  0  0  0
 15 33  1  0  0  0  0
 16 17  1  0  0  0  0
 16 34  1  0  0  0  0
 17 18  1  0  0  0  0
 17 19  2  0  0  0  0
 19 35  1  0  0  0  0
 20 21  1  0  0  0  0
 20 22  1  0  0  0  0
 21 36  1  0  0  0  0
 21 37  1  0  0  0  0
 21 38  1  0  0  0  0
 22 23  2  0  0  0  0
M  END
> <s_m_source_file>
AV-unprocessed.smi

> <i_m_source_file_index>
2077

> <i_lp_mmshare_version>
43012

> <i_f3d_flags>
0

> <s_epik_input>
Tz1jMW4oW0NIM10pYyg9TyluKFtDSDNdKWMoYzEyKW5bY0hdbjJbQ0gyXVtDQEhdKFtPSF0pYzNbY0hdW2NIXVtjSF1jKEYpW2NIXTM=

> <s_epik_cmdline>
J2VwaWtfcHl0aG9uJywgJy1waCcsICc3LjAnLCAnLXRuJywgJzgnLCAnLW1hJywgJzIwMCcsICctbWV0YWxfYmluZGluZycsICctaW1hZScsICc8aW5maWxlLm1hZT4nLCAnLW9tYWUnLCAnPG91dGZpbGUubWFlPic=

> <r_lp_tautomer_probability>
1

> <r_epik_Ionization_Penalty>
1.5338e-06

> <r_epik_Ionization_Penalty_Charging>
3.74189e-09

> <r_epik_Ionization_Penalty_Neutral>
1.53006e-06

> <r_epik_State_Penalty>
-0

> <r_epik_Charging_Adjusted_Penalty>
3.74189e-09

> <i_epik_Tot_Q>
0

> <i_epik_Tot_abs_Q>
0

> <r_epik_Metal_State_Penalty>
-0

> <b_epik_Metal_Only>
0

> <s_lp_Force_Field>
OPLS_2005

> <r_lp_Energy>
35.2463

> <b_lp_Chiralities_Consistent>
1

> <s_lp_Variant>
AV-unprocessed.smi:2077-2

> <Gold.Version>
5.8.1

> <Gold.Id.Protein>
6NUR|6NUR_protein|mol2

> <Gold.PLP.Fitness>
42.6091

> <Gold.PLP.PLP>
-38.7837

> <Gold.PLP.part.hbond>
-1.0000

> <Gold.PLP.part.metal>
0.0000

> <Gold.PLP.part.buried>
-5.9686

> <Gold.PLP.part.nonpolar>
-32.5967

> <Gold.PLP.part.repulsive>
0.3506

> <Gold.PLP.ligand.clash>
0.0000

> <Gold.PLP.ligand.torsion>
1.0987

> <Gold.PLP.Chemscore.Hbond>
1.0000

> <Gold.PLP.Chemscore.CHOScore>
1.0000

> <Gold.PLP.Chemscore.Metal>
0.0000

> <Gold.Chemscore.Hbonds>
donor molecule, donor type, donor heavy atom, donor atom, acceptor molecule, acceptor atom, score
      P1  H  7997  8009       L1    12  0.85
      L1  C     8    27       P1  8028  1.00

> <Gold.PLP.Chemscore.Internal.Correction>
0.0227

> <Gold.Rescore>
     Score         DG    S(hbond)    S(metal)    S(lipo)     H(rot)  DE(clash)    DE(int)     intcor
     11.73     -12.87       0.89        0.00      86.77       2.24       0.00       1.13       ----

> <Gold.Chemscore.Fitness>
11.7348

> <Gold.Chemscore.DG>
-12.8690

> <Gold.Chemscore.ZeroCoef>
-5.4800

> <Gold.Chemscore.Hbond>
0.8879

> <Gold.Chemscore.Metal>
0.0000

> <Gold.Chemscore.Lipo>
86.7702

> <Gold.Chemscore.Internal_Hbond>
0.0000

> <Gold.Chemscore.DEClash>
0.0015

> <Gold.Chemscore.DEInternal>
1.1327

> <Gold.Chemscore.Rot>
2.2377

> <Gold.Chemscore.Internal.Correction>
   9.000000E+99

> <Gold.Chemscore.Hbonds>
donor molecule, donor type, donor heavy atom, donor atom, acceptor molecule, acceptor atom, score
      P1  H  7997  8009       L1    12  0.13

> <Gold.Chemscore.Hbond.Weighted>
-2.9655

> <Gold.Chemscore.Metal.Weighted>
-0.0000

> <Gold.Chemscore.Lipo.Weighted>
-10.1521

> <Gold.Chemscore.Internal_Hbond.Weighted>
0.0000

> <Gold.Chemscore.DEClash.Weighted>
0.0015

> <Gold.Chemscore.DEInternal.Weighted>
1.1327

> <Gold.Chemscore.Rot.Weighted>
5.7286

> <Gold.Chemscore.Internal.Correction.Weighted>
   9.000000E+99

> <Gold.Protein.RotatedTorsions>
[ 6907 6896 6895 6894 ] final    6.65 input  -60.11 | X-H torsion
[ 7974 7965 7964 7962 ] final  -86.70 input  175.53 | X-H torsion
[ 8008 7997 7996 7995 ] final  154.27 input   59.86 | X-H torsion
[ 10167 10162 10161 10158 ] final   77.46 input  -65.29 | X-H torsion
[ 10718 10713 10712 10709 ] final -136.68 input   66.30 | X-H torsion
[ 10763 10752 10751 10750 ] final   58.24 input  -60.55 | X-H torsion
[ 11005 11000 10999 10996 ] final -166.03 input  -57.11 | X-H torsion

> <Gold.Protein.ActiveResidues>
 VAL166  LYS551  ARG553  GLY616  TRP617  ASP618  TYR619  PRO620  LYS621  CYS622 
 ASP623  PHE694  ASN695  SER759  ASP760  ASP761  ALA762  ILE779  LEU786  VAL792 
 PHE793  MET794  SER795  GLU796  ALA797  LYS798  CYS799  TRP800  GLU811  SER814 

> <Gold.Protein.RotatedAtoms>
  151.6771  135.0967  160.0208 H   0  0  0  0  0  0  0  0  0  0  0  0  # atno 6907 bound_to 6896
  152.3857  133.6604  159.6205 H   0  0  0  0  0  0  0  0  0  0  0  0  # atno 6908 bound_to 6896
  150.7783  133.8956  159.3367 H   0  0  0  0  0  0  0  0  0  0  0  0  # atno 6909 bound_to 6896
  145.4763  140.9558  143.1889 H   0  0  0  0  0  0  0  0  0  0  0  0  # atno 7974 bound_to 7965
  156.2539  140.1971  156.6620 H   0  0  0  0  0  0  0  0  0  0  0  0  # atno 8008 bound_to 7997
  154.6457  140.0578  156.9923 H   0  0  0  0  0  0  0  0  0  0  0  0  # atno 8009 bound_to 7997
  155.1495  140.3250  155.4437 H   0  0  0  0  0  0  0  0  0  0  0  0  # atno 8010 bound_to 7997
  139.9813  144.5824  150.7898 H   0  0  0  0  0  0  0  0  0  0  0  0  # atno 10167 bound_to 10162
  156.2797  130.7313  151.1307 H   0  0  0  0  0  0  0  0  0  0  0  0  # atno 10718 bound_to 10713
  152.9866  135.5614  154.5520 H   0  0  0  0  0  0  0  0  0  0  0  0  # atno 10763 bound_to 10752
  154.4955  135.2795  155.1465 H   0  0  0  0  0  0  0  0  0  0  0  0  # atno 10764 bound_to 10752
  154.2916  135.6325  153.5441 H   0  0  0  0  0  0  0  0  0  0  0  0  # atno 10765 bound_to 10752
  140.5690  134.5257  157.5158 H   0  0  0  0  0  0  0  0  0  0  0  0  # atno 11005 bound_to 11000
  144.7915  139.6319  143.7111 LP  0  0  0  0  0  0  0  0  0  0  0  0  # atno 17320 bound_to 7965
  146.2367  139.5919  142.9519 LP  0  0  0  0  0  0  0  0  0  0  0  0  # atno 17321 bound_to 7965
  140.7488  143.2928  151.3285 LP  0  0  0  0  0  0  0  0  0  0  0  0  # atno 17342 bound_to 10162
  139.6408  144.0544  152.2552 LP  0  0  0  0  0  0  0  0  0  0  0  0  # atno 17343 bound_to 10162
  157.7310  131.0611  150.5697 LP  0  0  0  0  0  0  0  0  0  0  0  0  # atno 17370 bound_to 10713
  156.5802  130.4302  149.5981 LP  0  0  0  0  0  0  0  0  0  0  0  0  # atno 17371 bound_to 10713
  139.9371  134.7855  156.0775 LP  0  0  0  0  0  0  0  0  0  0  0  0  # atno 17394 bound_to 11000
  141.1068  133.6657  156.2882 LP  0  0  0  0  0  0  0  0  0  0  0  0  # atno 17395 bound_to 11000

$$$$
