AV-unprocessed.smi:1208|AV-procd|sdf|5064|dock7
  -GOLD-   22720 4103D 1   1.00000     0.00000
 Structure written by MMmdl.
 35 36  0  0  0  0  0  0  0  0  2 V2000
  153.4666  141.2505  160.4437 C   0  0  0  0  0  0  0  0  0  0  0  0
  153.1013  142.2836  159.3654 C   0  0  1  0  0  0  0  0  0  0  0  0
  151.9955  141.8003  158.5454 N   0  0  0  0  0  0  0  0  0  0  0  0
  151.9621  140.6619  157.8351 C   0  0  0  0  0  0  0  0  0  0  0  0
  152.8663  139.8272  157.8612 O   0  0  0  0  0  0  0  0  0  0  0  0
  150.7399  140.4305  156.9292 C   0  0  0  0  0  0  0  0  0  0  0  0
  150.8061  139.1983  156.1241 N   0  0  0  0  0  0  0  0  0  0  0  0
  149.8030  138.1997  156.4825 N   0  5  0  0  0  0  0  0  0  0  0  0
  149.7385  137.0411  155.7742 C   0  0  0  0  0  0  0  0  0  0  0  0
  148.9098  136.1639  156.0053 O   0  0  0  0  0  0  0  0  0  0  0  0
  150.6963  136.8419  154.6992 C   0  0  0  0  0  0  0  0  0  0  0  0
  151.6198  137.7757  154.3977 C   0  0  0  0  0  0  0  0  0  0  0  0
  151.7155  139.0383  155.1200 C   0  0  0  0  0  0  0  0  0  0  0  0
  152.5448  139.9029  154.8377 O   0  0  0  0  0  0  0  0  0  0  0  0
  152.7428  143.6579  159.9708 C   0  0  1  0  0  0  0  0  0  0  0  0
  152.5003  144.7757  158.9411 C   0  0  0  0  0  0  0  0  0  0  0  0
  151.3173  145.5235  159.5175 C   0  0  0  0  0  0  0  0  0  0  0  0
  150.5399  144.3979  160.1836 C   0  0  0  0  0  0  0  0  0  0  0  0
  151.5472  143.5710  160.7491 O   0  0  0  0  0  0  0  0  0  0  0  0
  154.2973  141.6010  161.0562 H   0  0  0  0  0  0  0  0  0  0  0  0
  153.7667  140.3024  159.9965 H   0  0  0  0  0  0  0  0  0  0  0  0
  152.6240  141.0528  161.1071 H   0  0  0  0  0  0  0  0  0  0  0  0
  153.9735  142.4257  158.7251 H   0  0  0  0  0  0  0  0  0  0  0  0
  151.1932  142.4103  158.4701 H   0  0  0  0  0  0  0  0  0  0  0  0
  149.8399  140.4203  157.5463 H   0  0  0  0  0  0  0  0  0  0  0  0
  150.6350  141.3004  156.2787 H   0  0  0  0  0  0  0  0  0  0  0  0
  150.6674  135.9246  154.1301 H   0  0  0  0  0  0  0  0  0  0  0  0
  152.3117  137.5856  153.5910 H   0  0  0  0  0  0  0  0  0  0  0  0
  153.5385  143.9733  160.6470 H   0  0  0  0  0  0  0  0  0  0  0  0
  153.3734  145.4135  158.8017 H   0  0  0  0  0  0  0  0  0  0  0  0
  152.2299  144.3728  157.9646 H   0  0  0  0  0  0  0  0  0  0  0  0
  151.6524  146.2433  160.2653 H   0  0  0  0  0  0  0  0  0  0  0  0
  150.7358  146.0531  158.7624 H   0  0  0  0  0  0  0  0  0  0  0  0
  149.8387  144.7540  160.9380 H   0  0  0  0  0  0  0  0  0  0  0  0
  149.9835  143.8240  159.4422 H   0  0  0  0  0  0  0  0  0  0  0  0
  1  2  1  0  0  0  0
  1 20  1  0  0  0  0
  1 21  1  0  0  0  0
  1 22  1  0  0  0  0
  2  3  1  0  0  0  0
  2 15  1  0  0  0  0
  2 23  1  0  0  0  0
  3  4  1  0  0  0  0
  3 24  1  0  0  0  0
  4  5  2  0  0  0  0
  4  6  1  0  0  0  0
  6 25  1  0  0  0  0
  6 26  1  0  0  0  0
  6  7  1  0  0  0  0
  7  8  1  0  0  0  0
  7 13  1  0  0  0  0
  8  9  1  0  0  0  0
  9 10  2  0  0  0  0
  9 11  1  0  0  0  0
 11 27  1  0  0  0  0
 11 12  2  0  0  0  0
 12 28  1  0  0  0  0
 12 13  1  0  0  0  0
 13 14  2  0  0  0  0
 15 19  1  0  0  0  0
 15 16  1  0  0  0  0
 15 29  1  0  0  0  0
 16 17  1  0  0  0  0
 16 30  1  0  0  0  0
 16 31  1  0  0  0  0
 17 18  1  0  0  0  0
 17 32  1  0  0  0  0
 17 33  1  0  0  0  0
 18 19  1  0  0  0  0
 18 34  1  0  0  0  0
 18 35  1  0  0  0  0
M  CHG  1   8  -1
M  END
> <s_m_source_file>
AV-unprocessed.smi

> <i_m_source_file_index>
1208

> <i_lp_mmshare_version>
43012

> <i_f3d_flags>
0

> <s_epik_input>
TzFbQ0gyXVtDSDJdW0NIMl1bQ0BIXTFbQ0BIXShbQ0gzXSlbTkhdQyg9TylbQ0gyXW4yW25IXWMoPU8pW2NIXVtjSF1jMj1P

> <s_epik_cmdline>
J2VwaWtfcHl0aG9uJywgJy1waCcsICc3LjAnLCAnLXRuJywgJzgnLCAnLW1hJywgJzIwMCcsICctbWV0YWxfYmluZGluZycsICctaW1hZScsICc8aW5maWxlLm1hZT4nLCAnLW9tYWUnLCAnPG91dGZpbGUubWFlPic=

> <r_lp_tautomer_probability>
1

> <r_epik_Ionization_Penalty>
0.0975494

> <r_epik_Ionization_Penalty_Charging>
0.0975494

> <r_epik_Ionization_Penalty_Neutral>
2.30132e-08

> <r_epik_State_Penalty>
0.034345

> <r_epik_Charging_Adjusted_Penalty>
0.131894

> <i_epik_Tot_Q>
-1

> <i_epik_Tot_abs_Q>
1

> <r_epik_Metal_State_Penalty>
0.034345

> <b_epik_Metal_Only>
0

> <s_lp_Force_Field>
OPLS_2005

> <r_lp_Energy>
31.4648

> <b_lp_Chiralities_Consistent>
1

> <s_lp_Variant>
AV-unprocessed.smi:1208-4

> <Gold.Version>
5.8.1

> <Gold.Id.Protein>
6NUR|6NUR_protein|mol2

> <Gold.PLP.Fitness>
43.7948

> <Gold.PLP.PLP>
-39.2518

> <Gold.PLP.part.hbond>
-2.6835

> <Gold.PLP.part.metal>
0.0000

> <Gold.PLP.part.buried>
-5.2161

> <Gold.PLP.part.nonpolar>
-32.0502

> <Gold.PLP.part.repulsive>
0.2757

> <Gold.PLP.ligand.clash>
0.0000

> <Gold.PLP.ligand.torsion>
0.0780

> <Gold.PLP.Chemscore.Hbond>
1.5600

> <Gold.PLP.Chemscore.CHOScore>
0.0000

> <Gold.PLP.Chemscore.Metal>
0.0000

> <Gold.Chemscore.Hbonds>
donor molecule, donor type, donor heavy atom, donor atom, acceptor molecule, acceptor atom, score
      P1  H  7989  7998       L1    14  0.56
      P1  H  7997  8008       L1     5  1.00

> <Gold.PLP.Chemscore.Internal.Correction>
0.0190

> <Gold.Rescore>
     Score         DG    S(hbond)    S(metal)    S(lipo)     H(rot)  DE(clash)    DE(int)     intcor
     16.91     -17.13       1.95        0.00      87.53       1.99       0.01       0.20       ----

> <Gold.Chemscore.Fitness>
16.9141

> <Gold.Chemscore.DG>
-17.1271

> <Gold.Chemscore.ZeroCoef>
-5.4800

> <Gold.Chemscore.Hbond>
1.9493

> <Gold.Chemscore.Metal>
0.0000

> <Gold.Chemscore.Lipo>
87.5308

> <Gold.Chemscore.Internal_Hbond>
0.0000

> <Gold.Chemscore.DEClash>
0.0103

> <Gold.Chemscore.DEInternal>
0.2027

> <Gold.Chemscore.Rot>
1.9940

> <Gold.Chemscore.Internal.Correction>
   9.000000E+99

> <Gold.Chemscore.Hbonds>
donor molecule, donor type, donor heavy atom, donor atom, acceptor molecule, acceptor atom, score
      P1  H  7989  7998       L1    14  0.22
      P1  H  7997  8008       L1     5  0.98

> <Gold.Chemscore.Hbond.Weighted>
-6.5107

> <Gold.Chemscore.Metal.Weighted>
-0.0000

> <Gold.Chemscore.Lipo.Weighted>
-10.2411

> <Gold.Chemscore.Internal_Hbond.Weighted>
0.0000

> <Gold.Chemscore.DEClash.Weighted>
0.0103

> <Gold.Chemscore.DEInternal.Weighted>
0.2027

> <Gold.Chemscore.Rot.Weighted>
5.1047

> <Gold.Chemscore.Internal.Correction.Weighted>
   9.000000E+99

> <Gold.Protein.RotatedTorsions>
[ 6907 6896 6895 6894 ] final -177.10 input  -60.11 | X-H torsion
[ 7974 7965 7964 7962 ] final  -99.69 input  175.53 | X-H torsion
[ 8008 7997 7996 7995 ] final  -70.88 input   59.86 | X-H torsion
[ 10167 10162 10161 10158 ] final  128.53 input  -65.29 | X-H torsion
[ 10718 10713 10712 10709 ] final  166.47 input   66.30 | X-H torsion
[ 10763 10752 10751 10750 ] final   96.87 input  -60.55 | X-H torsion
[ 11005 11000 10999 10996 ] final   79.51 input  -57.11 | X-H torsion

> <Gold.Protein.ActiveResidues>
 VAL166  LYS551  ARG553  GLY616  TRP617  ASP618  TYR619  PRO620  LYS621  CYS622 
 ASP623  PHE694  ASN695  SER759  ASP760  ASP761  ALA762  ILE779  LEU786  VAL792 
 PHE793  MET794  SER795  GLU796  ALA797  LYS798  CYS799  TRP800  GLU811  SER814 

> <Gold.Protein.RotatedAtoms>
  151.6155  133.3343  159.3076 H   0  0  0  0  0  0  0  0  0  0  0  0  # atno 6907 bound_to 6896
  150.8134  134.7305  159.6719 H   0  0  0  0  0  0  0  0  0  0  0  0  # atno 6908 bound_to 6896
  152.4230  134.5925  160.0029 H   0  0  0  0  0  0  0  0  0  0  0  0  # atno 6909 bound_to 6896
  145.3043  140.9385  143.2806 H   0  0  0  0  0  0  0  0  0  0  0  0  # atno 7974 bound_to 7965
  154.5046  140.0826  156.7867 H   0  0  0  0  0  0  0  0  0  0  0  0  # atno 8008 bound_to 7997
  155.3924  140.3433  155.4234 H   0  0  0  0  0  0  0  0  0  0  0  0  # atno 8009 bound_to 7997
  156.1499  140.1555  156.8774 H   0  0  0  0  0  0  0  0  0  0  0  0  # atno 8010 bound_to 7997
  139.5522  144.6822  151.4288 H   0  0  0  0  0  0  0  0  0  0  0  0  # atno 10167 bound_to 10162
  157.0654  131.0351  151.2631 H   0  0  0  0  0  0  0  0  0  0  0  0  # atno 10718 bound_to 10713
  153.2701  135.4203  155.0979 H   0  0  0  0  0  0  0  0  0  0  0  0  # atno 10763 bound_to 10752
  154.8453  135.3470  154.6256 H   0  0  0  0  0  0  0  0  0  0  0  0  # atno 10764 bound_to 10752
  153.6676  135.7045  153.5215 H   0  0  0  0  0  0  0  0  0  0  0  0  # atno 10765 bound_to 10752
  139.9170  134.7848  156.1788 H   0  0  0  0  0  0  0  0  0  0  0  0  # atno 11005 bound_to 11000
  144.9068  139.4579  143.6606 LP  0  0  0  0  0  0  0  0  0  0  0  0  # atno 17320 bound_to 7965
  146.3141  139.7853  142.8997 LP  0  0  0  0  0  0  0  0  0  0  0  0  # atno 17321 bound_to 7965
  140.6788  143.8130  150.7093 LP  0  0  0  0  0  0  0  0  0  0  0  0  # atno 17342 bound_to 10162
  140.1576  143.4303  152.2089 LP  0  0  0  0  0  0  0  0  0  0  0  0  # atno 17343 bound_to 10162
  157.4921  130.7828  149.7518 LP  0  0  0  0  0  0  0  0  0  0  0  0  # atno 17370 bound_to 10713
  155.9966  130.3905  150.2773 LP  0  0  0  0  0  0  0  0  0  0  0  0  # atno 17371 bound_to 10713
  141.0655  133.6821  156.2036 LP  0  0  0  0  0  0  0  0  0  0  0  0  # atno 17394 bound_to 11000
  140.6592  134.4986  157.5582 LP  0  0  0  0  0  0  0  0  0  0  0  0  # atno 17395 bound_to 11000

$$$$
