AV-unprocessed.smi:325|AV-procd|sdf|2343|dock1
  -GOLD-   2262022253D 1   1.00000     0.00000
 Structure written by MMmdl.
 45 46  0  0  0  0  0  0  0  0  2 V2000
  149.4873  140.9925  154.8924 C   0  0  0  0  0  0  0  0  0  0  0  0
  150.6377  140.4180  155.6994 C   0  0  0  0  0  0  0  0  0  0  0  0
  151.0192  141.1535  156.8314 N   0  0  0  0  0  0  0  0  0  0  0  0
  151.9945  140.7397  157.5836 C   0  0  0  0  0  0  0  0  0  0  0  0
  152.4133  141.4525  158.7119 N   0  0  0  0  0  0  0  0  0  0  0  0
  151.7571  142.7046  159.0907 C   0  0  0  0  0  0  0  0  0  0  0  0
  152.6894  143.5957  159.9280 C   0  0  0  0  0  0  0  0  0  0  0  0
  153.1461  142.8773  161.0656 O   0  0  0  0  0  0  0  0  0  0  0  0
  153.8912  141.7286  160.6850 C   0  0  0  0  0  0  0  0  0  0  0  0
  152.9996  140.7756  159.8719 C   0  0  0  0  0  0  0  0  0  0  0  0
  152.6950  139.5743  157.3139 N   0  5  0  0  0  0  0  0  0  0  0  0
  152.3761  138.8064  156.2338 C   0  0  0  0  0  0  0  0  0  0  0  0
  152.9730  137.7615  155.9777 O   0  0  0  0  0  0  0  0  0  0  0  0
  151.2748  139.2603  155.3671 C   0  0  0  0  0  0  0  0  0  0  0  0
  150.9185  138.4299  154.1360 C   0  0  0  0  0  0  0  0  0  0  0  0
  149.5074  137.8195  154.2361 C   0  0  0  0  0  0  0  0  0  0  0  0
  149.4449  136.5564  155.1002 C   0  0  0  0  0  0  0  0  0  0  0  0
  149.6502  136.6067  156.3135 O   0  0  0  0  0  0  0  0  0  0  0  0
  149.1512  135.4191  154.4508 N   0  0  0  0  0  0  0  0  0  0  0  0
  149.0336  134.0992  155.0637 C   0  0  0  0  0  0  0  0  0  0  0  0
  150.3094  133.7891  155.8574 C   0  0  0  0  0  0  0  0  0  0  0  0
  148.7584  133.0330  153.9916 C   0  0  0  0  0  0  0  0  0  0  0  0
  148.7192  140.2374  154.7241 H   0  0  0  0  0  0  0  0  0  0  0  0
  149.8437  141.3487  153.9258 H   0  0  0  0  0  0  0  0  0  0  0  0
  149.0221  141.8322  155.4104 H   0  0  0  0  0  0  0  0  0  0  0  0
  151.4441  143.2571  158.2039 H   0  0  0  0  0  0  0  0  0  0  0  0
  150.8543  142.4719  159.6567 H   0  0  0  0  0  0  0  0  0  0  0  0
  153.5378  143.9373  159.3327 H   0  0  0  0  0  0  0  0  0  0  0  0
  152.1567  144.4860  160.2620 H   0  0  0  0  0  0  0  0  0  0  0  0
  154.7698  142.0234  160.1089 H   0  0  0  0  0  0  0  0  0  0  0  0
  154.2532  141.2282  161.5830 H   0  0  0  0  0  0  0  0  0  0  0  0
  152.1902  140.3998  160.4987 H   0  0  0  0  0  0  0  0  0  0  0  0
  153.5926  139.9094  159.5783 H   0  0  0  0  0  0  0  0  0  0  0  0
  150.9906  139.0444  153.2390 H   0  0  0  0  0  0  0  0  0  0  0  0
  151.6653  137.6454  154.0033 H   0  0  0  0  0  0  0  0  0  0  0  0
  148.8130  138.5505  154.6520 H   0  0  0  0  0  0  0  0  0  0  0  0
  149.1448  137.5779  153.2360 H   0  0  0  0  0  0  0  0  0  0  0  0
  148.9941  135.4744  153.4550 H   0  0  0  0  0  0  0  0  0  0  0  0
  148.1996  134.1064  155.7678 H   0  0  0  0  0  0  0  0  0  0  0  0
  150.2387  132.8178  156.3478 H   0  0  0  0  0  0  0  0  0  0  0  0
  150.4813  134.5363  156.6330 H   0  0  0  0  0  0  0  0  0  0  0  0
  151.1867  133.7714  155.2097 H   0  0  0  0  0  0  0  0  0  0  0  0
  148.6577  132.0442  154.4400 H   0  0  0  0  0  0  0  0  0  0  0  0
  149.5670  132.9864  153.2615 H   0  0  0  0  0  0  0  0  0  0  0  0
  147.8345  133.2429  153.4518 H   0  0  0  0  0  0  0  0  0  0  0  0
  1  2  1  0  0  0  0
  1 23  1  0  0  0  0
  1 24  1  0  0  0  0
  1 25  1  0  0  0  0
  2 14  2  0  0  0  0
  2  3  1  0  0  0  0
  3  4  2  0  0  0  0
  4  5  1  0  0  0  0
  4 11  1  0  0  0  0
  5 10  1  0  0  0  0
  5  6  1  0  0  0  0
  6  7  1  0  0  0  0
  6 26  1  0  0  0  0
  6 27  1  0  0  0  0
  7  8  1  0  0  0  0
  7 28  1  0  0  0  0
  7 29  1  0  0  0  0
  8  9  1  0  0  0  0
  9 10  1  0  0  0  0
  9 30  1  0  0  0  0
  9 31  1  0  0  0  0
 10 32  1  0  0  0  0
 10 33  1  0  0  0  0
 11 12  1  0  0  0  0
 12 13  2  0  0  0  0
 12 14  1  0  0  0  0
 14 15  1  0  0  0  0
 15 16  1  0  0  0  0
 15 34  1  0  0  0  0
 15 35  1  0  0  0  0
 16 17  1  0  0  0  0
 16 36  1  0  0  0  0
 16 37  1  0  0  0  0
 17 18  2  0  0  0  0
 17 19  1  0  0  0  0
 19 20  1  0  0  0  0
 19 38  1  0  0  0  0
 20 21  1  0  0  0  0
 20 22  1  0  0  0  0
 20 39  1  0  0  0  0
 21 40  1  0  0  0  0
 21 41  1  0  0  0  0
 21 42  1  0  0  0  0
 22 43  1  0  0  0  0
 22 44  1  0  0  0  0
 22 45  1  0  0  0  0
M  CHG  1  11  -1
M  END
> <s_m_source_file>
AV-unprocessed.smi

> <i_m_source_file_index>
325

> <i_lp_mmshare_version>
43012

> <i_f3d_flags>
0

> <s_epik_input>
W0NIMl0xW0NIMl1PW0NIMl1bQ0gyXU4xYyhuYzJbQ0gzXSlbbkhdYyg9TyljMltDSDJdW0NIMl1DKD1PKVtOSF1bQ0hdKFtDSDNdKVtDSDNd

> <s_epik_cmdline>
J2VwaWtfcHl0aG9uJywgJy1waCcsICc3LjAnLCAnLXRuJywgJzgnLCAnLW1hJywgJzIwMCcsICctbWV0YWxfYmluZGluZycsICctaW1hZScsICc8aW5maWxlLm1hZT4nLCAnLW9tYWUnLCAnPG91dGZpbGUubWFlPic=

> <r_lp_tautomer_probability>
1

> <r_epik_Ionization_Penalty>
5.05468

> <r_epik_Ionization_Penalty_Charging>
1.01174e-07

> <r_epik_Ionization_Penalty_Neutral>
5.05468

> <r_epik_State_Penalty>
2.58307

> <r_epik_Charging_Adjusted_Penalty>
2.58307

> <i_epik_Tot_Q>
-1

> <i_epik_Tot_abs_Q>
1

> <r_epik_Metal_State_Penalty>
0.123593

> <b_epik_Metal_Only>
0

> <s_lp_Force_Field>
OPLS_2005

> <r_lp_Energy>
24.1859

> <b_lp_Chiralities_Consistent>
1

> <s_lp_Variant>
AV-unprocessed.smi:325-3

> <Gold.Version>
5.8.1

> <Gold.Id.Protein>
6NUR|6NUR_protein|mol2

> <Gold.PLP.Fitness>
49.1888

> <Gold.PLP.PLP>
-40.6903

> <Gold.PLP.part.hbond>
-2.7422

> <Gold.PLP.part.metal>
0.0000

> <Gold.PLP.part.buried>
-1.7766

> <Gold.PLP.part.nonpolar>
-35.1562

> <Gold.PLP.part.repulsive>
0.1111

> <Gold.PLP.ligand.clash>
0.0000

> <Gold.PLP.ligand.torsion>
0.3758

> <Gold.PLP.Chemscore.Hbond>
3.0000

> <Gold.PLP.Chemscore.CHOScore>
0.0000

> <Gold.PLP.Chemscore.Metal>
0.0000

> <Gold.Chemscore.Hbonds>
donor molecule, donor type, donor heavy atom, donor atom, acceptor molecule, acceptor atom, score
      L1  H    19    38       P1  7948  1.00
      P1  H  7997  8008       L1    11  2.00

> <Gold.PLP.Chemscore.Internal.Correction>
0.2501

> <Gold.Rescore>
     Score         DG    S(hbond)    S(metal)    S(lipo)     H(rot)  DE(clash)    DE(int)     intcor
     15.39     -16.84       1.43        0.00      92.97       1.67       1.06       0.39       ----

> <Gold.Chemscore.Fitness>
15.3897

> <Gold.Chemscore.DG>
-16.8403

> <Gold.Chemscore.ZeroCoef>
-5.4800

> <Gold.Chemscore.Hbond>
1.4257

> <Gold.Chemscore.Metal>
0.0000

> <Gold.Chemscore.Lipo>
92.9726

> <Gold.Chemscore.Internal_Hbond>
0.0000

> <Gold.Chemscore.DEClash>
1.0573

> <Gold.Chemscore.DEInternal>
0.3933

> <Gold.Chemscore.Rot>
1.6717

> <Gold.Chemscore.Internal.Correction>
   9.000000E+99

> <Gold.Chemscore.Hbonds>
donor molecule, donor type, donor heavy atom, donor atom, acceptor molecule, acceptor atom, score
      L1  H    19    38       P1  7948  0.69
      P1  H  7997  8008       L1    11  0.17
      P1  H 10752 10765       L1    13  0.03

> <Gold.Chemscore.Hbond.Weighted>
-4.7619

> <Gold.Chemscore.Metal.Weighted>
-0.0000

> <Gold.Chemscore.Lipo.Weighted>
-10.8778

> <Gold.Chemscore.Internal_Hbond.Weighted>
0.0000

> <Gold.Chemscore.DEClash.Weighted>
1.0573

> <Gold.Chemscore.DEInternal.Weighted>
0.3933

> <Gold.Chemscore.Rot.Weighted>
4.2795

> <Gold.Chemscore.Internal.Correction.Weighted>
   9.000000E+99

> <Gold.Protein.RotatedTorsions>
[ 6907 6896 6895 6894 ] final -171.58 input  -60.11 | X-H torsion
[ 7974 7965 7964 7962 ] final  176.84 input  175.53 | X-H torsion
[ 8008 7997 7996 7995 ] final  -76.09 input   59.86 | X-H torsion
[ 10167 10162 10161 10158 ] final  166.06 input  -65.29 | X-H torsion
[ 10718 10713 10712 10709 ] final   13.97 input   66.30 | X-H torsion
[ 10763 10752 10751 10750 ] final -155.31 input  -60.55 | X-H torsion
[ 11005 11000 10999 10996 ] final -106.63 input  -57.11 | X-H torsion

> <Gold.Protein.ActiveResidues>
 VAL166  LYS551  ARG553  GLY616  TRP617  ASP618  TYR619  PRO620  LYS621  CYS622 
 ASP623  PHE694  ASN695  SER759  ASP760  ASP761  ALA762  ILE779  LEU786  VAL792 
 PHE793  MET794  SER795  GLU796  ALA797  LYS798  CYS799  TRP800  GLU811  SER814 

> <Gold.Protein.RotatedAtoms>
  151.5261  133.3457  159.2909 H   0  0  0  0  0  0  0  0  0  0  0  0  # atno 6907 bound_to 6896
  150.8622  134.7979  159.7102 H   0  0  0  0  0  0  0  0  0  0  0  0  # atno 6908 bound_to 6896
  152.4638  134.5132  159.9812 H   0  0  0  0  0  0  0  0  0  0  0  0  # atno 6909 bound_to 6896
  144.7178  140.0156  143.6440 H   0  0  0  0  0  0  0  0  0  0  0  0  # atno 7974 bound_to 7965
  154.5474  140.0733  156.8612 H   0  0  0  0  0  0  0  0  0  0  0  0  # atno 8008 bound_to 7997
  155.3059  140.3387  155.4227 H   0  0  0  0  0  0  0  0  0  0  0  0  # atno 8009 bound_to 7997
  156.1931  140.1693  156.8039 H   0  0  0  0  0  0  0  0  0  0  0  0  # atno 8010 bound_to 7997
  139.4917  144.4067  151.9347 H   0  0  0  0  0  0  0  0  0  0  0  0  # atno 10167 bound_to 10162
  157.0324  130.6198  149.5737 H   0  0  0  0  0  0  0  0  0  0  0  0  # atno 10718 bound_to 10713
  154.7796  135.3170  154.8018 H   0  0  0  0  0  0  0  0  0  0  0  0  # atno 10763 bound_to 10752
  153.8732  135.6842  153.4777 H   0  0  0  0  0  0  0  0  0  0  0  0  # atno 10764 bound_to 10752
  153.1429  135.4731  154.9460 H   0  0  0  0  0  0  0  0  0  0  0  0  # atno 10765 bound_to 10752
  141.0995  133.8910  157.1879 H   0  0  0  0  0  0  0  0  0  0  0  0  # atno 11005 bound_to 11000
  146.0222  139.3261  143.0806 LP  0  0  0  0  0  0  0  0  0  0  0  0  # atno 17320 bound_to 7965
  145.8554  140.9505  143.0728 LP  0  0  0  0  0  0  0  0  0  0  0  0  # atno 17321 bound_to 7965
  140.3508  144.3091  150.5950 LP  0  0  0  0  0  0  0  0  0  0  0  0  # atno 17342 bound_to 10162
  140.5487  143.2210  151.7964 LP  0  0  0  0  0  0  0  0  0  0  0  0  # atno 17343 bound_to 10162
  156.0065  130.5152  150.7847 LP  0  0  0  0  0  0  0  0  0  0  0  0  # atno 17370 bound_to 10713
  157.5167  131.0929  151.0130 LP  0  0  0  0  0  0  0  0  0  0  0  0  # atno 17371 bound_to 10713
  139.9841  135.0088  156.9821 LP  0  0  0  0  0  0  0  0  0  0  0  0  # atno 17394 bound_to 11000
  140.5058  134.1051  155.7260 LP  0  0  0  0  0  0  0  0  0  0  0  0  # atno 17395 bound_to 11000

$$$$
