AV-unprocessed.smi:2855|AV-procd|sdf|10990|dock8
  -GOLD-   2272015443D 1   1.00000     0.00000
 Structure written by MMmdl.
 46 47  0  0  0  0  0  0  0  0  2 V2000
  145.7065  136.9987  161.9439 C   0  0  0  0  0  0  0  0  0  0  0  0
  147.1809  136.5986  162.1305 C   0  0  1  0  0  0  0  0  0  0  0  0
  147.3520  135.3521  163.0160 C   0  0  0  0  0  0  0  0  0  0  0  0
  146.9249  134.0629  162.2971 C   0  0  0  0  0  0  0  0  0  0  0  0
  147.6827  133.8603  160.9630 C   0  0  1  0  0  0  0  0  0  0  0  0
  147.3279  132.5157  160.2588 C   0  0  0  0  0  0  0  0  0  0  0  0
  145.8703  132.4275  159.7690 C   0  0  0  0  0  0  0  0  0  0  0  0
  147.6850  131.2903  161.1181 C   0  0  0  0  0  0  0  0  0  0  0  0
  147.5214  135.1124  160.0537 C   0  0  2  0  0  0  0  0  0  0  0  0
  148.3551  135.0026  158.8569 N   0  0  0  0  0  0  0  0  0  0  0  0
  148.4759  135.9211  157.8859 C   0  0  0  0  0  0  0  0  0  0  0  0
  147.8556  136.9850  157.8757 O   0  0  0  0  0  0  0  0  0  0  0  0
  149.4268  135.5523  156.7387 C   0  0  0  0  0  0  0  0  0  0  0  0
  150.2999  136.6618  156.3221 N   0  0  0  0  0  0  0  0  0  0  0  0
  150.2078  137.1010  154.9897 C   0  0  0  0  0  0  0  0  0  0  0  0
  150.9686  138.1075  154.5191 C   0  0  0  0  0  0  0  0  0  0  0  0
  151.9075  138.7479  155.4318 C   0  0  0  0  0  0  0  0  0  0  0  0
  152.6123  139.6667  155.0184 O   0  0  0  0  0  0  0  0  0  0  0  0
  151.9572  138.2886  156.7164 N   0  5  0  0  0  0  0  0  0  0  0  0
  151.1765  137.2642  157.1814 C   0  0  0  0  0  0  0  0  0  0  0  0
  151.2373  136.8649  158.3448 O   0  0  0  0  0  0  0  0  0  0  0  0
  147.9205  136.4069  160.7934 C   0  0  0  0  0  0  0  0  0  0  0  0
  145.1323  136.2290  161.4287 H   0  0  0  0  0  0  0  0  0  0  0  0
  145.6223  137.9161  161.3607 H   0  0  0  0  0  0  0  0  0  0  0  0
  145.2267  137.1785  162.9064 H   0  0  0  0  0  0  0  0  0  0  0  0
  147.6590  137.4313  162.6482 H   0  0  0  0  0  0  0  0  0  0  0  0
  148.3986  135.2631  163.3099 H   0  0  0  0  0  0  0  0  0  0  0  0
  146.7875  135.4680  163.9419 H   0  0  0  0  0  0  0  0  0  0  0  0
  147.1017  133.2227  162.9675 H   0  0  0  0  0  0  0  0  0  0  0  0
  145.8499  134.0891  162.1216 H   0  0  0  0  0  0  0  0  0  0  0  0
  148.7430  133.8029  161.2160 H   0  0  0  0  0  0  0  0  0  0  0  0
  147.9579  132.4320  159.3736 H   0  0  0  0  0  0  0  0  0  0  0  0
  145.1632  132.4302  160.5981 H   0  0  0  0  0  0  0  0  0  0  0  0
  145.7069  131.5067  159.2084 H   0  0  0  0  0  0  0  0  0  0  0  0
  145.6127  133.2524  159.1059 H   0  0  0  0  0  0  0  0  0  0  0  0
  147.0500  131.2120  162.0003 H   0  0  0  0  0  0  0  0  0  0  0  0
  148.7220  131.3300  161.4525 H   0  0  0  0  0  0  0  0  0  0  0  0
  147.5623  130.3684  160.5490 H   0  0  0  0  0  0  0  0  0  0  0  0
  146.4734  135.2077  159.7701 H   0  0  0  0  0  0  0  0  0  0  0  0
  148.9020  134.1590  158.7672 H   0  0  0  0  0  0  0  0  0  0  0  0
  150.0337  134.6927  157.0302 H   0  0  0  0  0  0  0  0  0  0  0  0
  148.8238  135.2050  155.8987 H   0  0  0  0  0  0  0  0  0  0  0  0
  149.4847  136.5778  154.3814 H   0  0  0  0  0  0  0  0  0  0  0  0
  150.8848  138.4338  153.4930 H   0  0  0  0  0  0  0  0  0  0  0  0
  147.7514  137.2720  160.1503 H   0  0  0  0  0  0  0  0  0  0  0  0
  148.9936  136.3872  160.9914 H   0  0  0  0  0  0  0  0  0  0  0  0
  1  2  1  0  0  0  0
  1 23  1  0  0  0  0
  1 24  1  0  0  0  0
  1 25  1  0  0  0  0
  2 22  1  0  0  0  0
  2  3  1  0  0  0  0
  2 26  1  0  0  0  0
  3  4  1  0  0  0  0
  3 27  1  0  0  0  0
  3 28  1  0  0  0  0
  4  5  1  0  0  0  0
  4 29  1  0  0  0  0
  4 30  1  0  0  0  0
  5  6  1  0  0  0  0
  5  9  1  0  0  0  0
  5 31  1  0  0  0  0
  6  7  1  0  0  0  0
  6  8  1  0  0  0  0
  6 32  1  0  0  0  0
  7 33  1  0  0  0  0
  7 34  1  0  0  0  0
  7 35  1  0  0  0  0
  8 36  1  0  0  0  0
  8 37  1  0  0  0  0
  8 38  1  0  0  0  0
  9 10  1  0  0  0  0
  9 22  1  0  0  0  0
  9 39  1  0  0  0  0
 10 11  1  0  0  0  0
 10 40  1  0  0  0  0
 11 12  2  0  0  0  0
 11 13  1  0  0  0  0
 13 14  1  0  0  0  0
 13 41  1  0  0  0  0
 13 42  1  0  0  0  0
 14 20  1  0  0  0  0
 14 15  1  0  0  0  0
 15 16  2  0  0  0  0
 15 43  1  0  0  0  0
 16 17  1  0  0  0  0
 16 44  1  0  0  0  0
 17 18  2  0  0  0  0
 17 19  1  0  0  0  0
 19 20  1  0  0  0  0
 20 21  2  0  0  0  0
 22 45  1  0  0  0  0
 22 46  1  0  0  0  0
M  CHG  1  19  -1
M  END
> <s_m_source_file>
AV-unprocessed.smi

> <i_m_source_file_index>
2855

> <i_lp_mmshare_version>
43012

> <i_f3d_flags>
0

> <s_epik_input>
W0NIM11bQ0BASF0xW0NIMl1bQ0gyXVtDQEBIXShbQ0hdKFtDSDNdKVtDSDNdKVtDQEhdKFtDSDJdMSlbTkhdQyg9TylbQ0gyXW4yW2NIXVtjSF1jKD1PKVtuSF1jMj1P

> <s_epik_cmdline>
J2VwaWtfcHl0aG9uJywgJy1waCcsICc3LjAnLCAnLXRuJywgJzgnLCAnLW1hJywgJzIwMCcsICctbWV0YWxfYmluZGluZycsICctaW1hZScsICc8aW5maWxlLm1hZT4nLCAnLW9tYWUnLCAnPG91dGZpbGUubWFlPic=

> <r_lp_tautomer_probability>
0.999537

> <r_epik_Ionization_Penalty>
3.12102

> <r_epik_Ionization_Penalty_Charging>
2.9581e-08

> <r_epik_Ionization_Penalty_Neutral>
3.12102

> <r_epik_State_Penalty>
3.12011

> <r_epik_Charging_Adjusted_Penalty>
3.12011

> <i_epik_Tot_Q>
-1

> <i_epik_Tot_abs_Q>
1

> <r_epik_Metal_State_Penalty>
0.463583

> <b_epik_Metal_Only>
1

> <s_lp_Force_Field>
OPLS_2005

> <r_lp_Energy>
25.2964

> <b_lp_Chiralities_Consistent>
1

> <s_lp_Variant>
AV-unprocessed.smi:2855-14

> <Gold.Version>
5.8.1

> <Gold.Id.Protein>
6NUR|6NUR_protein|mol2

> <Gold.PLP.Fitness>
42.3802

> <Gold.PLP.PLP>
-35.5183

> <Gold.PLP.part.hbond>
-2.6612

> <Gold.PLP.part.metal>
0.0000

> <Gold.PLP.part.buried>
-5.7769

> <Gold.PLP.part.nonpolar>
-28.2319

> <Gold.PLP.part.repulsive>
0.0997

> <Gold.PLP.ligand.clash>
0.0000

> <Gold.PLP.ligand.torsion>
0.2440

> <Gold.PLP.Chemscore.Hbond>
1.4774

> <Gold.PLP.Chemscore.CHOScore>
0.9509

> <Gold.PLP.Chemscore.Metal>
0.0000

> <Gold.Chemscore.Hbonds>
donor molecule, donor type, donor heavy atom, donor atom, acceptor molecule, acceptor atom, score
      P1  H  6896  6908       L1    21  0.22
      P1  H  7989  7998       L1    18  0.42
      P1  H  7997  8009       L1    18  0.73
      L1  C    15    43       P1  7948  0.89

> <Gold.PLP.Chemscore.Internal.Correction>
0.0649

> <Gold.Rescore>
     Score         DG    S(hbond)    S(metal)    S(lipo)     H(rot)  DE(clash)    DE(int)     intcor
     14.65     -16.98       1.85        0.00      85.04       1.81       0.03       2.29       ----

> <Gold.Chemscore.Fitness>
14.6547

> <Gold.Chemscore.DG>
-16.9785

> <Gold.Chemscore.ZeroCoef>
-5.4800

> <Gold.Chemscore.Hbond>
1.8512

> <Gold.Chemscore.Metal>
0.0000

> <Gold.Chemscore.Lipo>
85.0352

> <Gold.Chemscore.Internal_Hbond>
0.0000

> <Gold.Chemscore.DEClash>
0.0318

> <Gold.Chemscore.DEInternal>
2.2920

> <Gold.Chemscore.Rot>
1.8100

> <Gold.Chemscore.Internal.Correction>
   9.000000E+99

> <Gold.Chemscore.Hbonds>
donor molecule, donor type, donor heavy atom, donor atom, acceptor molecule, acceptor atom, score
      P1  H  6896  6908       L1    21  0.23
      P1  H  7989  7998       L1    18  0.37
      P1  H  7997  8009       L1    18  0.72

> <Gold.Chemscore.Hbond.Weighted>
-6.1829

> <Gold.Chemscore.Metal.Weighted>
-0.0000

> <Gold.Chemscore.Lipo.Weighted>
-9.9491

> <Gold.Chemscore.Internal_Hbond.Weighted>
0.0000

> <Gold.Chemscore.DEClash.Weighted>
0.0318

> <Gold.Chemscore.DEInternal.Weighted>
2.2920

> <Gold.Chemscore.Rot.Weighted>
4.6335

> <Gold.Chemscore.Internal.Correction.Weighted>
   9.000000E+99

> <Gold.Protein.RotatedTorsions>
[ 6907 6896 6895 6894 ] final -137.88 input  -60.11 | X-H torsion
[ 7974 7965 7964 7962 ] final -109.93 input  175.53 | X-H torsion
[ 8008 7997 7996 7995 ] final -125.31 input   59.86 | X-H torsion
[ 10167 10162 10161 10158 ] final -122.14 input  -65.29 | X-H torsion
[ 10718 10713 10712 10709 ] final   16.29 input   66.30 | X-H torsion
[ 10763 10752 10751 10750 ] final  -53.21 input  -60.55 | X-H torsion
[ 11005 11000 10999 10996 ] final -144.74 input  -57.11 | X-H torsion

> <Gold.Protein.ActiveResidues>
 VAL166  LYS551  ARG553  GLY616  TRP617  ASP618  TYR619  PRO620  LYS621  CYS622 
 ASP623  PHE694  ASN695  SER759  ASP760  ASP761  ALA762  ILE779  LEU786  VAL792 
 PHE793  MET794  SER795  GLU796  ALA797  LYS798  CYS799  TRP800  GLU811  SER814 

> <Gold.Protein.RotatedAtoms>
  151.0280  133.5816  159.2663 H   0  0  0  0  0  0  0  0  0  0  0  0  # atno 6907 bound_to 6896
  151.2908  135.0740  159.9213 H   0  0  0  0  0  0  0  0  0  0  0  0  # atno 6908 bound_to 6896
  152.5338  133.9978  159.7935 H   0  0  0  0  0  0  0  0  0  0  0  0  # atno 6909 bound_to 6896
  145.1744  140.8941  143.3516 H   0  0  0  0  0  0  0  0  0  0  0  0  # atno 7974 bound_to 7965
  155.2111  140.0419  157.2933 H   0  0  0  0  0  0  0  0  0  0  0  0  # atno 8008 bound_to 7997
  154.6011  140.2452  155.7763 H   0  0  0  0  0  0  0  0  0  0  0  0  # atno 8009 bound_to 7997
  156.2321  140.2934  156.0225 H   0  0  0  0  0  0  0  0  0  0  0  0  # atno 8010 bound_to 7997
  140.0174  143.5379  152.2236 H   0  0  0  0  0  0  0  0  0  0  0  0  # atno 10167 bound_to 10162
  157.0657  130.6327  149.5795 H   0  0  0  0  0  0  0  0  0  0  0  0  # atno 10718 bound_to 10713
  154.1551  135.6484  153.4972 H   0  0  0  0  0  0  0  0  0  0  0  0  # atno 10763 bound_to 10752
  153.0126  135.5347  154.6768 H   0  0  0  0  0  0  0  0  0  0  0  0  # atno 10764 bound_to 10752
  154.6066  135.2949  155.0449 H   0  0  0  0  0  0  0  0  0  0  0  0  # atno 10765 bound_to 10752
  140.7994  134.2875  157.4984 H   0  0  0  0  0  0  0  0  0  0  0  0  # atno 11005 bound_to 11000
  145.0200  139.3433  143.6077 LP  0  0  0  0  0  0  0  0  0  0  0  0  # atno 17320 bound_to 7965
  146.3463  139.9496  142.8730 LP  0  0  0  0  0  0  0  0  0  0  0  0  # atno 17321 bound_to 7965
  139.6163  144.7620  151.2839 LP  0  0  0  0  0  0  0  0  0  0  0  0  # atno 17342 bound_to 10162
  140.7356  143.6731  150.8065 LP  0  0  0  0  0  0  0  0  0  0  0  0  # atno 17343 bound_to 10162
  155.9965  130.5034  150.7499 LP  0  0  0  0  0  0  0  0  0  0  0  0  # atno 17370 bound_to 10713
  157.4918  131.0911  151.0417 LP  0  0  0  0  0  0  0  0  0  0  0  0  # atno 17371 bound_to 10713
  139.8723  134.9421  156.3814 LP  0  0  0  0  0  0  0  0  0  0  0  0  # atno 17394 bound_to 11000
  140.9310  133.7579  156.0024 LP  0  0  0  0  0  0  0  0  0  0  0  0  # atno 17395 bound_to 11000

$$$$
