AV-unprocessed.smi:528|AV-procd|sdf|2832|dock9
  -GOLD-   2262023323D 1   1.00000     0.00000
 Structure written by MMmdl.
 45 47  0  0  0  0  0  0  0  0  1 V2000
  147.6417  137.6354  156.4060 C   0  0  0  0  0  0  0  0  0  0  0  0
  148.9981  138.1468  156.9215 C   0  0  1  0  0  0  0  0  0  0  0  0
  149.3047  137.5204  158.2058 N   0  0  0  0  0  0  0  0  0  0  0  0
  148.4726  137.4401  159.2555 C   0  0  0  0  0  0  0  0  0  0  0  0
  147.3199  137.8742  159.2392 O   0  0  0  0  0  0  0  0  0  0  0  0
  149.0347  136.7423  160.5022 C   0  0  0  0  0  0  0  0  0  0  0  0
  148.0653  135.8507  161.1607 N   0  0  0  0  0  0  0  0  0  0  0  0
  148.2001  134.4683  160.9236 C   0  0  0  0  0  0  0  0  0  0  0  0
  147.3716  133.5492  161.4555 C   0  0  0  0  0  0  0  0  0  0  0  0
  147.5733  132.0599  161.2233 C   0  0  0  0  0  0  0  0  0  0  0  0
  147.6494  131.7835  159.9213 F   0  0  0  0  0  0  0  0  0  0  0  0
  148.7061  131.6607  161.7991 F   0  0  0  0  0  0  0  0  0  0  0  0
  146.5708  131.3507  161.7437 F   0  0  0  0  0  0  0  0  0  0  0  0
  146.3295  134.0496  162.3303 C   0  0  0  0  0  0  0  0  0  0  0  0
  146.1889  135.3679  162.5707 C   0  0  0  0  0  0  0  0  0  0  0  0
  147.0833  136.3572  161.9654 C   0  0  0  0  0  0  0  0  0  0  0  0
  146.9595  137.5651  162.1703 O   0  0  0  0  0  0  0  0  0  0  0  0
  150.1509  137.8637  155.9293 C   0  0  2  0  0  0  0  0  0  0  0  0
  151.5677  137.9266  156.5460 C   0  0  0  0  0  0  0  0  0  0  0  0
  152.3345  138.8299  155.5626 C   0  0  2  0  0  0  0  0  0  0  0  0
  151.8792  140.2871  155.7598 C   0  0  0  0  0  0  0  0  0  0  0  0
  150.4671  140.2850  155.1463 C   0  0  0  0  0  0  0  0  0  0  0  0
  150.2829  138.8154  154.7139 C   0  0  1  0  0  0  0  0  0  0  0  0
  151.6886  138.4757  154.2279 C   0  0  0  0  0  0  0  0  0  0  0  0
  147.3604  138.1280  155.4753 H   0  0  0  0  0  0  0  0  0  0  0  0
  146.8461  137.8305  157.1255 H   0  0  0  0  0  0  0  0  0  0  0  0
  147.6666  136.5612  156.2203 H   0  0  0  0  0  0  0  0  0  0  0  0
  148.9261  139.2232  157.0800 H   0  0  0  0  0  0  0  0  0  0  0  0
  150.2300  137.1291  158.3077 H   0  0  0  0  0  0  0  0  0  0  0  0
  149.9269  136.1885  160.2069 H   0  0  0  0  0  0  0  0  0  0  0  0
  149.3886  137.4957  161.2087 H   0  0  0  0  0  0  0  0  0  0  0  0
  149.0215  134.2016  160.2744 H   0  0  0  0  0  0  0  0  0  0  0  0
  145.6451  133.3562  162.7966 H   0  0  0  0  0  0  0  0  0  0  0  0
  145.3981  135.7052  163.2246 H   0  0  0  0  0  0  0  0  0  0  0  0
  150.0039  136.8564  155.5344 H   0  0  0  0  0  0  0  0  0  0  0  0
  151.5772  138.3357  157.5572 H   0  0  0  0  0  0  0  0  0  0  0  0
  152.0094  136.9303  156.5896 H   0  0  0  0  0  0  0  0  0  0  0  0
  153.4164  138.7012  155.6025 H   0  0  0  0  0  0  0  0  0  0  0  0
  151.8771  140.5820  156.8098 H   0  0  0  0  0  0  0  0  0  0  0  0
  152.5305  140.9757  155.2202 H   0  0  0  0  0  0  0  0  0  0  0  0
  149.7026  140.6357  155.8382 H   0  0  0  0  0  0  0  0  0  0  0  0
  150.4361  140.9415  154.2757 H   0  0  0  0  0  0  0  0  0  0  0  0
  149.5040  138.6765  153.9638 H   0  0  0  0  0  0  0  0  0  0  0  0
  152.0273  139.1052  153.4027 H   0  0  0  0  0  0  0  0  0  0  0  0
  151.8131  137.4273  153.9511 H   0  0  0  0  0  0  0  0  0  0  0  0
  1  2  1  0  0  0  0
  1 25  1  0  0  0  0
  1 26  1  0  0  0  0
  1 27  1  0  0  0  0
  2  3  1  0  0  0  0
  2 18  1  0  0  0  0
  2 28  1  0  0  0  0
  3  4  1  0  0  0  0
  3 29  1  0  0  0  0
  4  5  2  0  0  0  0
  4  6  1  0  0  0  0
  6  7  1  0  0  0  0
  6 30  1  0  0  0  0
  6 31  1  0  0  0  0
  7 16  1  0  0  0  0
  7  8  1  0  0  0  0
  8  9  2  0  0  0  0
  8 32  1  0  0  0  0
  9 10  1  0  0  0  0
  9 14  1  0  0  0  0
 10 11  1  0  0  0  0
 10 12  1  0  0  0  0
 10 13  1  0  0  0  0
 14 15  2  0  0  0  0
 14 33  1  0  0  0  0
 15 16  1  0  0  0  0
 15 34  1  0  0  0  0
 16 17  2  0  0  0  0
 18 23  1  0  0  0  0
 18 19  1  0  0  0  0
 18 35  1  0  0  0  0
 19 20  1  0  0  0  0
 19 36  1  0  0  0  0
 19 37  1  0  0  0  0
 20 24  1  0  0  0  0
 20 21  1  0  0  0  0
 20 38  1  0  0  0  0
 21 22  1  0  0  0  0
 21 39  1  0  0  0  0
 21 40  1  0  0  0  0
 22 23  1  0  0  0  0
 22 41  1  0  0  0  0
 22 42  1  0  0  0  0
 23 24  1  0  0  0  0
 23 43  1  0  0  0  0
 24 44  1  0  0  0  0
 24 45  1  0  0  0  0
M  END
> <s_m_source_file>
AV-unprocessed.smi

> <i_m_source_file_index>
528

> <i_lp_mmshare_version>
43012

> <i_f3d_flags>
0

> <s_epik_input>
W0NIMl0xW0NIMl1bQ0BASF0oW0NIMl0yKVtDQEBIXShbQ0gyXVtDQEhdMTIpW0NASF0oW0NIM10pW05IXUMoPU8pW0NIMl1uM1tjSF1jKEMoRikoRilGKVtjSF1bY0hdYzM9Tw==

> <s_epik_cmdline>
J2VwaWtfcHl0aG9uJywgJy1waCcsICc3LjAnLCAnLXRuJywgJzgnLCAnLW1hJywgJzIwMCcsICctbWV0YWxfYmluZGluZycsICctaW1hZScsICc8aW5maWxlLm1hZT4nLCAnLW9tYWUnLCAnPG91dGZpbGUubWFlPic=

> <r_lp_tautomer_probability>
1

> <r_epik_Ionization_Penalty>
4.09479e-08

> <r_epik_Ionization_Penalty_Charging>
1.9321e-08

> <r_epik_Ionization_Penalty_Neutral>
2.16269e-08

> <r_epik_State_Penalty>
-0

> <r_epik_Charging_Adjusted_Penalty>
1.9321e-08

> <i_epik_Tot_Q>
0

> <i_epik_Tot_abs_Q>
0

> <r_epik_Metal_State_Penalty>
-0

> <b_epik_Metal_Only>
0

> <s_lp_Force_Field>
OPLS_2005

> <r_lp_Energy>
63.1325

> <b_lp_Chiralities_Consistent>
1

> <s_lp_Variant>
AV-unprocessed.smi:528-2

> <Gold.Version>
5.8.1

> <Gold.Id.Protein>
6NUR|6NUR_protein|mol2

> <Gold.PLP.Fitness>
41.3540

> <Gold.PLP.PLP>
-39.8990

> <Gold.PLP.part.hbond>
-3.0000

> <Gold.PLP.part.metal>
0.0000

> <Gold.PLP.part.buried>
-1.8081

> <Gold.PLP.part.nonpolar>
-33.7368

> <Gold.PLP.part.repulsive>
0.1041

> <Gold.PLP.ligand.clash>
0.0000

> <Gold.PLP.ligand.torsion>
1.1620

> <Gold.PLP.Chemscore.Hbond>
1.2348

> <Gold.PLP.Chemscore.CHOScore>
0.0000

> <Gold.PLP.Chemscore.Metal>
0.0000

> <Gold.Chemscore.Hbonds>
donor molecule, donor type, donor heavy atom, donor atom, acceptor molecule, acceptor atom, score
      P1  H  6931  6943       L1    17  0.38
      P1  H  6934  6947       L1    17  0.66

> <Gold.PLP.Chemscore.Internal.Correction>
0.0747

> <Gold.Rescore>
     Score         DG    S(hbond)    S(metal)    S(lipo)     H(rot)  DE(clash)    DE(int)     intcor
     13.63     -15.93       1.42        0.00      86.17       1.71       0.39       1.91       ----

> <Gold.Chemscore.Fitness>
13.6277

> <Gold.Chemscore.DG>
-15.9289

> <Gold.Chemscore.ZeroCoef>
-5.4800

> <Gold.Chemscore.Hbond>
1.4223

> <Gold.Chemscore.Metal>
0.0000

> <Gold.Chemscore.Lipo>
86.1730

> <Gold.Chemscore.Internal_Hbond>
0.0000

> <Gold.Chemscore.DEClash>
0.3936

> <Gold.Chemscore.DEInternal>
1.9075

> <Gold.Chemscore.Rot>
1.7125

> <Gold.Chemscore.Internal.Correction>
   9.000000E+99

> <Gold.Chemscore.Hbonds>
donor molecule, donor type, donor heavy atom, donor atom, acceptor molecule, acceptor atom, score
      P1  H  6931  6943       L1    17  0.13
      P1  H  6934  6947       L1    17  0.64

> <Gold.Chemscore.Hbond.Weighted>
-4.7506

> <Gold.Chemscore.Metal.Weighted>
-0.0000

> <Gold.Chemscore.Lipo.Weighted>
-10.0822

> <Gold.Chemscore.Internal_Hbond.Weighted>
0.0000

> <Gold.Chemscore.DEClash.Weighted>
0.3936

> <Gold.Chemscore.DEInternal.Weighted>
1.9075

> <Gold.Chemscore.Rot.Weighted>
4.3840

> <Gold.Chemscore.Internal.Correction.Weighted>
   9.000000E+99

> <Gold.Protein.RotatedTorsions>
[ 6907 6896 6895 6894 ] final  -48.31 input  -60.11 | X-H torsion
[ 7974 7965 7964 7962 ] final  170.69 input  175.53 | X-H torsion
[ 8008 7997 7996 7995 ] final  130.85 input   59.86 | X-H torsion
[ 10167 10162 10161 10158 ] final -169.74 input  -65.29 | X-H torsion
[ 10718 10713 10712 10709 ] final  -36.56 input   66.30 | X-H torsion
[ 10763 10752 10751 10750 ] final  139.38 input  -60.55 | X-H torsion
[ 11005 11000 10999 10996 ] final   10.93 input  -57.11 | X-H torsion

> <Gold.Protein.ActiveResidues>
 VAL166  LYS551  ARG553  GLY616  TRP617  ASP618  TYR619  PRO620  LYS621  CYS622 
 ASP623  PHE694  ASN695  SER759  ASP760  ASP761  ALA762  ILE779  LEU786  VAL792 
 PHE793  MET794  SER795  GLU796  ALA797  LYS798  CYS799  TRP800  GLU811  SER814 

> <Gold.Protein.RotatedAtoms>
  150.8919  134.8323  159.7298 H   0  0  0  0  0  0  0  0  0  0  0  0  # atno 6907 bound_to 6896
  152.4842  134.4636  159.9623 H   0  0  0  0  0  0  0  0  0  0  0  0  # atno 6908 bound_to 6896
  151.4697  133.3533  159.2857 H   0  0  0  0  0  0  0  0  0  0  0  0  # atno 6909 bound_to 6896
  144.7316  139.9239  143.6421 H   0  0  0  0  0  0  0  0  0  0  0  0  # atno 7974 bound_to 7965
  156.2961  140.2586  156.2829 H   0  0  0  0  0  0  0  0  0  0  0  0  # atno 8008 bound_to 7997
  154.9584  140.0393  157.2197 H   0  0  0  0  0  0  0  0  0  0  0  0  # atno 8009 bound_to 7997
  154.7970  140.2821  155.5954 H   0  0  0  0  0  0  0  0  0  0  0  0  # atno 8010 bound_to 7997
  139.5904  144.1225  152.1627 H   0  0  0  0  0  0  0  0  0  0  0  0  # atno 10167 bound_to 10162
  156.3254  130.4271  149.7921 H   0  0  0  0  0  0  0  0  0  0  0  0  # atno 10718 bound_to 10713
  153.9052  135.3017  155.3448 H   0  0  0  0  0  0  0  0  0  0  0  0  # atno 10763 bound_to 10752
  154.7651  135.4914  153.9541 H   0  0  0  0  0  0  0  0  0  0  0  0  # atno 10764 bound_to 10752
  153.1223  135.6785  153.9416 H   0  0  0  0  0  0  0  0  0  0  0  0  # atno 10765 bound_to 10752
  140.5090  134.0671  155.7813 H   0  0  0  0  0  0  0  0  0  0  0  0  # atno 11005 bound_to 11000
  146.0909  139.3898  143.0406 LP  0  0  0  0  0  0  0  0  0  0  0  0  # atno 17320 bound_to 7965
  145.7713  140.9895  143.1148 LP  0  0  0  0  0  0  0  0  0  0  0  0  # atno 17321 bound_to 7965
  140.0798  144.5710  150.7130 LP  0  0  0  0  0  0  0  0  0  0  0  0  # atno 17342 bound_to 10162
  140.7168  143.2552  151.4408 LP  0  0  0  0  0  0  0  0  0  0  0  0  # atno 17343 bound_to 10162
  156.5213  130.8216  151.3205 LP  0  0  0  0  0  0  0  0  0  0  0  0  # atno 17370 bound_to 10713
  157.7420  130.9882  150.2486 LP  0  0  0  0  0  0  0  0  0  0  0  0  # atno 17371 bound_to 10713
  141.1396  133.9162  157.2357 LP  0  0  0  0  0  0  0  0  0  0  0  0  # atno 17394 bound_to 11000
  139.9670  135.0139  156.9412 LP  0  0  0  0  0  0  0  0  0  0  0  0  # atno 17395 bound_to 11000

$$$$
