AV-unprocessed.smi:1774|AV-procd|sdf|7168|dock5
  -GOLD-   22720 8403D 1   1.00000     0.00000
 Structure written by MMmdl.
 46 47  0  0  0  0  0  0  0  0  2 V2000
  144.1694  134.7873  152.8800 C   0  0  0  0  0  0  0  0  0  0  0  0
  144.7062  133.8220  151.8354 C   0  0  0  0  0  0  0  0  0  0  0  0
  143.8002  133.0383  151.0895 C   0  0  0  0  0  0  0  0  0  0  0  0
  144.2980  132.1458  150.1250 C   0  0  0  0  0  0  0  0  0  0  0  0
  145.6901  132.0737  149.9463 C   0  0  0  0  0  0  0  0  0  0  0  0
  146.5633  132.8191  150.6541 N   0  0  0  0  0  0  0  0  0  0  0  0
  146.0989  133.6867  151.5883 C   0  0  0  0  0  0  0  0  0  0  0  0
  146.9615  134.5039  152.3725 N   0  0  0  0  0  0  0  0  0  0  0  0
  147.0742  134.5563  153.7114 C   0  0  0  0  0  0  0  0  0  0  0  0
  146.4250  133.8815  154.5112 O   0  0  0  0  0  0  0  0  0  0  0  0
  147.9992  135.4515  154.0874 N   0  0  0  0  0  0  0  0  0  0  0  0
  148.3657  135.7352  155.4700 C   0  0  0  0  0  0  0  0  0  0  0  0
  148.1427  137.2184  155.8215 C   0  0  0  0  0  0  0  0  0  0  0  0
  149.4018  138.0018  155.7730 N   0  3  1  0  0  0  0  0  0  0  0  0
  150.2164  137.6910  154.5744 C   0  0  0  0  0  0  0  0  0  0  0  0
  151.5452  138.4727  154.5856 C   0  0  2  0  0  0  0  0  0  0  0  0
  152.5669  137.9354  155.6039 C   0  0  0  0  0  0  0  0  0  0  0  0
  151.2949  139.8676  154.7573 O   0  0  0  0  0  0  0  0  0  0  0  0
  150.5405  140.2029  155.9192 C   0  0  1  0  0  0  0  0  0  0  0  0
  150.3637  141.7252  155.9426 C   0  0  0  0  0  0  0  0  0  0  0  0
  149.1900  139.4652  155.8839 C   0  0  0  0  0  0  0  0  0  0  0  0
  143.0790  134.7882  152.8967 H   0  0  0  0  0  0  0  0  0  0  0  0
  144.5005  135.8043  152.6680 H   0  0  0  0  0  0  0  0  0  0  0  0
  144.5208  134.5075  153.8736 H   0  0  0  0  0  0  0  0  0  0  0  0
  142.7352  133.1174  151.2519 H   0  0  0  0  0  0  0  0  0  0  0  0
  143.6305  131.5327  149.5375 H   0  0  0  0  0  0  0  0  0  0  0  0
  146.1144  131.4006  149.2160 H   0  0  0  0  0  0  0  0  0  0  0  0
  147.5689  135.1153  151.8477 H   0  0  0  0  0  0  0  0  0  0  0  0
  148.4893  135.9636  153.3683 H   0  0  0  0  0  0  0  0  0  0  0  0
  147.8007  135.0777  156.1311 H   0  0  0  0  0  0  0  0  0  0  0  0
  149.4168  135.4772  155.6013 H   0  0  0  0  0  0  0  0  0  0  0  0
  147.4342  137.6312  155.1016 H   0  0  0  0  0  0  0  0  0  0  0  0
  147.6814  137.3286  156.8042 H   0  0  0  0  0  0  0  0  0  0  0  0
  150.4171  136.6201  154.5209 H   0  0  0  0  0  0  0  0  0  0  0  0
  149.6450  137.9498  153.6814 H   0  0  0  0  0  0  0  0  0  0  0  0
  151.9996  138.3678  153.6000 H   0  0  0  0  0  0  0  0  0  0  0  0
  152.8501  136.9103  155.3628 H   0  0  0  0  0  0  0  0  0  0  0  0
  152.1762  137.9317  156.6211 H   0  0  0  0  0  0  0  0  0  0  0  0
  153.4759  138.5372  155.5968 H   0  0  0  0  0  0  0  0  0  0  0  0
  151.0927  139.9146  156.8140 H   0  0  0  0  0  0  0  0  0  0  0  0
  149.8009  142.0424  156.8210 H   0  0  0  0  0  0  0  0  0  0  0  0
  149.8297  142.0752  155.0587 H   0  0  0  0  0  0  0  0  0  0  0  0
  151.3304  142.2291  155.9680 H   0  0  0  0  0  0  0  0  0  0  0  0
  148.5923  139.8119  155.0391 H   0  0  0  0  0  0  0  0  0  0  0  0
  148.6285  139.7009  156.7874 H   0  0  0  0  0  0  0  0  0  0  0  0
  149.9510  137.7171  156.5714 H   0  0  0  0  0  0  0  0  0  0  0  0
  1  2  1  0  0  0  0
  1 22  1  0  0  0  0
  1 23  1  0  0  0  0
  1 24  1  0  0  0  0
  2  7  1  0  0  0  0
  2  3  2  0  0  0  0
  3  4  1  0  0  0  0
  3 25  1  0  0  0  0
  4  5  2  0  0  0  0
  4 26  1  0  0  0  0
  5  6  1  0  0  0  0
  5 27  1  0  0  0  0
  6  7  2  0  0  0  0
  7  8  1  0  0  0  0
  8  9  1  0  0  0  0
  8 28  1  0  0  0  0
  9 10  2  0  0  0  0
  9 11  1  0  0  0  0
 11 12  1  0  0  0  0
 11 29  1  0  0  0  0
 12 13  1  0  0  0  0
 12 30  1  0  0  0  0
 12 31  1  0  0  0  0
 13 14  1  0  0  0  0
 13 32  1  0  0  0  0
 13 33  1  0  0  0  0
 14 21  1  0  0  0  0
 14 15  1  0  0  0  0
 14 46  1  0  0  0  0
 15 16  1  0  0  0  0
 15 34  1  0  0  0  0
 15 35  1  0  0  0  0
 16 17  1  0  0  0  0
 16 18  1  0  0  0  0
 16 36  1  0  0  0  0
 17 37  1  0  0  0  0
 17 38  1  0  0  0  0
 17 39  1  0  0  0  0
 18 19  1  0  0  0  0
 19 20  1  0  0  0  0
 19 21  1  0  0  0  0
 19 40  1  0  0  0  0
 20 41  1  0  0  0  0
 20 42  1  0  0  0  0
 20 43  1  0  0  0  0
 21 44  1  0  0  0  0
 21 45  1  0  0  0  0
M  CHG  1  14   1
M  END
> <s_m_source_file>
AV-unprocessed.smi

> <i_m_source_file_index>
1774

> <i_lp_mmshare_version>
43012

> <i_f3d_flags>
0

> <s_epik_input>
W0NIM11jMVtjSF1bY0hdW2NIXW5jMVtOSF1DKD1PKVtOSF1bQ0gyXVtDSDJdTjJbQ0gyXVtDQEBIXShbQ0gzXSlPW0NAQEhdKFtDSDNdKVtDSDJdMg==

> <s_epik_cmdline>
J2VwaWtfcHl0aG9uJywgJy1waCcsICc3LjAnLCAnLXRuJywgJzgnLCAnLW1hJywgJzIwMCcsICctbWV0YWxfYmluZGluZycsICctaW1hZScsICc8aW5maWxlLm1hZT4nLCAnLW9tYWUnLCAnPG91dGZpbGUubWFlPic=

> <r_epik_Ionization_Penalty>
0.602573

> <r_epik_Ionization_Penalty_Charging>
0.602531

> <r_epik_Ionization_Penalty_Neutral>
4.21996e-05

> <r_epik_State_Penalty>
0.617039

> <r_epik_Charging_Adjusted_Penalty>
1.21957

> <i_epik_Tot_Q>
1

> <i_epik_Tot_abs_Q>
1

> <r_epik_Metal_State_Penalty>
0.617042

> <b_epik_Metal_Only>
0

> <s_lp_Force_Field>
OPLS_2005

> <r_lp_Energy>
18.8628

> <b_lp_Chiralities_Consistent>
1

> <s_lp_Variant>
AV-unprocessed.smi:1774-5

> <Gold.Version>
5.8.1

> <Gold.Id.Protein>
6NUR|6NUR_protein|mol2

> <Gold.PLP.Fitness>
39.2774

> <Gold.PLP.PLP>
-32.1074

> <Gold.PLP.part.hbond>
-3.0000

> <Gold.PLP.part.metal>
0.0000

> <Gold.PLP.part.buried>
-5.3465

> <Gold.PLP.part.nonpolar>
-25.0567

> <Gold.PLP.part.repulsive>
0.3558

> <Gold.PLP.ligand.clash>
0.0000

> <Gold.PLP.ligand.torsion>
0.9049

> <Gold.PLP.Chemscore.Hbond>
2.9760

> <Gold.PLP.Chemscore.CHOScore>
0.0000

> <Gold.PLP.Chemscore.Metal>
0.0000

> <Gold.Chemscore.Hbonds>
donor molecule, donor type, donor heavy atom, donor atom, acceptor molecule, acceptor atom, score
      L1  H     8    28       P1  7948  0.98
      L1  H    11    29       P1  7948  1.00
      P1  H  7989  7998       L1    18  1.00

> <Gold.PLP.Chemscore.Internal.Correction>
0.0518

> <Gold.Rescore>
     Score         DG    S(hbond)    S(metal)    S(lipo)     H(rot)  DE(clash)    DE(int)     intcor
     19.21     -20.24       2.84        0.00      77.71       1.49       0.03       1.00       ----

> <Gold.Chemscore.Fitness>
19.2052

> <Gold.Chemscore.DG>
-20.2351

> <Gold.Chemscore.ZeroCoef>
-5.4800

> <Gold.Chemscore.Hbond>
2.8410

> <Gold.Chemscore.Metal>
0.0000

> <Gold.Chemscore.Lipo>
77.7100

> <Gold.Chemscore.Internal_Hbond>
0.0000

> <Gold.Chemscore.DEClash>
0.0295

> <Gold.Chemscore.DEInternal>
1.0003

> <Gold.Chemscore.Rot>
1.4946

> <Gold.Chemscore.Internal.Correction>
   9.000000E+99

> <Gold.Chemscore.Hbonds>
donor molecule, donor type, donor heavy atom, donor atom, acceptor molecule, acceptor atom, score
      L1  H     8    28       P1  7948  0.82
      L1  H    11    29       P1  7948  0.95
      P1  H  7989  7998       L1    18  0.95

> <Gold.Chemscore.Hbond.Weighted>
-9.4890

> <Gold.Chemscore.Metal.Weighted>
-0.0000

> <Gold.Chemscore.Lipo.Weighted>
-9.0921

> <Gold.Chemscore.Internal_Hbond.Weighted>
0.0000

> <Gold.Chemscore.DEClash.Weighted>
0.0295

> <Gold.Chemscore.DEInternal.Weighted>
1.0003

> <Gold.Chemscore.Rot.Weighted>
3.8261

> <Gold.Chemscore.Internal.Correction.Weighted>
   9.000000E+99

> <Gold.Protein.RotatedTorsions>
[ 6907 6896 6895 6894 ] final  -36.57 input  -60.11 | X-H torsion
[ 7974 7965 7964 7962 ] final   23.94 input  175.53 | X-H torsion
[ 8008 7997 7996 7995 ] final   83.72 input   59.86 | X-H torsion
[ 10167 10162 10161 10158 ] final  144.38 input  -65.29 | X-H torsion
[ 10718 10713 10712 10709 ] final  173.51 input   66.30 | X-H torsion
[ 10763 10752 10751 10750 ] final -115.27 input  -60.55 | X-H torsion
[ 11005 11000 10999 10996 ] final  127.52 input  -57.11 | X-H torsion

> <Gold.Protein.ActiveResidues>
 VAL166  LYS551  ARG553  GLY616  TRP617  ASP618  TYR619  PRO620  LYS621  CYS622 
 ASP623  PHE694  ASN695  SER759  ASP760  ASP761  ALA762  ILE779  LEU786  VAL792 
 PHE793  MET794  SER795  GLU796  ALA797  LYS798  CYS799  TRP800  GLU811  SER814 

> <Gold.Protein.RotatedAtoms>
  151.0256  134.9501  159.8082 H   0  0  0  0  0  0  0  0  0  0  0  0  # atno 6907 bound_to 6896
  152.5334  134.2847  159.9030 H   0  0  0  0  0  0  0  0  0  0  0  0  # atno 6908 bound_to 6896
  151.2855  133.4147  159.2664 H   0  0  0  0  0  0  0  0  0  0  0  0  # atno 6909 bound_to 6896
  146.1961  139.7674  142.8796 H   0  0  0  0  0  0  0  0  0  0  0  0  # atno 7974 bound_to 7965
  155.9277  140.3417  155.6223 H   0  0  0  0  0  0  0  0  0  0  0  0  # atno 8008 bound_to 7997
  155.7196  140.0782  157.2355 H   0  0  0  0  0  0  0  0  0  0  0  0  # atno 8009 bound_to 7997
  154.4080  140.1608  156.2375 H   0  0  0  0  0  0  0  0  0  0  0  0  # atno 8010 bound_to 7997
  139.4948  144.5976  151.6549 H   0  0  0  0  0  0  0  0  0  0  0  0  # atno 10167 bound_to 10162
  156.9631  131.0067  151.2923 H   0  0  0  0  0  0  0  0  0  0  0  0  # atno 10718 bound_to 10713
  154.8474  135.4388  154.1636 H   0  0  0  0  0  0  0  0  0  0  0  0  # atno 10763 bound_to 10752
  153.2767  135.6950  153.7432 H   0  0  0  0  0  0  0  0  0  0  0  0  # atno 10764 bound_to 10752
  153.6652  135.3428  155.3113 H   0  0  0  0  0  0  0  0  0  0  0  0  # atno 10765 bound_to 10752
  139.9512  134.9621  156.8866 H   0  0  0  0  0  0  0  0  0  0  0  0  # atno 11005 bound_to 11000
  145.3639  141.0331  143.3269 LP  0  0  0  0  0  0  0  0  0  0  0  0  # atno 17320 bound_to 7965
  144.8583  139.5216  143.6824 LP  0  0  0  0  0  0  0  0  0  0  0  0  # atno 17321 bound_to 7965
  140.5618  144.0256  150.6173 LP  0  0  0  0  0  0  0  0  0  0  0  0  # atno 17342 bound_to 10162
  140.3344  143.3057  152.0653 LP  0  0  0  0  0  0  0  0  0  0  0  0  # atno 17343 bound_to 10162
  157.5644  130.8267  149.8308 LP  0  0  0  0  0  0  0  0  0  0  0  0  # atno 17370 bound_to 10713
  156.0314  130.3763  150.1679 LP  0  0  0  0  0  0  0  0  0  0  0  0  # atno 17371 bound_to 10713
  140.5715  134.0438  155.7432 LP  0  0  0  0  0  0  0  0  0  0  0  0  # atno 17394 bound_to 11000
  141.1175  133.9517  157.2795 LP  0  0  0  0  0  0  0  0  0  0  0  0  # atno 17395 bound_to 11000

$$$$
