AV-unprocessed.smi:2871|AV-procd|sdf|11030|dock6
  -GOLD-   2272015493D 1   1.00000     0.00000
 Structure written by MMmdl.
 38 40  0  0  0  0  0  0  0  0  1 V2000
  151.8488  144.6578  160.3020 C   0  0  0  0  0  0  0  0  0  0  0  0
  152.4953  143.5113  160.9316 N   0  0  0  0  0  0  0  0  0  0  0  0
  152.7828  143.5265  162.3604 C   0  0  0  0  0  0  0  0  0  0  0  0
  152.7488  142.3481  160.1717 C   0  0  0  0  0  0  0  0  0  0  0  0
  153.7662  141.4273  160.5227 C   0  0  0  0  0  0  0  0  0  0  0  0
  153.9246  140.2974  159.6889 C   0  0  0  0  0  0  0  0  0  0  0  0
  154.9786  139.2343  159.9598 C   0  0  0  0  0  0  0  0  0  0  0  0
  156.1921  139.7862  159.9320 F   0  0  0  0  0  0  0  0  0  0  0  0
  154.8035  138.6602  161.1506 F   0  0  0  0  0  0  0  0  0  0  0  0
  154.9140  138.2891  159.0218 F   0  0  0  0  0  0  0  0  0  0  0  0
  153.1400  140.1031  158.6053 N   0  0  0  0  0  0  0  0  0  0  0  0
  152.2111  141.0253  158.3565 C   0  0  0  0  0  0  0  0  0  0  0  0
  151.4242  140.7937  157.2435 N   0  0  0  0  0  0  0  0  0  0  0  0
  151.1933  139.4810  156.6534 C   0  0  2  0  0  0  0  0  0  0  0  0
  152.3908  138.9645  155.8458 C   0  0  0  0  0  0  0  0  0  0  0  0
  151.7542  138.6897  154.4779 C   0  0  1  0  0  0  0  0  0  0  0  0
  150.7817  137.5028  154.5153 C   0  0  0  0  0  0  0  0  0  0  0  0
  149.5905  138.0983  155.2654 C   0  0  0  0  0  0  0  0  0  0  0  0
  150.0913  139.5141  155.5812 C   0  0  2  0  0  0  0  0  0  0  0  0
  150.8442  139.7730  154.4069 O   0  0  0  0  0  0  0  0  0  0  0  0
  151.9812  142.1272  159.0773 N   0  0  0  0  0  0  0  0  0  0  0  0
  152.4574  145.0356  159.4796 H   0  0  0  0  0  0  0  0  0  0  0  0
  151.7039  145.4726  161.0113 H   0  0  0  0  0  0  0  0  0  0  0  0
  150.8707  144.3781  159.9090 H   0  0  0  0  0  0  0  0  0  0  0  0
  153.8466  143.3668  162.5390 H   0  0  0  0  0  0  0  0  0  0  0  0
  152.2203  142.7456  162.8730 H   0  0  0  0  0  0  0  0  0  0  0  0
  152.5109  144.4818  162.8095 H   0  0  0  0  0  0  0  0  0  0  0  0
  154.3992  141.5681  161.3854 H   0  0  0  0  0  0  0  0  0  0  0  0
  151.0425  141.6007  156.7717 H   0  0  0  0  0  0  0  0  0  0  0  0
  150.9194  138.7840  157.4468 H   0  0  0  0  0  0  0  0  0  0  0  0
  153.1700  139.7224  155.7511 H   0  0  0  0  0  0  0  0  0  0  0  0
  152.8396  138.0731  156.2851 H   0  0  0  0  0  0  0  0  0  0  0  0
  152.4707  138.6506  153.6572 H   0  0  0  0  0  0  0  0  0  0  0  0
  150.4893  137.2060  153.5074 H   0  0  0  0  0  0  0  0  0  0  0  0
  151.2090  136.6345  155.0180 H   0  0  0  0  0  0  0  0  0  0  0  0
  148.7127  138.1352  154.6194 H   0  0  0  0  0  0  0  0  0  0  0  0
  149.3298  137.5365  156.1631 H   0  0  0  0  0  0  0  0  0  0  0  0
  149.2891  140.2271  155.7755 H   0  0  0  0  0  0  0  0  0  0  0  0
  1  2  1  0  0  0  0
  1 22  1  0  0  0  0
  1 23  1  0  0  0  0
  1 24  1  0  0  0  0
  2  3  1  0  0  0  0
  2  4  1  0  0  0  0
  3 25  1  0  0  0  0
  3 26  1  0  0  0  0
  3 27  1  0  0  0  0
  4 21  1  0  0  0  0
  4  5  2  0  0  0  0
  5  6  1  0  0  0  0
  5 28  1  0  0  0  0
  6  7  1  0  0  0  0
  6 11  2  0  0  0  0
  7  8  1  0  0  0  0
  7  9  1  0  0  0  0
  7 10  1  0  0  0  0
 11 12  1  0  0  0  0
 12 13  1  0  0  0  0
 12 21  2  0  0  0  0
 13 14  1  0  0  0  0
 13 29  1  0  0  0  0
 14 19  1  0  0  0  0
 14 15  1  0  0  0  0
 14 30  1  0  0  0  0
 15 16  1  0  0  0  0
 15 31  1  0  0  0  0
 15 32  1  0  0  0  0
 16 20  1  0  0  0  0
 16 17  1  0  0  0  0
 16 33  1  0  0  0  0
 17 18  1  0  0  0  0
 17 34  1  0  0  0  0
 17 35  1  0  0  0  0
 18 19  1  0  0  0  0
 18 36  1  0  0  0  0
 18 37  1  0  0  0  0
 19 20  1  0  0  0  0
 19 38  1  0  0  0  0
M  END
> <s_m_source_file>
AV-unprocessed.smi

> <i_m_source_file_index>
2871

> <i_lp_mmshare_version>
43012

> <i_f3d_flags>
0

> <s_epik_input>
W0NIM11OKFtDSDNdKWMxW2NIXWMoQyhGKShGKUYpbmMobjEpW05IXVtDQEhdKFtDSDJdW0NAQEhdMjMpW0NAQEhdKE8zKVtDSDJdW0NIMl0y

> <s_epik_cmdline>
J2VwaWtfcHl0aG9uJywgJy1waCcsICc3LjAnLCAnLXRuJywgJzgnLCAnLW1hJywgJzIwMCcsICctbWV0YWxfYmluZGluZycsICctaW1hZScsICc8aW5maWxlLm1hZT4nLCAnLW9tYWUnLCAnPG91dGZpbGUubWFlPic=

> <r_lp_tautomer_probability>
1

> <r_epik_Ionization_Penalty>
0.00695968

> <r_epik_Ionization_Penalty_Charging>
0

> <r_epik_Ionization_Penalty_Neutral>
0.00695968

> <r_epik_State_Penalty>
0.0050343

> <r_epik_Charging_Adjusted_Penalty>
0.0050343

> <i_epik_Tot_Q>
0

> <i_epik_Tot_abs_Q>
0

> <r_epik_Metal_State_Penalty>
-0

> <b_epik_Metal_Only>
0

> <s_lp_Force_Field>
OPLS_2005

> <r_lp_Energy>
32.5714

> <b_lp_Chiralities_Consistent>
1

> <s_lp_Variant>
AV-unprocessed.smi:2871-1

> <Gold.Version>
5.8.1

> <Gold.Id.Protein>
6NUR|6NUR_protein|mol2

> <Gold.PLP.Fitness>
47.1522

> <Gold.PLP.PLP>
-42.2651

> <Gold.PLP.part.hbond>
-2.0000

> <Gold.PLP.part.metal>
0.0000

> <Gold.PLP.part.buried>
-3.9267

> <Gold.PLP.part.nonpolar>
-34.6637

> <Gold.PLP.part.repulsive>
0.2093

> <Gold.PLP.ligand.clash>
0.0000

> <Gold.PLP.ligand.torsion>
0.5614

> <Gold.PLP.Chemscore.Hbond>
1.9920

> <Gold.PLP.Chemscore.CHOScore>
0.0000

> <Gold.PLP.Chemscore.Metal>
0.0000

> <Gold.Chemscore.Hbonds>
donor molecule, donor type, donor heavy atom, donor atom, acceptor molecule, acceptor atom, score
      P1  H  7989  7998       L1    20  1.00
      P1  H  7997  8010       L1    11  0.73

> <Gold.PLP.Chemscore.Internal.Correction>
0.0340

> <Gold.Rescore>
     Score         DG    S(hbond)    S(metal)    S(lipo)     H(rot)  DE(clash)    DE(int)     intcor
     16.56     -17.24       1.24        0.00      86.87       1.00       0.06       0.62       ----

> <Gold.Chemscore.Fitness>
16.5585

> <Gold.Chemscore.DG>
-17.2387

> <Gold.Chemscore.ZeroCoef>
-5.4800

> <Gold.Chemscore.Hbond>
1.2440

> <Gold.Chemscore.Metal>
0.0000

> <Gold.Chemscore.Lipo>
86.8683

> <Gold.Chemscore.Internal_Hbond>
0.0000

> <Gold.Chemscore.DEClash>
0.0625

> <Gold.Chemscore.DEInternal>
0.6176

> <Gold.Chemscore.Rot>
1.0000

> <Gold.Chemscore.Internal.Correction>
   9.000000E+99

> <Gold.Chemscore.Hbonds>
donor molecule, donor type, donor heavy atom, donor atom, acceptor molecule, acceptor atom, score
      P1  H  7989  7998       L1    20  0.39
      P1  H  7997  8010       L1    11  0.15

> <Gold.Chemscore.Hbond.Weighted>
-4.1551

> <Gold.Chemscore.Metal.Weighted>
-0.0000

> <Gold.Chemscore.Lipo.Weighted>
-10.1636

> <Gold.Chemscore.Internal_Hbond.Weighted>
0.0000

> <Gold.Chemscore.DEClash.Weighted>
0.0625

> <Gold.Chemscore.DEInternal.Weighted>
0.6176

> <Gold.Chemscore.Rot.Weighted>
2.5600

> <Gold.Chemscore.Internal.Correction.Weighted>
   9.000000E+99

> <Gold.Protein.RotatedTorsions>
[ 6907 6896 6895 6894 ] final  -16.09 input  -60.11 | X-H torsion
[ 7974 7965 7964 7962 ] final  174.99 input  175.53 | X-H torsion
[ 8008 7997 7996 7995 ] final   31.29 input   59.86 | X-H torsion
[ 10167 10162 10161 10158 ] final  106.22 input  -65.29 | X-H torsion
[ 10718 10713 10712 10709 ] final  -18.70 input   66.30 | X-H torsion
[ 10763 10752 10751 10750 ] final   18.88 input  -60.55 | X-H torsion
[ 11005 11000 10999 10996 ] final  114.13 input  -57.11 | X-H torsion

> <Gold.Protein.ActiveResidues>
 VAL166  LYS551  ARG553  GLY616  TRP617  ASP618  TYR619  PRO620  LYS621  CYS622 
 ASP623  PHE694  ASN695  SER759  ASP760  ASP761  ALA762  ILE779  LEU786  VAL792 
 PHE793  MET794  SER795  GLU796  ALA797  LYS798  CYS799  TRP800  GLU811  SER814 

> <Gold.Protein.RotatedAtoms>
  151.3139  135.0801  159.9281 H   0  0  0  0  0  0  0  0  0  0  0  0  # atno 6907 bound_to 6896
  152.5271  133.9707  159.7771 H   0  0  0  0  0  0  0  0  0  0  0  0  # atno 6908 bound_to 6896
  151.0016  133.5999  159.2724 H   0  0  0  0  0  0  0  0  0  0  0  0  # atno 6909 bound_to 6896
  144.7210  139.9880  143.6439 H   0  0  0  0  0  0  0  0  0  0  0  0  # atno 7974 bound_to 7965
  155.1041  140.3232  155.4539 H   0  0  0  0  0  0  0  0  0  0  0  0  # atno 8008 bound_to 7997
  156.2709  140.2056  156.6114 H   0  0  0  0  0  0  0  0  0  0  0  0  # atno 8009 bound_to 7997
  154.6806  140.0526  157.0249 H   0  0  0  0  0  0  0  0  0  0  0  0  # atno 8010 bound_to 7997
  139.7028  144.7091  151.1157 H   0  0  0  0  0  0  0  0  0  0  0  0  # atno 10167 bound_to 10162
  156.5558  130.4713  149.6430 H   0  0  0  0  0  0  0  0  0  0  0  0  # atno 10718 bound_to 10713
  153.1210  135.6719  153.9336 H   0  0  0  0  0  0  0  0  0  0  0  0  # atno 10763 bound_to 10752
  153.8851  135.3053  155.3447 H   0  0  0  0  0  0  0  0  0  0  0  0  # atno 10764 bound_to 10752
  154.7622  135.4982  153.9564 H   0  0  0  0  0  0  0  0  0  0  0  0  # atno 10765 bound_to 10752
  139.8972  134.9562  156.6846 H   0  0  0  0  0  0  0  0  0  0  0  0  # atno 11005 bound_to 11000
  146.0435  139.3443  143.0683 LP  0  0  0  0  0  0  0  0  0  0  0  0  # atno 17320 bound_to 7965
  145.8305  140.9633  143.0851 LP  0  0  0  0  0  0  0  0  0  0  0  0  # atno 17321 bound_to 7965
  140.7714  143.5401  150.9323 LP  0  0  0  0  0  0  0  0  0  0  0  0  # atno 17342 bound_to 10162
  139.9083  143.6751  152.3119 LP  0  0  0  0  0  0  0  0  0  0  0  0  # atno 17343 bound_to 10162
  156.2843  130.7088  151.1921 LP  0  0  0  0  0  0  0  0  0  0  0  0  # atno 17370 bound_to 10713
  157.7378  131.0547  150.5331 LP  0  0  0  0  0  0  0  0  0  0  0  0  # atno 17371 bound_to 10713
  140.7273  133.9089  155.8187 LP  0  0  0  0  0  0  0  0  0  0  0  0  # atno 17394 bound_to 11000
  141.0181  134.0927  157.4150 LP  0  0  0  0  0  0  0  0  0  0  0  0  # atno 17395 bound_to 11000

$$$$
