AV-unprocessed.smi:3164|AV-procd|sdf|12081|dock5
  -GOLD-   2272017513D 1   1.00000     0.00000
 Structure written by MMmdl.
 40 41  0  0  0  0  0  0  0  0  3 V2000
  144.5726  132.6177  150.3623 C   0  0  0  0  0  0  0  0  0  0  0  0
  143.7223  133.8221  150.5064 N   0  3  1  0  0  0  0  0  0  0  0  0
  143.1364  133.9802  151.8586 C   0  0  0  0  0  0  0  0  0  0  0  0
  144.1633  134.5566  152.8504 C   0  0  0  0  0  0  0  0  0  0  0  0
  144.6816  135.7808  152.3433 O   0  0  0  0  0  0  0  0  0  0  0  0
  145.3716  135.6119  151.1088 C   0  0  2  0  0  0  0  0  0  0  0  0
  145.9535  136.9731  150.6976 C   0  0  0  0  0  0  0  0  0  0  0  0
  146.8815  137.4961  151.7211 N   0  3  0  0  0  0  0  0  0  0  0  0
  146.9812  138.9683  151.7423 C   0  0  0  0  0  0  0  0  0  0  0  0
  146.7264  139.5202  153.1516 C   0  0  0  0  0  0  0  0  0  0  0  0
  148.0170  139.8276  153.8866 C   0  0  0  0  0  0  0  0  0  0  0  0
  148.2727  141.1215  154.3888 C   0  0  0  0  0  0  0  0  0  0  0  0
  149.4914  141.3524  155.0560 C   0  0  0  0  0  0  0  0  0  0  0  0
  150.4020  140.2869  155.1929 C   0  0  0  0  0  0  0  0  0  0  0  0
  150.0525  139.0324  154.6549 C   0  0  0  0  0  0  0  0  0  0  0  0
  148.8869  138.8006  154.0126 N   0  0  0  0  0  0  0  0  0  0  0  0
  144.3760  135.0750  150.0559 C   0  0  0  0  0  0  0  0  0  0  0  0
  145.4552  132.6617  151.0002 H   0  0  0  0  0  0  0  0  0  0  0  0
  144.9054  132.5064  149.3299 H   0  0  0  0  0  0  0  0  0  0  0  0
  144.0108  131.7204  150.6242 H   0  0  0  0  0  0  0  0  0  0  0  0
  142.2865  134.6602  151.7858 H   0  0  0  0  0  0  0  0  0  0  0  0
  142.7406  133.0290  152.2167 H   0  0  0  0  0  0  0  0  0  0  0  0
  143.6857  134.7492  153.8111 H   0  0  0  0  0  0  0  0  0  0  0  0
  144.9746  133.8521  153.0388 H   0  0  0  0  0  0  0  0  0  0  0  0
  146.1914  134.9034  151.2402 H   0  0  0  0  0  0  0  0  0  0  0  0
  146.4980  136.8705  149.7579 H   0  0  0  0  0  0  0  0  0  0  0  0
  145.1511  137.6923  150.5265 H   0  0  0  0  0  0  0  0  0  0  0  0
  146.5688  137.1829  152.6296 H   0  0  0  0  0  0  0  0  0  0  0  0
  147.9738  139.2636  151.3990 H   0  0  0  0  0  0  0  0  0  0  0  0
  146.2584  139.3892  151.0417 H   0  0  0  0  0  0  0  0  0  0  0  0
  146.1207  140.4258  153.0952 H   0  0  0  0  0  0  0  0  0  0  0  0
  146.1509  138.8018  153.7376 H   0  0  0  0  0  0  0  0  0  0  0  0
  147.5556  141.9201  154.2678 H   0  0  0  0  0  0  0  0  0  0  0  0
  149.7238  142.3287  155.4552 H   0  0  0  0  0  0  0  0  0  0  0  0
  151.3457  140.4274  155.6986 H   0  0  0  0  0  0  0  0  0  0  0  0
  150.7270  138.1935  154.7419 H   0  0  0  0  0  0  0  0  0  0  0  0
  144.8708  134.9156  149.0969 H   0  0  0  0  0  0  0  0  0  0  0  0
  143.5965  135.8182  149.8806 H   0  0  0  0  0  0  0  0  0  0  0  0
  147.8024  137.1183  151.5480 H   0  0  0  0  0  0  0  0  0  0  0  0
  142.9448  133.6677  149.8794 H   0  0  0  0  0  0  0  0  0  0  0  0
  1  2  1  0  0  0  0
  1 18  1  0  0  0  0
  1 19  1  0  0  0  0
  1 20  1  0  0  0  0
  2 17  1  0  0  0  0
  2  3  1  0  0  0  0
  2 40  1  0  0  0  0
  3  4  1  0  0  0  0
  3 21  1  0  0  0  0
  3 22  1  0  0  0  0
  4  5  1  0  0  0  0
  4 23  1  0  0  0  0
  4 24  1  0  0  0  0
  5  6  1  0  0  0  0
  6  7  1  0  0  0  0
  6 17  1  0  0  0  0
  6 25  1  0  0  0  0
  7  8  1  0  0  0  0
  7 26  1  0  0  0  0
  7 27  1  0  0  0  0
  8  9  1  0  0  0  0
  8 28  1  0  0  0  0
  8 39  1  0  0  0  0
  9 10  1  0  0  0  0
  9 29  1  0  0  0  0
  9 30  1  0  0  0  0
 10 11  1  0  0  0  0
 10 31  1  0  0  0  0
 10 32  1  0  0  0  0
 11 16  1  0  0  0  0
 11 12  2  0  0  0  0
 12 13  1  0  0  0  0
 12 33  1  0  0  0  0
 13 14  2  0  0  0  0
 13 34  1  0  0  0  0
 14 15  1  0  0  0  0
 14 35  1  0  0  0  0
 15 16  2  0  0  0  0
 15 36  1  0  0  0  0
 17 37  1  0  0  0  0
 17 38  1  0  0  0  0
M  CHG  1   2   1
M  CHG  1   8   1
M  END
> <s_m_source_file>
AV-unprocessed.smi

> <i_m_source_file_index>
3164

> <i_lp_mmshare_version>
43012

> <i_f3d_flags>
0

> <s_epik_input>
W0NIM11OMVtDSDJdW0NIMl1PW0NASF0oW0NIMl0xKVtDSDJdW05IXVtDSDJdW0NIMl1jMltjSF1bY0hdW2NIXVtjSF1uMg==

> <s_epik_cmdline>
J2VwaWtfcHl0aG9uJywgJy1waCcsICc3LjAnLCAnLXRuJywgJzgnLCAnLW1hJywgJzIwMCcsICctbWV0YWxfYmluZGluZycsICctaW1hZScsICc8aW5maWxlLm1hZT4nLCAnLW9tYWUnLCAnPG91dGZpbGUubWFlPic=

> <r_epik_Ionization_Penalty>
0.294944

> <r_epik_Ionization_Penalty_Charging>
0.29381

> <r_epik_Ionization_Penalty_Neutral>
0.00113372

> <r_epik_State_Penalty>
0.271365

> <r_epik_Charging_Adjusted_Penalty>
0.565175

> <i_epik_Tot_Q>
2

> <i_epik_Tot_abs_Q>
2

> <r_epik_Metal_State_Penalty>
0.271365

> <b_epik_Metal_Only>
0

> <s_lp_Force_Field>
OPLS_2005

> <r_lp_Energy>
22.4387

> <b_lp_Chiralities_Consistent>
1

> <s_lp_Variant>
AV-unprocessed.smi:3164-3

> <Gold.Version>
5.8.1

> <Gold.Id.Protein>
6NUR|6NUR_protein|mol2

> <Gold.PLP.Fitness>
42.5051

> <Gold.PLP.PLP>
-32.2522

> <Gold.PLP.part.hbond>
-1.7971

> <Gold.PLP.part.metal>
0.0000

> <Gold.PLP.part.buried>
4.2655

> <Gold.PLP.part.nonpolar>
-35.5126

> <Gold.PLP.part.repulsive>
0.5646

> <Gold.PLP.ligand.clash>
0.0000

> <Gold.PLP.ligand.torsion>
0.8025

> <Gold.PLP.Chemscore.Hbond>
3.9520

> <Gold.PLP.Chemscore.CHOScore>
0.0000

> <Gold.PLP.Chemscore.Metal>
0.0000

> <Gold.Chemscore.Hbonds>
donor molecule, donor type, donor heavy atom, donor atom, acceptor molecule, acceptor atom, score
      L1  H     2    40       P1 10186  1.25
      L1  H     8    39       P1  7948  1.59

> <Gold.PLP.Chemscore.Internal.Correction>
0.0019

> <Gold.Rescore>
     Score         DG    S(hbond)    S(metal)    S(lipo)     H(rot)  DE(clash)    DE(int)     intcor
     15.56     -18.24       1.93        0.00      89.90       1.65       1.89       0.78       ----

> <Gold.Chemscore.Fitness>
15.5624

> <Gold.Chemscore.DG>
-18.2408

> <Gold.Chemscore.ZeroCoef>
-5.4800

> <Gold.Chemscore.Hbond>
1.9324

> <Gold.Chemscore.Metal>
0.0000

> <Gold.Chemscore.Lipo>
89.9038

> <Gold.Chemscore.Internal_Hbond>
0.0000

> <Gold.Chemscore.DEClash>
1.8938

> <Gold.Chemscore.DEInternal>
0.7846

> <Gold.Chemscore.Rot>
1.6454

> <Gold.Chemscore.Internal.Correction>
   9.000000E+99

> <Gold.Chemscore.Hbonds>
donor molecule, donor type, donor heavy atom, donor atom, acceptor molecule, acceptor atom, score
      L1  H     2    40       P1 10186  0.62
      L1  H     8    39       P1  7948  0.77

> <Gold.Chemscore.Hbond.Weighted>
-6.4543

> <Gold.Chemscore.Metal.Weighted>
-0.0000

> <Gold.Chemscore.Lipo.Weighted>
-10.5187

> <Gold.Chemscore.Internal_Hbond.Weighted>
0.0000

> <Gold.Chemscore.DEClash.Weighted>
1.8938

> <Gold.Chemscore.DEInternal.Weighted>
0.7846

> <Gold.Chemscore.Rot.Weighted>
4.2122

> <Gold.Chemscore.Internal.Correction.Weighted>
   9.000000E+99

> <Gold.Protein.RotatedTorsions>
[ 6907 6896 6895 6894 ] final -104.45 input  -60.11 | X-H torsion
[ 7974 7965 7964 7962 ] final  -41.01 input  175.53 | X-H torsion
[ 8008 7997 7996 7995 ] final   94.62 input   59.86 | X-H torsion
[ 10167 10162 10161 10158 ] final  -42.70 input  -65.29 | X-H torsion
[ 10718 10713 10712 10709 ] final  171.26 input   66.30 | X-H torsion
[ 10763 10752 10751 10750 ] final -147.91 input  -60.55 | X-H torsion
[ 11005 11000 10999 10996 ] final   67.54 input  -57.11 | X-H torsion

> <Gold.Protein.ActiveResidues>
 VAL166  LYS551  ARG553  GLY616  TRP617  ASP618  TYR619  PRO620  LYS621  CYS622 
 ASP623  PHE694  ASN695  SER759  ASP760  ASP761  ALA762  ILE779  LEU786  VAL792 
 PHE793  MET794  SER795  GLU796  ALA797  LYS798  CYS799  TRP800  GLU811  SER814 

> <Gold.Protein.RotatedAtoms>
  150.7288  134.0275  159.3721 H   0  0  0  0  0  0  0  0  0  0  0  0  # atno 6907 bound_to 6896
  151.8243  135.0639  160.0438 H   0  0  0  0  0  0  0  0  0  0  0  0  # atno 6908 bound_to 6896
  152.2980  133.5591  159.5637 H   0  0  0  0  0  0  0  0  0  0  0  0  # atno 6909 bound_to 6896
  146.0251  140.6801  142.9159 H   0  0  0  0  0  0  0  0  0  0  0  0  # atno 7974 bound_to 7965
  156.0599  140.3297  155.7450 H   0  0  0  0  0  0  0  0  0  0  0  0  # atno 8008 bound_to 7997
  155.5470  140.0607  157.2875 H   0  0  0  0  0  0  0  0  0  0  0  0  # atno 8009 bound_to 7997
  154.4476  140.1900  156.0637 H   0  0  0  0  0  0  0  0  0  0  0  0  # atno 8010 bound_to 7997
  140.6960  143.3023  151.3246 H   0  0  0  0  0  0  0  0  0  0  0  0  # atno 10167 bound_to 10162
  156.9962  131.0162  151.2843 H   0  0  0  0  0  0  0  0  0  0  0  0  # atno 10718 bound_to 10713
  154.8261  135.3348  154.6892 H   0  0  0  0  0  0  0  0  0  0  0  0  # atno 10763 bound_to 10752
  153.7518  135.6939  153.4948 H   0  0  0  0  0  0  0  0  0  0  0  0  # atno 10764 bound_to 10752
  153.2171  135.4462  155.0397 H   0  0  0  0  0  0  0  0  0  0  0  0  # atno 10765 bound_to 10752
  139.9764  134.6815  156.0345 H   0  0  0  0  0  0  0  0  0  0  0  0  # atno 11005 bound_to 11000
  144.7006  140.3636  143.7159 LP  0  0  0  0  0  0  0  0  0  0  0  0  # atno 17320 bound_to 7965
  145.7130  139.1690  143.2528 LP  0  0  0  0  0  0  0  0  0  0  0  0  # atno 17321 bound_to 7965
  139.6416  144.0529  152.2559 LP  0  0  0  0  0  0  0  0  0  0  0  0  # atno 17342 bound_to 10162
  140.0036  144.6275  150.7708 LP  0  0  0  0  0  0  0  0  0  0  0  0  # atno 17343 bound_to 10162
  157.5423  130.8128  149.8044 LP  0  0  0  0  0  0  0  0  0  0  0  0  # atno 17370 bound_to 10713
  156.0188  130.3803  150.2025 LP  0  0  0  0  0  0  0  0  0  0  0  0  # atno 17371 bound_to 10713
  141.1441  133.6559  156.3815 LP  0  0  0  0  0  0  0  0  0  0  0  0  # atno 17394 bound_to 11000
  140.5185  134.6327  157.5310 LP  0  0  0  0  0  0  0  0  0  0  0  0  # atno 17395 bound_to 11000

$$$$
