AV-unprocessed.smi:276|AV-procd|sdf|2079|dock4
  -GOLD-   2262021343D 1   1.00000     0.00000
 Structure written by MMmdl.
 57 61  0  0  0  0  0  0  0  0  1 V2000
  151.2522  143.8931  158.1808 C   0  0  0  0  0  0  0  0  0  0  0  0
  151.5500  142.6203  157.6329 O   0  0  0  0  0  0  0  0  0  0  0  0
  150.4783  141.6987  157.7609 C   0  0  1  0  0  0  0  0  0  0  0  0
  149.2600  142.1191  156.9341 C   0  0  0  0  0  0  0  0  0  0  0  0
  149.0325  140.6282  156.6551 C   0  0  1  0  0  0  0  0  0  0  0  0
  148.5202  140.3682  155.3075 N   0  0  0  0  0  0  0  0  0  0  0  0
  147.8770  141.4929  154.6402 C   0  0  0  0  0  0  0  0  0  0  0  0
  147.7732  139.2508  155.1580 C   0  0  0  0  0  0  0  0  0  0  0  0
  147.6226  138.4631  156.2523 N   0  0  0  0  0  0  0  0  0  0  0  0
  146.8921  137.3468  156.1793 C   0  0  0  0  0  0  0  0  0  0  0  0
  146.2460  136.8390  155.1279 N   0  0  0  0  0  0  0  0  0  0  0  0
  146.4150  137.6167  154.0206 C   0  0  0  0  0  0  0  0  0  0  0  0
  147.1607  138.8267  153.9435 C   0  0  0  0  0  0  0  0  0  0  0  0
  147.1172  139.3240  152.6457 N   0  0  0  0  0  0  0  0  0  0  0  0
  146.3777  138.4658  151.9981 C   0  0  0  0  0  0  0  0  0  0  0  0
  145.9153  137.4091  152.7481 N   0  0  0  0  0  0  0  0  0  0  0  0
  145.0842  136.3099  152.2910 C   0  0  0  0  0  0  0  0  0  0  0  0
  145.7458  135.5094  151.1521 C   0  0  2  0  0  0  0  0  0  0  0  0
  145.2622  135.9826  149.9091 O   0  0  0  0  0  0  0  0  0  0  0  0
  145.4600  134.0000  151.2572 C   0  0  1  0  0  0  0  0  0  0  0  0
  144.0094  133.6078  150.9765 C   0  0  0  0  0  0  0  0  0  0  0  0
  144.1144  132.1515  150.5552 C   0  0  0  0  0  0  0  0  0  0  0  0
  145.5841  131.9857  150.1578 C   0  0  0  0  0  0  0  0  0  0  0  0
  146.1488  133.2878  150.2407 O   0  0  0  0  0  0  0  0  0  0  0  0
  150.5581  140.4391  156.8708 C   0  0  0  0  0  0  0  0  0  0  0  0
  151.1336  139.1259  157.4188 C   0  0  0  0  0  0  0  0  0  0  0  0
  151.8180  138.8871  156.0689 C   0  0  0  0  0  0  0  0  0  0  0  0
  151.5682  140.3554  155.7081 C   0  0  0  0  0  0  0  0  0  0  0  0
  152.1024  144.5599  158.0379 H   0  0  0  0  0  0  0  0  0  0  0  0
  151.0529  143.8318  159.2506 H   0  0  0  0  0  0  0  0  0  0  0  0
  150.3876  144.3409  157.6892 H   0  0  0  0  0  0  0  0  0  0  0  0
  150.2042  141.4794  158.7954 H   0  0  0  0  0  0  0  0  0  0  0  0
  148.4666  142.6041  157.5028 H   0  0  0  0  0  0  0  0  0  0  0  0
  149.5287  142.6922  156.0443 H   0  0  0  0  0  0  0  0  0  0  0  0
  148.4439  140.1749  157.4539 H   0  0  0  0  0  0  0  0  0  0  0  0
  146.9852  141.8058  155.1850 H   0  0  0  0  0  0  0  0  0  0  0  0
  147.5849  141.2339  153.6213 H   0  0  0  0  0  0  0  0  0  0  0  0
  148.5548  142.3444  154.5806 H   0  0  0  0  0  0  0  0  0  0  0  0
  146.8128  136.7796  157.0951 H   0  0  0  0  0  0  0  0  0  0  0  0
  146.1532  138.5774  150.9474 H   0  0  0  0  0  0  0  0  0  0  0  0
  144.8859  135.6607  153.1446 H   0  0  0  0  0  0  0  0  0  0  0  0
  144.1201  136.7077  151.9714 H   0  0  0  0  0  0  0  0  0  0  0  0
  146.8241  135.6729  151.1768 H   0  0  0  0  0  0  0  0  0  0  0  0
  144.7860  136.7851  150.0582 H   0  0  0  0  0  0  0  0  0  0  0  0
  145.7700  133.6155  152.2310 H   0  0  0  0  0  0  0  0  0  0  0  0
  143.3567  133.7539  151.8376 H   0  0  0  0  0  0  0  0  0  0  0  0
  143.6129  134.1986  150.1494 H   0  0  0  0  0  0  0  0  0  0  0  0
  143.8668  131.4845  151.3818 H   0  0  0  0  0  0  0  0  0  0  0  0
  143.4387  131.9288  149.7288 H   0  0  0  0  0  0  0  0  0  0  0  0
  146.0983  131.3238  150.8558 H   0  0  0  0  0  0  0  0  0  0  0  0
  145.7008  131.5775  149.1537 H   0  0  0  0  0  0  0  0  0  0  0  0
  151.8460  139.2803  158.2297 H   0  0  0  0  0  0  0  0  0  0  0  0
  150.3880  138.3765  157.6830 H   0  0  0  0  0  0  0  0  0  0  0  0
  152.8717  138.6167  156.1415 H   0  0  0  0  0  0  0  0  0  0  0  0
  151.2704  138.1910  155.4334 H   0  0  0  0  0  0  0  0  0  0  0  0
  151.1558  140.5133  154.7122 H   0  0  0  0  0  0  0  0  0  0  0  0
  152.4566  140.9684  155.8604 H   0  0  0  0  0  0  0  0  0  0  0  0
  1  2  1  0  0  0  0
  1 29  1  0  0  0  0
  1 30  1  0  0  0  0
  1 31  1  0  0  0  0
  2  3  1  0  0  0  0
  3 25  1  0  0  0  0
  3  4  1  0  0  0  0
  3 32  1  0  0  0  0
  4  5  1  0  0  0  0
  4 33  1  0  0  0  0
  4 34  1  0  0  0  0
  5  6  1  0  0  0  0
  5 25  1  0  0  0  0
  5 35  1  0  0  0  0
  6  7  1  0  0  0  0
  6  8  1  0  0  0  0
  7 36  1  0  0  0  0
  7 37  1  0  0  0  0
  7 38  1  0  0  0  0
  8 13  1  0  0  0  0
  8  9  2  0  0  0  0
  9 10  1  0  0  0  0
 10 11  2  0  0  0  0
 10 39  1  0  0  0  0
 11 12  1  0  0  0  0
 12 16  1  0  0  0  0
 12 13  2  0  0  0  0
 13 14  1  0  0  0  0
 14 15  2  0  0  0  0
 15 16  1  0  0  0  0
 15 40  1  0  0  0  0
 16 17  1  0  0  0  0
 17 18  1  0  0  0  0
 17 41  1  0  0  0  0
 17 42  1  0  0  0  0
 18 19  1  0  0  0  0
 18 20  1  0  0  0  0
 18 43  1  0  0  0  0
 19 44  1  0  0  0  0
 20 24  1  0  0  0  0
 20 21  1  0  0  0  0
 20 45  1  0  0  0  0
 21 22  1  0  0  0  0
 21 46  1  0  0  0  0
 21 47  1  0  0  0  0
 22 23  1  0  0  0  0
 22 48  1  0  0  0  0
 22 49  1  0  0  0  0
 23 24  1  0  0  0  0
 23 50  1  0  0  0  0
 23 51  1  0  0  0  0
 25 28  1  0  0  0  0
 25 26  1  0  0  0  0
 26 27  1  0  0  0  0
 26 52  1  0  0  0  0
 26 53  1  0  0  0  0
 27 28  1  0  0  0  0
 27 54  1  0  0  0  0
 27 55  1  0  0  0  0
 28 56  1  0  0  0  0
 28 57  1  0  0  0  0
M  END
> <s_m_source_file>
AV-unprocessed.smi

> <i_m_source_file_index>
276

> <i_lp_mmshare_version>
43012

> <i_f3d_flags>
0

> <s_epik_input>
W0NIMl0xW0NIMl1bQ0gyXUMxMltDQEhdKE9bQ0gzXSlbQ0gyXVtDQEhdMk4oW0NIM10pYyhuW2NIXW4zKWMoYzM0KW5bY0hdbjRbQ0gyXVtDQEhdKFtPSF0pW0NAQEhdNVtDSDJdW0NIMl1bQ0gyXU81

> <s_epik_cmdline>
J2VwaWtfcHl0aG9uJywgJy1waCcsICc3LjAnLCAnLXRuJywgJzgnLCAnLW1hJywgJzIwMCcsICctbWV0YWxfYmluZGluZycsICctaW1hZScsICc8aW5maWxlLm1hZT4nLCAnLW9tYWUnLCAnPG91dGZpbGUubWFlPic=

> <r_lp_tautomer_probability>
1

> <r_epik_Ionization_Penalty>
0.00204117

> <r_epik_Ionization_Penalty_Charging>
0

> <r_epik_Ionization_Penalty_Neutral>
0.00204117

> <r_epik_State_Penalty>
0.00127401

> <r_epik_Charging_Adjusted_Penalty>
0.00127401

> <i_epik_Tot_Q>
0

> <i_epik_Tot_abs_Q>
0

> <r_epik_Metal_State_Penalty>
-0

> <b_epik_Metal_Only>
0

> <s_lp_Force_Field>
OPLS_2005

> <r_lp_Energy>
54.7762

> <b_lp_Chiralities_Consistent>
1

> <s_lp_Variant>
AV-unprocessed.smi:276-10

> <Gold.Version>
5.8.1

> <Gold.Id.Protein>
6NUR|6NUR_protein|mol2

> <Gold.PLP.Fitness>
42.0061

> <Gold.PLP.PLP>
-39.3102

> <Gold.PLP.part.hbond>
-2.0000

> <Gold.PLP.part.metal>
0.0000

> <Gold.PLP.part.buried>
-5.2953

> <Gold.PLP.part.nonpolar>
-34.2912

> <Gold.PLP.part.repulsive>
2.6531

> <Gold.PLP.ligand.clash>
0.0000

> <Gold.PLP.ligand.torsion>
1.9934

> <Gold.PLP.Chemscore.Hbond>
1.0000

> <Gold.PLP.Chemscore.CHOScore>
0.9895

> <Gold.PLP.Chemscore.Metal>
0.0000

> <Gold.Chemscore.Hbonds>
donor molecule, donor type, donor heavy atom, donor atom, acceptor molecule, acceptor atom, score
      L1  H    19    44       P1 10171  1.00
      L1  C    15    40       P1 10171  0.98

> <Gold.PLP.Chemscore.Internal.Correction>
0.7142

> <Gold.Rescore>
     Score         DG    S(hbond)    S(metal)    S(lipo)     H(rot)  DE(clash)    DE(int)     intcor
      9.62     -12.87       0.96        0.00      95.15       2.72       0.35       2.90       ----

> <Gold.Chemscore.Fitness>
9.6182

> <Gold.Chemscore.DG>
-12.8701

> <Gold.Chemscore.ZeroCoef>
-5.4800

> <Gold.Chemscore.Hbond>
0.9620

> <Gold.Chemscore.Metal>
0.0000

> <Gold.Chemscore.Lipo>
95.1538

> <Gold.Chemscore.Internal_Hbond>
0.0000

> <Gold.Chemscore.DEClash>
0.3541

> <Gold.Chemscore.DEInternal>
2.8978

> <Gold.Chemscore.Rot>
2.7172

> <Gold.Chemscore.Internal.Correction>
   9.000000E+99

> <Gold.Chemscore.Hbonds>
donor molecule, donor type, donor heavy atom, donor atom, acceptor molecule, acceptor atom, score
      L1  H    19    44       P1 10171  0.94

> <Gold.Chemscore.Hbond.Weighted>
-3.2131

> <Gold.Chemscore.Metal.Weighted>
-0.0000

> <Gold.Chemscore.Lipo.Weighted>
-11.1330

> <Gold.Chemscore.Internal_Hbond.Weighted>
0.0000

> <Gold.Chemscore.DEClash.Weighted>
0.3541

> <Gold.Chemscore.DEInternal.Weighted>
2.8978

> <Gold.Chemscore.Rot.Weighted>
6.9560

> <Gold.Chemscore.Internal.Correction.Weighted>
   9.000000E+99

> <Gold.Protein.RotatedTorsions>
[ 6907 6896 6895 6894 ] final -163.84 input  -60.11 | X-H torsion
[ 7974 7965 7964 7962 ] final -143.57 input  175.53 | X-H torsion
[ 8008 7997 7996 7995 ] final   94.35 input   59.86 | X-H torsion
[ 10167 10162 10161 10158 ] final -135.42 input  -65.29 | X-H torsion
[ 10718 10713 10712 10709 ] final   -7.22 input   66.30 | X-H torsion
[ 10763 10752 10751 10750 ] final   62.77 input  -60.55 | X-H torsion
[ 11005 11000 10999 10996 ] final   25.04 input  -57.11 | X-H torsion

> <Gold.Protein.ActiveResidues>
 VAL166  LYS551  ARG553  GLY616  TRP617  ASP618  TYR619  PRO620  LYS621  CYS622 
 ASP623  PHE694  ASN695  SER759  ASP760  ASP761  ALA762  ILE779  LEU786  VAL792 
 PHE793  MET794  SER795  GLU796  ALA797  LYS798  CYS799  TRP800  GLU811  SER814 

> <Gold.Protein.RotatedAtoms>
  151.4023  133.3753  159.2733 H   0  0  0  0  0  0  0  0  0  0  0  0  # atno 6907 bound_to 6896
  150.9424  134.8833  159.7631 H   0  0  0  0  0  0  0  0  0  0  0  0  # atno 6908 bound_to 6896
  152.5077  134.3974  159.9457 H   0  0  0  0  0  0  0  0  0  0  0  0  # atno 6909 bound_to 6896
  144.8360  140.5818  143.5484 H   0  0  0  0  0  0  0  0  0  0  0  0  # atno 7974 bound_to 7965
  156.0569  140.3301  155.7416 H   0  0  0  0  0  0  0  0  0  0  0  0  # atno 8008 bound_to 7997
  155.5514  140.0610  157.2866 H   0  0  0  0  0  0  0  0  0  0  0  0  # atno 8009 bound_to 7997
  154.4462  140.1893  156.0679 H   0  0  0  0  0  0  0  0  0  0  0  0  # atno 8010 bound_to 7997
  139.8781  143.6874  152.2631 H   0  0  0  0  0  0  0  0  0  0  0  0  # atno 10167 bound_to 10162
  156.7204  130.5149  149.5869 H   0  0  0  0  0  0  0  0  0  0  0  0  # atno 10718 bound_to 10713
  152.9994  135.5453  154.6245 H   0  0  0  0  0  0  0  0  0  0  0  0  # atno 10763 bound_to 10752
  154.5537  135.2828  155.0987 H   0  0  0  0  0  0  0  0  0  0  0  0  # atno 10764 bound_to 10752
  154.2216  135.6449  153.5199 H   0  0  0  0  0  0  0  0  0  0  0  0  # atno 10765 bound_to 10752
  140.3522  134.2217  155.7679 H   0  0  0  0  0  0  0  0  0  0  0  0  # atno 11005 bound_to 11000
  145.4794  139.1496  143.3770 LP  0  0  0  0  0  0  0  0  0  0  0  0  # atno 17320 bound_to 7965
  146.2658  140.4930  142.8834 LP  0  0  0  0  0  0  0  0  0  0  0  0  # atno 17321 bound_to 7965
  139.7222  144.7600  151.0937 LP  0  0  0  0  0  0  0  0  0  0  0  0  # atno 17342 bound_to 10162
  140.7749  143.5194  150.9555 LP  0  0  0  0  0  0  0  0  0  0  0  0  # atno 17343 bound_to 10162
  156.1598  130.6366  151.0704 LP  0  0  0  0  0  0  0  0  0  0  0  0  # atno 17370 bound_to 10713
  157.6900  131.0813  150.7134 LP  0  0  0  0  0  0  0  0  0  0  0  0  # atno 17371 bound_to 10713
  141.2009  133.7976  157.0468 LP  0  0  0  0  0  0  0  0  0  0  0  0  # atno 17394 bound_to 11000
  140.0694  134.9711  157.1441 LP  0  0  0  0  0  0  0  0  0  0  0  0  # atno 17395 bound_to 11000

$$$$
