AV-unprocessed.smi:712|AV-procd|sdf|3472|dock7
  -GOLD-   22720 0463D 1   1.00000     0.00000
 Structure written by MMmdl.
 50 51  0  0  0  0  0  0  0  0  1 V2000
  151.4682  145.1194  159.8966 C   0  0  0  0  0  0  0  0  0  0  0  0
  152.1630  143.7736  159.9102 C   0  0  0  0  0  0  0  0  0  0  0  0
  152.1176  142.9106  158.7491 C   0  0  0  0  0  0  0  0  0  0  0  0
  152.7211  141.7136  158.8005 C   0  0  0  0  0  0  0  0  0  0  0  0
  153.4072  141.2743  159.9474 N   0  0  0  0  0  0  0  0  0  0  0  0
  153.9908  139.9213  159.8898 C   0  0  0  0  0  0  0  0  0  0  0  0
  153.2862  138.9737  158.9032 C   0  0  0  0  0  0  0  0  0  0  0  0
  153.8522  138.6685  157.8544 O   0  0  0  0  0  0  0  0  0  0  0  0
  152.0526  138.5457  159.2176 N   0  0  0  0  0  0  0  0  0  0  0  0
  151.1670  137.7763  158.3528 C   0  0  0  0  0  0  0  0  0  0  0  0
  149.6981  137.9522  158.7747 C   0  0  2  0  0  0  0  0  0  0  0  0
  149.2965  137.0304  159.9481 C   0  0  0  0  0  0  0  0  0  0  0  0
  147.8828  137.1583  160.2894 N   0  0  0  0  0  0  0  0  0  0  0  0
  147.4822  136.2795  161.3899 C   0  0  0  0  0  0  0  0  0  0  0  0
  145.9839  136.3052  161.7637 C   0  0  0  0  0  0  0  0  0  0  0  0
  145.6235  137.6271  162.4559 C   0  0  0  0  0  0  0  0  0  0  0  0
  145.5906  135.1095  162.6466 C   0  0  0  0  0  0  0  0  0  0  0  0
  147.0838  136.9004  159.0969 C   0  0  0  0  0  0  0  0  0  0  0  0
  147.4837  137.8162  157.9278 C   0  0  0  0  0  0  0  0  0  0  0  0
  148.8717  137.6587  157.6517 O   0  0  0  0  0  0  0  0  0  0  0  0
  153.5039  142.0484  161.0703 C   0  0  0  0  0  0  0  0  0  0  0  0
  154.0998  141.6689  162.0783 O   0  0  0  0  0  0  0  0  0  0  0  0
  152.8321  143.3519  161.0062 C   0  0  0  0  0  0  0  0  0  0  0  0
  150.7138  145.1610  159.1105 H   0  0  0  0  0  0  0  0  0  0  0  0
  152.1914  145.9158  159.7209 H   0  0  0  0  0  0  0  0  0  0  0  0
  150.9722  145.3070  160.8495 H   0  0  0  0  0  0  0  0  0  0  0  0
  151.5981  143.2195  157.8542 H   0  0  0  0  0  0  0  0  0  0  0  0
  152.7135  141.0167  157.9746 H   0  0  0  0  0  0  0  0  0  0  0  0
  155.0436  139.9891  159.6111 H   0  0  0  0  0  0  0  0  0  0  0  0
  153.9914  139.4522  160.8748 H   0  0  0  0  0  0  0  0  0  0  0  0
  151.6714  138.8332  160.1072 H   0  0  0  0  0  0  0  0  0  0  0  0
  151.3003  138.0597  157.3076 H   0  0  0  0  0  0  0  0  0  0  0  0
  151.4511  136.7263  158.4263 H   0  0  0  0  0  0  0  0  0  0  0  0
  149.5376  138.9934  159.0618 H   0  0  0  0  0  0  0  0  0  0  0  0
  149.5233  135.9944  159.6921 H   0  0  0  0  0  0  0  0  0  0  0  0
  149.9089  137.2806  160.8131 H   0  0  0  0  0  0  0  0  0  0  0  0
  147.7425  135.2521  161.1308 H   0  0  0  0  0  0  0  0  0  0  0  0
  148.0749  136.5197  162.2738 H   0  0  0  0  0  0  0  0  0  0  0  0
  145.3891  136.2647  160.8526 H   0  0  0  0  0  0  0  0  0  0  0  0
  146.1794  137.7526  163.3856 H   0  0  0  0  0  0  0  0  0  0  0  0
  144.5606  137.6684  162.6955 H   0  0  0  0  0  0  0  0  0  0  0  0
  145.8481  138.4803  161.8150 H   0  0  0  0  0  0  0  0  0  0  0  0
  146.1727  135.0893  163.5683 H   0  0  0  0  0  0  0  0  0  0  0  0
  145.7524  134.1638  162.1287 H   0  0  0  0  0  0  0  0  0  0  0  0
  144.5360  135.1524  162.9199 H   0  0  0  0  0  0  0  0  0  0  0  0
  147.1987  135.8586  158.7930 H   0  0  0  0  0  0  0  0  0  0  0  0
  146.0264  137.0448  159.3211 H   0  0  0  0  0  0  0  0  0  0  0  0
  146.9118  137.5628  157.0351 H   0  0  0  0  0  0  0  0  0  0  0  0
  147.2673  138.8597  158.1620 H   0  0  0  0  0  0  0  0  0  0  0  0
  152.8701  143.9911  161.8766 H   0  0  0  0  0  0  0  0  0  0  0  0
  1  2  1  0  0  0  0
  1 24  1  0  0  0  0
  1 25  1  0  0  0  0
  1 26  1  0  0  0  0
  2 23  2  0  0  0  0
  2  3  1  0  0  0  0
  3  4  2  0  0  0  0
  3 27  1  0  0  0  0
  4  5  1  0  0  0  0
  4 28  1  0  0  0  0
  5  6  1  0  0  0  0
  5 21  1  0  0  0  0
  6  7  1  0  0  0  0
  6 29  1  0  0  0  0
  6 30  1  0  0  0  0
  7  8  2  0  0  0  0
  7  9  1  0  0  0  0
  9 10  1  0  0  0  0
  9 31  1  0  0  0  0
 10 11  1  0  0  0  0
 10 32  1  0  0  0  0
 10 33  1  0  0  0  0
 11 20  1  0  0  0  0
 11 12  1  0  0  0  0
 11 34  1  0  0  0  0
 12 13  1  0  0  0  0
 12 35  1  0  0  0  0
 12 36  1  0  0  0  0
 13 14  1  0  0  0  0
 13 18  1  0  0  0  0
 14 15  1  0  0  0  0
 14 37  1  0  0  0  0
 14 38  1  0  0  0  0
 15 16  1  0  0  0  0
 15 17  1  0  0  0  0
 15 39  1  0  0  0  0
 16 40  1  0  0  0  0
 16 41  1  0  0  0  0
 16 42  1  0  0  0  0
 17 43  1  0  0  0  0
 17 44  1  0  0  0  0
 17 45  1  0  0  0  0
 18 19  1  0  0  0  0
 18 46  1  0  0  0  0
 18 47  1  0  0  0  0
 19 20  1  0  0  0  0
 19 48  1  0  0  0  0
 19 49  1  0  0  0  0
 21 22  2  0  0  0  0
 21 23  1  0  0  0  0
 23 50  1  0  0  0  0
M  END
> <s_m_source_file>
AV-unprocessed.smi

> <i_m_source_file_index>
712

> <i_lp_mmshare_version>
43012

> <i_f3d_flags>
0

> <s_epik_input>
W0NIM11jMVtjSF1bY0hdbihjKD1PKVtjSF0xKVtDSDJdQyg9TylbTkhdW0NIMl1bQ0BASF0yW0NIMl1OKFtDSDJdW0NIMl1PMilbQ0gyXVtDSF0oW0NIM10pW0NIM10=

> <s_epik_cmdline>
J2VwaWtfcHl0aG9uJywgJy1waCcsICc3LjAnLCAnLXRuJywgJzgnLCAnLW1hJywgJzIwMCcsICctbWV0YWxfYmluZGluZycsICctaW1hZScsICc8aW5maWxlLm1hZT4nLCAnLW9tYWUnLCAnPG91dGZpbGUubWFlPic=

> <r_lp_tautomer_probability>
1

> <r_epik_Ionization_Penalty>
1.11669

> <r_epik_Ionization_Penalty_Charging>
4.93496e-07

> <r_epik_Ionization_Penalty_Neutral>
1.11669

> <r_epik_State_Penalty>
1.17516

> <r_epik_Charging_Adjusted_Penalty>
1.17516

> <i_epik_Tot_Q>
0

> <i_epik_Tot_abs_Q>
0

> <r_epik_Metal_State_Penalty>
1.17513

> <b_epik_Metal_Only>
0

> <s_lp_Force_Field>
OPLS_2005

> <r_lp_Energy>
32.9939

> <b_lp_Chiralities_Consistent>
1

> <s_lp_Variant>
AV-unprocessed.smi:712-5

> <Gold.Version>
5.8.1

> <Gold.Id.Protein>
6NUR|6NUR_protein|mol2

> <Gold.PLP.Fitness>
47.4645

> <Gold.PLP.PLP>
-43.8768

> <Gold.PLP.part.hbond>
-3.9143

> <Gold.PLP.part.metal>
0.0000

> <Gold.PLP.part.buried>
-4.8595

> <Gold.PLP.part.nonpolar>
-36.3782

> <Gold.PLP.part.repulsive>
0.1144

> <Gold.PLP.ligand.clash>
0.0000

> <Gold.PLP.ligand.torsion>
0.9709

> <Gold.PLP.Chemscore.Hbond>
1.8112

> <Gold.PLP.Chemscore.CHOScore>
0.0000

> <Gold.PLP.Chemscore.Metal>
0.0000

> <Gold.Chemscore.Hbonds>
donor molecule, donor type, donor heavy atom, donor atom, acceptor molecule, acceptor atom, score
      P1  H  6934  6947       L1    13  0.70
      P1  H  7997  8009       L1     8  0.99

> <Gold.PLP.Chemscore.Internal.Correction>
0.0960

> <Gold.Rescore>
     Score         DG    S(hbond)    S(metal)    S(lipo)     H(rot)  DE(clash)    DE(int)     intcor
     16.49     -17.59       1.00        0.00     114.95       1.82       0.17       0.94       ----

> <Gold.Chemscore.Fitness>
16.4859

> <Gold.Chemscore.DG>
-17.5924

> <Gold.Chemscore.ZeroCoef>
-5.4800

> <Gold.Chemscore.Hbond>
0.9981

> <Gold.Chemscore.Metal>
0.0000

> <Gold.Chemscore.Lipo>
114.9483

> <Gold.Chemscore.Internal_Hbond>
0.0000

> <Gold.Chemscore.DEClash>
0.1704

> <Gold.Chemscore.DEInternal>
0.9361

> <Gold.Chemscore.Rot>
1.8243

> <Gold.Chemscore.Internal.Correction>
   9.000000E+99

> <Gold.Chemscore.Hbonds>
donor molecule, donor type, donor heavy atom, donor atom, acceptor molecule, acceptor atom, score
      P1  H  6934  6947       L1    13  0.10
      P1  H  7997  8009       L1     8  0.78

> <Gold.Chemscore.Hbond.Weighted>
-3.3337

> <Gold.Chemscore.Metal.Weighted>
-0.0000

> <Gold.Chemscore.Lipo.Weighted>
-13.4490

> <Gold.Chemscore.Internal_Hbond.Weighted>
0.0000

> <Gold.Chemscore.DEClash.Weighted>
0.1704

> <Gold.Chemscore.DEInternal.Weighted>
0.9361

> <Gold.Chemscore.Rot.Weighted>
4.6703

> <Gold.Chemscore.Internal.Correction.Weighted>
   9.000000E+99

> <Gold.Protein.RotatedTorsions>
[ 6907 6896 6895 6894 ] final   84.36 input  -60.11 | X-H torsion
[ 7974 7965 7964 7962 ] final   89.82 input  175.53 | X-H torsion
[ 8008 7997 7996 7995 ] final  133.78 input   59.86 | X-H torsion
[ 10167 10162 10161 10158 ] final    3.93 input  -65.29 | X-H torsion
[ 10718 10713 10712 10709 ] final   39.34 input   66.30 | X-H torsion
[ 10763 10752 10751 10750 ] final  119.55 input  -60.55 | X-H torsion
[ 11005 11000 10999 10996 ] final   49.53 input  -57.11 | X-H torsion

> <Gold.Protein.ActiveResidues>
 VAL166  LYS551  ARG553  GLY616  TRP617  ASP618  TYR619  PRO620  LYS621  CYS622 
 ASP623  PHE694  ASN695  SER759  ASP760  ASP761  ALA762  ILE779  LEU786  VAL792 
 PHE793  MET794  SER795  GLU796  ALA797  LYS798  CYS799  TRP800  GLU811  SER814 

> <Gold.Protein.RotatedAtoms>
  152.5350  134.2753  159.8986 H   0  0  0  0  0  0  0  0  0  0  0  0  # atno 6907 bound_to 6896
  151.2709  133.4249  159.2629 H   0  0  0  0  0  0  0  0  0  0  0  0  # atno 6908 bound_to 6896
  151.0369  134.9594  159.8197 H   0  0  0  0  0  0  0  0  0  0  0  0  # atno 6909 bound_to 6896
  145.5273  139.2281  143.2638 H   0  0  0  0  0  0  0  0  0  0  0  0  # atno 7974 bound_to 7965
  156.2995  140.2513  156.3309 H   0  0  0  0  0  0  0  0  0  0  0  0  # atno 8008 bound_to 7997
  154.9145  140.0402  157.1984 H   0  0  0  0  0  0  0  0  0  0  0  0  # atno 8009 bound_to 7997
  154.8372  140.2885  155.5687 H   0  0  0  0  0  0  0  0  0  0  0  0  # atno 8010 bound_to 7997
  140.6561  143.7424  150.7656 H   0  0  0  0  0  0  0  0  0  0  0  0  # atno 10167 bound_to 10162
  157.3694  130.7693  149.7108 H   0  0  0  0  0  0  0  0  0  0  0  0  # atno 10718 bound_to 10713
  153.5848  135.3477  155.2888 H   0  0  0  0  0  0  0  0  0  0  0  0  # atno 10763 bound_to 10752
  154.8662  135.4190  154.2581 H   0  0  0  0  0  0  0  0  0  0  0  0  # atno 10764 bound_to 10752
  153.3375  135.7048  153.6966 H   0  0  0  0  0  0  0  0  0  0  0  0  # atno 10765 bound_to 10752
  140.1095  134.4973  155.8690 H   0  0  0  0  0  0  0  0  0  0  0  0  # atno 11005 bound_to 11000
  146.2067  140.6088  142.9078 LP  0  0  0  0  0  0  0  0  0  0  0  0  # atno 17320 bound_to 7965
  144.7644  140.5497  143.6713 LP  0  0  0  0  0  0  0  0  0  0  0  0  # atno 17321 bound_to 7965
  140.1084  143.4722  152.2385 LP  0  0  0  0  0  0  0  0  0  0  0  0  # atno 17342 bound_to 10162
  139.5784  144.7498  151.3704 LP  0  0  0  0  0  0  0  0  0  0  0  0  # atno 17343 bound_to 10162
  155.9752  130.4091  150.3863 LP  0  0  0  0  0  0  0  0  0  0  0  0  # atno 17370 bound_to 10713
  157.1952  131.0425  151.2679 LP  0  0  0  0  0  0  0  0  0  0  0  0  # atno 17371 bound_to 10713
  141.2127  133.6722  156.6677 LP  0  0  0  0  0  0  0  0  0  0  0  0  # atno 17394 bound_to 11000
  140.3110  134.8086  157.4176 LP  0  0  0  0  0  0  0  0  0  0  0  0  # atno 17395 bound_to 11000

$$$$
