AV-unprocessed.smi:1412|AV-procd|sdf|5740|dock2
  -GOLD-   22720 5373D 1   1.00000     0.00000
 Structure written by MMmdl.
 41 42  0  0  0  0  0  0  0  0  1 V2000
  146.1658  142.7067  154.0103 C   0  0  0  0  0  0  0  0  0  0  0  0
  147.5369  142.0344  153.8040 C   0  0  0  0  0  0  0  0  0  0  0  0
  147.8404  140.7280  154.6140 C   0  0  1  0  0  0  0  0  0  0  0  0
  149.3357  140.3704  154.4166 C   0  0  0  0  0  0  0  0  0  0  0  0
  147.6354  141.0314  156.1296 C   0  0  0  0  0  0  0  0  0  0  0  0
  148.4441  142.1649  156.5716 N   0  0  0  0  0  0  0  0  0  0  0  0
  148.9913  142.3001  157.7865 C   0  0  0  0  0  0  0  0  0  0  0  0
  148.8438  141.4817  158.6939 O   0  0  0  0  0  0  0  0  0  0  0  0
  149.7108  143.4308  157.8690 N   0  0  0  0  0  0  0  0  0  0  0  0
  150.4679  143.9040  158.9698 C   0  0  0  0  0  0  0  0  0  0  0  0
  150.1050  143.5123  160.1968 N   0  0  0  0  0  0  0  0  0  0  0  0
  150.9263  144.0514  161.1797 N   0  0  0  0  0  0  0  0  0  0  0  0
  151.8768  144.8304  160.6547 C   0  0  0  0  0  0  0  0  0  0  0  0
  151.8648  144.9829  158.9067 S   0  0  0  0  0  0  0  0  0  0  0  0
  146.9329  139.6268  154.1644 N   0  0  0  0  0  0  0  0  0  0  0  0
  147.1244  139.1903  152.7745 C   0  0  0  0  0  0  0  0  0  0  0  0
  146.0804  138.1476  152.3398 C   0  0  0  0  0  0  0  0  0  0  0  0
  146.1193  137.0322  153.2201 O   0  0  0  0  0  0  0  0  0  0  0  0
  145.8693  137.4031  154.5693 C   0  0  0  0  0  0  0  0  0  0  0  0
  146.9144  138.4353  155.0250 C   0  0  0  0  0  0  0  0  0  0  0  0
  146.1235  143.6479  153.4621 H   0  0  0  0  0  0  0  0  0  0  0  0
  145.9735  142.9366  155.0574 H   0  0  0  0  0  0  0  0  0  0  0  0
  145.3462  142.0930  153.6377 H   0  0  0  0  0  0  0  0  0  0  0  0
  147.6529  141.8346  152.7377 H   0  0  0  0  0  0  0  0  0  0  0  0
  148.2805  142.7939  154.0436 H   0  0  0  0  0  0  0  0  0  0  0  0
  149.9898  141.1584  154.7884 H   0  0  0  0  0  0  0  0  0  0  0  0
  149.5881  140.2223  153.3669 H   0  0  0  0  0  0  0  0  0  0  0  0
  149.6165  139.4657  154.9546 H   0  0  0  0  0  0  0  0  0  0  0  0
  146.5915  141.2372  156.3626 H   0  0  0  0  0  0  0  0  0  0  0  0
  147.8600  140.1468  156.7262 H   0  0  0  0  0  0  0  0  0  0  0  0
  148.6141  142.8881  155.8876 H   0  0  0  0  0  0  0  0  0  0  0  0
  149.7335  144.0132  157.0449 H   0  0  0  0  0  0  0  0  0  0  0  0
  152.5901  145.3188  161.3019 H   0  0  0  0  0  0  0  0  0  0  0  0
  147.0463  140.0278  152.0847 H   0  0  0  0  0  0  0  0  0  0  0  0
  148.1196  138.7644  152.6470 H   0  0  0  0  0  0  0  0  0  0  0  0
  145.0797  138.5825  152.3351 H   0  0  0  0  0  0  0  0  0  0  0  0
  146.2860  137.8071  151.3250 H   0  0  0  0  0  0  0  0  0  0  0  0
  144.8603  137.8074  154.6636 H   0  0  0  0  0  0  0  0  0  0  0  0
  145.9178  136.5135  155.1972 H   0  0  0  0  0  0  0  0  0  0  0  0
  147.8944  137.9586  155.0336 H   0  0  0  0  0  0  0  0  0  0  0  0
  146.6781  138.6959  156.0541 H   0  0  0  0  0  0  0  0  0  0  0  0
  1  2  1  0  0  0  0
  1 21  1  0  0  0  0
  1 22  1  0  0  0  0
  1 23  1  0  0  0  0
  2  3  1  0  0  0  0
  2 24  1  0  0  0  0
  2 25  1  0  0  0  0
  3  4  1  0  0  0  0
  3  5  1  0  0  0  0
  3 15  1  0  0  0  0
  4 26  1  0  0  0  0
  4 27  1  0  0  0  0
  4 28  1  0  0  0  0
  5  6  1  0  0  0  0
  5 29  1  0  0  0  0
  5 30  1  0  0  0  0
  6  7  1  0  0  0  0
  6 31  1  0  0  0  0
  7  8  2  0  0  0  0
  7  9  1  0  0  0  0
  9 10  1  0  0  0  0
  9 32  1  0  0  0  0
 10 14  1  0  0  0  0
 10 11  2  0  0  0  0
 11 12  1  0  0  0  0
 12 13  2  0  0  0  0
 13 14  1  0  0  0  0
 13 33  1  0  0  0  0
 15 20  1  0  0  0  0
 15 16  1  0  0  0  0
 16 17  1  0  0  0  0
 16 34  1  0  0  0  0
 16 35  1  0  0  0  0
 17 18  1  0  0  0  0
 17 36  1  0  0  0  0
 17 37  1  0  0  0  0
 18 19  1  0  0  0  0
 19 20  1  0  0  0  0
 19 38  1  0  0  0  0
 19 39  1  0  0  0  0
 20 40  1  0  0  0  0
 20 41  1  0  0  0  0
M  END
> <s_m_source_file>
AV-unprocessed.smi

> <i_m_source_file_index>
1412

> <i_lp_mmshare_version>
43012

> <i_f3d_flags>
0

> <s_epik_input>
W0NIMl0xW0NIMl1PW0NIMl1bQ0gyXU4xW0NAQF0oW0NIM10pKFtDSDJdW0NIM10pW0NIMl1bTkhdQyg9TylbTkhdYzJubltjSF1zMg==

> <s_epik_cmdline>
J2VwaWtfcHl0aG9uJywgJy1waCcsICc3LjAnLCAnLXRuJywgJzgnLCAnLW1hJywgJzIwMCcsICctbWV0YWxfYmluZGluZycsICctaW1hZScsICc8aW5maWxlLm1hZT4nLCAnLW9tYWUnLCAnPG91dGZpbGUubWFlPic=

> <r_lp_tautomer_probability>
1

> <r_epik_Ionization_Penalty>
0.295854

> <r_epik_Ionization_Penalty_Charging>
0

> <r_epik_Ionization_Penalty_Neutral>
0.295854

> <r_epik_State_Penalty>
0.288723

> <r_epik_Charging_Adjusted_Penalty>
0.288723

> <i_epik_Tot_Q>
0

> <i_epik_Tot_abs_Q>
0

> <r_epik_Metal_State_Penalty>
0.510549

> <b_epik_Metal_Only>
0

> <s_lp_Force_Field>
OPLS_2005

> <r_lp_Energy>
43.1066

> <b_lp_Chiralities_Consistent>
1

> <s_lp_Variant>
AV-unprocessed.smi:1412-1

> <Gold.Version>
5.8.1

> <Gold.Id.Protein>
6NUR|6NUR_protein|mol2

> <Gold.PLP.Fitness>
38.2889

> <Gold.PLP.PLP>
-33.5877

> <Gold.PLP.part.hbond>
-5.9437

> <Gold.PLP.part.metal>
0.0000

> <Gold.PLP.part.buried>
-2.1852

> <Gold.PLP.part.nonpolar>
-25.7174

> <Gold.PLP.part.repulsive>
0.6537

> <Gold.PLP.ligand.clash>
0.0000

> <Gold.PLP.ligand.torsion>
0.4954

> <Gold.PLP.Chemscore.Hbond>
1.8720

> <Gold.PLP.Chemscore.CHOScore>
0.0000

> <Gold.PLP.Chemscore.Metal>
0.0000

> <Gold.Chemscore.Hbonds>
donor molecule, donor type, donor heavy atom, donor atom, acceptor molecule, acceptor atom, score
      L1  H     6    31       P1  8028  0.88
      L1  H     9    32       P1  8028  0.99
      P1  H  6933  6944       L1    11  0.01

> <Gold.PLP.Chemscore.Internal.Correction>
0.0761

> <Gold.Rescore>
     Score         DG    S(hbond)    S(metal)    S(lipo)     H(rot)  DE(clash)    DE(int)     intcor
     12.86     -14.93       1.76        0.00      71.15       1.86       0.25       1.81       ----

> <Gold.Chemscore.Fitness>
12.8600

> <Gold.Chemscore.DG>
-14.9286

> <Gold.Chemscore.ZeroCoef>
-5.4800

> <Gold.Chemscore.Hbond>
1.7630

> <Gold.Chemscore.Metal>
0.0000

> <Gold.Chemscore.Lipo>
71.1453

> <Gold.Chemscore.Internal_Hbond>
0.0000

> <Gold.Chemscore.DEClash>
0.2538

> <Gold.Chemscore.DEInternal>
1.8148

> <Gold.Chemscore.Rot>
1.8609

> <Gold.Chemscore.Internal.Correction>
   9.000000E+99

> <Gold.Chemscore.Hbonds>
donor molecule, donor type, donor heavy atom, donor atom, acceptor molecule, acceptor atom, score
      L1  H     6    31       P1  8028  0.86
      L1  H     9    32       P1  8028  0.74
      P1  H  6933  6944       L1    11  0.01

> <Gold.Chemscore.Hbond.Weighted>
-5.8883

> <Gold.Chemscore.Metal.Weighted>
-0.0000

> <Gold.Chemscore.Lipo.Weighted>
-8.3240

> <Gold.Chemscore.Internal_Hbond.Weighted>
0.0000

> <Gold.Chemscore.DEClash.Weighted>
0.2538

> <Gold.Chemscore.DEInternal.Weighted>
1.8148

> <Gold.Chemscore.Rot.Weighted>
4.7638

> <Gold.Chemscore.Internal.Correction.Weighted>
   9.000000E+99

> <Gold.Protein.RotatedTorsions>
[ 6907 6896 6895 6894 ] final   94.91 input  -60.11 | X-H torsion
[ 7974 7965 7964 7962 ] final  -57.11 input  175.53 | X-H torsion
[ 8008 7997 7996 7995 ] final  109.20 input   59.86 | X-H torsion
[ 10167 10162 10161 10158 ] final  -79.98 input  -65.29 | X-H torsion
[ 10718 10713 10712 10709 ] final  -74.80 input   66.30 | X-H torsion
[ 10763 10752 10751 10750 ] final   70.79 input  -60.55 | X-H torsion
[ 11005 11000 10999 10996 ] final  -98.02 input  -57.11 | X-H torsion

> <Gold.Protein.ActiveResidues>
 VAL166  LYS551  ARG553  GLY616  TRP617  ASP618  TYR619  PRO620  LYS621  CYS622 
 ASP623  PHE694  ASN695  SER759  ASP760  ASP761  ALA762  ILE779  LEU786  VAL792 
 PHE793  MET794  SER795  GLU796  ALA797  LYS798  CYS799  TRP800  GLU811  SER814 

> <Gold.Protein.RotatedAtoms>
  152.5447  134.1121  159.8362 H   0  0  0  0  0  0  0  0  0  0  0  0  # atno 6907 bound_to 6896
  151.1187  133.5113  159.2610 H   0  0  0  0  0  0  0  0  0  0  0  0  # atno 6908 bound_to 6896
  151.1803  135.0368  159.8844 H   0  0  0  0  0  0  0  0  0  0  0  0  # atno 6909 bound_to 6896
  145.8549  140.8326  142.9967 H   0  0  0  0  0  0  0  0  0  0  0  0  # atno 7974 bound_to 7965
  156.1961  140.3062  155.9430 H   0  0  0  0  0  0  0  0  0  0  0  0  # atno 8008 bound_to 7997
  155.3062  140.0449  157.3049 H   0  0  0  0  0  0  0  0  0  0  0  0  # atno 8009 bound_to 7997
  154.5512  140.2292  155.8492 H   0  0  0  0  0  0  0  0  0  0  0  0  # atno 8010 bound_to 7997
  140.4545  143.2473  151.8441 H   0  0  0  0  0  0  0  0  0  0  0  0  # atno 10167 bound_to 10162
  156.0230  130.4425  150.2946 H   0  0  0  0  0  0  0  0  0  0  0  0  # atno 10718 bound_to 10713
  153.0362  135.5161  154.7495 H   0  0  0  0  0  0  0  0  0  0  0  0  # atno 10763 bound_to 10752
  154.6470  135.2920  155.0036 H   0  0  0  0  0  0  0  0  0  0  0  0  # atno 10764 bound_to 10752
  154.0934  135.6647  153.4909 H   0  0  0  0  0  0  0  0  0  0  0  0  # atno 10765 bound_to 10752
  141.1359  133.8214  157.0784 H   0  0  0  0  0  0  0  0  0  0  0  0  # atno 11005 bound_to 11000
  144.6728  140.1008  143.7460 LP  0  0  0  0  0  0  0  0  0  0  0  0  # atno 17320 bound_to 7965
  145.9315  139.2609  143.1322 LP  0  0  0  0  0  0  0  0  0  0  0  0  # atno 17321 bound_to 7965
  139.4800  144.5081  151.8969 LP  0  0  0  0  0  0  0  0  0  0  0  0  # atno 17342 bound_to 10162
  140.4168  144.2296  150.5887 LP  0  0  0  0  0  0  0  0  0  0  0  0  # atno 17343 bound_to 10162
  157.1049  131.0206  151.3071 LP  0  0  0  0  0  0  0  0  0  0  0  0  # atno 17370 bound_to 10713
  157.4750  130.7731  149.7359 LP  0  0  0  0  0  0  0  0  0  0  0  0  # atno 17371 bound_to 10713
  140.0467  134.9827  157.1062 LP  0  0  0  0  0  0  0  0  0  0  0  0  # atno 17394 bound_to 11000
  140.4052  134.2040  155.7163 LP  0  0  0  0  0  0  0  0  0  0  0  0  # atno 17395 bound_to 11000

$$$$
