AV-unprocessed.smi:170|AV-procd|sdf|1411|dock10
  -GOLD-   2262019173D 1   1.00000     0.00000
 Structure written by MMmdl.
 57 61  0  0  0  0  0  0  0  0  1 V2000
  151.9197  134.1421  156.8611 O   0  0  0  0  0  0  0  0  0  0  0  0
  150.7909  133.8459  156.0602 C   0  0  1  0  0  0  0  0  0  0  0  0
  150.5669  134.9951  155.0579 C   0  0  0  0  0  0  0  0  0  0  0  0
  150.6260  136.3016  155.6884 N   0  0  0  0  0  0  0  0  0  0  0  0
  149.8728  136.7407  156.7542 C   0  0  0  0  0  0  0  0  0  0  0  0
  150.1195  137.9618  157.1448 N   0  0  0  0  0  0  0  0  0  0  0  0
  151.1169  138.3939  156.2802 C   0  0  0  0  0  0  0  0  0  0  0  0
  151.8489  139.6015  156.1456 C   0  0  0  0  0  0  0  0  0  0  0  0
  151.6537  140.6482  156.9791 N   0  0  0  0  0  0  0  0  0  0  0  0
  152.2662  140.4191  158.2835 C   0  0  0  0  0  0  0  0  0  0  0  0
  152.1726  141.6867  159.1423 C   0  0  0  0  0  0  0  0  0  0  0  0
  150.8061  142.0578  159.2617 O   0  0  0  0  0  0  0  0  0  0  0  0
  150.2269  142.3689  157.9993 C   0  0  0  0  0  0  0  0  0  0  0  0
  150.2726  141.1415  157.0572 C   0  0  1  0  0  0  0  0  0  0  0  0
  149.6845  141.4743  155.6595 C   0  0  0  0  0  0  0  0  0  0  0  0
  148.3013  140.8815  155.3986 C   0  0  0  0  0  0  0  0  0  0  0  0
  148.1559  139.6346  154.5131 C   0  0  0  0  0  0  0  0  0  0  0  0
  146.8345  140.2108  153.9980 C   0  0  0  0  0  0  0  0  0  0  0  0
  147.3443  141.5891  154.4276 C   0  0  0  0  0  0  0  0  0  0  0  0
  152.7855  139.6746  155.1628 N   0  0  0  0  0  0  0  0  0  0  0  0
  152.9897  138.6258  154.3593 C   0  0  0  0  0  0  0  0  0  0  0  0
  152.3854  137.4349  154.3694 N   0  0  0  0  0  0  0  0  0  0  0  0
  151.4477  137.3637  155.3576 C   0  0  0  0  0  0  0  0  0  0  0  0
  151.0182  132.4951  155.3568 C   0  0  1  0  0  0  0  0  0  0  0  0
  151.1818  131.3074  156.3049 C   0  0  0  0  0  0  0  0  0  0  0  0
  150.8422  130.1458  155.3989 C   0  0  0  0  0  0  0  0  0  0  0  0
  149.7273  130.7256  154.5306 C   0  0  0  0  0  0  0  0  0  0  0  0
  149.8830  132.1425  154.5714 O   0  0  0  0  0  0  0  0  0  0  0  0
  151.7362  133.8759  157.7490 H   0  0  0  0  0  0  0  0  0  0  0  0
  149.9237  133.7671  156.7174 H   0  0  0  0  0  0  0  0  0  0  0  0
  151.3092  134.9578  154.2598 H   0  0  0  0  0  0  0  0  0  0  0  0
  149.5917  134.8968  154.5798 H   0  0  0  0  0  0  0  0  0  0  0  0
  149.1294  136.1225  157.2362 H   0  0  0  0  0  0  0  0  0  0  0  0
  151.7639  139.5939  158.7912 H   0  0  0  0  0  0  0  0  0  0  0  0
  153.3116  140.1336  158.1575 H   0  0  0  0  0  0  0  0  0  0  0  0
  152.5796  141.5006  160.1362 H   0  0  0  0  0  0  0  0  0  0  0  0
  152.7512  142.5019  158.7045 H   0  0  0  0  0  0  0  0  0  0  0  0
  149.1987  142.6807  158.1801 H   0  0  0  0  0  0  0  0  0  0  0  0
  150.7444  143.2208  157.5550 H   0  0  0  0  0  0  0  0  0  0  0  0
  149.6669  140.3527  157.5063 H   0  0  0  0  0  0  0  0  0  0  0  0
  149.6454  142.5571  155.5348 H   0  0  0  0  0  0  0  0  0  0  0  0
  150.3581  141.1158  154.8806 H   0  0  0  0  0  0  0  0  0  0  0  0
  147.7659  140.7107  156.3345 H   0  0  0  0  0  0  0  0  0  0  0  0
  148.9202  139.5751  153.7361 H   0  0  0  0  0  0  0  0  0  0  0  0
  148.0650  138.6957  155.0601 H   0  0  0  0  0  0  0  0  0  0  0  0
  146.6730  140.0971  152.9258 H   0  0  0  0  0  0  0  0  0  0  0  0
  145.9718  139.8783  154.5777 H   0  0  0  0  0  0  0  0  0  0  0  0
  146.5974  142.2244  154.9044 H   0  0  0  0  0  0  0  0  0  0  0  0
  147.8632  142.1136  153.6233 H   0  0  0  0  0  0  0  0  0  0  0  0
  153.7476  138.7587  153.6014 H   0  0  0  0  0  0  0  0  0  0  0  0
  151.8831  132.5506  154.6933 H   0  0  0  0  0  0  0  0  0  0  0  0
  152.1824  131.2363  156.7321 H   0  0  0  0  0  0  0  0  0  0  0  0
  150.4627  131.3652  157.1233 H   0  0  0  0  0  0  0  0  0  0  0  0
  151.7050  129.8924  154.7811 H   0  0  0  0  0  0  0  0  0  0  0  0
  150.5384  129.2514  155.9432 H   0  0  0  0  0  0  0  0  0  0  0  0
  149.7750  130.3545  153.5065 H   0  0  0  0  0  0  0  0  0  0  0  0
  148.7476  130.4722  154.9370 H   0  0  0  0  0  0  0  0  0  0  0  0
  1  2  1  0  0  0  0
  1 29  1  0  0  0  0
  2  3  1  0  0  0  0
  2 24  1  0  0  0  0
  2 30  1  0  0  0  0
  3  4  1  0  0  0  0
  3 31  1  0  0  0  0
  3 32  1  0  0  0  0
  4 23  1  0  0  0  0
  4  5  1  0  0  0  0
  5  6  2  0  0  0  0
  5 33  1  0  0  0  0
  6  7  1  0  0  0  0
  7 23  2  0  0  0  0
  7  8  1  0  0  0  0
  8  9  1  0  0  0  0
  8 20  2  0  0  0  0
  9 14  1  0  0  0  0
  9 10  1  0  0  0  0
 10 11  1  0  0  0  0
 10 34  1  0  0  0  0
 10 35  1  0  0  0  0
 11 12  1  0  0  0  0
 11 36  1  0  0  0  0
 11 37  1  0  0  0  0
 12 13  1  0  0  0  0
 13 14  1  0  0  0  0
 13 38  1  0  0  0  0
 13 39  1  0  0  0  0
 14 15  1  0  0  0  0
 14 40  1  0  0  0  0
 15 16  1  0  0  0  0
 15 41  1  0  0  0  0
 15 42  1  0  0  0  0
 16 19  1  0  0  0  0
 16 17  1  0  0  0  0
 16 43  1  0  0  0  0
 17 18  1  0  0  0  0
 17 44  1  0  0  0  0
 17 45  1  0  0  0  0
 18 19  1  0  0  0  0
 18 46  1  0  0  0  0
 18 47  1  0  0  0  0
 19 48  1  0  0  0  0
 19 49  1  0  0  0  0
 20 21  1  0  0  0  0
 21 22  2  0  0  0  0
 21 50  1  0  0  0  0
 22 23  1  0  0  0  0
 24 28  1  0  0  0  0
 24 25  1  0  0  0  0
 24 51  1  0  0  0  0
 25 26  1  0  0  0  0
 25 52  1  0  0  0  0
 25 53  1  0  0  0  0
 26 27  1  0  0  0  0
 26 54  1  0  0  0  0
 26 55  1  0  0  0  0
 27 28  1  0  0  0  0
 27 56  1  0  0  0  0
 27 57  1  0  0  0  0
M  END
> <s_m_source_file>
AV-unprocessed.smi

> <i_m_source_file_index>
170

> <i_lp_mmshare_version>
43012

> <i_f3d_flags>
0

> <s_epik_input>
TzFbQ0gyXVtDSDJdW0NIMl1bQ0BIXTFbQ0BIXShbT0hdKVtDSDJdbihbY0hdbjIpYyhjMjMpbltjSF1uYzNONFtDSDJdW0NIMl1PW0NIMl1bQ0BIXTRbQ0gyXVtDSF01W0NIMl1bQ0gyXVtDSDJdNQ==

> <s_epik_cmdline>
J2VwaWtfcHl0aG9uJywgJy1waCcsICc3LjAnLCAnLXRuJywgJzgnLCAnLW1hJywgJzIwMCcsICctbWV0YWxfYmluZGluZycsICctaW1hZScsICc8aW5maWxlLm1hZT4nLCAnLW9tYWUnLCAnPG91dGZpbGUubWFlPic=

> <r_lp_tautomer_probability>
1

> <r_epik_Ionization_Penalty>
4.98275e-05

> <r_epik_Ionization_Penalty_Charging>
0

> <r_epik_Ionization_Penalty_Neutral>
4.98275e-05

> <r_epik_State_Penalty>
-0

> <r_epik_Charging_Adjusted_Penalty>
0

> <i_epik_Tot_Q>
0

> <i_epik_Tot_abs_Q>
0

> <r_epik_Metal_State_Penalty>
-0

> <b_epik_Metal_Only>
0

> <s_lp_Force_Field>
OPLS_2005

> <r_lp_Energy>
51.0174

> <b_lp_Chiralities_Consistent>
1

> <s_lp_Variant>
AV-unprocessed.smi:170-6

> <Gold.Version>
5.8.1

> <Gold.Id.Protein>
6NUR|6NUR_protein|mol2

> <Gold.PLP.Fitness>
49.1578

> <Gold.PLP.PLP>
-46.5295

> <Gold.PLP.part.hbond>
-3.8856

> <Gold.PLP.part.metal>
0.0000

> <Gold.PLP.part.buried>
-7.2830

> <Gold.PLP.part.nonpolar>
-35.2465

> <Gold.PLP.part.repulsive>
0.2253

> <Gold.PLP.ligand.clash>
0.0000

> <Gold.PLP.ligand.torsion>
1.4732

> <Gold.PLP.Chemscore.Hbond>
1.7602

> <Gold.PLP.Chemscore.CHOScore>
0.0000

> <Gold.PLP.Chemscore.Metal>
0.0000

> <Gold.Chemscore.Hbonds>
donor molecule, donor type, donor heavy atom, donor atom, acceptor molecule, acceptor atom, score
      P1  H  7989  7998       L1    20  0.10
      P1  H  7997  8010       L1    20  1.00
      P1  H 10752 10765       L1    22  0.70

> <Gold.PLP.Chemscore.Internal.Correction>
0.2941

> <Gold.Rescore>
     Score         DG    S(hbond)    S(metal)    S(lipo)     H(rot)  DE(clash)    DE(int)     intcor
     13.42     -14.50       1.37        0.00      95.28       2.61       0.02       1.05       ----

> <Gold.Chemscore.Fitness>
13.4249

> <Gold.Chemscore.DG>
-14.4980

> <Gold.Chemscore.ZeroCoef>
-5.4800

> <Gold.Chemscore.Hbond>
1.3661

> <Gold.Chemscore.Metal>
0.0000

> <Gold.Chemscore.Lipo>
95.2850

> <Gold.Chemscore.Internal_Hbond>
0.0000

> <Gold.Chemscore.DEClash>
0.0210

> <Gold.Chemscore.DEInternal>
1.0521

> <Gold.Chemscore.Rot>
2.6144

> <Gold.Chemscore.Internal.Correction>
   9.000000E+99

> <Gold.Chemscore.Hbonds>
donor molecule, donor type, donor heavy atom, donor atom, acceptor molecule, acceptor atom, score
      P1  H  7997  8010       L1    20  0.49
      P1  H 10752 10765       L1    22  0.39

> <Gold.Chemscore.Hbond.Weighted>
-4.5626

> <Gold.Chemscore.Metal.Weighted>
-0.0000

> <Gold.Chemscore.Lipo.Weighted>
-11.1483

> <Gold.Chemscore.Internal_Hbond.Weighted>
0.0000

> <Gold.Chemscore.DEClash.Weighted>
0.0210

> <Gold.Chemscore.DEInternal.Weighted>
1.0521

> <Gold.Chemscore.Rot.Weighted>
6.6929

> <Gold.Chemscore.Internal.Correction.Weighted>
   9.000000E+99

> <Gold.Protein.RotatedTorsions>
[ 6907 6896 6895 6894 ] final   60.61 input  -60.11 | X-H torsion
[ 7974 7965 7964 7962 ] final  142.94 input  175.53 | X-H torsion
[ 8008 7997 7996 7995 ] final  102.97 input   59.86 | X-H torsion
[ 10167 10162 10161 10158 ] final -124.58 input  -65.29 | X-H torsion
[ 10718 10713 10712 10709 ] final   18.47 input   66.30 | X-H torsion
[ 10763 10752 10751 10750 ] final  151.01 input  -60.55 | X-H torsion
[ 11005 11000 10999 10996 ] final -132.24 input  -57.11 | X-H torsion

> <Gold.Protein.ActiveResidues>
 VAL166  LYS551  ARG553  GLY616  TRP617  ASP618  TYR619  PRO620  LYS621  CYS622 
 ASP623  PHE694  ASN695  SER759  ASP760  ASP761  ALA762  ILE779  LEU786  VAL792 
 PHE793  MET794  SER795  GLU796  ALA797  LYS798  CYS799  TRP800  GLU811  SER814 

> <Gold.Protein.RotatedAtoms>
  152.4018  134.6274  160.0066 H   0  0  0  0  0  0  0  0  0  0  0  0  # atno 6907 bound_to 6896
  151.6477  133.3317  159.3152 H   0  0  0  0  0  0  0  0  0  0  0  0  # atno 6908 bound_to 6896
  150.7917  134.6988  159.6583 H   0  0  0  0  0  0  0  0  0  0  0  0  # atno 6909 bound_to 6896
  144.8964  139.5485  143.5774 H   0  0  0  0  0  0  0  0  0  0  0  0  # atno 7974 bound_to 7965
  156.1442  140.3172  155.8543 H   0  0  0  0  0  0  0  0  0  0  0  0  # atno 8008 bound_to 7997
  155.4096  140.0505  157.3049 H   0  0  0  0  0  0  0  0  0  0  0  0  # atno 8009 bound_to 7997
  154.5002  140.2126  155.9375 H   0  0  0  0  0  0  0  0  0  0  0  0  # atno 8010 bound_to 7997
  139.9912  143.5639  152.2341 H   0  0  0  0  0  0  0  0  0  0  0  0  # atno 10167 bound_to 10162
  157.0968  130.6451  149.5862 H   0  0  0  0  0  0  0  0  0  0  0  0  # atno 10718 bound_to 10713
  154.0969  135.2848  155.3260 H   0  0  0  0  0  0  0  0  0  0  0  0  # atno 10763 bound_to 10752
  154.6582  135.5344  153.7988 H   0  0  0  0  0  0  0  0  0  0  0  0  # atno 10764 bound_to 10752
  153.0393  135.6527  154.1135 H   0  0  0  0  0  0  0  0  0  0  0  0  # atno 10765 bound_to 10752
  140.9188  134.1472  157.4331 H   0  0  0  0  0  0  0  0  0  0  0  0  # atno 11005 bound_to 11000
  146.3083  139.7658  142.9039 LP  0  0  0  0  0  0  0  0  0  0  0  0  # atno 17320 bound_to 7965
  145.3693  141.0340  143.3240 LP  0  0  0  0  0  0  0  0  0  0  0  0  # atno 17321 bound_to 7965
  139.6338  144.7647  151.2480 LP  0  0  0  0  0  0  0  0  0  0  0  0  # atno 17342 bound_to 10162
  140.7454  143.6433  150.8315 LP  0  0  0  0  0  0  0  0  0  0  0  0  # atno 17343 bound_to 10162
  155.9884  130.4927  150.7167 LP  0  0  0  0  0  0  0  0  0  0  0  0  # atno 17370 bound_to 10713
  157.4675  131.0889  151.0679 LP  0  0  0  0  0  0  0  0  0  0  0  0  # atno 17371 bound_to 10713
  139.8771  134.9963  156.5790 LP  0  0  0  0  0  0  0  0  0  0  0  0  # atno 17394 bound_to 11000
  140.8015  133.8502  155.8731 LP  0  0  0  0  0  0  0  0  0  0  0  0  # atno 17395 bound_to 11000

$$$$
