AV-unprocessed.smi:1307|AV-procd|sdf|5437|dock8
  -GOLD-   22720 5 03D 1   1.00000     0.00000
 Structure written by MMmdl.
 41 41  0  0  0  0  0  0  0  0  1 V2000
  153.1654  138.7883  154.4839 C   0  0  0  0  0  0  0  0  0  0  0  0
  151.7650  138.2228  154.7962 C   0  0  0  0  0  0  0  0  0  0  0  0
  150.6939  139.2417  154.3671 C   0  0  0  0  0  0  0  0  0  0  0  0
  151.6145  137.7996  156.2819 C   0  0  1  0  0  0  0  0  0  0  0  0
  152.0296  138.9032  157.2736 C   0  0  0  0  0  0  0  0  0  0  0  0
  150.2309  137.4174  156.5532 N   0  0  0  0  0  0  0  0  0  0  0  0
  149.7956  136.7191  157.6163 C   0  0  0  0  0  0  0  0  0  0  0  0
  150.5409  136.3460  158.5210 O   0  0  0  0  0  0  0  0  0  0  0  0
  148.2953  136.3756  157.6919 C   0  0  0  0  0  0  0  0  0  0  0  0
  147.8999  135.5249  158.8458 N   0  0  0  0  0  0  0  0  0  0  0  0
  147.3771  134.2123  158.6228 C   0  0  0  0  0  0  0  0  0  0  0  0
  147.2577  133.6812  157.1870 C   0  0  0  0  0  0  0  0  0  0  0  0
  146.7705  132.4396  157.1716 F   0  0  0  0  0  0  0  0  0  0  0  0
  146.4216  134.4336  156.4712 F   0  0  0  0  0  0  0  0  0  0  0  0
  148.4401  133.6317  156.5739 F   0  0  0  0  0  0  0  0  0  0  0  0
  147.0245  133.4456  159.6711 C   0  0  0  0  0  0  0  0  0  0  0  0
  147.1691  133.9420  161.0115 C   0  0  0  0  0  0  0  0  0  0  0  0
  147.6626  135.1801  161.2404 C   0  0  0  0  0  0  0  0  0  0  0  0
  147.8431  135.7299  162.6036 C   0  0  0  0  0  0  0  0  0  0  0  0
  147.4875  134.8929  163.5865 N   0  0  0  0  0  0  0  0  0  0  0  0
  148.2757  136.8427  162.9025 O   0  0  0  0  0  0  0  0  0  0  0  0
  148.0587  136.0555  160.1074 C   0  0  0  0  0  0  0  0  0  0  0  0
  148.5170  137.1936  160.2459 O   0  0  0  0  0  0  0  0  0  0  0  0
  153.3928  139.6492  155.1132 H   0  0  0  0  0  0  0  0  0  0  0  0
  153.2360  139.1106  153.4447 H   0  0  0  0  0  0  0  0  0  0  0  0
  153.9499  138.0471  154.6367 H   0  0  0  0  0  0  0  0  0  0  0  0
  151.6340  137.3337  154.1773 H   0  0  0  0  0  0  0  0  0  0  0  0
  150.7302  140.1389  154.9861 H   0  0  0  0  0  0  0  0  0  0  0  0
  149.6881  138.8280  154.4339 H   0  0  0  0  0  0  0  0  0  0  0  0
  150.8385  139.5496  153.3312 H   0  0  0  0  0  0  0  0  0  0  0  0
  152.2535  136.9302  156.4488 H   0  0  0  0  0  0  0  0  0  0  0  0
  153.0895  139.1420  157.1925 H   0  0  0  0  0  0  0  0  0  0  0  0
  151.8567  138.5928  158.3047 H   0  0  0  0  0  0  0  0  0  0  0  0
  151.4643  139.8205  157.1061 H   0  0  0  0  0  0  0  0  0  0  0  0
  149.5489  137.6853  155.8589 H   0  0  0  0  0  0  0  0  0  0  0  0
  147.7408  137.3158  157.7095 H   0  0  0  0  0  0  0  0  0  0  0  0
  148.0019  135.9527  156.7362 H   0  0  0  0  0  0  0  0  0  0  0  0
  146.6355  132.4485  159.5266 H   0  0  0  0  0  0  0  0  0  0  0  0
  146.8747  133.2829  161.8149 H   0  0  0  0  0  0  0  0  0  0  0  0
  147.5744  135.1777  164.5509 H   0  0  0  0  0  0  0  0  0  0  0  0
  147.1323  133.9758  163.3566 H   0  0  0  0  0  0  0  0  0  0  0  0
  1  2  1  0  0  0  0
  1 24  1  0  0  0  0
  1 25  1  0  0  0  0
  1 26  1  0  0  0  0
  2  3  1  0  0  0  0
  2  4  1  0  0  0  0
  2 27  1  0  0  0  0
  3 28  1  0  0  0  0
  3 29  1  0  0  0  0
  3 30  1  0  0  0  0
  4  5  1  0  0  0  0
  4  6  1  0  0  0  0
  4 31  1  0  0  0  0
  5 32  1  0  0  0  0
  5 33  1  0  0  0  0
  5 34  1  0  0  0  0
  6  7  1  0  0  0  0
  6 35  1  0  0  0  0
  7  8  2  0  0  0  0
  7  9  1  0  0  0  0
  9 10  1  0  0  0  0
  9 36  1  0  0  0  0
  9 37  1  0  0  0  0
 10 22  1  0  0  0  0
 10 11  1  0  0  0  0
 11 12  1  0  0  0  0
 11 16  2  0  0  0  0
 12 13  1  0  0  0  0
 12 14  1  0  0  0  0
 12 15  1  0  0  0  0
 16 17  1  0  0  0  0
 16 38  1  0  0  0  0
 17 18  2  0  0  0  0
 17 39  1  0  0  0  0
 18 19  1  0  0  0  0
 18 22  1  0  0  0  0
 19 20  1  0  0  0  0
 19 21  2  0  0  0  0
 20 40  1  0  0  0  0
 20 41  1  0  0  0  0
 22 23  2  0  0  0  0
M  END
> <s_m_source_file>
AV-unprocessed.smi

> <i_m_source_file_index>
1307

> <i_lp_mmshare_version>
43012

> <i_f3d_flags>
0

> <s_epik_input>
W0NIM11bQ0hdKFtDSDNdKVtDQEhdKFtDSDNdKVtOSF1DKD1PKVtDSDJdbjFjKEMoRikoRilGKVtjSF1bY0hdYyhjMT1PKUMoPU8pW05IMl0=

> <s_epik_cmdline>
J2VwaWtfcHl0aG9uJywgJy1waCcsICc3LjAnLCAnLXRuJywgJzgnLCAnLW1hJywgJzIwMCcsICctbWV0YWxfYmluZGluZycsICctaW1hZScsICc8aW5maWxlLm1hZT4nLCAnLW9tYWUnLCAnPG91dGZpbGUubWFlPic=

> <r_lp_tautomer_probability>
1

> <r_epik_Ionization_Penalty>
2.05992e-06

> <r_epik_Ionization_Penalty_Charging>
8.21357e-10

> <r_epik_Ionization_Penalty_Neutral>
2.0591e-06

> <r_epik_State_Penalty>
-0

> <r_epik_Charging_Adjusted_Penalty>
8.21357e-10

> <i_epik_Tot_Q>
0

> <i_epik_Tot_abs_Q>
0

> <r_epik_Metal_State_Penalty>
-0

> <b_epik_Metal_Only>
0

> <s_lp_Force_Field>
OPLS_2005

> <r_lp_Energy>
26.9387

> <b_lp_Chiralities_Consistent>
1

> <s_lp_Variant>
AV-unprocessed.smi:1307-2

> <Gold.Version>
5.8.1

> <Gold.Id.Protein>
6NUR|6NUR_protein|mol2

> <Gold.PLP.Fitness>
32.3353

> <Gold.PLP.PLP>
-26.6648

> <Gold.PLP.part.hbond>
-4.0000

> <Gold.PLP.part.metal>
0.0000

> <Gold.PLP.part.buried>
-4.5960

> <Gold.PLP.part.nonpolar>
-20.1048

> <Gold.PLP.part.repulsive>
0.9574

> <Gold.PLP.ligand.clash>
3.9471

> <Gold.PLP.ligand.torsion>
0.2979

> <Gold.PLP.Chemscore.Hbond>
2.0710

> <Gold.PLP.Chemscore.CHOScore>
0.0000

> <Gold.PLP.Chemscore.Metal>
0.0000

> <Gold.Chemscore.Hbonds>
donor molecule, donor type, donor heavy atom, donor atom, acceptor molecule, acceptor atom, score
      P1  H  6896  6909       L1     8  0.90
      P1  H  6931  6943       L1    21  0.88
      P1  H  6934  6947       L1    23  0.10

> <Gold.PLP.Chemscore.Internal.Correction>
4.0005

> <Gold.Rescore>
     Score         DG    S(hbond)    S(metal)    S(lipo)     H(rot)  DE(clash)    DE(int)     intcor
      8.68     -14.29       2.25        0.00      54.07       1.97       1.34       4.26       ----

> <Gold.Chemscore.Fitness>
8.6834

> <Gold.Chemscore.DG>
-14.2889

> <Gold.Chemscore.ZeroCoef>
-5.4800

> <Gold.Chemscore.Hbond>
2.2548

> <Gold.Chemscore.Metal>
0.0000

> <Gold.Chemscore.Lipo>
54.0742

> <Gold.Chemscore.Internal_Hbond>
0.0000

> <Gold.Chemscore.DEClash>
1.3435

> <Gold.Chemscore.DEInternal>
4.2619

> <Gold.Chemscore.Rot>
1.9723

> <Gold.Chemscore.Internal.Correction>
   9.000000E+99

> <Gold.Chemscore.Hbonds>
donor molecule, donor type, donor heavy atom, donor atom, acceptor molecule, acceptor atom, score
      P1  H  6896  6909       L1     8  0.88
      P1  H  6931  6943       L1    21  0.86
      P1  H  6934  6947       L1    23  0.11

> <Gold.Chemscore.Hbond.Weighted>
-7.5312

> <Gold.Chemscore.Metal.Weighted>
-0.0000

> <Gold.Chemscore.Lipo.Weighted>
-6.3267

> <Gold.Chemscore.Internal_Hbond.Weighted>
0.0000

> <Gold.Chemscore.DEClash.Weighted>
1.3435

> <Gold.Chemscore.DEInternal.Weighted>
4.2619

> <Gold.Chemscore.Rot.Weighted>
5.0490

> <Gold.Chemscore.Internal.Correction.Weighted>
   9.000000E+99

> <Gold.Protein.RotatedTorsions>
[ 6907 6896 6895 6894 ] final   73.17 input  -60.11 | X-H torsion
[ 7974 7965 7964 7962 ] final -134.29 input  175.53 | X-H torsion
[ 8008 7997 7996 7995 ] final  -18.93 input   59.86 | X-H torsion
[ 10167 10162 10161 10158 ] final  166.88 input  -65.29 | X-H torsion
[ 10718 10713 10712 10709 ] final -163.11 input   66.30 | X-H torsion
[ 10763 10752 10751 10750 ] final -157.73 input  -60.55 | X-H torsion
[ 11005 11000 10999 10996 ] final    1.83 input  -57.11 | X-H torsion

> <Gold.Protein.ActiveResidues>
 VAL166  LYS551  ARG553  GLY616  TRP617  ASP618  TYR619  PRO620  LYS621  CYS622 
 ASP623  PHE694  ASN695  SER759  ASP760  ASP761  ALA762  ILE779  LEU786  VAL792 
 PHE793  MET794  SER795  GLU796  ALA797  LYS798  CYS799  TRP800  GLU811  SER814 

> <Gold.Protein.RotatedAtoms>
  152.4909  134.4461  159.9559 H   0  0  0  0  0  0  0  0  0  0  0  0  # atno 6907 bound_to 6896
  151.4449  133.3627  159.2795 H   0  0  0  0  0  0  0  0  0  0  0  0  # atno 6908 bound_to 6896
  150.9062  134.8501  159.7454 H   0  0  0  0  0  0  0  0  0  0  0  0  # atno 6909 bound_to 6896
  144.9116  140.6902  143.5021 H   0  0  0  0  0  0  0  0  0  0  0  0  # atno 7974 bound_to 7965
  154.4872  140.2102  155.9629 H   0  0  0  0  0  0  0  0  0  0  0  0  # atno 8008 bound_to 7997
  156.1253  140.3206  155.8237 H   0  0  0  0  0  0  0  0  0  0  0  0  # atno 8009 bound_to 7997
  155.4395  140.0509  157.3002 H   0  0  0  0  0  0  0  0  0  0  0  0  # atno 8010 bound_to 7997
  139.4933  144.3981  151.9441 H   0  0  0  0  0  0  0  0  0  0  0  0  # atno 10167 bound_to 10162
  156.6201  130.8886  151.2955 H   0  0  0  0  0  0  0  0  0  0  0  0  # atno 10718 bound_to 10713
  154.7613  135.3118  154.8372 H   0  0  0  0  0  0  0  0  0  0  0  0  # atno 10763 bound_to 10752
  153.9132  135.6803  153.4754 H   0  0  0  0  0  0  0  0  0  0  0  0  # atno 10764 bound_to 10752
  153.1214  135.4821  154.9133 H   0  0  0  0  0  0  0  0  0  0  0  0  # atno 10765 bound_to 10752
  140.6111  133.9747  155.8178 H   0  0  0  0  0  0  0  0  0  0  0  0  # atno 11005 bound_to 11000
  145.3445  139.1723  143.4468 LP  0  0  0  0  0  0  0  0  0  0  0  0  # atno 17320 bound_to 7965
  146.3161  140.3490  142.8654 LP  0  0  0  0  0  0  0  0  0  0  0  0  # atno 17321 bound_to 7965
  140.3419  144.3193  150.5965 LP  0  0  0  0  0  0  0  0  0  0  0  0  # atno 17342 bound_to 10162
  140.5558  143.2199  151.7849 LP  0  0  0  0  0  0  0  0  0  0  0  0  # atno 17343 bound_to 10162
  157.7230  130.9584  150.1517 LP  0  0  0  0  0  0  0  0  0  0  0  0  # atno 17370 bound_to 10713
  156.2319  130.3683  149.8435 LP  0  0  0  0  0  0  0  0  0  0  0  0  # atno 17371 bound_to 10713
  141.0807  134.0066  157.3390 LP  0  0  0  0  0  0  0  0  0  0  0  0  # atno 17394 bound_to 11000
  139.9192  135.0199  156.7998 LP  0  0  0  0  0  0  0  0  0  0  0  0  # atno 17395 bound_to 11000

$$$$
