AV-unprocessed.smi:2295|AV-procd|sdf|9218|dock2
  -GOLD-   2272012433D 1   1.00000     0.00000
 Structure written by MMmdl.
 37 38  0  0  0  0  0  0  0  0  1 V2000
  152.1683  145.8759  160.4210 C   0  0  0  0  0  0  0  0  0  0  0  0
  152.1733  144.5439  159.7006 C   0  0  0  0  0  0  0  0  0  0  0  0
  152.9942  143.4874  160.1392 C   0  0  0  0  0  0  0  0  0  0  0  0
  152.9525  142.2731  159.4263 C   0  0  0  0  0  0  0  0  0  0  0  0
  153.8124  141.0968  159.8380 C   0  0  0  0  0  0  0  0  0  0  0  0
  152.1637  142.0789  158.3481 N   0  0  0  0  0  0  0  0  0  0  0  0
  151.3685  143.0891  157.9164 C   0  0  0  0  0  0  0  0  0  0  0  0
  150.5071  142.9873  156.7918 N   0  0  0  0  0  0  0  0  0  0  0  0
  150.1198  141.8763  156.1404 C   0  0  0  0  0  0  0  0  0  0  0  0
  150.4397  140.7260  156.4421 O   0  0  0  0  0  0  0  0  0  0  0  0
  149.3224  142.1763  155.1045 N   0  0  0  0  0  0  0  0  0  0  0  0
  148.7178  141.2106  154.1912 C   0  0  0  0  0  0  0  0  0  0  0  0
  147.1821  141.3249  154.1632 C   0  0  2  0  0  0  0  0  0  0  0  0
  146.7061  142.7581  153.8871 C   0  0  0  0  0  0  0  0  0  0  0  0
  145.2743  142.8669  154.4127 C   0  0  0  0  0  0  0  0  0  0  0  0
  145.2759  142.2183  155.7966 C   0  0  0  0  0  0  0  0  0  0  0  0
  146.4052  140.8054  155.7235 S   0  0  0  0  0  0  0  0  0  0  0  0
  151.3523  144.3403  158.5731 C   0  0  0  0  0  0  0  0  0  0  0  0
  152.8139  145.8541  161.2995 H   0  0  0  0  0  0  0  0  0  0  0  0
  151.1585  146.1256  160.7474 H   0  0  0  0  0  0  0  0  0  0  0  0
  152.5211  146.6651  159.7569 H   0  0  0  0  0  0  0  0  0  0  0  0
  153.6388  143.6040  160.9983 H   0  0  0  0  0  0  0  0  0  0  0  0
  154.3505  141.3040  160.7632 H   0  0  0  0  0  0  0  0  0  0  0  0
  154.5437  140.8739  159.0606 H   0  0  0  0  0  0  0  0  0  0  0  0
  153.1961  140.2110  159.9941 H   0  0  0  0  0  0  0  0  0  0  0  0
  150.1465  143.8618  156.4408 H   0  0  0  0  0  0  0  0  0  0  0  0
  149.1166  143.1494  154.9328 H   0  0  0  0  0  0  0  0  0  0  0  0
  149.1263  141.3032  153.1833 H   0  0  0  0  0  0  0  0  0  0  0  0
  149.0002  140.2171  154.5405 H   0  0  0  0  0  0  0  0  0  0  0  0
  146.7822  140.6782  153.3810 H   0  0  0  0  0  0  0  0  0  0  0  0
  147.3365  143.4706  154.4214 H   0  0  0  0  0  0  0  0  0  0  0  0
  146.7676  143.0054  152.8269 H   0  0  0  0  0  0  0  0  0  0  0  0
  144.9306  143.9010  154.4501 H   0  0  0  0  0  0  0  0  0  0  0  0
  144.5990  142.3221  153.7517 H   0  0  0  0  0  0  0  0  0  0  0  0
  145.6579  142.9204  156.5383 H   0  0  0  0  0  0  0  0  0  0  0  0
  144.2787  141.9097  156.1106 H   0  0  0  0  0  0  0  0  0  0  0  0
  150.7154  145.1379  158.2184 H   0  0  0  0  0  0  0  0  0  0  0  0
  1  2  1  0  0  0  0
  1 19  1  0  0  0  0
  1 20  1  0  0  0  0
  1 21  1  0  0  0  0
  2 18  1  0  0  0  0
  2  3  2  0  0  0  0
  3  4  1  0  0  0  0
  3 22  1  0  0  0  0
  4  5  1  0  0  0  0
  4  6  2  0  0  0  0
  5 23  1  0  0  0  0
  5 24  1  0  0  0  0
  5 25  1  0  0  0  0
  6  7  1  0  0  0  0
  7  8  1  0  0  0  0
  7 18  2  0  0  0  0
  8  9  1  0  0  0  0
  8 26  1  0  0  0  0
  9 10  2  0  0  0  0
  9 11  1  0  0  0  0
 11 12  1  0  0  0  0
 11 27  1  0  0  0  0
 12 13  1  0  0  0  0
 12 28  1  0  0  0  0
 12 29  1  0  0  0  0
 13 17  1  0  0  0  0
 13 14  1  0  0  0  0
 13 30  1  0  0  0  0
 14 15  1  0  0  0  0
 14 31  1  0  0  0  0
 14 32  1  0  0  0  0
 15 16  1  0  0  0  0
 15 33  1  0  0  0  0
 15 34  1  0  0  0  0
 16 17  1  0  0  0  0
 16 35  1  0  0  0  0
 16 36  1  0  0  0  0
 18 37  1  0  0  0  0
M  END
> <s_m_source_file>
AV-unprocessed.smi

> <i_m_source_file_index>
2295

> <i_lp_mmshare_version>
43012

> <i_f3d_flags>
0

> <s_epik_input>
W0NIM11jMVtjSF1jKFtDSDNdKW5jKFtjSF0xKVtOSF1DKD1PKVtOSF1bQ0gyXVtDQEBIXTJbQ0gyXVtDSDJdW0NIMl1TMg==

> <s_epik_cmdline>
J2VwaWtfcHl0aG9uJywgJy1waCcsICc3LjAnLCAnLXRuJywgJzgnLCAnLW1hJywgJzIwMCcsICctbWV0YWxfYmluZGluZycsICctaW1hZScsICc8aW5maWxlLm1hZT4nLCAnLW9tYWUnLCAnPG91dGZpbGUubWFlPic=

> <r_lp_tautomer_probability>
1

> <r_epik_Ionization_Penalty>
0.000247769

> <r_epik_Ionization_Penalty_Charging>
0

> <r_epik_Ionization_Penalty_Neutral>
0.000247769

> <r_epik_State_Penalty>
-0

> <r_epik_Charging_Adjusted_Penalty>
0

> <i_epik_Tot_Q>
0

> <i_epik_Tot_abs_Q>
0

> <r_epik_Metal_State_Penalty>
-0

> <b_epik_Metal_Only>
0

> <s_lp_Force_Field>
OPLS_2005

> <r_lp_Energy>
13.4664

> <b_lp_Chiralities_Consistent>
1

> <s_lp_Variant>
AV-unprocessed.smi:2295-1

> <Gold.Version>
5.8.1

> <Gold.Id.Protein>
6NUR|6NUR_protein|mol2

> <Gold.PLP.Fitness>
47.6951

> <Gold.PLP.PLP>
-42.0937

> <Gold.PLP.part.hbond>
-2.0000

> <Gold.PLP.part.metal>
0.0000

> <Gold.PLP.part.buried>
-6.0259

> <Gold.PLP.part.nonpolar>
-34.3904

> <Gold.PLP.part.repulsive>
0.2852

> <Gold.PLP.ligand.clash>
0.0000

> <Gold.PLP.ligand.torsion>
0.0796

> <Gold.PLP.Chemscore.Hbond>
1.9200

> <Gold.PLP.Chemscore.CHOScore>
0.0000

> <Gold.PLP.Chemscore.Metal>
0.0000

> <Gold.Chemscore.Hbonds>
donor molecule, donor type, donor heavy atom, donor atom, acceptor molecule, acceptor atom, score
      L1  H     8    26       P1  8028  1.00
      L1  H    11    27       P1  8028  0.94

> <Gold.PLP.Chemscore.Internal.Correction>
0.0006

> <Gold.Rescore>
     Score         DG    S(hbond)    S(metal)    S(lipo)     H(rot)  DE(clash)    DE(int)     intcor
     19.16     -20.59       1.86        0.00     101.52       1.17       0.10       1.33       ----

> <Gold.Chemscore.Fitness>
19.1589

> <Gold.Chemscore.DG>
-20.5894

> <Gold.Chemscore.ZeroCoef>
-5.4800

> <Gold.Chemscore.Hbond>
1.8649

> <Gold.Chemscore.Metal>
0.0000

> <Gold.Chemscore.Lipo>
101.5238

> <Gold.Chemscore.Internal_Hbond>
0.0000

> <Gold.Chemscore.DEClash>
0.0963

> <Gold.Chemscore.DEInternal>
1.3342

> <Gold.Chemscore.Rot>
1.1709

> <Gold.Chemscore.Internal.Correction>
   9.000000E+99

> <Gold.Chemscore.Hbonds>
donor molecule, donor type, donor heavy atom, donor atom, acceptor molecule, acceptor atom, score
      L1  H     8    26       P1  8028  0.94
      L1  H    11    27       P1  8028  0.91

> <Gold.Chemscore.Hbond.Weighted>
-6.2286

> <Gold.Chemscore.Metal.Weighted>
-0.0000

> <Gold.Chemscore.Lipo.Weighted>
-11.8783

> <Gold.Chemscore.Internal_Hbond.Weighted>
0.0000

> <Gold.Chemscore.DEClash.Weighted>
0.0963

> <Gold.Chemscore.DEInternal.Weighted>
1.3342

> <Gold.Chemscore.Rot.Weighted>
2.9975

> <Gold.Chemscore.Internal.Correction.Weighted>
   9.000000E+99

> <Gold.Protein.RotatedTorsions>
[ 6907 6896 6895 6894 ] final -121.71 input  -60.11 | X-H torsion
[ 7974 7965 7964 7962 ] final  153.97 input  175.53 | X-H torsion
[ 8008 7997 7996 7995 ] final  143.87 input   59.86 | X-H torsion
[ 10167 10162 10161 10158 ] final  118.93 input  -65.29 | X-H torsion
[ 10718 10713 10712 10709 ] final  -95.38 input   66.30 | X-H torsion
[ 10763 10752 10751 10750 ] final  160.48 input  -60.55 | X-H torsion
[ 11005 11000 10999 10996 ] final -126.28 input  -57.11 | X-H torsion

> <Gold.Protein.ActiveResidues>
 VAL166  LYS551  ARG553  GLY616  TRP617  ASP618  TYR619  PRO620  LYS621  CYS622 
 ASP623  PHE694  ASN695  SER759  ASP760  ASP761  ALA762  ILE779  LEU786  VAL792 
 PHE793  MET794  SER795  GLU796  ALA797  LYS798  CYS799  TRP800  GLU811  SER814 

> <Gold.Protein.RotatedAtoms>
  150.8508  133.7790  159.3025 H   0  0  0  0  0  0  0  0  0  0  0  0  # atno 6907 bound_to 6896
  151.5462  135.1066  159.9948 H   0  0  0  0  0  0  0  0  0  0  0  0  # atno 6908 bound_to 6896
  152.4551  133.7663  159.6830 H   0  0  0  0  0  0  0  0  0  0  0  0  # atno 6909 bound_to 6896
  144.8119  139.6871  143.6138 H   0  0  0  0  0  0  0  0  0  0  0  0  # atno 7974 bound_to 7965
  156.2921  140.2251  156.4961 H   0  0  0  0  0  0  0  0  0  0  0  0  # atno 8008 bound_to 7997
  154.7730  140.0465  157.1088 H   0  0  0  0  0  0  0  0  0  0  0  0  # atno 8009 bound_to 7997
  154.9851  140.3083  155.4933 H   0  0  0  0  0  0  0  0  0  0  0  0  # atno 8010 bound_to 7997
  139.6079  144.7074  151.2911 H   0  0  0  0  0  0  0  0  0  0  0  0  # atno 10167 bound_to 10162
  156.0042  130.5107  150.6068 H   0  0  0  0  0  0  0  0  0  0  0  0  # atno 10718 bound_to 10713
  154.2481  135.2772  155.2827 H   0  0  0  0  0  0  0  0  0  0  0  0  # atno 10763 bound_to 10752
  154.5488  135.5681  153.6907 H   0  0  0  0  0  0  0  0  0  0  0  0  # atno 10764 bound_to 10752
  152.9986  135.6269  154.2627 H   0  0  0  0  0  0  0  0  0  0  0  0  # atno 10765 bound_to 10752
  140.9694  134.0827  157.3886 H   0  0  0  0  0  0  0  0  0  0  0  0  # atno 11005 bound_to 11000
  146.2419  139.6018  142.9486 LP  0  0  0  0  0  0  0  0  0  0  0  0  # atno 17320 bound_to 7965
  145.5303  141.0427  143.2386 LP  0  0  0  0  0  0  0  0  0  0  0  0  # atno 17321 bound_to 7965
  140.7298  143.6897  150.7932 LP  0  0  0  0  0  0  0  0  0  0  0  0  # atno 17342 bound_to 10162
  140.0486  143.5272  152.2684 LP  0  0  0  0  0  0  0  0  0  0  0  0  # atno 17343 bound_to 10162
  157.3908  131.0795  151.1396 LP  0  0  0  0  0  0  0  0  0  0  0  0  # atno 17370 bound_to 10713
  157.2088  130.6428  149.5766 LP  0  0  0  0  0  0  0  0  0  0  0  0  # atno 17371 bound_to 10713
  139.8906  135.0113  156.6747 LP  0  0  0  0  0  0  0  0  0  0  0  0  # atno 17394 bound_to 11000
  140.7351  133.9025  155.8238 LP  0  0  0  0  0  0  0  0  0  0  0  0  # atno 17395 bound_to 11000

$$$$
