AV-unprocessed.smi:240|AV-procd|sdf|1825|dock7
  -GOLD-   2262020423D 1   1.00000     0.00000
 Structure written by MMmdl.
 55 59  0  0  0  0  0  0  0  0  1 V2000
  148.6141  141.6566  155.1870 O   0  0  0  0  0  0  0  0  0  0  0  0
  149.2341  140.5282  154.6046 C   0  0  1  0  0  0  0  0  0  0  0  0
  150.5970  140.2084  155.2151 C   0  0  0  0  0  0  0  0  0  0  0  0
  150.8669  138.7831  154.7370 C   0  0  0  0  0  0  0  0  0  0  0  0
  149.4943  138.0964  154.6963 C   0  0  0  0  0  0  0  0  0  0  0  0
  148.4248  139.2145  154.6827 C   0  0  1  0  0  0  0  0  0  0  0  0
  147.3789  139.1023  155.8426 C   0  0  2  0  0  0  0  0  0  0  0  0
  147.9999  139.2600  157.2569 C   0  0  0  0  0  0  0  0  0  0  0  0
  146.9975  139.1424  158.2601 O   0  0  0  0  0  0  0  0  0  0  0  0
  146.3725  137.8669  158.2367 C   0  0  0  0  0  0  0  0  0  0  0  0
  145.6630  137.6922  156.8887 C   0  0  0  0  0  0  0  0  0  0  0  0
  146.6127  137.8479  155.7924 N   0  0  0  0  0  0  0  0  0  0  0  0
  146.0365  137.5471  154.6066 C   0  0  0  0  0  0  0  0  0  0  0  0
  145.9892  138.4760  153.6152 N   0  0  0  0  0  0  0  0  0  0  0  0
  145.4365  138.1646  152.4388 C   0  0  0  0  0  0  0  0  0  0  0  0
  144.8891  137.0095  152.0522 N   0  0  0  0  0  0  0  0  0  0  0  0
  144.9319  136.0804  153.0506 C   0  0  0  0  0  0  0  0  0  0  0  0
  145.4821  136.2671  154.3486 C   0  0  0  0  0  0  0  0  0  0  0  0
  145.3581  135.1021  155.0938 N   0  0  0  0  0  0  0  0  0  0  0  0
  144.7686  134.2696  154.2795 C   0  0  0  0  0  0  0  0  0  0  0  0
  144.4703  134.7753  153.0331 N   0  0  0  0  0  0  0  0  0  0  0  0
  143.8273  134.0709  151.9341 C   0  0  0  0  0  0  0  0  0  0  0  0
  144.6798  134.0131  150.6427 C   0  0  1  0  0  0  0  0  0  0  0  0
  144.8553  135.3272  150.1445 O   0  0  0  0  0  0  0  0  0  0  0  0
  146.0526  133.3831  150.8846 C   0  0  0  0  0  0  0  0  0  0  0  0
  145.9250  132.0014  150.2560 C   0  0  0  0  0  0  0  0  0  0  0  0
  145.1145  132.2548  149.1232 O   0  0  0  0  0  0  0  0  0  0  0  0
  144.0699  133.1237  149.5390 C   0  0  0  0  0  0  0  0  0  0  0  0
  148.9644  141.7772  156.0565 H   0  0  0  0  0  0  0  0  0  0  0  0
  149.3937  140.7650  153.5512 H   0  0  0  0  0  0  0  0  0  0  0  0
  151.3718  140.9082  154.9009 H   0  0  0  0  0  0  0  0  0  0  0  0
  150.5510  140.2317  156.3040 H   0  0  0  0  0  0  0  0  0  0  0  0
  151.2889  138.8119  153.7316 H   0  0  0  0  0  0  0  0  0  0  0  0
  151.5769  138.2578  155.3760 H   0  0  0  0  0  0  0  0  0  0  0  0
  149.4086  137.4606  153.8143 H   0  0  0  0  0  0  0  0  0  0  0  0
  149.3791  137.4389  155.5574 H   0  0  0  0  0  0  0  0  0  0  0  0
  147.8820  139.1540  153.7389 H   0  0  0  0  0  0  0  0  0  0  0  0
  146.6587  139.9125  155.7180 H   0  0  0  0  0  0  0  0  0  0  0  0
  148.7817  138.5234  157.4427 H   0  0  0  0  0  0  0  0  0  0  0  0
  148.4595  140.2395  157.3756 H   0  0  0  0  0  0  0  0  0  0  0  0
  147.1087  137.0778  158.3991 H   0  0  0  0  0  0  0  0  0  0  0  0
  145.6521  137.8076  159.0526 H   0  0  0  0  0  0  0  0  0  0  0  0
  145.1978  136.7064  156.8419 H   0  0  0  0  0  0  0  0  0  0  0  0
  144.8653  138.4308  156.7943 H   0  0  0  0  0  0  0  0  0  0  0  0
  145.4336  138.9534  151.7011 H   0  0  0  0  0  0  0  0  0  0  0  0
  144.5361  133.2552  154.5694 H   0  0  0  0  0  0  0  0  0  0  0  0
  143.5873  133.0618  152.2724 H   0  0  0  0  0  0  0  0  0  0  0  0
  142.8721  134.5571  151.7311 H   0  0  0  0  0  0  0  0  0  0  0  0
  145.3314  135.2793  149.3295 H   0  0  0  0  0  0  0  0  0  0  0  0
  146.8342  133.9359  150.3603 H   0  0  0  0  0  0  0  0  0  0  0  0
  146.3339  133.3383  151.9373 H   0  0  0  0  0  0  0  0  0  0  0  0
  146.8875  131.5721  149.9771 H   0  0  0  0  0  0  0  0  0  0  0  0
  145.4160  131.3083  150.9280 H   0  0  0  0  0  0  0  0  0  0  0  0
  143.2657  132.5017  149.9320 H   0  0  0  0  0  0  0  0  0  0  0  0
  143.6674  133.6873  148.6964 H   0  0  0  0  0  0  0  0  0  0  0  0
  1  2  1  0  0  0  0
  1 29  1  0  0  0  0
  2  6  1  0  0  0  0
  2  3  1  0  0  0  0
  2 30  1  0  0  0  0
  3  4  1  0  0  0  0
  3 31  1  0  0  0  0
  3 32  1  0  0  0  0
  4  5  1  0  0  0  0
  4 33  1  0  0  0  0
  4 34  1  0  0  0  0
  5  6  1  0  0  0  0
  5 35  1  0  0  0  0
  5 36  1  0  0  0  0
  6  7  1  0  0  0  0
  6 37  1  0  0  0  0
  7 12  1  0  0  0  0
  7  8  1  0  0  0  0
  7 38  1  0  0  0  0
  8  9  1  0  0  0  0
  8 39  1  0  0  0  0
  8 40  1  0  0  0  0
  9 10  1  0  0  0  0
 10 11  1  0  0  0  0
 10 41  1  0  0  0  0
 10 42  1  0  0  0  0
 11 12  1  0  0  0  0
 11 43  1  0  0  0  0
 11 44  1  0  0  0  0
 12 13  1  0  0  0  0
 13 18  1  0  0  0  0
 13 14  2  0  0  0  0
 14 15  1  0  0  0  0
 15 16  2  0  0  0  0
 15 45  1  0  0  0  0
 16 17  1  0  0  0  0
 17 21  1  0  0  0  0
 17 18  2  0  0  0  0
 18 19  1  0  0  0  0
 19 20  2  0  0  0  0
 20 21  1  0  0  0  0
 20 46  1  0  0  0  0
 21 22  1  0  0  0  0
 22 23  1  0  0  0  0
 22 47  1  0  0  0  0
 22 48  1  0  0  0  0
 23 28  1  0  0  0  0
 23 24  1  0  0  0  0
 23 25  1  0  0  0  0
 24 49  1  0  0  0  0
 25 26  1  0  0  0  0
 25 50  1  0  0  0  0
 25 51  1  0  0  0  0
 26 27  1  0  0  0  0
 26 52  1  0  0  0  0
 26 53  1  0  0  0  0
 27 28  1  0  0  0  0
 28 54  1  0  0  0  0
 28 55  1  0  0  0  0
M  END
> <s_m_source_file>
AV-unprocessed.smi

> <i_m_source_file_index>
240

> <i_lp_mmshare_version>
43012

> <i_f3d_flags>
0

> <s_epik_input>
W09IXVtDQEBIXTFbQ0gyXVtDSDJdW0NIMl1bQ0BIXTFbQ0BASF0yW0NIMl1PW0NIMl1bQ0gyXU4yYyhuW2NIXW4zKWMoYzM0KW5bY0hdbjRbQ0gyXVtDQEBdNShbT0hdKVtDSDJdW0NIMl1PW0NIMl01

> <s_epik_cmdline>
J2VwaWtfcHl0aG9uJywgJy1waCcsICc3LjAnLCAnLXRuJywgJzgnLCAnLW1hJywgJzIwMCcsICctbWV0YWxfYmluZGluZycsICctaW1hZScsICc8aW5maWxlLm1hZT4nLCAnLW9tYWUnLCAnPG91dGZpbGUubWFlPic=

> <r_lp_tautomer_probability>
1

> <r_epik_Ionization_Penalty>
0.000130618

> <r_epik_Ionization_Penalty_Charging>
0

> <r_epik_Ionization_Penalty_Neutral>
0.000130618

> <r_epik_State_Penalty>
-0

> <r_epik_Charging_Adjusted_Penalty>
0

> <i_epik_Tot_Q>
0

> <i_epik_Tot_abs_Q>
0

> <r_epik_Metal_State_Penalty>
-0

> <b_epik_Metal_Only>
0

> <s_lp_Force_Field>
OPLS_2005

> <r_lp_Energy>
64.9026

> <b_lp_Chiralities_Consistent>
1

> <s_lp_Variant>
AV-unprocessed.smi:240-2

> <Gold.Version>
5.8.1

> <Gold.Id.Protein>
6NUR|6NUR_protein|mol2

> <Gold.PLP.Fitness>
40.8492

> <Gold.PLP.PLP>
-34.9686

> <Gold.PLP.part.hbond>
-2.8765

> <Gold.PLP.part.metal>
0.0000

> <Gold.PLP.part.buried>
-3.5588

> <Gold.PLP.part.nonpolar>
-29.6702

> <Gold.PLP.part.repulsive>
1.4265

> <Gold.PLP.ligand.clash>
0.0000

> <Gold.PLP.ligand.torsion>
0.1493

> <Gold.PLP.Chemscore.Hbond>
1.0000

> <Gold.PLP.Chemscore.CHOScore>
1.0000

> <Gold.PLP.Chemscore.Metal>
0.0000

> <Gold.Chemscore.Hbonds>
donor molecule, donor type, donor heavy atom, donor atom, acceptor molecule, acceptor atom, score
      L1  H    24    49       P1  7921  1.00
      L1  C    15    45       P1 10171  0.71
      L1  C    15    45       P1 10175  0.49
      L1  C    20    46       P1 10957  1.00

> <Gold.PLP.Chemscore.Internal.Correction>
0.1793

> <Gold.Rescore>
     Score         DG    S(hbond)    S(metal)    S(lipo)     H(rot)  DE(clash)    DE(int)     intcor
      8.23      -9.96       0.99        0.00      75.79       3.00       0.03       1.69       ----

> <Gold.Chemscore.Fitness>
8.2325

> <Gold.Chemscore.DG>
-9.9573

> <Gold.Chemscore.ZeroCoef>
-5.4800

> <Gold.Chemscore.Hbond>
0.9880

> <Gold.Chemscore.Metal>
0.0000

> <Gold.Chemscore.Lipo>
75.7878

> <Gold.Chemscore.Internal_Hbond>
0.0000

> <Gold.Chemscore.DEClash>
0.0332

> <Gold.Chemscore.DEInternal>
1.6916

> <Gold.Chemscore.Rot>
3.0039

> <Gold.Chemscore.Internal.Correction>
   9.000000E+99

> <Gold.Chemscore.Hbonds>
donor molecule, donor type, donor heavy atom, donor atom, acceptor molecule, acceptor atom, score
      L1  H    24    49       P1  7921  1.00

> <Gold.Chemscore.Hbond.Weighted>
-3.3000

> <Gold.Chemscore.Metal.Weighted>
-0.0000

> <Gold.Chemscore.Lipo.Weighted>
-8.8672

> <Gold.Chemscore.Internal_Hbond.Weighted>
0.0000

> <Gold.Chemscore.DEClash.Weighted>
0.0332

> <Gold.Chemscore.DEInternal.Weighted>
1.6916

> <Gold.Chemscore.Rot.Weighted>
7.6899

> <Gold.Chemscore.Internal.Correction.Weighted>
   9.000000E+99

> <Gold.Protein.RotatedTorsions>
[ 6907 6896 6895 6894 ] final -100.35 input  -60.11 | X-H torsion
[ 7974 7965 7964 7962 ] final -133.16 input  175.53 | X-H torsion
[ 8008 7997 7996 7995 ] final   90.20 input   59.86 | X-H torsion
[ 10167 10162 10161 10158 ] final -164.50 input  -65.29 | X-H torsion
[ 10718 10713 10712 10709 ] final -133.13 input   66.30 | X-H torsion
[ 10763 10752 10751 10750 ] final  156.16 input  -60.55 | X-H torsion
[ 11005 11000 10999 10996 ] final  -22.01 input  -57.11 | X-H torsion

> <Gold.Protein.ActiveResidues>
 VAL166  LYS551  ARG553  GLY616  TRP617  ASP618  TYR619  PRO620  LYS621  CYS622 
 ASP623  PHE694  ASN695  SER759  ASP760  ASP761  ALA762  ILE779  LEU786  VAL792 
 PHE793  MET794  SER795  GLU796  ALA797  LYS798  CYS799  TRP800  GLU811  SER814 

> <Gold.Protein.RotatedAtoms>
  150.7113  134.0900  159.3928 H   0  0  0  0  0  0  0  0  0  0  0  0  # atno 6907 bound_to 6896
  151.8885  135.0423  160.0505 H   0  0  0  0  0  0  0  0  0  0  0  0  # atno 6908 bound_to 6896
  152.2510  133.5180  159.5362 H   0  0  0  0  0  0  0  0  0  0  0  0  # atno 6909 bound_to 6896
  144.9218  140.7023  143.4960 H   0  0  0  0  0  0  0  0  0  0  0  0  # atno 7974 bound_to 7965
  156.0091  140.3352  155.6922 H   0  0  0  0  0  0  0  0  0  0  0  0  # atno 8008 bound_to 7997
  155.6183  140.0672  157.2703 H   0  0  0  0  0  0  0  0  0  0  0  0  # atno 8009 bound_to 7997
  154.4275  140.1781  156.1332 H   0  0  0  0  0  0  0  0  0  0  0  0  # atno 8010 bound_to 7997
  139.6247  144.0556  152.1964 H   0  0  0  0  0  0  0  0  0  0  0  0  # atno 10167 bound_to 10162
  156.2417  130.7100  151.0964 H   0  0  0  0  0  0  0  0  0  0  0  0  # atno 10718 bound_to 10713
  154.1800  135.2800  155.3055 H   0  0  0  0  0  0  0  0  0  0  0  0  # atno 10763 bound_to 10752
  154.6010  135.5529  153.7378 H   0  0  0  0  0  0  0  0  0  0  0  0  # atno 10764 bound_to 10752
  153.0141  135.6392  154.1939 H   0  0  0  0  0  0  0  0  0  0  0  0  # atno 10765 bound_to 10752
  140.8616  133.7784  156.0081 H   0  0  0  0  0  0  0  0  0  0  0  0  # atno 11005 bound_to 11000
  145.3283  139.1767  143.4550 LP  0  0  0  0  0  0  0  0  0  0  0  0  # atno 17320 bound_to 7965
  146.3208  140.3310  142.8640 LP  0  0  0  0  0  0  0  0  0  0  0  0  # atno 17321 bound_to 7965
  140.0207  144.6155  150.7569 LP  0  0  0  0  0  0  0  0  0  0  0  0  # atno 17342 bound_to 10162
  140.7403  143.2803  151.3618 LP  0  0  0  0  0  0  0  0  0  0  0  0  # atno 17343 bound_to 10162
  157.7178  131.0699  150.6258 LP  0  0  0  0  0  0  0  0  0  0  0  0  # atno 17370 bound_to 10713
  156.6332  130.4437  149.5779 LP  0  0  0  0  0  0  0  0  0  0  0  0  # atno 17371 bound_to 10713
  140.8676  134.2765  157.5206 LP  0  0  0  0  0  0  0  0  0  0  0  0  # atno 17394 bound_to 11000
  139.8707  134.9550  156.4194 LP  0  0  0  0  0  0  0  0  0  0  0  0  # atno 17395 bound_to 11000

$$$$
