AV-unprocessed.smi:1703|AV-procd|sdf|6879|dock9
  -GOLD-   22720 8 83D 1   1.00000     0.00000
 Structure written by MMmdl.
 50 52  0  0  0  0  0  0  0  0  3 V2000
  150.7234  133.0239  154.3337 C   0  0  0  0  0  0  0  0  0  0  0  0
  149.9903  134.3427  154.0661 C   0  0  2  0  0  0  0  0  0  0  0  0
  150.8798  135.5690  154.3463 C   0  0  0  0  0  0  0  0  0  0  0  0
  150.1119  136.8236  154.1496 N   0  3  2  0  0  0  0  0  0  0  0  0
  150.9140  138.0571  154.3567 C   0  0  0  0  0  0  0  0  0  0  0  0
  150.9733  138.5028  155.8322 C   0  0  1  0  0  0  0  0  0  0  0  0
  151.4624  137.4360  156.6225 O   0  0  0  0  0  0  0  0  0  0  0  0
  151.8954  139.7253  156.0150 C   0  0  0  0  0  0  0  0  0  0  0  0
  151.1842  140.9125  156.5172 N   0  0  0  0  0  0  0  0  0  0  0  0
  150.1648  141.6408  155.9725 C   0  0  0  0  0  0  0  0  0  0  0  0
  149.4857  141.4095  154.6628 C   0  0  0  0  0  0  0  0  0  0  0  0
  148.5170  142.3941  154.3804 O   0  0  0  0  0  0  0  0  0  0  0  0
  149.8766  142.6466  156.8460 N   0  3  0  0  0  0  0  0  0  0  0  0
  150.7111  142.5602  157.9604 C   0  0  0  0  0  0  0  0  0  0  0  0
  150.7935  143.3516  159.1019 C   0  0  0  0  0  0  0  0  0  0  0  0
  151.7635  142.9846  160.0578 C   0  0  0  0  0  0  0  0  0  0  0  0
  152.6054  141.8708  159.8595 C   0  0  0  0  0  0  0  0  0  0  0  0
  152.5138  141.0771  158.6972 C   0  0  0  0  0  0  0  0  0  0  0  0
  151.5519  141.4468  157.7575 C   0  0  0  0  0  0  0  0  0  0  0  0
  148.8827  136.8072  154.9774 C   0  0  0  0  0  0  0  0  0  0  0  0
  148.0463  135.5481  154.6808 C   0  0  2  0  0  0  0  0  0  0  0  0
  146.8042  135.4560  155.5735 C   0  0  0  0  0  0  0  0  0  0  0  0
  148.8469  134.3945  154.9123 O   0  0  0  0  0  0  0  0  0  0  0  0
  151.6019  132.9260  153.6956 H   0  0  0  0  0  0  0  0  0  0  0  0
  150.0741  132.1703  154.1374 H   0  0  0  0  0  0  0  0  0  0  0  0
  151.0537  132.9586  155.3709 H   0  0  0  0  0  0  0  0  0  0  0  0
  149.6662  134.3533  153.0238 H   0  0  0  0  0  0  0  0  0  0  0  0
  151.2592  135.5315  155.3690 H   0  0  0  0  0  0  0  0  0  0  0  0
  151.7445  135.5421  153.6845 H   0  0  0  0  0  0  0  0  0  0  0  0
  151.9337  137.8927  154.0046 H   0  0  0  0  0  0  0  0  0  0  0  0
  150.5044  138.8549  153.7350 H   0  0  0  0  0  0  0  0  0  0  0  0
  149.9790  138.7621  156.1927 H   0  0  0  0  0  0  0  0  0  0  0  0
  151.6593  137.7599  157.4882 H   0  0  0  0  0  0  0  0  0  0  0  0
  152.7009  139.4930  156.7118 H   0  0  0  0  0  0  0  0  0  0  0  0
  152.3785  139.9913  155.0738 H   0  0  0  0  0  0  0  0  0  0  0  0
  150.2226  141.3845  153.8604 H   0  0  0  0  0  0  0  0  0  0  0  0
  148.9998  140.4336  154.6770 H   0  0  0  0  0  0  0  0  0  0  0  0
  148.7165  143.1651  154.8903 H   0  0  0  0  0  0  0  0  0  0  0  0
  150.1495  144.2051  159.2561 H   0  0  0  0  0  0  0  0  0  0  0  0
  151.8632  143.5687  160.9613 H   0  0  0  0  0  0  0  0  0  0  0  0
  153.3362  141.6202  160.6149 H   0  0  0  0  0  0  0  0  0  0  0  0
  153.1638  140.2264  158.5556 H   0  0  0  0  0  0  0  0  0  0  0  0
  149.1551  136.8409  156.0337 H   0  0  0  0  0  0  0  0  0  0  0  0
  148.2882  137.6979  154.7702 H   0  0  0  0  0  0  0  0  0  0  0  0
  147.7235  135.5581  153.6381 H   0  0  0  0  0  0  0  0  0  0  0  0
  146.1510  136.3170  155.4281 H   0  0  0  0  0  0  0  0  0  0  0  0
  147.0769  135.4171  156.6287 H   0  0  0  0  0  0  0  0  0  0  0  0
  146.2266  134.5598  155.3460 H   0  0  0  0  0  0  0  0  0  0  0  0
  149.8019  136.8371  153.1885 H   0  0  0  0  0  0  0  0  0  0  0  0
  149.1595  143.3426  156.6864 H   0  0  0  0  0  0  0  0  0  0  0  0
  1  2  1  0  0  0  0
  1 24  1  0  0  0  0
  1 25  1  0  0  0  0
  1 26  1  0  0  0  0
  2 23  1  0  0  0  0
  2  3  1  0  0  0  0
  2 27  1  0  0  0  0
  3  4  1  0  0  0  0
  3 28  1  0  0  0  0
  3 29  1  0  0  0  0
  4  5  1  0  0  0  0
  4 20  1  0  0  0  0
  4 49  1  0  0  0  0
  5  6  1  0  0  0  0
  5 30  1  0  0  0  0
  5 31  1  0  0  0  0
  6  7  1  0  0  0  0
  6  8  1  0  0  0  0
  6 32  1  0  0  0  0
  7 33  1  0  0  0  0
  8  9  1  0  0  0  0
  8 34  1  0  0  0  0
  8 35  1  0  0  0  0
  9 19  1  0  0  0  0
  9 10  1  0  0  0  0
 10 11  1  0  0  0  0
 10 13  2  0  0  0  0
 11 12  1  0  0  0  0
 11 36  1  0  0  0  0
 11 37  1  0  0  0  0
 12 38  1  0  0  0  0
 13 14  1  0  0  0  0
 13 50  1  0  0  0  0
 14 19  2  0  0  0  0
 14 15  1  0  0  0  0
 15 16  2  0  0  0  0
 15 39  1  0  0  0  0
 16 17  1  0  0  0  0
 16 40  1  0  0  0  0
 17 18  2  0  0  0  0
 17 41  1  0  0  0  0
 18 19  1  0  0  0  0
 18 42  1  0  0  0  0
 20 21  1  0  0  0  0
 20 43  1  0  0  0  0
 20 44  1  0  0  0  0
 21 22  1  0  0  0  0
 21 23  1  0  0  0  0
 21 45  1  0  0  0  0
 22 46  1  0  0  0  0
 22 47  1  0  0  0  0
 22 48  1  0  0  0  0
M  CHG  1   4   1
M  CHG  1  13   1
M  END
> <s_m_source_file>
AV-unprocessed.smi

> <i_m_source_file_index>
1703

> <i_lp_mmshare_version>
43012

> <i_f3d_flags>
0

> <s_epik_input>
W0NIM11bQ0BASF0xW0NIMl1OKFtDSDJdW0NASF0oTzEpW0NIM10pW0NIMl1bQ0BIXShbT0hdKVtDSDJdbihjKG4yKVtDSDJdW09IXSljKGMyMylbY0hdW2NIXVtjSF1bY0hdMw==

> <s_epik_cmdline>
J2VwaWtfcHl0aG9uJywgJy1waCcsICc3LjAnLCAnLXRuJywgJzgnLCAnLW1hJywgJzIwMCcsICctbWV0YWxfYmluZGluZycsICctaW1hZScsICc8aW5maWxlLm1hZT4nLCAnLW9tYWUnLCAnPG91dGZpbGUubWFlPic=

> <r_epik_Ionization_Penalty>
2.22579

> <r_epik_Ionization_Penalty_Charging>
2.22492

> <r_epik_Ionization_Penalty_Neutral>
0.000870007

> <r_epik_State_Penalty>
2.3141

> <r_epik_Charging_Adjusted_Penalty>
4.53902

> <i_epik_Tot_Q>
2

> <i_epik_Tot_abs_Q>
2

> <r_epik_Metal_State_Penalty>
6.36517

> <b_epik_Metal_Only>
0

> <s_lp_Force_Field>
OPLS_2005

> <r_lp_Energy>
26.5271

> <b_lp_Chiralities_Consistent>
1

> <s_lp_Variant>
AV-unprocessed.smi:1703-27

> <Gold.Version>
5.8.1

> <Gold.Id.Protein>
6NUR|6NUR_protein|mol2

> <Gold.PLP.Fitness>
54.9170

> <Gold.PLP.PLP>
-41.8885

> <Gold.PLP.part.hbond>
-4.0000

> <Gold.PLP.part.metal>
0.0000

> <Gold.PLP.part.buried>
-5.5320

> <Gold.PLP.part.nonpolar>
-32.6741

> <Gold.PLP.part.repulsive>
0.1154

> <Gold.PLP.ligand.clash>
0.0000

> <Gold.PLP.ligand.torsion>
1.0045

> <Gold.PLP.Chemscore.Hbond>
5.0069

> <Gold.PLP.Chemscore.CHOScore>
0.0000

> <Gold.PLP.Chemscore.Metal>
0.0000

> <Gold.Chemscore.Hbonds>
donor molecule, donor type, donor heavy atom, donor atom, acceptor molecule, acceptor atom, score
      L1  H     4    49       P1  7948  2.00
      L1  H    12    38       P1  8028  1.00
      L1  H    13    50       P1  8028  1.57

> <Gold.PLP.Chemscore.Internal.Correction>
0.0169

> <Gold.Rescore>
     Score         DG    S(hbond)    S(metal)    S(lipo)     H(rot)  DE(clash)    DE(int)     intcor
     17.23     -19.16       2.91        0.00     100.38       3.04       0.09       1.83       ----

> <Gold.Chemscore.Fitness>
17.2320

> <Gold.Chemscore.DG>
-19.1564

> <Gold.Chemscore.ZeroCoef>
-5.4800

> <Gold.Chemscore.Hbond>
2.9067

> <Gold.Chemscore.Metal>
0.0000

> <Gold.Chemscore.Lipo>
100.3814

> <Gold.Chemscore.Internal_Hbond>
0.0000

> <Gold.Chemscore.DEClash>
0.0910

> <Gold.Chemscore.DEInternal>
1.8334

> <Gold.Chemscore.Rot>
3.0378

> <Gold.Chemscore.Internal.Correction>
   9.000000E+99

> <Gold.Chemscore.Hbonds>
donor molecule, donor type, donor heavy atom, donor atom, acceptor molecule, acceptor atom, score
      L1  H     4    49       P1  7948  0.29
      L1  H    12    38       P1  8028  1.00
      L1  H    13    50       P1  8028  0.75

> <Gold.Chemscore.Hbond.Weighted>
-9.7085

> <Gold.Chemscore.Metal.Weighted>
-0.0000

> <Gold.Chemscore.Lipo.Weighted>
-11.7446

> <Gold.Chemscore.Internal_Hbond.Weighted>
0.0000

> <Gold.Chemscore.DEClash.Weighted>
0.0910

> <Gold.Chemscore.DEInternal.Weighted>
1.8334

> <Gold.Chemscore.Rot.Weighted>
7.7767

> <Gold.Chemscore.Internal.Correction.Weighted>
   9.000000E+99

> <Gold.Protein.RotatedTorsions>
[ 6907 6896 6895 6894 ] final  -50.24 input  -60.11 | X-H torsion
[ 7974 7965 7964 7962 ] final -175.16 input  175.53 | X-H torsion
[ 8008 7997 7996 7995 ] final  171.27 input   59.86 | X-H torsion
[ 10167 10162 10161 10158 ] final -122.40 input  -65.29 | X-H torsion
[ 10718 10713 10712 10709 ] final  -97.95 input   66.30 | X-H torsion
[ 10763 10752 10751 10750 ] final   -8.70 input  -60.55 | X-H torsion
[ 11005 11000 10999 10996 ] final  -10.92 input  -57.11 | X-H torsion

> <Gold.Protein.ActiveResidues>
 VAL166  LYS551  ARG553  GLY616  TRP617  ASP618  TYR619  PRO620  LYS621  CYS622 
 ASP623  PHE694  ASN695  SER759  ASP760  ASP761  ALA762  ILE779  LEU786  VAL792 
 PHE793  MET794  SER795  GLU796  ALA797  LYS798  CYS799  TRP800  GLU811  SER814 

> <Gold.Protein.RotatedAtoms>
  150.8726  134.8103  159.7166 H   0  0  0  0  0  0  0  0  0  0  0  0  # atno 6907 bound_to 6896
  152.4725  134.4922  159.9708 H   0  0  0  0  0  0  0  0  0  0  0  0  # atno 6908 bound_to 6896
  151.5008  133.3466  159.2904 H   0  0  0  0  0  0  0  0  0  0  0  0  # atno 6909 bound_to 6896
  144.7129  140.1363  143.6395 H   0  0  0  0  0  0  0  0  0  0  0  0  # atno 7974 bound_to 7965
  156.1287  140.1516  156.9098 H   0  0  0  0  0  0  0  0  0  0  0  0  # atno 8008 bound_to 7997
  154.4891  140.0856  156.7595 H   0  0  0  0  0  0  0  0  0  0  0  0  # atno 8009 bound_to 7997
  155.4297  140.3426  155.4281 H   0  0  0  0  0  0  0  0  0  0  0  0  # atno 8010 bound_to 7997
  140.0147  143.5406  152.2248 H   0  0  0  0  0  0  0  0  0  0  0  0  # atno 10167 bound_to 10162
  156.0095  130.5216  150.6450 H   0  0  0  0  0  0  0  0  0  0  0  0  # atno 10718 bound_to 10713
  153.4442  135.7014  153.6150 H   0  0  0  0  0  0  0  0  0  0  0  0  # atno 10763 bound_to 10752
  153.4512  135.3757  155.2285 H   0  0  0  0  0  0  0  0  0  0  0  0  # atno 10764 bound_to 10752
  154.8728  135.3997  154.3845 H   0  0  0  0  0  0  0  0  0  0  0  0  # atno 10765 bound_to 10752
  140.7499  133.8601  155.9036 H   0  0  0  0  0  0  0  0  0  0  0  0  # atno 11005 bound_to 11000
  145.9242  139.2565  143.1363 LP  0  0  0  0  0  0  0  0  0  0  0  0  # atno 17320 bound_to 7965
  145.9589  140.8851  143.0221 LP  0  0  0  0  0  0  0  0  0  0  0  0  # atno 17321 bound_to 7965
  139.6181  144.7623  151.2801 LP  0  0  0  0  0  0  0  0  0  0  0  0  # atno 17342 bound_to 10162
  140.7367  143.6699  150.8091 LP  0  0  0  0  0  0  0  0  0  0  0  0  # atno 17343 bound_to 10162
  157.4222  131.0838  151.1119 LP  0  0  0  0  0  0  0  0  0  0  0  0  # atno 17370 bound_to 10713
  157.1718  130.6270  149.5643 LP  0  0  0  0  0  0  0  0  0  0  0  0  # atno 17371 bound_to 10713
  140.9760  134.1468  157.4535 LP  0  0  0  0  0  0  0  0  0  0  0  0  # atno 17394 bound_to 11000
  139.8789  134.9995  156.5957 LP  0  0  0  0  0  0  0  0  0  0  0  0  # atno 17395 bound_to 11000

$$$$
