AV-unprocessed.smi:1372|AV-procd|sdf|5582|dock2
  -GOLD-   22720 5183D 1   1.00000     0.00000
 Structure written by MMmdl.
 41 43  0  0  0  0  0  0  0  0  1 V2000
  153.9005  137.5044  156.6319 C   0  0  0  0  0  0  0  0  0  0  0  0
  152.8209  138.2604  155.3494 S   0  0  0  0  0  0  0  0  0  0  0  0
  153.6010  139.2839  154.6370 O   0  0  0  0  0  0  0  0  0  0  0  0
  152.1767  137.1774  154.5910 O   0  0  0  0  0  0  0  0  0  0  0  0
  151.5439  139.1042  156.3865 C   0  0  0  0  0  0  0  0  0  0  0  0
  150.3701  139.5717  155.5704 C   0  0  0  0  0  0  0  0  0  0  0  0
  149.6580  138.7493  154.7969 N   0  0  0  0  0  0  0  0  0  0  0  0
  148.7030  139.5832  154.2521 C   0  0  0  0  0  0  0  0  0  0  0  0
  147.6442  139.3077  153.3576 C   0  0  0  0  0  0  0  0  0  0  0  0
  146.7831  140.3404  152.9315 C   0  0  0  0  0  0  0  0  0  0  0  0
  146.9690  141.6600  153.3921 C   0  0  0  0  0  0  0  0  0  0  0  0
  148.0186  141.9551  154.2832 C   0  0  0  0  0  0  0  0  0  0  0  0
  148.8738  140.9201  154.7065 C   0  0  0  0  0  0  0  0  0  0  0  0
  149.9738  140.8719  155.5572 N   0  0  0  0  0  0  0  0  0  0  0  0
  150.5463  142.0123  156.2623 C   0  0  0  0  0  0  0  0  0  0  0  0
  150.5180  141.8339  157.7942 C   0  0  2  0  0  0  0  0  0  0  0  0
  149.1752  141.6447  158.1917 O   0  0  0  0  0  0  0  0  0  0  0  0
  151.1828  142.9880  158.5321 C   0  0  0  0  0  0  0  0  0  0  0  0
  150.6602  144.2934  158.4092 C   0  0  0  0  0  0  0  0  0  0  0  0
  151.2562  145.3657  159.1005 C   0  0  0  0  0  0  0  0  0  0  0  0
  152.3751  145.1385  159.9243 C   0  0  0  0  0  0  0  0  0  0  0  0
  152.9005  143.8387  160.0531 C   0  0  0  0  0  0  0  0  0  0  0  0
  152.3082  142.7668  159.3575 C   0  0  0  0  0  0  0  0  0  0  0  0
  154.7182  136.9715  156.1470 H   0  0  0  0  0  0  0  0  0  0  0  0
  153.3187  136.8041  157.2311 H   0  0  0  0  0  0  0  0  0  0  0  0
  154.3076  138.2847  157.2744 H   0  0  0  0  0  0  0  0  0  0  0  0
  151.2272  138.3901  157.1422 H   0  0  0  0  0  0  0  0  0  0  0  0
  152.0050  139.9528  156.8909 H   0  0  0  0  0  0  0  0  0  0  0  0
  147.4946  138.2999  152.9996 H   0  0  0  0  0  0  0  0  0  0  0  0
  145.9768  140.1188  152.2478 H   0  0  0  0  0  0  0  0  0  0  0  0
  146.3055  142.4456  153.0608 H   0  0  0  0  0  0  0  0  0  0  0  0
  148.1637  142.9645  154.6381 H   0  0  0  0  0  0  0  0  0  0  0  0
  151.5558  142.2116  155.9033 H   0  0  0  0  0  0  0  0  0  0  0  0
  149.9589  142.8894  155.9869 H   0  0  0  0  0  0  0  0  0  0  0  0
  151.0421  140.9133  158.0542 H   0  0  0  0  0  0  0  0  0  0  0  0
  149.1324  141.6997  159.1343 H   0  0  0  0  0  0  0  0  0  0  0  0
  149.7938  144.4753  157.7899 H   0  0  0  0  0  0  0  0  0  0  0  0
  150.8487  146.3614  159.0056 H   0  0  0  0  0  0  0  0  0  0  0  0
  152.8276  145.9605  160.4591 H   0  0  0  0  0  0  0  0  0  0  0  0
  153.7569  143.6634  160.6874 H   0  0  0  0  0  0  0  0  0  0  0  0
  152.7151  141.7724  159.4691 H   0  0  0  0  0  0  0  0  0  0  0  0
  1  2  1  0  0  0  0
  1 24  1  0  0  0  0
  1 25  1  0  0  0  0
  1 26  1  0  0  0  0
  2  3  2  0  0  0  0
  2  4  2  0  0  0  0
  2  5  1  0  0  0  0
  5  6  1  0  0  0  0
  5 27  1  0  0  0  0
  5 28  1  0  0  0  0
  6 14  1  0  0  0  0
  6  7  2  0  0  0  0
  7  8  1  0  0  0  0
  8 13  2  0  0  0  0
  8  9  1  0  0  0  0
  9 10  2  0  0  0  0
  9 29  1  0  0  0  0
 10 11  1  0  0  0  0
 10 30  1  0  0  0  0
 11 12  2  0  0  0  0
 11 31  1  0  0  0  0
 12 13  1  0  0  0  0
 12 32  1  0  0  0  0
 13 14  1  0  0  0  0
 14 15  1  0  0  0  0
 15 16  1  0  0  0  0
 15 33  1  0  0  0  0
 15 34  1  0  0  0  0
 16 17  1  0  0  0  0
 16 18  1  0  0  0  0
 16 35  1  0  0  0  0
 17 36  1  0  0  0  0
 18 23  1  0  0  0  0
 18 19  2  0  0  0  0
 19 20  1  0  0  0  0
 19 37  1  0  0  0  0
 20 21  2  0  0  0  0
 20 38  1  0  0  0  0
 21 22  1  0  0  0  0
 21 39  1  0  0  0  0
 22 23  2  0  0  0  0
 22 40  1  0  0  0  0
 23 41  1  0  0  0  0
M  END
> <s_m_source_file>
AV-unprocessed.smi

> <i_m_source_file_index>
1372

> <i_lp_mmshare_version>
43012

> <i_f3d_flags>
0

> <s_epik_input>
W2NIXTFbY0hdW2NIXVtjSF1jKGMxMiluKGMobjIpW0NIMl1TKD1PKSg9TylbQ0gzXSlbQ0gyXVtDQEhdKFtPSF0pYzNbY0hdW2NIXVtjSF1bY0hdW2NIXTM=

> <s_epik_cmdline>
J2VwaWtfcHl0aG9uJywgJy1waCcsICc3LjAnLCAnLXRuJywgJzgnLCAnLW1hJywgJzIwMCcsICctbWV0YWxfYmluZGluZycsICctaW1hZScsICc8aW5maWxlLm1hZT4nLCAnLW9tYWUnLCAnPG91dGZpbGUubWFlPic=

> <r_epik_Ionization_Penalty>
0.0151431

> <r_epik_Ionization_Penalty_Charging>
0

> <r_epik_Ionization_Penalty_Neutral>
0.0151431

> <r_epik_State_Penalty>
0.0118835

> <r_epik_Charging_Adjusted_Penalty>
0.0118835

> <i_epik_Tot_Q>
0

> <i_epik_Tot_abs_Q>
0

> <r_epik_Metal_State_Penalty>
1.20034e-05

> <b_epik_Metal_Only>
0

> <s_lp_Force_Field>
OPLS_2005

> <r_lp_Energy>
10.1971

> <b_lp_Chiralities_Consistent>
1

> <s_lp_Variant>
AV-unprocessed.smi:1372-1

> <Gold.Version>
5.8.1

> <Gold.Id.Protein>
6NUR|6NUR_protein|mol2

> <Gold.PLP.Fitness>
50.0356

> <Gold.PLP.PLP>
-45.1621

> <Gold.PLP.part.hbond>
-2.8508

> <Gold.PLP.part.metal>
0.0000

> <Gold.PLP.part.buried>
0.0416

> <Gold.PLP.part.nonpolar>
-43.3154

> <Gold.PLP.part.repulsive>
0.3020

> <Gold.PLP.ligand.clash>
0.0000

> <Gold.PLP.ligand.torsion>
0.2234

> <Gold.PLP.Chemscore.Hbond>
1.7360

> <Gold.PLP.Chemscore.CHOScore>
0.0000

> <Gold.PLP.Chemscore.Metal>
0.0000

> <Gold.Chemscore.Hbonds>
donor molecule, donor type, donor heavy atom, donor atom, acceptor molecule, acceptor atom, score
      P1  H  7997  8009       L1     3  1.00
      P1  H 10752 10764       L1     4  0.75

> <Gold.PLP.Chemscore.Internal.Correction>
0.1123

> <Gold.Rescore>
     Score         DG    S(hbond)    S(metal)    S(lipo)     H(rot)  DE(clash)    DE(int)     intcor
     18.07     -19.80       1.59        0.00     127.87       2.33       0.25       1.48       ----

> <Gold.Chemscore.Fitness>
18.0730

> <Gold.Chemscore.DG>
-19.7954

> <Gold.Chemscore.ZeroCoef>
-5.4800

> <Gold.Chemscore.Hbond>
1.5930

> <Gold.Chemscore.Metal>
0.0000

> <Gold.Chemscore.Lipo>
127.8740

> <Gold.Chemscore.Internal_Hbond>
0.0000

> <Gold.Chemscore.DEClash>
0.2464

> <Gold.Chemscore.DEInternal>
1.4760

> <Gold.Chemscore.Rot>
2.3306

> <Gold.Chemscore.Internal.Correction>
   9.000000E+99

> <Gold.Chemscore.Hbonds>
donor molecule, donor type, donor heavy atom, donor atom, acceptor molecule, acceptor atom, score
      P1  H  7997  8009       L1     3  0.93
      P1  H 10752 10764       L1     4  0.73

> <Gold.Chemscore.Hbond.Weighted>
-5.3205

> <Gold.Chemscore.Metal.Weighted>
-0.0000

> <Gold.Chemscore.Lipo.Weighted>
-14.9613

> <Gold.Chemscore.Internal_Hbond.Weighted>
0.0000

> <Gold.Chemscore.DEClash.Weighted>
0.2464

> <Gold.Chemscore.DEInternal.Weighted>
1.4760

> <Gold.Chemscore.Rot.Weighted>
5.9664

> <Gold.Chemscore.Internal.Correction.Weighted>
   9.000000E+99

> <Gold.Protein.RotatedTorsions>
[ 6907 6896 6895 6894 ] final  105.90 input  -60.11 | X-H torsion
[ 7974 7965 7964 7962 ] final  166.17 input  175.53 | X-H torsion
[ 8008 7997 7996 7995 ] final -112.06 input   59.86 | X-H torsion
[ 10167 10162 10161 10158 ] final  166.52 input  -65.29 | X-H torsion
[ 10718 10713 10712 10709 ] final  -62.38 input   66.30 | X-H torsion
[ 10763 10752 10751 10750 ] final  -89.46 input  -60.55 | X-H torsion
[ 11005 11000 10999 10996 ] final  -65.01 input  -57.11 | X-H torsion

> <Gold.Protein.ActiveResidues>
 VAL166  LYS551  ARG553  GLY616  TRP617  ASP618  TYR619  PRO620  LYS621  CYS622 
 ASP623  PHE694  ASN695  SER759  ASP760  ASP761  ALA762  ILE779  LEU786  VAL792 
 PHE793  MET794  SER795  GLU796  ALA797  LYS798  CYS799  TRP800  GLU811  SER814 

> <Gold.Protein.RotatedAtoms>
  152.5213  133.9460  159.7648 H   0  0  0  0  0  0  0  0  0  0  0  0  # atno 6907 bound_to 6896
  150.9780  133.6267  159.2734 H   0  0  0  0  0  0  0  0  0  0  0  0  # atno 6908 bound_to 6896
  151.3454  135.0879  159.9438 H   0  0  0  0  0  0  0  0  0  0  0  0  # atno 6909 bound_to 6896
  144.7473  139.8577  143.6378 H   0  0  0  0  0  0  0  0  0  0  0  0  # atno 7974 bound_to 7965
  154.9994  140.0394  157.2353 H   0  0  0  0  0  0  0  0  0  0  0  0  # atno 8008 bound_to 7997
  154.7557  140.2775  155.6232 H   0  0  0  0  0  0  0  0  0  0  0  0  # atno 8009 bound_to 7997
  156.2894  140.2638  156.2322 H   0  0  0  0  0  0  0  0  0  0  0  0  # atno 8010 bound_to 7997
  139.4926  144.4018  151.9400 H   0  0  0  0  0  0  0  0  0  0  0  0  # atno 10167 bound_to 10162
  156.0859  130.4208  150.1127 H   0  0  0  0  0  0  0  0  0  0  0  0  # atno 10718 bound_to 10713
  154.6555  135.5340  153.7954 H   0  0  0  0  0  0  0  0  0  0  0  0  # atno 10763 bound_to 10752
  153.0411  135.6493  154.0951 H   0  0  0  0  0  0  0  0  0  0  0  0  # atno 10764 bound_to 10752
  154.0865  135.2943  155.3260 H   0  0  0  0  0  0  0  0  0  0  0  0  # atno 10765 bound_to 10752
  141.1442  133.6674  156.5921 H   0  0  0  0  0  0  0  0  0  0  0  0  # atno 11005 bound_to 11000
  146.1371  139.4419  143.0132 LP  0  0  0  0  0  0  0  0  0  0  0  0  # atno 17320 bound_to 7965
  145.7075  141.0116  143.1471 LP  0  0  0  0  0  0  0  0  0  0  0  0  # atno 17321 bound_to 7965
  140.3458  144.3149  150.5958 LP  0  0  0  0  0  0  0  0  0  0  0  0  # atno 17342 bound_to 10162
  140.5527  143.2204  151.7899 LP  0  0  0  0  0  0  0  0  0  0  0  0  # atno 17343 bound_to 10162
  156.9148  130.9663  151.3557 LP  0  0  0  0  0  0  0  0  0  0  0  0  # atno 17370 bound_to 10713
  157.5993  130.8501  149.8777 LP  0  0  0  0  0  0  0  0  0  0  0  0  # atno 17371 bound_to 10713
  140.3755  134.7569  157.4627 LP  0  0  0  0  0  0  0  0  0  0  0  0  # atno 17394 bound_to 11000
  140.0678  134.5905  155.8676 LP  0  0  0  0  0  0  0  0  0  0  0  0  # atno 17395 bound_to 11000

$$$$
