AV-unprocessed.smi:2023|AV-procd|sdf|8189|dock3
  -GOLD-   2272010443D 1   1.00000     0.00000
 Structure written by MMmdl.
 35 36  0  0  0  0  0  0  0  0  1 V2000
  151.0415  139.2396  154.2946 O   0  0  0  0  0  0  0  0  0  0  0  0
  151.3009  139.5221  155.7145 S   0  0  0  0  0  0  0  0  0  0  0  0
  152.6723  139.7182  156.2085 O   0  0  0  0  0  0  0  0  0  0  0  0
  150.3638  140.8885  156.1965 N   0  0  0  0  0  0  0  0  0  0  0  0
  151.0084  141.9678  156.9473 C   0  0  0  0  0  0  0  0  0  0  0  0
  150.7806  141.8004  158.4591 C   0  0  0  0  0  0  0  0  0  0  0  0
  151.0774  143.0603  159.2521 C   0  0  0  0  0  0  0  0  0  0  0  0
  151.7709  142.9986  160.4785 C   0  0  0  0  0  0  0  0  0  0  0  0
  151.9995  144.1916  161.1901 C   0  0  0  0  0  0  0  0  0  0  0  0
  151.5273  145.4001  160.6405 C   0  0  0  0  0  0  0  0  0  0  0  0
  150.8681  145.4728  159.4642 N   0  0  0  0  0  0  0  0  0  0  0  0
  150.6501  144.3232  158.7900 C   0  0  0  0  0  0  0  0  0  0  0  0
  150.5313  138.2971  156.6646 N   0  0  0  0  0  0  0  0  0  0  0  0
  150.2884  138.6203  158.0805 C   0  0  0  0  0  0  0  0  0  0  0  0
  149.4184  137.5482  158.7567 C   0  0  0  0  0  0  0  0  0  0  0  0
  149.9977  136.2652  158.5786 O   0  0  0  0  0  0  0  0  0  0  0  0
  150.0644  135.9150  157.2054 C   0  0  0  0  0  0  0  0  0  0  0  0
  150.9652  136.9044  156.4488 C   0  0  0  0  0  0  0  0  0  0  0  0
  149.4600  140.6206  156.5852 H   0  0  0  0  0  0  0  0  0  0  0  0
  152.0759  141.9545  156.7271 H   0  0  0  0  0  0  0  0  0  0  0  0
  150.6287  142.9324  156.6078 H   0  0  0  0  0  0  0  0  0  0  0  0
  149.7525  141.4884  158.6476 H   0  0  0  0  0  0  0  0  0  0  0  0
  151.4146  140.9971  158.8360 H   0  0  0  0  0  0  0  0  0  0  0  0
  152.1139  142.0535  160.8728 H   0  0  0  0  0  0  0  0  0  0  0  0
  152.5219  144.1810  162.1352 H   0  0  0  0  0  0  0  0  0  0  0  0
  151.6847  146.3341  161.1594 H   0  0  0  0  0  0  0  0  0  0  0  0
  150.1115  144.4129  157.8581 H   0  0  0  0  0  0  0  0  0  0  0  0
  151.2479  138.7019  158.5922 H   0  0  0  0  0  0  0  0  0  0  0  0
  149.8010  139.5923  158.1577 H   0  0  0  0  0  0  0  0  0  0  0  0
  149.3371  137.7525  159.8244 H   0  0  0  0  0  0  0  0  0  0  0  0
  148.4040  137.5621  158.3546 H   0  0  0  0  0  0  0  0  0  0  0  0
  150.4655  134.9051  157.1186 H   0  0  0  0  0  0  0  0  0  0  0  0
  149.0627  135.8952  156.7731 H   0  0  0  0  0  0  0  0  0  0  0  0
  150.9513  136.6685  155.3855 H   0  0  0  0  0  0  0  0  0  0  0  0
  151.9979  136.8008  156.7844 H   0  0  0  0  0  0  0  0  0  0  0  0
  1  2  2  0  0  0  0
  2  3  2  0  0  0  0
  2  4  1  0  0  0  0
  2 13  1  0  0  0  0
  4  5  1  0  0  0  0
  4 19  1  0  0  0  0
  5  6  1  0  0  0  0
  5 20  1  0  0  0  0
  5 21  1  0  0  0  0
  6  7  1  0  0  0  0
  6 22  1  0  0  0  0
  6 23  1  0  0  0  0
  7 12  1  0  0  0  0
  7  8  2  0  0  0  0
  8  9  1  0  0  0  0
  8 24  1  0  0  0  0
  9 10  2  0  0  0  0
  9 25  1  0  0  0  0
 10 11  1  0  0  0  0
 10 26  1  0  0  0  0
 11 12  2  0  0  0  0
 12 27  1  0  0  0  0
 13 18  1  0  0  0  0
 13 14  1  0  0  0  0
 14 15  1  0  0  0  0
 14 28  1  0  0  0  0
 14 29  1  0  0  0  0
 15 16  1  0  0  0  0
 15 30  1  0  0  0  0
 15 31  1  0  0  0  0
 16 17  1  0  0  0  0
 17 18  1  0  0  0  0
 17 32  1  0  0  0  0
 17 33  1  0  0  0  0
 18 34  1  0  0  0  0
 18 35  1  0  0  0  0
M  END
> <s_m_source_file>
AV-unprocessed.smi

> <i_m_source_file_index>
2023

> <i_lp_mmshare_version>
43012

> <i_f3d_flags>
0

> <s_epik_input>
W0NIMl0xW0NIMl1PW0NIMl1bQ0gyXU4xUyg9TykoPU8pW05IXVtDSDJdW0NIMl1jMltjSF1bY0hdW2NIXW5bY0hdMg==

> <s_epik_cmdline>
J2VwaWtfcHl0aG9uJywgJy1waCcsICc3LjAnLCAnLXRuJywgJzgnLCAnLW1hJywgJzIwMCcsICctbWV0YWxfYmluZGluZycsICctaW1hZScsICc8aW5maWxlLm1hZT4nLCAnLW9tYWUnLCAnPG91dGZpbGUubWFlPic=

> <r_epik_Ionization_Penalty>
0.0861056

> <r_epik_Ionization_Penalty_Charging>
0

> <r_epik_Ionization_Penalty_Neutral>
0.0861056

> <r_epik_State_Penalty>
0.0574425

> <r_epik_Charging_Adjusted_Penalty>
0.0574425

> <i_epik_Tot_Q>
0

> <i_epik_Tot_abs_Q>
0

> <r_epik_Metal_State_Penalty>
0.317425

> <b_epik_Metal_Only>
0

> <s_lp_Force_Field>
OPLS_2005

> <r_lp_Energy>
8.68862

> <b_lp_Chiralities_Consistent>
1

> <s_lp_Variant>
AV-unprocessed.smi:2023-1

> <Gold.Version>
5.8.1

> <Gold.Id.Protein>
6NUR|6NUR_protein|mol2

> <Gold.PLP.Fitness>
41.3593

> <Gold.PLP.PLP>
-30.3571

> <Gold.PLP.part.hbond>
-4.3112

> <Gold.PLP.part.metal>
0.0000

> <Gold.PLP.part.buried>
-4.2548

> <Gold.PLP.part.nonpolar>
-22.7590

> <Gold.PLP.part.repulsive>
0.3416

> <Gold.PLP.ligand.clash>
0.0000

> <Gold.PLP.ligand.torsion>
0.9539

> <Gold.PLP.Chemscore.Hbond>
2.9500

> <Gold.PLP.Chemscore.CHOScore>
1.0898

> <Gold.PLP.Chemscore.Metal>
0.0000

> <Gold.Chemscore.Hbonds>
donor molecule, donor type, donor heavy atom, donor atom, acceptor molecule, acceptor atom, score
      P1  H  6896  6908       L1    16  1.00
      P1  H  7989  7998       L1     1  1.00
      P1  H  7997  8008       L1     3  1.00
      L1  C    12    27       P1  8028  0.92
      L1  C    12    27       P1  8029  0.17

> <Gold.PLP.Chemscore.Internal.Correction>
0.7905

> <Gold.Rescore>
     Score         DG    S(hbond)    S(metal)    S(lipo)     H(rot)  DE(clash)    DE(int)     intcor
     16.03     -17.22       2.12        0.00      79.96       1.84       0.39       0.80       ----

> <Gold.Chemscore.Fitness>
16.0261

> <Gold.Chemscore.DG>
-17.2166

> <Gold.Chemscore.ZeroCoef>
-5.4800

> <Gold.Chemscore.Hbond>
2.1217

> <Gold.Chemscore.Metal>
0.0000

> <Gold.Chemscore.Lipo>
79.9645

> <Gold.Chemscore.Internal_Hbond>
0.0000

> <Gold.Chemscore.DEClash>
0.3932

> <Gold.Chemscore.DEInternal>
0.7973

> <Gold.Chemscore.Rot>
1.8382

> <Gold.Chemscore.Internal.Correction>
   9.000000E+99

> <Gold.Chemscore.Hbonds>
donor molecule, donor type, donor heavy atom, donor atom, acceptor molecule, acceptor atom, score
      P1  H  6896  6908       L1    16  0.57
      P1  H  7989  7998       L1     1  0.30
      P1  H  7997  8008       L1     3  0.99

> <Gold.Chemscore.Hbond.Weighted>
-7.0865

> <Gold.Chemscore.Metal.Weighted>
-0.0000

> <Gold.Chemscore.Lipo.Weighted>
-9.3558

> <Gold.Chemscore.Internal_Hbond.Weighted>
0.0000

> <Gold.Chemscore.DEClash.Weighted>
0.3932

> <Gold.Chemscore.DEInternal.Weighted>
0.7973

> <Gold.Chemscore.Rot.Weighted>
4.7057

> <Gold.Chemscore.Internal.Correction.Weighted>
   9.000000E+99

> <Gold.Protein.RotatedTorsions>
[ 6907 6896 6895 6894 ] final  179.30 input  -60.11 | X-H torsion
[ 7974 7965 7964 7962 ] final  -56.38 input  175.53 | X-H torsion
[ 8008 7997 7996 7995 ] final  -27.10 input   59.86 | X-H torsion
[ 10167 10162 10161 10158 ] final  118.97 input  -65.29 | X-H torsion
[ 10718 10713 10712 10709 ] final   57.55 input   66.30 | X-H torsion
[ 10763 10752 10751 10750 ] final -141.16 input  -60.55 | X-H torsion
[ 11005 11000 10999 10996 ] final -160.55 input  -57.11 | X-H torsion

> <Gold.Protein.ActiveResidues>
 VAL166  LYS551  ARG553  GLY616  TRP617  ASP618  TYR619  PRO620  LYS621  CYS622 
 ASP623  PHE694  ASN695  SER759  ASP760  ASP761  ALA762  ILE779  LEU786  VAL792 
 PHE793  MET794  SER795  GLU796  ALA797  LYS798  CYS799  TRP800  GLU811  SER814 

> <Gold.Protein.RotatedAtoms>
  151.6739  133.3313  159.3202 H   0  0  0  0  0  0  0  0  0  0  0  0  # atno 6907 bound_to 6896
  150.7854  134.6838  159.6468 H   0  0  0  0  0  0  0  0  0  0  0  0  # atno 6908 bound_to 6896
  152.3923  134.6425  160.0155 H   0  0  0  0  0  0  0  0  0  0  0  0  # atno 6909 bound_to 6896
  145.8634  140.8269  142.9925 H   0  0  0  0  0  0  0  0  0  0  0  0  # atno 7974 bound_to 7965
  154.4393  140.1881  156.0879 H   0  0  0  0  0  0  0  0  0  0  0  0  # atno 8008 bound_to 7997
  156.0388  140.3322  155.7194 H   0  0  0  0  0  0  0  0  0  0  0  0  # atno 8009 bound_to 7997
  155.5730  140.0614  157.2792 H   0  0  0  0  0  0  0  0  0  0  0  0  # atno 8010 bound_to 7997
  139.6077  144.7074  151.2916 H   0  0  0  0  0  0  0  0  0  0  0  0  # atno 10167 bound_to 10162
  157.5524  130.8775  149.8983 H   0  0  0  0  0  0  0  0  0  0  0  0  # atno 10718 bound_to 10713
  154.8555  135.3532  154.5823 H   0  0  0  0  0  0  0  0  0  0  0  0  # atno 10763 bound_to 10752
  153.6434  135.6997  153.5238 H   0  0  0  0  0  0  0  0  0  0  0  0  # atno 10764 bound_to 10752
  153.2953  135.4222  155.1162 H   0  0  0  0  0  0  0  0  0  0  0  0  # atno 10765 bound_to 10752
  140.6303  134.4658  157.5229 H   0  0  0  0  0  0  0  0  0  0  0  0  # atno 11005 bound_to 11000
  144.6726  140.1129  143.7454 LP  0  0  0  0  0  0  0  0  0  0  0  0  # atno 17320 bound_to 7965
  145.9222  139.2553  143.1374 LP  0  0  0  0  0  0  0  0  0  0  0  0  # atno 17321 bound_to 7965
  140.7296  143.6902  150.7928 LP  0  0  0  0  0  0  0  0  0  0  0  0  # atno 17342 bound_to 10162
  140.0491  143.5268  152.2682 LP  0  0  0  0  0  0  0  0  0  0  0  0  # atno 17343 bound_to 10162
  156.0588  130.3703  150.1029 LP  0  0  0  0  0  0  0  0  0  0  0  0  # atno 17370 bound_to 10713
  156.9201  130.9680  151.3550 LP  0  0  0  0  0  0  0  0  0  0  0  0  # atno 17371 bound_to 10713
  139.9119  134.8327  156.1500 LP  0  0  0  0  0  0  0  0  0  0  0  0  # atno 17394 bound_to 11000
  141.0680  133.6810  156.2084 LP  0  0  0  0  0  0  0  0  0  0  0  0  # atno 17395 bound_to 11000

$$$$
