AV-unprocessed.smi:1856|AV-procd|sdf|7535|dock5
  -GOLD-   22720 9253D 1   1.00000     0.00000
 Structure written by MMmdl.
 44 45  0  0  0  0  0  0  0  0  1 V2000
  149.2854  134.2806  154.6648 C   0  0  0  0  0  0  0  0  0  0  0  0
  150.2458  134.3536  155.8617 C   0  0  0  0  0  0  0  0  0  0  0  0
  150.3328  135.7369  156.5360 C   0  0  0  0  0  0  0  0  0  0  0  0
  150.9041  136.8276  155.6249 C   0  0  0  0  0  0  0  0  0  0  0  0
  151.1887  136.5709  154.4550 O   0  0  0  0  0  0  0  0  0  0  0  0
  151.0462  138.0454  156.1702 N   0  0  0  0  0  0  0  0  0  0  0  0
  151.5398  139.2360  155.4826 C   0  0  2  0  0  0  0  0  0  0  0  0
  152.8320  138.9260  154.7136 C   0  0  0  0  0  0  0  0  0  0  0  0
  151.7338  140.3108  156.5207 C   0  0  0  0  0  0  0  0  0  0  0  0
  152.5163  140.1270  157.5879 N   0  0  0  0  0  0  0  0  0  0  0  0
  152.4122  141.3288  158.2583 C   0  0  0  0  0  0  0  0  0  0  0  0
  153.0087  141.7611  159.4644 C   0  0  0  0  0  0  0  0  0  0  0  0
  152.7494  143.0535  159.9656 C   0  0  0  0  0  0  0  0  0  0  0  0
  151.8914  143.9294  159.2699 C   0  0  0  0  0  0  0  0  0  0  0  0
  151.2868  143.5178  158.0666 C   0  0  0  0  0  0  0  0  0  0  0  0
  151.5501  142.2268  157.5691 C   0  0  0  0  0  0  0  0  0  0  0  0
  151.1263  141.5242  156.4442 N   0  0  0  0  0  0  0  0  0  0  0  0
  150.2188  142.0211  155.4182 C   0  0  0  0  0  0  0  0  0  0  0  0
  149.1463  140.9881  155.0157 C   0  0  1  0  0  0  0  0  0  0  0  0
  147.8602  141.0673  155.8526 C   0  0  0  0  0  0  0  0  0  0  0  0
  148.8155  141.1971  153.6595 O   0  0  0  0  0  0  0  0  0  0  0  0
  149.2054  133.2570  154.2985 H   0  0  0  0  0  0  0  0  0  0  0  0
  149.6267  134.8966  153.8329 H   0  0  0  0  0  0  0  0  0  0  0  0
  148.2846  134.6123  154.9425 H   0  0  0  0  0  0  0  0  0  0  0  0
  149.9213  133.6280  156.6083 H   0  0  0  0  0  0  0  0  0  0  0  0
  151.2402  134.0320  155.5487 H   0  0  0  0  0  0  0  0  0  0  0  0
  149.3446  136.0475  156.8771 H   0  0  0  0  0  0  0  0  0  0  0  0
  150.9498  135.6604  157.4325 H   0  0  0  0  0  0  0  0  0  0  0  0
  150.7771  138.1656  157.1363 H   0  0  0  0  0  0  0  0  0  0  0  0
  150.7958  139.5596  154.7572 H   0  0  0  0  0  0  0  0  0  0  0  0
  153.2024  139.8145  154.2018 H   0  0  0  0  0  0  0  0  0  0  0  0
  152.6649  138.1564  153.9594 H   0  0  0  0  0  0  0  0  0  0  0  0
  153.6197  138.5733  155.3806 H   0  0  0  0  0  0  0  0  0  0  0  0
  153.6668  141.0971  160.0051 H   0  0  0  0  0  0  0  0  0  0  0  0
  153.2102  143.3741  160.8884 H   0  0  0  0  0  0  0  0  0  0  0  0
  151.6970  144.9176  159.6607 H   0  0  0  0  0  0  0  0  0  0  0  0
  150.6274  144.1870  157.5346 H   0  0  0  0  0  0  0  0  0  0  0  0
  149.7390  142.9263  155.7920 H   0  0  0  0  0  0  0  0  0  0  0  0
  150.8023  142.3350  154.5522 H   0  0  0  0  0  0  0  0  0  0  0  0
  149.5550  139.9811  155.1010 H   0  0  0  0  0  0  0  0  0  0  0  0
  148.0546  140.8467  156.9023 H   0  0  0  0  0  0  0  0  0  0  0  0
  147.1197  140.3474  155.5031 H   0  0  0  0  0  0  0  0  0  0  0  0
  147.4121  142.0602  155.7980 H   0  0  0  0  0  0  0  0  0  0  0  0
  149.0513  140.4237  153.1701 H   0  0  0  0  0  0  0  0  0  0  0  0
  1  2  1  0  0  0  0
  1 22  1  0  0  0  0
  1 23  1  0  0  0  0
  1 24  1  0  0  0  0
  2  3  1  0  0  0  0
  2 25  1  0  0  0  0
  2 26  1  0  0  0  0
  3  4  1  0  0  0  0
  3 27  1  0  0  0  0
  3 28  1  0  0  0  0
  4  5  2  0  0  0  0
  4  6  1  0  0  0  0
  6  7  1  0  0  0  0
  6 29  1  0  0  0  0
  7  8  1  0  0  0  0
  7  9  1  0  0  0  0
  7 30  1  0  0  0  0
  8 31  1  0  0  0  0
  8 32  1  0  0  0  0
  8 33  1  0  0  0  0
  9 17  1  0  0  0  0
  9 10  2  0  0  0  0
 10 11  1  0  0  0  0
 11 16  2  0  0  0  0
 11 12  1  0  0  0  0
 12 13  2  0  0  0  0
 12 34  1  0  0  0  0
 13 14  1  0  0  0  0
 13 35  1  0  0  0  0
 14 15  2  0  0  0  0
 14 36  1  0  0  0  0
 15 16  1  0  0  0  0
 15 37  1  0  0  0  0
 16 17  1  0  0  0  0
 17 18  1  0  0  0  0
 18 19  1  0  0  0  0
 18 38  1  0  0  0  0
 18 39  1  0  0  0  0
 19 20  1  0  0  0  0
 19 21  1  0  0  0  0
 19 40  1  0  0  0  0
 20 41  1  0  0  0  0
 20 42  1  0  0  0  0
 20 43  1  0  0  0  0
 21 44  1  0  0  0  0
M  END
> <s_m_source_file>
AV-unprocessed.smi

> <i_m_source_file_index>
1856

> <i_lp_mmshare_version>
43012

> <i_f3d_flags>
0

> <s_epik_input>
W0NIM11bQ0gyXVtDSDJdQyg9TylbTkhdW0NASF0oW0NIM10pYyhuMSluKFtDSDJdW0NASF0oW0NIM10pW09IXSljKGMxMilbY0hdW2NIXVtjSF1bY0hdMg==

> <s_epik_cmdline>
J2VwaWtfcHl0aG9uJywgJy1waCcsICc3LjAnLCAnLXRuJywgJzgnLCAnLW1hJywgJzIwMCcsICctbWV0YWxfYmluZGluZycsICctaW1hZScsICc8aW5maWxlLm1hZT4nLCAnLW9tYWUnLCAnPG91dGZpbGUubWFlPic=

> <r_epik_Ionization_Penalty>
0.134222

> <r_epik_Ionization_Penalty_Charging>
0

> <r_epik_Ionization_Penalty_Neutral>
0.134222

> <r_epik_State_Penalty>
0.123585

> <r_epik_Charging_Adjusted_Penalty>
0.123585

> <i_epik_Tot_Q>
0

> <i_epik_Tot_abs_Q>
0

> <r_epik_Metal_State_Penalty>
0.100548

> <b_epik_Metal_Only>
0

> <s_lp_Force_Field>
OPLS_2005

> <r_lp_Energy>
3.90486

> <b_lp_Chiralities_Consistent>
1

> <s_lp_Variant>
AV-unprocessed.smi:1856-3

> <Gold.Version>
5.8.1

> <Gold.Id.Protein>
6NUR|6NUR_protein|mol2

> <Gold.PLP.Fitness>
50.5381

> <Gold.PLP.PLP>
-41.1896

> <Gold.PLP.part.hbond>
-5.0000

> <Gold.PLP.part.metal>
0.0000

> <Gold.PLP.part.buried>
-3.1106

> <Gold.PLP.part.nonpolar>
-32.5647

> <Gold.PLP.part.repulsive>
1.2152

> <Gold.PLP.ligand.clash>
0.0000

> <Gold.PLP.ligand.torsion>
0.7331

> <Gold.PLP.Chemscore.Hbond>
3.5740

> <Gold.PLP.Chemscore.CHOScore>
0.0000

> <Gold.PLP.Chemscore.Metal>
0.0000

> <Gold.Chemscore.Hbonds>
donor molecule, donor type, donor heavy atom, donor atom, acceptor molecule, acceptor atom, score
      L1  H    21    44       P1  7957  0.54
      P1  H  7997  8010       L1    10  0.88
      P1  H  8011  8017       L1    21  0.52
      P1  H 10752 10764       L1     5  0.94

> <Gold.PLP.Chemscore.Internal.Correction>
0.0927

> <Gold.Rescore>
     Score         DG    S(hbond)    S(metal)    S(lipo)     H(rot)  DE(clash)    DE(int)     intcor
     15.52     -20.46       2.34        0.00     114.69       2.45       3.24       1.70       ----

> <Gold.Chemscore.Fitness>
15.5185

> <Gold.Chemscore.DG>
-20.4608

> <Gold.Chemscore.ZeroCoef>
-5.4800

> <Gold.Chemscore.Hbond>
2.3424

> <Gold.Chemscore.Metal>
0.0000

> <Gold.Chemscore.Lipo>
114.6902

> <Gold.Chemscore.Internal_Hbond>
0.0000

> <Gold.Chemscore.DEClash>
3.2403

> <Gold.Chemscore.DEInternal>
1.7020

> <Gold.Chemscore.Rot>
2.4459

> <Gold.Chemscore.Internal.Correction>
   9.000000E+99

> <Gold.Chemscore.Hbonds>
donor molecule, donor type, donor heavy atom, donor atom, acceptor molecule, acceptor atom, score
      L1  H    21    44       P1  7957  0.52
      P1  H  7997  8010       L1    10  0.21
      P1  H  8011  8017       L1    21  0.03
      P1  H 10752 10764       L1     5  0.83

> <Gold.Chemscore.Hbond.Weighted>
-7.8235

> <Gold.Chemscore.Metal.Weighted>
-0.0000

> <Gold.Chemscore.Lipo.Weighted>
-13.4188

> <Gold.Chemscore.Internal_Hbond.Weighted>
0.0000

> <Gold.Chemscore.DEClash.Weighted>
3.2403

> <Gold.Chemscore.DEInternal.Weighted>
1.7020

> <Gold.Chemscore.Rot.Weighted>
6.2614

> <Gold.Chemscore.Internal.Correction.Weighted>
   9.000000E+99

> <Gold.Protein.RotatedTorsions>
[ 6907 6896 6895 6894 ] final  135.13 input  -60.11 | X-H torsion
[ 7974 7965 7964 7962 ] final  -16.18 input  175.53 | X-H torsion
[ 8008 7997 7996 7995 ] final   46.66 input   59.86 | X-H torsion
[ 10167 10162 10161 10158 ] final  -26.22 input  -65.29 | X-H torsion
[ 10718 10713 10712 10709 ] final   -9.84 input   66.30 | X-H torsion
[ 10763 10752 10751 10750 ] final  -92.40 input  -60.55 | X-H torsion
[ 11005 11000 10999 10996 ] final  -34.22 input  -57.11 | X-H torsion

> <Gold.Protein.ActiveResidues>
 VAL166  LYS551  ARG553  GLY616  TRP617  ASP618  TYR619  PRO620  LYS621  CYS622 
 ASP623  PHE694  ASN695  SER759  ASP760  ASP761  ALA762  ILE779  LEU786  VAL792 
 PHE793  MET794  SER795  GLU796  ALA797  LYS798  CYS799  TRP800  GLU811  SER814 

> <Gold.Protein.RotatedAtoms>
  152.3038  133.5682  159.5635 H   0  0  0  0  0  0  0  0  0  0  0  0  # atno 6907 bound_to 6896
  150.7290  134.0252  159.3724 H   0  0  0  0  0  0  0  0  0  0  0  0  # atno 6908 bound_to 6896
  151.8150  135.0669  160.0469 H   0  0  0  0  0  0  0  0  0  0  0  0  # atno 6909 bound_to 6896
  146.1999  140.3599  142.8427 H   0  0  0  0  0  0  0  0  0  0  0  0  # atno 7974 bound_to 7965
  155.3561  140.3416  155.4240 H   0  0  0  0  0  0  0  0  0  0  0  0  # atno 8008 bound_to 7997
  156.1738  140.1641  156.8434 H   0  0  0  0  0  0  0  0  0  0  0  0  # atno 8009 bound_to 7997
  154.5261  140.0756  156.8243 H   0  0  0  0  0  0  0  0  0  0  0  0  # atno 8010 bound_to 7997
  140.7283  143.4197  151.0971 H   0  0  0  0  0  0  0  0  0  0  0  0  # atno 10167 bound_to 10162
  156.6822  130.5040  149.5968 H   0  0  0  0  0  0  0  0  0  0  0  0  # atno 10718 bound_to 10713
  154.6857  135.5233  153.8323 H   0  0  0  0  0  0  0  0  0  0  0  0  # atno 10763 bound_to 10752
  153.0596  135.6563  154.0505 H   0  0  0  0  0  0  0  0  0  0  0  0  # atno 10764 bound_to 10752
  154.0386  135.2979  155.3338 H   0  0  0  0  0  0  0  0  0  0  0  0  # atno 10765 bound_to 10752
  140.9699  133.7115  156.1506 H   0  0  0  0  0  0  0  0  0  0  0  0  # atno 11005 bound_to 11000
  144.8661  140.7207  143.6077 LP  0  0  0  0  0  0  0  0  0  0  0  0  # atno 17320 bound_to 7965
  145.3519  139.1704  143.4430 LP  0  0  0  0  0  0  0  0  0  0  0  0  # atno 17321 bound_to 7965
  139.7841  143.8313  152.3142 LP  0  0  0  0  0  0  0  0  0  0  0  0  # atno 17342 bound_to 10162
  139.8274  144.7269  150.9494 LP  0  0  0  0  0  0  0  0  0  0  0  0  # atno 17343 bound_to 10162
  156.1859  130.6529  151.1006 LP  0  0  0  0  0  0  0  0  0  0  0  0  # atno 17370 bound_to 10713
  157.7039  131.0764  150.6729 LP  0  0  0  0  0  0  0  0  0  0  0  0  # atno 17371 bound_to 10713
  140.7344  134.4218  157.5562 LP  0  0  0  0  0  0  0  0  0  0  0  0  # atno 17394 bound_to 11000
  139.8908  134.8795  156.2350 LP  0  0  0  0  0  0  0  0  0  0  0  0  # atno 17395 bound_to 11000

$$$$
