AV-unprocessed.smi:3330|AV-procd|sdf|12804|dock8
  -GOLD-   2272019163D 1   1.00000     0.00000
 Structure written by MMmdl.
 39 40  0  0  0  0  0  0  0  0  2 V2000
  146.3258  139.0905  154.9047 C   0  0  0  0  0  0  0  0  0  0  0  0
  147.1718  139.1102  153.6206 C   0  0  1  0  0  0  0  0  0  0  0  0
  146.2749  138.8586  152.4677 N   0  3  0  0  0  0  0  0  0  0  0  0
  145.8657  137.4507  152.2883 C   0  0  0  0  0  0  0  0  0  0  0  0
  144.3767  137.2661  152.6136 C   0  0  0  0  0  0  0  0  0  0  0  0
  143.9594  135.8776  152.4052 N   0  0  0  0  0  0  0  0  0  0  0  0
  144.1188  135.2041  151.2589 C   0  0  0  0  0  0  0  0  0  0  0  0
  144.6302  135.6120  150.2168 O   0  0  0  0  0  0  0  0  0  0  0  0
  143.5402  133.8169  151.4340 C   0  0  0  0  0  0  0  0  0  0  0  0
  143.0749  133.9278  152.8002 N   0  0  0  0  0  0  0  0  0  0  0  0
  143.3283  135.1312  153.3301 C   0  0  0  0  0  0  0  0  0  0  0  0
  143.0211  135.4858  154.4672 O   0  0  0  0  0  0  0  0  0  0  0  0
  147.9457  140.4459  153.4370 C   0  0  1  0  0  0  0  0  0  0  0  0
  147.0814  141.6935  153.7018 C   0  0  0  0  0  0  0  0  0  0  0  0
  149.1443  140.4868  154.2685 N   0  0  0  0  0  0  0  0  0  0  0  0
  149.5208  141.4290  155.2064 C   0  0  0  0  0  0  0  0  0  0  0  0
  150.6942  141.0068  155.7621 C   0  0  0  0  0  0  0  0  0  0  0  0
  150.9587  139.7760  155.1001 C   0  0  0  0  0  0  0  0  0  0  0  0
  150.0265  139.4640  154.2147 N   0  0  0  0  0  0  0  0  0  0  0  0
  146.9456  139.1534  155.7990 H   0  0  0  0  0  0  0  0  0  0  0  0
  145.7553  138.1642  154.9816 H   0  0  0  0  0  0  0  0  0  0  0  0
  145.6175  139.9193  154.9280 H   0  0  0  0  0  0  0  0  0  0  0  0
  147.8901  138.2916  153.6945 H   0  0  0  0  0  0  0  0  0  0  0  0
  145.4381  139.4116  152.5849 H   0  0  0  0  0  0  0  0  0  0  0  0
  146.0540  137.1384  151.2617 H   0  0  0  0  0  0  0  0  0  0  0  0
  146.4786  136.8175  152.9308 H   0  0  0  0  0  0  0  0  0  0  0  0
  144.1776  137.5688  153.6431 H   0  0  0  0  0  0  0  0  0  0  0  0
  143.7748  137.9276  151.9876 H   0  0  0  0  0  0  0  0  0  0  0  0
  142.7181  133.6318  150.7423 H   0  0  0  0  0  0  0  0  0  0  0  0
  144.3034  133.0452  151.3296 H   0  0  0  0  0  0  0  0  0  0  0  0
  142.6047  133.1760  153.2837 H   0  0  0  0  0  0  0  0  0  0  0  0
  148.2731  140.5052  152.3970 H   0  0  0  0  0  0  0  0  0  0  0  0
  146.2900  141.7991  152.9605 H   0  0  0  0  0  0  0  0  0  0  0  0
  147.6816  142.6029  153.6536 H   0  0  0  0  0  0  0  0  0  0  0  0
  146.6131  141.6568  154.6859 H   0  0  0  0  0  0  0  0  0  0  0  0
  148.9276  142.3097  155.4039 H   0  0  0  0  0  0  0  0  0  0  0  0
  151.2737  141.4991  156.5289 H   0  0  0  0  0  0  0  0  0  0  0  0
  151.7902  139.1013  155.2407 H   0  0  0  0  0  0  0  0  0  0  0  0
  146.7489  139.1681  151.6306 H   0  0  0  0  0  0  0  0  0  0  0  0
  1  2  1  0  0  0  0
  1 20  1  0  0  0  0
  1 21  1  0  0  0  0
  1 22  1  0  0  0  0
  2  3  1  0  0  0  0
  2 13  1  0  0  0  0
  2 23  1  0  0  0  0
  3  4  1  0  0  0  0
  3 24  1  0  0  0  0
  3 39  1  0  0  0  0
  4  5  1  0  0  0  0
  4 25  1  0  0  0  0
  4 26  1  0  0  0  0
  5  6  1  0  0  0  0
  5 27  1  0  0  0  0
  5 28  1  0  0  0  0
  6 11  1  0  0  0  0
  6  7  1  0  0  0  0
  7  8  2  0  0  0  0
  7  9  1  0  0  0  0
  9 10  1  0  0  0  0
  9 29  1  0  0  0  0
  9 30  1  0  0  0  0
 10 11  1  0  0  0  0
 10 31  1  0  0  0  0
 11 12  2  0  0  0  0
 13 14  1  0  0  0  0
 13 15  1  0  0  0  0
 13 32  1  0  0  0  0
 14 33  1  0  0  0  0
 14 34  1  0  0  0  0
 14 35  1  0  0  0  0
 15 19  1  0  0  0  0
 15 16  1  0  0  0  0
 16 17  2  0  0  0  0
 16 36  1  0  0  0  0
 17 18  1  0  0  0  0
 17 37  1  0  0  0  0
 18 19  2  0  0  0  0
 18 38  1  0  0  0  0
M  CHG  1   3   1
M  END
> <s_m_source_file>
AV-unprocessed.smi

> <i_m_source_file_index>
3330

> <i_lp_mmshare_version>
43012

> <i_f3d_flags>
0

> <s_epik_input>
bjFbY0hdW2NIXVtjSF1uMVtDQEBIXShbQ0gzXSlbQ0BIXShbQ0gzXSlbTkhdW0NIMl1bQ0gyXU4yQyg9TylbQ0gyXVtOSF1DMj1P

> <s_epik_cmdline>
J2VwaWtfcHl0aG9uJywgJy1waCcsICc3LjAnLCAnLXRuJywgJzgnLCAnLW1hJywgJzIwMCcsICctbWV0YWxfYmluZGluZycsICctaW1hZScsICc8aW5maWxlLm1hZT4nLCAnLW9tYWUnLCAnPG91dGZpbGUubWFlPic=

> <r_lp_tautomer_probability>
1

> <r_epik_Ionization_Penalty>
0.0124905

> <r_epik_Ionization_Penalty_Charging>
0.0123685

> <r_epik_Ionization_Penalty_Neutral>
0.000122059

> <r_epik_State_Penalty>
0.00957041

> <r_epik_Charging_Adjusted_Penalty>
0.0219389

> <i_epik_Tot_Q>
1

> <i_epik_Tot_abs_Q>
1

> <r_epik_Metal_State_Penalty>
0.0858301

> <b_epik_Metal_Only>
0

> <s_lp_Force_Field>
OPLS_2005

> <r_lp_Energy>
25.1369

> <b_lp_Chiralities_Consistent>
1

> <s_lp_Variant>
AV-unprocessed.smi:3330-4

> <Gold.Version>
5.8.1

> <Gold.Id.Protein>
6NUR|6NUR_protein|mol2

> <Gold.PLP.Fitness>
42.5775

> <Gold.PLP.PLP>
-32.2064

> <Gold.PLP.part.hbond>
-2.5239

> <Gold.PLP.part.metal>
0.0000

> <Gold.PLP.part.buried>
-2.3854

> <Gold.PLP.part.nonpolar>
-28.7614

> <Gold.PLP.part.repulsive>
1.4488

> <Gold.PLP.ligand.clash>
0.0000

> <Gold.PLP.ligand.torsion>
0.8922

> <Gold.PLP.Chemscore.Hbond>
3.0000

> <Gold.PLP.Chemscore.CHOScore>
1.0000

> <Gold.PLP.Chemscore.Metal>
0.0000

> <Gold.Chemscore.Hbonds>
donor molecule, donor type, donor heavy atom, donor atom, acceptor molecule, acceptor atom, score
      L1  H     3    24       P1 10175  1.89
      L1  H    10    31       P1 10957  0.94
      L1  C    16    36       P1  8028  1.00

> <Gold.PLP.Chemscore.Internal.Correction>
0.1555

> <Gold.Rescore>
     Score         DG    S(hbond)    S(metal)    S(lipo)     H(rot)  DE(clash)    DE(int)     intcor
     10.51     -12.16       1.99        0.00      58.52       2.67       0.53       1.13       ----

> <Gold.Chemscore.Fitness>
10.5119

> <Gold.Chemscore.DG>
-12.1631

> <Gold.Chemscore.ZeroCoef>
-5.4800

> <Gold.Chemscore.Hbond>
1.9948

> <Gold.Chemscore.Metal>
0.0000

> <Gold.Chemscore.Lipo>
58.5206

> <Gold.Chemscore.Internal_Hbond>
0.0000

> <Gold.Chemscore.DEClash>
0.5262

> <Gold.Chemscore.DEInternal>
1.1250

> <Gold.Chemscore.Rot>
2.6666

> <Gold.Chemscore.Internal.Correction>
   9.000000E+99

> <Gold.Chemscore.Hbonds>
donor molecule, donor type, donor heavy atom, donor atom, acceptor molecule, acceptor atom, score
      L1  H     3    24       P1 10175  0.90
      L1  H    10    31       P1 10957  0.73

> <Gold.Chemscore.Hbond.Weighted>
-6.6627

> <Gold.Chemscore.Metal.Weighted>
-0.0000

> <Gold.Chemscore.Lipo.Weighted>
-6.8469

> <Gold.Chemscore.Internal_Hbond.Weighted>
0.0000

> <Gold.Chemscore.DEClash.Weighted>
0.5262

> <Gold.Chemscore.DEInternal.Weighted>
1.1250

> <Gold.Chemscore.Rot.Weighted>
6.8265

> <Gold.Chemscore.Internal.Correction.Weighted>
   9.000000E+99

> <Gold.Protein.RotatedTorsions>
[ 6907 6896 6895 6894 ] final   80.61 input  -60.11 | X-H torsion
[ 7974 7965 7964 7962 ] final  122.80 input  175.53 | X-H torsion
[ 8008 7997 7996 7995 ] final -104.04 input   59.86 | X-H torsion
[ 10167 10162 10161 10158 ] final -144.43 input  -65.29 | X-H torsion
[ 10718 10713 10712 10709 ] final  117.05 input   66.30 | X-H torsion
[ 10763 10752 10751 10750 ] final -143.93 input  -60.55 | X-H torsion
[ 11005 11000 10999 10996 ] final  162.52 input  -57.11 | X-H torsion

> <Gold.Protein.ActiveResidues>
 VAL166  LYS551  ARG553  GLY616  TRP617  ASP618  TYR619  PRO620  LYS621  CYS622 
 ASP623  PHE694  ASN695  SER759  ASP760  ASP761  ALA762  ILE779  LEU786  VAL792 
 PHE793  MET794  SER795  GLU796  ALA797  LYS798  CYS799  TRP800  GLU811  SER814 

> <Gold.Protein.RotatedAtoms>
  152.5241  134.3331  159.9189 H   0  0  0  0  0  0  0  0  0  0  0  0  # atno 6907 bound_to 6896
  151.3280  133.4006  159.2668 H   0  0  0  0  0  0  0  0  0  0  0  0  # atno 6908 bound_to 6896
  150.9904  134.9257  159.7954 H   0  0  0  0  0  0  0  0  0  0  0  0  # atno 6909 bound_to 6896
  145.1033  139.3503  143.4801 H   0  0  0  0  0  0  0  0  0  0  0  0  # atno 7974 bound_to 7965
  154.8796  140.0420  157.1774 H   0  0  0  0  0  0  0  0  0  0  0  0  # atno 8008 bound_to 7997
  154.8653  140.2950  155.5493 H   0  0  0  0  0  0  0  0  0  0  0  0  # atno 8009 bound_to 7997
  156.2999  140.2439  156.3633 H   0  0  0  0  0  0  0  0  0  0  0  0  # atno 8010 bound_to 7997
  139.7900  143.7980  152.2649 H   0  0  0  0  0  0  0  0  0  0  0  0  # atno 10167 bound_to 10162
  157.6121  131.1033  150.7560 H   0  0  0  0  0  0  0  0  0  0  0  0  # atno 10718 bound_to 10713
  154.8449  135.3454  154.6266 H   0  0  0  0  0  0  0  0  0  0  0  0  # atno 10763 bound_to 10752
  153.6875  135.6977  153.5104 H   0  0  0  0  0  0  0  0  0  0  0  0  # atno 10764 bound_to 10752
  153.2621  135.4319  155.0859 H   0  0  0  0  0  0  0  0  0  0  0  0  # atno 10765 bound_to 10752
  140.2266  134.8156  157.3274 H   0  0  0  0  0  0  0  0  0  0  0  0  # atno 11005 bound_to 11000
  146.3529  140.0919  142.8612 LP  0  0  0  0  0  0  0  0  0  0  0  0  # atno 17320 bound_to 7965
  145.0931  140.9297  143.4757 LP  0  0  0  0  0  0  0  0  0  0  0  0  # atno 17321 bound_to 7965
  139.8068  144.7352  150.9750 LP  0  0  0  0  0  0  0  0  0  0  0  0  # atno 17342 bound_to 10162
  140.7820  143.4290  151.0724 LP  0  0  0  0  0  0  0  0  0  0  0  0  # atno 17343 bound_to 10162
  156.7935  130.4898  149.5381 LP  0  0  0  0  0  0  0  0  0  0  0  0  # atno 17370 bound_to 10713
  156.1228  130.6122  151.0219 LP  0  0  0  0  0  0  0  0  0  0  0  0  # atno 17371 bound_to 10713
  140.1794  134.4508  155.7781 LP  0  0  0  0  0  0  0  0  0  0  0  0  # atno 17394 bound_to 11000
  141.2220  133.6977  156.7843 LP  0  0  0  0  0  0  0  0  0  0  0  0  # atno 17395 bound_to 11000

$$$$
