AV-unprocessed.smi:1999|AV-procd|sdf|8092|dock9
  -GOLD-   2272010313D 1   1.00000     0.00000
 Structure written by MMmdl.
 38 39  0  0  0  0  0  0  0  0  1 V2000
  145.8513  143.6443  161.9895 C   0  0  0  0  0  0  0  0  0  0  0  0
  146.2504  143.0964  160.6621 C   0  0  0  0  0  0  0  0  0  0  0  0
  145.8366  141.9046  160.2146 N   0  0  0  0  0  0  0  0  0  0  0  0
  146.3339  141.6151  158.9517 N   0  0  0  0  0  0  0  0  0  0  0  0
  147.1096  142.6018  158.4818 C   0  0  0  0  0  0  0  0  0  0  0  0
  147.7415  142.5719  157.2107 N   0  0  0  0  0  0  0  0  0  0  0  0
  147.7089  141.5957  156.2866 C   0  0  0  0  0  0  0  0  0  0  0  0
  147.1295  140.5163  156.4107 O   0  0  0  0  0  0  0  0  0  0  0  0
  148.3930  141.9468  155.1876 N   0  0  0  0  0  0  0  0  0  0  0  0
  148.5202  141.1428  153.9751 C   0  0  2  0  0  0  0  0  0  0  0  0
  147.1331  140.9156  153.3494 C   0  0  0  0  0  0  0  0  0  0  0  0
  149.2198  139.8168  154.3378 C   0  0  0  0  0  0  0  0  0  0  0  0
  150.6013  139.9331  154.8057 N   0  0  0  0  0  0  0  0  0  0  0  0
  150.6889  140.3010  156.2180 C   0  0  0  0  0  0  0  0  0  0  0  0
  152.1471  140.3816  156.7026 C   0  0  0  0  0  0  0  0  0  0  0  0
  152.8048  139.1432  156.4569 O   0  0  0  0  0  0  0  0  0  0  0  0
  152.7838  138.7762  155.0816 C   0  0  0  0  0  0  0  0  0  0  0  0
  151.3268  138.6842  154.5977 C   0  0  0  0  0  0  0  0  0  0  0  0
  147.3019  143.9748  159.5586 S   0  0  0  0  0  0  0  0  0  0  0  0
  145.3707  142.8750  162.5949 H   0  0  0  0  0  0  0  0  0  0  0  0
  145.1533  144.4708  161.8555 H   0  0  0  0  0  0  0  0  0  0  0  0
  146.7294  144.0090  162.5225 H   0  0  0  0  0  0  0  0  0  0  0  0
  148.2604  143.4022  156.9665 H   0  0  0  0  0  0  0  0  0  0  0  0
  148.8417  142.8511  155.1778 H   0  0  0  0  0  0  0  0  0  0  0  0
  149.1396  141.6955  153.2683 H   0  0  0  0  0  0  0  0  0  0  0  0
  147.2070  140.3412  152.4255 H   0  0  0  0  0  0  0  0  0  0  0  0
  146.6493  141.8615  153.1039 H   0  0  0  0  0  0  0  0  0  0  0  0
  146.4752  140.3704  154.0272 H   0  0  0  0  0  0  0  0  0  0  0  0
  148.6307  139.2937  155.0931 H   0  0  0  0  0  0  0  0  0  0  0  0
  149.1988  139.1777  153.4538 H   0  0  0  0  0  0  0  0  0  0  0  0
  150.2161  141.2670  156.3905 H   0  0  0  0  0  0  0  0  0  0  0  0
  150.1470  139.5735  156.8243 H   0  0  0  0  0  0  0  0  0  0  0  0
  152.6772  141.1893  156.1957 H   0  0  0  0  0  0  0  0  0  0  0  0
  152.1798  140.5971  157.7708 H   0  0  0  0  0  0  0  0  0  0  0  0
  153.3416  139.5066  154.4934 H   0  0  0  0  0  0  0  0  0  0  0  0
  153.2854  137.8159  154.9604 H   0  0  0  0  0  0  0  0  0  0  0  0
  150.8241  137.8719  155.1252 H   0  0  0  0  0  0  0  0  0  0  0  0
  151.3164  138.4216  153.5392 H   0  0  0  0  0  0  0  0  0  0  0  0
  1  2  1  0  0  0  0
  1 20  1  0  0  0  0
  1 21  1  0  0  0  0
  1 22  1  0  0  0  0
  2 19  1  0  0  0  0
  2  3  2  0  0  0  0
  3  4  1  0  0  0  0
  4  5  2  0  0  0  0
  5  6  1  0  0  0  0
  5 19  1  0  0  0  0
  6  7  1  0  0  0  0
  6 23  1  0  0  0  0
  7  8  2  0  0  0  0
  7  9  1  0  0  0  0
  9 10  1  0  0  0  0
  9 24  1  0  0  0  0
 10 11  1  0  0  0  0
 10 12  1  0  0  0  0
 10 25  1  0  0  0  0
 11 26  1  0  0  0  0
 11 27  1  0  0  0  0
 11 28  1  0  0  0  0
 12 13  1  0  0  0  0
 12 29  1  0  0  0  0
 12 30  1  0  0  0  0
 13 18  1  0  0  0  0
 13 14  1  0  0  0  0
 14 15  1  0  0  0  0
 14 31  1  0  0  0  0
 14 32  1  0  0  0  0
 15 16  1  0  0  0  0
 15 33  1  0  0  0  0
 15 34  1  0  0  0  0
 16 17  1  0  0  0  0
 17 18  1  0  0  0  0
 17 35  1  0  0  0  0
 17 36  1  0  0  0  0
 18 37  1  0  0  0  0
 18 38  1  0  0  0  0
M  END
> <s_m_source_file>
AV-unprocessed.smi

> <i_m_source_file_index>
1999

> <i_lp_mmshare_version>
43012

> <i_f3d_flags>
0

> <s_epik_input>
W0NIM11jMW5uYyhzMSlbTkhdQyg9TylbTkhdW0NASF0oW0NIM10pW0NIMl1OMltDSDJdW0NIMl1PW0NIMl1bQ0gyXTI=

> <s_epik_cmdline>
J2VwaWtfcHl0aG9uJywgJy1waCcsICc3LjAnLCAnLXRuJywgJzgnLCAnLW1hJywgJzIwMCcsICctbWV0YWxfYmluZGluZycsICctaW1hZScsICc8aW5maWxlLm1hZT4nLCAnLW9tYWUnLCAnPG91dGZpbGUubWFlPic=

> <r_lp_tautomer_probability>
1

> <r_epik_Ionization_Penalty>
0.221412

> <r_epik_Ionization_Penalty_Charging>
0

> <r_epik_Ionization_Penalty_Neutral>
0.221412

> <r_epik_State_Penalty>
0.209349

> <r_epik_Charging_Adjusted_Penalty>
0.209349

> <i_epik_Tot_Q>
0

> <i_epik_Tot_abs_Q>
0

> <r_epik_Metal_State_Penalty>
0.56886

> <b_epik_Metal_Only>
0

> <s_lp_Force_Field>
OPLS_2005

> <r_lp_Energy>
22.1143

> <b_lp_Chiralities_Consistent>
1

> <s_lp_Variant>
AV-unprocessed.smi:1999-1

> <Gold.Version>
5.8.1

> <Gold.Id.Protein>
6NUR|6NUR_protein|mol2

> <Gold.PLP.Fitness>
40.7862

> <Gold.PLP.PLP>
-31.9557

> <Gold.PLP.part.hbond>
-6.0491

> <Gold.PLP.part.metal>
0.0000

> <Gold.PLP.part.buried>
-1.3360

> <Gold.PLP.part.nonpolar>
-23.2483

> <Gold.PLP.part.repulsive>
0.2466

> <Gold.PLP.ligand.clash>
0.0000

> <Gold.PLP.ligand.torsion>
0.2425

> <Gold.PLP.Chemscore.Hbond>
3.0960

> <Gold.PLP.Chemscore.CHOScore>
0.0000

> <Gold.PLP.Chemscore.Metal>
0.0000

> <Gold.Chemscore.Hbonds>
donor molecule, donor type, donor heavy atom, donor atom, acceptor molecule, acceptor atom, score
      L1  H     6    23       P1  8028  0.75
      L1  H     9    24       P1  8028  1.00
      P1  H  6934  6946       L1     3  0.25
      P1  H  7989  7998       L1    13  0.65
      P1  H  7997  8010       L1    16  0.38

> <Gold.PLP.Chemscore.Internal.Correction>
0.0275

> <Gold.Rescore>
     Score         DG    S(hbond)    S(metal)    S(lipo)     H(rot)  DE(clash)    DE(int)     intcor
      9.66     -13.34       1.22        0.00      67.03       1.58       0.35       3.32       ----

> <Gold.Chemscore.Fitness>
9.6625

> <Gold.Chemscore.DG>
-13.3361

> <Gold.Chemscore.ZeroCoef>
-5.4800

> <Gold.Chemscore.Hbond>
1.2180

> <Gold.Chemscore.Metal>
0.0000

> <Gold.Chemscore.Lipo>
67.0274

> <Gold.Chemscore.Internal_Hbond>
0.0000

> <Gold.Chemscore.DEClash>
0.3534

> <Gold.Chemscore.DEInternal>
3.3202

> <Gold.Chemscore.Rot>
1.5837

> <Gold.Chemscore.Internal.Correction>
   9.000000E+99

> <Gold.Chemscore.Hbonds>
donor molecule, donor type, donor heavy atom, donor atom, acceptor molecule, acceptor atom, score
      L1  H     6    23       P1  8028  0.09
      L1  H     9    24       P1  8028  0.95
      P1  H  7989  7998       L1    13  0.04
      P1  H  7997  8010       L1    16  0.01

> <Gold.Chemscore.Hbond.Weighted>
-4.0681

> <Gold.Chemscore.Metal.Weighted>
-0.0000

> <Gold.Chemscore.Lipo.Weighted>
-7.8422

> <Gold.Chemscore.Internal_Hbond.Weighted>
0.0000

> <Gold.Chemscore.DEClash.Weighted>
0.3534

> <Gold.Chemscore.DEInternal.Weighted>
3.3202

> <Gold.Chemscore.Rot.Weighted>
4.0542

> <Gold.Chemscore.Internal.Correction.Weighted>
   9.000000E+99

> <Gold.Protein.RotatedTorsions>
[ 6907 6896 6895 6894 ] final  -85.49 input  -60.11 | X-H torsion
[ 7974 7965 7964 7962 ] final  -87.55 input  175.53 | X-H torsion
[ 8008 7997 7996 7995 ] final   47.82 input   59.86 | X-H torsion
[ 10167 10162 10161 10158 ] final  159.47 input  -65.29 | X-H torsion
[ 10718 10713 10712 10709 ] final  -80.65 input   66.30 | X-H torsion
[ 10763 10752 10751 10750 ] final  -35.82 input  -60.55 | X-H torsion
[ 11005 11000 10999 10996 ] final   41.65 input  -57.11 | X-H torsion

> <Gold.Protein.ActiveResidues>
 VAL166  LYS551  ARG553  GLY616  TRP617  ASP618  TYR619  PRO620  LYS621  CYS622 
 ASP623  PHE694  ASN695  SER759  ASP760  ASP761  ALA762  ILE779  LEU786  VAL792 
 PHE793  MET794  SER795  GLU796  ALA797  LYS798  CYS799  TRP800  GLU811  SER814 

> <Gold.Protein.RotatedAtoms>
  150.6870  134.3197  159.4781 H   0  0  0  0  0  0  0  0  0  0  0  0  # atno 6907 bound_to 6896
  152.1074  134.9296  160.0577 H   0  0  0  0  0  0  0  0  0  0  0  0  # atno 6908 bound_to 6896
  152.0552  133.4002  159.4431 H   0  0  0  0  0  0  0  0  0  0  0  0  # atno 6909 bound_to 6896
  145.4650  140.9560  143.1948 H   0  0  0  0  0  0  0  0  0  0  0  0  # atno 7974 bound_to 7965
  155.3754  140.3426  155.4245 H   0  0  0  0  0  0  0  0  0  0  0  0  # atno 8008 bound_to 7997
  156.1639  140.1610  156.8598 H   0  0  0  0  0  0  0  0  0  0  0  0  # atno 8009 bound_to 7997
  154.5166  140.0777  156.8075 H   0  0  0  0  0  0  0  0  0  0  0  0  # atno 8010 bound_to 7997
  139.4833  144.4727  151.8554 H   0  0  0  0  0  0  0  0  0  0  0  0  # atno 10167 bound_to 10162
  156.0066  130.4580  150.3833 H   0  0  0  0  0  0  0  0  0  0  0  0  # atno 10718 bound_to 10713
  153.8696  135.6832  153.4775 H   0  0  0  0  0  0  0  0  0  0  0  0  # atno 10763 bound_to 10752
  153.1295  135.4704  154.9323 H   0  0  0  0  0  0  0  0  0  0  0  0  # atno 10764 bound_to 10752
  154.7720  135.3241  154.8120 H   0  0  0  0  0  0  0  0  0  0  0  0  # atno 10765 bound_to 10752
  140.1814  134.4099  155.8198 H   0  0  0  0  0  0  0  0  0  0  0  0  # atno 11005 bound_to 11000
  144.7979  139.6197  143.7084 LP  0  0  0  0  0  0  0  0  0  0  0  0  # atno 17320 bound_to 7965
  146.2429  139.6038  142.9479 LP  0  0  0  0  0  0  0  0  0  0  0  0  # atno 17321 bound_to 7965
  140.4197  144.2260  150.5887 LP  0  0  0  0  0  0  0  0  0  0  0  0  # atno 17342 bound_to 10162
  140.4886  143.2355  151.8851 LP  0  0  0  0  0  0  0  0  0  0  0  0  # atno 17343 bound_to 10162
  157.1912  131.0415  151.2699 LP  0  0  0  0  0  0  0  0  0  0  0  0  # atno 17370 bound_to 10713
  157.4060  130.7359  149.6802 LP  0  0  0  0  0  0  0  0  0  0  0  0  # atno 17371 bound_to 10713
  141.2223  133.7002  156.7937 LP  0  0  0  0  0  0  0  0  0  0  0  0  # atno 17394 bound_to 11000
  140.2263  134.8719  157.3430 LP  0  0  0  0  0  0  0  0  0  0  0  0  # atno 17395 bound_to 11000

$$$$
