AV-unprocessed.smi:2886|AV-procd|sdf|11093|dock3
  -GOLD-   2272015563D 1   1.00000     0.00000
 Structure written by MMmdl.
 28 30  0  0  0  0  0  0  0  0  3 V2000
  151.6060  137.1944  154.3697 O   0  0  0  0  0  0  0  0  0  0  0  0
  151.0614  138.2821  154.5483 C   0  0  0  0  0  0  0  0  0  0  0  0
  149.9952  138.7157  153.8121 N   0  5  0  0  0  0  0  0  0  0  0  0
  149.4337  139.8850  154.0237 N   0  3  0  0  0  0  0  0  0  0  0  0
  149.8425  140.7402  154.9556 C   0  0  0  0  0  0  0  0  0  0  0  0
  150.9404  140.4081  155.7978 C   0  0  0  0  0  0  0  0  0  0  0  0
  151.4080  141.2656  156.7860 N   0  0  0  0  0  0  0  0  0  0  0  0
  150.9295  142.5898  157.1623 C   0  0  2  0  0  0  0  0  0  0  0  0
  151.9001  143.7135  156.7965 C   0  0  0  0  0  0  0  0  0  0  0  0
  152.0756  144.4226  158.1471 C   0  0  2  0  0  0  0  0  0  0  0  0
  152.9737  143.6153  159.0932 C   0  0  0  0  0  0  0  0  0  0  0  0
  152.0569  142.4550  159.4763 C   0  0  0  0  0  0  0  0  0  0  0  0
  150.7802  142.7801  158.6814 C   0  0  1  0  0  0  0  0  0  0  0  0
  150.8073  144.1966  158.7417 O   0  0  0  0  0  0  0  0  0  0  0  0
  151.5438  139.2012  155.5957 C   0  0  0  0  0  0  0  0  0  0  0  0
  152.8934  138.7108  156.5660 Cl  0  0  0  0  0  0  0  0  0  0  0  0
  148.6313  140.1927  153.4522 H   0  0  0  0  0  0  0  0  0  0  0  0
  149.3062  141.6775  155.0285 H   0  0  0  0  0  0  0  0  0  0  0  0
  152.1099  140.8870  157.4066 H   0  0  0  0  0  0  0  0  0  0  0  0
  149.9615  142.7917  156.7050 H   0  0  0  0  0  0  0  0  0  0  0  0
  152.8503  143.3583  156.3946 H   0  0  0  0  0  0  0  0  0  0  0  0
  151.4476  144.3785  156.0602 H   0  0  0  0  0  0  0  0  0  0  0  0
  152.3542  145.4734  158.0632 H   0  0  0  0  0  0  0  0  0  0  0  0
  153.8961  143.2868  158.6131 H   0  0  0  0  0  0  0  0  0  0  0  0
  153.2366  144.2017  159.9746 H   0  0  0  0  0  0  0  0  0  0  0  0
  152.4789  141.4801  159.2312 H   0  0  0  0  0  0  0  0  0  0  0  0
  151.8547  142.4723  160.5478 H   0  0  0  0  0  0  0  0  0  0  0  0
  149.8765  142.3316  159.0950 H   0  0  0  0  0  0  0  0  0  0  0  0
  1  2  2  0  0  0  0
  2  3  1  0  0  0  0
  2 15  1  0  0  0  0
  3  4  1  0  0  0  0
  4  5  2  0  0  0  0
  4 17  1  0  0  0  0
  5  6  1  0  0  0  0
  5 18  1  0  0  0  0
  6 15  2  0  0  0  0
  6  7  1  0  0  0  0
  7  8  1  0  0  0  0
  7 19  1  0  0  0  0
  8 13  1  0  0  0  0
  8  9  1  0  0  0  0
  8 20  1  0  0  0  0
  9 10  1  0  0  0  0
  9 21  1  0  0  0  0
  9 22  1  0  0  0  0
 10 14  1  0  0  0  0
 10 11  1  0  0  0  0
 10 23  1  0  0  0  0
 11 12  1  0  0  0  0
 11 24  1  0  0  0  0
 11 25  1  0  0  0  0
 12 13  1  0  0  0  0
 12 26  1  0  0  0  0
 12 27  1  0  0  0  0
 13 14  1  0  0  0  0
 13 28  1  0  0  0  0
 15 16  1  0  0  0  0
M  CHG  1   3  -1
M  CHG  1   4   1
M  END
> <s_m_source_file>
AV-unprocessed.smi

> <i_m_source_file_index>
2886

> <i_lp_mmshare_version>
43012

> <i_f3d_flags>
0

> <s_epik_input>
Tz1jMVtuSF1uW2NIXWMoYzFDbClbTkhdW0NASF0oW0NIMl1bQ0BASF0yMylbQ0BASF0oTzMpW0NIMl1bQ0gyXTI=

> <s_epik_cmdline>
J2VwaWtfcHl0aG9uJywgJy1waCcsICc3LjAnLCAnLXRuJywgJzgnLCAnLW1hJywgJzIwMCcsICctbWV0YWxfYmluZGluZycsICctaW1hZScsICc8aW5maWxlLm1hZT4nLCAnLW9tYWUnLCAnPG91dGZpbGUubWFlPic=

> <r_lp_tautomer_probability>
0.0138196

> <r_epik_Ionization_Penalty>
2.43027

> <r_epik_Ionization_Penalty_Charging>
2.43027

> <r_epik_Ionization_Penalty_Neutral>
1.33267e-06

> <r_epik_State_Penalty>
2.7044

> <r_epik_Charging_Adjusted_Penalty>
5.13467

> <i_epik_Tot_Q>
0

> <i_epik_Tot_abs_Q>
2

> <r_epik_Metal_State_Penalty>
2.98589

> <b_epik_Metal_Only>
0

> <s_lp_Force_Field>
OPLS_2005

> <r_lp_Energy>
57.8079

> <b_lp_Chiralities_Consistent>
1

> <s_lp_Variant>
AV-unprocessed.smi:2886-7

> <Gold.Version>
5.8.1

> <Gold.Id.Protein>
6NUR|6NUR_protein|mol2

> <Gold.PLP.Fitness>
34.0035

> <Gold.PLP.PLP>
-31.2567

> <Gold.PLP.part.hbond>
-2.0000

> <Gold.PLP.part.metal>
0.0000

> <Gold.PLP.part.buried>
-2.9629

> <Gold.PLP.part.nonpolar>
-27.5702

> <Gold.PLP.part.repulsive>
1.5930

> <Gold.PLP.ligand.clash>
0.0000

> <Gold.PLP.ligand.torsion>
0.1313

> <Gold.PLP.Chemscore.Hbond>
1.0000

> <Gold.PLP.Chemscore.CHOScore>
0.0000

> <Gold.PLP.Chemscore.Metal>
0.0000

> <Gold.Chemscore.Hbonds>
donor molecule, donor type, donor heavy atom, donor atom, acceptor molecule, acceptor atom, score
      P1  H 10752 10763       L1     1  0.99

> <Gold.PLP.Chemscore.Internal.Correction>
0.0093

> <Gold.Rescore>
     Score         DG    S(hbond)    S(metal)    S(lipo)     H(rot)  DE(clash)    DE(int)     intcor
     15.48     -17.27       0.98        0.00      94.81       1.00       1.72       0.07       ----

> <Gold.Chemscore.Fitness>
15.4803

> <Gold.Chemscore.DG>
-17.2712

> <Gold.Chemscore.ZeroCoef>
-5.4800

> <Gold.Chemscore.Hbond>
0.9754

> <Gold.Chemscore.Metal>
0.0000

> <Gold.Chemscore.Lipo>
94.8141

> <Gold.Chemscore.Internal_Hbond>
0.0000

> <Gold.Chemscore.DEClash>
1.7227

> <Gold.Chemscore.DEInternal>
0.0682

> <Gold.Chemscore.Rot>
1.0000

> <Gold.Chemscore.Internal.Correction>
   9.000000E+99

> <Gold.Chemscore.Hbonds>
donor molecule, donor type, donor heavy atom, donor atom, acceptor molecule, acceptor atom, score
      P1  H 10752 10763       L1     1  0.91

> <Gold.Chemscore.Hbond.Weighted>
-3.2579

> <Gold.Chemscore.Metal.Weighted>
-0.0000

> <Gold.Chemscore.Lipo.Weighted>
-11.0933

> <Gold.Chemscore.Internal_Hbond.Weighted>
0.0000

> <Gold.Chemscore.DEClash.Weighted>
1.7227

> <Gold.Chemscore.DEInternal.Weighted>
0.0682

> <Gold.Chemscore.Rot.Weighted>
2.5600

> <Gold.Chemscore.Internal.Correction.Weighted>
   9.000000E+99

> <Gold.Protein.RotatedTorsions>
[ 6907 6896 6895 6894 ] final   87.99 input  -60.11 | X-H torsion
[ 7974 7965 7964 7962 ] final   -7.05 input  175.53 | X-H torsion
[ 8008 7997 7996 7995 ] final    6.37 input   59.86 | X-H torsion
[ 10167 10162 10161 10158 ] final  131.85 input  -65.29 | X-H torsion
[ 10718 10713 10712 10709 ] final   22.30 input   66.30 | X-H torsion
[ 10763 10752 10751 10750 ] final   40.35 input  -60.55 | X-H torsion
[ 11005 11000 10999 10996 ] final  -71.39 input  -57.11 | X-H torsion

> <Gold.Protein.ActiveResidues>
 VAL166  LYS551  ARG553  GLY616  TRP617  ASP618  TYR619  PRO620  LYS621  CYS622 
 ASP623  PHE694  ASN695  SER759  ASP760  ASP761  ALA762  ILE779  LEU786  VAL792 
 PHE793  MET794  SER795  GLU796  ALA797  LYS798  CYS799  TRP800  GLU811  SER814 

> <Gold.Protein.RotatedAtoms>
  152.5419  134.2190  159.8779 H   0  0  0  0  0  0  0  0  0  0  0  0  # atno 6907 bound_to 6896
  151.2168  133.4518  159.2607 H   0  0  0  0  0  0  0  0  0  0  0  0  # atno 6908 bound_to 6896
  151.0843  134.9890  159.8427 H   0  0  0  0  0  0  0  0  0  0  0  0  # atno 6909 bound_to 6896
  146.2316  140.2262  142.8339 H   0  0  0  0  0  0  0  0  0  0  0  0  # atno 7974 bound_to 7965
  154.7401  140.2747  155.6381 H   0  0  0  0  0  0  0  0  0  0  0  0  # atno 8008 bound_to 7997
  156.2871  140.2699  156.2052 H   0  0  0  0  0  0  0  0  0  0  0  0  # atno 8009 bound_to 7997
  155.0269  140.0371  157.2449 H   0  0  0  0  0  0  0  0  0  0  0  0  # atno 8010 bound_to 7997
  139.5366  144.6688  151.4767 H   0  0  0  0  0  0  0  0  0  0  0  0  # atno 10167 bound_to 10162
  157.1504  130.6672  149.6010 H   0  0  0  0  0  0  0  0  0  0  0  0  # atno 10718 bound_to 10713
  152.9939  135.6194  154.2611 H   0  0  0  0  0  0  0  0  0  0  0  0  # atno 10763 bound_to 10752
  154.2347  135.2791  155.2878 H   0  0  0  0  0  0  0  0  0  0  0  0  # atno 10764 bound_to 10752
  154.5420  135.5758  153.6905 H   0  0  0  0  0  0  0  0  0  0  0  0  # atno 10765 bound_to 10752
  141.1591  133.6816  156.6898 H   0  0  0  0  0  0  0  0  0  0  0  0  # atno 11005 bound_to 11000
  144.9594  140.8259  143.5523 LP  0  0  0  0  0  0  0  0  0  0  0  0  # atno 17320 bound_to 7965
  145.2231  139.2150  143.5082 LP  0  0  0  0  0  0  0  0  0  0  0  0  # atno 17321 bound_to 7965
  140.6575  143.8569  150.6851 LP  0  0  0  0  0  0  0  0  0  0  0  0  # atno 17342 bound_to 10162
  140.1953  143.4003  152.1833 LP  0  0  0  0  0  0  0  0  0  0  0  0  # atno 17343 bound_to 10162
  155.9771  130.4746  150.6575 LP  0  0  0  0  0  0  0  0  0  0  0  0  # atno 17370 bound_to 10713
  157.4226  131.0838  151.1117 LP  0  0  0  0  0  0  0  0  0  0  0  0  # atno 17371 bound_to 10713
  140.3039  134.8141  157.4121 LP  0  0  0  0  0  0  0  0  0  0  0  0  # atno 17394 bound_to 11000
  140.1237  134.5185  155.8162 LP  0  0  0  0  0  0  0  0  0  0  0  0  # atno 17395 bound_to 11000

$$$$
