AV-unprocessed.smi:3202|AV-procd|sdf|12247|dock9
  -GOLD-   2272018 83D 1   1.00000     0.00000
 Structure written by MMmdl.
 43 44  0  0  0  0  0  0  0  0  2 V2000
  154.0216  138.9524  154.5176 C   0  0  0  0  0  0  0  0  0  0  0  0
  152.5989  139.4278  154.5488 C   0  0  0  0  0  0  0  0  0  0  0  0
  152.0593  140.5489  155.2451 C   0  0  0  0  0  0  0  0  0  0  0  0
  150.7278  140.5284  154.9385 C   0  0  0  0  0  0  0  0  0  0  0  0
  149.6080  141.4266  155.3552 C   0  0  0  0  0  0  0  0  0  0  0  0
  149.5582  141.7087  156.8697 C   0  0  2  0  0  0  0  0  0  0  0  0
  148.1434  142.0439  157.3683 C   0  0  0  0  0  0  0  0  0  0  0  0
  150.4735  142.8236  157.2022 N   0  3  0  0  0  0  0  0  0  0  0  0
  150.9560  142.8584  158.6022 C   0  0  1  0  0  0  0  0  0  0  0  0
  152.0772  141.8500  158.8896 C   0  0  0  0  0  0  0  0  0  0  0  0
  152.8583  142.4357  160.0734 C   0  0  0  0  0  0  0  0  0  0  0  0
  152.3030  143.8501  160.3008 C   0  0  0  0  0  0  0  0  0  0  0  0
  151.5333  144.2270  159.0219 C   0  0  0  0  0  0  0  0  0  0  0  0
  152.5099  144.8141  157.9765 C   0  0  0  0  0  0  0  0  0  0  0  0
  150.4220  145.2508  159.3198 C   0  0  0  0  0  0  0  0  0  0  0  0
  150.5420  139.4454  154.1090 N   0  0  0  0  0  0  0  0  0  0  0  0
  151.6771  138.7650  153.8666 N   0  0  0  0  0  0  0  0  0  0  0  0
  149.6597  139.1607  153.7072 H   0  0  0  0  0  0  0  0  0  0  0  0
  154.6874  139.6701  154.9974 H   0  0  0  0  0  0  0  0  0  0  0  0
  154.3685  138.8129  153.4933 H   0  0  0  0  0  0  0  0  0  0  0  0
  154.1279  138.0009  155.0392 H   0  0  0  0  0  0  0  0  0  0  0  0
  152.5743  141.2591  155.8751 H   0  0  0  0  0  0  0  0  0  0  0  0
  148.6592  140.9950  155.0330 H   0  0  0  0  0  0  0  0  0  0  0  0
  149.7014  142.3692  154.8148 H   0  0  0  0  0  0  0  0  0  0  0  0
  149.8832  140.8077  157.3923 H   0  0  0  0  0  0  0  0  0  0  0  0
  147.4557  141.2129  157.2102 H   0  0  0  0  0  0  0  0  0  0  0  0
  147.7362  142.9158  156.8552 H   0  0  0  0  0  0  0  0  0  0  0  0
  148.1469  142.2587  158.4374 H   0  0  0  0  0  0  0  0  0  0  0  0
  151.2725  142.7863  156.5857 H   0  0  0  0  0  0  0  0  0  0  0  0
  150.1137  142.6282  159.2581 H   0  0  0  0  0  0  0  0  0  0  0  0
  151.6871  140.8557  159.1089 H   0  0  0  0  0  0  0  0  0  0  0  0
  152.7399  141.7567  158.0281 H   0  0  0  0  0  0  0  0  0  0  0  0
  152.7434  141.8258  160.9701 H   0  0  0  0  0  0  0  0  0  0  0  0
  153.9227  142.4721  159.8385 H   0  0  0  0  0  0  0  0  0  0  0  0
  151.6188  143.8204  161.1503 H   0  0  0  0  0  0  0  0  0  0  0  0
  153.0857  144.5669  160.5526 H   0  0  0  0  0  0  0  0  0  0  0  0
  152.9799  145.7248  158.3494 H   0  0  0  0  0  0  0  0  0  0  0  0
  151.9988  145.0762  157.0498 H   0  0  0  0  0  0  0  0  0  0  0  0
  153.3110  144.1188  157.7255 H   0  0  0  0  0  0  0  0  0  0  0  0
  150.8386  146.1851  159.6980 H   0  0  0  0  0  0  0  0  0  0  0  0
  149.7210  144.8790  160.0678 H   0  0  0  0  0  0  0  0  0  0  0  0
  149.8496  145.4853  158.4216 H   0  0  0  0  0  0  0  0  0  0  0  0
  149.9795  143.6872  157.0281 H   0  0  0  0  0  0  0  0  0  0  0  0
  1 19  1  0  0  0  0
  1 20  1  0  0  0  0
  1 21  1  0  0  0  0
  1  2  1  0  0  0  0
  2 17  2  0  0  0  0
  2  3  1  0  0  0  0
  3  4  2  0  0  0  0
  3 22  1  0  0  0  0
  4 16  1  0  0  0  0
  4  5  1  0  0  0  0
  5  6  1  0  0  0  0
  5 23  1  0  0  0  0
  5 24  1  0  0  0  0
  6  7  1  0  0  0  0
  6  8  1  0  0  0  0
  6 25  1  0  0  0  0
  7 26  1  0  0  0  0
  7 27  1  0  0  0  0
  7 28  1  0  0  0  0
  8  9  1  0  0  0  0
  8 29  1  0  0  0  0
  8 43  1  0  0  0  0
  9 13  1  0  0  0  0
  9 10  1  0  0  0  0
  9 30  1  0  0  0  0
 10 11  1  0  0  0  0
 10 31  1  0  0  0  0
 10 32  1  0  0  0  0
 11 12  1  0  0  0  0
 11 33  1  0  0  0  0
 11 34  1  0  0  0  0
 12 13  1  0  0  0  0
 12 35  1  0  0  0  0
 12 36  1  0  0  0  0
 13 14  1  0  0  0  0
 13 15  1  0  0  0  0
 14 37  1  0  0  0  0
 14 38  1  0  0  0  0
 14 39  1  0  0  0  0
 15 40  1  0  0  0  0
 15 41  1  0  0  0  0
 15 42  1  0  0  0  0
 16 17  1  0  0  0  0
 16 18  1  0  0  0  0
M  CHG  1   8   1
M  END
> <s_m_source_file>
AV-unprocessed.smi

> <i_m_source_file_index>
3202

> <i_lp_mmshare_version>
43012

> <i_f3d_flags>
0

> <s_epik_input>
W0NIM11jMVtjSF1jKG5bbkhdMSlbQ0gyXVtDQEhdKFtDSDNdKVtOSF1bQ0BASF0oQzIoW0NIM10pW0NIM10pW0NIMl1bQ0gyXVtDSDJdMg==

> <s_epik_cmdline>
J2VwaWtfcHl0aG9uJywgJy1waCcsICc3LjAnLCAnLXRuJywgJzgnLCAnLW1hJywgJzIwMCcsICctbWV0YWxfYmluZGluZycsICctaW1hZScsICc8aW5maWxlLm1hZT4nLCAnLW9tYWUnLCAnPG91dGZpbGUubWFlPic=

> <r_lp_tautomer_probability>
0.5

> <r_epik_Ionization_Penalty>
0.000449684

> <r_epik_Ionization_Penalty_Charging>
0.000404963

> <r_epik_Ionization_Penalty_Neutral>
4.47208e-05

> <r_epik_State_Penalty>
0.41068

> <r_epik_Charging_Adjusted_Penalty>
0.411085

> <i_epik_Tot_Q>
1

> <i_epik_Tot_abs_Q>
1

> <r_epik_Metal_State_Penalty>
0.410687

> <b_epik_Metal_Only>
0

> <s_lp_Force_Field>
OPLS_2005

> <r_lp_Energy>
32.0397

> <b_lp_Chiralities_Consistent>
1

> <s_lp_Variant>
AV-unprocessed.smi:3202-7

> <Gold.Version>
5.8.1

> <Gold.Id.Protein>
6NUR|6NUR_protein|mol2

> <Gold.PLP.Fitness>
43.5360

> <Gold.PLP.PLP>
-39.5645

> <Gold.PLP.part.hbond>
-1.0000

> <Gold.PLP.part.metal>
0.0000

> <Gold.PLP.part.buried>
-0.9429

> <Gold.PLP.part.nonpolar>
-36.6723

> <Gold.PLP.part.repulsive>
0.3088

> <Gold.PLP.ligand.clash>
0.0000

> <Gold.PLP.ligand.torsion>
0.7834

> <Gold.PLP.Chemscore.Hbond>
1.8398

> <Gold.PLP.Chemscore.CHOScore>
0.0000

> <Gold.PLP.Chemscore.Metal>
0.0000

> <Gold.Chemscore.Hbonds>
donor molecule, donor type, donor heavy atom, donor atom, acceptor molecule, acceptor atom, score
      L1  H     8    43       P1  8028  1.82

> <Gold.PLP.Chemscore.Internal.Correction>
0.0190

> <Gold.Rescore>
     Score         DG    S(hbond)    S(metal)    S(lipo)     H(rot)  DE(clash)    DE(int)     intcor
     17.88     -18.98       0.89        0.00     121.86       1.46       0.17       0.93       ----

> <Gold.Chemscore.Fitness>
17.8826

> <Gold.Chemscore.DG>
-18.9814

> <Gold.Chemscore.ZeroCoef>
-5.4800

> <Gold.Chemscore.Hbond>
0.8924

> <Gold.Chemscore.Metal>
0.0000

> <Gold.Chemscore.Lipo>
121.8579

> <Gold.Chemscore.Internal_Hbond>
0.0000

> <Gold.Chemscore.DEClash>
0.1666

> <Gold.Chemscore.DEInternal>
0.9323

> <Gold.Chemscore.Rot>
1.4596

> <Gold.Chemscore.Internal.Correction>
   9.000000E+99

> <Gold.Chemscore.Hbonds>
donor molecule, donor type, donor heavy atom, donor atom, acceptor molecule, acceptor atom, score
      L1  H     8    43       P1  8028  0.83

> <Gold.Chemscore.Hbond.Weighted>
-2.9805

> <Gold.Chemscore.Metal.Weighted>
-0.0000

> <Gold.Chemscore.Lipo.Weighted>
-14.2574

> <Gold.Chemscore.Internal_Hbond.Weighted>
0.0000

> <Gold.Chemscore.DEClash.Weighted>
0.1666

> <Gold.Chemscore.DEInternal.Weighted>
0.9323

> <Gold.Chemscore.Rot.Weighted>
3.7365

> <Gold.Chemscore.Internal.Correction.Weighted>
   9.000000E+99

> <Gold.Protein.RotatedTorsions>
[ 6907 6896 6895 6894 ] final  -94.34 input  -60.11 | X-H torsion
[ 7974 7965 7964 7962 ] final -177.16 input  175.53 | X-H torsion
[ 8008 7997 7996 7995 ] final    9.76 input   59.86 | X-H torsion
[ 10167 10162 10161 10158 ] final   -7.67 input  -65.29 | X-H torsion
[ 10718 10713 10712 10709 ] final  167.75 input   66.30 | X-H torsion
[ 10763 10752 10751 10750 ] final  -36.69 input  -60.55 | X-H torsion
[ 11005 11000 10999 10996 ] final  175.07 input  -57.11 | X-H torsion

> <Gold.Protein.ActiveResidues>
 VAL166  LYS551  ARG553  GLY616  TRP617  ASP618  TYR619  PRO620  LYS621  CYS622 
 ASP623  PHE694  ASN695  SER759  ASP760  ASP761  ALA762  ILE779  LEU786  VAL792 
 PHE793  MET794  SER795  GLU796  ALA797  LYS798  CYS799  TRP800  GLU811  SER814 

> <Gold.Protein.RotatedAtoms>
  150.6940  134.1828  159.4254 H   0  0  0  0  0  0  0  0  0  0  0  0  # atno 6907 bound_to 6896
  151.9802  135.0030  160.0566 H   0  0  0  0  0  0  0  0  0  0  0  0  # atno 6908 bound_to 6896
  152.1762  133.4641  159.4971 H   0  0  0  0  0  0  0  0  0  0  0  0  # atno 6909 bound_to 6896
  144.7127  140.1062  143.6414 H   0  0  0  0  0  0  0  0  0  0  0  0  # atno 7974 bound_to 7965
  154.7843  140.2824  155.6039 H   0  0  0  0  0  0  0  0  0  0  0  0  # atno 8008 bound_to 7997
  156.2955  140.2617  156.2604 H   0  0  0  0  0  0  0  0  0  0  0  0  # atno 8009 bound_to 7997
  154.9746  140.0375  157.2240 H   0  0  0  0  0  0  0  0  0  0  0  0  # atno 8010 bound_to 7997
  140.7036  143.6055  150.8755 H   0  0  0  0  0  0  0  0  0  0  0  0  # atno 10167 bound_to 10162
  157.0470  131.0303  151.2694 H   0  0  0  0  0  0  0  0  0  0  0  0  # atno 10718 bound_to 10713
  153.8838  135.6819  153.4765 H   0  0  0  0  0  0  0  0  0  0  0  0  # atno 10763 bound_to 10752
  153.1219  135.4736  154.9206 H   0  0  0  0  0  0  0  0  0  0  0  0  # atno 10764 bound_to 10752
  154.7656  135.3223  154.8246 H   0  0  0  0  0  0  0  0  0  0  0  0  # atno 10765 bound_to 10752
  140.3582  134.7136  157.4313 H   0  0  0  0  0  0  0  0  0  0  0  0  # atno 11005 bound_to 11000
  145.9495  139.2724  143.1221 LP  0  0  0  0  0  0  0  0  0  0  0  0  # atno 17320 bound_to 7965
  145.9338  140.9029  143.0342 LP  0  0  0  0  0  0  0  0  0  0  0  0  # atno 17321 bound_to 7965
  139.9779  143.5984  152.2952 LP  0  0  0  0  0  0  0  0  0  0  0  0  # atno 17342 bound_to 10162
  139.6594  144.7662  151.1992 LP  0  0  0  0  0  0  0  0  0  0  0  0  # atno 17343 bound_to 10162
  157.5060  130.7909  149.7654 LP  0  0  0  0  0  0  0  0  0  0  0  0  # atno 17370 bound_to 10713
  156.0020  130.3875  150.2571 LP  0  0  0  0  0  0  0  0  0  0  0  0  # atno 17371 bound_to 10713
  140.0648  134.5945  155.8708 LP  0  0  0  0  0  0  0  0  0  0  0  0  # atno 17394 bound_to 11000
  141.1992  133.6605  156.5831 LP  0  0  0  0  0  0  0  0  0  0  0  0  # atno 17395 bound_to 11000

$$$$
