AV-unprocessed.smi:2603|AV-procd|sdf|10188|dock6
  -GOLD-   2272014203D 1   1.00000     0.00000
 Structure written by MMmdl.
 35 36  0  0  0  0  0  0  0  0  1 V2000
  152.3116  143.4184  161.8991 C   0  0  0  0  0  0  0  0  0  0  0  0
  151.7943  144.0441  160.6019 C   0  0  0  0  0  0  0  0  0  0  0  0
  150.9272  143.1250  159.9604 O   0  0  0  0  0  0  0  0  0  0  0  0
  150.5191  143.5861  158.6855 C   0  0  1  0  0  0  0  0  0  0  0  0
  151.6719  143.9832  157.8086 C   0  0  0  0  0  0  0  0  0  0  0  0
  150.9378  142.6785  157.5520 C   0  0  2  0  0  0  0  0  0  0  0  0
  150.0739  142.6106  156.4202 N   0  0  0  0  0  0  0  0  0  0  0  0
  150.1616  141.7169  155.4244 C   0  0  0  0  0  0  0  0  0  0  0  0
  151.0260  140.8426  155.3645 O   0  0  0  0  0  0  0  0  0  0  0  0
  149.0993  141.8169  154.3301 C   0  0  0  0  0  0  0  0  0  0  0  0
  147.7420  141.5197  154.9144 C   0  0  0  0  0  0  0  0  0  0  0  0
  147.3790  140.4934  155.8348 C   0  0  0  0  0  0  0  0  0  0  0  0
  148.2464  139.4378  156.4586 C   0  0  0  0  0  0  0  0  0  0  0  0
  146.0896  140.5252  156.1259 N   0  0  0  0  0  0  0  0  0  0  0  0
  145.5573  141.5924  155.3959 O   0  0  0  0  0  0  0  0  0  0  0  0
  146.5590  142.1654  154.6818 C   0  0  0  0  0  0  0  0  0  0  0  0
  146.1922  143.3277  153.8222 C   0  0  0  0  0  0  0  0  0  0  0  0
  152.9802  144.1025  162.4220 H   0  0  0  0  0  0  0  0  0  0  0  0
  152.8633  142.5001  161.6976 H   0  0  0  0  0  0  0  0  0  0  0  0
  151.4885  143.1752  162.5713 H   0  0  0  0  0  0  0  0  0  0  0  0
  151.2630  144.9714  160.8217 H   0  0  0  0  0  0  0  0  0  0  0  0
  152.6310  144.2907  159.9467 H   0  0  0  0  0  0  0  0  0  0  0  0
  149.5884  144.1502  158.6467 H   0  0  0  0  0  0  0  0  0  0  0  0
  151.5112  144.8019  157.1100 H   0  0  0  0  0  0  0  0  0  0  0  0
  152.6732  143.9214  158.2299 H   0  0  0  0  0  0  0  0  0  0  0  0
  151.4719  141.7701  157.8281 H   0  0  0  0  0  0  0  0  0  0  0  0
  149.3260  143.2875  156.3802 H   0  0  0  0  0  0  0  0  0  0  0  0
  149.1355  142.8095  153.8804 H   0  0  0  0  0  0  0  0  0  0  0  0
  149.3479  141.1172  153.5312 H   0  0  0  0  0  0  0  0  0  0  0  0
  148.1908  138.5063  155.8950 H   0  0  0  0  0  0  0  0  0  0  0  0
  147.9409  139.2264  157.4838 H   0  0  0  0  0  0  0  0  0  0  0  0
  149.2912  139.7463  156.4860 H   0  0  0  0  0  0  0  0  0  0  0  0
  146.5878  143.2012  152.8144 H   0  0  0  0  0  0  0  0  0  0  0  0
  146.5989  144.2524  154.2315 H   0  0  0  0  0  0  0  0  0  0  0  0
  145.1100  143.4373  153.7483 H   0  0  0  0  0  0  0  0  0  0  0  0
  1  2  1  0  0  0  0
  1 18  1  0  0  0  0
  1 19  1  0  0  0  0
  1 20  1  0  0  0  0
  2  3  1  0  0  0  0
  2 21  1  0  0  0  0
  2 22  1  0  0  0  0
  3  4  1  0  0  0  0
  4  6  1  0  0  0  0
  4  5  1  0  0  0  0
  4 23  1  0  0  0  0
  5  6  1  0  0  0  0
  5 24  1  0  0  0  0
  5 25  1  0  0  0  0
  6  7  1  0  0  0  0
  6 26  1  0  0  0  0
  7  8  1  0  0  0  0
  7 27  1  0  0  0  0
  8  9  2  0  0  0  0
  8 10  1  0  0  0  0
 10 11  1  0  0  0  0
 10 28  1  0  0  0  0
 10 29  1  0  0  0  0
 11 16  2  0  0  0  0
 11 12  1  0  0  0  0
 12 13  1  0  0  0  0
 12 14  2  0  0  0  0
 13 30  1  0  0  0  0
 13 31  1  0  0  0  0
 13 32  1  0  0  0  0
 14 15  1  0  0  0  0
 15 16  1  0  0  0  0
 16 17  1  0  0  0  0
 17 33  1  0  0  0  0
 17 34  1  0  0  0  0
 17 35  1  0  0  0  0
M  END
> <s_m_source_file>
AV-unprocessed.smi

> <i_m_source_file_index>
2603

> <i_lp_mmshare_version>
43012

> <i_f3d_flags>
0

> <s_epik_input>
W0NIM11bQ0gyXU9bQ0BASF0xW0NIMl1bQ0BIXTFbTkhdQyg9TylbQ0gyXWMyYyhbQ0gzXSlub2MyW0NIM10=

> <s_epik_cmdline>
J2VwaWtfcHl0aG9uJywgJy1waCcsICc3LjAnLCAnLXRuJywgJzgnLCAnLW1hJywgJzIwMCcsICctbWV0YWxfYmluZGluZycsICctaW1hZScsICc8aW5maWxlLm1hZT4nLCAnLW9tYWUnLCAnPG91dGZpbGUubWFlPic=

> <r_lp_tautomer_probability>
1

> <r_epik_Ionization_Penalty>
2.37325e-08

> <r_epik_Ionization_Penalty_Charging>
0

> <r_epik_Ionization_Penalty_Neutral>
2.37325e-08

> <r_epik_State_Penalty>
-0

> <r_epik_Charging_Adjusted_Penalty>
0

> <i_epik_Tot_Q>
0

> <i_epik_Tot_abs_Q>
0

> <r_epik_Metal_State_Penalty>
-0

> <b_epik_Metal_Only>
0

> <s_lp_Force_Field>
OPLS_2005

> <r_lp_Energy>
9.74593

> <b_lp_Chiralities_Consistent>
1

> <s_lp_Variant>
AV-unprocessed.smi:2603-4

> <Gold.Version>
5.8.1

> <Gold.Id.Protein>
6NUR|6NUR_protein|mol2

> <Gold.PLP.Fitness>
38.7582

> <Gold.PLP.PLP>
-34.4014

> <Gold.PLP.part.hbond>
-2.3675

> <Gold.PLP.part.metal>
0.0000

> <Gold.PLP.part.buried>
-2.4248

> <Gold.PLP.part.nonpolar>
-27.4831

> <Gold.PLP.part.repulsive>
0.2991

> <Gold.PLP.ligand.clash>
0.0000

> <Gold.PLP.ligand.torsion>
0.7174

> <Gold.PLP.Chemscore.Hbond>
1.7080

> <Gold.PLP.Chemscore.CHOScore>
0.0000

> <Gold.PLP.Chemscore.Metal>
0.0000

> <Gold.Chemscore.Hbonds>
donor molecule, donor type, donor heavy atom, donor atom, acceptor molecule, acceptor atom, score
      L1  H     7    27       P1  8028  0.85
      P1  H  7989  7998       L1     9  0.77

> <Gold.PLP.Chemscore.Internal.Correction>
0.6676

> <Gold.Rescore>
     Score         DG    S(hbond)    S(metal)    S(lipo)     H(rot)  DE(clash)    DE(int)     intcor
     13.22     -14.22       1.00        0.00      83.18       1.69       0.00       1.00       ----

> <Gold.Chemscore.Fitness>
13.2151

> <Gold.Chemscore.DG>
-14.2169

> <Gold.Chemscore.ZeroCoef>
-5.4800

> <Gold.Chemscore.Hbond>
0.9998

> <Gold.Chemscore.Metal>
0.0000

> <Gold.Chemscore.Lipo>
83.1808

> <Gold.Chemscore.Internal_Hbond>
0.0000

> <Gold.Chemscore.DEClash>
0.0015

> <Gold.Chemscore.DEInternal>
1.0003

> <Gold.Chemscore.Rot>
1.6933

> <Gold.Chemscore.Internal.Correction>
   9.000000E+99

> <Gold.Chemscore.Hbonds>
donor molecule, donor type, donor heavy atom, donor atom, acceptor molecule, acceptor atom, score
      L1  H     7    27       P1  8028  0.85
      P1  H  7989  7998       L1     9  0.34

> <Gold.Chemscore.Hbond.Weighted>
-3.3395

> <Gold.Chemscore.Metal.Weighted>
-0.0000

> <Gold.Chemscore.Lipo.Weighted>
-9.7321

> <Gold.Chemscore.Internal_Hbond.Weighted>
0.0000

> <Gold.Chemscore.DEClash.Weighted>
0.0015

> <Gold.Chemscore.DEInternal.Weighted>
1.0003

> <Gold.Chemscore.Rot.Weighted>
4.3348

> <Gold.Chemscore.Internal.Correction.Weighted>
   9.000000E+99

> <Gold.Protein.RotatedTorsions>
[ 6907 6896 6895 6894 ] final -123.04 input  -60.11 | X-H torsion
[ 7974 7965 7964 7962 ] final  -43.67 input  175.53 | X-H torsion
[ 8008 7997 7996 7995 ] final  177.90 input   59.86 | X-H torsion
[ 10167 10162 10161 10158 ] final  152.22 input  -65.29 | X-H torsion
[ 10718 10713 10712 10709 ] final  103.91 input   66.30 | X-H torsion
[ 10763 10752 10751 10750 ] final    3.92 input  -60.55 | X-H torsion
[ 11005 11000 10999 10996 ] final   15.48 input  -57.11 | X-H torsion

> <Gold.Protein.ActiveResidues>
 VAL166  LYS551  ARG553  GLY616  TRP617  ASP618  TYR619  PRO620  LYS621  CYS622 
 ASP623  PHE694  ASN695  SER759  ASP760  ASP761  ALA762  ILE779  LEU786  VAL792 
 PHE793  MET794  SER795  GLU796  ALA797  LYS798  CYS799  TRP800  GLU811  SER814 

> <Gold.Protein.RotatedAtoms>
  150.8633  133.7611  159.2984 H   0  0  0  0  0  0  0  0  0  0  0  0  # atno 6907 bound_to 6896
  151.5246  135.1066  159.9897 H   0  0  0  0  0  0  0  0  0  0  0  0  # atno 6908 bound_to 6896
  152.4642  133.7844  159.6924 H   0  0  0  0  0  0  0  0  0  0  0  0  # atno 6909 bound_to 6896
  145.9996  140.7089  142.9277 H   0  0  0  0  0  0  0  0  0  0  0  0  # atno 7974 bound_to 7965
  156.0605  140.1347  156.9946 H   0  0  0  0  0  0  0  0  0  0  0  0  # atno 8008 bound_to 7997
  154.4479  140.0992  156.6581 H   0  0  0  0  0  0  0  0  0  0  0  0  # atno 8009 bound_to 7997
  155.5384  140.3460  155.4443 H   0  0  0  0  0  0  0  0  0  0  0  0  # atno 8010 bound_to 7997
  139.4834  144.5376  151.7619 H   0  0  0  0  0  0  0  0  0  0  0  0  # atno 10167 bound_to 10162
  157.6757  131.0791  150.5627 H   0  0  0  0  0  0  0  0  0  0  0  0  # atno 10718 bound_to 10713
  153.2774  135.6937  153.7419 H   0  0  0  0  0  0  0  0  0  0  0  0  # atno 10763 bound_to 10752
  153.6419  135.3392  155.3075 H   0  0  0  0  0  0  0  0  0  0  0  0  # atno 10764 bound_to 10752
  154.8484  135.4434  154.1817 H   0  0  0  0  0  0  0  0  0  0  0  0  # atno 10765 bound_to 10752
  140.4578  134.1158  155.7712 H   0  0  0  0  0  0  0  0  0  0  0  0  # atno 11005 bound_to 11000
  144.6915  140.3210  143.7232 LP  0  0  0  0  0  0  0  0  0  0  0  0  # atno 17320 bound_to 7965
  145.7508  139.1793  143.2323 LP  0  0  0  0  0  0  0  0  0  0  0  0  # atno 17321 bound_to 7965
  140.4910  144.1310  150.5950 LP  0  0  0  0  0  0  0  0  0  0  0  0  # atno 17342 bound_to 10162
  140.4171  143.2629  151.9762 LP  0  0  0  0  0  0  0  0  0  0  0  0  # atno 17343 bound_to 10162
  156.5930  130.4334  149.5929 LP  0  0  0  0  0  0  0  0  0  0  0  0  # atno 17370 bound_to 10713
  156.2568  130.6939  151.1695 LP  0  0  0  0  0  0  0  0  0  0  0  0  # atno 17371 bound_to 10713
  141.1635  133.8748  157.1781 LP  0  0  0  0  0  0  0  0  0  0  0  0  # atno 17394 bound_to 11000
  139.9965  135.0045  157.0093 LP  0  0  0  0  0  0  0  0  0  0  0  0  # atno 17395 bound_to 11000

$$$$
