AV-unprocessed.smi:3284|AV-procd|sdf|12577|dock3
  -GOLD-   2272018503D 1   1.00000     0.00000
 Structure written by MMmdl.
 45 46  0  0  0  0  0  0  0  0  3 V2000
  151.2476  139.9042  158.3904 C   0  0  0  0  0  0  0  0  0  0  0  0
  152.0114  141.0089  159.1037 C   0  0  0  0  0  0  0  0  0  0  0  0
  153.1477  140.7129  159.7632 C   0  0  0  0  0  0  0  0  0  0  0  0
  153.9510  141.7084  160.5679 C   0  0  0  0  0  0  0  0  0  0  0  0
  153.0971  142.9181  160.9553 C   0  0  0  0  0  0  0  0  0  0  0  0
  152.3555  143.4937  159.7377 C   0  0  2  0  0  0  0  0  0  0  0  0
  151.5946  144.7667  160.1569 C   0  0  0  0  0  0  0  0  0  0  0  0
  151.4289  142.4383  159.0587 C   0  0  1  0  0  0  0  0  0  0  0  0
  151.0666  142.8921  157.6200 C   0  0  0  0  0  0  0  0  0  0  0  0
  149.6649  142.5873  157.2693 N   0  3  0  0  0  0  0  0  0  0  0  0
  149.4865  141.3696  156.4535 C   0  0  0  0  0  0  0  0  0  0  0  0
  149.5066  141.6909  154.9496 C   0  0  0  0  0  0  0  0  0  0  0  0
  148.5249  140.8879  154.1466 C   0  0  0  0  0  0  0  0  0  0  0  0
  148.6916  139.6141  153.7689 N   0  3  0  0  0  0  0  0  0  0  0  0
  147.6208  139.1903  153.0299 C   0  0  0  0  0  0  0  0  0  0  0  0
  146.7592  140.2526  152.9537 C   0  0  0  0  0  0  0  0  0  0  0  0
  147.3389  141.2813  153.6512 N   0  0  0  0  0  0  0  0  0  0  0  0
  146.7780  142.6197  153.8475 C   0  0  0  0  0  0  0  0  0  0  0  0
  150.1978  139.9131  158.6838 H   0  0  0  0  0  0  0  0  0  0  0  0
  151.6494  138.9214  158.6391 H   0  0  0  0  0  0  0  0  0  0  0  0
  151.3168  140.0160  157.3086 H   0  0  0  0  0  0  0  0  0  0  0  0
  153.5320  139.7031  159.7500 H   0  0  0  0  0  0  0  0  0  0  0  0
  154.3283  141.2206  161.4671 H   0  0  0  0  0  0  0  0  0  0  0  0
  154.8175  142.0149  159.9813 H   0  0  0  0  0  0  0  0  0  0  0  0
  152.3739  142.6237  161.7174 H   0  0  0  0  0  0  0  0  0  0  0  0
  153.7330  143.6779  161.4112 H   0  0  0  0  0  0  0  0  0  0  0  0
  153.1187  143.7882  159.0153 H   0  0  0  0  0  0  0  0  0  0  0  0
  150.8049  144.5377  160.8732 H   0  0  0  0  0  0  0  0  0  0  0  0
  151.1364  145.2770  159.3112 H   0  0  0  0  0  0  0  0  0  0  0  0
  152.2666  145.4837  160.6299 H   0  0  0  0  0  0  0  0  0  0  0  0
  150.5096  142.3947  159.6447 H   0  0  0  0  0  0  0  0  0  0  0  0
  151.2002  143.9648  157.4905 H   0  0  0  0  0  0  0  0  0  0  0  0
  151.7407  142.4114  156.9094 H   0  0  0  0  0  0  0  0  0  0  0  0
  149.1589  142.4605  158.1340 H   0  0  0  0  0  0  0  0  0  0  0  0
  150.2798  140.6614  156.6942 H   0  0  0  0  0  0  0  0  0  0  0  0
  148.5438  140.8908  156.7187 H   0  0  0  0  0  0  0  0  0  0  0  0
  149.2773  142.7435  154.7775 H   0  0  0  0  0  0  0  0  0  0  0  0
  150.4956  141.5083  154.5286 H   0  0  0  0  0  0  0  0  0  0  0  0
  147.5531  138.1906  152.6255 H   0  0  0  0  0  0  0  0  0  0  0  0
  145.7985  140.3483  152.4681 H   0  0  0  0  0  0  0  0  0  0  0  0
  145.7534  142.6425  153.4745 H   0  0  0  0  0  0  0  0  0  0  0  0
  147.3744  143.3476  153.2983 H   0  0  0  0  0  0  0  0  0  0  0  0
  146.7750  142.8637  154.9101 H   0  0  0  0  0  0  0  0  0  0  0  0
  149.2730  143.3783  156.7779 H   0  0  0  0  0  0  0  0  0  0  0  0
  149.4925  139.0414  154.0048 H   0  0  0  0  0  0  0  0  0  0  0  0
  1  2  1  0  0  0  0
  1 19  1  0  0  0  0
  1 20  1  0  0  0  0
  1 21  1  0  0  0  0
  2  8  1  0  0  0  0
  2  3  2  0  0  0  0
  3  4  1  0  0  0  0
  3 22  1  0  0  0  0
  4  5  1  0  0  0  0
  4 23  1  0  0  0  0
  4 24  1  0  0  0  0
  5  6  1  0  0  0  0
  5 25  1  0  0  0  0
  5 26  1  0  0  0  0
  6  7  1  0  0  0  0
  6  8  1  0  0  0  0
  6 27  1  0  0  0  0
  7 28  1  0  0  0  0
  7 29  1  0  0  0  0
  7 30  1  0  0  0  0
  8  9  1  0  0  0  0
  8 31  1  0  0  0  0
  9 10  1  0  0  0  0
  9 32  1  0  0  0  0
  9 33  1  0  0  0  0
 10 11  1  0  0  0  0
 10 34  1  0  0  0  0
 10 44  1  0  0  0  0
 11 12  1  0  0  0  0
 11 35  1  0  0  0  0
 11 36  1  0  0  0  0
 12 13  1  0  0  0  0
 12 37  1  0  0  0  0
 12 38  1  0  0  0  0
 13 17  1  0  0  0  0
 13 14  2  0  0  0  0
 14 15  1  0  0  0  0
 14 45  1  0  0  0  0
 15 16  2  0  0  0  0
 15 39  1  0  0  0  0
 16 17  1  0  0  0  0
 16 40  1  0  0  0  0
 17 18  1  0  0  0  0
 18 41  1  0  0  0  0
 18 42  1  0  0  0  0
 18 43  1  0  0  0  0
M  CHG  1  10   1
M  CHG  1  14   1
M  END
> <s_m_source_file>
AV-unprocessed.smi

> <i_m_source_file_index>
3284

> <i_lp_mmshare_version>
43012

> <i_f3d_flags>
0

> <s_epik_input>
W0NIM11DMT1bQ0hdW0NIMl1bQ0gyXVtDQEBIXShbQ0gzXSlbQ0BIXTFbQ0gyXVtOSF1bQ0gyXVtDSDJdYzJuW2NIXVtjSF1uMltDSDNd

> <s_epik_cmdline>
J2VwaWtfcHl0aG9uJywgJy1waCcsICc3LjAnLCAnLXRuJywgJzgnLCAnLW1hJywgJzIwMCcsICctbWV0YWxfYmluZGluZycsICctaW1hZScsICc8aW5maWxlLm1hZT4nLCAnLW9tYWUnLCAnPG91dGZpbGUubWFlPic=

> <r_lp_tautomer_probability>
1

> <r_epik_Ionization_Penalty>
0.892846

> <r_epik_Ionization_Penalty_Charging>
0.00275802

> <r_epik_Ionization_Penalty_Neutral>
0.890088

> <r_epik_State_Penalty>
0.485211

> <r_epik_Charging_Adjusted_Penalty>
0.487969

> <i_epik_Tot_Q>
2

> <i_epik_Tot_abs_Q>
2

> <r_epik_Metal_State_Penalty>
4.22898

> <b_epik_Metal_Only>
0

> <s_lp_Force_Field>
OPLS_2005

> <r_lp_Energy>
25.617

> <b_lp_Chiralities_Consistent>
1

> <s_lp_Variant>
AV-unprocessed.smi:3284-6

> <Gold.Version>
5.8.1

> <Gold.Id.Protein>
6NUR|6NUR_protein|mol2

> <Gold.PLP.Fitness>
50.0119

> <Gold.PLP.PLP>
-43.8215

> <Gold.PLP.part.hbond>
-2.0000

> <Gold.PLP.part.metal>
0.0000

> <Gold.PLP.part.buried>
-1.9776

> <Gold.PLP.part.nonpolar>
-39.6510

> <Gold.PLP.part.repulsive>
0.1050

> <Gold.PLP.ligand.clash>
0.0000

> <Gold.PLP.ligand.torsion>
1.4653

> <Gold.PLP.Chemscore.Hbond>
2.0000

> <Gold.PLP.Chemscore.CHOScore>
1.0000

> <Gold.PLP.Chemscore.Metal>
0.0000

> <Gold.Chemscore.Hbonds>
donor molecule, donor type, donor heavy atom, donor atom, acceptor molecule, acceptor atom, score
      L1  H    10    44       P1  8028  2.00
      L1  C    16    40       P1 10175  1.00

> <Gold.PLP.Chemscore.Internal.Correction>
0.1209

> <Gold.Rescore>
     Score         DG    S(hbond)    S(metal)    S(lipo)     H(rot)  DE(clash)    DE(int)     intcor
     15.77     -18.62       0.99        0.00     121.17       1.70       0.33       2.52       ----

> <Gold.Chemscore.Fitness>
15.7669

> <Gold.Chemscore.DG>
-18.6196

> <Gold.Chemscore.ZeroCoef>
-5.4800

> <Gold.Chemscore.Hbond>
0.9922

> <Gold.Chemscore.Metal>
0.0000

> <Gold.Chemscore.Lipo>
121.1696

> <Gold.Chemscore.Internal_Hbond>
0.0000

> <Gold.Chemscore.DEClash>
0.3333

> <Gold.Chemscore.DEInternal>
2.5194

> <Gold.Chemscore.Rot>
1.6997

> <Gold.Chemscore.Internal.Correction>
   9.000000E+99

> <Gold.Chemscore.Hbonds>
donor molecule, donor type, donor heavy atom, donor atom, acceptor molecule, acceptor atom, score
      L1  H    10    44       P1  8028  0.97

> <Gold.Chemscore.Hbond.Weighted>
-3.3140

> <Gold.Chemscore.Metal.Weighted>
-0.0000

> <Gold.Chemscore.Lipo.Weighted>
-14.1768

> <Gold.Chemscore.Internal_Hbond.Weighted>
0.0000

> <Gold.Chemscore.DEClash.Weighted>
0.3333

> <Gold.Chemscore.DEInternal.Weighted>
2.5194

> <Gold.Chemscore.Rot.Weighted>
4.3512

> <Gold.Chemscore.Internal.Correction.Weighted>
   9.000000E+99

> <Gold.Protein.RotatedTorsions>
[ 6907 6896 6895 6894 ] final  -59.63 input  -60.11 | X-H torsion
[ 7974 7965 7964 7962 ] final   51.58 input  175.53 | X-H torsion
[ 8008 7997 7996 7995 ] final   11.66 input   59.86 | X-H torsion
[ 10167 10162 10161 10158 ] final  139.71 input  -65.29 | X-H torsion
[ 10718 10713 10712 10709 ] final -120.99 input   66.30 | X-H torsion
[ 10763 10752 10751 10750 ] final  -69.58 input  -60.55 | X-H torsion
[ 11005 11000 10999 10996 ] final  109.01 input  -57.11 | X-H torsion

> <Gold.Protein.ActiveResidues>
 VAL166  LYS551  ARG553  GLY616  TRP617  ASP618  TYR619  PRO620  LYS621  CYS622 
 ASP623  PHE694  ASN695  SER759  ASP760  ASP761  ALA762  ILE779  LEU786  VAL792 
 PHE793  MET794  SER795  GLU796  ALA797  LYS798  CYS799  TRP800  GLU811  SER814 

> <Gold.Protein.RotatedAtoms>
  150.7916  134.6944  159.6514 H   0  0  0  0  0  0  0  0  0  0  0  0  # atno 6907 bound_to 6896
  152.4022  134.6263  160.0074 H   0  0  0  0  0  0  0  0  0  0  0  0  # atno 6908 bound_to 6896
  151.6531  133.3283  159.3192 H   0  0  0  0  0  0  0  0  0  0  0  0  # atno 6909 bound_to 6896
  145.9899  139.4328  143.0080 H   0  0  0  0  0  0  0  0  0  0  0  0  # atno 7974 bound_to 7965
  154.8099  140.2866  155.5860 H   0  0  0  0  0  0  0  0  0  0  0  0  # atno 8008 bound_to 7997
  156.2987  140.2570  156.2915 H   0  0  0  0  0  0  0  0  0  0  0  0  # atno 8009 bound_to 7997
  154.9459  140.0380  157.2109 H   0  0  0  0  0  0  0  0  0  0  0  0  # atno 8010 bound_to 7997
  139.5071  144.6278  151.5892 H   0  0  0  0  0  0  0  0  0  0  0  0  # atno 10167 bound_to 10162
  156.1302  130.6389  150.9608 H   0  0  0  0  0  0  0  0  0  0  0  0  # atno 10718 bound_to 10713
  154.4054  135.6021  153.5921 H   0  0  0  0  0  0  0  0  0  0  0  0  # atno 10763 bound_to 10752
  152.9789  135.5916  154.4134 H   0  0  0  0  0  0  0  0  0  0  0  0  # atno 10764 bound_to 10752
  154.3938  135.2842  155.2117 H   0  0  0  0  0  0  0  0  0  0  0  0  # atno 10765 bound_to 10752
  139.8854  134.9446  156.6060 H   0  0  0  0  0  0  0  0  0  0  0  0  # atno 11005 bound_to 11000
  145.7645  140.9922  143.1182 LP  0  0  0  0  0  0  0  0  0  0  0  0  # atno 17320 bound_to 7965
  144.6886  139.9371  143.7474 LP  0  0  0  0  0  0  0  0  0  0  0  0  # atno 17321 bound_to 7965
  140.6001  143.9625  150.6380 LP  0  0  0  0  0  0  0  0  0  0  0  0  # atno 17342 bound_to 10162
  140.2834  143.3374  152.1130 LP  0  0  0  0  0  0  0  0  0  0  0  0  # atno 17343 bound_to 10162
  157.6480  131.0901  150.8111 LP  0  0  0  0  0  0  0  0  0  0  0  0  # atno 17370 bound_to 10713
  156.8197  130.4980  149.5345 LP  0  0  0  0  0  0  0  0  0  0  0  0  # atno 17371 bound_to 10713
  140.7847  133.8631  155.8597 LP  0  0  0  0  0  0  0  0  0  0  0  0  # atno 17394 bound_to 11000
  140.9729  134.1507  157.4561 LP  0  0  0  0  0  0  0  0  0  0  0  0  # atno 17395 bound_to 11000

$$$$
