AV-unprocessed.smi:20|AV-procd|sdf|113|dock8
  -GOLD-   2262015283D 1   1.00000     0.00000
 Structure written by MMmdl.
 57 61  0  0  0  0  0  0  0  0  1 V2000
  147.5473  132.5900  152.9273 O   0  0  0  0  0  0  0  0  0  0  0  0
  148.4180  132.8005  153.7682 C   0  0  0  0  0  0  0  0  0  0  0  0
  148.7117  134.1708  154.3543 C   0  0  0  0  0  0  0  0  0  0  0  0
  149.5873  133.8531  155.5907 C   0  0  2  0  0  0  0  0  0  0  0  0
  148.7357  133.7495  156.8845 C   0  0  0  0  0  0  0  0  0  0  0  0
  148.2511  135.1258  157.3728 C   0  0  0  0  0  0  0  0  0  0  0  0
  149.4243  136.1055  157.5142 C   0  0  0  0  0  0  0  0  0  0  0  0
  150.1927  136.1723  156.2730 N   0  0  0  0  0  0  0  0  0  0  0  0
  150.9908  137.2641  156.1550 C   0  0  0  0  0  0  0  0  0  0  0  0
  152.2243  137.1464  155.5937 N   0  0  0  0  0  0  0  0  0  0  0  0
  153.0195  138.2142  155.4797 C   0  0  0  0  0  0  0  0  0  0  0  0
  152.7850  139.4729  155.8541 N   0  0  0  0  0  0  0  0  0  0  0  0
  151.5480  139.5998  156.4140 C   0  0  0  0  0  0  0  0  0  0  0  0
  150.5958  138.5579  156.5993 C   0  0  0  0  0  0  0  0  0  0  0  0
  149.4442  139.0699  157.1853 N   0  0  0  0  0  0  0  0  0  0  0  0
  149.7054  140.3380  157.3481 C   0  0  0  0  0  0  0  0  0  0  0  0
  150.9550  140.7388  156.9317 N   0  0  0  0  0  0  0  0  0  0  0  0
  151.4966  142.0873  156.9824 C   0  0  0  0  0  0  0  0  0  0  0  0
  151.5988  142.6792  158.4148 C   0  0  2  0  0  0  0  0  0  0  0  0
  151.6088  144.2243  158.3374 C   0  0  0  0  0  0  0  0  0  0  0  0
  150.2952  144.7402  158.2636 O   0  0  0  0  0  0  0  0  0  0  0  0
  152.8371  142.1612  159.2020 C   0  0  2  0  0  0  0  0  0  0  0  0
  153.0093  140.6524  159.2715 C   0  0  0  0  0  0  0  0  0  0  0  0
  153.9515  140.4829  160.4554 C   0  0  0  0  0  0  0  0  0  0  0  0
  153.5885  141.5072  161.3693 O   0  0  0  0  0  0  0  0  0  0  0  0
  152.8218  142.5029  160.6997 C   0  0  0  0  0  0  0  0  0  0  0  0
  150.7158  134.8885  155.8011 C   0  0  0  0  0  0  0  0  0  0  0  0
  150.1709  132.4633  155.2408 C   0  0  0  0  0  0  0  0  0  0  0  0
  149.2328  131.8902  154.2956 N   0  0  0  0  0  0  0  0  0  0  0  0
  149.2577  134.7535  153.6115 H   0  0  0  0  0  0  0  0  0  0  0  0
  147.7921  134.7043  154.5922 H   0  0  0  0  0  0  0  0  0  0  0  0
  147.8823  133.0866  156.7355 H   0  0  0  0  0  0  0  0  0  0  0  0
  149.3346  133.2985  157.6769 H   0  0  0  0  0  0  0  0  0  0  0  0
  147.5159  135.5364  156.6808 H   0  0  0  0  0  0  0  0  0  0  0  0
  147.7397  135.0210  158.3299 H   0  0  0  0  0  0  0  0  0  0  0  0
  149.0441  137.0834  157.8077 H   0  0  0  0  0  0  0  0  0  0  0  0
  150.0864  135.7760  158.3162 H   0  0  0  0  0  0  0  0  0  0  0  0
  153.9829  138.0336  155.0263 H   0  0  0  0  0  0  0  0  0  0  0  0
  148.9891  141.0204  157.7823 H   0  0  0  0  0  0  0  0  0  0  0  0
  152.4749  142.1012  156.5008 H   0  0  0  0  0  0  0  0  0  0  0  0
  150.8468  142.7006  156.3580 H   0  0  0  0  0  0  0  0  0  0  0  0
  150.7073  142.3949  158.9755 H   0  0  0  0  0  0  0  0  0  0  0  0
  152.0682  144.6657  159.2207 H   0  0  0  0  0  0  0  0  0  0  0  0
  152.1824  144.5660  157.4753 H   0  0  0  0  0  0  0  0  0  0  0  0
  149.9261  144.5054  157.4256 H   0  0  0  0  0  0  0  0  0  0  0  0
  153.7423  142.5845  158.7631 H   0  0  0  0  0  0  0  0  0  0  0  0
  152.0558  140.1632  159.4750 H   0  0  0  0  0  0  0  0  0  0  0  0
  153.4340  140.2233  158.3655 H   0  0  0  0  0  0  0  0  0  0  0  0
  153.8809  139.4947  160.9103 H   0  0  0  0  0  0  0  0  0  0  0  0
  154.9848  140.6420  160.1442 H   0  0  0  0  0  0  0  0  0  0  0  0
  153.2261  143.4952  160.9006 H   0  0  0  0  0  0  0  0  0  0  0  0
  151.8062  142.4673  161.0964 H   0  0  0  0  0  0  0  0  0  0  0  0
  151.4306  134.5121  156.5345 H   0  0  0  0  0  0  0  0  0  0  0  0
  151.2639  135.0265  154.8676 H   0  0  0  0  0  0  0  0  0  0  0  0
  151.1407  132.5491  154.7481 H   0  0  0  0  0  0  0  0  0  0  0  0
  150.2977  131.8195  156.1119 H   0  0  0  0  0  0  0  0  0  0  0  0
  149.2230  130.9088  154.0578 H   0  0  0  0  0  0  0  0  0  0  0  0
  1  2  2  0  0  0  0
  2 29  1  0  0  0  0
  2  3  1  0  0  0  0
  3  4  1  0  0  0  0
  3 30  1  0  0  0  0
  3 31  1  0  0  0  0
  4 27  1  0  0  0  0
  4  5  1  0  0  0  0
  4 28  1  0  0  0  0
  5  6  1  0  0  0  0
  5 32  1  0  0  0  0
  5 33  1  0  0  0  0
  6  7  1  0  0  0  0
  6 34  1  0  0  0  0
  6 35  1  0  0  0  0
  7  8  1  0  0  0  0
  7 36  1  0  0  0  0
  7 37  1  0  0  0  0
  8  9  1  0  0  0  0
  8 27  1  0  0  0  0
  9 14  1  0  0  0  0
  9 10  2  0  0  0  0
 10 11  1  0  0  0  0
 11 12  2  0  0  0  0
 11 38  1  0  0  0  0
 12 13  1  0  0  0  0
 13 17  1  0  0  0  0
 13 14  2  0  0  0  0
 14 15  1  0  0  0  0
 15 16  2  0  0  0  0
 16 17  1  0  0  0  0
 16 39  1  0  0  0  0
 17 18  1  0  0  0  0
 18 19  1  0  0  0  0
 18 40  1  0  0  0  0
 18 41  1  0  0  0  0
 19 20  1  0  0  0  0
 19 22  1  0  0  0  0
 19 42  1  0  0  0  0
 20 21  1  0  0  0  0
 20 43  1  0  0  0  0
 20 44  1  0  0  0  0
 21 45  1  0  0  0  0
 22 26  1  0  0  0  0
 22 23  1  0  0  0  0
 22 46  1  0  0  0  0
 23 24  1  0  0  0  0
 23 47  1  0  0  0  0
 23 48  1  0  0  0  0
 24 25  1  0  0  0  0
 24 49  1  0  0  0  0
 24 50  1  0  0  0  0
 25 26  1  0  0  0  0
 26 51  1  0  0  0  0
 26 52  1  0  0  0  0
 27 53  1  0  0  0  0
 27 54  1  0  0  0  0
 28 29  1  0  0  0  0
 28 55  1  0  0  0  0
 28 56  1  0  0  0  0
 29 57  1  0  0  0  0
M  END
> <s_m_source_file>
AV-unprocessed.smi

> <i_m_source_file_index>
20

> <i_lp_mmshare_version>
43012

> <i_f3d_flags>
0

> <s_epik_input>
W0NIMl0xW05IXUMoPU8pW0NIMl1bQ0BAXTEyW0NIMl1bQ0gyXVtDSDJdTihbQ0gyXTIpYyhuW2NIXW4zKWMoYzM0KW5bY0hdbjRbQ0gyXVtDQEhdKFtDSDJdW09IXSlbQ0BASF01W0NIMl1bQ0gyXU9bQ0gyXTU=

> <s_epik_cmdline>
J2VwaWtfcHl0aG9uJywgJy1waCcsICc3LjAnLCAnLXRuJywgJzgnLCAnLW1hJywgJzIwMCcsICctbWV0YWxfYmluZGluZycsICctaW1hZScsICc8aW5maWxlLm1hZT4nLCAnLW9tYWUnLCAnPG91dGZpbGUubWFlPic=

> <r_lp_tautomer_probability>
1

> <r_epik_Ionization_Penalty>
0.0019697

> <r_epik_Ionization_Penalty_Charging>
0

> <r_epik_Ionization_Penalty_Neutral>
0.0019697

> <r_epik_State_Penalty>
0.00113613

> <r_epik_Charging_Adjusted_Penalty>
0.00113613

> <i_epik_Tot_Q>
0

> <i_epik_Tot_abs_Q>
0

> <r_epik_Metal_State_Penalty>
-0

> <b_epik_Metal_Only>
0

> <s_lp_Force_Field>
OPLS_2005

> <r_lp_Energy>
60.2496

> <b_lp_Chiralities_Consistent>
1

> <s_lp_Variant>
AV-unprocessed.smi:20-1

> <Gold.Version>
5.8.1

> <Gold.Id.Protein>
6NUR|6NUR_protein|mol2

> <Gold.PLP.Fitness>
51.4582

> <Gold.PLP.PLP>
-44.7101

> <Gold.PLP.part.hbond>
-4.0000

> <Gold.PLP.part.metal>
0.0000

> <Gold.PLP.part.buried>
-7.1698

> <Gold.PLP.part.nonpolar>
-34.2099

> <Gold.PLP.part.repulsive>
0.1856

> <Gold.PLP.ligand.clash>
0.0000

> <Gold.PLP.ligand.torsion>
0.8932

> <Gold.PLP.Chemscore.Hbond>
2.7000

> <Gold.PLP.Chemscore.CHOScore>
0.0000

> <Gold.PLP.Chemscore.Metal>
0.0000

> <Gold.Chemscore.Hbonds>
donor molecule, donor type, donor heavy atom, donor atom, acceptor molecule, acceptor atom, score
      L1  H    21    45       P1  8028  0.95
      P1  H  7997  8009       L1    12  1.00
      P1  H 10752 10764       L1    10  0.86

> <Gold.PLP.Chemscore.Internal.Correction>
0.4346

> <Gold.Rescore>
     Score         DG    S(hbond)    S(metal)    S(lipo)     H(rot)  DE(clash)    DE(int)     intcor
     13.33     -16.84       2.02        0.00      99.47       2.74       1.52       1.99       ----

> <Gold.Chemscore.Fitness>
13.3251

> <Gold.Chemscore.DG>
-16.8355

> <Gold.Chemscore.ZeroCoef>
-5.4800

> <Gold.Chemscore.Hbond>
2.0165

> <Gold.Chemscore.Metal>
0.0000

> <Gold.Chemscore.Lipo>
99.4747

> <Gold.Chemscore.Internal_Hbond>
0.0000

> <Gold.Chemscore.DEClash>
1.5233

> <Gold.Chemscore.DEInternal>
1.9871

> <Gold.Chemscore.Rot>
2.7415

> <Gold.Chemscore.Internal.Correction>
   9.000000E+99

> <Gold.Chemscore.Hbonds>
donor molecule, donor type, donor heavy atom, donor atom, acceptor molecule, acceptor atom, score
      L1  H    21    45       P1  8028  0.20
      P1  H  7997  8009       L1    12  0.38
      P1  H 10752 10764       L1    10  0.69

> <Gold.Chemscore.Hbond.Weighted>
-6.7352

> <Gold.Chemscore.Metal.Weighted>
-0.0000

> <Gold.Chemscore.Lipo.Weighted>
-11.6385

> <Gold.Chemscore.Internal_Hbond.Weighted>
0.0000

> <Gold.Chemscore.DEClash.Weighted>
1.5233

> <Gold.Chemscore.DEInternal.Weighted>
1.9871

> <Gold.Chemscore.Rot.Weighted>
7.0182

> <Gold.Chemscore.Internal.Correction.Weighted>
   9.000000E+99

> <Gold.Protein.RotatedTorsions>
[ 6907 6896 6895 6894 ] final -116.85 input  -60.11 | X-H torsion
[ 7974 7965 7964 7962 ] final   93.35 input  175.53 | X-H torsion
[ 8008 7997 7996 7995 ] final -135.58 input   59.86 | X-H torsion
[ 10167 10162 10161 10158 ] final   31.86 input  -65.29 | X-H torsion
[ 10718 10713 10712 10709 ] final  167.52 input   66.30 | X-H torsion
[ 10763 10752 10751 10750 ] final  -42.46 input  -60.55 | X-H torsion
[ 11005 11000 10999 10996 ] final   60.61 input  -57.11 | X-H torsion

> <Gold.Protein.ActiveResidues>
 VAL166  LYS551  ARG553  GLY616  TRP617  ASP618  TYR619  PRO620  LYS621  CYS622 
 ASP623  PHE694  ASN695  SER759  ASP760  ASP761  ALA762  ILE779  LEU786  VAL792 
 PHE793  MET794  SER795  GLU796  ALA797  LYS798  CYS799  TRP800  GLU811  SER814 

> <Gold.Protein.RotatedAtoms>
  150.8089  133.8458  159.3191 H   0  0  0  0  0  0  0  0  0  0  0  0  # atno 6907 bound_to 6896
  151.6249  135.1027  160.0119 H   0  0  0  0  0  0  0  0  0  0  0  0  # atno 6908 bound_to 6896
  152.4181  133.7030  159.6492 H   0  0  0  0  0  0  0  0  0  0  0  0  # atno 6909 bound_to 6896
  145.4800  139.2279  143.2887 H   0  0  0  0  0  0  0  0  0  0  0  0  # atno 7974 bound_to 7965
  155.3810  140.0494  157.3043 H   0  0  0  0  0  0  0  0  0  0  0  0  # atno 8008 bound_to 7997
  154.5082  140.2182  155.9170 H   0  0  0  0  0  0  0  0  0  0  0  0  # atno 8009 bound_to 7997
  156.1551  140.3128  155.8719 H   0  0  0  0  0  0  0  0  0  0  0  0  # atno 8010 bound_to 7997
  140.4550  144.0991  150.6200 H   0  0  0  0  0  0  0  0  0  0  0  0  # atno 10167 bound_to 10162
  157.0503  131.0311  151.2683 H   0  0  0  0  0  0  0  0  0  0  0  0  # atno 10718 bound_to 10713
  153.9794  135.6719  153.4749 H   0  0  0  0  0  0  0  0  0  0  0  0  # atno 10763 bound_to 10752
  153.0755  135.4951  154.8392 H   0  0  0  0  0  0  0  0  0  0  0  0  # atno 10764 bound_to 10752
  154.7173  135.3110  154.9064 H   0  0  0  0  0  0  0  0  0  0  0  0  # atno 10765 bound_to 10752
  140.0219  134.6140  155.9627 H   0  0  0  0  0  0  0  0  0  0  0  0  # atno 11005 bound_to 11000
  146.2346  140.5586  142.8960 LP  0  0  0  0  0  0  0  0  0  0  0  0  # atno 17320 bound_to 7965
  144.7894  140.6002  143.6551 LP  0  0  0  0  0  0  0  0  0  0  0  0  # atno 17321 bound_to 7965
  140.4161  143.2633  151.9773 LP  0  0  0  0  0  0  0  0  0  0  0  0  # atno 17342 bound_to 10162
  139.4800  144.5872  151.7833 LP  0  0  0  0  0  0  0  0  0  0  0  0  # atno 17343 bound_to 10162
  157.5035  130.7894  149.7630 LP  0  0  0  0  0  0  0  0  0  0  0  0  # atno 17370 bound_to 10713
  156.0010  130.3880  150.2607 LP  0  0  0  0  0  0  0  0  0  0  0  0  # atno 17371 bound_to 10713
  141.1779  133.6542  156.4902 LP  0  0  0  0  0  0  0  0  0  0  0  0  # atno 17394 bound_to 11000
  140.4372  134.7048  157.4973 LP  0  0  0  0  0  0  0  0  0  0  0  0  # atno 17395 bound_to 11000

$$$$
