AV-unprocessed.smi:1492|AV-procd|sdf|6041|dock4
  -GOLD-   22720 6153D 1   1.00000     0.00000
 Structure written by MMmdl.
 52 53  0  0  0  0  0  0  0  0  1 V2000
  149.2789  141.1201  154.6854 C   0  0  0  0  0  0  0  0  0  0  0  0
  149.5936  141.6616  156.0919 C   0  0  0  0  0  0  0  0  0  0  0  0
  150.7711  140.9782  156.8572 C   0  0  2  0  0  0  0  0  0  0  0  0
  151.9256  140.7181  155.8532 C   0  0  0  0  0  0  0  0  0  0  0  0
  150.2955  139.5787  157.3646 C   0  0  0  0  0  0  0  0  0  0  0  0
  149.9921  138.6638  156.2669 N   0  0  0  0  0  0  0  0  0  0  0  0
  149.3111  137.5123  156.3555 C   0  0  0  0  0  0  0  0  0  0  0  0
  148.9795  136.9922  157.4202 O   0  0  0  0  0  0  0  0  0  0  0  0
  148.9072  136.8747  155.0258 C   0  0  0  0  0  0  0  0  0  0  0  0
  149.4261  135.4512  154.8192 C   0  0  0  0  0  0  0  0  0  0  0  0
  148.6076  134.4033  154.5474 C   0  0  0  0  0  0  0  0  0  0  0  0
  147.0963  134.5043  154.4367 C   0  0  0  0  0  0  0  0  0  0  0  0
  149.1152  133.1333  154.3383 N   0  0  0  0  0  0  0  0  0  0  0  0
  150.4876  132.9635  154.4126 C   0  0  0  0  0  0  0  0  0  0  0  0
  150.9398  131.5421  154.1590 C   0  0  0  0  0  0  0  0  0  0  0  0
  151.3501  133.8996  154.6668 N   0  0  0  0  0  0  0  0  0  0  0  0
  150.8867  135.2071  154.8826 C   0  0  0  0  0  0  0  0  0  0  0  0
  151.6828  136.1183  155.1044 O   0  0  0  0  0  0  0  0  0  0  0  0
  151.2657  141.8117  157.9934 N   0  0  0  0  0  0  0  0  0  0  0  0
  152.4652  141.3085  158.6725 C   0  0  0  0  0  0  0  0  0  0  0  0
  152.8090  142.1398  159.9201 C   0  0  0  0  0  0  0  0  0  0  0  0
  152.9749  143.5053  159.5578 O   0  0  0  0  0  0  0  0  0  0  0  0
  151.8139  144.0498  158.9421 C   0  0  0  0  0  0  0  0  0  0  0  0
  151.4625  143.2336  157.6869 C   0  0  0  0  0  0  0  0  0  0  0  0
  148.4710  132.3828  154.1349 H   0  0  0  0  0  0  0  0  0  0  0  0
  148.4488  141.6740  154.2465 H   0  0  0  0  0  0  0  0  0  0  0  0
  148.9859  140.0710  154.7054 H   0  0  0  0  0  0  0  0  0  0  0  0
  150.1255  141.2252  154.0074 H   0  0  0  0  0  0  0  0  0  0  0  0
  149.7888  142.7283  155.9875 H   0  0  0  0  0  0  0  0  0  0  0  0
  148.6777  141.5854  156.6774 H   0  0  0  0  0  0  0  0  0  0  0  0
  151.6924  139.9099  155.1601 H   0  0  0  0  0  0  0  0  0  0  0  0
  152.8462  140.4386  156.3662 H   0  0  0  0  0  0  0  0  0  0  0  0
  152.1450  141.5952  155.2442 H   0  0  0  0  0  0  0  0  0  0  0  0
  151.0646  139.1111  157.9794 H   0  0  0  0  0  0  0  0  0  0  0  0
  149.4290  139.6683  158.0208 H   0  0  0  0  0  0  0  0  0  0  0  0
  150.2208  138.9943  155.3404 H   0  0  0  0  0  0  0  0  0  0  0  0
  147.8212  136.9119  154.9355 H   0  0  0  0  0  0  0  0  0  0  0  0
  149.2758  137.5032  154.2146 H   0  0  0  0  0  0  0  0  0  0  0  0
  146.8152  135.2177  153.6622 H   0  0  0  0  0  0  0  0  0  0  0  0
  146.6673  134.8363  155.3822 H   0  0  0  0  0  0  0  0  0  0  0  0
  146.6463  133.5433  154.1839 H   0  0  0  0  0  0  0  0  0  0  0  0
  152.0285  131.4761  154.1462 H   0  0  0  0  0  0  0  0  0  0  0  0
  150.5679  131.1900  153.1964 H   0  0  0  0  0  0  0  0  0  0  0  0
  150.5662  130.8798  154.9403 H   0  0  0  0  0  0  0  0  0  0  0  0
  152.3302  140.2765  158.9913 H   0  0  0  0  0  0  0  0  0  0  0  0
  153.3190  141.3233  157.9953 H   0  0  0  0  0  0  0  0  0  0  0  0
  152.0239  142.0479  160.6712 H   0  0  0  0  0  0  0  0  0  0  0  0
  153.7308  141.7776  160.3751 H   0  0  0  0  0  0  0  0  0  0  0  0
  150.9835  144.0499  159.6485 H   0  0  0  0  0  0  0  0  0  0  0  0
  152.0062  145.0892  158.6764 H   0  0  0  0  0  0  0  0  0  0  0  0
  152.2638  143.3548  156.9582 H   0  0  0  0  0  0  0  0  0  0  0  0
  150.5667  143.6669  157.2459 H   0  0  0  0  0  0  0  0  0  0  0  0
  1  2  1  0  0  0  0
  1 26  1  0  0  0  0
  1 27  1  0  0  0  0
  1 28  1  0  0  0  0
  2  3  1  0  0  0  0
  2 29  1  0  0  0  0
  2 30  1  0  0  0  0
  3  4  1  0  0  0  0
  3  5  1  0  0  0  0
  3 19  1  0  0  0  0
  4 31  1  0  0  0  0
  4 32  1  0  0  0  0
  4 33  1  0  0  0  0
  5  6  1  0  0  0  0
  5 34  1  0  0  0  0
  5 35  1  0  0  0  0
  6  7  1  0  0  0  0
  6 36  1  0  0  0  0
  7  8  2  0  0  0  0
  7  9  1  0  0  0  0
  9 37  1  0  0  0  0
  9 38  1  0  0  0  0
  9 10  1  0  0  0  0
 10 17  1  0  0  0  0
 10 11  2  0  0  0  0
 11 12  1  0  0  0  0
 11 13  1  0  0  0  0
 12 39  1  0  0  0  0
 12 40  1  0  0  0  0
 12 41  1  0  0  0  0
 13 25  1  0  0  0  0
 13 14  1  0  0  0  0
 14 15  1  0  0  0  0
 14 16  2  0  0  0  0
 15 42  1  0  0  0  0
 15 43  1  0  0  0  0
 15 44  1  0  0  0  0
 16 17  1  0  0  0  0
 17 18  2  0  0  0  0
 19 24  1  0  0  0  0
 19 20  1  0  0  0  0
 20 21  1  0  0  0  0
 20 45  1  0  0  0  0
 20 46  1  0  0  0  0
 21 22  1  0  0  0  0
 21 47  1  0  0  0  0
 21 48  1  0  0  0  0
 22 23  1  0  0  0  0
 23 24  1  0  0  0  0
 23 49  1  0  0  0  0
 23 50  1  0  0  0  0
 24 51  1  0  0  0  0
 24 52  1  0  0  0  0
M  END
> <s_m_source_file>
AV-unprocessed.smi

> <i_m_source_file_index>
1492

> <i_lp_mmshare_version>
43012

> <i_f3d_flags>
0

> <s_epik_input>
W0NIMl0xW0NIMl1PW0NIMl1bQ0gyXU4xW0NAQF0oW0NIM10pKFtDSDJdW0NIM10pW0NIMl1bTkhdQyg9TylbQ0gyXWMyYyhbQ0gzXSluYyhbQ0gzXSlbbkhdYzI9Tw==

> <s_epik_cmdline>
J2VwaWtfcHl0aG9uJywgJy1waCcsICc3LjAnLCAnLXRuJywgJzgnLCAnLW1hJywgJzIwMCcsICctbWV0YWxfYmluZGluZycsICctaW1hZScsICc8aW5maWxlLm1hZT4nLCAnLW9tYWUnLCAnPG91dGZpbGUubWFlPic=

> <r_lp_tautomer_probability>
0.156392

> <r_epik_Ionization_Penalty>
0.342516

> <r_epik_Ionization_Penalty_Charging>
0.0141408

> <r_epik_Ionization_Penalty_Neutral>
0.328375

> <r_epik_State_Penalty>
1.47662

> <r_epik_Charging_Adjusted_Penalty>
1.49076

> <i_epik_Tot_Q>
0

> <i_epik_Tot_abs_Q>
0

> <r_epik_Metal_State_Penalty>
1.65506

> <b_epik_Metal_Only>
0

> <s_lp_Force_Field>
OPLS_2005

> <r_lp_Energy>
47.0207

> <b_lp_Chiralities_Consistent>
1

> <s_lp_Variant>
AV-unprocessed.smi:1492-6

> <Gold.Version>
5.8.1

> <Gold.Id.Protein>
6NUR|6NUR_protein|mol2

> <Gold.PLP.Fitness>
34.8424

> <Gold.PLP.PLP>
-32.6459

> <Gold.PLP.part.hbond>
-1.0000

> <Gold.PLP.part.metal>
0.0000

> <Gold.PLP.part.buried>
-3.1505

> <Gold.PLP.part.nonpolar>
-27.3148

> <Gold.PLP.part.repulsive>
0.1527

> <Gold.PLP.ligand.clash>
0.0000

> <Gold.PLP.ligand.torsion>
0.5316

> <Gold.PLP.Chemscore.Hbond>
1.0000

> <Gold.PLP.Chemscore.CHOScore>
0.0000

> <Gold.PLP.Chemscore.Metal>
0.0000

> <Gold.Chemscore.Hbonds>
donor molecule, donor type, donor heavy atom, donor atom, acceptor molecule, acceptor atom, score
      P1  H 10752 10765       L1    18  0.80

> <Gold.PLP.Chemscore.Internal.Correction>
0.2597

> <Gold.Rescore>
     Score         DG    S(hbond)    S(metal)    S(lipo)     H(rot)  DE(clash)    DE(int)     intcor
     12.29     -13.07       0.97        0.00      83.45       2.12       0.03       0.76       ----

> <Gold.Chemscore.Fitness>
12.2862

> <Gold.Chemscore.DG>
-13.0715

> <Gold.Chemscore.ZeroCoef>
-5.4800

> <Gold.Chemscore.Hbond>
0.9713

> <Gold.Chemscore.Metal>
0.0000

> <Gold.Chemscore.Lipo>
83.4458

> <Gold.Chemscore.Internal_Hbond>
0.0000

> <Gold.Chemscore.DEClash>
0.0254

> <Gold.Chemscore.DEInternal>
0.7599

> <Gold.Chemscore.Rot>
2.1155

> <Gold.Chemscore.Internal.Correction>
   9.000000E+99

> <Gold.Chemscore.Hbonds>
donor molecule, donor type, donor heavy atom, donor atom, acceptor molecule, acceptor atom, score
      P1  H 10752 10765       L1    18  0.31

> <Gold.Chemscore.Hbond.Weighted>
-3.2441

> <Gold.Chemscore.Metal.Weighted>
-0.0000

> <Gold.Chemscore.Lipo.Weighted>
-9.7632

> <Gold.Chemscore.Internal_Hbond.Weighted>
0.0000

> <Gold.Chemscore.DEClash.Weighted>
0.0254

> <Gold.Chemscore.DEInternal.Weighted>
0.7599

> <Gold.Chemscore.Rot.Weighted>
5.4157

> <Gold.Chemscore.Internal.Correction.Weighted>
   9.000000E+99

> <Gold.Protein.RotatedTorsions>
[ 6907 6896 6895 6894 ] final    7.80 input  -60.11 | X-H torsion
[ 7974 7965 7964 7962 ] final  -53.10 input  175.53 | X-H torsion
[ 8008 7997 7996 7995 ] final   63.36 input   59.86 | X-H torsion
[ 10167 10162 10161 10158 ] final  -94.34 input  -65.29 | X-H torsion
[ 10718 10713 10712 10709 ] final -148.39 input   66.30 | X-H torsion
[ 10763 10752 10751 10750 ] final -178.06 input  -60.55 | X-H torsion
[ 11005 11000 10999 10996 ] final   12.55 input  -57.11 | X-H torsion

> <Gold.Protein.ActiveResidues>
 VAL166  LYS551  ARG553  GLY616  TRP617  ASP618  TYR619  PRO620  LYS621  CYS622 
 ASP623  PHE694  ASN695  SER759  ASP760  ASP761  ALA762  ILE779  LEU786  VAL792 
 PHE793  MET794  SER795  GLU796  ALA797  LYS798  CYS799  TRP800  GLU811  SER814 

> <Gold.Protein.RotatedAtoms>
  151.6958  135.0939  160.0241 H   0  0  0  0  0  0  0  0  0  0  0  0  # atno 6907 bound_to 6896
  152.3751  133.6466  159.6125 H   0  0  0  0  0  0  0  0  0  0  0  0  # atno 6908 bound_to 6896
  150.7703  133.9123  159.3414 H   0  0  0  0  0  0  0  0  0  0  0  0  # atno 6909 bound_to 6896
  145.9006  140.7997  142.9745 H   0  0  0  0  0  0  0  0  0  0  0  0  # atno 7974 bound_to 7965
  155.6290  140.3496  155.4676 H   0  0  0  0  0  0  0  0  0  0  0  0  # atno 8008 bound_to 7997
  156.0019  140.1215  157.0563 H   0  0  0  0  0  0  0  0  0  0  0  0  # atno 8009 bound_to 7997
  154.4251  140.1099  156.5694 H   0  0  0  0  0  0  0  0  0  0  0  0  # atno 8010 bound_to 7997
  140.3154  143.3080  152.0103 H   0  0  0  0  0  0  0  0  0  0  0  0  # atno 10167 bound_to 10162
  156.4197  130.8022  151.2245 H   0  0  0  0  0  0  0  0  0  0  0  0  # atno 10718 bound_to 10713
  154.5524  135.2814  155.0996 H   0  0  0  0  0  0  0  0  0  0  0  0  # atno 10763 bound_to 10752
  154.2436  135.6352  153.5219 H   0  0  0  0  0  0  0  0  0  0  0  0  # atno 10764 bound_to 10752
  153.0006  135.5566  154.6094 H   0  0  0  0  0  0  0  0  0  0  0  0  # atno 10765 bound_to 10752
  140.4907  134.0843  155.7771 H   0  0  0  0  0  0  0  0  0  0  0  0  # atno 11005 bound_to 11000
  144.6735  140.1671  143.7417 LP  0  0  0  0  0  0  0  0  0  0  0  0  # atno 17320 bound_to 7965
  145.8796  139.2315  143.1613 LP  0  0  0  0  0  0  0  0  0  0  0  0  # atno 17321 bound_to 7965
  139.4885  144.6352  151.6990 LP  0  0  0  0  0  0  0  0  0  0  0  0  # atno 17342 bound_to 10162
  140.5531  144.0393  150.6135 LP  0  0  0  0  0  0  0  0  0  0  0  0  # atno 17343 bound_to 10162
  157.7508  131.0232  150.3824 LP  0  0  0  0  0  0  0  0  0  0  0  0  # atno 17370 bound_to 10713
  156.4138  130.3939  149.6872 LP  0  0  0  0  0  0  0  0  0  0  0  0  # atno 17371 bound_to 10713
  141.1485  133.9011  157.2156 LP  0  0  0  0  0  0  0  0  0  0  0  0  # atno 17394 bound_to 11000
  139.9771  135.0110  156.9657 LP  0  0  0  0  0  0  0  0  0  0  0  0  # atno 17395 bound_to 11000

$$$$
