AV-unprocessed.smi:1932|AV-procd|sdf|7814|dock10
  -GOLD-   22720 9553D 1   1.00000     0.00000
 Structure written by MMmdl.
 44 45  0  0  0  0  0  0  0  0  1 V2000
  145.7550  131.8681  151.3070 C   0  0  0  0  0  0  0  0  0  0  0  0
  145.4207  133.3603  151.3944 C   0  0  0  0  0  0  0  0  0  0  0  0
  144.6664  133.8353  150.5450 O   0  0  0  0  0  0  0  0  0  0  0  0
  145.9586  134.1042  152.3923 N   0  0  0  0  0  0  0  0  0  0  0  0
  146.8688  133.4922  153.3644 C   0  0  0  0  0  0  0  0  0  0  0  0
  145.7231  135.5488  152.5654 C   0  0  0  0  0  0  0  0  0  0  0  0
  146.2823  136.1495  153.8663 C   0  0  0  0  0  0  0  0  0  0  0  0
  145.6674  135.9723  154.9171 O   0  0  0  0  0  0  0  0  0  0  0  0
  147.4179  136.8634  153.8007 N   0  0  0  0  0  0  0  0  0  0  0  0
  148.0376  137.5671  154.9165 C   0  0  0  0  0  0  0  0  0  0  0  0
  148.0574  139.0747  154.7011 C   0  0  0  0  0  0  0  0  0  0  0  0
  146.9060  139.7201  154.2031 C   0  0  0  0  0  0  0  0  0  0  0  0
  146.9435  141.1068  153.9701 C   0  0  0  0  0  0  0  0  0  0  0  0
  148.1392  141.7965  154.2421 C   0  0  0  0  0  0  0  0  0  0  0  0
  149.2476  141.1944  154.7214 N   0  0  0  0  0  0  0  0  0  0  0  0
  149.2149  139.8591  154.9503 C   0  0  0  0  0  0  0  0  0  0  0  0
  150.3730  139.2633  155.4794 N   0  0  0  0  0  0  0  0  0  0  0  0
  150.7889  139.8477  156.7473 C   0  0  0  0  0  0  0  0  0  0  0  0
  151.9052  138.9947  157.3741 C   0  0  0  0  0  0  0  0  0  0  0  0
  152.9838  138.8664  156.4515 O   0  0  0  0  0  0  0  0  0  0  0  0
  152.5810  138.2289  155.2424 C   0  0  0  0  0  0  0  0  0  0  0  0
  151.4862  139.0667  154.5586 C   0  0  0  0  0  0  0  0  0  0  0  0
  145.3359  131.3291  152.1566 H   0  0  0  0  0  0  0  0  0  0  0  0
  146.8320  131.7037  151.2812 H   0  0  0  0  0  0  0  0  0  0  0  0
  145.3332  131.4348  150.3996 H   0  0  0  0  0  0  0  0  0  0  0  0
  146.5792  132.4734  153.6223 H   0  0  0  0  0  0  0  0  0  0  0  0
  146.8918  134.0571  154.2973 H   0  0  0  0  0  0  0  0  0  0  0  0
  147.8820  133.4649  152.9628 H   0  0  0  0  0  0  0  0  0  0  0  0
  146.1779  136.0843  151.7306 H   0  0  0  0  0  0  0  0  0  0  0  0
  144.6616  135.7876  152.4979 H   0  0  0  0  0  0  0  0  0  0  0  0
  147.8615  136.9648  152.8991 H   0  0  0  0  0  0  0  0  0  0  0  0
  147.5327  137.3233  155.8528 H   0  0  0  0  0  0  0  0  0  0  0  0
  149.0585  137.2034  155.0280 H   0  0  0  0  0  0  0  0  0  0  0  0
  146.0065  139.1602  153.9932 H   0  0  0  0  0  0  0  0  0  0  0  0
  146.0786  141.6278  153.5868 H   0  0  0  0  0  0  0  0  0  0  0  0
  148.2074  142.8607  154.0714 H   0  0  0  0  0  0  0  0  0  0  0  0
  151.1470  140.8637  156.5750 H   0  0  0  0  0  0  0  0  0  0  0  0
  149.9432  139.9194  157.4315 H   0  0  0  0  0  0  0  0  0  0  0  0
  152.2707  139.4646  158.2872 H   0  0  0  0  0  0  0  0  0  0  0  0
  151.5306  138.0075  157.6505 H   0  0  0  0  0  0  0  0  0  0  0  0
  153.4449  138.1292  154.5856 H   0  0  0  0  0  0  0  0  0  0  0  0
  152.2242  137.2207  155.4577 H   0  0  0  0  0  0  0  0  0  0  0  0
  151.1356  138.5664  153.6552 H   0  0  0  0  0  0  0  0  0  0  0  0
  151.8955  140.0323  154.2587 H   0  0  0  0  0  0  0  0  0  0  0  0
  1  2  1  0  0  0  0
  1 23  1  0  0  0  0
  1 24  1  0  0  0  0
  1 25  1  0  0  0  0
  2  3  2  0  0  0  0
  2  4  1  0  0  0  0
  4  5  1  0  0  0  0
  4  6  1  0  0  0  0
  5 26  1  0  0  0  0
  5 27  1  0  0  0  0
  5 28  1  0  0  0  0
  6  7  1  0  0  0  0
  6 29  1  0  0  0  0
  6 30  1  0  0  0  0
  7  8  2  0  0  0  0
  7  9  1  0  0  0  0
  9 10  1  0  0  0  0
  9 31  1  0  0  0  0
 10 11  1  0  0  0  0
 10 32  1  0  0  0  0
 10 33  1  0  0  0  0
 11 16  1  0  0  0  0
 11 12  2  0  0  0  0
 12 13  1  0  0  0  0
 12 34  1  0  0  0  0
 13 14  2  0  0  0  0
 13 35  1  0  0  0  0
 14 15  1  0  0  0  0
 14 36  1  0  0  0  0
 15 16  2  0  0  0  0
 16 17  1  0  0  0  0
 17 22  1  0  0  0  0
 17 18  1  0  0  0  0
 18 19  1  0  0  0  0
 18 37  1  0  0  0  0
 18 38  1  0  0  0  0
 19 20  1  0  0  0  0
 19 39  1  0  0  0  0
 19 40  1  0  0  0  0
 20 21  1  0  0  0  0
 21 22  1  0  0  0  0
 21 41  1  0  0  0  0
 21 42  1  0  0  0  0
 22 43  1  0  0  0  0
 22 44  1  0  0  0  0
M  END
> <s_m_source_file>
AV-unprocessed.smi

> <i_m_source_file_index>
1932

> <i_lp_mmshare_version>
43012

> <i_f3d_flags>
0

> <s_epik_input>
W0NIM11DKD1PKU4oW0NIM10pW0NIMl1DKD1PKVtOSF1bQ0gyXWMxW2NIXVtjSF1bY0hdbmMxTjJbQ0gyXVtDSDJdT1tDSDJdW0NIMl0y

> <s_epik_cmdline>
J2VwaWtfcHl0aG9uJywgJy1waCcsICc3LjAnLCAnLXRuJywgJzgnLCAnLW1hJywgJzIwMCcsICctbWV0YWxfYmluZGluZycsICctaW1hZScsICc8aW5maWxlLm1hZT4nLCAnLW9tYWUnLCAnPG91dGZpbGUubWFlPic=

> <r_lp_tautomer_probability>
1

> <r_epik_Ionization_Penalty>
0.00462916

> <r_epik_Ionization_Penalty_Charging>
0

> <r_epik_Ionization_Penalty_Neutral>
0.00462916

> <r_epik_State_Penalty>
0.00334737

> <r_epik_Charging_Adjusted_Penalty>
0.00334737

> <i_epik_Tot_Q>
0

> <i_epik_Tot_abs_Q>
0

> <r_epik_Metal_State_Penalty>
-0

> <b_epik_Metal_Only>
0

> <s_lp_Force_Field>
OPLS_2005

> <r_lp_Energy>
20.2877

> <b_lp_Chiralities_Consistent>
1

> <s_lp_Variant>
AV-unprocessed.smi:1932-1

> <Gold.Version>
5.8.1

> <Gold.Id.Protein>
6NUR|6NUR_protein|mol2

> <Gold.PLP.Fitness>
35.9381

> <Gold.PLP.PLP>
-28.3126

> <Gold.PLP.part.hbond>
-1.9743

> <Gold.PLP.part.metal>
0.0000

> <Gold.PLP.part.buried>
-3.7738

> <Gold.PLP.part.nonpolar>
-23.6622

> <Gold.PLP.part.repulsive>
0.3353

> <Gold.PLP.ligand.clash>
0.0000

> <Gold.PLP.ligand.torsion>
0.6909

> <Gold.PLP.Chemscore.Hbond>
1.9440

> <Gold.PLP.Chemscore.CHOScore>
0.9932

> <Gold.PLP.Chemscore.Metal>
0.0000

> <Gold.Chemscore.Hbonds>
donor molecule, donor type, donor heavy atom, donor atom, acceptor molecule, acceptor atom, score
      L1  H     9    31       P1  7948  0.86
      P1  H  7997  8009       L1    20  1.00
      L1  C    14    36       P1  8028  1.00

> <Gold.PLP.Chemscore.Internal.Correction>
0.1957

> <Gold.Rescore>
     Score         DG    S(hbond)    S(metal)    S(lipo)     H(rot)  DE(clash)    DE(int)     intcor
     12.29     -13.95       1.72        0.00      66.86       2.00       0.18       1.47       ----

> <Gold.Chemscore.Fitness>
12.2924

> <Gold.Chemscore.DG>
-13.9472

> <Gold.Chemscore.ZeroCoef>
-5.4800

> <Gold.Chemscore.Hbond>
1.7225

> <Gold.Chemscore.Metal>
0.0000

> <Gold.Chemscore.Lipo>
66.8627

> <Gold.Chemscore.Internal_Hbond>
0.0000

> <Gold.Chemscore.DEClash>
0.1835

> <Gold.Chemscore.DEInternal>
1.4714

> <Gold.Chemscore.Rot>
1.9956

> <Gold.Chemscore.Internal.Correction>
   9.000000E+99

> <Gold.Chemscore.Hbonds>
donor molecule, donor type, donor heavy atom, donor atom, acceptor molecule, acceptor atom, score
      L1  H     9    31       P1  7948  0.85
      P1  H  7997  8009       L1    20  0.94

> <Gold.Chemscore.Hbond.Weighted>
-5.7530

> <Gold.Chemscore.Metal.Weighted>
-0.0000

> <Gold.Chemscore.Lipo.Weighted>
-7.8229

> <Gold.Chemscore.Internal_Hbond.Weighted>
0.0000

> <Gold.Chemscore.DEClash.Weighted>
0.1835

> <Gold.Chemscore.DEInternal.Weighted>
1.4714

> <Gold.Chemscore.Rot.Weighted>
5.1087

> <Gold.Chemscore.Internal.Correction.Weighted>
   9.000000E+99

> <Gold.Protein.RotatedTorsions>
[ 6907 6896 6895 6894 ] final  117.64 input  -60.11 | X-H torsion
[ 7974 7965 7964 7962 ] final  -49.69 input  175.53 | X-H torsion
[ 8008 7997 7996 7995 ] final -163.35 input   59.86 | X-H torsion
[ 10167 10162 10161 10158 ] final -138.48 input  -65.29 | X-H torsion
[ 10718 10713 10712 10709 ] final -169.90 input   66.30 | X-H torsion
[ 10763 10752 10751 10750 ] final  -50.50 input  -60.55 | X-H torsion
[ 11005 11000 10999 10996 ] final   32.98 input  -57.11 | X-H torsion

> <Gold.Protein.ActiveResidues>
 VAL166  LYS551  ARG553  GLY616  TRP617  ASP618  TYR619  PRO620  LYS621  CYS622 
 ASP623  PHE694  ASN695  SER759  ASP760  ASP761  ALA762  ILE779  LEU786  VAL792 
 PHE793  MET794  SER795  GLU796  ALA797  LYS798  CYS799  TRP800  GLU811  SER814 

> <Gold.Protein.RotatedAtoms>
  152.4598  133.7798  159.6843 H   0  0  0  0  0  0  0  0  0  0  0  0  # atno 6907 bound_to 6896
  150.8537  133.7738  159.3022 H   0  0  0  0  0  0  0  0  0  0  0  0  # atno 6908 bound_to 6896
  151.5325  135.1071  159.9958 H   0  0  0  0  0  0  0  0  0  0  0  0  # atno 6909 bound_to 6896
  145.9379  140.7690  142.9567 H   0  0  0  0  0  0  0  0  0  0  0  0  # atno 7974 bound_to 7965
  155.8200  140.0918  157.1854 H   0  0  0  0  0  0  0  0  0  0  0  0  # atno 8008 bound_to 7997
  154.3979  140.1438  156.3549 H   0  0  0  0  0  0  0  0  0  0  0  0  # atno 8009 bound_to 7997
  155.8276  140.3444  155.5555 H   0  0  0  0  0  0  0  0  0  0  0  0  # atno 8010 bound_to 7997
  139.8474  143.7242  152.2660 H   0  0  0  0  0  0  0  0  0  0  0  0  # atno 10167 bound_to 10162
  156.7182  130.9260  151.3095 H   0  0  0  0  0  0  0  0  0  0  0  0  # atno 10718 bound_to 10713
  154.1113  135.6548  153.4885 H   0  0  0  0  0  0  0  0  0  0  0  0  # atno 10763 bound_to 10752
  153.0255  135.5248  154.7189 H   0  0  0  0  0  0  0  0  0  0  0  0  # atno 10764 bound_to 10752
  154.6370  135.2983  155.0119 H   0  0  0  0  0  0  0  0  0  0  0  0  # atno 10765 bound_to 10752
  140.2679  134.3116  155.7837 H   0  0  0  0  0  0  0  0  0  0  0  0  # atno 11005 bound_to 11000
  144.6774  140.2232  143.7364 LP  0  0  0  0  0  0  0  0  0  0  0  0  # atno 17320 bound_to 7965
  145.8339  139.2099  143.1866 LP  0  0  0  0  0  0  0  0  0  0  0  0  # atno 17321 bound_to 7965
  139.7499  144.7537  151.0523 LP  0  0  0  0  0  0  0  0  0  0  0  0  # atno 17342 bound_to 10162
  140.7791  143.4873  150.9939 LP  0  0  0  0  0  0  0  0  0  0  0  0  # atno 17343 bound_to 10162
  157.6908  130.9232  150.0510 LP  0  0  0  0  0  0  0  0  0  0  0  0  # atno 17370 bound_to 10713
  156.1613  130.3644  149.9296 LP  0  0  0  0  0  0  0  0  0  0  0  0  # atno 17371 bound_to 10713
  141.2181  133.7449  156.9289 LP  0  0  0  0  0  0  0  0  0  0  0  0  # atno 17394 bound_to 11000
  140.1401  134.9299  157.2456 LP  0  0  0  0  0  0  0  0  0  0  0  0  # atno 17395 bound_to 11000

$$$$
