AV-unprocessed.smi:1964|AV-procd|sdf|7928|dock7
  -GOLD-   2272010 93D 1   1.00000     0.00000
 Structure written by MMmdl.
 46 48  0  0  0  0  0  0  0  0  1 V2000
  151.6002  145.2543  159.9931 C   0  0  0  0  0  0  0  0  0  0  0  0
  151.9047  143.7935  160.3714 C   0  0  2  0  0  0  0  0  0  0  0  0
  152.5054  143.7166  161.7900 C   0  0  0  0  0  0  0  0  0  0  0  0
  152.8077  142.2690  162.2062 C   0  0  0  0  0  0  0  0  0  0  0  0
  153.7369  141.5870  161.1929 C   0  0  0  0  0  0  0  0  0  0  0  0
  153.1455  141.6440  159.7771 C   0  0  0  0  0  0  0  0  0  0  0  0
  152.8336  143.0937  159.3477 C   0  0  1  0  0  0  0  0  0  0  0  0
  152.2227  143.0986  158.0201 N   0  0  0  0  0  0  0  0  0  0  0  0
  151.1635  142.3647  157.6472 C   0  0  0  0  0  0  0  0  0  0  0  0
  150.5714  141.5991  158.4095 O   0  0  0  0  0  0  0  0  0  0  0  0
  150.7191  142.5324  156.1861 C   0  0  0  0  0  0  0  0  0  0  0  0
  150.3166  141.2638  155.5398 N   0  0  0  0  0  0  0  0  0  0  0  0
  151.2252  140.1748  155.5569 C   0  0  0  0  0  0  0  0  0  0  0  0
  152.3179  140.2682  156.1186 O   0  0  0  0  0  0  0  0  0  0  0  0
  150.7777  138.9714  154.8594 C   0  0  0  0  0  0  0  0  0  0  0  0
  151.6753  137.8646  154.8295 C   0  0  0  0  0  0  0  0  0  0  0  0
  152.4125  136.9724  154.8275 N   0  0  0  0  0  0  0  0  0  0  0  0
  149.5668  138.9212  154.2669 C   0  0  0  0  0  0  0  0  0  0  0  0
  148.6835  139.9784  154.2944 N   0  0  0  0  0  0  0  0  0  0  0  0
  147.4717  139.9624  153.5243 C   0  0  0  0  0  0  0  0  0  0  0  0
  146.3257  139.0526  153.9218 C   0  0  0  0  0  0  0  0  0  0  0  0
  147.1453  138.7407  152.6937 C   0  0  0  0  0  0  0  0  0  0  0  0
  149.0595  141.2017  154.8911 C   0  0  0  0  0  0  0  0  0  0  0  0
  148.3227  142.1900  154.8398 O   0  0  0  0  0  0  0  0  0  0  0  0
  152.5140  145.8463  159.9363 H   0  0  0  0  0  0  0  0  0  0  0  0
  150.9480  145.7206  160.7321 H   0  0  0  0  0  0  0  0  0  0  0  0
  151.0966  145.3265  159.0290 H   0  0  0  0  0  0  0  0  0  0  0  0
  150.9547  143.2566  160.3876 H   0  0  0  0  0  0  0  0  0  0  0  0
  153.4233  144.3047  161.8331 H   0  0  0  0  0  0  0  0  0  0  0  0
  151.8197  144.1645  162.5102 H   0  0  0  0  0  0  0  0  0  0  0  0
  153.2636  142.2546  163.1965 H   0  0  0  0  0  0  0  0  0  0  0  0
  151.8759  141.7076  162.2860 H   0  0  0  0  0  0  0  0  0  0  0  0
  154.7116  142.0765  161.2017 H   0  0  0  0  0  0  0  0  0  0  0  0
  153.9082  140.5500  161.4836 H   0  0  0  0  0  0  0  0  0  0  0  0
  153.8431  141.1844  159.0759 H   0  0  0  0  0  0  0  0  0  0  0  0
  152.2348  141.0443  159.7415 H   0  0  0  0  0  0  0  0  0  0  0  0
  153.7706  143.6531  159.3062 H   0  0  0  0  0  0  0  0  0  0  0  0
  152.6467  143.7002  157.3287 H   0  0  0  0  0  0  0  0  0  0  0  0
  149.9085  143.2620  156.1514 H   0  0  0  0  0  0  0  0  0  0  0  0
  151.5286  143.0117  155.6330 H   0  0  0  0  0  0  0  0  0  0  0  0
  149.2730  138.0163  153.7546 H   0  0  0  0  0  0  0  0  0  0  0  0
  147.1873  140.9188  153.0890 H   0  0  0  0  0  0  0  0  0  0  0  0
  146.4585  138.4021  154.7843 H   0  0  0  0  0  0  0  0  0  0  0  0
  145.3150  139.4264  153.7718 H   0  0  0  0  0  0  0  0  0  0  0  0
  146.6794  138.9036  151.7241 H   0  0  0  0  0  0  0  0  0  0  0  0
  147.8192  137.8879  152.7486 H   0  0  0  0  0  0  0  0  0  0  0  0
  1  2  1  0  0  0  0
  1 25  1  0  0  0  0
  1 26  1  0  0  0  0
  1 27  1  0  0  0  0
  2  7  1  0  0  0  0
  2  3  1  0  0  0  0
  2 28  1  0  0  0  0
  3  4  1  0  0  0  0
  3 29  1  0  0  0  0
  3 30  1  0  0  0  0
  4  5  1  0  0  0  0
  4 31  1  0  0  0  0
  4 32  1  0  0  0  0
  5  6  1  0  0  0  0
  5 33  1  0  0  0  0
  5 34  1  0  0  0  0
  6  7  1  0  0  0  0
  6 35  1  0  0  0  0
  6 36  1  0  0  0  0
  7  8  1  0  0  0  0
  7 37  1  0  0  0  0
  8  9  1  0  0  0  0
  8 38  1  0  0  0  0
  9 10  2  0  0  0  0
  9 11  1  0  0  0  0
 11 12  1  0  0  0  0
 11 39  1  0  0  0  0
 11 40  1  0  0  0  0
 12 23  1  0  0  0  0
 12 13  1  0  0  0  0
 13 14  2  0  0  0  0
 13 15  1  0  0  0  0
 15 16  1  0  0  0  0
 15 18  2  0  0  0  0
 16 17  3  0  0  0  0
 18 19  1  0  0  0  0
 18 41  1  0  0  0  0
 19 20  1  0  0  0  0
 19 23  1  0  0  0  0
 20 22  1  0  0  0  0
 20 21  1  0  0  0  0
 20 42  1  0  0  0  0
 21 22  1  0  0  0  0
 21 43  1  0  0  0  0
 21 44  1  0  0  0  0
 22 45  1  0  0  0  0
 22 46  1  0  0  0  0
 23 24  2  0  0  0  0
M  END
> <s_m_source_file>
AV-unprocessed.smi

> <i_m_source_file_index>
1964

> <i_lp_mmshare_version>
43012

> <i_f3d_flags>
0

> <s_epik_input>
W0NIM11bQ0BASF0xW0NIMl1bQ0gyXVtDSDJdW0NIMl1bQ0BIXTFbTkhdQyg9TylbQ0gyXW4yYyg9TyljKEMjTilbY0hdbihjMj1PKVtDSF0zW0NIMl1bQ0gyXTM=

> <s_epik_cmdline>
J2VwaWtfcHl0aG9uJywgJy1waCcsICc3LjAnLCAnLXRuJywgJzgnLCAnLW1hJywgJzIwMCcsICctbWV0YWxfYmluZGluZycsICctaW1hZScsICc8aW5maWxlLm1hZT4nLCAnLW9tYWUnLCAnPG91dGZpbGUubWFlPic=

> <r_lp_tautomer_probability>
1

> <r_epik_Ionization_Penalty>
1.91372e-08

> <r_epik_Ionization_Penalty_Charging>
9.0283e-11

> <r_epik_Ionization_Penalty_Neutral>
1.90469e-08

> <r_epik_State_Penalty>
-0

> <r_epik_Charging_Adjusted_Penalty>
9.0283e-11

> <i_epik_Tot_Q>
0

> <i_epik_Tot_abs_Q>
0

> <r_epik_Metal_State_Penalty>
-0

> <b_epik_Metal_Only>
0

> <s_lp_Force_Field>
OPLS_2005

> <r_lp_Energy>
35.656

> <b_lp_Chiralities_Consistent>
1

> <s_lp_Variant>
AV-unprocessed.smi:1964-1

> <Gold.Version>
5.8.1

> <Gold.Id.Protein>
6NUR|6NUR_protein|mol2

> <Gold.PLP.Fitness>
58.5465

> <Gold.PLP.PLP>
-52.2340

> <Gold.PLP.part.hbond>
-1.4208

> <Gold.PLP.part.metal>
0.0000

> <Gold.PLP.part.buried>
-1.8321

> <Gold.PLP.part.nonpolar>
-50.7455

> <Gold.PLP.part.repulsive>
2.8943

> <Gold.PLP.ligand.clash>
0.0000

> <Gold.PLP.ligand.torsion>
0.5252

> <Gold.PLP.Chemscore.Hbond>
1.6379

> <Gold.PLP.Chemscore.CHOScore>
0.7444

> <Gold.PLP.Chemscore.Metal>
0.0000

> <Gold.Chemscore.Hbonds>
donor molecule, donor type, donor heavy atom, donor atom, acceptor molecule, acceptor atom, score
      P1  H  7997  8010       L1    14  1.00
      P1  H 10752 10765       L1    17  0.65
      L1  C    18    41       P1  7948  0.84

> <Gold.PLP.Chemscore.Internal.Correction>
0.2160

> <Gold.Rescore>
     Score         DG    S(hbond)    S(metal)    S(lipo)     H(rot)  DE(clash)    DE(int)     intcor
     15.97     -20.64       1.69        0.00     118.48       1.70       1.78       2.89       ----

> <Gold.Chemscore.Fitness>
15.9701

> <Gold.Chemscore.DG>
-20.6369

> <Gold.Chemscore.ZeroCoef>
-5.4800

> <Gold.Chemscore.Hbond>
1.6935

> <Gold.Chemscore.Metal>
0.0000

> <Gold.Chemscore.Lipo>
118.4814

> <Gold.Chemscore.Internal_Hbond>
0.0000

> <Gold.Chemscore.DEClash>
1.7816

> <Gold.Chemscore.DEInternal>
2.8853

> <Gold.Chemscore.Rot>
1.7038

> <Gold.Chemscore.Internal.Correction>
   9.000000E+99

> <Gold.Chemscore.Hbonds>
donor molecule, donor type, donor heavy atom, donor atom, acceptor molecule, acceptor atom, score
      P1  H  7997  8010       L1    14  0.92
      P1  H 10752 10765       L1    17  0.62

> <Gold.Chemscore.Hbond.Weighted>
-5.6564

> <Gold.Chemscore.Metal.Weighted>
-0.0000

> <Gold.Chemscore.Lipo.Weighted>
-13.8623

> <Gold.Chemscore.Internal_Hbond.Weighted>
0.0000

> <Gold.Chemscore.DEClash.Weighted>
1.7816

> <Gold.Chemscore.DEInternal.Weighted>
2.8853

> <Gold.Chemscore.Rot.Weighted>
4.3618

> <Gold.Chemscore.Internal.Correction.Weighted>
   9.000000E+99

> <Gold.Protein.RotatedTorsions>
[ 6907 6896 6895 6894 ] final  122.19 input  -60.11 | X-H torsion
[ 7974 7965 7964 7962 ] final  -63.61 input  175.53 | X-H torsion
[ 8008 7997 7996 7995 ] final   80.60 input   59.86 | X-H torsion
[ 10167 10162 10161 10158 ] final   72.58 input  -65.29 | X-H torsion
[ 10718 10713 10712 10709 ] final  -28.04 input   66.30 | X-H torsion
[ 10763 10752 10751 10750 ] final  179.36 input  -60.55 | X-H torsion
[ 11005 11000 10999 10996 ] final  -27.33 input  -57.11 | X-H torsion

> <Gold.Protein.ActiveResidues>
 VAL166  LYS551  ARG553  GLY616  TRP617  ASP618  TYR619  PRO620  LYS621  CYS622 
 ASP623  PHE694  ASN695  SER759  ASP760  ASP761  ALA762  ILE779  LEU786  VAL792 
 PHE793  MET794  SER795  GLU796  ALA797  LYS798  CYS799  TRP800  GLU811  SER814 

> <Gold.Protein.RotatedAtoms>
  152.4263  133.7200  159.6527 H   0  0  0  0  0  0  0  0  0  0  0  0  # atno 6907 bound_to 6896
  150.8139  133.8360  159.3175 H   0  0  0  0  0  0  0  0  0  0  0  0  # atno 6908 bound_to 6896
  151.6062  135.1046  160.0123 H   0  0  0  0  0  0  0  0  0  0  0  0  # atno 6909 bound_to 6896
  145.7769  140.8783  143.0350 H   0  0  0  0  0  0  0  0  0  0  0  0  # atno 7974 bound_to 7965
  155.8857  140.3441  155.5919 H   0  0  0  0  0  0  0  0  0  0  0  0  # atno 8008 bound_to 7997
  155.7669  140.0840  157.2146 H   0  0  0  0  0  0  0  0  0  0  0  0  # atno 8009 bound_to 7997
  154.4028  140.1525  156.2884 H   0  0  0  0  0  0  0  0  0  0  0  0  # atno 8010 bound_to 7997
  140.0338  144.5444  150.7486 H   0  0  0  0  0  0  0  0  0  0  0  0  # atno 10167 bound_to 10162
  156.4304  130.4444  149.7121 H   0  0  0  0  0  0  0  0  0  0  0  0  # atno 10718 bound_to 10713
  154.5197  135.2793  155.1273 H   0  0  0  0  0  0  0  0  0  0  0  0  # atno 10763 bound_to 10752
  154.2836  135.6280  153.5360 H   0  0  0  0  0  0  0  0  0  0  0  0  # atno 10764 bound_to 10752
  152.9934  135.5657  154.5682 H   0  0  0  0  0  0  0  0  0  0  0  0  # atno 10765 bound_to 10752
  140.9110  133.7461  156.0670 H   0  0  0  0  0  0  0  0  0  0  0  0  # atno 11005 bound_to 11000
  144.6803  139.9934  143.7484 LP  0  0  0  0  0  0  0  0  0  0  0  0  # atno 17320 bound_to 7965
  146.0113  139.3172  143.0868 LP  0  0  0  0  0  0  0  0  0  0  0  0  # atno 17321 bound_to 7965
  140.7290  143.2668  151.4018 LP  0  0  0  0  0  0  0  0  0  0  0  0  # atno 17342 bound_to 10162
  139.6059  144.1199  152.2248 LP  0  0  0  0  0  0  0  0  0  0  0  0  # atno 17343 bound_to 10162
  156.4026  130.7682  151.2691 LP  0  0  0  0  0  0  0  0  0  0  0  0  # atno 17370 bound_to 10713
  157.7508  131.0235  150.3837 LP  0  0  0  0  0  0  0  0  0  0  0  0  # atno 17371 bound_to 10713
  140.8110  134.3399  157.5411 LP  0  0  0  0  0  0  0  0  0  0  0  0  # atno 17394 bound_to 11000
  139.8757  134.9254  156.3374 LP  0  0  0  0  0  0  0  0  0  0  0  0  # atno 17395 bound_to 11000

$$$$
