AV-unprocessed.smi:456|AV-procd|sdf|2616|dock4
  -GOLD-   2262023 13D 1   1.00000     0.00000
 Structure written by MMmdl.
 32 34  0  0  0  0  0  0  0  0  1 V2000
  150.5932  140.5942  158.3602 O   0  0  0  0  0  0  0  0  0  0  0  0
  150.6525  141.1353  157.0565 C   0  0  1  0  0  0  0  0  0  0  0  0
  151.6914  142.2743  157.0516 C   0  0  0  0  0  0  0  0  0  0  0  0
  151.5922  143.1136  158.2328 N   0  0  0  0  0  0  0  0  0  0  0  0
  150.9374  144.2858  158.3379 C   0  0  0  0  0  0  0  0  0  0  0  0
  150.9811  144.9052  159.5139 N   0  0  0  0  0  0  0  0  0  0  0  0
  151.7547  144.0334  160.2604 C   0  0  0  0  0  0  0  0  0  0  0  0
  152.1835  144.1104  161.6048 C   0  0  0  0  0  0  0  0  0  0  0  0
  152.9832  143.0898  162.1598 C   0  0  0  0  0  0  0  0  0  0  0  0
  153.3862  143.1799  163.4495 F   0  0  0  0  0  0  0  0  0  0  0  0
  153.3646  141.9776  161.3801 C   0  0  0  0  0  0  0  0  0  0  0  0
  154.1343  141.0029  161.9198 F   0  0  0  0  0  0  0  0  0  0  0  0
  152.9466  141.8775  160.0394 C   0  0  0  0  0  0  0  0  0  0  0  0
  152.1508  142.8994  159.4890 C   0  0  0  0  0  0  0  0  0  0  0  0
  150.9534  140.0750  156.0062 C   0  0  0  0  0  0  0  0  0  0  0  0
  152.1987  139.4100  156.0133 C   0  0  0  0  0  0  0  0  0  0  0  0
  152.4731  138.4057  155.0651 C   0  0  0  0  0  0  0  0  0  0  0  0
  151.5045  138.0607  154.1033 C   0  0  0  0  0  0  0  0  0  0  0  0
  150.2614  138.7216  154.0896 C   0  0  0  0  0  0  0  0  0  0  0  0
  149.9859  139.7255  155.0379 C   0  0  0  0  0  0  0  0  0  0  0  0
  151.4746  140.5214  158.6935 H   0  0  0  0  0  0  0  0  0  0  0  0
  149.6662  141.5560  156.8550 H   0  0  0  0  0  0  0  0  0  0  0  0
  152.7004  141.8604  157.0220 H   0  0  0  0  0  0  0  0  0  0  0  0
  151.5847  142.8964  156.1619 H   0  0  0  0  0  0  0  0  0  0  0  0
  150.4011  144.7101  157.5016 H   0  0  0  0  0  0  0  0  0  0  0  0
  151.8986  144.9574  162.2110 H   0  0  0  0  0  0  0  0  0  0  0  0
  153.2402  141.0284  159.4407 H   0  0  0  0  0  0  0  0  0  0  0  0
  152.9438  139.6599  156.7543 H   0  0  0  0  0  0  0  0  0  0  0  0
  153.4259  137.8972  155.0782 H   0  0  0  0  0  0  0  0  0  0  0  0
  151.7140  137.2886  153.3777 H   0  0  0  0  0  0  0  0  0  0  0  0
  149.5171  138.4558  153.3536 H   0  0  0  0  0  0  0  0  0  0  0  0
  149.0251  140.2193  155.0253 H   0  0  0  0  0  0  0  0  0  0  0  0
  1  2  1  0  0  0  0
  1 21  1  0  0  0  0
  2  3  1  0  0  0  0
  2 15  1  0  0  0  0
  2 22  1  0  0  0  0
  3  4  1  0  0  0  0
  3 23  1  0  0  0  0
  3 24  1  0  0  0  0
  4 14  1  0  0  0  0
  4  5  1  0  0  0  0
  5  6  2  0  0  0  0
  5 25  1  0  0  0  0
  6  7  1  0  0  0  0
  7 14  2  0  0  0  0
  7  8  1  0  0  0  0
  8  9  2  0  0  0  0
  8 26  1  0  0  0  0
  9 10  1  0  0  0  0
  9 11  1  0  0  0  0
 11 12  1  0  0  0  0
 11 13  2  0  0  0  0
 13 14  1  0  0  0  0
 13 27  1  0  0  0  0
 15 20  1  0  0  0  0
 15 16  2  0  0  0  0
 16 17  1  0  0  0  0
 16 28  1  0  0  0  0
 17 18  2  0  0  0  0
 17 29  1  0  0  0  0
 18 19  1  0  0  0  0
 18 30  1  0  0  0  0
 19 20  2  0  0  0  0
 19 31  1  0  0  0  0
 20 32  1  0  0  0  0
M  END
> <s_m_source_file>
AV-unprocessed.smi

> <i_m_source_file_index>
456

> <i_lp_mmshare_version>
43012

> <i_f3d_flags>
0

> <s_epik_input>
W2NIXTFbY0hdW2NIXVtjSF1bY0hdYzFbQ0BIXShbT0hdKVtDSDJdbihbY0hdbjIpYyhjMjMpW2NIXWMoRiljKEYpW2NIXTM=

> <s_epik_cmdline>
J2VwaWtfcHl0aG9uJywgJy1waCcsICc3LjAnLCAnLXRuJywgJzgnLCAnLW1hJywgJzIwMCcsICctbWV0YWxfYmluZGluZycsICctaW1hZScsICc8aW5maWxlLm1hZT4nLCAnLW9tYWUnLCAnPG91dGZpbGUubWFlPic=

> <r_epik_Ionization_Penalty>
0.0156354

> <r_epik_Ionization_Penalty_Charging>
0

> <r_epik_Ionization_Penalty_Neutral>
0.0156354

> <r_epik_State_Penalty>
0.0122974

> <r_epik_Charging_Adjusted_Penalty>
0.0122974

> <i_epik_Tot_Q>
0

> <i_epik_Tot_abs_Q>
0

> <r_epik_Metal_State_Penalty>
1.24258e-05

> <b_epik_Metal_Only>
0

> <s_lp_Force_Field>
OPLS_2005

> <r_lp_Energy>
11.2187

> <b_lp_Chiralities_Consistent>
1

> <s_lp_Variant>
AV-unprocessed.smi:456-2

> <Gold.Version>
5.8.1

> <Gold.Id.Protein>
6NUR|6NUR_protein|mol2

> <Gold.PLP.Fitness>
55.4746

> <Gold.PLP.PLP>
-53.3873

> <Gold.PLP.part.hbond>
0.0000

> <Gold.PLP.part.metal>
0.0000

> <Gold.PLP.part.buried>
-6.7501

> <Gold.PLP.part.nonpolar>
-46.1448

> <Gold.PLP.part.repulsive>
0.1325

> <Gold.PLP.ligand.clash>
0.0000

> <Gold.PLP.ligand.torsion>
0.5024

> <Gold.PLP.Chemscore.Hbond>
0.0000

> <Gold.PLP.Chemscore.CHOScore>
1.0250

> <Gold.PLP.Chemscore.Metal>
0.0000

> <Gold.Chemscore.Hbonds>
donor molecule, donor type, donor heavy atom, donor atom, acceptor molecule, acceptor atom, score
      L1  C     5    25       P1  8028  1.00
      L1  C     5    25       P1  8029  0.02

> <Gold.PLP.Chemscore.Internal.Correction>
0.0170

> <Gold.Rescore>
     Score         DG    S(hbond)    S(metal)    S(lipo)     H(rot)  DE(clash)    DE(int)     intcor
     12.78     -15.51       0.00        0.00     128.96       1.98       1.20       1.52       ----

> <Gold.Chemscore.Fitness>
12.7829

> <Gold.Chemscore.DG>
-15.5056

> <Gold.Chemscore.ZeroCoef>
-5.4800

> <Gold.Chemscore.Hbond>
0.0000

> <Gold.Chemscore.Metal>
0.0000

> <Gold.Chemscore.Lipo>
128.9589

> <Gold.Chemscore.Internal_Hbond>
0.0000

> <Gold.Chemscore.DEClash>
1.2036

> <Gold.Chemscore.DEInternal>
1.5191

> <Gold.Chemscore.Rot>
1.9776

> <Gold.Chemscore.Internal.Correction>
   9.000000E+99

> <Gold.Chemscore.Hbond.Weighted>
-0.0000

> <Gold.Chemscore.Metal.Weighted>
-0.0000

> <Gold.Chemscore.Lipo.Weighted>
-15.0882

> <Gold.Chemscore.Internal_Hbond.Weighted>
0.0000

> <Gold.Chemscore.DEClash.Weighted>
1.2036

> <Gold.Chemscore.DEInternal.Weighted>
1.5191

> <Gold.Chemscore.Rot.Weighted>
5.0626

> <Gold.Chemscore.Internal.Correction.Weighted>
   9.000000E+99

> <Gold.Protein.RotatedTorsions>
[ 6907 6896 6895 6894 ] final   12.85 input  -60.11 | X-H torsion
[ 7974 7965 7964 7962 ] final   83.25 input  175.53 | X-H torsion
[ 8008 7997 7996 7995 ] final  -33.71 input   59.86 | X-H torsion
[ 10167 10162 10161 10158 ] final  131.22 input  -65.29 | X-H torsion
[ 10718 10713 10712 10709 ] final   15.39 input   66.30 | X-H torsion
[ 10763 10752 10751 10750 ] final  -96.21 input  -60.55 | X-H torsion
[ 11005 11000 10999 10996 ] final   34.54 input  -57.11 | X-H torsion

> <Gold.Protein.ActiveResidues>
 VAL166  LYS551  ARG553  GLY616  TRP617  ASP618  TYR619  PRO620  LYS621  CYS622 
 ASP623  PHE694  ASN695  SER759  ASP760  ASP761  ALA762  ILE779  LEU786  VAL792 
 PHE793  MET794  SER795  GLU796  ALA797  LYS798  CYS799  TRP800  GLU811  SER814 

> <Gold.Protein.RotatedAtoms>
  151.7769  135.0772  160.0367 H   0  0  0  0  0  0  0  0  0  0  0  0  # atno 6907 bound_to 6896
  152.3250  133.5890  159.5778 H   0  0  0  0  0  0  0  0  0  0  0  0  # atno 6908 bound_to 6896
  150.7390  133.9871  159.3637 H   0  0  0  0  0  0  0  0  0  0  0  0  # atno 6909 bound_to 6896
  145.6143  139.2374  143.2174 H   0  0  0  0  0  0  0  0  0  0  0  0  # atno 7974 bound_to 7965
  154.4141  140.1703  156.1931 H   0  0  0  0  0  0  0  0  0  0  0  0  # atno 8008 bound_to 7997
  155.9586  140.3395  155.6447 H   0  0  0  0  0  0  0  0  0  0  0  0  # atno 8009 bound_to 7997
  155.6777  140.0719  157.2487 H   0  0  0  0  0  0  0  0  0  0  0  0  # atno 8010 bound_to 7997
  139.5394  144.6715  151.4676 H   0  0  0  0  0  0  0  0  0  0  0  0  # atno 10167 bound_to 10162
  157.0528  130.6277  149.5771 H   0  0  0  0  0  0  0  0  0  0  0  0  # atno 10718 bound_to 10713
  154.7218  135.5092  153.8824 H   0  0  0  0  0  0  0  0  0  0  0  0  # atno 10763 bound_to 10752
  153.0869  135.6648  153.9939 H   0  0  0  0  0  0  0  0  0  0  0  0  # atno 10764 bound_to 10752
  153.9760  135.3033  155.3403 H   0  0  0  0  0  0  0  0  0  0  0  0  # atno 10765 bound_to 10752
  140.2518  134.3294  155.7887 H   0  0  0  0  0  0  0  0  0  0  0  0  # atno 11005 bound_to 11000
  146.1480  140.6965  142.9335 LP  0  0  0  0  0  0  0  0  0  0  0  0  # atno 17320 bound_to 7965
  144.7257  140.4516  143.6975 LP  0  0  0  0  0  0  0  0  0  0  0  0  # atno 17321 bound_to 7965
  140.6616  143.8485  150.6895 LP  0  0  0  0  0  0  0  0  0  0  0  0  # atno 17342 bound_to 10162
  140.1882  143.4058  152.1883 LP  0  0  0  0  0  0  0  0  0  0  0  0  # atno 17343 bound_to 10162
  156.0002  130.5080  150.7635 LP  0  0  0  0  0  0  0  0  0  0  0  0  # atno 17370 bound_to 10713
  157.5017  131.0919  151.0307 LP  0  0  0  0  0  0  0  0  0  0  0  0  # atno 17371 bound_to 10713
  141.2200  133.7358  156.9049 LP  0  0  0  0  0  0  0  0  0  0  0  0  # atno 17394 bound_to 11000
  140.1550  134.9204  157.2642 LP  0  0  0  0  0  0  0  0  0  0  0  0  # atno 17395 bound_to 11000

$$$$
