AV-unprocessed.smi:34|AV-procd|sdf|237|dock10
  -GOLD-   2262015583D 1   1.00000     0.00000
 Structure written by MMmdl.
 54 58  0  0  0  0  0  0  0  0  2 V2000
  152.8021  140.1149  157.9209 O   0  0  0  0  0  0  0  0  0  0  0  0
  152.0603  141.0255  157.5457 C   0  0  0  0  0  0  0  0  0  0  0  0
  151.1705  141.0069  156.5212 N   0  5  0  0  0  0  0  0  0  0  0  0
  150.6641  139.8398  156.0956 C   0  0  0  0  0  0  0  0  0  0  0  0
  150.2541  139.6977  154.8093 N   0  0  0  0  0  0  0  0  0  0  0  0
  149.7579  138.5304  154.3831 C   0  0  0  0  0  0  0  0  0  0  0  0
  149.5900  137.3913  155.0615 N   0  0  0  0  0  0  0  0  0  0  0  0
  150.0057  137.5189  156.3550 C   0  0  0  0  0  0  0  0  0  0  0  0
  150.5513  138.6996  156.9375 C   0  0  0  0  0  0  0  0  0  0  0  0
  150.8753  138.4868  158.2695 N   0  0  0  0  0  0  0  0  0  0  0  0
  150.5198  137.2144  158.4325 C   0  0  0  0  0  0  0  0  0  0  0  0
  149.9996  136.5731  157.3673 N   0  0  0  0  0  0  0  0  0  0  0  0
  149.5384  135.1551  157.2967 C   0  0  2  0  0  0  0  0  0  0  0  0
  150.2211  134.5369  156.2516 O   0  0  0  0  0  0  0  0  0  0  0  0
  149.3580  133.5788  155.6628 C   0  0  2  0  0  0  0  0  0  0  0  0
  149.8536  133.1807  154.2669 C   0  0  0  0  0  0  0  0  0  0  0  0
  148.9396  132.2628  153.6891 O   0  0  0  0  0  0  0  0  0  0  0  0
  149.1174  130.9377  153.8554 C   0  0  0  0  0  0  0  0  0  0  0  0
  150.0600  130.4491  154.4821 O   0  0  0  0  0  0  0  0  0  0  0  0
  148.0557  130.1231  153.1965 C   0  0  0  0  0  0  0  0  0  0  0  0
  146.8537  130.7485  152.7910 C   0  0  0  0  0  0  0  0  0  0  0  0
  145.8324  130.0046  152.1687 C   0  0  0  0  0  0  0  0  0  0  0  0
  146.0007  128.6259  151.9439 C   0  0  0  0  0  0  0  0  0  0  0  0
  147.1921  127.9919  152.3420 C   0  0  0  0  0  0  0  0  0  0  0  0
  148.2145  128.7343  152.9648 C   0  0  0  0  0  0  0  0  0  0  0  0
  147.9882  134.2608  155.6991 C   0  0  2  0  0  0  0  0  0  0  0  0
  147.8348  135.0836  154.6604 F   0  0  0  0  0  0  0  0  0  0  0  0
  148.0312  135.0725  156.9889 C   0  0  1  0  0  0  0  0  0  0  0  0
  147.3235  134.3904  158.0044 O   0  0  0  0  0  0  0  0  0  0  0  0
  152.0513  142.3183  158.3171 C   0  0  0  0  0  0  0  0  0  0  0  0
  151.3473  143.4332  157.8076 C   0  0  0  0  0  0  0  0  0  0  0  0
  151.3054  144.6437  158.5267 C   0  0  0  0  0  0  0  0  0  0  0  0
  151.9596  144.7496  159.7684 C   0  0  0  0  0  0  0  0  0  0  0  0
  152.6518  143.6421  160.2928 C   0  0  0  0  0  0  0  0  0  0  0  0
  152.6939  142.4311  159.5745 C   0  0  0  0  0  0  0  0  0  0  0  0
  149.4520  138.5050  153.3479 H   0  0  0  0  0  0  0  0  0  0  0  0
  150.6450  136.7194  159.3842 H   0  0  0  0  0  0  0  0  0  0  0  0
  149.8172  134.7117  158.2542 H   0  0  0  0  0  0  0  0  0  0  0  0
  149.3449  132.7027  156.3140 H   0  0  0  0  0  0  0  0  0  0  0  0
  149.9632  134.0636  153.6354 H   0  0  0  0  0  0  0  0  0  0  0  0
  150.8348  132.7102  154.3406 H   0  0  0  0  0  0  0  0  0  0  0  0
  146.7012  131.8057  152.9551 H   0  0  0  0  0  0  0  0  0  0  0  0
  144.9184  130.4930  151.8640 H   0  0  0  0  0  0  0  0  0  0  0  0
  145.2172  128.0556  151.4671 H   0  0  0  0  0  0  0  0  0  0  0  0
  147.3230  126.9338  152.1693 H   0  0  0  0  0  0  0  0  0  0  0  0
  149.1165  128.2164  153.2568 H   0  0  0  0  0  0  0  0  0  0  0  0
  147.1631  133.5487  155.6544 H   0  0  0  0  0  0  0  0  0  0  0  0
  147.5967  136.0647  156.8562 H   0  0  0  0  0  0  0  0  0  0  0  0
  147.9040  134.2624  158.7394 H   0  0  0  0  0  0  0  0  0  0  0  0
  150.8383  143.3680  156.8567 H   0  0  0  0  0  0  0  0  0  0  0  0
  150.7694  145.4906  158.1249 H   0  0  0  0  0  0  0  0  0  0  0  0
  151.9270  145.6774  160.3200 H   0  0  0  0  0  0  0  0  0  0  0  0
  153.1483  143.7186  161.2488 H   0  0  0  0  0  0  0  0  0  0  0  0
  153.2209  141.5895  160.0005 H   0  0  0  0  0  0  0  0  0  0  0  0
  1  2  2  0  0  0  0
  2  3  1  0  0  0  0
  2 30  1  0  0  0  0
  3  4  1  0  0  0  0
  4  9  1  0  0  0  0
  4  5  2  0  0  0  0
  5  6  1  0  0  0  0
  6  7  2  0  0  0  0
  6 36  1  0  0  0  0
  7  8  1  0  0  0  0
  8 12  1  0  0  0  0
  8  9  2  0  0  0  0
  9 10  1  0  0  0  0
 10 11  2  0  0  0  0
 11 12  1  0  0  0  0
 11 37  1  0  0  0  0
 12 13  1  0  0  0  0
 13 28  1  0  0  0  0
 13 14  1  0  0  0  0
 13 38  1  0  0  0  0
 14 15  1  0  0  0  0
 15 16  1  0  0  0  0
 15 26  1  0  0  0  0
 15 39  1  0  0  0  0
 16 17  1  0  0  0  0
 16 40  1  0  0  0  0
 16 41  1  0  0  0  0
 17 18  1  0  0  0  0
 18 19  2  0  0  0  0
 18 20  1  0  0  0  0
 20 25  1  0  0  0  0
 20 21  2  0  0  0  0
 21 22  1  0  0  0  0
 21 42  1  0  0  0  0
 22 23  2  0  0  0  0
 22 43  1  0  0  0  0
 23 24  1  0  0  0  0
 23 44  1  0  0  0  0
 24 25  2  0  0  0  0
 24 45  1  0  0  0  0
 25 46  1  0  0  0  0
 26 27  1  0  0  0  0
 26 28  1  0  0  0  0
 26 47  1  0  0  0  0
 28 29  1  0  0  0  0
 28 48  1  0  0  0  0
 29 49  1  0  0  0  0
 30 35  1  0  0  0  0
 30 31  2  0  0  0  0
 31 32  1  0  0  0  0
 31 50  1  0  0  0  0
 32 33  2  0  0  0  0
 32 51  1  0  0  0  0
 33 34  1  0  0  0  0
 33 52  1  0  0  0  0
 34 35  2  0  0  0  0
 34 53  1  0  0  0  0
 35 54  1  0  0  0  0
M  CHG  1   3  -1
M  END
> <s_m_source_file>
AV-unprocessed.smi

> <i_m_source_file_index>
34

> <i_lp_mmshare_version>
43012

> <i_f3d_flags>
0

> <s_epik_input>
W2NIXTFbY0hdW2NIXVtjSF1bY0hdYzFDKD1PKVtOSF1jKG5bY0hdbjIpYyhjMjMpbltjSF1uM1tDQEBIXTRPW0NASF0oW0NAQEhdKEYpW0NASF00W09IXSlbQ0gyXU9DKD1PKWM1W2NIXVtjSF1bY0hdW2NIXVtjSF01

> <s_epik_cmdline>
J2VwaWtfcHl0aG9uJywgJy1waCcsICc3LjAnLCAnLXRuJywgJzgnLCAnLW1hJywgJzIwMCcsICctbWV0YWxfYmluZGluZycsICctaW1hZScsICc8aW5maWxlLm1hZT4nLCAnLW9tYWUnLCAnPG91dGZpbGUubWFlPic=

> <r_lp_tautomer_probability>
1

> <r_epik_Ionization_Penalty>
4.33227

> <r_epik_Ionization_Penalty_Charging>
3.41027

> <r_epik_Ionization_Penalty_Neutral>
0.922001

> <r_epik_State_Penalty>
3.41358

> <r_epik_Charging_Adjusted_Penalty>
6.82385

> <i_epik_Tot_Q>
-1

> <i_epik_Tot_abs_Q>
1

> <r_epik_Metal_State_Penalty>
0.496292

> <b_epik_Metal_Only>
1

> <s_epik_Chemistry_Notes>
This compound has an ester and may undergo hydrolysis at high or low pH. This compound contains an acetal/aminal-like group ( X-CH(R)-Y where X, Y are N, S, or O) that may be acid/base labile, releasing an aldehyde.

> <s_lp_Force_Field>
OPLS_2005

> <r_lp_Energy>
44.3344

> <b_lp_Chiralities_Consistent>
1

> <s_lp_Variant>
AV-unprocessed.smi:34-23

> <Gold.Version>
5.8.1

> <Gold.Id.Protein>
6NUR|6NUR_protein|mol2

> <Gold.PLP.Fitness>
60.8884

> <Gold.PLP.PLP>
-51.6105

> <Gold.PLP.part.hbond>
-2.0000

> <Gold.PLP.part.metal>
0.0000

> <Gold.PLP.part.buried>
-7.1294

> <Gold.PLP.part.nonpolar>
-41.6719

> <Gold.PLP.part.repulsive>
0.4318

> <Gold.PLP.ligand.clash>
0.0000

> <Gold.PLP.ligand.torsion>
0.6978

> <Gold.PLP.Chemscore.Hbond>
2.0000

> <Gold.PLP.Chemscore.CHOScore>
1.4692

> <Gold.PLP.Chemscore.Metal>
0.0000

> <Gold.Chemscore.Hbonds>
donor molecule, donor type, donor heavy atom, donor atom, acceptor molecule, acceptor atom, score
      P1  H  7989  7998       L1     5  0.49
      P1  H  7997  8008       L1     1  1.00
      L1  C     6    36       P1  7948  0.47
      L1  C     6    36       P1  7957  0.66

> <Gold.PLP.Chemscore.Internal.Correction>
0.2661

> <Gold.Rescore>
     Score         DG    S(hbond)    S(metal)    S(lipo)     H(rot)  DE(clash)    DE(int)     intcor
     12.12     -18.83       1.47        0.00     131.08       2.69       0.63       6.08       ----

> <Gold.Chemscore.Fitness>
12.1164

> <Gold.Chemscore.DG>
-18.8263

> <Gold.Chemscore.ZeroCoef>
-5.4800

> <Gold.Chemscore.Hbond>
1.4692

> <Gold.Chemscore.Metal>
0.0000

> <Gold.Chemscore.Lipo>
131.0821

> <Gold.Chemscore.Internal_Hbond>
0.0000

> <Gold.Chemscore.DEClash>
0.6315

> <Gold.Chemscore.DEInternal>
6.0784

> <Gold.Chemscore.Rot>
2.6944

> <Gold.Chemscore.Internal.Correction>
   9.000000E+99

> <Gold.Chemscore.Hbonds>
donor molecule, donor type, donor heavy atom, donor atom, acceptor molecule, acceptor atom, score
      P1  H  7989  7998       L1     5  0.34
      P1  H  7997  8008       L1     1  0.80

> <Gold.Chemscore.Hbond.Weighted>
-4.9072

> <Gold.Chemscore.Metal.Weighted>
-0.0000

> <Gold.Chemscore.Lipo.Weighted>
-15.3366

> <Gold.Chemscore.Internal_Hbond.Weighted>
0.0000

> <Gold.Chemscore.DEClash.Weighted>
0.6315

> <Gold.Chemscore.DEInternal.Weighted>
6.0784

> <Gold.Chemscore.Rot.Weighted>
6.8975

> <Gold.Chemscore.Internal.Correction.Weighted>
   9.000000E+99

> <Gold.Protein.RotatedTorsions>
[ 6907 6896 6895 6894 ] final  177.19 input  -60.11 | X-H torsion
[ 7974 7965 7964 7962 ] final  143.82 input  175.53 | X-H torsion
[ 8008 7997 7996 7995 ] final  -78.47 input   59.86 | X-H torsion
[ 10167 10162 10161 10158 ] final    3.42 input  -65.29 | X-H torsion
[ 10718 10713 10712 10709 ] final -105.41 input   66.30 | X-H torsion
[ 10763 10752 10751 10750 ] final  -56.39 input  -60.55 | X-H torsion
[ 11005 11000 10999 10996 ] final  -98.76 input  -57.11 | X-H torsion

> <Gold.Protein.ActiveResidues>
 VAL166  LYS551  ARG553  GLY616  TRP617  ASP618  TYR619  PRO620  LYS621  CYS622 
 ASP623  PHE694  ASN695  SER759  ASP760  ASP761  ALA762  ILE779  LEU786  VAL792 
 PHE793  MET794  SER795  GLU796  ALA797  LYS798  CYS799  TRP800  GLU811  SER814 

> <Gold.Protein.RotatedAtoms>
  151.7079  133.3312  159.3283 H   0  0  0  0  0  0  0  0  0  0  0  0  # atno 6907 bound_to 6896
  150.7707  134.6558  159.6322 H   0  0  0  0  0  0  0  0  0  0  0  0  # atno 6908 bound_to 6896
  152.3729  134.6709  160.0221 H   0  0  0  0  0  0  0  0  0  0  0  0  # atno 6909 bound_to 6896
  144.8888  139.5589  143.5808 H   0  0  0  0  0  0  0  0  0  0  0  0  # atno 7974 bound_to 7965
  154.5693  140.0693  156.8939 H   0  0  0  0  0  0  0  0  0  0  0  0  # atno 8008 bound_to 7997
  155.2665  140.3362  155.4250 H   0  0  0  0  0  0  0  0  0  0  0  0  # atno 8009 bound_to 7997
  156.2105  140.1757  156.7690 H   0  0  0  0  0  0  0  0  0  0  0  0  # atno 8010 bound_to 7997
  140.6587  143.7361  150.7699 H   0  0  0  0  0  0  0  0  0  0  0  0  # atno 10167 bound_to 10162
  156.0345  130.5562  150.7535 H   0  0  0  0  0  0  0  0  0  0  0  0  # atno 10718 bound_to 10713
  154.2058  135.6403  153.5100 H   0  0  0  0  0  0  0  0  0  0  0  0  # atno 10763 bound_to 10752
  153.0001  135.5462  154.6267 H   0  0  0  0  0  0  0  0  0  0  0  0  # atno 10764 bound_to 10752
  154.5691  135.2915  155.0818 H   0  0  0  0  0  0  0  0  0  0  0  0  # atno 10765 bound_to 10752
  141.1333  133.8270  157.0882 H   0  0  0  0  0  0  0  0  0  0  0  0  # atno 11005 bound_to 11000
  146.3041  139.7522  142.9069 LP  0  0  0  0  0  0  0  0  0  0  0  0  # atno 17320 bound_to 7965
  145.3820  141.0360  143.3172 LP  0  0  0  0  0  0  0  0  0  0  0  0  # atno 17321 bound_to 7965
  140.1026  143.4774  152.2416 LP  0  0  0  0  0  0  0  0  0  0  0  0  # atno 17342 bound_to 10162
  139.5815  144.7512  151.3628 LP  0  0  0  0  0  0  0  0  0  0  0  0  # atno 17343 bound_to 10162
  157.5073  131.0923  151.0241 LP  0  0  0  0  0  0  0  0  0  0  0  0  # atno 17370 bound_to 10713
  157.0606  130.5824  149.5385 LP  0  0  0  0  0  0  0  0  0  0  0  0  # atno 17371 bound_to 10713
  140.0409  134.9855  157.0959 LP  0  0  0  0  0  0  0  0  0  0  0  0  # atno 17394 bound_to 11000
  140.4137  134.1954  155.7163 LP  0  0  0  0  0  0  0  0  0  0  0  0  # atno 17395 bound_to 11000

$$$$
