AV-unprocessed.smi:2332|AV-procd|sdf|9318|dock4
  -GOLD-   2272012543D 1   1.00000     0.00000
 Structure written by MMmdl.
 32 33  0  0  0  0  0  0  0  0  1 V2000
  146.6174  142.2064  155.2042 C   0  0  0  0  0  0  0  0  0  0  0  0
  147.7084  141.3096  155.5529 N   0  0  0  0  0  0  0  0  0  0  0  0
  148.6881  140.9449  154.7118 C   0  0  0  0  0  0  0  0  0  0  0  0
  148.7557  141.3530  153.5518 O   0  0  0  0  0  0  0  0  0  0  0  0
  149.7625  139.9947  155.2627 C   0  0  2  0  0  0  0  0  0  0  0  0
  150.5794  140.6412  156.4051 C   0  0  0  0  0  0  0  0  0  0  0  0
  151.6669  139.7615  156.8277 N   0  0  0  0  0  0  0  0  0  0  0  0
  152.3126  140.1268  158.0290 C   0  0  0  0  0  0  0  0  0  0  0  0
  151.8140  141.1992  158.8075 C   0  0  0  0  0  0  0  0  0  0  0  0
  152.4761  141.5500  160.0001 C   0  0  0  0  0  0  0  0  0  0  0  0
  153.6165  140.8193  160.3838 C   0  0  0  0  0  0  0  0  0  0  0  0
  154.3341  141.1425  161.6048 C   0  0  0  0  0  0  0  0  0  0  0  0
  154.9059  141.4002  162.5771 N   0  0  0  0  0  0  0  0  0  0  0  0
  154.0408  139.7638  159.5536 C   0  0  0  0  0  0  0  0  0  0  0  0
  153.4083  139.4233  158.4101 N   0  0  0  0  0  0  0  0  0  0  0  0
  152.4976  139.2903  155.7220 C   0  0  0  0  0  0  0  0  0  0  0  0
  151.6205  138.6737  154.6220 C   0  0  0  0  0  0  0  0  0  0  0  0
  150.6469  139.6231  154.2042 O   0  0  0  0  0  0  0  0  0  0  0  0
  145.9342  142.3060  156.0475 H   0  0  0  0  0  0  0  0  0  0  0  0
  146.0544  141.8222  154.3527 H   0  0  0  0  0  0  0  0  0  0  0  0
  146.9964  143.1977  154.9528 H   0  0  0  0  0  0  0  0  0  0  0  0
  147.7197  140.9338  156.4903 H   0  0  0  0  0  0  0  0  0  0  0  0
  149.2521  139.1033  155.6316 H   0  0  0  0  0  0  0  0  0  0  0  0
  151.0070  141.5889  156.0743 H   0  0  0  0  0  0  0  0  0  0  0  0
  149.9131  140.8686  157.2362 H   0  0  0  0  0  0  0  0  0  0  0  0
  150.9288  141.7437  158.5140 H   0  0  0  0  0  0  0  0  0  0  0  0
  152.1074  142.3646  160.6068 H   0  0  0  0  0  0  0  0  0  0  0  0
  154.9089  139.1726  159.8080 H   0  0  0  0  0  0  0  0  0  0  0  0
  153.0711  140.1258  155.3180 H   0  0  0  0  0  0  0  0  0  0  0  0
  153.2102  138.5440  156.0762 H   0  0  0  0  0  0  0  0  0  0  0  0
  152.2338  138.3939  153.7654 H   0  0  0  0  0  0  0  0  0  0  0  0
  151.1320  137.7641  154.9752 H   0  0  0  0  0  0  0  0  0  0  0  0
  1  2  1  0  0  0  0
  1 19  1  0  0  0  0
  1 20  1  0  0  0  0
  1 21  1  0  0  0  0
  2  3  1  0  0  0  0
  2 22  1  0  0  0  0
  3  4  2  0  0  0  0
  3  5  1  0  0  0  0
  5 18  1  0  0  0  0
  5  6  1  0  0  0  0
  5 23  1  0  0  0  0
  6  7  1  0  0  0  0
  6 24  1  0  0  0  0
  6 25  1  0  0  0  0
  7  8  1  0  0  0  0
  7 16  1  0  0  0  0
  8 15  1  0  0  0  0
  8  9  2  0  0  0  0
  9 10  1  0  0  0  0
  9 26  1  0  0  0  0
 10 11  2  0  0  0  0
 10 27  1  0  0  0  0
 11 12  1  0  0  0  0
 11 14  1  0  0  0  0
 12 13  3  0  0  0  0
 14 15  2  0  0  0  0
 14 28  1  0  0  0  0
 16 17  1  0  0  0  0
 16 29  1  0  0  0  0
 16 30  1  0  0  0  0
 17 18  1  0  0  0  0
 17 31  1  0  0  0  0
 17 32  1  0  0  0  0
M  END
> <s_m_source_file>
AV-unprocessed.smi

> <i_m_source_file_index>
2332

> <i_lp_mmshare_version>
43012

> <i_f3d_flags>
0

> <s_epik_input>
W0NIM11bTkhdQyg9TylbQ0BASF0xW0NIMl1OKFtDSDJdW0NIMl1PMSljMltjSF1bY0hdYyhDI04pW2NIXW4y

> <s_epik_cmdline>
J2VwaWtfcHl0aG9uJywgJy1waCcsICc3LjAnLCAnLXRuJywgJzgnLCAnLW1hJywgJzIwMCcsICctbWV0YWxfYmluZGluZycsICctaW1hZScsICc8aW5maWxlLm1hZT4nLCAnLW9tYWUnLCAnPG91dGZpbGUubWFlPic=

> <r_lp_tautomer_probability>
1

> <r_epik_Ionization_Penalty>
6.95229e-08

> <r_epik_Ionization_Penalty_Charging>
0

> <r_epik_Ionization_Penalty_Neutral>
6.95229e-08

> <r_epik_State_Penalty>
-0

> <r_epik_Charging_Adjusted_Penalty>
0

> <i_epik_Tot_Q>
0

> <i_epik_Tot_abs_Q>
0

> <r_epik_Metal_State_Penalty>
-0

> <b_epik_Metal_Only>
0

> <s_lp_Force_Field>
OPLS_2005

> <r_lp_Energy>
17.7289

> <b_lp_Chiralities_Consistent>
1

> <s_lp_Variant>
AV-unprocessed.smi:2332-1

> <Gold.Version>
5.8.1

> <Gold.Id.Protein>
6NUR|6NUR_protein|mol2

> <Gold.PLP.Fitness>
40.0315

> <Gold.PLP.PLP>
-32.0719

> <Gold.PLP.part.hbond>
-4.0000

> <Gold.PLP.part.metal>
0.0000

> <Gold.PLP.part.buried>
-2.9867

> <Gold.PLP.part.nonpolar>
-26.2091

> <Gold.PLP.part.repulsive>
2.1681

> <Gold.PLP.ligand.clash>
0.0000

> <Gold.PLP.ligand.torsion>
0.4356

> <Gold.PLP.Chemscore.Hbond>
2.8320

> <Gold.PLP.Chemscore.CHOScore>
0.0000

> <Gold.PLP.Chemscore.Metal>
0.0000

> <Gold.Chemscore.Hbonds>
donor molecule, donor type, donor heavy atom, donor atom, acceptor molecule, acceptor atom, score
      P1  H  7989  7998       L1    18  1.00
      P1  H  7997  8008       L1    15  0.95
      P1  H  8011  8017       L1     4  0.85

> <Gold.PLP.Chemscore.Internal.Correction>
0.3348

> <Gold.Rescore>
     Score         DG    S(hbond)    S(metal)    S(lipo)     H(rot)  DE(clash)    DE(int)     intcor
     12.70     -14.79       1.65        0.00      62.10       1.35       1.63       0.45       ----

> <Gold.Chemscore.Fitness>
12.7041

> <Gold.Chemscore.DG>
-14.7871

> <Gold.Chemscore.ZeroCoef>
-5.4800

> <Gold.Chemscore.Hbond>
1.6456

> <Gold.Chemscore.Metal>
0.0000

> <Gold.Chemscore.Lipo>
62.1046

> <Gold.Chemscore.Internal_Hbond>
0.0000

> <Gold.Chemscore.DEClash>
1.6310

> <Gold.Chemscore.DEInternal>
0.4519

> <Gold.Chemscore.Rot>
1.3498

> <Gold.Chemscore.Internal.Correction>
   9.000000E+99

> <Gold.Chemscore.Hbonds>
donor molecule, donor type, donor heavy atom, donor atom, acceptor molecule, acceptor atom, score
      P1  H  7989  7998       L1    18  0.33
      P1  H  7997  8008       L1    15  0.07
      P1  H  8011  8017       L1     4  0.83

> <Gold.Chemscore.Hbond.Weighted>
-5.4964

> <Gold.Chemscore.Metal.Weighted>
-0.0000

> <Gold.Chemscore.Lipo.Weighted>
-7.2662

> <Gold.Chemscore.Internal_Hbond.Weighted>
0.0000

> <Gold.Chemscore.DEClash.Weighted>
1.6310

> <Gold.Chemscore.DEInternal.Weighted>
0.4519

> <Gold.Chemscore.Rot.Weighted>
3.4556

> <Gold.Chemscore.Internal.Correction.Weighted>
   9.000000E+99

> <Gold.Protein.RotatedTorsions>
[ 6907 6896 6895 6894 ] final  -99.14 input  -60.11 | X-H torsion
[ 7974 7965 7964 7962 ] final -171.83 input  175.53 | X-H torsion
[ 8008 7997 7996 7995 ] final  -89.16 input   59.86 | X-H torsion
[ 10167 10162 10161 10158 ] final    0.86 input  -65.29 | X-H torsion
[ 10718 10713 10712 10709 ] final  135.06 input   66.30 | X-H torsion
[ 10763 10752 10751 10750 ] final  -28.35 input  -60.55 | X-H torsion
[ 11005 11000 10999 10996 ] final  -54.37 input  -57.11 | X-H torsion

> <Gold.Protein.ActiveResidues>
 VAL166  LYS551  ARG553  GLY616  TRP617  ASP618  TYR619  PRO620  LYS621  CYS622 
 ASP623  PHE694  ASN695  SER759  ASP760  ASP761  ALA762  ILE779  LEU786  VAL792 
 PHE793  MET794  SER795  GLU796  ALA797  LYS798  CYS799  TRP800  GLU811  SER814 

> <Gold.Protein.RotatedAtoms>
  150.7070  134.1086  159.3991 H   0  0  0  0  0  0  0  0  0  0  0  0  # atno 6907 bound_to 6896
  151.9072  135.0351  160.0521 H   0  0  0  0  0  0  0  0  0  0  0  0  # atno 6908 bound_to 6896
  152.2365  133.5065  159.5282 H   0  0  0  0  0  0  0  0  0  0  0  0  # atno 6909 bound_to 6896
  144.7152  140.1863  143.6353 H   0  0  0  0  0  0  0  0  0  0  0  0  # atno 7974 bound_to 7965
  154.6833  140.0545  157.0288 H   0  0  0  0  0  0  0  0  0  0  0  0  # atno 8008 bound_to 7997
  155.0920  140.3220  155.4552 H   0  0  0  0  0  0  0  0  0  0  0  0  # atno 8009 bound_to 7997
  156.2702  140.2046  156.6047 H   0  0  0  0  0  0  0  0  0  0  0  0  # atno 8010 bound_to 7997
  140.6709  143.7050  150.7922 H   0  0  0  0  0  0  0  0  0  0  0  0  # atno 10167 bound_to 10162
  157.4610  131.1073  150.9920 H   0  0  0  0  0  0  0  0  0  0  0  0  # atno 10718 bound_to 10713
  153.7470  135.6928  153.4954 H   0  0  0  0  0  0  0  0  0  0  0  0  # atno 10763 bound_to 10752
  153.2030  135.4430  155.0287 H   0  0  0  0  0  0  0  0  0  0  0  0  # atno 10764 bound_to 10752
  154.8201  135.3417  154.6992 H   0  0  0  0  0  0  0  0  0  0  0  0  # atno 10765 bound_to 10752
  141.1022  133.6617  156.4311 H   0  0  0  0  0  0  0  0  0  0  0  0  # atno 11005 bound_to 11000
  145.8810  139.2323  143.1605 LP  0  0  0  0  0  0  0  0  0  0  0  0  # atno 17320 bound_to 7965
  145.9995  140.8533  143.0026 LP  0  0  0  0  0  0  0  0  0  0  0  0  # atno 17321 bound_to 7965
  140.0735  143.5038  152.2567 LP  0  0  0  0  0  0  0  0  0  0  0  0  # atno 17342 bound_to 10162
  139.5978  144.7572  151.3245 LP  0  0  0  0  0  0  0  0  0  0  0  0  # atno 17343 bound_to 10162
  157.0718  130.5867  149.5404 LP  0  0  0  0  0  0  0  0  0  0  0  0  # atno 17370 bound_to 10713
  156.0028  130.5110  150.7726 LP  0  0  0  0  0  0  0  0  0  0  0  0  # atno 17371 bound_to 10713
  140.4992  134.6501  157.5242 LP  0  0  0  0  0  0  0  0  0  0  0  0  # atno 17394 bound_to 11000
  139.9878  134.7033  155.9742 LP  0  0  0  0  0  0  0  0  0  0  0  0  # atno 17395 bound_to 11000

$$$$
