AV-unprocessed.smi:2877|AV-procd|sdf|11044|dock6
  -GOLD-   2272015513D 1   1.00000     0.00000
 Structure written by MMmdl.
 40 41  0  0  0  0  0  0  0  0  2 V2000
  151.6898  140.9142  158.5430 O   0  0  0  0  0  0  0  0  0  0  0  0
  151.2921  142.0051  158.1179 C   0  0  0  0  0  0  0  0  0  0  0  0
  150.0760  142.1008  157.1546 C   0  0  0  0  0  0  0  0  0  0  0  0
  150.1571  141.3614  155.7941 C   0  0  0  0  0  0  0  0  0  0  0  0
  148.9256  141.5749  155.0367 N   0  5  0  0  0  0  0  0  0  0  0  0
  147.6856  141.6700  155.5992 C   0  0  0  0  0  0  0  0  0  0  0  0
  147.3591  141.7274  156.7906 O   0  0  0  0  0  0  0  0  0  0  0  0
  146.5737  141.7116  154.5292 C   0  0  0  0  0  0  0  0  0  0  0  0
  145.3914  141.8685  155.1313 F   0  0  0  0  0  0  0  0  0  0  0  0
  146.7614  142.7752  153.7415 F   0  0  0  0  0  0  0  0  0  0  0  0
  146.5517  140.4249  153.7033 C   0  0  0  0  0  0  0  0  0  0  0  0
  146.2420  139.1807  154.2999 C   0  0  0  0  0  0  0  0  0  0  0  0
  146.2255  138.0280  153.4919 C   0  0  0  0  0  0  0  0  0  0  0  0
  146.5212  138.1554  152.1218 C   0  0  0  0  0  0  0  0  0  0  0  0
  146.8176  139.4371  151.6183 C   0  0  0  0  0  0  0  0  0  0  0  0
  146.8359  140.5488  152.3839 N   0  0  0  0  0  0  0  0  0  0  0  0
  151.9091  143.1596  158.4791 N   0  0  0  0  0  0  0  0  0  0  0  0
  151.4099  144.4846  158.0845 C   0  0  0  0  0  0  0  0  0  0  0  0
  150.8331  145.1866  159.3280 C   0  0  0  0  0  0  0  0  0  0  0  0
  151.8856  145.2759  160.4496 C   0  0  0  0  0  0  0  0  0  0  0  0
  152.5482  143.9113  160.7187 C   0  0  0  0  0  0  0  0  0  0  0  0
  153.0440  143.2752  159.4073 C   0  0  0  0  0  0  0  0  0  0  0  0
  149.2018  141.7337  157.6942 H   0  0  0  0  0  0  0  0  0  0  0  0
  149.8996  143.1571  156.9468 H   0  0  0  0  0  0  0  0  0  0  0  0
  151.0194  141.7342  155.2402 H   0  0  0  0  0  0  0  0  0  0  0  0
  150.3623  140.3041  155.9685 H   0  0  0  0  0  0  0  0  0  0  0  0
  146.0095  139.1104  155.3521 H   0  0  0  0  0  0  0  0  0  0  0  0
  145.9887  137.0634  153.9157 H   0  0  0  0  0  0  0  0  0  0  0  0
  146.5185  137.2928  151.4723 H   0  0  0  0  0  0  0  0  0  0  0  0
  147.0473  139.5729  150.5719 H   0  0  0  0  0  0  0  0  0  0  0  0
  152.2298  145.0717  157.6684 H   0  0  0  0  0  0  0  0  0  0  0  0
  150.6529  144.4411  157.3005 H   0  0  0  0  0  0  0  0  0  0  0  0
  150.4796  146.1845  159.0671 H   0  0  0  0  0  0  0  0  0  0  0  0
  149.9637  144.6335  159.6863 H   0  0  0  0  0  0  0  0  0  0  0  0
  152.6542  145.9930  160.1585 H   0  0  0  0  0  0  0  0  0  0  0  0
  151.4331  145.6628  161.3630 H   0  0  0  0  0  0  0  0  0  0  0  0
  153.3777  144.0308  161.4159 H   0  0  0  0  0  0  0  0  0  0  0  0
  151.8317  143.2434  161.1992 H   0  0  0  0  0  0  0  0  0  0  0  0
  153.5443  142.3314  159.6170 H   0  0  0  0  0  0  0  0  0  0  0  0
  153.8103  143.9074  158.9563 H   0  0  0  0  0  0  0  0  0  0  0  0
  1  2  2  0  0  0  0
  2  3  1  0  0  0  0
  2 17  1  0  0  0  0
  3  4  1  0  0  0  0
  3 23  1  0  0  0  0
  3 24  1  0  0  0  0
  4  5  1  0  0  0  0
  4 25  1  0  0  0  0
  4 26  1  0  0  0  0
  5  6  1  0  0  0  0
  6  7  2  0  0  0  0
  6  8  1  0  0  0  0
  8  9  1  0  0  0  0
  8 10  1  0  0  0  0
  8 11  1  0  0  0  0
 11 16  1  0  0  0  0
 11 12  2  0  0  0  0
 12 13  1  0  0  0  0
 12 27  1  0  0  0  0
 13 14  2  0  0  0  0
 13 28  1  0  0  0  0
 14 15  1  0  0  0  0
 14 29  1  0  0  0  0
 15 16  2  0  0  0  0
 15 30  1  0  0  0  0
 17 22  1  0  0  0  0
 17 18  1  0  0  0  0
 18 19  1  0  0  0  0
 18 31  1  0  0  0  0
 18 32  1  0  0  0  0
 19 20  1  0  0  0  0
 19 33  1  0  0  0  0
 19 34  1  0  0  0  0
 20 21  1  0  0  0  0
 20 35  1  0  0  0  0
 20 36  1  0  0  0  0
 21 22  1  0  0  0  0
 21 37  1  0  0  0  0
 21 38  1  0  0  0  0
 22 39  1  0  0  0  0
 22 40  1  0  0  0  0
M  CHG  1   5  -1
M  END
> <s_m_source_file>
AV-unprocessed.smi

> <i_m_source_file_index>
2877

> <i_lp_mmshare_version>
43012

> <i_f3d_flags>
0

> <s_epik_input>
W0NIMl0xW0NIMl1bQ0gyXVtDSDJdW0NIMl1OMUMoPU8pW0NIMl1bQ0gyXVtOSF1DKD1PKUMoRikoRiljMltjSF1bY0hdW2NIXVtjSF1uMg==

> <s_epik_cmdline>
J2VwaWtfcHl0aG9uJywgJy1waCcsICc3LjAnLCAnLXRuJywgJzgnLCAnLW1hJywgJzIwMCcsICctbWV0YWxfYmluZGluZycsICctaW1hZScsICc8aW5maWxlLm1hZT4nLCAnLW9tYWUnLCAnPG91dGZpbGUubWFlPic=

> <r_lp_tautomer_probability>
1

> <r_epik_Ionization_Penalty>
5.30743

> <r_epik_Ionization_Penalty_Charging>
5.30743

> <r_epik_Ionization_Penalty_Neutral>
2.29237e-06

> <r_epik_State_Penalty>
5.30735

> <r_epik_Charging_Adjusted_Penalty>
10.6148

> <i_epik_Tot_Q>
-1

> <i_epik_Tot_abs_Q>
1

> <r_epik_Metal_State_Penalty>
1.35027

> <b_epik_Metal_Only>
1

> <s_lp_Force_Field>
OPLS_2005

> <r_lp_Energy>
42.7236

> <b_lp_Chiralities_Consistent>
1

> <s_lp_Variant>
AV-unprocessed.smi:2877-2

> <Gold.Version>
5.8.1

> <Gold.Id.Protein>
6NUR|6NUR_protein|mol2

> <Gold.PLP.Fitness>
42.4929

> <Gold.PLP.PLP>
-42.3634

> <Gold.PLP.part.hbond>
0.0000

> <Gold.PLP.part.metal>
0.0000

> <Gold.PLP.part.buried>
-1.9274

> <Gold.PLP.part.nonpolar>
-41.6338

> <Gold.PLP.part.repulsive>
0.9845

> <Gold.PLP.ligand.clash>
0.0000

> <Gold.PLP.ligand.torsion>
0.2697

> <Gold.PLP.Chemscore.Hbond>
0.0000

> <Gold.PLP.Chemscore.CHOScore>
0.1978

> <Gold.PLP.Chemscore.Metal>
0.0000

> <Gold.Chemscore.Hbonds>
donor molecule, donor type, donor heavy atom, donor atom, acceptor molecule, acceptor atom, score
      L1  C    15    30       P1  7957  0.20

> <Gold.PLP.Chemscore.Internal.Correction>
0.0754

> <Gold.Rescore>
     Score         DG    S(hbond)    S(metal)    S(lipo)     H(rot)  DE(clash)    DE(int)     intcor
     10.87     -13.53       0.00        0.00     110.13       1.89       1.02       1.65       ----

> <Gold.Chemscore.Fitness>
10.8665

> <Gold.Chemscore.DG>
-13.5341

> <Gold.Chemscore.ZeroCoef>
-5.4800

> <Gold.Chemscore.Hbond>
0.0000

> <Gold.Chemscore.Metal>
0.0000

> <Gold.Chemscore.Lipo>
110.1288

> <Gold.Chemscore.Internal_Hbond>
0.0000

> <Gold.Chemscore.DEClash>
1.0186

> <Gold.Chemscore.DEInternal>
1.6491

> <Gold.Chemscore.Rot>
1.8871

> <Gold.Chemscore.Internal.Correction>
   9.000000E+99

> <Gold.Chemscore.Hbond.Weighted>
-0.0000

> <Gold.Chemscore.Metal.Weighted>
-0.0000

> <Gold.Chemscore.Lipo.Weighted>
-12.8851

> <Gold.Chemscore.Internal_Hbond.Weighted>
0.0000

> <Gold.Chemscore.DEClash.Weighted>
1.0186

> <Gold.Chemscore.DEInternal.Weighted>
1.6491

> <Gold.Chemscore.Rot.Weighted>
4.8309

> <Gold.Chemscore.Internal.Correction.Weighted>
   9.000000E+99

> <Gold.Protein.RotatedTorsions>
[ 6907 6896 6895 6894 ] final  -75.30 input  -60.11 | X-H torsion
[ 7974 7965 7964 7962 ] final  -24.45 input  175.53 | X-H torsion
[ 8008 7997 7996 7995 ] final  110.24 input   59.86 | X-H torsion
[ 10167 10162 10161 10158 ] final  -59.43 input  -65.29 | X-H torsion
[ 10718 10713 10712 10709 ] final -159.11 input   66.30 | X-H torsion
[ 10763 10752 10751 10750 ] final  128.93 input  -60.55 | X-H torsion
[ 11005 11000 10999 10996 ] final   31.92 input  -57.11 | X-H torsion

> <Gold.Protein.ActiveResidues>
 VAL166  LYS551  ARG553  GLY616  TRP617  ASP618  TYR619  PRO620  LYS621  CYS622 
 ASP623  PHE694  ASN695  SER759  ASP760  ASP761  ALA762  ILE779  LEU786  VAL792 
 PHE793  MET794  SER795  GLU796  ALA797  LYS798  CYS799  TRP800  GLU811  SER814 

> <Gold.Protein.RotatedAtoms>
  150.7063  134.4742  159.5439 H   0  0  0  0  0  0  0  0  0  0  0  0  # atno 6907 bound_to 6896
  152.2392  134.8243  160.0472 H   0  0  0  0  0  0  0  0  0  0  0  0  # atno 6908 bound_to 6896
  151.9031  133.3507  159.3874 H   0  0  0  0  0  0  0  0  0  0  0  0  # atno 6909 bound_to 6896
  146.1553  140.4754  142.8594 H   0  0  0  0  0  0  0  0  0  0  0  0  # atno 7974 bound_to 7965
  156.2039  140.3042  155.9584 H   0  0  0  0  0  0  0  0  0  0  0  0  # atno 8008 bound_to 7997
  155.2889  140.0441  157.3038 H   0  0  0  0  0  0  0  0  0  0  0  0  # atno 8009 bound_to 7997
  154.5607  140.2319  155.8349 H   0  0  0  0  0  0  0  0  0  0  0  0  # atno 8010 bound_to 7997
  140.6135  143.2395  151.5652 H   0  0  0  0  0  0  0  0  0  0  0  0  # atno 10167 bound_to 10162
  156.5636  130.8658  151.2817 H   0  0  0  0  0  0  0  0  0  0  0  0  # atno 10718 bound_to 10713
  153.7334  135.3235  155.3290 H   0  0  0  0  0  0  0  0  0  0  0  0  # atno 10763 bound_to 10752
  154.8318  135.4527  154.1098 H   0  0  0  0  0  0  0  0  0  0  0  0  # atno 10764 bound_to 10752
  153.2252  135.6953  153.8034 H   0  0  0  0  0  0  0  0  0  0  0  0  # atno 10765 bound_to 10752
  140.2788  134.2996  155.7806 H   0  0  0  0  0  0  0  0  0  0  0  0  # atno 11005 bound_to 11000
  144.7956  140.6116  143.6512 LP  0  0  0  0  0  0  0  0  0  0  0  0  # atno 17320 bound_to 7965
  145.4723  139.1502  143.3807 LP  0  0  0  0  0  0  0  0  0  0  0  0  # atno 17321 bound_to 7965
  139.5380  144.2726  152.1292 LP  0  0  0  0  0  0  0  0  0  0  0  0  # atno 17342 bound_to 10162
  140.1931  144.4732  150.6469 LP  0  0  0  0  0  0  0  0  0  0  0  0  # atno 17343 bound_to 10162
  157.7363  130.9777  150.2130 LP  0  0  0  0  0  0  0  0  0  0  0  0  # atno 17370 bound_to 10713
  156.2777  130.3729  149.7967 LP  0  0  0  0  0  0  0  0  0  0  0  0  # atno 17371 bound_to 10713
  141.2166  133.7512  156.9449 LP  0  0  0  0  0  0  0  0  0  0  0  0  # atno 17394 bound_to 11000
  140.1303  134.9360  157.2327 LP  0  0  0  0  0  0  0  0  0  0  0  0  # atno 17395 bound_to 11000

$$$$
