AV-unprocessed.smi:2892|AV-procd|sdf|11121|dock8
  -GOLD-   2272015593D 1   1.00000     0.00000
 Structure written by MMmdl.
 42 42  0  0  0  0  0  0  0  0  2 V2000
  144.1537  134.3444  162.6925 C   0  0  0  0  0  0  0  0  0  0  0  0
  145.2604  134.9430  161.8119 C   0  0  0  0  0  0  0  0  0  0  0  0
  146.6420  134.2508  161.9552 C   0  0  1  0  0  0  0  0  0  0  0  0
  146.5436  132.7644  161.5401 C   0  0  0  0  0  0  0  0  0  0  0  0
  147.7484  135.0095  161.1585 C   0  0  1  0  0  0  0  0  0  0  0  0
  147.5746  134.7573  159.7289 N   0  0  0  0  0  0  0  0  0  0  0  0
  148.4071  135.1397  158.7470 C   0  0  0  0  0  0  0  0  0  0  0  0
  149.4278  135.8009  158.9365 O   0  0  0  0  0  0  0  0  0  0  0  0
  148.0321  134.7021  157.3285 C   0  0  0  0  0  0  0  0  0  0  0  0
  149.0300  135.2295  156.3296 C   0  0  0  0  0  0  0  0  0  0  0  0
  149.7692  134.4964  155.3576 C   0  0  0  0  0  0  0  0  0  0  0  0
  150.5422  135.4423  154.7483 C   0  0  0  0  0  0  0  0  0  0  0  0
  150.2505  136.6548  155.3362 N   0  0  0  0  0  0  0  0  0  0  0  0
  150.8301  137.9579  155.0472 C   0  0  0  0  0  0  0  0  0  0  0  0
  149.7807  138.9049  154.4436 C   0  0  0  0  0  0  0  0  0  0  0  0
  152.0741  137.8319  154.1523 C   0  0  0  0  0  0  0  0  0  0  0  0
  149.3168  136.5233  156.3042 N   0  0  0  0  0  0  0  0  0  0  0  0
  147.6630  136.5310  161.3696 C   0  0  0  0  0  0  0  0  0  0  0  0
  148.0155  136.9708  162.4858 O   0  0  0  0  0  0  0  0  0  0  0  0
  147.2467  137.2282  160.4167 O   0  5  0  0  0  0  0  0  0  0  0  0
  143.2413  134.9353  162.6144 H   0  0  0  0  0  0  0  0  0  0  0  0
  144.4492  134.3309  163.7417 H   0  0  0  0  0  0  0  0  0  0  0  0
  143.9014  133.3268  162.3973 H   0  0  0  0  0  0  0  0  0  0  0  0
  144.9461  134.9268  160.7676 H   0  0  0  0  0  0  0  0  0  0  0  0
  145.3346  135.9966  162.0805 H   0  0  0  0  0  0  0  0  0  0  0  0
  146.9117  134.2779  163.0125 H   0  0  0  0  0  0  0  0  0  0  0  0
  146.2800  132.6671  160.4866 H   0  0  0  0  0  0  0  0  0  0  0  0
  145.7934  132.2297  162.1208 H   0  0  0  0  0  0  0  0  0  0  0  0
  147.4800  132.2294  161.6965 H   0  0  0  0  0  0  0  0  0  0  0  0
  148.7266  134.6610  161.4957 H   0  0  0  0  0  0  0  0  0  0  0  0
  146.7489  134.2382  159.4685 H   0  0  0  0  0  0  0  0  0  0  0  0
  147.9963  133.6128  157.2950 H   0  0  0  0  0  0  0  0  0  0  0  0
  147.0278  135.0549  157.0896 H   0  0  0  0  0  0  0  0  0  0  0  0
  149.7448  133.4368  155.1507 H   0  0  0  0  0  0  0  0  0  0  0  0
  151.2708  135.3523  153.9560 H   0  0  0  0  0  0  0  0  0  0  0  0
  151.1510  138.3834  155.9993 H   0  0  0  0  0  0  0  0  0  0  0  0
  150.1953  139.9010  154.2873 H   0  0  0  0  0  0  0  0  0  0  0  0
  148.9200  139.0061  155.1050 H   0  0  0  0  0  0  0  0  0  0  0  0
  149.4191  138.5418  153.4808 H   0  0  0  0  0  0  0  0  0  0  0  0
  152.5496  138.8022  154.0068 H   0  0  0  0  0  0  0  0  0  0  0  0
  151.8230  137.4371  153.1672 H   0  0  0  0  0  0  0  0  0  0  0  0
  152.8130  137.1671  154.6005 H   0  0  0  0  0  0  0  0  0  0  0  0
  1  2  1  0  0  0  0
  1 21  1  0  0  0  0
  1 22  1  0  0  0  0
  1 23  1  0  0  0  0
  2  3  1  0  0  0  0
  2 24  1  0  0  0  0
  2 25  1  0  0  0  0
  3  4  1  0  0  0  0
  3  5  1  0  0  0  0
  3 26  1  0  0  0  0
  4 27  1  0  0  0  0
  4 28  1  0  0  0  0
  4 29  1  0  0  0  0
  5  6  1  0  0  0  0
  5 18  1  0  0  0  0
  5 30  1  0  0  0  0
  6  7  1  0  0  0  0
  6 31  1  0  0  0  0
  7  8  2  0  0  0  0
  7  9  1  0  0  0  0
  9 10  1  0  0  0  0
  9 32  1  0  0  0  0
  9 33  1  0  0  0  0
 10 17  2  0  0  0  0
 10 11  1  0  0  0  0
 11 12  2  0  0  0  0
 11 34  1  0  0  0  0
 12 13  1  0  0  0  0
 12 35  1  0  0  0  0
 13 14  1  0  0  0  0
 13 17  1  0  0  0  0
 14 15  1  0  0  0  0
 14 16  1  0  0  0  0
 14 36  1  0  0  0  0
 15 37  1  0  0  0  0
 15 38  1  0  0  0  0
 15 39  1  0  0  0  0
 16 40  1  0  0  0  0
 16 41  1  0  0  0  0
 16 42  1  0  0  0  0
 18 19  2  0  0  0  0
 18 20  1  0  0  0  0
M  CHG  1  20  -1
M  END
> <s_m_source_file>
AV-unprocessed.smi

> <i_m_source_file_index>
2892

> <i_lp_mmshare_version>
43012

> <i_f3d_flags>
0

> <s_epik_input>
W0NIM11bQ0gyXVtDQEhdKFtDSDNdKVtDQEBIXShDKD1PKVtPSF0pW05IXUMoPU8pW0NIMl1jMVtjSF1bY0hdbihuMSlbQ0hdKFtDSDNdKVtDSDNd

> <s_epik_cmdline>
J2VwaWtfcHl0aG9uJywgJy1waCcsICc3LjAnLCAnLXRuJywgJzgnLCAnLW1hJywgJzIwMCcsICctbWV0YWxfYmluZGluZycsICctaW1hZScsICc8aW5maWxlLm1hZT4nLCAnLW9tYWUnLCAnPG91dGZpbGUubWFlPic=

> <r_lp_tautomer_probability>
1

> <r_epik_Ionization_Penalty>
0.000286846

> <r_epik_Ionization_Penalty_Charging>
0.000224481

> <r_epik_Ionization_Penalty_Neutral>
6.23655e-05

> <r_epik_State_Penalty>
-0

> <r_epik_Charging_Adjusted_Penalty>
0.000224481

> <i_epik_Tot_Q>
-1

> <i_epik_Tot_abs_Q>
1

> <r_epik_Metal_State_Penalty>
-0

> <b_epik_Metal_Only>
0

> <s_lp_Force_Field>
OPLS_2005

> <r_lp_Energy>
13.265

> <b_lp_Chiralities_Consistent>
1

> <s_lp_Variant>
AV-unprocessed.smi:2892-4

> <Gold.Version>
5.8.1

> <Gold.Id.Protein>
6NUR|6NUR_protein|mol2

> <Gold.PLP.Fitness>
49.2737

> <Gold.PLP.PLP>
-32.5151

> <Gold.PLP.part.hbond>
-3.0068

> <Gold.PLP.part.metal>
0.0000

> <Gold.PLP.part.buried>
-4.7472

> <Gold.PLP.part.nonpolar>
-24.6047

> <Gold.PLP.part.repulsive>
0.0816

> <Gold.PLP.ligand.clash>
0.0000

> <Gold.PLP.ligand.torsion>
0.6899

> <Gold.PLP.Chemscore.Hbond>
5.0000

> <Gold.PLP.Chemscore.CHOScore>
1.0000

> <Gold.PLP.Chemscore.Metal>
0.0000

> <Gold.Chemscore.Hbonds>
donor molecule, donor type, donor heavy atom, donor atom, acceptor molecule, acceptor atom, score
      P1  H  6896  6907       L1     8  1.00
      P1  H  6931  6943       L1    19  1.90
      P1  H  6934  6947       L1    20  2.00
      L1  C    12    35       P1  7949  1.00

> <Gold.PLP.Chemscore.Internal.Correction>
0.1383

> <Gold.Rescore>
     Score         DG    S(hbond)    S(metal)    S(lipo)     H(rot)  DE(clash)    DE(int)     intcor
     13.67     -16.21       2.54        0.00      71.57       2.39       0.12       2.42       ----

> <Gold.Chemscore.Fitness>
13.6742

> <Gold.Chemscore.DG>
-16.2123

> <Gold.Chemscore.ZeroCoef>
-5.4800

> <Gold.Chemscore.Hbond>
2.5355

> <Gold.Chemscore.Metal>
0.0000

> <Gold.Chemscore.Lipo>
71.5656

> <Gold.Chemscore.Internal_Hbond>
0.0000

> <Gold.Chemscore.DEClash>
0.1211

> <Gold.Chemscore.DEInternal>
2.4170

> <Gold.Chemscore.Rot>
2.3865

> <Gold.Chemscore.Internal.Correction>
   9.000000E+99

> <Gold.Chemscore.Hbonds>
donor molecule, donor type, donor heavy atom, donor atom, acceptor molecule, acceptor atom, score
      P1  H  6896  6907       L1     8  0.85
      P1  H  6931  6943       L1    19  0.21
      P1  H  6934  6947       L1    20  0.74

> <Gold.Chemscore.Hbond.Weighted>
-8.4685

> <Gold.Chemscore.Metal.Weighted>
-0.0000

> <Gold.Chemscore.Lipo.Weighted>
-8.3732

> <Gold.Chemscore.Internal_Hbond.Weighted>
0.0000

> <Gold.Chemscore.DEClash.Weighted>
0.1211

> <Gold.Chemscore.DEInternal.Weighted>
2.4170

> <Gold.Chemscore.Rot.Weighted>
6.1093

> <Gold.Chemscore.Internal.Correction.Weighted>
   9.000000E+99

> <Gold.Protein.RotatedTorsions>
[ 6907 6896 6895 6894 ] final  -53.07 input  -60.11 | X-H torsion
[ 7974 7965 7964 7962 ] final   48.11 input  175.53 | X-H torsion
[ 8008 7997 7996 7995 ] final   63.02 input   59.86 | X-H torsion
[ 10167 10162 10161 10158 ] final   84.02 input  -65.29 | X-H torsion
[ 10718 10713 10712 10709 ] final  166.67 input   66.30 | X-H torsion
[ 10763 10752 10751 10750 ] final    5.70 input  -60.55 | X-H torsion
[ 11005 11000 10999 10996 ] final  -70.39 input  -57.11 | X-H torsion

> <Gold.Protein.ActiveResidues>
 VAL166  LYS551  ARG553  GLY616  TRP617  ASP618  TYR619  PRO620  LYS621  CYS622 
 ASP623  PHE694  ASN695  SER759  ASP760  ASP761  ALA762  ILE779  LEU786  VAL792 
 PHE793  MET794  SER795  GLU796  ALA797  LYS798  CYS799  TRP800  GLU811  SER814 

> <Gold.Protein.RotatedAtoms>
  150.8460  134.7769  159.6970 H   0  0  0  0  0  0  0  0  0  0  0  0  # atno 6907 bound_to 6896
  152.4536  134.5336  159.9828 H   0  0  0  0  0  0  0  0  0  0  0  0  # atno 6908 bound_to 6896
  151.5466  133.3386  159.2981 H   0  0  0  0  0  0  0  0  0  0  0  0  # atno 6909 bound_to 6896
  146.0235  139.4679  142.9882 H   0  0  0  0  0  0  0  0  0  0  0  0  # atno 7974 bound_to 7965
  155.6237  140.3496  155.4660 H   0  0  0  0  0  0  0  0  0  0  0  0  # atno 8008 bound_to 7997
  156.0059  140.1223  157.0526 H   0  0  0  0  0  0  0  0  0  0  0  0  # atno 8009 bound_to 7997
  154.4264  140.1091  156.5748 H   0  0  0  0  0  0  0  0  0  0  0  0  # atno 8010 bound_to 7997
  139.9124  144.6264  150.8524 H   0  0  0  0  0  0  0  0  0  0  0  0  # atno 10167 bound_to 10162
  157.0625  131.0344  151.2642 H   0  0  0  0  0  0  0  0  0  0  0  0  # atno 10718 bound_to 10713
  153.2563  135.6919  153.7625 H   0  0  0  0  0  0  0  0  0  0  0  0  # atno 10763 bound_to 10752
  153.6701  135.3346  155.3152 H   0  0  0  0  0  0  0  0  0  0  0  0  # atno 10764 bound_to 10752
  154.8414  135.4497  154.1538 H   0  0  0  0  0  0  0  0  0  0  0  0  # atno 10765 bound_to 10752
  141.1573  133.6789  156.6746 H   0  0  0  0  0  0  0  0  0  0  0  0  # atno 11005 bound_to 11000
  145.7155  141.0092  143.1430 LP  0  0  0  0  0  0  0  0  0  0  0  0  # atno 17320 bound_to 7965
  144.7000  139.8808  143.7447 LP  0  0  0  0  0  0  0  0  0  0  0  0  # atno 17321 bound_to 7965
  140.7682  143.3356  151.2316 LP  0  0  0  0  0  0  0  0  0  0  0  0  # atno 17342 bound_to 10162
  139.6931  143.9658  152.2869 LP  0  0  0  0  0  0  0  0  0  0  0  0  # atno 17343 bound_to 10162
  157.4943  130.7841  149.7540 LP  0  0  0  0  0  0  0  0  0  0  0  0  # atno 17370 bound_to 10713
  155.9974  130.3900  150.2741 LP  0  0  0  0  0  0  0  0  0  0  0  0  # atno 17371 bound_to 10713
  140.3149  134.8056  157.4206 LP  0  0  0  0  0  0  0  0  0  0  0  0  # atno 17394 bound_to 11000
  140.1147  134.5299  155.8235 LP  0  0  0  0  0  0  0  0  0  0  0  0  # atno 17395 bound_to 11000

$$$$
