AV-unprocessed.smi:2692|AV-procd|sdf|10395|dock1
  -GOLD-   2272014433D 1   1.00000     0.00000
 Structure written by MMmdl.
 21 21  0  0  0  0  0  0  0  0  2 V2000
  142.2005  132.8353  148.1500 N   0  3  0  0  0  0  0  0  0  0  0  0
  143.6554  132.6587  148.2899 C   0  0  0  0  0  0  0  0  0  0  0  0
  144.0309  132.2219  149.7126 C   0  0  0  0  0  0  0  0  0  0  0  0
  144.8992  133.2478  150.4140 C   0  0  0  0  0  0  0  0  0  0  0  0
  146.1803  132.9030  150.8956 C   0  0  0  0  0  0  0  0  0  0  0  0
  146.9977  133.7756  151.5225 N   0  0  0  0  0  0  0  0  0  0  0  0
  146.5593  135.0414  151.6952 C   0  0  0  0  0  0  0  0  0  0  0  0
  145.2976  135.4888  151.2527 C   0  0  0  0  0  0  0  0  0  0  0  0
  144.9065  136.7808  151.4527 O   0  0  0  0  0  0  0  0  0  0  0  0
  144.4507  134.5720  150.5994 C   0  0  0  0  0  0  0  0  0  0  0  0
  141.9720  132.9913  147.1785 H   0  0  0  0  0  0  0  0  0  0  0  0
  141.9027  133.6307  148.6968 H   0  0  0  0  0  0  0  0  0  0  0  0
  143.9883  131.9161  147.5640 H   0  0  0  0  0  0  0  0  0  0  0  0
  144.1472  133.5990  148.0381 H   0  0  0  0  0  0  0  0  0  0  0  0
  143.1302  132.0556  150.3055 H   0  0  0  0  0  0  0  0  0  0  0  0
  144.5619  131.2692  149.6849 H   0  0  0  0  0  0  0  0  0  0  0  0
  146.5618  131.9001  150.7720 H   0  0  0  0  0  0  0  0  0  0  0  0
  147.2349  135.7154  152.2010 H   0  0  0  0  0  0  0  0  0  0  0  0
  145.0626  137.3398  150.7070 H   0  0  0  0  0  0  0  0  0  0  0  0
  143.4771  134.8793  150.2457 H   0  0  0  0  0  0  0  0  0  0  0  0
  141.7264  132.0054  148.4770 H   0  0  0  0  0  0  0  0  0  0  0  0
  1  2  1  0  0  0  0
  1 11  1  0  0  0  0
  1 12  1  0  0  0  0
  1 21  1  0  0  0  0
  2  3  1  0  0  0  0
  2 13  1  0  0  0  0
  2 14  1  0  0  0  0
  3  4  1  0  0  0  0
  3 15  1  0  0  0  0
  3 16  1  0  0  0  0
  4 10  1  0  0  0  0
  4  5  2  0  0  0  0
  5  6  1  0  0  0  0
  5 17  1  0  0  0  0
  6  7  2  0  0  0  0
  7  8  1  0  0  0  0
  7 18  1  0  0  0  0
  8  9  1  0  0  0  0
  8 10  2  0  0  0  0
  9 19  1  0  0  0  0
 10 20  1  0  0  0  0
M  CHG  1   1   1
M  END
> <s_m_source_file>
AV-unprocessed.smi

> <i_m_source_file_index>
2692

> <i_lp_mmshare_version>
43012

> <i_f3d_flags>
0

> <s_epik_input>
W05IMl1bQ0gyXVtDSDJdYzFbY0hdbltjSF1jKFtPSF0pW2NIXTE=

> <s_epik_cmdline>
J2VwaWtfcHl0aG9uJywgJy1waCcsICc3LjAnLCAnLXRuJywgJzgnLCAnLW1hJywgJzIwMCcsICctbWV0YWxfYmluZGluZycsICctaW1hZScsICc8aW5maWxlLm1hZT4nLCAnLW9tYWUnLCAnPG91dGZpbGUubWFlPic=

> <r_lp_tautomer_probability>
0.43658

> <r_epik_Ionization_Penalty>
0.0422097

> <r_epik_Ionization_Penalty_Charging>
0.00146569

> <r_epik_Ionization_Penalty_Neutral>
0.040744

> <r_epik_State_Penalty>
0.484136

> <r_epik_Charging_Adjusted_Penalty>
0.485601

> <i_epik_Tot_Q>
1

> <i_epik_Tot_abs_Q>
1

> <r_epik_Metal_State_Penalty>
0.40611

> <b_epik_Metal_Only>
0

> <s_lp_Force_Field>
OPLS_2005

> <r_lp_Energy>
4.65602

> <b_lp_Chiralities_Consistent>
1

> <s_lp_Variant>
AV-unprocessed.smi:2692-2

> <Gold.Version>
5.8.1

> <Gold.Id.Protein>
6NUR|6NUR_protein|mol2

> <Gold.PLP.Fitness>
41.7662

> <Gold.PLP.PLP>
-21.9460

> <Gold.PLP.part.hbond>
-4.0000

> <Gold.PLP.part.metal>
0.0000

> <Gold.PLP.part.buried>
-0.2243

> <Gold.PLP.part.nonpolar>
-18.6410

> <Gold.PLP.part.repulsive>
1.0737

> <Gold.PLP.ligand.clash>
0.0000

> <Gold.PLP.ligand.torsion>
0.3750

> <Gold.PLP.Chemscore.Hbond>
5.0000

> <Gold.PLP.Chemscore.CHOScore>
1.8567

> <Gold.PLP.Chemscore.Metal>
0.0000

> <Gold.Chemscore.Hbonds>
donor molecule, donor type, donor heavy atom, donor atom, acceptor molecule, acceptor atom, score
      L1  H     1    11       P1 10195  1.00
      L1  H     1    12       P1 10186  1.56
      L1  H     1    21       P1 10952  0.68
      L1  H     9    19       P1 10171  0.61
      L1  C     5    17       P1 10747  0.64
      L1  C     7    18       P1  7948  0.43

> <Gold.PLP.Chemscore.Internal.Correction>
0.0000

> <Gold.Rescore>
     Score         DG    S(hbond)    S(metal)    S(lipo)     H(rot)  DE(clash)    DE(int)     intcor
     19.97     -20.54       3.99        0.00      56.49       1.91       0.23       0.34       ----

> <Gold.Chemscore.Fitness>
19.9710

> <Gold.Chemscore.DG>
-20.5428

> <Gold.Chemscore.ZeroCoef>
-5.4800

> <Gold.Chemscore.Hbond>
3.9928

> <Gold.Chemscore.Metal>
0.0000

> <Gold.Chemscore.Lipo>
56.4890

> <Gold.Chemscore.Internal_Hbond>
0.0000

> <Gold.Chemscore.DEClash>
0.2317

> <Gold.Chemscore.DEInternal>
0.3401

> <Gold.Chemscore.Rot>
1.9072

> <Gold.Chemscore.Internal.Correction>
   9.000000E+99

> <Gold.Chemscore.Hbonds>
donor molecule, donor type, donor heavy atom, donor atom, acceptor molecule, acceptor atom, score
      L1  H     1    11       P1 10195  0.94
      L1  H     1    12       P1 10186  0.76
      L1  H     1    21       P1 10952  0.69
      L1  H     9    19       P1 10171  0.60

> <Gold.Chemscore.Hbond.Weighted>
-13.3361

> <Gold.Chemscore.Metal.Weighted>
-0.0000

> <Gold.Chemscore.Lipo.Weighted>
-6.6092

> <Gold.Chemscore.Internal_Hbond.Weighted>
0.0000

> <Gold.Chemscore.DEClash.Weighted>
0.2317

> <Gold.Chemscore.DEInternal.Weighted>
0.3401

> <Gold.Chemscore.Rot.Weighted>
4.8824

> <Gold.Chemscore.Internal.Correction.Weighted>
   9.000000E+99

> <Gold.Protein.RotatedTorsions>
[ 6907 6896 6895 6894 ] final -107.74 input  -60.11 | X-H torsion
[ 7974 7965 7964 7962 ] final  -25.60 input  175.53 | X-H torsion
[ 8008 7997 7996 7995 ] final  148.90 input   59.86 | X-H torsion
[ 10167 10162 10161 10158 ] final   43.35 input  -65.29 | X-H torsion
[ 10718 10713 10712 10709 ] final   -9.50 input   66.30 | X-H torsion
[ 10763 10752 10751 10750 ] final  -89.64 input  -60.55 | X-H torsion
[ 11005 11000 10999 10996 ] final  -88.35 input  -57.11 | X-H torsion

> <Gold.Protein.ActiveResidues>
 VAL166  LYS551  ARG553  GLY616  TRP617  ASP618  TYR619  PRO620  LYS621  CYS622 
 ASP623  PHE694  ASN695  SER759  ASP760  ASP761  ALA762  ILE779  LEU786  VAL792 
 PHE793  MET794  SER795  GLU796  ALA797  LYS798  CYS799  TRP800  GLU811  SER814 

> <Gold.Protein.RotatedAtoms>
  150.7461  133.9781  159.3567 H   0  0  0  0  0  0  0  0  0  0  0  0  # atno 6907 bound_to 6896
  151.7720  135.0782  160.0370 H   0  0  0  0  0  0  0  0  0  0  0  0  # atno 6908 bound_to 6896
  152.3332  133.5945  159.5860 H   0  0  0  0  0  0  0  0  0  0  0  0  # atno 6909 bound_to 6896
  146.1481  140.4907  142.8623 H   0  0  0  0  0  0  0  0  0  0  0  0  # atno 7974 bound_to 7965
  156.2774  140.2116  156.5772 H   0  0  0  0  0  0  0  0  0  0  0  0  # atno 8008 bound_to 7997
  154.7088  140.0514  157.0552 H   0  0  0  0  0  0  0  0  0  0  0  0  # atno 8009 bound_to 7997
  155.0634  140.3169  155.4656 H   0  0  0  0  0  0  0  0  0  0  0  0  # atno 8010 bound_to 7997
  140.3453  144.2419  150.6151 H   0  0  0  0  0  0  0  0  0  0  0  0  # atno 10167 bound_to 10162
  156.6872  130.5054  149.5954 H   0  0  0  0  0  0  0  0  0  0  0  0  # atno 10718 bound_to 10713
  154.6574  135.5333  153.7975 H   0  0  0  0  0  0  0  0  0  0  0  0  # atno 10763 bound_to 10752
  153.0421  135.6497  154.0925 H   0  0  0  0  0  0  0  0  0  0  0  0  # atno 10764 bound_to 10752
  154.0837  135.2945  155.3265 H   0  0  0  0  0  0  0  0  0  0  0  0  # atno 10765 bound_to 10752
  141.1603  133.7565  156.9439 H   0  0  0  0  0  0  0  0  0  0  0  0  # atno 11005 bound_to 11000
  144.7870  140.5956  143.6567 LP  0  0  0  0  0  0  0  0  0  0  0  0  # atno 17320 bound_to 7965
  145.4890  139.1490  143.3720 LP  0  0  0  0  0  0  0  0  0  0  0  0  # atno 17321 bound_to 7965
  140.5271  143.2252  151.8298 LP  0  0  0  0  0  0  0  0  0  0  0  0  # atno 17342 bound_to 10162
  139.4834  144.4767  151.9358 LP  0  0  0  0  0  0  0  0  0  0  0  0  # atno 17343 bound_to 10162
  156.1824  130.6507  151.0967 LP  0  0  0  0  0  0  0  0  0  0  0  0  # atno 17370 bound_to 10713
  157.7022  131.0771  150.6783 LP  0  0  0  0  0  0  0  0  0  0  0  0  # atno 17371 bound_to 10713
  140.1303  134.9360  157.2328 LP  0  0  0  0  0  0  0  0  0  0  0  0  # atno 17394 bound_to 11000
  140.2961  134.3184  155.7302 LP  0  0  0  0  0  0  0  0  0  0  0  0  # atno 17395 bound_to 11000

$$$$
