AV-unprocessed.smi:3336|AV-procd|sdf|12857|dock2
  -GOLD-   2272019253D 1   1.00000     0.00000
 Structure written by MMmdl.
 41 42  0  0  0  0  0  0  0  0  1 V2000
  150.6940  141.4014  157.9569 C   0  0  0  0  0  0  0  0  0  0  0  0
  150.9559  142.0465  156.5864 C   0  0  2  0  0  0  0  0  0  0  0  0
  151.5177  143.4868  156.7043 C   0  0  0  0  0  0  0  0  0  0  0  0
  151.7059  143.9419  158.0730 N   0  0  0  0  0  0  0  0  0  0  0  0
  150.9853  144.8904  158.7687 C   0  0  0  0  0  0  0  0  0  0  0  0
  151.5238  144.9740  160.0206 C   0  0  0  0  0  0  0  0  0  0  0  0
  152.5806  144.0215  159.9980 C   0  0  0  0  0  0  0  0  0  0  0  0
  152.6836  143.4020  158.8337 N   0  0  0  0  0  0  0  0  0  0  0  0
  149.7005  141.9780  155.8323 N   0  0  0  0  0  0  0  0  0  0  0  0
  149.5175  140.8137  154.9396 C   0  0  2  0  0  0  0  0  0  0  0  0
  148.2031  140.9780  154.1602 C   0  0  0  0  0  0  0  0  0  0  0  0
  149.5302  139.4519  155.6732 C   0  0  0  0  0  0  0  0  0  0  0  0
  148.8437  139.3375  156.6907 O   0  0  0  0  0  0  0  0  0  0  0  0
  150.2735  138.4212  155.1961 N   0  0  0  0  0  0  0  0  0  0  0  0
  151.0561  138.5166  153.9585 C   0  0  0  0  0  0  0  0  0  0  0  0
  152.5490  138.3888  154.3065 C   0  0  0  0  0  0  0  0  0  0  0  0
  152.7772  137.1483  154.9681 O   0  0  0  0  0  0  0  0  0  0  0  0
  152.0163  137.0102  156.1645 C   0  0  0  0  0  0  0  0  0  0  0  0
  150.5139  137.1274  155.8480 C   0  0  0  0  0  0  0  0  0  0  0  0
  151.5900  141.4267  158.5778 H   0  0  0  0  0  0  0  0  0  0  0  0
  150.4023  140.3561  157.8490 H   0  0  0  0  0  0  0  0  0  0  0  0
  149.8977  141.9100  158.5010 H   0  0  0  0  0  0  0  0  0  0  0  0
  151.7097  141.4340  156.0930 H   0  0  0  0  0  0  0  0  0  0  0  0
  152.4872  143.5311  156.2070 H   0  0  0  0  0  0  0  0  0  0  0  0
  150.8930  144.2052  156.1731 H   0  0  0  0  0  0  0  0  0  0  0  0
  150.1602  145.4223  158.3181 H   0  0  0  0  0  0  0  0  0  0  0  0
  151.2103  145.6169  160.8297 H   0  0  0  0  0  0  0  0  0  0  0  0
  153.2698  143.7619  160.7881 H   0  0  0  0  0  0  0  0  0  0  0  0
  148.9236  142.0681  156.4715 H   0  0  0  0  0  0  0  0  0  0  0  0
  150.3311  140.8495  154.2211 H   0  0  0  0  0  0  0  0  0  0  0  0
  148.0506  140.1635  153.4517 H   0  0  0  0  0  0  0  0  0  0  0  0
  148.2034  141.9070  153.5889 H   0  0  0  0  0  0  0  0  0  0  0  0
  147.3417  141.0013  154.8291 H   0  0  0  0  0  0  0  0  0  0  0  0
  150.7589  137.7136  153.2823 H   0  0  0  0  0  0  0  0  0  0  0  0
  150.8856  139.4451  153.4124 H   0  0  0  0  0  0  0  0  0  0  0  0
  153.1526  138.4212  153.3996 H   0  0  0  0  0  0  0  0  0  0  0  0
  152.8744  139.2169  154.9383 H   0  0  0  0  0  0  0  0  0  0  0  0
  152.2330  136.0392  156.6098 H   0  0  0  0  0  0  0  0  0  0  0  0
  152.3203  137.7683  156.8881 H   0  0  0  0  0  0  0  0  0  0  0  0
  149.9598  136.9743  156.7699 H   0  0  0  0  0  0  0  0  0  0  0  0
  150.2070  136.3245  155.1764 H   0  0  0  0  0  0  0  0  0  0  0  0
  1  2  1  0  0  0  0
  1 20  1  0  0  0  0
  1 21  1  0  0  0  0
  1 22  1  0  0  0  0
  2  3  1  0  0  0  0
  2  9  1  0  0  0  0
  2 23  1  0  0  0  0
  3  4  1  0  0  0  0
  3 24  1  0  0  0  0
  3 25  1  0  0  0  0
  4  8  1  0  0  0  0
  4  5  1  0  0  0  0
  5  6  2  0  0  0  0
  5 26  1  0  0  0  0
  6  7  1  0  0  0  0
  6 27  1  0  0  0  0
  7  8  2  0  0  0  0
  7 28  1  0  0  0  0
  9 10  1  0  0  0  0
  9 29  1  0  0  0  0
 10 11  1  0  0  0  0
 10 12  1  0  0  0  0
 10 30  1  0  0  0  0
 11 31  1  0  0  0  0
 11 32  1  0  0  0  0
 11 33  1  0  0  0  0
 12 13  2  0  0  0  0
 12 14  1  0  0  0  0
 14 19  1  0  0  0  0
 14 15  1  0  0  0  0
 15 16  1  0  0  0  0
 15 34  1  0  0  0  0
 15 35  1  0  0  0  0
 16 17  1  0  0  0  0
 16 36  1  0  0  0  0
 16 37  1  0  0  0  0
 17 18  1  0  0  0  0
 18 19  1  0  0  0  0
 18 38  1  0  0  0  0
 18 39  1  0  0  0  0
 19 40  1  0  0  0  0
 19 41  1  0  0  0  0
M  END
> <s_m_source_file>
AV-unprocessed.smi

> <i_m_source_file_index>
3336

> <i_lp_mmshare_version>
43012

> <i_f3d_flags>
0

> <s_epik_input>
bjFbY0hdW2NIXVtjSF1uMVtDSDJdW0NAQEhdKFtDSDNdKVtOSF1bQ0BIXShbQ0gzXSlDKD1PKU4yW0NIMl1bQ0gyXU9bQ0gyXVtDSDJdMg==

> <s_epik_cmdline>
J2VwaWtfcHl0aG9uJywgJy1waCcsICc3LjAnLCAnLXRuJywgJzgnLCAnLW1hJywgJzIwMCcsICctbWV0YWxfYmluZGluZycsICctaW1hZScsICc8aW5maWxlLm1hZT4nLCAnLW9tYWUnLCAnPG91dGZpbGUubWFlPic=

> <r_lp_tautomer_probability>
1

> <r_epik_Ionization_Penalty>
0.739958

> <r_epik_Ionization_Penalty_Charging>
0

> <r_epik_Ionization_Penalty_Neutral>
0.739958

> <r_epik_State_Penalty>
0.765967

> <r_epik_Charging_Adjusted_Penalty>
0.765967

> <i_epik_Tot_Q>
0

> <i_epik_Tot_abs_Q>
0

> <r_epik_Metal_State_Penalty>
0.765947

> <b_epik_Metal_Only>
0

> <s_lp_Force_Field>
OPLS_2005

> <r_lp_Energy>
28.3859

> <b_lp_Chiralities_Consistent>
1

> <s_lp_Variant>
AV-unprocessed.smi:3336-5

> <Gold.Version>
5.8.1

> <Gold.Id.Protein>
6NUR|6NUR_protein|mol2

> <Gold.PLP.Fitness>
41.4232

> <Gold.PLP.PLP>
-39.6263

> <Gold.PLP.part.hbond>
-2.0000

> <Gold.PLP.part.metal>
0.0000

> <Gold.PLP.part.buried>
-6.3039

> <Gold.PLP.part.nonpolar>
-32.0629

> <Gold.PLP.part.repulsive>
0.0339

> <Gold.PLP.ligand.clash>
0.0000

> <Gold.PLP.ligand.torsion>
1.7013

> <Gold.PLP.Chemscore.Hbond>
0.6880

> <Gold.PLP.Chemscore.CHOScore>
1.0000

> <Gold.PLP.Chemscore.Metal>
0.0000

> <Gold.Chemscore.Hbonds>
donor molecule, donor type, donor heavy atom, donor atom, acceptor molecule, acceptor atom, score
      P1  H 10752 10765       L1    17  0.36
      L1  C     5    26       P1  8029  1.00

> <Gold.PLP.Chemscore.Internal.Correction>
0.1355

> <Gold.Rescore>
     Score         DG    S(hbond)    S(metal)    S(lipo)     H(rot)  DE(clash)    DE(int)     intcor
     12.82     -15.30       0.78        0.00     100.95       1.79       0.63       1.85       ----

> <Gold.Chemscore.Fitness>
12.8153

> <Gold.Chemscore.DG>
-15.2988

> <Gold.Chemscore.ZeroCoef>
-5.4800

> <Gold.Chemscore.Hbond>
0.7783

> <Gold.Chemscore.Metal>
0.0000

> <Gold.Chemscore.Lipo>
100.9458

> <Gold.Chemscore.Internal_Hbond>
0.0000

> <Gold.Chemscore.DEClash>
0.6345

> <Gold.Chemscore.DEInternal>
1.8491

> <Gold.Chemscore.Rot>
1.7935

> <Gold.Chemscore.Internal.Correction>
   9.000000E+99

> <Gold.Chemscore.Hbonds>
donor molecule, donor type, donor heavy atom, donor atom, acceptor molecule, acceptor atom, score
      P1  H 10752 10765       L1    17  0.05

> <Gold.Chemscore.Hbond.Weighted>
-2.5994

> <Gold.Chemscore.Metal.Weighted>
-0.0000

> <Gold.Chemscore.Lipo.Weighted>
-11.8107

> <Gold.Chemscore.Internal_Hbond.Weighted>
0.0000

> <Gold.Chemscore.DEClash.Weighted>
0.6345

> <Gold.Chemscore.DEInternal.Weighted>
1.8491

> <Gold.Chemscore.Rot.Weighted>
4.5912

> <Gold.Chemscore.Internal.Correction.Weighted>
   9.000000E+99

> <Gold.Protein.RotatedTorsions>
[ 6907 6896 6895 6894 ] final  -90.25 input  -60.11 | X-H torsion
[ 7974 7965 7964 7962 ] final  -83.20 input  175.53 | X-H torsion
[ 8008 7997 7996 7995 ] final  110.03 input   59.86 | X-H torsion
[ 10167 10162 10161 10158 ] final -149.91 input  -65.29 | X-H torsion
[ 10718 10713 10712 10709 ] final  174.50 input   66.30 | X-H torsion
[ 10763 10752 10751 10750 ] final -169.28 input  -60.55 | X-H torsion
[ 11005 11000 10999 10996 ] final  178.87 input  -57.11 | X-H torsion

> <Gold.Protein.ActiveResidues>
 VAL166  LYS551  ARG553  GLY616  TRP617  ASP618  TYR619  PRO620  LYS621  CYS622 
 ASP623  PHE694  ASN695  SER759  ASP760  ASP761  ALA762  ILE779  LEU786  VAL792 
 PHE793  MET794  SER795  GLU796  ALA797  LYS798  CYS799  TRP800  GLU811  SER814 

> <Gold.Protein.RotatedAtoms>
  150.6880  134.2462  159.4491 H   0  0  0  0  0  0  0  0  0  0  0  0  # atno 6907 bound_to 6896
  152.0402  134.9713  160.0583 H   0  0  0  0  0  0  0  0  0  0  0  0  # atno 6908 bound_to 6896
  152.1218  133.4323  159.4716 H   0  0  0  0  0  0  0  0  0  0  0  0  # atno 6909 bound_to 6896
  145.5232  140.9529  143.1644 H   0  0  0  0  0  0  0  0  0  0  0  0  # atno 7974 bound_to 7965
  156.2023  140.3046  155.9553 H   0  0  0  0  0  0  0  0  0  0  0  0  # atno 8008 bound_to 7997
  155.2924  140.0442  157.3041 H   0  0  0  0  0  0  0  0  0  0  0  0  # atno 8009 bound_to 7997
  154.5587  140.2314  155.8378 H   0  0  0  0  0  0  0  0  0  0  0  0  # atno 8010 bound_to 7997
  139.7401  143.8676  152.2560 H   0  0  0  0  0  0  0  0  0  0  0  0  # atno 10167 bound_to 10162
  156.9486  131.0024  151.2953 H   0  0  0  0  0  0  0  0  0  0  0  0  # atno 10718 bound_to 10713
  154.6540  135.2915  154.9951 H   0  0  0  0  0  0  0  0  0  0  0  0  # atno 10763 bound_to 10752
  154.1034  135.6573  153.4876 H   0  0  0  0  0  0  0  0  0  0  0  0  # atno 10764 bound_to 10752
  153.0392  135.5248  154.7460 H   0  0  0  0  0  0  0  0  0  0  0  0  # atno 10765 bound_to 10752
  140.3999  134.6787  157.4556 H   0  0  0  0  0  0  0  0  0  0  0  0  # atno 11005 bound_to 11000
  144.7665  139.6834  143.7213 LP  0  0  0  0  0  0  0  0  0  0  0  0  # atno 17320 bound_to 7965
  146.2092  139.5437  142.9692 LP  0  0  0  0  0  0  0  0  0  0  0  0  # atno 17321 bound_to 7965
  139.8624  144.7110  150.9084 LP  0  0  0  0  0  0  0  0  0  0  0  0  # atno 17342 bound_to 10162
  140.7784  143.3807  151.1483 LP  0  0  0  0  0  0  0  0  0  0  0  0  # atno 17343 bound_to 10162
  157.5737  130.8328  149.8426 LP  0  0  0  0  0  0  0  0  0  0  0  0  # atno 17370 bound_to 10713
  156.0373  130.3748  150.1528 LP  0  0  0  0  0  0  0  0  0  0  0  0  # atno 17371 bound_to 10713
  140.0344  134.6359  155.9063 LP  0  0  0  0  0  0  0  0  0  0  0  0  # atno 17394 bound_to 11000
  141.1860  133.6556  156.5223 LP  0  0  0  0  0  0  0  0  0  0  0  0  # atno 17395 bound_to 11000

$$$$
