AV-unprocessed.smi:3077|AV-procd|sdf|11730|dock1
  -GOLD-   2272017123D 1   1.00000     0.00000
 Structure written by MMmdl.
 28 29  0  0  0  0  0  0  0  0  2 V2000
  148.3745  141.4235  155.0011 C   0  0  0  0  0  0  0  0  0  0  0  0
  149.1911  140.4552  154.3529 C   0  0  0  0  0  0  0  0  0  0  0  0
  150.3943  140.3575  154.8955 N   0  0  0  0  0  0  0  0  0  0  0  0
  150.3877  141.2614  155.8988 N   0  0  0  0  0  0  0  0  0  0  0  0
  151.5647  141.4181  156.7341 C   0  0  0  0  0  0  0  0  0  0  0  0
  151.3738  142.4520  157.8628 C   0  0  1  0  0  0  0  0  0  0  0  0
  152.5332  142.4540  158.8858 C   0  0  0  0  0  0  0  0  0  0  0  0
  152.3333  143.5359  159.9586 C   0  0  0  0  0  0  0  0  0  0  0  0
  152.1265  144.9081  159.3025 C   0  0  0  0  0  0  0  0  0  0  0  0
  150.9699  144.8577  158.2916 C   0  0  0  0  0  0  0  0  0  0  0  0
  151.2043  143.8038  157.2803 N   0  3  0  0  0  0  0  0  0  0  0  0
  149.1769  141.9155  155.9901 C   0  0  0  0  0  0  0  0  0  0  0  0
  147.3574  141.7092  154.7772 H   0  0  0  0  0  0  0  0  0  0  0  0
  148.9466  139.8232  153.5120 H   0  0  0  0  0  0  0  0  0  0  0  0
  151.8173  140.4440  157.1553 H   0  0  0  0  0  0  0  0  0  0  0  0
  152.3990  141.7063  156.0928 H   0  0  0  0  0  0  0  0  0  0  0  0
  150.4491  142.2127  158.3910 H   0  0  0  0  0  0  0  0  0  0  0  0
  152.6156  141.4812  159.3718 H   0  0  0  0  0  0  0  0  0  0  0  0
  153.4800  142.6218  158.3707 H   0  0  0  0  0  0  0  0  0  0  0  0
  151.4669  143.2881  160.5733 H   0  0  0  0  0  0  0  0  0  0  0  0
  153.1926  143.5647  160.6293 H   0  0  0  0  0  0  0  0  0  0  0  0
  151.9248  145.6614  160.0648 H   0  0  0  0  0  0  0  0  0  0  0  0
  153.0434  145.2157  158.7978 H   0  0  0  0  0  0  0  0  0  0  0  0
  150.0261  144.6625  158.8026 H   0  0  0  0  0  0  0  0  0  0  0  0
  150.8666  145.8184  157.7868 H   0  0  0  0  0  0  0  0  0  0  0  0
  152.0396  144.0365  156.7624 H   0  0  0  0  0  0  0  0  0  0  0  0
  148.9882  142.6681  156.7416 H   0  0  0  0  0  0  0  0  0  0  0  0
  150.4208  143.7864  156.6428 H   0  0  0  0  0  0  0  0  0  0  0  0
  1 12  2  0  0  0  0
  1  2  1  0  0  0  0
  1 13  1  0  0  0  0
  2  3  2  0  0  0  0
  2 14  1  0  0  0  0
  3  4  1  0  0  0  0
  4  5  1  0  0  0  0
  4 12  1  0  0  0  0
  5  6  1  0  0  0  0
  5 15  1  0  0  0  0
  5 16  1  0  0  0  0
  6 11  1  0  0  0  0
  6  7  1  0  0  0  0
  6 17  1  0  0  0  0
  7  8  1  0  0  0  0
  7 18  1  0  0  0  0
  7 19  1  0  0  0  0
  8  9  1  0  0  0  0
  8 20  1  0  0  0  0
  8 21  1  0  0  0  0
  9 10  1  0  0  0  0
  9 22  1  0  0  0  0
  9 23  1  0  0  0  0
 10 11  1  0  0  0  0
 10 24  1  0  0  0  0
 10 25  1  0  0  0  0
 11 26  1  0  0  0  0
 11 28  1  0  0  0  0
 12 27  1  0  0  0  0
M  CHG  1  11   1
M  END
> <s_m_source_file>
AV-unprocessed.smi

> <i_m_source_file_index>
3077

> <i_lp_mmshare_version>
43012

> <i_f3d_flags>
0

> <s_epik_input>
W2NIXTFbY0hdW2NIXW5uMVtDSDJdW0NAQEhdMltDSDJdW0NIMl1bQ0gyXVtDSDJdW05IXTI=

> <s_epik_cmdline>
J2VwaWtfcHl0aG9uJywgJy1waCcsICc3LjAnLCAnLXRuJywgJzgnLCAnLW1hJywgJzIwMCcsICctbWV0YWxfYmluZGluZycsICctaW1hZScsICc8aW5maWxlLm1hZT4nLCAnLW9tYWUnLCAnPG91dGZpbGUubWFlPic=

> <r_lp_tautomer_probability>
1

> <r_epik_Ionization_Penalty>
0.000655985

> <r_epik_Ionization_Penalty_Charging>
0.000651447

> <r_epik_Ionization_Penalty_Neutral>
4.5377e-06

> <r_epik_State_Penalty>
0.000412577

> <r_epik_Charging_Adjusted_Penalty>
0.00106402

> <i_epik_Tot_Q>
1

> <i_epik_Tot_abs_Q>
1

> <r_epik_Metal_State_Penalty>
-0

> <b_epik_Metal_Only>
0

> <s_lp_Force_Field>
OPLS_2005

> <r_lp_Energy>
13.5088

> <b_lp_Chiralities_Consistent>
1

> <s_lp_Variant>
AV-unprocessed.smi:3077-2

> <Gold.Version>
5.8.1

> <Gold.Id.Protein>
6NUR|6NUR_protein|mol2

> <Gold.PLP.Fitness>
41.9826

> <Gold.PLP.PLP>
-28.3833

> <Gold.PLP.part.hbond>
-2.0000

> <Gold.PLP.part.metal>
0.0000

> <Gold.PLP.part.buried>
-1.7208

> <Gold.PLP.part.nonpolar>
-25.0970

> <Gold.PLP.part.repulsive>
0.0826

> <Gold.PLP.ligand.clash>
0.0000

> <Gold.PLP.ligand.torsion>
0.0331

> <Gold.PLP.Chemscore.Hbond>
3.0000

> <Gold.PLP.Chemscore.CHOScore>
1.5537

> <Gold.PLP.Chemscore.Metal>
0.0000

> <Gold.Chemscore.Hbonds>
donor molecule, donor type, donor heavy atom, donor atom, acceptor molecule, acceptor atom, score
      L1  H    11    28       P1  8028  1.98
      P1  H  7989  7998       L1     3  1.00
      L1  C     2    14       P1  7957  0.99
      L1  C    12    27       P1  8028  0.56

> <Gold.PLP.Chemscore.Internal.Correction>
0.0044

> <Gold.Rescore>
     Score         DG    S(hbond)    S(metal)    S(lipo)     H(rot)  DE(clash)    DE(int)     intcor
     17.42     -17.74       1.81        0.00      79.03       1.19       0.17       0.15       ----

> <Gold.Chemscore.Fitness>
17.4203

> <Gold.Chemscore.DG>
-17.7425

> <Gold.Chemscore.ZeroCoef>
-5.4800

> <Gold.Chemscore.Hbond>
1.8149

> <Gold.Chemscore.Metal>
0.0000

> <Gold.Chemscore.Lipo>
79.0260

> <Gold.Chemscore.Internal_Hbond>
0.0000

> <Gold.Chemscore.DEClash>
0.1696

> <Gold.Chemscore.DEInternal>
0.1527

> <Gold.Chemscore.Rot>
1.1896

> <Gold.Chemscore.Internal.Correction>
   9.000000E+99

> <Gold.Chemscore.Hbonds>
donor molecule, donor type, donor heavy atom, donor atom, acceptor molecule, acceptor atom, score
      L1  H    11    28       P1  8028  0.87
      P1  H  7989  7998       L1     3  0.38

> <Gold.Chemscore.Hbond.Weighted>
-6.0618

> <Gold.Chemscore.Metal.Weighted>
-0.0000

> <Gold.Chemscore.Lipo.Weighted>
-9.2460

> <Gold.Chemscore.Internal_Hbond.Weighted>
0.0000

> <Gold.Chemscore.DEClash.Weighted>
0.1696

> <Gold.Chemscore.DEInternal.Weighted>
0.1527

> <Gold.Chemscore.Rot.Weighted>
3.0453

> <Gold.Chemscore.Internal.Correction.Weighted>
   9.000000E+99

> <Gold.Protein.RotatedTorsions>
[ 6907 6896 6895 6894 ] final  -96.99 input  -60.11 | X-H torsion
[ 7974 7965 7964 7962 ] final -147.88 input  175.53 | X-H torsion
[ 8008 7997 7996 7995 ] final   96.17 input   59.86 | X-H torsion
[ 10167 10162 10161 10158 ] final   21.58 input  -65.29 | X-H torsion
[ 10718 10713 10712 10709 ] final  138.15 input   66.30 | X-H torsion
[ 10763 10752 10751 10750 ] final  129.01 input  -60.55 | X-H torsion
[ 11005 11000 10999 10996 ] final   89.32 input  -57.11 | X-H torsion

> <Gold.Protein.ActiveResidues>
 VAL166  LYS551  ARG553  GLY616  TRP617  ASP618  TYR619  PRO620  LYS621  CYS622 
 ASP623  PHE694  ASN695  SER759  ASP760  ASP761  ALA762  ILE779  LEU786  VAL792 
 PHE793  MET794  SER795  GLU796  ALA797  LYS798  CYS799  TRP800  GLU811  SER814 

> <Gold.Protein.RotatedAtoms>
  150.7004  134.1417  159.4107 H   0  0  0  0  0  0  0  0  0  0  0  0  # atno 6907 bound_to 6896
  151.9401  135.0215  160.0544 H   0  0  0  0  0  0  0  0  0  0  0  0  # atno 6908 bound_to 6896
  152.2101  133.4869  159.5142 H   0  0  0  0  0  0  0  0  0  0  0  0  # atno 6909 bound_to 6896
  144.8065  140.5270  143.5671 H   0  0  0  0  0  0  0  0  0  0  0  0  # atno 7974 bound_to 7965
  156.0768  140.3276  155.7643 H   0  0  0  0  0  0  0  0  0  0  0  0  # atno 8008 bound_to 7997
  155.5218  140.0586  157.2923 H   0  0  0  0  0  0  0  0  0  0  0  0  # atno 8009 bound_to 7997
  154.4560  140.1942  156.0397 H   0  0  0  0  0  0  0  0  0  0  0  0  # atno 8010 bound_to 7997
  140.5416  143.9668  150.6522 H   0  0  0  0  0  0  0  0  0  0  0  0  # atno 10167 bound_to 10162
  157.4284  131.1046  151.0277 H   0  0  0  0  0  0  0  0  0  0  0  0  # atno 10718 bound_to 10713
  153.7348  135.3233  155.3293 H   0  0  0  0  0  0  0  0  0  0  0  0  # atno 10763 bound_to 10752
  154.8314  135.4530  154.1086 H   0  0  0  0  0  0  0  0  0  0  0  0  # atno 10764 bound_to 10752
  153.2243  135.6952  153.8044 H   0  0  0  0  0  0  0  0  0  0  0  0  # atno 10765 bound_to 10752
  139.8877  134.8544  156.3126 H   0  0  0  0  0  0  0  0  0  0  0  0  # atno 11005 bound_to 11000
  145.5426  139.1475  143.3438 LP  0  0  0  0  0  0  0  0  0  0  0  0  # atno 17320 bound_to 7965
  146.2357  140.5565  142.8956 LP  0  0  0  0  0  0  0  0  0  0  0  0  # atno 17321 bound_to 7965
  140.3069  143.3223  152.0917 LP  0  0  0  0  0  0  0  0  0  0  0  0  # atno 17342 bound_to 10162
  139.4991  144.6661  151.6353 LP  0  0  0  0  0  0  0  0  0  0  0  0  # atno 17343 bound_to 10162
  157.1182  130.6050  149.5498 LP  0  0  0  0  0  0  0  0  0  0  0  0  # atno 17370 bound_to 10713
  155.9904  130.4955  150.7257 LP  0  0  0  0  0  0  0  0  0  0  0  0  # atno 17371 bound_to 10713
  140.9840  133.7250  156.0714 LP  0  0  0  0  0  0  0  0  0  0  0  0  # atno 17394 bound_to 11000
  140.7712  134.3830  157.5507 LP  0  0  0  0  0  0  0  0  0  0  0  0  # atno 17395 bound_to 11000

$$$$
