AV-unprocessed.smi:1554|AV-procd|sdf|6257|dock7
  -GOLD-   22720 6443D 1   1.00000     0.00000
 Structure written by MMmdl.
 49 51  0  0  0  0  0  0  0  0  3 V2000
  152.1422  144.5161  160.6593 C   0  0  0  0  0  0  0  0  0  0  0  0
  151.8987  143.4116  159.6450 C   0  0  0  0  0  0  0  0  0  0  0  0
  151.0578  143.6819  158.5421 C   0  0  0  0  0  0  0  0  0  0  0  0
  150.8569  142.6524  157.6303 C   0  0  0  0  0  0  0  0  0  0  0  0
  150.0979  142.6049  156.4595 N   0  3  0  0  0  0  0  0  0  0  0  0
  150.2111  141.3714  155.8940 C   0  0  0  0  0  0  0  0  0  0  0  0
  151.0317  140.6291  156.6866 N   0  0  0  0  0  0  0  0  0  0  0  0
  151.4781  139.2367  156.5290 C   0  0  0  0  0  0  0  0  0  0  0  0
  152.0778  138.9528  155.1371 C   0  0  1  0  0  0  0  0  0  0  0  0
  153.4882  138.8859  155.2298 O   0  0  0  0  0  0  0  0  0  0  0  0
  151.5570  137.6256  154.5500 C   0  0  0  0  0  0  0  0  0  0  0  0
  150.0826  137.6190  154.3664 N   0  3  1  0  0  0  0  0  0  0  0  0
  149.3744  136.9611  155.4899 C   0  0  0  0  0  0  0  0  0  0  0  0
  147.8607  136.9246  155.2233 C   0  0  0  0  0  0  0  0  0  0  0  0
  147.3829  138.2471  155.0113 O   0  0  0  0  0  0  0  0  0  0  0  0
  147.9860  138.8638  153.8791 C   0  0  1  0  0  0  0  0  0  0  0  0
  147.3410  140.2402  153.6827 C   0  0  0  0  0  0  0  0  0  0  0  0
  149.5068  138.9626  154.1097 C   0  0  0  0  0  0  0  0  0  0  0  0
  151.4574  141.3875  157.7846 C   0  0  0  0  0  0  0  0  0  0  0  0
  152.2873  141.1047  158.8673 C   0  0  0  0  0  0  0  0  0  0  0  0
  152.5048  142.1386  159.8059 C   0  0  0  0  0  0  0  0  0  0  0  0
  153.4068  141.8586  160.9960 C   0  0  0  0  0  0  0  0  0  0  0  0
  151.6209  145.4333  160.3836 H   0  0  0  0  0  0  0  0  0  0  0  0
  153.2059  144.7460  160.7277 H   0  0  0  0  0  0  0  0  0  0  0  0
  151.7880  144.2151  161.6454 H   0  0  0  0  0  0  0  0  0  0  0  0
  150.5925  144.6484  158.4135 H   0  0  0  0  0  0  0  0  0  0  0  0
  149.7348  141.0425  154.9817 H   0  0  0  0  0  0  0  0  0  0  0  0
  152.1808  138.9891  157.3249 H   0  0  0  0  0  0  0  0  0  0  0  0
  150.6041  138.6042  156.6892 H   0  0  0  0  0  0  0  0  0  0  0  0
  151.8231  139.7838  154.4799 H   0  0  0  0  0  0  0  0  0  0  0  0
  153.7585  137.9894  155.1013 H   0  0  0  0  0  0  0  0  0  0  0  0
  152.0473  137.4566  153.5897 H   0  0  0  0  0  0  0  0  0  0  0  0
  151.8420  136.7862  155.1861 H   0  0  0  0  0  0  0  0  0  0  0  0
  149.7463  135.9440  155.6197 H   0  0  0  0  0  0  0  0  0  0  0  0
  149.5785  137.4995  156.4168 H   0  0  0  0  0  0  0  0  0  0  0  0
  147.6309  136.2976  154.3603 H   0  0  0  0  0  0  0  0  0  0  0  0
  147.3391  136.4930  156.0777 H   0  0  0  0  0  0  0  0  0  0  0  0
  147.7871  138.2585  152.9929 H   0  0  0  0  0  0  0  0  0  0  0  0
  147.7595  140.7502  152.8145 H   0  0  0  0  0  0  0  0  0  0  0  0
  147.4968  140.8782  154.5533 H   0  0  0  0  0  0  0  0  0  0  0  0
  146.2660  140.1479  153.5263 H   0  0  0  0  0  0  0  0  0  0  0  0
  149.7157  139.6167  154.9579 H   0  0  0  0  0  0  0  0  0  0  0  0
  149.9743  139.4154  153.2361 H   0  0  0  0  0  0  0  0  0  0  0  0
  152.7530  140.1388  158.9915 H   0  0  0  0  0  0  0  0  0  0  0  0
  153.7637  140.8283  160.9928 H   0  0  0  0  0  0  0  0  0  0  0  0
  152.8704  142.0208  161.9313 H   0  0  0  0  0  0  0  0  0  0  0  0
  154.2781  142.5135  160.9774 H   0  0  0  0  0  0  0  0  0  0  0  0
  149.8989  137.0557  153.5480 H   0  0  0  0  0  0  0  0  0  0  0  0
  149.5423  143.3575  156.0729 H   0  0  0  0  0  0  0  0  0  0  0  0
  1  2  1  0  0  0  0
  1 23  1  0  0  0  0
  1 24  1  0  0  0  0
  1 25  1  0  0  0  0
  2 21  1  0  0  0  0
  2  3  2  0  0  0  0
  3  4  1  0  0  0  0
  3 26  1  0  0  0  0
  4 19  2  0  0  0  0
  4  5  1  0  0  0  0
  5  6  2  0  0  0  0
  5 49  1  0  0  0  0
  6  7  1  0  0  0  0
  6 27  1  0  0  0  0
  7  8  1  0  0  0  0
  7 19  1  0  0  0  0
  8  9  1  0  0  0  0
  8 28  1  0  0  0  0
  8 29  1  0  0  0  0
  9 10  1  0  0  0  0
  9 11  1  0  0  0  0
  9 30  1  0  0  0  0
 10 31  1  0  0  0  0
 11 12  1  0  0  0  0
 11 32  1  0  0  0  0
 11 33  1  0  0  0  0
 12 18  1  0  0  0  0
 12 13  1  0  0  0  0
 12 48  1  0  0  0  0
 13 14  1  0  0  0  0
 13 34  1  0  0  0  0
 13 35  1  0  0  0  0
 14 15  1  0  0  0  0
 14 36  1  0  0  0  0
 14 37  1  0  0  0  0
 15 16  1  0  0  0  0
 16 17  1  0  0  0  0
 16 18  1  0  0  0  0
 16 38  1  0  0  0  0
 17 39  1  0  0  0  0
 17 40  1  0  0  0  0
 17 41  1  0  0  0  0
 18 42  1  0  0  0  0
 18 43  1  0  0  0  0
 19 20  1  0  0  0  0
 20 21  2  0  0  0  0
 20 44  1  0  0  0  0
 21 22  1  0  0  0  0
 22 45  1  0  0  0  0
 22 46  1  0  0  0  0
 22 47  1  0  0  0  0
M  CHG  1   5   1
M  CHG  1  12   1
M  END
> <s_m_source_file>
AV-unprocessed.smi

> <i_m_source_file_index>
1554

> <i_lp_mmshare_version>
43012

> <i_f3d_flags>
0

> <s_epik_input>
W0NIM11jKFtjSF0xKWMoW0NIM10pW2NIXWMoYzEyKW4oW2NIXW4yKVtDSDJdW0NASF0oW09IXSlbQ0gyXU4zW0NIMl1bQ0gyXU9bQ0BASF0oW0NIM10pW0NIMl0z

> <s_epik_cmdline>
J2VwaWtfcHl0aG9uJywgJy1waCcsICc3LjAnLCAnLXRuJywgJzgnLCAnLW1hJywgJzIwMCcsICctbWV0YWxfYmluZGluZycsICctaW1hZScsICc8aW5maWxlLm1hZT4nLCAnLW9tYWUnLCAnPG91dGZpbGUubWFlPic=

> <r_epik_Ionization_Penalty>
1.8848

> <r_epik_Ionization_Penalty_Charging>
1.88479

> <r_epik_Ionization_Penalty_Neutral>
1.42224e-05

> <r_epik_State_Penalty>
1.94551

> <r_epik_Charging_Adjusted_Penalty>
3.8303

> <i_epik_Tot_Q>
2

> <i_epik_Tot_abs_Q>
2

> <r_epik_Metal_State_Penalty>
5.95849

> <b_epik_Metal_Only>
0

> <s_lp_Force_Field>
OPLS_2005

> <r_lp_Energy>
30.3036

> <b_lp_Chiralities_Consistent>
1

> <s_lp_Variant>
AV-unprocessed.smi:1554-18

> <Gold.Version>
5.8.1

> <Gold.Id.Protein>
6NUR|6NUR_protein|mol2

> <Gold.PLP.Fitness>
59.6779

> <Gold.PLP.PLP>
-46.9333

> <Gold.PLP.part.hbond>
-3.0000

> <Gold.PLP.part.metal>
0.0000

> <Gold.PLP.part.buried>
-5.2371

> <Gold.PLP.part.nonpolar>
-40.5661

> <Gold.PLP.part.repulsive>
0.2005

> <Gold.PLP.ligand.clash>
0.0000

> <Gold.PLP.ligand.torsion>
1.1500

> <Gold.PLP.Chemscore.Hbond>
5.0000

> <Gold.PLP.Chemscore.CHOScore>
0.0000

> <Gold.PLP.Chemscore.Metal>
0.0000

> <Gold.Chemscore.Hbonds>
donor molecule, donor type, donor heavy atom, donor atom, acceptor molecule, acceptor atom, score
      L1  H     5    49       P1  8028  2.00
      L1  H    12    48       P1  7948  1.85
      P1  H  7997  8010       L1    10  0.98

> <Gold.PLP.Chemscore.Internal.Correction>
0.0445

> <Gold.Rescore>
     Score         DG    S(hbond)    S(metal)    S(lipo)     H(rot)  DE(clash)    DE(int)     intcor
     22.08     -23.55       2.77        0.00     121.63       2.11       0.43       1.04       ----

> <Gold.Chemscore.Fitness>
22.0801

> <Gold.Chemscore.DG>
-23.5485

> <Gold.Chemscore.ZeroCoef>
-5.4800

> <Gold.Chemscore.Hbond>
2.7681

> <Gold.Chemscore.Metal>
0.0000

> <Gold.Chemscore.Lipo>
121.6273

> <Gold.Chemscore.Internal_Hbond>
0.0000

> <Gold.Chemscore.DEClash>
0.4266

> <Gold.Chemscore.DEInternal>
1.0419

> <Gold.Chemscore.Rot>
2.1122

> <Gold.Chemscore.Internal.Correction>
   9.000000E+99

> <Gold.Chemscore.Hbonds>
donor molecule, donor type, donor heavy atom, donor atom, acceptor molecule, acceptor atom, score
      L1  H     5    49       P1  8028  0.97
      L1  H    12    48       P1  7948  0.40
      P1  H  7997  8010       L1    10  0.93

> <Gold.Chemscore.Hbond.Weighted>
-9.2454

> <Gold.Chemscore.Metal.Weighted>
-0.0000

> <Gold.Chemscore.Lipo.Weighted>
-14.2304

> <Gold.Chemscore.Internal_Hbond.Weighted>
0.0000

> <Gold.Chemscore.DEClash.Weighted>
0.4266

> <Gold.Chemscore.DEInternal.Weighted>
1.0419

> <Gold.Chemscore.Rot.Weighted>
5.4073

> <Gold.Chemscore.Internal.Correction.Weighted>
   9.000000E+99

> <Gold.Protein.RotatedTorsions>
[ 6907 6896 6895 6894 ] final -115.51 input  -60.11 | X-H torsion
[ 7974 7965 7964 7962 ] final -115.01 input  175.53 | X-H torsion
[ 8008 7997 7996 7995 ] final  110.61 input   59.86 | X-H torsion
[ 10167 10162 10161 10158 ] final   -7.77 input  -65.29 | X-H torsion
[ 10718 10713 10712 10709 ] final  152.64 input   66.30 | X-H torsion
[ 10763 10752 10751 10750 ] final -142.68 input  -60.55 | X-H torsion
[ 11005 11000 10999 10996 ] final   93.91 input  -57.11 | X-H torsion

> <Gold.Protein.ActiveResidues>
 VAL166  LYS551  ARG553  GLY616  TRP617  ASP618  TYR619  PRO620  LYS621  CYS622 
 ASP623  PHE694  ASN695  SER759  ASP760  ASP761  ALA762  ILE779  LEU786  VAL792 
 PHE793  MET794  SER795  GLU796  ALA797  LYS798  CYS799  TRP800  GLU811  SER814 

> <Gold.Protein.RotatedAtoms>
  150.7983  133.8648  159.3241 H   0  0  0  0  0  0  0  0  0  0  0  0  # atno 6907 bound_to 6896
  151.6467  135.1004  160.0162 H   0  0  0  0  0  0  0  0  0  0  0  0  # atno 6908 bound_to 6896
  152.4068  133.6861  159.6398 H   0  0  0  0  0  0  0  0  0  0  0  0  # atno 6909 bound_to 6896
  145.1134  140.8626  143.3856 H   0  0  0  0  0  0  0  0  0  0  0  0  # atno 7974 bound_to 7965
  156.2065  140.3035  155.9638 H   0  0  0  0  0  0  0  0  0  0  0  0  # atno 8008 bound_to 7997
  155.2829  140.0438  157.3034 H   0  0  0  0  0  0  0  0  0  0  0  0  # atno 8009 bound_to 7997
  154.5640  140.2328  155.8300 H   0  0  0  0  0  0  0  0  0  0  0  0  # atno 8010 bound_to 7997
  140.7039  143.6043  150.8766 H   0  0  0  0  0  0  0  0  0  0  0  0  # atno 10167 bound_to 10162
  157.2552  131.0787  151.1703 H   0  0  0  0  0  0  0  0  0  0  0  0  # atno 10718 bound_to 10713
  154.8499  135.3489  154.6067 H   0  0  0  0  0  0  0  0  0  0  0  0  # atno 10763 bound_to 10752
  153.6676  135.6986  153.5162 H   0  0  0  0  0  0  0  0  0  0  0  0  # atno 10764 bound_to 10752
  153.2768  135.4276  155.0997 H   0  0  0  0  0  0  0  0  0  0  0  0  # atno 10765 bound_to 10752
  139.8804  134.8816  156.3786 H   0  0  0  0  0  0  0  0  0  0  0  0  # atno 11005 bound_to 11000
  145.0821  139.2952  143.5778 LP  0  0  0  0  0  0  0  0  0  0  0  0  # atno 17320 bound_to 7965
  146.3525  140.0330  142.8649 LP  0  0  0  0  0  0  0  0  0  0  0  0  # atno 17321 bound_to 7965
  139.9767  143.5996  152.2956 LP  0  0  0  0  0  0  0  0  0  0  0  0  # atno 17342 bound_to 10162
  139.6602  144.7662  151.1977 LP  0  0  0  0  0  0  0  0  0  0  0  0  # atno 17343 bound_to 10162
  157.3235  130.6949  149.6283 LP  0  0  0  0  0  0  0  0  0  0  0  0  # atno 17370 bound_to 10713
  155.9665  130.4328  150.4980 LP  0  0  0  0  0  0  0  0  0  0  0  0  # atno 17371 bound_to 10713
  140.9414  133.7512  156.0152 LP  0  0  0  0  0  0  0  0  0  0  0  0  # atno 17394 bound_to 11000
  140.8214  134.3284  157.5380 LP  0  0  0  0  0  0  0  0  0  0  0  0  # atno 17395 bound_to 11000

$$$$
