AV-unprocessed.smi:701|AV-procd|sdf|3408|dock1
  -GOLD-   22720 0383D 1   1.00000     0.00000
 Structure written by MMmdl.
 49 51  0  0  0  0  0  0  0  0  1 V2000
  154.1540  141.0976  160.9537 C   0  0  0  0  0  0  0  0  0  0  0  0
  153.4465  140.5036  159.7338 C   0  0  0  0  0  0  0  0  0  0  0  0
  152.9844  141.5640  158.9146 O   0  0  0  0  0  0  0  0  0  0  0  0
  151.5695  141.7117  158.9325 C   0  0  2  0  0  0  0  0  0  0  0  0
  150.8810  140.8044  157.9041 C   0  0  0  0  0  0  0  0  0  0  0  0
  151.0581  141.9533  156.9107 C   0  0  1  0  0  0  0  0  0  0  0  0
  149.9160  142.1113  156.0180 N   0  0  0  0  0  0  0  0  0  0  0  0
  149.6104  141.2627  155.0262 C   0  0  0  0  0  0  0  0  0  0  0  0
  150.2784  140.2606  154.7679 O   0  0  0  0  0  0  0  0  0  0  0  0
  148.3804  141.6191  154.1806 C   0  0  0  0  0  0  0  0  0  0  0  0
  147.3710  140.5507  154.1762 N   0  0  0  0  0  0  0  0  0  0  0  0
  147.6481  139.3250  153.5876 C   0  0  0  0  0  0  0  0  0  0  0  0
  146.7703  138.2941  153.5635 C   0  0  0  0  0  0  0  0  0  0  0  0
  145.4528  138.4315  154.1751 C   0  0  0  0  0  0  0  0  0  0  0  0
  144.5899  137.5570  154.2047 O   0  0  0  0  0  0  0  0  0  0  0  0
  145.2124  139.6788  154.7576 N   0  0  0  0  0  0  0  0  0  0  0  0
  146.1133  140.7445  154.7876 C   0  0  0  0  0  0  0  0  0  0  0  0
  145.8014  141.8025  155.3330 O   0  0  0  0  0  0  0  0  0  0  0  0
  151.0873  142.9373  158.1094 C   0  0  0  0  0  0  0  0  0  0  0  0
  149.7355  143.5389  158.5618 C   0  0  0  0  0  0  0  0  0  0  0  0
  149.8393  144.3232  159.8819 C   0  0  0  0  0  0  0  0  0  0  0  0
  150.8874  145.4395  159.7867 C   0  0  0  0  0  0  0  0  0  0  0  0
  152.2346  144.8976  159.2916 C   0  0  0  0  0  0  0  0  0  0  0  0
  152.0673  144.1168  157.9779 C   0  0  0  0  0  0  0  0  0  0  0  0
  144.3136  139.8203  155.1949 H   0  0  0  0  0  0  0  0  0  0  0  0
  154.5280  140.3111  161.6091 H   0  0  0  0  0  0  0  0  0  0  0  0
  153.4746  141.7227  161.5341 H   0  0  0  0  0  0  0  0  0  0  0  0
  155.0015  141.7133  160.6520 H   0  0  0  0  0  0  0  0  0  0  0  0
  154.1354  139.8642  159.1809 H   0  0  0  0  0  0  0  0  0  0  0  0
  152.6071  139.8850  160.0542 H   0  0  0  0  0  0  0  0  0  0  0  0
  151.1443  141.6577  159.9355 H   0  0  0  0  0  0  0  0  0  0  0  0
  151.4234  139.8954  157.6437 H   0  0  0  0  0  0  0  0  0  0  0  0
  149.8403  140.5923  158.1548 H   0  0  0  0  0  0  0  0  0  0  0  0
  152.0195  141.8877  156.3953 H   0  0  0  0  0  0  0  0  0  0  0  0
  149.3236  142.9160  156.1622 H   0  0  0  0  0  0  0  0  0  0  0  0
  147.9382  142.5541  154.5309 H   0  0  0  0  0  0  0  0  0  0  0  0
  148.7190  141.8246  153.1643 H   0  0  0  0  0  0  0  0  0  0  0  0
  148.6142  139.1763  153.1267 H   0  0  0  0  0  0  0  0  0  0  0  0
  147.0448  137.3621  153.0908 H   0  0  0  0  0  0  0  0  0  0  0  0
  149.3466  144.2060  157.7911 H   0  0  0  0  0  0  0  0  0  0  0  0
  148.9832  142.7589  158.6797 H   0  0  0  0  0  0  0  0  0  0  0  0
  148.8687  144.7487  160.1380 H   0  0  0  0  0  0  0  0  0  0  0  0
  150.1004  143.6463  160.6956 H   0  0  0  0  0  0  0  0  0  0  0  0
  150.5332  146.2086  159.0991 H   0  0  0  0  0  0  0  0  0  0  0  0
  151.0099  145.9234  160.7558 H   0  0  0  0  0  0  0  0  0  0  0  0
  152.9352  145.7207  159.1492 H   0  0  0  0  0  0  0  0  0  0  0  0
  152.6715  144.2473  160.0504 H   0  0  0  0  0  0  0  0  0  0  0  0
  153.0454  143.7711  157.6426 H   0  0  0  0  0  0  0  0  0  0  0  0
  151.7230  144.7989  157.1994 H   0  0  0  0  0  0  0  0  0  0  0  0
  1  2  1  0  0  0  0
  1 26  1  0  0  0  0
  1 27  1  0  0  0  0
  1 28  1  0  0  0  0
  2  3  1  0  0  0  0
  2 29  1  0  0  0  0
  2 30  1  0  0  0  0
  3  4  1  0  0  0  0
  4 19  1  0  0  0  0
  4  5  1  0  0  0  0
  4 31  1  0  0  0  0
  5  6  1  0  0  0  0
  5 32  1  0  0  0  0
  5 33  1  0  0  0  0
  6  7  1  0  0  0  0
  6 19  1  0  0  0  0
  6 34  1  0  0  0  0
  7  8  1  0  0  0  0
  7 35  1  0  0  0  0
  8  9  2  0  0  0  0
  8 10  1  0  0  0  0
 10 11  1  0  0  0  0
 10 36  1  0  0  0  0
 10 37  1  0  0  0  0
 11 17  1  0  0  0  0
 11 12  1  0  0  0  0
 12 13  2  0  0  0  0
 12 38  1  0  0  0  0
 13 14  1  0  0  0  0
 13 39  1  0  0  0  0
 14 15  2  0  0  0  0
 14 16  1  0  0  0  0
 16 25  1  0  0  0  0
 16 17  1  0  0  0  0
 17 18  2  0  0  0  0
 19 24  1  0  0  0  0
 19 20  1  0  0  0  0
 20 21  1  0  0  0  0
 20 40  1  0  0  0  0
 20 41  1  0  0  0  0
 21 22  1  0  0  0  0
 21 42  1  0  0  0  0
 21 43  1  0  0  0  0
 22 23  1  0  0  0  0
 22 44  1  0  0  0  0
 22 45  1  0  0  0  0
 23 24  1  0  0  0  0
 23 46  1  0  0  0  0
 23 47  1  0  0  0  0
 24 48  1  0  0  0  0
 24 49  1  0  0  0  0
M  END
> <s_m_source_file>
AV-unprocessed.smi

> <i_m_source_file_index>
701

> <i_lp_mmshare_version>
43012

> <i_f3d_flags>
0

> <s_epik_input>
W0NIMl0xW0NIMl1bQ0gyXVtDSDJdW0NIMl1DMTJbQ0BIXShPW0NIMl1bQ0gzXSlbQ0gyXVtDQEhdMltOSF1DKD1PKVtDSDJdbjNbY0hdW2NIXWMoPU8pW25IXWMzPU8=

> <s_epik_cmdline>
J2VwaWtfcHl0aG9uJywgJy1waCcsICc3LjAnLCAnLXRuJywgJzgnLCAnLW1hJywgJzIwMCcsICctbWV0YWxfYmluZGluZycsICctaW1hZScsICc8aW5maWxlLm1hZT4nLCAnLW9tYWUnLCAnPG91dGZpbGUubWFlPic=

> <r_lp_tautomer_probability>
0.999537

> <r_epik_Ionization_Penalty>
0.00304597

> <r_epik_Ionization_Penalty_Charging>
0.00304595

> <r_epik_Ionization_Penalty_Neutral>
1.88422e-08

> <r_epik_State_Penalty>
0.00214084

> <r_epik_Charging_Adjusted_Penalty>
0.00518679

> <i_epik_Tot_Q>
0

> <i_epik_Tot_abs_Q>
0

> <r_epik_Metal_State_Penalty>
0.361872

> <b_epik_Metal_Only>
0

> <s_lp_Force_Field>
OPLS_2005

> <r_lp_Energy>
27.2214

> <b_lp_Chiralities_Consistent>
1

> <s_lp_Variant>
AV-unprocessed.smi:701-1

> <Gold.Version>
5.8.1

> <Gold.Id.Protein>
6NUR|6NUR_protein|mol2

> <Gold.PLP.Fitness>
52.4564

> <Gold.PLP.PLP>
-44.3864

> <Gold.PLP.part.hbond>
-3.0000

> <Gold.PLP.part.metal>
0.0000

> <Gold.PLP.part.buried>
-2.4495

> <Gold.PLP.part.nonpolar>
-38.5146

> <Gold.PLP.part.repulsive>
0.4283

> <Gold.PLP.ligand.clash>
0.0000

> <Gold.PLP.ligand.torsion>
0.6422

> <Gold.PLP.Chemscore.Hbond>
1.9920

> <Gold.PLP.Chemscore.CHOScore>
0.9949

> <Gold.PLP.Chemscore.Metal>
0.0000

> <Gold.Chemscore.Hbonds>
donor molecule, donor type, donor heavy atom, donor atom, acceptor molecule, acceptor atom, score
      L1  H     7    35       P1  8028  0.96
      P1  H  7989  7998       L1     9  1.00
      L1  C    12    38       P1  7957  1.00

> <Gold.PLP.Chemscore.Internal.Correction>
0.3938

> <Gold.Rescore>
     Score         DG    S(hbond)    S(metal)    S(lipo)     H(rot)  DE(clash)    DE(int)     intcor
     18.20     -18.87       1.63        0.00     113.82       2.09       0.02       0.65       ----

> <Gold.Chemscore.Fitness>
18.2044

> <Gold.Chemscore.DG>
-18.8704

> <Gold.Chemscore.ZeroCoef>
-5.4800

> <Gold.Chemscore.Hbond>
1.6263

> <Gold.Chemscore.Metal>
0.0000

> <Gold.Chemscore.Lipo>
113.8219

> <Gold.Chemscore.Internal_Hbond>
0.0000

> <Gold.Chemscore.DEClash>
0.0180

> <Gold.Chemscore.DEInternal>
0.6480

> <Gold.Chemscore.Rot>
2.0933

> <Gold.Chemscore.Internal.Correction>
   9.000000E+99

> <Gold.Chemscore.Hbonds>
donor molecule, donor type, donor heavy atom, donor atom, acceptor molecule, acceptor atom, score
      L1  H     7    35       P1  8028  0.92
      P1  H  7989  7998       L1     9  0.43

> <Gold.Chemscore.Hbond.Weighted>
-5.4320

> <Gold.Chemscore.Metal.Weighted>
-0.0000

> <Gold.Chemscore.Lipo.Weighted>
-13.3172

> <Gold.Chemscore.Internal_Hbond.Weighted>
0.0000

> <Gold.Chemscore.DEClash.Weighted>
0.0180

> <Gold.Chemscore.DEInternal.Weighted>
0.6480

> <Gold.Chemscore.Rot.Weighted>
5.3588

> <Gold.Chemscore.Internal.Correction.Weighted>
   9.000000E+99

> <Gold.Protein.RotatedTorsions>
[ 6907 6896 6895 6894 ] final  -56.60 input  -60.11 | X-H torsion
[ 7974 7965 7964 7962 ] final  -11.83 input  175.53 | X-H torsion
[ 8008 7997 7996 7995 ] final   47.65 input   59.86 | X-H torsion
[ 10167 10162 10161 10158 ] final -176.47 input  -65.29 | X-H torsion
[ 10718 10713 10712 10709 ] final -152.69 input   66.30 | X-H torsion
[ 10763 10752 10751 10750 ] final  -19.72 input  -60.55 | X-H torsion
[ 11005 11000 10999 10996 ] final  108.26 input  -57.11 | X-H torsion

> <Gold.Protein.ActiveResidues>
 VAL166  LYS551  ARG553  GLY616  TRP617  ASP618  TYR619  PRO620  LYS621  CYS622 
 ASP623  PHE694  ASN695  SER759  ASP760  ASP761  ALA762  ILE779  LEU786  VAL792 
 PHE793  MET794  SER795  GLU796  ALA797  LYS798  CYS799  TRP800  GLU811  SER814 

> <Gold.Protein.RotatedAtoms>
  150.8154  134.7333  159.6724 H   0  0  0  0  0  0  0  0  0  0  0  0  # atno 6907 bound_to 6896
  152.4273  134.5841  159.9966 H   0  0  0  0  0  0  0  0  0  0  0  0  # atno 6908 bound_to 6896
  151.6040  133.3316  159.3089 H   0  0  0  0  0  0  0  0  0  0  0  0  # atno 6909 bound_to 6896
  146.2174  140.2968  142.8372 H   0  0  0  0  0  0  0  0  0  0  0  0  # atno 7974 bound_to 7965
  155.3726  140.3424  155.4244 H   0  0  0  0  0  0  0  0  0  0  0  0  # atno 8008 bound_to 7997
  156.1654  140.1614  156.8574 H   0  0  0  0  0  0  0  0  0  0  0  0  # atno 8009 bound_to 7997
  154.5180  140.0774  156.8100 H   0  0  0  0  0  0  0  0  0  0  0  0  # atno 8010 bound_to 7997
  139.5528  144.2065  152.1107 H   0  0  0  0  0  0  0  0  0  0  0  0  # atno 10167 bound_to 10162
  156.4759  130.8280  151.2508 H   0  0  0  0  0  0  0  0  0  0  0  0  # atno 10718 bound_to 10713
  153.6091  135.6997  153.5354 H   0  0  0  0  0  0  0  0  0  0  0  0  # atno 10763 bound_to 10752
  153.3032  135.4123  155.1270 H   0  0  0  0  0  0  0  0  0  0  0  0  # atno 10764 bound_to 10752
  154.8567  135.3654  154.5629 H   0  0  0  0  0  0  0  0  0  0  0  0  # atno 10765 bound_to 10752
  139.8841  134.9425  156.5946 H   0  0  0  0  0  0  0  0  0  0  0  0  # atno 11005 bound_to 11000
  144.9086  140.7730  143.5822 LP  0  0  0  0  0  0  0  0  0  0  0  0  # atno 17320 bound_to 7965
  145.2898  139.1888  143.4746 LP  0  0  0  0  0  0  0  0  0  0  0  0  # atno 17321 bound_to 7965
  140.1564  144.5067  150.6658 LP  0  0  0  0  0  0  0  0  0  0  0  0  # atno 17342 bound_to 10162
  140.6795  143.2320  151.5422 LP  0  0  0  0  0  0  0  0  0  0  0  0  # atno 17343 bound_to 10162
  157.7487  131.0061  150.3139 LP  0  0  0  0  0  0  0  0  0  0  0  0  # atno 17370 bound_to 10713
  156.3571  130.3840  149.7281 LP  0  0  0  0  0  0  0  0  0  0  0  0  # atno 17371 bound_to 10713
  140.7930  133.8567  155.8662 LP  0  0  0  0  0  0  0  0  0  0  0  0  # atno 17394 bound_to 11000
  140.9660  134.1593  157.4615 LP  0  0  0  0  0  0  0  0  0  0  0  0  # atno 17395 bound_to 11000

$$$$
