AV-unprocessed.smi:1419|AV-procd|sdf|5784|dock6
  -GOLD-   22720 5433D 1   1.00000     0.00000
 Structure written by MMmdl.
 41 42  0  0  0  0  0  0  0  0  1 V2000
  150.2723  143.0509  158.6703 C   0  0  0  0  0  0  0  0  0  0  0  0
  151.2952  141.9112  158.5698 C   0  0  2  0  0  0  0  0  0  0  0  0
  152.7281  142.4220  158.8321 C   0  0  0  0  0  0  0  0  0  0  0  0
  152.9875  142.6819  160.2367 N   0  0  0  0  0  0  0  0  0  0  0  0
  153.6980  141.8818  161.1222 C   0  0  0  0  0  0  0  0  0  0  0  0
  153.6874  142.5320  162.3353 C   0  0  0  0  0  0  0  0  0  0  0  0
  152.9654  143.7181  162.2251 N   0  0  0  0  0  0  0  0  0  0  0  0
  152.5766  143.7343  160.9571 C   0  0  0  0  0  0  0  0  0  0  0  0
  151.1930  141.2998  157.2453 N   0  0  0  0  0  0  0  0  0  0  0  0
  152.0017  140.3477  156.7472 C   0  0  0  0  0  0  0  0  0  0  0  0
  152.9388  139.8761  157.3924 O   0  0  0  0  0  0  0  0  0  0  0  0
  151.7176  139.9749  155.4750 N   0  0  0  0  0  0  0  0  0  0  0  0
  152.5160  139.0968  154.6090 C   0  0  0  0  0  0  0  0  0  0  0  0
  151.7369  137.7883  154.3620 C   0  0  1  0  0  0  0  0  0  0  0  0
  151.6444  136.8757  155.5975 C   0  0  0  0  0  0  0  0  0  0  0  0
  150.4399  138.0904  153.8371 O   0  0  0  0  0  0  0  0  0  0  0  0
  149.6585  139.0127  154.6019 C   0  0  2  0  0  0  0  0  0  0  0  0
  148.3456  139.2569  153.8502 C   0  0  0  0  0  0  0  0  0  0  0  0
  150.4564  140.3143  154.8134 C   0  0  0  0  0  0  0  0  0  0  0  0
  150.2976  143.5135  159.6573 H   0  0  0  0  0  0  0  0  0  0  0  0
  149.2581  142.6857  158.5051 H   0  0  0  0  0  0  0  0  0  0  0  0
  150.4708  143.8301  157.9333 H   0  0  0  0  0  0  0  0  0  0  0  0
  151.0360  141.1799  159.3372 H   0  0  0  0  0  0  0  0  0  0  0  0
  153.4628  141.7045  158.4631 H   0  0  0  0  0  0  0  0  0  0  0  0
  152.8993  143.3517  158.2878 H   0  0  0  0  0  0  0  0  0  0  0  0
  154.1497  140.9482  160.8211 H   0  0  0  0  0  0  0  0  0  0  0  0
  154.1365  142.2376  163.2723 H   0  0  0  0  0  0  0  0  0  0  0  0
  151.9823  144.5344  160.5413 H   0  0  0  0  0  0  0  0  0  0  0  0
  150.4517  141.6377  156.6493 H   0  0  0  0  0  0  0  0  0  0  0  0
  152.6856  139.6064  153.6594 H   0  0  0  0  0  0  0  0  0  0  0  0
  153.5109  138.8735  154.9940 H   0  0  0  0  0  0  0  0  0  0  0  0
  152.2600  137.2276  153.5869 H   0  0  0  0  0  0  0  0  0  0  0  0
  152.6378  136.5872  155.9420 H   0  0  0  0  0  0  0  0  0  0  0  0
  151.0970  135.9623  155.3648 H   0  0  0  0  0  0  0  0  0  0  0  0
  151.1396  137.3611  156.4312 H   0  0  0  0  0  0  0  0  0  0  0  0
  149.4173  138.5715  155.5697 H   0  0  0  0  0  0  0  0  0  0  0  0
  147.7041  139.9495  154.3955 H   0  0  0  0  0  0  0  0  0  0  0  0
  147.7934  138.3261  153.7191 H   0  0  0  0  0  0  0  0  0  0  0  0
  148.5291  139.6778  152.8613 H   0  0  0  0  0  0  0  0  0  0  0  0
  149.8591  141.0272  155.3834 H   0  0  0  0  0  0  0  0  0  0  0  0
  150.6650  140.7948  153.8563 H   0  0  0  0  0  0  0  0  0  0  0  0
  1  2  1  0  0  0  0
  1 20  1  0  0  0  0
  1 21  1  0  0  0  0
  1 22  1  0  0  0  0
  2  3  1  0  0  0  0
  2  9  1  0  0  0  0
  2 23  1  0  0  0  0
  3  4  1  0  0  0  0
  3 24  1  0  0  0  0
  3 25  1  0  0  0  0
  4  8  1  0  0  0  0
  4  5  1  0  0  0  0
  5  6  2  0  0  0  0
  5 26  1  0  0  0  0
  6  7  1  0  0  0  0
  6 27  1  0  0  0  0
  7  8  2  0  0  0  0
  8 28  1  0  0  0  0
  9 10  1  0  0  0  0
  9 29  1  0  0  0  0
 10 11  2  0  0  0  0
 10 12  1  0  0  0  0
 12 19  1  0  0  0  0
 12 13  1  0  0  0  0
 13 14  1  0  0  0  0
 13 30  1  0  0  0  0
 13 31  1  0  0  0  0
 14 15  1  0  0  0  0
 14 16  1  0  0  0  0
 14 32  1  0  0  0  0
 15 33  1  0  0  0  0
 15 34  1  0  0  0  0
 15 35  1  0  0  0  0
 16 17  1  0  0  0  0
 17 18  1  0  0  0  0
 17 19  1  0  0  0  0
 17 36  1  0  0  0  0
 18 37  1  0  0  0  0
 18 38  1  0  0  0  0
 18 39  1  0  0  0  0
 19 40  1  0  0  0  0
 19 41  1  0  0  0  0
M  END
> <s_m_source_file>
AV-unprocessed.smi

> <i_m_source_file_index>
1419

> <i_lp_mmshare_version>
43012

> <i_f3d_flags>
0

> <s_epik_input>
W2NIXTFuW2NIXVtjSF1uMVtDSDJdW0NAQEhdKFtDSDNdKVtOSF1DKD1PKU4yW0NIMl1bQ0BASF0oW0NIM10pT1tDQEBIXShbQ0gzXSlbQ0gyXTI=

> <s_epik_cmdline>
J2VwaWtfcHl0aG9uJywgJy1waCcsICc3LjAnLCAnLXRuJywgJzgnLCAnLW1hJywgJzIwMCcsICctbWV0YWxfYmluZGluZycsICctaW1hZScsICc8aW5maWxlLm1hZT4nLCAnLW9tYWUnLCAnPG91dGZpbGUubWFlPic=

> <r_lp_tautomer_probability>
1

> <r_epik_Ionization_Penalty>
0.625124

> <r_epik_Ionization_Penalty_Charging>
0.625093

> <r_epik_Ionization_Penalty_Neutral>
3.17415e-05

> <r_epik_State_Penalty>
0.641455

> <r_epik_Charging_Adjusted_Penalty>
1.26655

> <i_epik_Tot_Q>
0

> <i_epik_Tot_abs_Q>
0

> <r_epik_Metal_State_Penalty>
0.307717

> <b_epik_Metal_Only>
0

> <s_lp_Force_Field>
OPLS_2005

> <r_lp_Energy>
30.2714

> <b_lp_Chiralities_Consistent>
1

> <s_lp_Variant>
AV-unprocessed.smi:1419-11

> <Gold.Version>
5.8.1

> <Gold.Id.Protein>
6NUR|6NUR_protein|mol2

> <Gold.PLP.Fitness>
42.5344

> <Gold.PLP.PLP>
-41.3605

> <Gold.PLP.part.hbond>
-1.0000

> <Gold.PLP.part.metal>
0.0000

> <Gold.PLP.part.buried>
-1.5671

> <Gold.PLP.part.nonpolar>
-38.7337

> <Gold.PLP.part.repulsive>
0.5022

> <Gold.PLP.ligand.clash>
0.8887

> <Gold.PLP.ligand.torsion>
0.4641

> <Gold.PLP.Chemscore.Hbond>
0.9913

> <Gold.PLP.Chemscore.CHOScore>
0.0000

> <Gold.PLP.Chemscore.Metal>
0.0000

> <Gold.Chemscore.Hbonds>
donor molecule, donor type, donor heavy atom, donor atom, acceptor molecule, acceptor atom, score
      P1  H  7997  8009       L1    11  1.00

> <Gold.PLP.Chemscore.Internal.Correction>
0.0170

> <Gold.Rescore>
     Score         DG    S(hbond)    S(metal)    S(lipo)     H(rot)  DE(clash)    DE(int)     intcor
     13.04     -14.14       0.87        0.00      83.63       1.58       0.29       0.81       ----

> <Gold.Chemscore.Fitness>
13.0378

> <Gold.Chemscore.DG>
-14.1353

> <Gold.Chemscore.ZeroCoef>
-5.4800

> <Gold.Chemscore.Hbond>
0.8704

> <Gold.Chemscore.Metal>
0.0000

> <Gold.Chemscore.Lipo>
83.6320

> <Gold.Chemscore.Internal_Hbond>
0.0000

> <Gold.Chemscore.DEClash>
0.2870

> <Gold.Chemscore.DEInternal>
0.8105

> <Gold.Chemscore.Rot>
1.5769

> <Gold.Chemscore.Internal.Correction>
   9.000000E+99

> <Gold.Chemscore.Hbonds>
donor molecule, donor type, donor heavy atom, donor atom, acceptor molecule, acceptor atom, score
      P1  H  7997  8009       L1    11  0.87

> <Gold.Chemscore.Hbond.Weighted>
-2.9072

> <Gold.Chemscore.Metal.Weighted>
-0.0000

> <Gold.Chemscore.Lipo.Weighted>
-9.7849

> <Gold.Chemscore.Internal_Hbond.Weighted>
0.0000

> <Gold.Chemscore.DEClash.Weighted>
0.2870

> <Gold.Chemscore.DEInternal.Weighted>
0.8105

> <Gold.Chemscore.Rot.Weighted>
4.0369

> <Gold.Chemscore.Internal.Correction.Weighted>
   9.000000E+99

> <Gold.Protein.RotatedTorsions>
[ 6907 6896 6895 6894 ] final   54.43 input  -60.11 | X-H torsion
[ 7974 7965 7964 7962 ] final  117.08 input  175.53 | X-H torsion
[ 8008 7997 7996 7995 ] final  176.71 input   59.86 | X-H torsion
[ 10167 10162 10161 10158 ] final   82.03 input  -65.29 | X-H torsion
[ 10718 10713 10712 10709 ] final  -98.24 input   66.30 | X-H torsion
[ 10763 10752 10751 10750 ] final   93.82 input  -60.55 | X-H torsion
[ 11005 11000 10999 10996 ] final  -89.97 input  -57.11 | X-H torsion

> <Gold.Protein.ActiveResidues>
 VAL166  LYS551  ARG553  GLY616  TRP617  ASP618  TYR619  PRO620  LYS621  CYS622 
 ASP623  PHE694  ASN695  SER759  ASP760  ASP761  ALA762  ILE779  LEU786  VAL792 
 PHE793  MET794  SER795  GLU796  ALA797  LYS798  CYS799  TRP800  GLU811  SER814 

> <Gold.Protein.RotatedAtoms>
  152.3438  134.7098  160.0255 H   0  0  0  0  0  0  0  0  0  0  0  0  # atno 6907 bound_to 6896
  151.7474  133.3320  159.3390 H   0  0  0  0  0  0  0  0  0  0  0  0  # atno 6908 bound_to 6896
  150.7496  134.6155  159.6153 H   0  0  0  0  0  0  0  0  0  0  0  0  # atno 6909 bound_to 6896
  145.1717  139.3098  143.4464 H   0  0  0  0  0  0  0  0  0  0  0  0  # atno 7974 bound_to 7965
  156.0735  140.1376  156.9800 H   0  0  0  0  0  0  0  0  0  0  0  0  # atno 8008 bound_to 7997
  154.4545  140.0967  156.6767 H   0  0  0  0  0  0  0  0  0  0  0  0  # atno 8009 bound_to 7997
  155.5190  140.3456  155.4405 H   0  0  0  0  0  0  0  0  0  0  0  0  # atno 8010 bound_to 7997
  139.9330  144.6139  150.8326 H   0  0  0  0  0  0  0  0  0  0  0  0  # atno 10167 bound_to 10162
  156.0103  130.5229  150.6493 H   0  0  0  0  0  0  0  0  0  0  0  0  # atno 10718 bound_to 10713
  153.2346  135.4312  155.0632 H   0  0  0  0  0  0  0  0  0  0  0  0  # atno 10763 bound_to 10752
  154.8313  135.3388  154.6737 H   0  0  0  0  0  0  0  0  0  0  0  0  # atno 10764 bound_to 10752
  153.7163  135.7020  153.5080 H   0  0  0  0  0  0  0  0  0  0  0  0  # atno 10765 bound_to 10752
  141.1575  133.7663  156.9671 H   0  0  0  0  0  0  0  0  0  0  0  0  # atno 11005 bound_to 11000
  146.3467  140.1865  142.8589 LP  0  0  0  0  0  0  0  0  0  0  0  0  # atno 17320 bound_to 7965
  145.0226  140.8806  143.5158 LP  0  0  0  0  0  0  0  0  0  0  0  0  # atno 17321 bound_to 7965
  140.7632  143.3217  151.2606 LP  0  0  0  0  0  0  0  0  0  0  0  0  # atno 17342 bound_to 10162
  139.6767  143.9926  152.2785 LP  0  0  0  0  0  0  0  0  0  0  0  0  # atno 17343 bound_to 10162
  157.4258  131.0843  151.1087 LP  0  0  0  0  0  0  0  0  0  0  0  0  # atno 17370 bound_to 10713
  157.1675  130.6252  149.5630 LP  0  0  0  0  0  0  0  0  0  0  0  0  # atno 17371 bound_to 10713
  140.1154  134.9451  157.2126 LP  0  0  0  0  0  0  0  0  0  0  0  0  # atno 17394 bound_to 11000
  140.3140  134.2991  155.7260 LP  0  0  0  0  0  0  0  0  0  0  0  0  # atno 17395 bound_to 11000

$$$$
