AV-unprocessed.smi:3162|AV-procd|sdf|12066|dock7
  -GOLD-   2272017493D 1   1.00000     0.00000
 Structure written by MMmdl.
 37 37  0  0  0  0  0  0  0  0  2 V2000
  145.2924  138.8535  155.1328 C   0  0  0  0  0  0  0  0  0  0  0  0
  146.7667  138.5452  154.8286 C   0  0  0  0  0  0  0  0  0  0  0  0
  147.2733  139.1009  153.4793 C   0  0  1  0  0  0  0  0  0  0  0  0
  148.7097  138.7758  153.3152 N   0  3  0  0  0  0  0  0  0  0  0  0
  149.5817  139.0653  154.4758 C   0  0  1  0  0  0  0  0  0  0  0  0
  151.0434  138.6725  154.1849 C   0  0  0  0  0  0  0  0  0  0  0  0
  149.4359  140.5520  154.8609 C   0  0  0  0  0  0  0  0  0  0  0  0
  150.2081  140.9147  156.0356 N   0  0  0  0  0  0  0  0  0  0  0  0
  150.4732  142.1722  156.5354 C   0  0  0  0  0  0  0  0  0  0  0  0
  151.2316  142.0156  157.6608 C   0  0  0  0  0  0  0  0  0  0  0  0
  151.7887  143.0721  158.5710 C   0  0  0  0  0  0  0  0  0  0  0  0
  151.3718  140.6029  157.7715 C   0  0  0  0  0  0  0  0  0  0  0  0
  150.7566  139.9475  156.8005 N   0  0  0  0  0  0  0  0  0  0  0  0
  146.4792  138.5305  152.2953 C   0  0  0  0  0  0  0  0  0  0  0  0
  146.7955  138.9726  151.0751 N   0  0  0  0  0  0  0  0  0  0  0  0
  145.5854  137.7059  152.4786 O   0  0  0  0  0  0  0  0  0  0  0  0
  145.0224  138.4970  156.1269 H   0  0  0  0  0  0  0  0  0  0  0  0
  144.6220  138.3704  154.4219 H   0  0  0  0  0  0  0  0  0  0  0  0
  145.1004  139.9264  155.1024 H   0  0  0  0  0  0  0  0  0  0  0  0
  147.3698  138.9645  155.6349 H   0  0  0  0  0  0  0  0  0  0  0  0
  146.9246  137.4663  154.8712 H   0  0  0  0  0  0  0  0  0  0  0  0
  147.1462  140.1852  153.4786 H   0  0  0  0  0  0  0  0  0  0  0  0
  148.8022  137.8025  153.0630 H   0  0  0  0  0  0  0  0  0  0  0  0
  149.2216  138.4691  155.3158 H   0  0  0  0  0  0  0  0  0  0  0  0
  151.6832  138.8475  155.0501 H   0  0  0  0  0  0  0  0  0  0  0  0
  151.4494  139.2474  153.3520 H   0  0  0  0  0  0  0  0  0  0  0  0
  151.1346  137.6156  153.9354 H   0  0  0  0  0  0  0  0  0  0  0  0
  149.7498  141.1893  154.0327 H   0  0  0  0  0  0  0  0  0  0  0  0
  148.3895  140.7909  155.0577 H   0  0  0  0  0  0  0  0  0  0  0  0
  150.1065  143.0665  156.0529 H   0  0  0  0  0  0  0  0  0  0  0  0
  152.0473  142.6681  159.5501 H   0  0  0  0  0  0  0  0  0  0  0  0
  151.0753  143.8797  158.7361 H   0  0  0  0  0  0  0  0  0  0  0  0
  152.6930  143.5203  158.1593 H   0  0  0  0  0  0  0  0  0  0  0  0
  151.8993  140.0376  158.5255 H   0  0  0  0  0  0  0  0  0  0  0  0
  146.3059  138.6221  150.2642 H   0  0  0  0  0  0  0  0  0  0  0  0
  147.5322  139.6552  150.9656 H   0  0  0  0  0  0  0  0  0  0  0  0
  149.0426  139.3332  152.5409 H   0  0  0  0  0  0  0  0  0  0  0  0
  1  2  1  0  0  0  0
  1 17  1  0  0  0  0
  1 18  1  0  0  0  0
  1 19  1  0  0  0  0
  2  3  1  0  0  0  0
  2 20  1  0  0  0  0
  2 21  1  0  0  0  0
  3  4  1  0  0  0  0
  3 14  1  0  0  0  0
  3 22  1  0  0  0  0
  4  5  1  0  0  0  0
  4 23  1  0  0  0  0
  4 37  1  0  0  0  0
  5  6  1  0  0  0  0
  5  7  1  0  0  0  0
  5 24  1  0  0  0  0
  6 25  1  0  0  0  0
  6 26  1  0  0  0  0
  6 27  1  0  0  0  0
  7  8  1  0  0  0  0
  7 28  1  0  0  0  0
  7 29  1  0  0  0  0
  8 13  1  0  0  0  0
  8  9  1  0  0  0  0
  9 10  2  0  0  0  0
  9 30  1  0  0  0  0
 10 11  1  0  0  0  0
 10 12  1  0  0  0  0
 11 31  1  0  0  0  0
 11 32  1  0  0  0  0
 11 33  1  0  0  0  0
 12 13  2  0  0  0  0
 12 34  1  0  0  0  0
 14 15  1  0  0  0  0
 14 16  2  0  0  0  0
 15 35  1  0  0  0  0
 15 36  1  0  0  0  0
M  CHG  1   4   1
M  END
> <s_m_source_file>
AV-unprocessed.smi

> <i_m_source_file_index>
3162

> <i_lp_mmshare_version>
43012

> <i_f3d_flags>
0

> <s_epik_input>
W0NIM11bQ0gyXVtDQEBIXShDKD1PKVtOSDJdKVtOSF1bQ0BIXShbQ0gzXSlbQ0gyXW4xW2NIXWMoW0NIM10pW2NIXW4x

> <s_epik_cmdline>
J2VwaWtfcHl0aG9uJywgJy1waCcsICc3LjAnLCAnLXRuJywgJzgnLCAnLW1hJywgJzIwMCcsICctbWV0YWxfYmluZGluZycsICctaW1hZScsICc8aW5maWxlLm1hZT4nLCAnLW9tYWUnLCAnPG91dGZpbGUubWFlPic=

> <r_lp_tautomer_probability>
1

> <r_epik_Ionization_Penalty>
0.112112

> <r_epik_Ionization_Penalty_Charging>
0.112102

> <r_epik_Ionization_Penalty_Neutral>
9.73799e-06

> <r_epik_State_Penalty>
0.101811

> <r_epik_Charging_Adjusted_Penalty>
0.213914

> <i_epik_Tot_Q>
1

> <i_epik_Tot_abs_Q>
1

> <r_epik_Metal_State_Penalty>
0.101821

> <b_epik_Metal_Only>
0

> <s_lp_Force_Field>
OPLS_2005

> <r_lp_Energy>
5.38077

> <b_lp_Chiralities_Consistent>
1

> <s_lp_Variant>
AV-unprocessed.smi:3162-4

> <Gold.Version>
5.8.1

> <Gold.Id.Protein>
6NUR|6NUR_protein|mol2

> <Gold.PLP.Fitness>
44.0349

> <Gold.PLP.PLP>
-29.4411

> <Gold.PLP.part.hbond>
-3.4061

> <Gold.PLP.part.metal>
0.0000

> <Gold.PLP.part.buried>
-5.1550

> <Gold.PLP.part.nonpolar>
-22.2776

> <Gold.PLP.part.repulsive>
1.2726

> <Gold.PLP.ligand.clash>
0.0000

> <Gold.PLP.ligand.torsion>
0.1892

> <Gold.PLP.Chemscore.Hbond>
3.9760

> <Gold.PLP.Chemscore.CHOScore>
1.0000

> <Gold.PLP.Chemscore.Metal>
0.0000

> <Gold.Chemscore.Hbonds>
donor molecule, donor type, donor heavy atom, donor atom, acceptor molecule, acceptor atom, score
      L1  H     4    23       P1  7948  2.00
      L1  H     4    37       P1  7957  1.00
      L1  H    15    36       P1  7957  0.86
      L1  C     9    30       P1  8028  1.00

> <Gold.PLP.Chemscore.Internal.Correction>
0.0441

> <Gold.Rescore>
     Score         DG    S(hbond)    S(metal)    S(lipo)     H(rot)  DE(clash)    DE(int)     intcor
     15.12     -15.78       2.77        0.00      63.65       2.51       0.14       0.52       ----

> <Gold.Chemscore.Fitness>
15.1187

> <Gold.Chemscore.DG>
-15.7787

> <Gold.Chemscore.ZeroCoef>
-5.4800

> <Gold.Chemscore.Hbond>
2.7748

> <Gold.Chemscore.Metal>
0.0000

> <Gold.Chemscore.Lipo>
63.6486

> <Gold.Chemscore.Internal_Hbond>
0.0000

> <Gold.Chemscore.DEClash>
0.1360

> <Gold.Chemscore.DEInternal>
0.5240

> <Gold.Chemscore.Rot>
2.5062

> <Gold.Chemscore.Internal.Correction>
   9.000000E+99

> <Gold.Chemscore.Hbonds>
donor molecule, donor type, donor heavy atom, donor atom, acceptor molecule, acceptor atom, score
      L1  H     4    23       P1  7948  0.97
      L1  H     4    37       P1  7957  1.00
      L1  H    15    35       P1 10171  0.03
      L1  H    15    36       P1  7957  0.65

> <Gold.Chemscore.Hbond.Weighted>
-9.2677

> <Gold.Chemscore.Metal.Weighted>
-0.0000

> <Gold.Chemscore.Lipo.Weighted>
-7.4469

> <Gold.Chemscore.Internal_Hbond.Weighted>
0.0000

> <Gold.Chemscore.DEClash.Weighted>
0.1360

> <Gold.Chemscore.DEInternal.Weighted>
0.5240

> <Gold.Chemscore.Rot.Weighted>
6.4159

> <Gold.Chemscore.Internal.Correction.Weighted>
   9.000000E+99

> <Gold.Protein.RotatedTorsions>
[ 6907 6896 6895 6894 ] final  -90.82 input  -60.11 | X-H torsion
[ 7974 7965 7964 7962 ] final -123.21 input  175.53 | X-H torsion
[ 8008 7997 7996 7995 ] final   60.67 input   59.86 | X-H torsion
[ 10167 10162 10161 10158 ] final  139.81 input  -65.29 | X-H torsion
[ 10718 10713 10712 10709 ] final  -39.46 input   66.30 | X-H torsion
[ 10763 10752 10751 10750 ] final  -27.85 input  -60.55 | X-H torsion
[ 11005 11000 10999 10996 ] final -144.62 input  -57.11 | X-H torsion

> <Gold.Protein.ActiveResidues>
 VAL166  LYS551  ARG553  GLY616  TRP617  ASP618  TYR619  PRO620  LYS621  CYS622 
 ASP623  PHE694  ASN695  SER759  ASP760  ASP761  ALA762  ILE779  LEU786  VAL792 
 PHE793  MET794  SER795  GLU796  ALA797  LYS798  CYS799  TRP800  GLU811  SER814 

> <Gold.Protein.RotatedAtoms>
  150.6885  134.2373  159.4457 H   0  0  0  0  0  0  0  0  0  0  0  0  # atno 6907 bound_to 6896
  152.0319  134.9760  160.0582 H   0  0  0  0  0  0  0  0  0  0  0  0  # atno 6908 bound_to 6896
  152.1296  133.4365  159.4751 H   0  0  0  0  0  0  0  0  0  0  0  0  # atno 6909 bound_to 6896
  145.0211  140.7989  143.4380 H   0  0  0  0  0  0  0  0  0  0  0  0  # atno 7974 bound_to 7965
  155.5860  140.3492  155.4553 H   0  0  0  0  0  0  0  0  0  0  0  0  # atno 8008 bound_to 7997
  156.0337  140.1280  157.0256 H   0  0  0  0  0  0  0  0  0  0  0  0  # atno 8009 bound_to 7997
  154.4363  140.1038  156.6122 H   0  0  0  0  0  0  0  0  0  0  0  0  # atno 8010 bound_to 7997
  139.5067  144.6272  151.5908 H   0  0  0  0  0  0  0  0  0  0  0  0  # atno 10167 bound_to 10162
  156.2923  130.4230  149.8226 H   0  0  0  0  0  0  0  0  0  0  0  0  # atno 10718 bound_to 10713
  153.7387  135.6934  153.4972 H   0  0  0  0  0  0  0  0  0  0  0  0  # atno 10763 bound_to 10752
  153.2084  135.4411  155.0349 H   0  0  0  0  0  0  0  0  0  0  0  0  # atno 10764 bound_to 10752
  154.8228  135.3430  154.6914 H   0  0  0  0  0  0  0  0  0  0  0  0  # atno 10765 bound_to 10752
  140.8005  134.2862  157.4980 H   0  0  0  0  0  0  0  0  0  0  0  0  # atno 11005 bound_to 11000
  145.1894  139.2309  143.5251 LP  0  0  0  0  0  0  0  0  0  0  0  0  # atno 17320 bound_to 7965
  146.3485  140.1686  142.8590 LP  0  0  0  0  0  0  0  0  0  0  0  0  # atno 17321 bound_to 7965
  140.5993  143.9639  150.6375 LP  0  0  0  0  0  0  0  0  0  0  0  0  # atno 17342 bound_to 10162
  140.2846  143.3366  152.1120 LP  0  0  0  0  0  0  0  0  0  0  0  0  # atno 17343 bound_to 10162
  156.5635  130.8394  151.3336 LP  0  0  0  0  0  0  0  0  0  0  0  0  # atno 17370 bound_to 10713
  157.7346  130.9748  150.2035 LP  0  0  0  0  0  0  0  0  0  0  0  0  # atno 17371 bound_to 10713
  139.8722  134.9427  156.3832 LP  0  0  0  0  0  0  0  0  0  0  0  0  # atno 17394 bound_to 11000
  140.9299  133.7586  156.0011 LP  0  0  0  0  0  0  0  0  0  0  0  0  # atno 17395 bound_to 11000

$$$$
