AV-unprocessed.smi:178|AV-procd|sdf|1448|dock2
  -GOLD-   2262019243D 1   1.00000     0.00000
 Structure written by MMmdl.
 50 52  0  0  0  0  0  0  0  0  1 V2000
  150.5878  141.8926  156.5921 C   0  0  0  0  0  0  0  0  0  0  0  0
  150.4273  141.1002  155.4262 O   0  0  0  0  0  0  0  0  0  0  0  0
  149.1645  141.2421  154.7858 C   0  0  0  0  0  0  0  0  0  0  0  0
  148.2262  140.0327  155.0004 C   0  0  0  0  0  0  0  0  0  0  0  0
  148.9139  138.7409  155.0366 N   0  0  0  0  0  0  0  0  0  0  0  0
  150.1114  138.6570  154.2035 C   0  0  0  0  0  0  0  0  0  0  0  0
  151.1914  137.7285  154.7813 C   0  0  0  0  0  0  0  0  0  0  0  0
  152.4506  138.4373  155.0518 C   0  0  0  0  0  0  0  0  0  0  0  0
  153.4417  138.9948  155.2650 N   0  0  0  0  0  0  0  0  0  0  0  0
  148.0859  137.6841  154.8767 C   0  0  0  0  0  0  0  0  0  0  0  0
  148.1437  136.7045  155.8121 N   0  0  0  0  0  0  0  0  0  0  0  0
  147.3269  135.6505  155.7242 C   0  0  0  0  0  0  0  0  0  0  0  0
  146.3978  135.3881  154.8023 N   0  0  0  0  0  0  0  0  0  0  0  0
  146.3433  136.3707  153.8575 C   0  0  0  0  0  0  0  0  0  0  0  0
  147.1506  137.5410  153.8132 C   0  0  0  0  0  0  0  0  0  0  0  0
  146.8170  138.3072  152.7031 N   0  0  0  0  0  0  0  0  0  0  0  0
  145.8603  137.6313  152.1277 C   0  0  0  0  0  0  0  0  0  0  0  0
  145.5050  136.4611  152.7603 N   0  0  0  0  0  0  0  0  0  0  0  0
  144.4690  135.5266  152.3476 C   0  0  0  0  0  0  0  0  0  0  0  0
  144.8333  134.7358  151.0635 C   0  0  2  0  0  0  0  0  0  0  0  0
  144.9541  135.6679  150.0014 O   0  0  0  0  0  0  0  0  0  0  0  0
  143.7867  133.7019  150.6594 C   0  0  0  0  0  0  0  0  0  0  0  0
  144.6043  132.6768  149.8887 C   0  0  0  0  0  0  0  0  0  0  0  0
  145.7993  132.6015  150.6463 O   0  0  0  0  0  0  0  0  0  0  0  0
  146.1468  133.9051  151.1096 C   0  0  2  0  0  0  0  0  0  0  0  0
  146.8095  133.7375  152.4860 C   0  0  0  0  0  0  0  0  0  0  0  0
  151.5902  141.7437  156.9931 H   0  0  0  0  0  0  0  0  0  0  0  0
  149.8785  141.6204  157.3729 H   0  0  0  0  0  0  0  0  0  0  0  0
  150.4717  142.9534  156.3674 H   0  0  0  0  0  0  0  0  0  0  0  0
  148.6829  142.1556  155.1377 H   0  0  0  0  0  0  0  0  0  0  0  0
  149.3345  141.3846  153.7180 H   0  0  0  0  0  0  0  0  0  0  0  0
  147.6038  140.1600  155.8855 H   0  0  0  0  0  0  0  0  0  0  0  0
  147.5337  140.0004  154.1587 H   0  0  0  0  0  0  0  0  0  0  0  0
  149.8403  138.3328  153.1980 H   0  0  0  0  0  0  0  0  0  0  0  0
  150.5291  139.6589  154.0993 H   0  0  0  0  0  0  0  0  0  0  0  0
  150.8523  137.2847  155.7176 H   0  0  0  0  0  0  0  0  0  0  0  0
  151.4191  136.9118  154.0959 H   0  0  0  0  0  0  0  0  0  0  0  0
  147.4288  134.9142  156.5077 H   0  0  0  0  0  0  0  0  0  0  0  0
  145.3767  137.9743  151.2245 H   0  0  0  0  0  0  0  0  0  0  0  0
  144.2771  134.8427  153.1755 H   0  0  0  0  0  0  0  0  0  0  0  0
  143.5521  136.0972  152.1999 H   0  0  0  0  0  0  0  0  0  0  0  0
  145.3156  135.2206  149.2515 H   0  0  0  0  0  0  0  0  0  0  0  0
  143.3711  133.2224  151.5464 H   0  0  0  0  0  0  0  0  0  0  0  0
  142.9565  134.1134  150.0837 H   0  0  0  0  0  0  0  0  0  0  0  0
  144.1102  131.7076  149.8183 H   0  0  0  0  0  0  0  0  0  0  0  0
  144.8279  133.0270  148.8798 H   0  0  0  0  0  0  0  0  0  0  0  0
  146.8857  134.3199  150.4214 H   0  0  0  0  0  0  0  0  0  0  0  0
  147.1153  134.6978  152.9013 H   0  0  0  0  0  0  0  0  0  0  0  0
  147.7027  133.1171  152.4090 H   0  0  0  0  0  0  0  0  0  0  0  0
  146.1383  133.2546  153.1967 H   0  0  0  0  0  0  0  0  0  0  0  0
  1  2  1  0  0  0  0
  1 27  1  0  0  0  0
  1 28  1  0  0  0  0
  1 29  1  0  0  0  0
  2  3  1  0  0  0  0
  3  4  1  0  0  0  0
  3 30  1  0  0  0  0
  3 31  1  0  0  0  0
  4  5  1  0  0  0  0
  4 32  1  0  0  0  0
  4 33  1  0  0  0  0
  5  6  1  0  0  0  0
  5 10  1  0  0  0  0
  6  7  1  0  0  0  0
  6 34  1  0  0  0  0
  6 35  1  0  0  0  0
  7  8  1  0  0  0  0
  7 36  1  0  0  0  0
  7 37  1  0  0  0  0
  8  9  3  0  0  0  0
 10 15  1  0  0  0  0
 10 11  2  0  0  0  0
 11 12  1  0  0  0  0
 12 13  2  0  0  0  0
 12 38  1  0  0  0  0
 13 14  1  0  0  0  0
 14 18  1  0  0  0  0
 14 15  2  0  0  0  0
 15 16  1  0  0  0  0
 16 17  2  0  0  0  0
 17 18  1  0  0  0  0
 17 39  1  0  0  0  0
 18 19  1  0  0  0  0
 19 20  1  0  0  0  0
 19 40  1  0  0  0  0
 19 41  1  0  0  0  0
 20 25  1  0  0  0  0
 20 21  1  0  0  0  0
 20 22  1  0  0  0  0
 21 42  1  0  0  0  0
 22 23  1  0  0  0  0
 22 43  1  0  0  0  0
 22 44  1  0  0  0  0
 23 24  1  0  0  0  0
 23 45  1  0  0  0  0
 23 46  1  0  0  0  0
 24 25  1  0  0  0  0
 25 26  1  0  0  0  0
 25 47  1  0  0  0  0
 26 48  1  0  0  0  0
 26 49  1  0  0  0  0
 26 50  1  0  0  0  0
M  END
> <s_m_source_file>
AV-unprocessed.smi

> <i_m_source_file_index>
178

> <i_lp_mmshare_version>
43012

> <i_f3d_flags>
0

> <s_epik_input>
W0NIM11PW0NIMl1bQ0gyXU4oW0NIMl1bQ0gyXUMjTiljKG5bY0hdbjEpYyhjMTIpbltjSF1uMltDSDJdW0NAQF0zKFtPSF0pW0NIMl1bQ0gyXU9bQ0BIXTNbQ0gzXQ==

> <s_epik_cmdline>
J2VwaWtfcHl0aG9uJywgJy1waCcsICc3LjAnLCAnLXRuJywgJzgnLCAnLW1hJywgJzIwMCcsICctbWV0YWxfYmluZGluZycsICctaW1hZScsICc8aW5maWxlLm1hZT4nLCAnLW9tYWUnLCAnPG91dGZpbGUubWFlPic=

> <r_lp_tautomer_probability>
1

> <r_epik_Ionization_Penalty>
0.000885317

> <r_epik_Ionization_Penalty_Charging>
0

> <r_epik_Ionization_Penalty_Neutral>
0.000885317

> <r_epik_State_Penalty>
0.00047273

> <r_epik_Charging_Adjusted_Penalty>
0.00047273

> <i_epik_Tot_Q>
0

> <i_epik_Tot_abs_Q>
0

> <r_epik_Metal_State_Penalty>
-0

> <b_epik_Metal_Only>
0

> <s_lp_Force_Field>
OPLS_2005

> <r_lp_Energy>
31.3349

> <b_lp_Chiralities_Consistent>
1

> <s_lp_Variant>
AV-unprocessed.smi:178-4

> <Gold.Version>
5.8.1

> <Gold.Id.Protein>
6NUR|6NUR_protein|mol2

> <Gold.PLP.Fitness>
44.0411

> <Gold.PLP.PLP>
-35.9710

> <Gold.PLP.part.hbond>
-3.6522

> <Gold.PLP.part.metal>
0.0000

> <Gold.PLP.part.buried>
-1.2628

> <Gold.PLP.part.nonpolar>
-32.3059

> <Gold.PLP.part.repulsive>
1.2859

> <Gold.PLP.ligand.clash>
0.0000

> <Gold.PLP.ligand.torsion>
1.8266

> <Gold.PLP.Chemscore.Hbond>
2.6400

> <Gold.PLP.Chemscore.CHOScore>
1.0000

> <Gold.PLP.Chemscore.Metal>
0.0000

> <Gold.Chemscore.Hbonds>
donor molecule, donor type, donor heavy atom, donor atom, acceptor molecule, acceptor atom, score
      L1  H    21    42       P1  7921  1.00
      P1  H  7989  7998       L1     2  0.21
      P1  H  7997  8009       L1     9  0.77
      L1  C    17    39       P1 10171  1.00

> <Gold.PLP.Chemscore.Internal.Correction>
0.8033

> <Gold.Rescore>
     Score         DG    S(hbond)    S(metal)    S(lipo)     H(rot)  DE(clash)    DE(int)     intcor
      6.95     -12.41       2.28        0.00      75.04       3.69       1.14       4.32       ----

> <Gold.Chemscore.Fitness>
6.9453

> <Gold.Chemscore.DG>
-12.4147

> <Gold.Chemscore.ZeroCoef>
-5.4800

> <Gold.Chemscore.Hbond>
2.2776

> <Gold.Chemscore.Metal>
0.0000

> <Gold.Chemscore.Lipo>
75.0409

> <Gold.Chemscore.Internal_Hbond>
0.0000

> <Gold.Chemscore.DEClash>
1.1447

> <Gold.Chemscore.DEInternal>
4.3247

> <Gold.Chemscore.Rot>
3.6923

> <Gold.Chemscore.Internal.Correction>
   9.000000E+99

> <Gold.Chemscore.Hbonds>
donor molecule, donor type, donor heavy atom, donor atom, acceptor molecule, acceptor atom, score
      L1  H    21    42       P1  7921  1.00
      P1  H  7989  7998       L1     2  0.03
      P1  H  7997  8009       L1     9  0.76

> <Gold.Chemscore.Hbond.Weighted>
-7.6073

> <Gold.Chemscore.Metal.Weighted>
-0.0000

> <Gold.Chemscore.Lipo.Weighted>
-8.7798

> <Gold.Chemscore.Internal_Hbond.Weighted>
0.0000

> <Gold.Chemscore.DEClash.Weighted>
1.1447

> <Gold.Chemscore.DEInternal.Weighted>
4.3247

> <Gold.Chemscore.Rot.Weighted>
9.4524

> <Gold.Chemscore.Internal.Correction.Weighted>
   9.000000E+99

> <Gold.Protein.RotatedTorsions>
[ 6907 6896 6895 6894 ] final  -77.62 input  -60.11 | X-H torsion
[ 7974 7965 7964 7962 ] final  102.63 input  175.53 | X-H torsion
[ 8008 7997 7996 7995 ] final -114.64 input   59.86 | X-H torsion
[ 10167 10162 10161 10158 ] final  174.02 input  -65.29 | X-H torsion
[ 10718 10713 10712 10709 ] final -131.65 input   66.30 | X-H torsion
[ 10763 10752 10751 10750 ] final -107.95 input  -60.55 | X-H torsion
[ 11005 11000 10999 10996 ] final -178.75 input  -57.11 | X-H torsion

> <Gold.Protein.ActiveResidues>
 VAL166  LYS551  ARG553  GLY616  TRP617  ASP618  TYR619  PRO620  LYS621  CYS622 
 ASP623  PHE694  ASN695  SER759  ASP760  ASP761  ALA762  ILE779  LEU786  VAL792 
 PHE793  MET794  SER795  GLU796  ALA797  LYS798  CYS799  TRP800  GLU811  SER814 

> <Gold.Protein.RotatedAtoms>
  150.6994  134.4395  159.5285 H   0  0  0  0  0  0  0  0  0  0  0  0  # atno 6907 bound_to 6896
  152.2107  134.8501  160.0507 H   0  0  0  0  0  0  0  0  0  0  0  0  # atno 6908 bound_to 6896
  151.9387  133.3597  159.3994 H   0  0  0  0  0  0  0  0  0  0  0  0  # atno 6909 bound_to 6896
  145.3565  139.2427  143.3530 H   0  0  0  0  0  0  0  0  0  0  0  0  # atno 7974 bound_to 7965
  155.0394  140.0392  157.2504 H   0  0  0  0  0  0  0  0  0  0  0  0  # atno 8008 bound_to 7997
  154.7229  140.2715  155.6501 H   0  0  0  0  0  0  0  0  0  0  0  0  # atno 8009 bound_to 7997
  156.2821  140.2699  156.1906 H   0  0  0  0  0  0  0  0  0  0  0  0  # atno 8010 bound_to 7997
  139.5127  144.3195  152.0216 H   0  0  0  0  0  0  0  0  0  0  0  0  # atno 10167 bound_to 10162
  156.2266  130.7011  151.0813 H   0  0  0  0  0  0  0  0  0  0  0  0  # atno 10718 bound_to 10713
  154.8106  135.4656  154.0507 H   0  0  0  0  0  0  0  0  0  0  0  0  # atno 10763 bound_to 10752
  153.1941  135.6859  153.8321 H   0  0  0  0  0  0  0  0  0  0  0  0  # atno 10764 bound_to 10752
  153.7829  135.3254  155.3345 H   0  0  0  0  0  0  0  0  0  0  0  0  # atno 10765 bound_to 10752
  140.4263  134.6559  157.4689 H   0  0  0  0  0  0  0  0  0  0  0  0  # atno 11005 bound_to 11000
  146.2946  140.4191  142.8727 LP  0  0  0  0  0  0  0  0  0  0  0  0  # atno 17320 bound_to 7965
  144.8678  140.7231  143.6066 LP  0  0  0  0  0  0  0  0  0  0  0  0  # atno 17321 bound_to 7965
  140.2637  144.4040  150.6176 LP  0  0  0  0  0  0  0  0  0  0  0  0  # atno 17342 bound_to 10162
  140.6139  143.2171  151.6831 LP  0  0  0  0  0  0  0  0  0  0  0  0  # atno 17343 bound_to 10162
  157.7113  131.0732  150.6489 LP  0  0  0  0  0  0  0  0  0  0  0  0  # atno 17370 bound_to 10713
  156.6555  130.4497  149.5705 LP  0  0  0  0  0  0  0  0  0  0  0  0  # atno 17371 bound_to 10713
  140.0165  134.6612  155.9302 LP  0  0  0  0  0  0  0  0  0  0  0  0  # atno 17394 bound_to 11000
  141.1764  133.6541  156.4844 LP  0  0  0  0  0  0  0  0  0  0  0  0  # atno 17395 bound_to 11000

$$$$
