AV-unprocessed.smi:1662|AV-procd|sdf|6657|dock2
  -GOLD-   22720 7363D 1   1.00000     0.00000
 Structure written by MMmdl.
 47 48  0  0  0  0  0  0  0  0  1 V2000
  150.1555  134.1252  155.3601 C   0  0  0  0  0  0  0  0  0  0  0  0
  150.4925  132.6640  155.2319 C   0  0  0  0  0  0  0  0  0  0  0  0
  149.6941  131.9446  154.5139 N   0  0  0  0  0  0  0  0  0  0  0  0
  149.9104  130.5920  154.3333 N   0  0  0  0  0  0  0  0  0  0  0  0
  148.8911  129.9259  153.5085 C   0  0  0  0  0  0  0  0  0  0  0  0
  147.5394  130.6553  153.5024 C   0  0  0  0  0  0  0  0  0  0  0  0
  146.9170  130.8374  154.5499 O   0  0  0  0  0  0  0  0  0  0  0  0
  147.1130  131.0857  152.3044 N   0  0  0  0  0  0  0  0  0  0  0  0
  145.8598  131.7926  152.0414 C   0  0  2  0  0  0  0  0  0  0  0  0
  145.1105  131.0583  150.9129 C   0  0  0  0  0  0  0  0  0  0  0  0
  143.8117  131.7780  150.5242 C   0  0  0  0  0  0  0  0  0  0  0  0
  144.0822  133.2431  150.1474 C   0  0  0  0  0  0  0  0  0  0  0  0
  144.8123  134.0085  151.2697 C   0  0  1  0  0  0  0  0  0  0  0  0
  143.8739  134.3068  152.4570 C   0  0  0  0  0  0  0  0  0  0  0  0
  146.1227  133.2751  151.6641 C   0  0  1  0  0  0  0  0  0  0  0  0
  146.9231  134.0430  152.7347 C   0  0  0  0  0  0  0  0  0  0  0  0
  150.9586  129.8960  154.8612 C   0  0  0  0  0  0  0  0  0  0  0  0
  151.1193  128.6904  154.6649 O   0  0  0  0  0  0  0  0  0  0  0  0
  151.8578  130.7171  155.6749 C   0  0  0  0  0  0  0  0  0  0  0  0
  152.9646  130.0254  156.2528 C   0  0  0  0  0  0  0  0  0  0  0  0
  153.8750  129.4747  156.7089 N   0  0  0  0  0  0  0  0  0  0  0  0
  151.6512  132.0441  155.8665 C   0  0  0  0  0  0  0  0  0  0  0  0
  152.5543  132.9407  156.7025 C   0  0  0  0  0  0  0  0  0  0  0  0
  150.9709  134.7448  154.9864 H   0  0  0  0  0  0  0  0  0  0  0  0
  149.9776  134.3912  156.4022 H   0  0  0  0  0  0  0  0  0  0  0  0
  149.2590  134.3874  154.7957 H   0  0  0  0  0  0  0  0  0  0  0  0
  149.2346  129.8452  152.4755 H   0  0  0  0  0  0  0  0  0  0  0  0
  148.7500  128.8988  153.8506 H   0  0  0  0  0  0  0  0  0  0  0  0
  147.6993  130.8977  151.5040 H   0  0  0  0  0  0  0  0  0  0  0  0
  145.2285  131.7656  152.9308 H   0  0  0  0  0  0  0  0  0  0  0  0
  145.7523  130.9806  150.0341 H   0  0  0  0  0  0  0  0  0  0  0  0
  144.8837  130.0363  151.2191 H   0  0  0  0  0  0  0  0  0  0  0  0
  143.3413  131.2625  149.6863 H   0  0  0  0  0  0  0  0  0  0  0  0
  143.1015  131.7282  151.3498 H   0  0  0  0  0  0  0  0  0  0  0  0
  144.6894  133.2695  149.2416 H   0  0  0  0  0  0  0  0  0  0  0  0
  143.1457  133.7419  149.8958 H   0  0  0  0  0  0  0  0  0  0  0  0
  145.0941  134.9776  150.8555 H   0  0  0  0  0  0  0  0  0  0  0  0
  143.5709  133.4016  152.9819 H   0  0  0  0  0  0  0  0  0  0  0  0
  142.9665  134.8069  152.1178 H   0  0  0  0  0  0  0  0  0  0  0  0
  144.3456  134.9678  153.1836 H   0  0  0  0  0  0  0  0  0  0  0  0
  146.7485  133.2678  150.7699 H   0  0  0  0  0  0  0  0  0  0  0  0
  146.4407  133.9915  153.7109 H   0  0  0  0  0  0  0  0  0  0  0  0
  147.0287  135.0945  152.4673 H   0  0  0  0  0  0  0  0  0  0  0  0
  147.9295  133.6393  152.8464 H   0  0  0  0  0  0  0  0  0  0  0  0
  153.3864  132.3930  157.1436 H   0  0  0  0  0  0  0  0  0  0  0  0
  151.9927  133.3946  157.5196 H   0  0  0  0  0  0  0  0  0  0  0  0
  152.9753  133.7380  156.0892 H   0  0  0  0  0  0  0  0  0  0  0  0
  1  2  1  0  0  0  0
  1 24  1  0  0  0  0
  1 25  1  0  0  0  0
  1 26  1  0  0  0  0
  2 22  1  0  0  0  0
  2  3  2  0  0  0  0
  3  4  1  0  0  0  0
  4  5  1  0  0  0  0
  4 17  1  0  0  0  0
  5  6  1  0  0  0  0
  5 27  1  0  0  0  0
  5 28  1  0  0  0  0
  6  7  2  0  0  0  0
  6  8  1  0  0  0  0
  8  9  1  0  0  0  0
  8 29  1  0  0  0  0
  9 15  1  0  0  0  0
  9 10  1  0  0  0  0
  9 30  1  0  0  0  0
 10 11  1  0  0  0  0
 10 31  1  0  0  0  0
 10 32  1  0  0  0  0
 11 12  1  0  0  0  0
 11 33  1  0  0  0  0
 11 34  1  0  0  0  0
 12 13  1  0  0  0  0
 12 35  1  0  0  0  0
 12 36  1  0  0  0  0
 13 14  1  0  0  0  0
 13 15  1  0  0  0  0
 13 37  1  0  0  0  0
 14 38  1  0  0  0  0
 14 39  1  0  0  0  0
 14 40  1  0  0  0  0
 15 16  1  0  0  0  0
 15 41  1  0  0  0  0
 16 42  1  0  0  0  0
 16 43  1  0  0  0  0
 16 44  1  0  0  0  0
 17 18  2  0  0  0  0
 17 19  1  0  0  0  0
 19 20  1  0  0  0  0
 19 22  2  0  0  0  0
 20 21  3  0  0  0  0
 22 23  1  0  0  0  0
 23 45  1  0  0  0  0
 23 46  1  0  0  0  0
 23 47  1  0  0  0  0
M  END
> <s_m_source_file>
AV-unprocessed.smi

> <i_m_source_file_index>
1662

> <i_lp_mmshare_version>
43012

> <i_f3d_flags>
0

> <s_epik_input>
TiNDYyhjMVtDSDNdKWMoPU8pbihuYzFbQ0gzXSlbQ0gyXUMoPU8pW05IXVtDQEBIXTJbQ0gyXVtDSDJdW0NIMl1bQ0BASF0oW0NIM10pW0NASF0yW0NIM10=

> <s_epik_cmdline>
J2VwaWtfcHl0aG9uJywgJy1waCcsICc3LjAnLCAnLXRuJywgJzgnLCAnLW1hJywgJzIwMCcsICctbWV0YWxfYmluZGluZycsICctaW1hZScsICc8aW5maWxlLm1hZT4nLCAnLW9tYWUnLCAnPG91dGZpbGUubWFlPic=

> <r_lp_tautomer_probability>
1

> <r_epik_Ionization_Penalty>
1.90709e-08

> <r_epik_Ionization_Penalty_Charging>
2.37982e-11

> <r_epik_Ionization_Penalty_Neutral>
1.90471e-08

> <r_epik_State_Penalty>
-0

> <r_epik_Charging_Adjusted_Penalty>
2.37982e-11

> <i_epik_Tot_Q>
0

> <i_epik_Tot_abs_Q>
0

> <r_epik_Metal_State_Penalty>
-0

> <b_epik_Metal_Only>
0

> <s_lp_Force_Field>
OPLS_2005

> <r_lp_Energy>
29.144

> <b_lp_Chiralities_Consistent>
1

> <s_lp_Variant>
AV-unprocessed.smi:1662-1

> <Gold.Version>
5.8.1

> <Gold.Id.Protein>
6NUR|6NUR_protein|mol2

> <Gold.PLP.Fitness>
39.3692

> <Gold.PLP.PLP>
-37.2002

> <Gold.PLP.part.hbond>
-1.0000

> <Gold.PLP.part.metal>
0.0000

> <Gold.PLP.part.buried>
-5.8213

> <Gold.PLP.part.nonpolar>
-29.4798

> <Gold.PLP.part.repulsive>
0.2315

> <Gold.PLP.ligand.clash>
0.0000

> <Gold.PLP.ligand.torsion>
0.4193

> <Gold.PLP.Chemscore.Hbond>
1.0000

> <Gold.PLP.Chemscore.CHOScore>
0.0000

> <Gold.PLP.Chemscore.Metal>
0.0000

> <Gold.Chemscore.Hbonds>
donor molecule, donor type, donor heavy atom, donor atom, acceptor molecule, acceptor atom, score
      L1  H     8    29       P1 10747  1.00

> <Gold.PLP.Chemscore.Internal.Correction>
0.0076

> <Gold.Rescore>
     Score         DG    S(hbond)    S(metal)    S(lipo)     H(rot)  DE(clash)    DE(int)     intcor
     14.87     -15.38       0.99        0.00      88.17       1.45       0.12       0.39       ----

> <Gold.Chemscore.Fitness>
14.8716

> <Gold.Chemscore.DG>
-15.3778

> <Gold.Chemscore.ZeroCoef>
-5.4800

> <Gold.Chemscore.Hbond>
0.9863

> <Gold.Chemscore.Metal>
0.0000

> <Gold.Chemscore.Lipo>
88.1738

> <Gold.Chemscore.Internal_Hbond>
0.0000

> <Gold.Chemscore.DEClash>
0.1160

> <Gold.Chemscore.DEInternal>
0.3902

> <Gold.Chemscore.Rot>
1.4504

> <Gold.Chemscore.Internal.Correction>
   9.000000E+99

> <Gold.Chemscore.Hbonds>
donor molecule, donor type, donor heavy atom, donor atom, acceptor molecule, acceptor atom, score
      L1  H     8    29       P1 10747  1.00

> <Gold.Chemscore.Hbond.Weighted>
-3.2944

> <Gold.Chemscore.Metal.Weighted>
-0.0000

> <Gold.Chemscore.Lipo.Weighted>
-10.3163

> <Gold.Chemscore.Internal_Hbond.Weighted>
0.0000

> <Gold.Chemscore.DEClash.Weighted>
0.1160

> <Gold.Chemscore.DEInternal.Weighted>
0.3902

> <Gold.Chemscore.Rot.Weighted>
3.7129

> <Gold.Chemscore.Internal.Correction.Weighted>
   9.000000E+99

> <Gold.Protein.RotatedTorsions>
[ 6907 6896 6895 6894 ] final  168.77 input  -60.11 | X-H torsion
[ 7974 7965 7964 7962 ] final  -15.41 input  175.53 | X-H torsion
[ 8008 7997 7996 7995 ] final   81.22 input   59.86 | X-H torsion
[ 10167 10162 10161 10158 ] final  163.34 input  -65.29 | X-H torsion
[ 10718 10713 10712 10709 ] final  157.27 input   66.30 | X-H torsion
[ 10763 10752 10751 10750 ] final  -72.67 input  -60.55 | X-H torsion
[ 11005 11000 10999 10996 ] final   74.13 input  -57.11 | X-H torsion

> <Gold.Protein.ActiveResidues>
 VAL166  LYS551  ARG553  GLY616  TRP617  ASP618  TYR619  PRO620  LYS621  CYS622 
 ASP623  PHE694  ASN695  SER759  ASP760  ASP761  ALA762  ILE779  LEU786  VAL792 
 PHE793  MET794  SER795  GLU796  ALA797  LYS798  CYS799  TRP800  GLU811  SER814 

> <Gold.Protein.RotatedAtoms>
  151.8425  133.3426  159.3647 H   0  0  0  0  0  0  0  0  0  0  0  0  # atno 6907 bound_to 6896
  150.7230  134.5378  159.5741 H   0  0  0  0  0  0  0  0  0  0  0  0  # atno 6908 bound_to 6896
  152.2854  134.7782  160.0439 H   0  0  0  0  0  0  0  0  0  0  0  0  # atno 6909 bound_to 6896
  146.2033  140.3489  142.8416 H   0  0  0  0  0  0  0  0  0  0  0  0  # atno 7974 bound_to 7965
  155.8942  140.3437  155.5978 H   0  0  0  0  0  0  0  0  0  0  0  0  # atno 8008 bound_to 7997
  155.7575  140.0828  157.2190 H   0  0  0  0  0  0  0  0  0  0  0  0  # atno 8009 bound_to 7997
  154.4036  140.1542  156.2782 H   0  0  0  0  0  0  0  0  0  0  0  0  # atno 8010 bound_to 7997
  139.4872  144.4347  151.9027 H   0  0  0  0  0  0  0  0  0  0  0  0  # atno 10167 bound_to 10162
  157.1938  131.0660  151.2064 H   0  0  0  0  0  0  0  0  0  0  0  0  # atno 10718 bound_to 10713
  154.4488  135.5922  153.6178 H   0  0  0  0  0  0  0  0  0  0  0  0  # atno 10763 bound_to 10752
  152.9812  135.6016  154.3630 H   0  0  0  0  0  0  0  0  0  0  0  0  # atno 10764 bound_to 10752
  154.3489  135.2841  155.2361 H   0  0  0  0  0  0  0  0  0  0  0  0  # atno 10765 bound_to 10752
  139.9406  134.7406  156.1110 H   0  0  0  0  0  0  0  0  0  0  0  0  # atno 11005 bound_to 11000
  144.8733  140.7302  143.6033 LP  0  0  0  0  0  0  0  0  0  0  0  0  # atno 17320 bound_to 7965
  145.3408  139.1733  143.4486 LP  0  0  0  0  0  0  0  0  0  0  0  0  # atno 17321 bound_to 7965
  140.3796  144.2752  150.5910 LP  0  0  0  0  0  0  0  0  0  0  0  0  # atno 17342 bound_to 10162
  140.5245  143.2258  151.8337 LP  0  0  0  0  0  0  0  0  0  0  0  0  # atno 17343 bound_to 10162
  157.3835  130.7244  149.6646 LP  0  0  0  0  0  0  0  0  0  0  0  0  # atno 17370 bound_to 10713
  155.9708  130.4166  150.4238 LP  0  0  0  0  0  0  0  0  0  0  0  0  # atno 17371 bound_to 10713
  141.1039  133.6667  156.2818 LP  0  0  0  0  0  0  0  0  0  0  0  0  # atno 17394 bound_to 11000
  140.5962  134.5601  157.5509 LP  0  0  0  0  0  0  0  0  0  0  0  0  # atno 17395 bound_to 11000

$$$$
