AV-unprocessed.smi:3119|AV-procd|sdf|11890|dock9
  -GOLD-   2272017283D 1   1.00000     0.00000
 Structure written by MMmdl.
 31 32  0  0  0  0  0  0  0  0  1 V2000
  150.1490  140.4271  154.7059 O   0  0  0  0  0  0  0  0  0  0  0  0
  149.5271  141.4654  154.9351 C   0  0  0  0  0  0  0  0  0  0  0  0
  149.9152  142.3664  155.8501 N   0  0  0  0  0  0  0  0  0  0  0  0
  151.1049  142.2499  156.6860 C   0  0  0  0  0  0  0  0  0  0  0  0
  151.6341  143.6281  157.1166 C   0  0  0  0  0  0  0  0  0  0  0  0
  151.9678  143.6785  158.5957 C   0  0  0  0  0  0  0  0  0  0  0  0
  151.5825  144.7829  159.3855 C   0  0  0  0  0  0  0  0  0  0  0  0
  151.9230  144.7813  160.7521 C   0  0  0  0  0  0  0  0  0  0  0  0
  152.6325  143.6822  161.2735 C   0  0  0  0  0  0  0  0  0  0  0  0
  152.9722  142.6291  160.4010 C   0  0  0  0  0  0  0  0  0  0  0  0
  152.6515  142.6213  159.0892 N   0  0  0  0  0  0  0  0  0  0  0  0
  148.2407  141.7960  154.1668 C   0  0  0  0  0  0  0  0  0  0  0  0
  146.9934  141.9570  155.0533 C   0  0  0  0  0  0  0  0  0  0  0  0
  146.2111  141.1224  154.0347 C   0  0  0  0  0  0  0  0  0  0  0  0
  147.5485  140.5834  153.5189 C   0  0  0  0  0  0  0  0  0  0  0  0
  149.3469  143.1919  155.9746 H   0  0  0  0  0  0  0  0  0  0  0  0
  150.8876  141.6318  157.5589 H   0  0  0  0  0  0  0  0  0  0  0  0
  151.8693  141.7217  156.1156 H   0  0  0  0  0  0  0  0  0  0  0  0
  152.5234  143.8827  156.5385 H   0  0  0  0  0  0  0  0  0  0  0  0
  150.8966  144.4021  156.8992 H   0  0  0  0  0  0  0  0  0  0  0  0
  151.0402  145.6129  158.9566 H   0  0  0  0  0  0  0  0  0  0  0  0
  151.6457  145.6086  161.3887 H   0  0  0  0  0  0  0  0  0  0  0  0
  152.9100  143.6465  162.3167 H   0  0  0  0  0  0  0  0  0  0  0  0
  153.5163  141.7705  160.7661 H   0  0  0  0  0  0  0  0  0  0  0  0
  148.3525  142.6242  153.4644 H   0  0  0  0  0  0  0  0  0  0  0  0
  147.0682  141.4704  156.0275 H   0  0  0  0  0  0  0  0  0  0  0  0
  146.6397  142.9839  155.1494 H   0  0  0  0  0  0  0  0  0  0  0  0
  145.5554  140.3688  154.4715 H   0  0  0  0  0  0  0  0  0  0  0  0
  145.6908  141.7352  153.2972 H   0  0  0  0  0  0  0  0  0  0  0  0
  147.6226  140.5516  152.4317 H   0  0  0  0  0  0  0  0  0  0  0  0
  147.8130  139.6220  153.9628 H   0  0  0  0  0  0  0  0  0  0  0  0
  1  2  2  0  0  0  0
  2  3  1  0  0  0  0
  2 12  1  0  0  0  0
  3  4  1  0  0  0  0
  3 16  1  0  0  0  0
  4  5  1  0  0  0  0
  4 17  1  0  0  0  0
  4 18  1  0  0  0  0
  5  6  1  0  0  0  0
  5 19  1  0  0  0  0
  5 20  1  0  0  0  0
  6 11  1  0  0  0  0
  6  7  2  0  0  0  0
  7  8  1  0  0  0  0
  7 21  1  0  0  0  0
  8  9  2  0  0  0  0
  8 22  1  0  0  0  0
  9 10  1  0  0  0  0
  9 23  1  0  0  0  0
 10 11  2  0  0  0  0
 10 24  1  0  0  0  0
 12 15  1  0  0  0  0
 12 13  1  0  0  0  0
 12 25  1  0  0  0  0
 13 14  1  0  0  0  0
 13 26  1  0  0  0  0
 13 27  1  0  0  0  0
 14 15  1  0  0  0  0
 14 28  1  0  0  0  0
 14 29  1  0  0  0  0
 15 30  1  0  0  0  0
 15 31  1  0  0  0  0
M  END
> <s_m_source_file>
AV-unprocessed.smi

> <i_m_source_file_index>
3119

> <i_lp_mmshare_version>
43012

> <i_f3d_flags>
0

> <s_epik_input>
W0NIMl0xW0NIMl1bQ0gyXVtDSF0xQyg9TylbTkhdW0NIMl1bQ0gyXWMyW2NIXVtjSF1bY0hdW2NIXW4y

> <s_epik_cmdline>
J2VwaWtfcHl0aG9uJywgJy1waCcsICc3LjAnLCAnLXRuJywgJzgnLCAnLW1hJywgJzIwMCcsICctbWV0YWxfYmluZGluZycsICctaW1hZScsICc8aW5maWxlLm1hZT4nLCAnLW9tYWUnLCAnPG91dGZpbGUubWFlPic=

> <r_epik_Ionization_Penalty>
0.0277532

> <r_epik_Ionization_Penalty_Charging>
0

> <r_epik_Ionization_Penalty_Neutral>
0.0277532

> <r_epik_State_Penalty>
0.022734

> <r_epik_Charging_Adjusted_Penalty>
0.022734

> <i_epik_Tot_Q>
0

> <i_epik_Tot_abs_Q>
0

> <r_epik_Metal_State_Penalty>
0.0217133

> <b_epik_Metal_Only>
0

> <s_lp_Force_Field>
OPLS_2005

> <r_lp_Energy>
9.15138

> <b_lp_Chiralities_Consistent>
1

> <s_lp_Variant>
AV-unprocessed.smi:3119-1

> <Gold.Version>
5.8.1

> <Gold.Id.Protein>
6NUR|6NUR_protein|mol2

> <Gold.PLP.Fitness>
41.9615

> <Gold.PLP.PLP>
-37.6367

> <Gold.PLP.part.hbond>
-2.0000

> <Gold.PLP.part.metal>
0.0000

> <Gold.PLP.part.buried>
-2.6865

> <Gold.PLP.part.nonpolar>
-34.1236

> <Gold.PLP.part.repulsive>
0.2316

> <Gold.PLP.ligand.clash>
0.0000

> <Gold.PLP.ligand.torsion>
1.0053

> <Gold.PLP.Chemscore.Hbond>
1.9760

> <Gold.PLP.Chemscore.CHOScore>
0.0000

> <Gold.PLP.Chemscore.Metal>
0.0000

> <Gold.Chemscore.Hbonds>
donor molecule, donor type, donor heavy atom, donor atom, acceptor molecule, acceptor atom, score
      L1  H     3    16       P1  8028  1.00
      P1  H  7989  7998       L1     1  0.98

> <Gold.PLP.Chemscore.Internal.Correction>
0.4075

> <Gold.Rescore>
     Score         DG    S(hbond)    S(metal)    S(lipo)     H(rot)  DE(clash)    DE(int)     intcor
     18.46     -19.84       1.66        0.00     106.84       1.44       0.54       0.85       ----

> <Gold.Chemscore.Fitness>
18.4563

> <Gold.Chemscore.DG>
-19.8434

> <Gold.Chemscore.ZeroCoef>
-5.4800

> <Gold.Chemscore.Hbond>
1.6603

> <Gold.Chemscore.Metal>
0.0000

> <Gold.Chemscore.Lipo>
106.8389

> <Gold.Chemscore.Internal_Hbond>
0.0000

> <Gold.Chemscore.DEClash>
0.5369

> <Gold.Chemscore.DEInternal>
0.8502

> <Gold.Chemscore.Rot>
1.4383

> <Gold.Chemscore.Internal.Correction>
   9.000000E+99

> <Gold.Chemscore.Hbonds>
donor molecule, donor type, donor heavy atom, donor atom, acceptor molecule, acceptor atom, score
      L1  H     3    16       P1  8028  0.97
      P1  H  7989  7998       L1     1  0.56

> <Gold.Chemscore.Hbond.Weighted>
-5.5453

> <Gold.Chemscore.Metal.Weighted>
-0.0000

> <Gold.Chemscore.Lipo.Weighted>
-12.5002

> <Gold.Chemscore.Internal_Hbond.Weighted>
0.0000

> <Gold.Chemscore.DEClash.Weighted>
0.5369

> <Gold.Chemscore.DEInternal.Weighted>
0.8502

> <Gold.Chemscore.Rot.Weighted>
3.6820

> <Gold.Chemscore.Internal.Correction.Weighted>
   9.000000E+99

> <Gold.Protein.RotatedTorsions>
[ 6907 6896 6895 6894 ] final  117.16 input  -60.11 | X-H torsion
[ 7974 7965 7964 7962 ] final -178.17 input  175.53 | X-H torsion
[ 8008 7997 7996 7995 ] final  -91.13 input   59.86 | X-H torsion
[ 10167 10162 10161 10158 ] final  -74.93 input  -65.29 | X-H torsion
[ 10718 10713 10712 10709 ] final   39.07 input   66.30 | X-H torsion
[ 10763 10752 10751 10750 ] final -114.55 input  -60.55 | X-H torsion
[ 11005 11000 10999 10996 ] final  121.88 input  -57.11 | X-H torsion

> <Gold.Protein.ActiveResidues>
 VAL166  LYS551  ARG553  GLY616  TRP617  ASP618  TYR619  PRO620  LYS621  CYS622 
 ASP623  PHE694  ASN695  SER759  ASP760  ASP761  ALA762  ILE779  LEU786  VAL792 
 PHE793  MET794  SER795  GLU796  ALA797  LYS798  CYS799  TRP800  GLU811  SER814 

> <Gold.Protein.RotatedAtoms>
  152.4630  133.7862  159.6877 H   0  0  0  0  0  0  0  0  0  0  0  0  # atno 6907 bound_to 6896
  150.8582  133.7674  159.3008 H   0  0  0  0  0  0  0  0  0  0  0  0  # atno 6908 bound_to 6896
  151.5247  135.1070  159.9939 H   0  0  0  0  0  0  0  0  0  0  0  0  # atno 6909 bound_to 6896
  144.7130  140.0909  143.6421 H   0  0  0  0  0  0  0  0  0  0  0  0  # atno 7974 bound_to 7965
  154.7070  140.0523  157.0513 H   0  0  0  0  0  0  0  0  0  0  0  0  # atno 8008 bound_to 7997
  155.0607  140.3189  155.4642 H   0  0  0  0  0  0  0  0  0  0  0  0  # atno 8009 bound_to 7997
  156.2777  140.2099  156.5734 H   0  0  0  0  0  0  0  0  0  0  0  0  # atno 8010 bound_to 7997
  140.4985  143.2366  151.7790 H   0  0  0  0  0  0  0  0  0  0  0  0  # atno 10167 bound_to 10162
  157.3662  130.7676  149.7084 H   0  0  0  0  0  0  0  0  0  0  0  0  # atno 10718 bound_to 10713
  154.8444  135.4414  154.1523 H   0  0  0  0  0  0  0  0  0  0  0  0  # atno 10763 bound_to 10752
  153.2681  135.6942  153.7515 H   0  0  0  0  0  0  0  0  0  0  0  0  # atno 10764 bound_to 10752
  153.6766  135.3410  155.3142 H   0  0  0  0  0  0  0  0  0  0  0  0  # atno 10765 bound_to 10752
  139.9245  134.9640  156.8025 H   0  0  0  0  0  0  0  0  0  0  0  0  # atno 11005 bound_to 11000
  145.9621  139.2808  143.1149 LP  0  0  0  0  0  0  0  0  0  0  0  0  # atno 17320 bound_to 7965
  145.9210  140.9115  143.0405 LP  0  0  0  0  0  0  0  0  0  0  0  0  # atno 17321 bound_to 7965
  139.4867  144.4553  151.9605 LP  0  0  0  0  0  0  0  0  0  0  0  0  # atno 17342 bound_to 10162
  140.3642  144.2936  150.5929 LP  0  0  0  0  0  0  0  0  0  0  0  0  # atno 17343 bound_to 10162
  155.9746  130.4100  150.3907 LP  0  0  0  0  0  0  0  0  0  0  0  0  # atno 17370 bound_to 10713
  157.1991  131.0434  151.2660 LP  0  0  0  0  0  0  0  0  0  0  0  0  # atno 17371 bound_to 10713
  140.6378  133.9846  155.7692 LP  0  0  0  0  0  0  0  0  0  0  0  0  # atno 17394 bound_to 11000
  141.0791  134.0089  157.3413 LP  0  0  0  0  0  0  0  0  0  0  0  0  # atno 17395 bound_to 11000

$$$$
