AV-unprocessed.smi:36|AV-procd|sdf|299|dock2
  -GOLD-   2262016103D 1   1.00000     0.00000
 Structure written by MMmdl.
 63 66  0  0  0  0  0  0  0  0  2 V2000
  144.0031  133.6328  152.1839 C   0  0  0  0  0  0  0  0  0  0  0  0
  145.4829  133.6076  152.6004 C   0  0  0  0  0  0  0  0  0  0  0  0
  145.8441  132.2127  153.1384 C   0  0  0  0  0  0  0  0  0  0  0  0
  146.3723  133.9492  151.3936 C   0  0  0  0  0  0  0  0  0  0  0  0
  145.7660  134.8971  153.9816 Si  0  0  0  0  0  0  0  0  0  0  0  0
  144.6957  134.5011  155.5031 C   0  0  0  0  0  0  0  0  0  0  0  0
  147.5935  134.9628  154.4953 C   0  0  0  0  0  0  0  0  0  0  0  0
  145.3417  136.4178  153.3658 O   0  0  0  0  0  0  0  0  0  0  0  0
  145.2364  137.5960  154.1411 C   0  0  0  0  0  0  0  0  0  0  0  0
  146.4288  138.5119  153.8255 C   0  0  2  0  0  0  0  0  0  0  0  0
  146.1874  139.8477  154.2457 O   0  0  0  0  0  0  0  0  0  0  0  0
  147.1447  140.6780  153.6629 C   0  0  1  0  0  0  0  0  0  0  0  0
  148.3173  140.7797  154.5936 N   0  0  0  0  0  0  0  0  0  0  0  0
  148.5502  141.6750  155.5779 C   0  0  0  0  0  0  0  0  0  0  0  0
  149.6931  141.5655  156.2518 N   0  0  0  0  0  0  0  0  0  0  0  0
  150.2884  140.4853  155.6178 C   0  0  0  0  0  0  0  0  0  0  0  0
  151.5337  139.8274  155.8115 C   0  0  0  0  0  0  0  0  0  0  0  0
  152.4100  140.1986  156.7572 N   0  5  0  0  0  0  0  0  0  0  0  0
  151.9609  140.5815  157.9796 C   0  0  0  0  0  0  0  0  0  0  0  0
  151.4209  139.8838  158.8409 O   0  0  0  0  0  0  0  0  0  0  0  0
  152.1051  142.0586  158.2295 C   0  0  0  0  0  0  0  0  0  0  0  0
  152.5735  142.5134  159.4833 C   0  0  0  0  0  0  0  0  0  0  0  0
  152.7374  143.8903  159.7301 C   0  0  0  0  0  0  0  0  0  0  0  0
  152.4444  144.8270  158.7215 C   0  0  0  0  0  0  0  0  0  0  0  0
  151.9917  144.3854  157.4641 C   0  0  0  0  0  0  0  0  0  0  0  0
  151.8262  143.0085  157.2169 C   0  0  0  0  0  0  0  0  0  0  0  0
  151.8064  138.7753  154.9976 N   0  0  0  0  0  0  0  0  0  0  0  0
  150.9335  138.4078  154.0519 C   0  0  0  0  0  0  0  0  0  0  0  0
  149.7426  138.9374  153.7550 N   0  0  0  0  0  0  0  0  0  0  0  0
  149.4516  139.9869  154.5776 C   0  0  0  0  0  0  0  0  0  0  0  0
  147.5576  140.0073  152.3387 C   0  0  0  0  0  0  0  0  0  0  0  0
  146.7891  138.6909  152.3480 C   0  0  2  0  0  0  0  0  0  0  0  0
  145.6356  138.7792  151.5327 O   0  0  0  0  0  0  0  0  0  0  0  0
  143.7968  132.8943  151.4084 H   0  0  0  0  0  0  0  0  0  0  0  0
  143.7156  134.6086  151.7921 H   0  0  0  0  0  0  0  0  0  0  0  0
  143.3507  133.4127  153.0296 H   0  0  0  0  0  0  0  0  0  0  0  0
  145.2288  131.9507  153.9996 H   0  0  0  0  0  0  0  0  0  0  0  0
  146.8870  132.1620  153.4522 H   0  0  0  0  0  0  0  0  0  0  0  0
  145.6928  131.4430  152.3808 H   0  0  0  0  0  0  0  0  0  0  0  0
  146.2355  133.2306  150.5848 H   0  0  0  0  0  0  0  0  0  0  0  0
  147.4287  133.9422  151.6634 H   0  0  0  0  0  0  0  0  0  0  0  0
  146.1404  134.9378  150.9964 H   0  0  0  0  0  0  0  0  0  0  0  0
  144.9717  133.5447  155.9465 H   0  0  0  0  0  0  0  0  0  0  0  0
  143.6372  134.4441  155.2496 H   0  0  0  0  0  0  0  0  0  0  0  0
  144.8052  135.2586  156.2787 H   0  0  0  0  0  0  0  0  0  0  0  0
  147.9348  134.0043  154.8856 H   0  0  0  0  0  0  0  0  0  0  0  0
  147.7634  135.7081  155.2721 H   0  0  0  0  0  0  0  0  0  0  0  0
  148.2372  135.2198  153.6545 H   0  0  0  0  0  0  0  0  0  0  0  0
  144.2976  138.0990  153.9063 H   0  0  0  0  0  0  0  0  0  0  0  0
  145.2086  137.3336  155.1989 H   0  0  0  0  0  0  0  0  0  0  0  0
  147.3144  138.1418  154.3407 H   0  0  0  0  0  0  0  0  0  0  0  0
  146.7872  141.7030  153.5590 H   0  0  0  0  0  0  0  0  0  0  0  0
  147.8418  142.4531  155.8195 H   0  0  0  0  0  0  0  0  0  0  0  0
  152.8042  141.8065  160.2674 H   0  0  0  0  0  0  0  0  0  0  0  0
  153.0893  144.2267  160.6941 H   0  0  0  0  0  0  0  0  0  0  0  0
  152.5707  145.8826  158.9106 H   0  0  0  0  0  0  0  0  0  0  0  0
  151.7733  145.1024  156.6865 H   0  0  0  0  0  0  0  0  0  0  0  0
  151.4874  142.6888  156.2418 H   0  0  0  0  0  0  0  0  0  0  0  0
  151.2324  137.5656  153.4458 H   0  0  0  0  0  0  0  0  0  0  0  0
  147.2996  140.6456  151.4926 H   0  0  0  0  0  0  0  0  0  0  0  0
  148.6336  139.8298  152.3172 H   0  0  0  0  0  0  0  0  0  0  0  0
  147.4010  137.8645  151.9851 H   0  0  0  0  0  0  0  0  0  0  0  0
  145.1636  139.5651  151.7618 H   0  0  0  0  0  0  0  0  0  0  0  0
  1  2  1  0  0  0  0
  1 34  1  0  0  0  0
  1 35  1  0  0  0  0
  1 36  1  0  0  0  0
  2  3  1  0  0  0  0
  2  4  1  0  0  0  0
  2  5  1  0  0  0  0
  3 37  1  0  0  0  0
  3 38  1  0  0  0  0
  3 39  1  0  0  0  0
  4 40  1  0  0  0  0
  4 41  1  0  0  0  0
  4 42  1  0  0  0  0
  5  6  1  0  0  0  0
  5  7  1  0  0  0  0
  5  8  1  0  0  0  0
  6 43  1  0  0  0  0
  6 44  1  0  0  0  0
  6 45  1  0  0  0  0
  7 46  1  0  0  0  0
  7 47  1  0  0  0  0
  7 48  1  0  0  0  0
  8  9  1  0  0  0  0
  9 10  1  0  0  0  0
  9 49  1  0  0  0  0
  9 50  1  0  0  0  0
 10 32  1  0  0  0  0
 10 11  1  0  0  0  0
 10 51  1  0  0  0  0
 11 12  1  0  0  0  0
 12 13  1  0  0  0  0
 12 31  1  0  0  0  0
 12 52  1  0  0  0  0
 13 30  1  0  0  0  0
 13 14  1  0  0  0  0
 14 15  2  0  0  0  0
 14 53  1  0  0  0  0
 15 16  1  0  0  0  0
 16 30  2  0  0  0  0
 16 17  1  0  0  0  0
 17 18  1  0  0  0  0
 17 27  2  0  0  0  0
 18 19  1  0  0  0  0
 19 20  2  0  0  0  0
 19 21  1  0  0  0  0
 21 26  1  0  0  0  0
 21 22  2  0  0  0  0
 22 23  1  0  0  0  0
 22 54  1  0  0  0  0
 23 24  2  0  0  0  0
 23 55  1  0  0  0  0
 24 25  1  0  0  0  0
 24 56  1  0  0  0  0
 25 26  2  0  0  0  0
 25 57  1  0  0  0  0
 26 58  1  0  0  0  0
 27 28  1  0  0  0  0
 28 29  2  0  0  0  0
 28 59  1  0  0  0  0
 29 30  1  0  0  0  0
 31 32  1  0  0  0  0
 31 60  1  0  0  0  0
 31 61  1  0  0  0  0
 32 33  1  0  0  0  0
 32 62  1  0  0  0  0
 33 63  1  0  0  0  0
M  CHG  1  18  -1
M  END
> <s_m_source_file>
AV-unprocessed.smi

> <i_m_source_file_index>
36

> <i_lp_mmshare_version>
43012

> <i_f3d_flags>
0

> <s_epik_input>
W0NIM11DKFtDSDNdKShbQ0gzXSlbU2ldKFtDSDNdKShbQ0gzXSlPW0NIMl1bQ0BASF0xT1tDQEhdKFtDSDJdW0NASF0xW09IXSluKFtjSF1uMiljKGMyMyluW2NIXW5jM1tOSF1DKD1PKWM0W2NIXVtjSF1bY0hdW2NIXVtjSF00

> <s_epik_cmdline>
J2VwaWtfcHl0aG9uJywgJy1waCcsICc3LjAnLCAnLXRuJywgJzgnLCAnLW1hJywgJzIwMCcsICctbWV0YWxfYmluZGluZycsICctaW1hZScsICc8aW5maWxlLm1hZT4nLCAnLW9tYWUnLCAnPG91dGZpbGUubWFlPic=

> <r_lp_tautomer_probability>
1

> <r_epik_Ionization_Penalty>
4.75685

> <r_epik_Ionization_Penalty_Charging>
3.55822

> <r_epik_Ionization_Penalty_Neutral>
1.19863

> <r_epik_State_Penalty>
3.564

> <r_epik_Charging_Adjusted_Penalty>
7.12222

> <i_epik_Tot_Q>
-1

> <i_epik_Tot_abs_Q>
1

> <r_epik_Metal_State_Penalty>
0.523258

> <b_epik_Metal_Only>
1

> <s_epik_Chemistry_Notes>
This compound contains an acetal/aminal-like group ( X-CH(R)-Y where X, Y are N, S, or O) that may be acid/base labile, releasing an aldehyde.

> <s_lp_Force_Field>
OPLS_2005

> <r_lp_Energy>
31.8214

> <b_lp_Chiralities_Consistent>
1

> <s_lp_Variant>
AV-unprocessed.smi:36-21

> <Gold.Version>
5.8.1

> <Gold.Id.Protein>
6NUR|6NUR_protein|mol2

> <Gold.PLP.Fitness>
59.7552

> <Gold.PLP.PLP>
-51.4050

> <Gold.PLP.part.hbond>
-2.6714

> <Gold.PLP.part.metal>
0.0000

> <Gold.PLP.part.buried>
-1.9101

> <Gold.PLP.part.nonpolar>
-48.2372

> <Gold.PLP.part.repulsive>
2.9129

> <Gold.PLP.ligand.clash>
0.0000

> <Gold.PLP.ligand.torsion>
2.9236

> <Gold.PLP.Chemscore.Hbond>
3.0000

> <Gold.PLP.Chemscore.CHOScore>
1.6157

> <Gold.PLP.Chemscore.Metal>
0.0000

> <Gold.Chemscore.Hbonds>
donor molecule, donor type, donor heavy atom, donor atom, acceptor molecule, acceptor atom, score
      L1  H    33    63       P1 10175  1.00
      P1  H  7997  8009       L1    18  2.00
      L1  C    14    53       P1  8028  0.65
      L1  C    28    59       P1  7949  1.00

> <Gold.PLP.Chemscore.Internal.Correction>
0.3503

> <Gold.Rescore>
     Score         DG    S(hbond)    S(metal)    S(lipo)     H(rot)  DE(clash)    DE(int)     intcor
      9.61     -19.18       1.89        0.00     121.50       2.67       2.05       7.52       ----

> <Gold.Chemscore.Fitness>
9.6126

> <Gold.Chemscore.DG>
-19.1787

> <Gold.Chemscore.ZeroCoef>
-5.4800

> <Gold.Chemscore.Hbond>
1.8921

> <Gold.Chemscore.Metal>
0.0000

> <Gold.Chemscore.Lipo>
121.4954

> <Gold.Chemscore.Internal_Hbond>
0.0000

> <Gold.Chemscore.DEClash>
2.0502

> <Gold.Chemscore.DEInternal>
7.5159

> <Gold.Chemscore.Rot>
2.6702

> <Gold.Chemscore.Internal.Correction>
   9.000000E+99

> <Gold.Chemscore.Hbonds>
donor molecule, donor type, donor heavy atom, donor atom, acceptor molecule, acceptor atom, score
      L1  H    33    63       P1 10175  0.76
      P1  H  7997  8009       L1    18  0.91

> <Gold.Chemscore.Hbond.Weighted>
-6.3195

> <Gold.Chemscore.Metal.Weighted>
-0.0000

> <Gold.Chemscore.Lipo.Weighted>
-14.2150

> <Gold.Chemscore.Internal_Hbond.Weighted>
0.0000

> <Gold.Chemscore.DEClash.Weighted>
2.0502

> <Gold.Chemscore.DEInternal.Weighted>
7.5159

> <Gold.Chemscore.Rot.Weighted>
6.8358

> <Gold.Chemscore.Internal.Correction.Weighted>
   9.000000E+99

> <Gold.Protein.RotatedTorsions>
[ 6907 6896 6895 6894 ] final  118.79 input  -60.11 | X-H torsion
[ 7974 7965 7964 7962 ] final -156.20 input  175.53 | X-H torsion
[ 8008 7997 7996 7995 ] final -169.36 input   59.86 | X-H torsion
[ 10167 10162 10161 10158 ] final   69.04 input  -65.29 | X-H torsion
[ 10718 10713 10712 10709 ] final  -97.14 input   66.30 | X-H torsion
[ 10763 10752 10751 10750 ] final   80.47 input  -60.55 | X-H torsion
[ 11005 11000 10999 10996 ] final -103.11 input  -57.11 | X-H torsion

> <Gold.Protein.ActiveResidues>
 VAL166  LYS551  ARG553  GLY616  TRP617  ASP618  TYR619  PRO620  LYS621  CYS622 
 ASP623  PHE694  ASN695  SER759  ASP760  ASP761  ALA762  ILE779  LEU786  VAL792 
 PHE793  MET794  SER795  GLU796  ALA797  LYS798  CYS799  TRP800  GLU811  SER814 

> <Gold.Protein.RotatedAtoms>
  152.4518  133.7644  159.6764 H   0  0  0  0  0  0  0  0  0  0  0  0  # atno 6907 bound_to 6896
  150.8432  133.7892  159.3059 H   0  0  0  0  0  0  0  0  0  0  0  0  # atno 6908 bound_to 6896
  151.5511  135.1070  160.0001 H   0  0  0  0  0  0  0  0  0  0  0  0  # atno 6909 bound_to 6896
  144.7604  140.4142  143.5981 H   0  0  0  0  0  0  0  0  0  0  0  0  # atno 7974 bound_to 7965
  155.9039  140.1045  157.1330 H   0  0  0  0  0  0  0  0  0  0  0  0  # atno 8008 bound_to 7997
  154.4030  140.1287  156.4535 H   0  0  0  0  0  0  0  0  0  0  0  0  # atno 8009 bound_to 7997
  155.7390  140.3467  155.5097 H   0  0  0  0  0  0  0  0  0  0  0  0  # atno 8010 bound_to 7997
  140.0722  144.5143  150.7220 H   0  0  0  0  0  0  0  0  0  0  0  0  # atno 10167 bound_to 10162
  156.0077  130.5181  150.6331 H   0  0  0  0  0  0  0  0  0  0  0  0  # atno 10718 bound_to 10713
  153.1036  135.4801  154.8911 H   0  0  0  0  0  0  0  0  0  0  0  0  # atno 10763 bound_to 10752
  154.7406  135.3081  154.8738 H   0  0  0  0  0  0  0  0  0  0  0  0  # atno 10764 bound_to 10752
  153.9347  135.6841  153.4798 H   0  0  0  0  0  0  0  0  0  0  0  0  # atno 10765 bound_to 10752
  141.1160  133.8613  157.1445 H   0  0  0  0  0  0  0  0  0  0  0  0  # atno 11005 bound_to 11000
  145.6639  139.1586  143.2793 LP  0  0  0  0  0  0  0  0  0  0  0  0  # atno 17320 bound_to 7965
  146.1660  140.6717  142.9255 LP  0  0  0  0  0  0  0  0  0  0  0  0  # atno 17321 bound_to 7965
  140.7120  143.2513  151.4552 LP  0  0  0  0  0  0  0  0  0  0  0  0  # atno 17342 bound_to 10162
  139.5829  144.1668  152.1992 LP  0  0  0  0  0  0  0  0  0  0  0  0  # atno 17343 bound_to 10162
  157.4125  131.0825  151.1207 LP  0  0  0  0  0  0  0  0  0  0  0  0  # atno 17370 bound_to 10713
  157.1835  130.6320  149.5680 LP  0  0  0  0  0  0  0  0  0  0  0  0  # atno 17371 bound_to 10713
  140.0083  134.9999  157.0339 LP  0  0  0  0  0  0  0  0  0  0  0  0  # atno 17394 bound_to 11000
  140.4644  134.1450  155.7195 LP  0  0  0  0  0  0  0  0  0  0  0  0  # atno 17395 bound_to 11000

$$$$
