AV-unprocessed.smi:236|AV-procd|sdf|1811|dock2
  -GOLD-   2262020393D 1   1.00000     0.00000
 Structure written by MMmdl.
 58 62  0  0  0  0  0  0  0  0  1 V2000
  145.0562  133.0039  162.6546 C   0  0  0  0  0  0  0  0  0  0  0  0
  146.0638  134.0275  162.1075 C   0  0  2  0  0  0  0  0  0  0  0  0
  146.9530  134.4214  163.1461 O   0  0  0  0  0  0  0  0  0  0  0  0
  147.4653  135.7001  162.8187 C   0  0  0  0  0  0  0  0  0  0  0  0
  146.2241  136.4247  162.3223 C   0  0  0  0  0  0  0  0  0  0  0  0
  145.4811  135.3465  161.5281 C   0  0  2  0  0  0  0  0  0  0  0  0
  144.0937  135.4837  161.7881 O   0  0  0  0  0  0  0  0  0  0  0  0
  145.7052  135.4271  159.9955 C   0  0  0  0  0  0  0  0  0  0  0  0
  147.0059  135.9514  159.6047 N   0  0  0  0  0  0  0  0  0  0  0  0
  148.2382  135.4169  159.9085 C   0  0  0  0  0  0  0  0  0  0  0  0
  149.2629  136.0815  159.4483 N   0  0  0  0  0  0  0  0  0  0  0  0
  148.6950  137.1652  158.7890 C   0  0  0  0  0  0  0  0  0  0  0  0
  149.2150  138.2817  158.0751 C   0  0  0  0  0  0  0  0  0  0  0  0
  150.5263  138.5302  157.8791 N   0  0  0  0  0  0  0  0  0  0  0  0
  150.8915  138.6623  156.4752 C   0  0  0  0  0  0  0  0  0  0  0  0
  152.4176  138.7928  156.3445 C   0  0  0  0  0  0  0  0  0  0  0  0
  152.8693  139.8834  157.1421 O   0  0  0  0  0  0  0  0  0  0  0  0
  152.5885  139.6990  158.5289 C   0  0  1  0  0  0  0  0  0  0  0  0
  153.1775  140.8864  159.3011 C   0  0  0  0  0  0  0  0  0  0  0  0
  152.2838  141.9841  159.2174 O   0  0  0  0  0  0  0  0  0  0  0  0
  152.6991  143.0878  160.0034 C   0  0  0  0  0  0  0  0  0  0  0  0
  152.6043  144.3498  159.1724 C   0  0  0  0  0  0  0  0  0  0  0  0
  151.3136  145.1346  159.0954 C   0  0  0  0  0  0  0  0  0  0  0  0
  151.7941  144.3588  157.8958 C   0  0  0  0  0  0  0  0  0  0  0  0
  151.0605  139.6040  158.7069 C   0  0  0  0  0  0  0  0  0  0  0  0
  148.3352  139.1729  157.5570 N   0  0  0  0  0  0  0  0  0  0  0  0
  147.0222  138.9876  157.7228 C   0  0  0  0  0  0  0  0  0  0  0  0
  146.3917  137.9990  158.3610 N   0  0  0  0  0  0  0  0  0  0  0  0
  147.2765  137.1012  158.8830 C   0  0  0  0  0  0  0  0  0  0  0  0
  144.3612  132.6831  161.8781 H   0  0  0  0  0  0  0  0  0  0  0  0
  144.4756  133.4162  163.4803 H   0  0  0  0  0  0  0  0  0  0  0  0
  145.5697  132.1168  163.0254 H   0  0  0  0  0  0  0  0  0  0  0  0
  146.6738  133.5339  161.3491 H   0  0  0  0  0  0  0  0  0  0  0  0
  147.9213  136.1864  163.6812 H   0  0  0  0  0  0  0  0  0  0  0  0
  148.2139  135.6131  162.0294 H   0  0  0  0  0  0  0  0  0  0  0  0
  145.6394  136.7354  163.1901 H   0  0  0  0  0  0  0  0  0  0  0  0
  146.4618  137.3244  161.7574 H   0  0  0  0  0  0  0  0  0  0  0  0
  143.9851  135.7959  162.6732 H   0  0  0  0  0  0  0  0  0  0  0  0
  145.5906  134.4390  159.5478 H   0  0  0  0  0  0  0  0  0  0  0  0
  144.9387  136.0554  159.5397 H   0  0  0  0  0  0  0  0  0  0  0  0
  148.3542  134.5102  160.4846 H   0  0  0  0  0  0  0  0  0  0  0  0
  150.5402  137.7945  155.9151 H   0  0  0  0  0  0  0  0  0  0  0  0
  150.4082  139.5416  156.0471 H   0  0  0  0  0  0  0  0  0  0  0  0
  152.9159  137.8719  156.6512 H   0  0  0  0  0  0  0  0  0  0  0  0
  152.6924  138.9735  155.3053 H   0  0  0  0  0  0  0  0  0  0  0  0
  153.0531  138.7763  158.8822 H   0  0  0  0  0  0  0  0  0  0  0  0
  153.3624  140.6113  160.3409 H   0  0  0  0  0  0  0  0  0  0  0  0
  154.1340  141.1752  158.8624 H   0  0  0  0  0  0  0  0  0  0  0  0
  152.0537  143.1919  160.8769 H   0  0  0  0  0  0  0  0  0  0  0  0
  153.7227  142.9501  160.3558 H   0  0  0  0  0  0  0  0  0  0  0  0
  153.5258  144.9284  159.1450 H   0  0  0  0  0  0  0  0  0  0  0  0
  150.4494  144.7464  159.6306 H   0  0  0  0  0  0  0  0  0  0  0  0
  151.3884  146.2195  159.0563 H   0  0  0  0  0  0  0  0  0  0  0  0
  152.1884  144.9259  157.0550 H   0  0  0  0  0  0  0  0  0  0  0  0
  151.2510  143.4532  157.6330 H   0  0  0  0  0  0  0  0  0  0  0  0
  150.5973  140.5521  158.4314 H   0  0  0  0  0  0  0  0  0  0  0  0
  150.8153  139.4163  159.7532 H   0  0  0  0  0  0  0  0  0  0  0  0
  146.3852  139.7407  157.2830 H   0  0  0  0  0  0  0  0  0  0  0  0
  1  2  1  0  0  0  0
  1 30  1  0  0  0  0
  1 31  1  0  0  0  0
  1 32  1  0  0  0  0
  2  6  1  0  0  0  0
  2  3  1  0  0  0  0
  2 33  1  0  0  0  0
  3  4  1  0  0  0  0
  4  5  1  0  0  0  0
  4 34  1  0  0  0  0
  4 35  1  0  0  0  0
  5  6  1  0  0  0  0
  5 36  1  0  0  0  0
  5 37  1  0  0  0  0
  6  7  1  0  0  0  0
  6  8  1  0  0  0  0
  7 38  1  0  0  0  0
  8  9  1  0  0  0  0
  8 39  1  0  0  0  0
  8 40  1  0  0  0  0
  9 29  1  0  0  0  0
  9 10  1  0  0  0  0
 10 11  2  0  0  0  0
 10 41  1  0  0  0  0
 11 12  1  0  0  0  0
 12 29  2  0  0  0  0
 12 13  1  0  0  0  0
 13 14  1  0  0  0  0
 13 26  2  0  0  0  0
 14 25  1  0  0  0  0
 14 15  1  0  0  0  0
 15 16  1  0  0  0  0
 15 42  1  0  0  0  0
 15 43  1  0  0  0  0
 16 17  1  0  0  0  0
 16 44  1  0  0  0  0
 16 45  1  0  0  0  0
 17 18  1  0  0  0  0
 18 19  1  0  0  0  0
 18 25  1  0  0  0  0
 18 46  1  0  0  0  0
 19 20  1  0  0  0  0
 19 47  1  0  0  0  0
 19 48  1  0  0  0  0
 20 21  1  0  0  0  0
 21 22  1  0  0  0  0
 21 49  1  0  0  0  0
 21 50  1  0  0  0  0
 22 24  1  0  0  0  0
 22 23  1  0  0  0  0
 22 51  1  0  0  0  0
 23 24  1  0  0  0  0
 23 52  1  0  0  0  0
 23 53  1  0  0  0  0
 24 54  1  0  0  0  0
 24 55  1  0  0  0  0
 25 56  1  0  0  0  0
 25 57  1  0  0  0  0
 26 27  1  0  0  0  0
 27 28  2  0  0  0  0
 27 58  1  0  0  0  0
 28 29  1  0  0  0  0
M  END
> <s_m_source_file>
AV-unprocessed.smi

> <i_m_source_file_index>
236

> <i_lp_mmshare_version>
43012

> <i_f3d_flags>
0

> <s_epik_input>
W0NIMl0xW0NIMl1PW0NAQEhdKFtDSDNdKVtDQEBdMShbT0hdKVtDSDJdbihbY0hdbjIpYyhjMjMpbltjSF1uYzNONFtDSDJdW0NIMl1PW0NASF0oW0NIMl00KVtDSDJdT1tDSDJdW0NIXTVbQ0gyXVtDSDJdNQ==

> <s_epik_cmdline>
J2VwaWtfcHl0aG9uJywgJy1waCcsICc3LjAnLCAnLXRuJywgJzgnLCAnLW1hJywgJzIwMCcsICctbWV0YWxfYmluZGluZycsICctaW1hZScsICc8aW5maWxlLm1hZT4nLCAnLW9tYWUnLCAnPG91dGZpbGUubWFlPic=

> <r_lp_tautomer_probability>
1

> <r_epik_Ionization_Penalty>
7.21838e-05

> <r_epik_Ionization_Penalty_Charging>
0

> <r_epik_Ionization_Penalty_Neutral>
7.21838e-05

> <r_epik_State_Penalty>
-0

> <r_epik_Charging_Adjusted_Penalty>
0

> <i_epik_Tot_Q>
0

> <i_epik_Tot_abs_Q>
0

> <r_epik_Metal_State_Penalty>
-0

> <b_epik_Metal_Only>
0

> <s_lp_Force_Field>
OPLS_2005

> <r_lp_Energy>
49.5811

> <b_lp_Chiralities_Consistent>
1

> <s_lp_Variant>
AV-unprocessed.smi:236-3

> <Gold.Version>
5.8.1

> <Gold.Id.Protein>
6NUR|6NUR_protein|mol2

> <Gold.PLP.Fitness>
51.2202

> <Gold.PLP.PLP>
-47.7717

> <Gold.PLP.part.hbond>
-2.8536

> <Gold.PLP.part.metal>
0.0000

> <Gold.PLP.part.buried>
-5.6994

> <Gold.PLP.part.nonpolar>
-39.2795

> <Gold.PLP.part.repulsive>
0.0053

> <Gold.PLP.ligand.clash>
0.0000

> <Gold.PLP.ligand.torsion>
1.7141

> <Gold.PLP.Chemscore.Hbond>
2.0000

> <Gold.PLP.Chemscore.CHOScore>
0.0000

> <Gold.PLP.Chemscore.Metal>
0.0000

> <Gold.Chemscore.Hbonds>
donor molecule, donor type, donor heavy atom, donor atom, acceptor molecule, acceptor atom, score
      P1  H  6896  6909       L1    11  1.00
      P1  H  7997  8008       L1    17  1.00

> <Gold.PLP.Chemscore.Internal.Correction>
0.8767

> <Gold.Rescore>
     Score         DG    S(hbond)    S(metal)    S(lipo)     H(rot)  DE(clash)    DE(int)     intcor
     16.67     -18.29       1.82        0.00     120.37       2.87       0.02       1.60       ----

> <Gold.Chemscore.Fitness>
16.6717

> <Gold.Chemscore.DG>
-18.2920

> <Gold.Chemscore.ZeroCoef>
-5.4800

> <Gold.Chemscore.Hbond>
1.8156

> <Gold.Chemscore.Metal>
0.0000

> <Gold.Chemscore.Lipo>
120.3724

> <Gold.Chemscore.Internal_Hbond>
0.0000

> <Gold.Chemscore.DEClash>
0.0234

> <Gold.Chemscore.DEInternal>
1.5969

> <Gold.Chemscore.Rot>
2.8655

> <Gold.Chemscore.Internal.Correction>
   9.000000E+99

> <Gold.Chemscore.Hbonds>
donor molecule, donor type, donor heavy atom, donor atom, acceptor molecule, acceptor atom, score
      P1  H  6896  6909       L1    11  0.33
      P1  H  7997  8008       L1    17  0.50

> <Gold.Chemscore.Hbond.Weighted>
-6.0642

> <Gold.Chemscore.Metal.Weighted>
-0.0000

> <Gold.Chemscore.Lipo.Weighted>
-14.0836

> <Gold.Chemscore.Internal_Hbond.Weighted>
0.0000

> <Gold.Chemscore.DEClash.Weighted>
0.0234

> <Gold.Chemscore.DEInternal.Weighted>
1.5969

> <Gold.Chemscore.Rot.Weighted>
7.3358

> <Gold.Chemscore.Internal.Correction.Weighted>
   9.000000E+99

> <Gold.Protein.RotatedTorsions>
[ 6907 6896 6895 6894 ] final   61.09 input  -60.11 | X-H torsion
[ 7974 7965 7964 7962 ] final  -25.49 input  175.53 | X-H torsion
[ 8008 7997 7996 7995 ] final  -73.10 input   59.86 | X-H torsion
[ 10167 10162 10161 10158 ] final   -1.54 input  -65.29 | X-H torsion
[ 10718 10713 10712 10709 ] final   19.14 input   66.30 | X-H torsion
[ 10763 10752 10751 10750 ] final  109.75 input  -60.55 | X-H torsion
[ 11005 11000 10999 10996 ] final  -79.56 input  -57.11 | X-H torsion

> <Gold.Protein.ActiveResidues>
 VAL166  LYS551  ARG553  GLY616  TRP617  ASP618  TYR619  PRO620  LYS621  CYS622 
 ASP623  PHE694  ASN695  SER759  ASP760  ASP761  ALA762  ILE779  LEU786  VAL792 
 PHE793  MET794  SER795  GLU796  ALA797  LYS798  CYS799  TRP800  GLU811  SER814 

> <Gold.Protein.RotatedAtoms>
  152.4059  134.6207  160.0049 H   0  0  0  0  0  0  0  0  0  0  0  0  # atno 6907 bound_to 6896
  151.6399  133.3321  159.3136 H   0  0  0  0  0  0  0  0  0  0  0  0  # atno 6908 bound_to 6896
  150.7954  134.7051  159.6617 H   0  0  0  0  0  0  0  0  0  0  0  0  # atno 6909 bound_to 6896
  146.1487  140.4893  142.8620 H   0  0  0  0  0  0  0  0  0  0  0  0  # atno 7974 bound_to 7965
  154.5220  140.0785  156.8189 H   0  0  0  0  0  0  0  0  0  0  0  0  # atno 8008 bound_to 7997
  155.3556  140.3415  155.4222 H   0  0  0  0  0  0  0  0  0  0  0  0  # atno 8009 bound_to 7997
  156.1691  140.1614  156.8466 H   0  0  0  0  0  0  0  0  0  0  0  0  # atno 8010 bound_to 7997
  140.6814  143.6763  150.8142 H   0  0  0  0  0  0  0  0  0  0  0  0  # atno 10167 bound_to 10162
  157.1063  130.6489  149.5885 H   0  0  0  0  0  0  0  0  0  0  0  0  # atno 10718 bound_to 10713
  153.4392  135.3770  155.2218 H   0  0  0  0  0  0  0  0  0  0  0  0  # atno 10763 bound_to 10752
  154.8753  135.3859  154.4173 H   0  0  0  0  0  0  0  0  0  0  0  0  # atno 10764 bound_to 10752
  153.4716  135.7087  153.6053 H   0  0  0  0  0  0  0  0  0  0  0  0  # atno 10765 bound_to 10752
  141.1667  133.7111  156.8142 H   0  0  0  0  0  0  0  0  0  0  0  0  # atno 11005 bound_to 11000
  144.7878  140.5971  143.6562 LP  0  0  0  0  0  0  0  0  0  0  0  0  # atno 17320 bound_to 7965
  145.4874  139.1491  143.3728 LP  0  0  0  0  0  0  0  0  0  0  0  0  # atno 17321 bound_to 7965
  140.0464  143.5294  152.2694 LP  0  0  0  0  0  0  0  0  0  0  0  0  # atno 17342 bound_to 10162
  139.6140  144.7615  151.2888 LP  0  0  0  0  0  0  0  0  0  0  0  0  # atno 17343 bound_to 10162
  155.9861  130.4894  150.7064 LP  0  0  0  0  0  0  0  0  0  0  0  0  # atno 17370 bound_to 10713
  157.4597  131.0882  151.0758 LP  0  0  0  0  0  0  0  0  0  0  0  0  # atno 17371 bound_to 10713
  140.2166  134.8788  157.3332 LP  0  0  0  0  0  0  0  0  0  0  0  0  # atno 17394 bound_to 11000
  140.2031  134.4230  155.7652 LP  0  0  0  0  0  0  0  0  0  0  0  0  # atno 17395 bound_to 11000

$$$$
