AV-unprocessed.smi:3135|AV-procd|sdf|11947|dock5
  -GOLD-   2272017343D 1   1.00000     0.00000
 Structure written by MMmdl.
 37 38  0  0  0  0  0  0  0  0  1 V2000
  152.2828  145.0462  159.7492 C   0  0  0  0  0  0  0  0  0  0  0  0
  151.9579  143.7926  158.9895 C   0  0  0  0  0  0  0  0  0  0  0  0
  152.6089  142.5291  159.0728 C   0  0  0  0  0  0  0  0  0  0  0  0
  152.0791  141.6232  158.2674 N   0  0  0  0  0  0  0  0  0  0  0  0
  151.0701  142.2709  157.6464 N   0  0  0  0  0  0  0  0  0  0  0  0
  150.2542  141.5715  156.6687 C   0  0  0  0  0  0  0  0  0  0  0  0
  148.8038  141.4446  157.1409 C   0  0  0  0  0  0  0  0  0  0  0  0
  148.3130  140.3328  157.3374 O   0  0  0  0  0  0  0  0  0  0  0  0
  148.1298  142.5913  157.3208 N   0  0  0  0  0  0  0  0  0  0  0  0
  146.7469  142.6886  157.7711 C   0  0  0  0  0  0  0  0  0  0  0  0
  146.6657  142.8459  159.3019 C   0  0  0  0  0  0  0  0  0  0  0  0
  145.2986  142.6963  159.7960 N   0  0  0  0  0  0  0  0  0  0  0  0
  144.6759  141.4914  159.2599 C   0  0  0  0  0  0  0  0  0  0  0  0
  145.3406  142.5730  161.2446 C   0  0  0  0  0  0  0  0  0  0  0  0
  144.3817  143.4220  162.0482 C   0  0  0  0  0  0  0  0  0  0  0  0
  145.8532  143.7578  162.0321 C   0  0  0  0  0  0  0  0  0  0  0  0
  150.9788  143.5841  158.0597 C   0  0  0  0  0  0  0  0  0  0  0  0
  152.4656  144.8409  160.8040 H   0  0  0  0  0  0  0  0  0  0  0  0
  151.4714  145.7726  159.7004 H   0  0  0  0  0  0  0  0  0  0  0  0
  153.1753  145.5334  159.3563 H   0  0  0  0  0  0  0  0  0  0  0  0
  153.4476  142.2458  159.6914 H   0  0  0  0  0  0  0  0  0  0  0  0
  150.3090  142.1119  155.7227 H   0  0  0  0  0  0  0  0  0  0  0  0
  150.6640  140.5755  156.4933 H   0  0  0  0  0  0  0  0  0  0  0  0
  148.6110  143.4594  157.1352 H   0  0  0  0  0  0  0  0  0  0  0  0
  146.2510  143.5234  157.2728 H   0  0  0  0  0  0  0  0  0  0  0  0
  146.2376  141.7827  157.4448 H   0  0  0  0  0  0  0  0  0  0  0  0
  147.3309  142.1402  159.8023 H   0  0  0  0  0  0  0  0  0  0  0  0
  147.0191  143.8448  159.5622 H   0  0  0  0  0  0  0  0  0  0  0  0
  143.6756  141.3642  159.6756 H   0  0  0  0  0  0  0  0  0  0  0  0
  145.2580  140.6010  159.5020 H   0  0  0  0  0  0  0  0  0  0  0  0
  144.5683  141.5471  158.1774 H   0  0  0  0  0  0  0  0  0  0  0  0
  145.5686  141.5991  161.6752 H   0  0  0  0  0  0  0  0  0  0  0  0
  143.7105  144.0861  161.5067 H   0  0  0  0  0  0  0  0  0  0  0  0
  143.9742  142.9901  162.9599 H   0  0  0  0  0  0  0  0  0  0  0  0
  146.4270  143.5502  162.9329 H   0  0  0  0  0  0  0  0  0  0  0  0
  146.1594  144.6438  161.4786 H   0  0  0  0  0  0  0  0  0  0  0  0
  150.2291  144.2534  157.6638 H   0  0  0  0  0  0  0  0  0  0  0  0
  1  2  1  0  0  0  0
  1 18  1  0  0  0  0
  1 19  1  0  0  0  0
  1 20  1  0  0  0  0
  2 17  2  0  0  0  0
  2  3  1  0  0  0  0
  3  4  2  0  0  0  0
  3 21  1  0  0  0  0
  4  5  1  0  0  0  0
  5  6  1  0  0  0  0
  5 17  1  0  0  0  0
  6  7  1  0  0  0  0
  6 22  1  0  0  0  0
  6 23  1  0  0  0  0
  7  8  2  0  0  0  0
  7  9  1  0  0  0  0
  9 10  1  0  0  0  0
  9 24  1  0  0  0  0
 10 11  1  0  0  0  0
 10 25  1  0  0  0  0
 10 26  1  0  0  0  0
 11 12  1  0  0  0  0
 11 27  1  0  0  0  0
 11 28  1  0  0  0  0
 12 13  1  0  0  0  0
 12 14  1  0  0  0  0
 13 29  1  0  0  0  0
 13 30  1  0  0  0  0
 13 31  1  0  0  0  0
 14 16  1  0  0  0  0
 14 15  1  0  0  0  0
 14 32  1  0  0  0  0
 15 16  1  0  0  0  0
 15 33  1  0  0  0  0
 15 34  1  0  0  0  0
 16 35  1  0  0  0  0
 16 36  1  0  0  0  0
 17 37  1  0  0  0  0
M  END
> <s_m_source_file>
AV-unprocessed.smi

> <i_m_source_file_index>
3135

> <i_lp_mmshare_version>
43012

> <i_f3d_flags>
0

> <s_epik_input>
W0NIM11jMVtjSF1ubihbY0hdMSlbQ0gyXUMoPU8pW05IXVtDSDJdW0NIMl1OKFtDSDNdKVtDSF0yW0NIMl1bQ0gyXTI=

> <s_epik_cmdline>
J2VwaWtfcHl0aG9uJywgJy1waCcsICc3LjAnLCAnLXRuJywgJzgnLCAnLW1hJywgJzIwMCcsICctbWV0YWxfYmluZGluZycsICctaW1hZScsICc8aW5maWxlLm1hZT4nLCAnLW9tYWUnLCAnPG91dGZpbGUubWFlPic=

> <r_lp_tautomer_probability>
1

> <r_epik_Ionization_Penalty>
0.809981

> <r_epik_Ionization_Penalty_Charging>
0

> <r_epik_Ionization_Penalty_Neutral>
0.809981

> <r_epik_State_Penalty>
0.842006

> <r_epik_Charging_Adjusted_Penalty>
0.842006

> <i_epik_Tot_Q>
0

> <i_epik_Tot_abs_Q>
0

> <r_epik_Metal_State_Penalty>
0.84199

> <b_epik_Metal_Only>
0

> <s_lp_Force_Field>
OPLS_2005

> <r_lp_Energy>
14.2809

> <b_lp_Chiralities_Consistent>
1

> <s_lp_Variant>
AV-unprocessed.smi:3135-3

> <Gold.Version>
5.8.1

> <Gold.Id.Protein>
6NUR|6NUR_protein|mol2

> <Gold.PLP.Fitness>
39.1342

> <Gold.PLP.PLP>
-33.9178

> <Gold.PLP.part.hbond>
-1.0000

> <Gold.PLP.part.metal>
0.0000

> <Gold.PLP.part.buried>
-4.5446

> <Gold.PLP.part.nonpolar>
-28.7184

> <Gold.PLP.part.repulsive>
0.0544

> <Gold.PLP.ligand.clash>
0.0000

> <Gold.PLP.ligand.torsion>
0.9857

> <Gold.PLP.Chemscore.Hbond>
0.9920

> <Gold.PLP.Chemscore.CHOScore>
1.0000

> <Gold.PLP.Chemscore.Metal>
0.0000

> <Gold.Chemscore.Hbonds>
donor molecule, donor type, donor heavy atom, donor atom, acceptor molecule, acceptor atom, score
      L1  H     9    24       P1  8028  0.76
      L1  C    17    37       P1  8028  1.00
      L1  C    17    37       P1  8029  0.01

> <Gold.PLP.Chemscore.Internal.Correction>
1.2119

> <Gold.Rescore>
     Score         DG    S(hbond)    S(metal)    S(lipo)     H(rot)  DE(clash)    DE(int)     intcor
     11.59     -12.52       0.88        0.00      75.55       1.85       0.00       0.92       ----

> <Gold.Chemscore.Fitness>
11.5920

> <Gold.Chemscore.DG>
-12.5199

> <Gold.Chemscore.ZeroCoef>
-5.4800

> <Gold.Chemscore.Hbond>
0.8782

> <Gold.Chemscore.Metal>
0.0000

> <Gold.Chemscore.Lipo>
75.5497

> <Gold.Chemscore.Internal_Hbond>
0.0000

> <Gold.Chemscore.DEClash>
0.0047

> <Gold.Chemscore.DEInternal>
0.9232

> <Gold.Chemscore.Rot>
1.8487

> <Gold.Chemscore.Internal.Correction>
   9.000000E+99

> <Gold.Chemscore.Hbonds>
donor molecule, donor type, donor heavy atom, donor atom, acceptor molecule, acceptor atom, score
      L1  H     9    24       P1  8028  0.17

> <Gold.Chemscore.Hbond.Weighted>
-2.9333

> <Gold.Chemscore.Metal.Weighted>
-0.0000

> <Gold.Chemscore.Lipo.Weighted>
-8.8393

> <Gold.Chemscore.Internal_Hbond.Weighted>
0.0000

> <Gold.Chemscore.DEClash.Weighted>
0.0047

> <Gold.Chemscore.DEInternal.Weighted>
0.9232

> <Gold.Chemscore.Rot.Weighted>
4.7326

> <Gold.Chemscore.Internal.Correction.Weighted>
   9.000000E+99

> <Gold.Protein.RotatedTorsions>
[ 6907 6896 6895 6894 ] final  140.69 input  -60.11 | X-H torsion
[ 7974 7965 7964 7962 ] final  177.09 input  175.53 | X-H torsion
[ 8008 7997 7996 7995 ] final -143.50 input   59.86 | X-H torsion
[ 10167 10162 10161 10158 ] final  -54.22 input  -65.29 | X-H torsion
[ 10718 10713 10712 10709 ] final   89.13 input   66.30 | X-H torsion
[ 10763 10752 10751 10750 ] final  175.88 input  -60.55 | X-H torsion
[ 11005 11000 10999 10996 ] final  -90.78 input  -57.11 | X-H torsion

> <Gold.Protein.ActiveResidues>
 VAL166  LYS551  ARG553  GLY616  TRP617  ASP618  TYR619  PRO620  LYS621  CYS622 
 ASP623  PHE694  ASN695  SER759  ASP760  ASP761  ALA762  ILE779  LEU786  VAL792 
 PHE793  MET794  SER795  GLU796  ALA797  LYS798  CYS799  TRP800  GLU811  SER814 

> <Gold.Protein.RotatedAtoms>
  152.2400  133.5127  159.5264 H   0  0  0  0  0  0  0  0  0  0  0  0  # atno 6907 bound_to 6896
  150.7061  134.1102  159.4006 H   0  0  0  0  0  0  0  0  0  0  0  0  # atno 6908 bound_to 6896
  151.9022  135.0373  160.0558 H   0  0  0  0  0  0  0  0  0  0  0  0  # atno 6909 bound_to 6896
  144.7174  140.0195  143.6440 H   0  0  0  0  0  0  0  0  0  0  0  0  # atno 7974 bound_to 7965
  155.5116  140.0584  157.2922 H   0  0  0  0  0  0  0  0  0  0  0  0  # atno 8008 bound_to 7997
  154.4550  140.1968  156.0355 H   0  0  0  0  0  0  0  0  0  0  0  0  # atno 8009 bound_to 7997
  156.0780  140.3251  155.7662 H   0  0  0  0  0  0  0  0  0  0  0  0  # atno 8010 bound_to 7997
  140.6443  143.2525  151.4904 H   0  0  0  0  0  0  0  0  0  0  0  0  # atno 10167 bound_to 10162
  157.6953  131.0321  150.3379 H   0  0  0  0  0  0  0  0  0  0  0  0  # atno 10718 bound_to 10713
  154.4736  135.2772  155.1624 H   0  0  0  0  0  0  0  0  0  0  0  0  # atno 10763 bound_to 10752
  154.3363  135.6179  153.5578 H   0  0  0  0  0  0  0  0  0  0  0  0  # atno 10764 bound_to 10752
  152.9867  135.5777  154.5122 H   0  0  0  0  0  0  0  0  0  0  0  0  # atno 10765 bound_to 10752
  141.1558  133.7714  156.9786 H   0  0  0  0  0  0  0  0  0  0  0  0  # atno 11005 bound_to 11000
  146.0193  139.3237  143.0823 LP  0  0  0  0  0  0  0  0  0  0  0  0  # atno 17320 bound_to 7965
  145.8588  140.9487  143.0711 LP  0  0  0  0  0  0  0  0  0  0  0  0  # atno 17321 bound_to 7965
  139.5652  144.2059  152.1754 LP  0  0  0  0  0  0  0  0  0  0  0  0  # atno 17342 bound_to 10162
  140.1338  144.5264  150.6786 LP  0  0  0  0  0  0  0  0  0  0  0  0  # atno 17343 bound_to 10162
  156.3844  130.3886  149.7077 LP  0  0  0  0  0  0  0  0  0  0  0  0  # atno 17370 bound_to 10713
  156.4448  130.7878  151.2900 LP  0  0  0  0  0  0  0  0  0  0  0  0  # atno 17371 bound_to 10713
  140.1081  134.9494  157.2024 LP  0  0  0  0  0  0  0  0  0  0  0  0  # atno 17394 bound_to 11000
  140.3230  134.2895  155.7242 LP  0  0  0  0  0  0  0  0  0  0  0  0  # atno 17395 bound_to 11000

$$$$
