AV-unprocessed.smi:487|AV-procd|sdf|2699|dock2
  -GOLD-   2262023133D 1   1.00000     0.00000
 Structure written by MMmdl.
 41 42  0  0  0  0  0  0  0  0  1 V2000
  151.9796  139.7741  156.4296 O   0  0  0  0  0  0  0  0  0  0  0  0
  150.8613  140.2801  156.3423 C   0  0  0  0  0  0  0  0  0  0  0  0
  149.8029  139.6055  155.4526 C   0  0  0  0  0  0  0  0  0  0  0  0
  148.5213  140.3257  155.3687 N   0  0  0  0  0  0  0  0  0  0  0  0
  148.1077  140.8750  154.1633 C   0  0  0  0  0  0  0  0  0  0  0  0
  146.9509  141.5632  154.0153 C   0  0  0  0  0  0  0  0  0  0  0  0
  146.0601  141.7636  155.1532 C   0  0  0  0  0  0  0  0  0  0  0  0
  144.9930  142.3722  155.1199 O   0  0  0  0  0  0  0  0  0  0  0  0
  146.5114  141.1969  156.3483 N   0  0  0  0  0  0  0  0  0  0  0  0
  147.7027  140.4880  156.5081 C   0  0  0  0  0  0  0  0  0  0  0  0
  148.0110  140.0378  157.6108 O   0  0  0  0  0  0  0  0  0  0  0  0
  150.5192  141.4082  156.9891 N   0  0  0  0  0  0  0  0  0  0  0  0
  151.3785  142.1808  157.8841 C   0  0  0  0  0  0  0  0  0  0  0  0
  151.8664  141.2107  158.9910 C   0  0  0  0  0  0  0  0  0  0  0  0
  153.1873  141.5887  159.6839 C   0  0  0  0  0  0  0  0  0  0  0  0
  153.0731  142.3897  160.9967 C   0  0  0  0  0  0  0  0  0  0  0  0
  152.2711  143.7020  160.9481 C   0  0  0  0  0  0  0  0  0  0  0  0
  152.5441  144.5706  159.7069 C   0  0  0  0  0  0  0  0  0  0  0  0
  151.3638  144.6774  158.7257 C   0  0  0  0  0  0  0  0  0  0  0  0
  150.5709  143.3916  158.4102 C   0  0  0  0  0  0  0  0  0  0  0  0
  145.9279  141.3115  157.1642 H   0  0  0  0  0  0  0  0  0  0  0  0
  150.2274  139.4928  154.4539 H   0  0  0  0  0  0  0  0  0  0  0  0
  149.6460  138.5855  155.8083 H   0  0  0  0  0  0  0  0  0  0  0  0
  148.7394  140.7551  153.2945 H   0  0  0  0  0  0  0  0  0  0  0  0
  146.6841  141.9689  153.0501 H   0  0  0  0  0  0  0  0  0  0  0  0
  149.5790  141.7526  156.8587 H   0  0  0  0  0  0  0  0  0  0  0  0
  152.2381  142.5316  157.3104 H   0  0  0  0  0  0  0  0  0  0  0  0
  151.0829  141.0271  159.7273 H   0  0  0  0  0  0  0  0  0  0  0  0
  152.0448  140.2406  158.5235 H   0  0  0  0  0  0  0  0  0  0  0  0
  153.7037  140.6611  159.9343 H   0  0  0  0  0  0  0  0  0  0  0  0
  153.8534  142.0821  158.9765 H   0  0  0  0  0  0  0  0  0  0  0  0
  152.6462  141.7518  161.7714 H   0  0  0  0  0  0  0  0  0  0  0  0
  154.0851  142.6178  161.3329 H   0  0  0  0  0  0  0  0  0  0  0  0
  151.2078  143.4926  161.0542 H   0  0  0  0  0  0  0  0  0  0  0  0
  152.5221  144.2780  161.8396 H   0  0  0  0  0  0  0  0  0  0  0  0
  152.7922  145.5802  160.0362 H   0  0  0  0  0  0  0  0  0  0  0  0
  153.4362  144.2355  159.1801 H   0  0  0  0  0  0  0  0  0  0  0  0
  150.6575  145.4076  159.1223 H   0  0  0  0  0  0  0  0  0  0  0  0
  151.7299  145.1068  157.7924 H   0  0  0  0  0  0  0  0  0  0  0  0
  149.8353  143.6829  157.6586 H   0  0  0  0  0  0  0  0  0  0  0  0
  149.9677  143.0889  159.2658 H   0  0  0  0  0  0  0  0  0  0  0  0
  1  2  2  0  0  0  0
  2  3  1  0  0  0  0
  2 12  1  0  0  0  0
  3  4  1  0  0  0  0
  3 22  1  0  0  0  0
  3 23  1  0  0  0  0
  4 10  1  0  0  0  0
  4  5  1  0  0  0  0
  5  6  2  0  0  0  0
  5 24  1  0  0  0  0
  6  7  1  0  0  0  0
  6 25  1  0  0  0  0
  7  8  2  0  0  0  0
  7  9  1  0  0  0  0
  9 21  1  0  0  0  0
  9 10  1  0  0  0  0
 10 11  2  0  0  0  0
 12 13  1  0  0  0  0
 12 26  1  0  0  0  0
 13 20  1  0  0  0  0
 13 14  1  0  0  0  0
 13 27  1  0  0  0  0
 14 15  1  0  0  0  0
 14 28  1  0  0  0  0
 14 29  1  0  0  0  0
 15 16  1  0  0  0  0
 15 30  1  0  0  0  0
 15 31  1  0  0  0  0
 16 17  1  0  0  0  0
 16 32  1  0  0  0  0
 16 33  1  0  0  0  0
 17 18  1  0  0  0  0
 17 34  1  0  0  0  0
 17 35  1  0  0  0  0
 18 19  1  0  0  0  0
 18 36  1  0  0  0  0
 18 37  1  0  0  0  0
 19 20  1  0  0  0  0
 19 38  1  0  0  0  0
 19 39  1  0  0  0  0
 20 40  1  0  0  0  0
 20 41  1  0  0  0  0
M  END
> <s_m_source_file>
AV-unprocessed.smi

> <i_m_source_file_index>
487

> <i_lp_mmshare_version>
43012

> <i_f3d_flags>
0

> <s_epik_input>
Tz1jMVtuSF1jKD1PKVtjSF1bY0hdbjFbQ0gyXUMoPU8pW05IXVtDSF0yW0NIMl1bQ0gyXVtDSDJdW0NIMl1bQ0gyXVtDSDJdW0NIMl0y

> <s_epik_cmdline>
J2VwaWtfcHl0aG9uJywgJy1waCcsICc3LjAnLCAnLXRuJywgJzgnLCAnLW1hJywgJzIwMCcsICctbWV0YWxfYmluZGluZycsICctaW1hZScsICc8aW5maWxlLm1hZT4nLCAnLW9tYWUnLCAnPG91dGZpbGUubWFlPic=

> <r_lp_tautomer_probability>
0.999537

> <r_epik_Ionization_Penalty>
0.00321433

> <r_epik_Ionization_Penalty_Charging>
0.00321431

> <r_epik_Ionization_Penalty_Neutral>
2.02148e-08

> <r_epik_State_Penalty>
0.00226744

> <r_epik_Charging_Adjusted_Penalty>
0.00548175

> <i_epik_Tot_Q>
0

> <i_epik_Tot_abs_Q>
0

> <r_epik_Metal_State_Penalty>
0.364272

> <b_epik_Metal_Only>
0

> <s_lp_Force_Field>
OPLS_2005

> <r_lp_Energy>
21.4809

> <b_lp_Chiralities_Consistent>
1

> <s_lp_Variant>
AV-unprocessed.smi:487-1

> <Gold.Version>
5.8.1

> <Gold.Id.Protein>
6NUR|6NUR_protein|mol2

> <Gold.PLP.Fitness>
46.1738

> <Gold.PLP.PLP>
-40.2504

> <Gold.PLP.part.hbond>
-1.0000

> <Gold.PLP.part.metal>
0.0000

> <Gold.PLP.part.buried>
-3.4595

> <Gold.PLP.part.nonpolar>
-34.6132

> <Gold.PLP.part.repulsive>
0.2445

> <Gold.PLP.ligand.clash>
0.0000

> <Gold.PLP.ligand.torsion>
0.0425

> <Gold.PLP.Chemscore.Hbond>
1.0000

> <Gold.PLP.Chemscore.CHOScore>
1.0000

> <Gold.PLP.Chemscore.Metal>
0.0000

> <Gold.Chemscore.Hbonds>
donor molecule, donor type, donor heavy atom, donor atom, acceptor molecule, acceptor atom, score
      P1  H  7997  8008       L1     1  0.11
      L1  C     5    24       P1  7957  1.00

> <Gold.PLP.Chemscore.Internal.Correction>
0.0084

> <Gold.Rescore>
     Score         DG    S(hbond)    S(metal)    S(lipo)     H(rot)  DE(clash)    DE(int)     intcor
     16.65     -16.91       1.00        0.00     105.81       1.68       0.10       0.16       ----

> <Gold.Chemscore.Fitness>
16.6456

> <Gold.Chemscore.DG>
-16.9053

> <Gold.Chemscore.ZeroCoef>
-5.4800

> <Gold.Chemscore.Hbond>
0.9992

> <Gold.Chemscore.Metal>
0.0000

> <Gold.Chemscore.Lipo>
105.8070

> <Gold.Chemscore.Internal_Hbond>
0.0000

> <Gold.Chemscore.DEClash>
0.0998

> <Gold.Chemscore.DEInternal>
0.1599

> <Gold.Chemscore.Rot>
1.6763

> <Gold.Chemscore.Internal.Correction>
   9.000000E+99

> <Gold.Chemscore.Hbonds>
donor molecule, donor type, donor heavy atom, donor atom, acceptor molecule, acceptor atom, score
      P1  H  7997  8008       L1     1  0.14

> <Gold.Chemscore.Hbond.Weighted>
-3.3372

> <Gold.Chemscore.Metal.Weighted>
-0.0000

> <Gold.Chemscore.Lipo.Weighted>
-12.3794

> <Gold.Chemscore.Internal_Hbond.Weighted>
0.0000

> <Gold.Chemscore.DEClash.Weighted>
0.0998

> <Gold.Chemscore.DEInternal.Weighted>
0.1599

> <Gold.Chemscore.Rot.Weighted>
4.2914

> <Gold.Chemscore.Internal.Correction.Weighted>
   9.000000E+99

> <Gold.Protein.RotatedTorsions>
[ 6907 6896 6895 6894 ] final  -34.91 input  -60.11 | X-H torsion
[ 7974 7965 7964 7962 ] final   -9.09 input  175.53 | X-H torsion
[ 8008 7997 7996 7995 ] final  -50.35 input   59.86 | X-H torsion
[ 10167 10162 10161 10158 ] final -121.01 input  -65.29 | X-H torsion
[ 10718 10713 10712 10709 ] final   36.50 input   66.30 | X-H torsion
[ 10763 10752 10751 10750 ] final  107.60 input  -60.55 | X-H torsion
[ 11005 11000 10999 10996 ] final   64.99 input  -57.11 | X-H torsion

> <Gold.Protein.ActiveResidues>
 VAL166  LYS551  ARG553  GLY616  TRP617  ASP618  TYR619  PRO620  LYS621  CYS622 
 ASP623  PHE694  ASN695  SER759  ASP760  ASP761  ALA762  ILE779  LEU786  VAL792 
 PHE793  MET794  SER795  GLU796  ALA797  LYS798  CYS799  TRP800  GLU811  SER814 

> <Gold.Protein.RotatedAtoms>
  151.0466  134.9644  159.8189 H   0  0  0  0  0  0  0  0  0  0  0  0  # atno 6907 bound_to 6896
  152.5373  134.2590  159.8938 H   0  0  0  0  0  0  0  0  0  0  0  0  # atno 6908 bound_to 6896
  151.2605  133.4262  159.2649 H   0  0  0  0  0  0  0  0  0  0  0  0  # atno 6909 bound_to 6896
  146.2262  140.2565  142.8349 H   0  0  0  0  0  0  0  0  0  0  0  0  # atno 7974 bound_to 7965
  154.4060  140.1274  156.4652 H   0  0  0  0  0  0  0  0  0  0  0  0  # atno 8008 bound_to 7997
  155.7234  140.3492  155.5006 H   0  0  0  0  0  0  0  0  0  0  0  0  # atno 8009 bound_to 7997
  155.9194  140.1050  157.1209 H   0  0  0  0  0  0  0  0  0  0  0  0  # atno 8010 bound_to 7997
  140.0296  143.5261  152.2182 H   0  0  0  0  0  0  0  0  0  0  0  0  # atno 10167 bound_to 10162
  157.3356  130.7521  149.6877 H   0  0  0  0  0  0  0  0  0  0  0  0  # atno 10718 bound_to 10713
  153.4090  135.3839  155.2038 H   0  0  0  0  0  0  0  0  0  0  0  0  # atno 10763 bound_to 10752
  154.8736  135.3789  154.4524 H   0  0  0  0  0  0  0  0  0  0  0  0  # atno 10764 bound_to 10752
  153.5030  135.7088  153.5883 H   0  0  0  0  0  0  0  0  0  0  0  0  # atno 10765 bound_to 10752
  139.9923  134.6572  156.0070 H   0  0  0  0  0  0  0  0  0  0  0  0  # atno 11005 bound_to 11000
  144.9372  140.8039  143.5653 LP  0  0  0  0  0  0  0  0  0  0  0  0  # atno 17320 bound_to 7965
  145.2513  139.2030  143.4941 LP  0  0  0  0  0  0  0  0  0  0  0  0  # atno 17321 bound_to 7965
  139.6085  144.7602  151.3007 LP  0  0  0  0  0  0  0  0  0  0  0  0  # atno 17342 bound_to 10162
  140.7308  143.6870  150.7953 LP  0  0  0  0  0  0  0  0  0  0  0  0  # atno 17343 bound_to 10162
  155.9701  130.4182  150.4318 LP  0  0  0  0  0  0  0  0  0  0  0  0  # atno 17370 bound_to 10713
  157.2357  131.0514  151.2466 LP  0  0  0  0  0  0  0  0  0  0  0  0  # atno 17371 bound_to 10713
  141.1576  133.6541  156.4211 LP  0  0  0  0  0  0  0  0  0  0  0  0  # atno 17394 bound_to 11000
  140.4885  134.6598  157.5201 LP  0  0  0  0  0  0  0  0  0  0  0  0  # atno 17395 bound_to 11000

$$$$
