AV-unprocessed.smi:231|AV-procd|sdf|1766|dock6
  -GOLD-   2262020303D 1   1.00000     0.00000
 Structure written by MMmdl.
 50 53  0  0  0  0  0  0  0  0  1 V2000
  146.4996  142.4644  154.0825 C   0  0  0  0  0  0  0  0  0  0  0  0
  147.9737  142.0443  154.0239 C   0  0  0  0  0  0  0  0  0  0  0  0
  148.3217  141.0147  155.0005 N   0  0  0  0  0  0  0  0  0  0  0  0
  147.7086  139.8156  154.8584 C   0  0  0  0  0  0  0  0  0  0  0  0
  147.5970  139.0333  155.9607 N   0  0  0  0  0  0  0  0  0  0  0  0
  147.0128  137.8348  155.8738 C   0  0  0  0  0  0  0  0  0  0  0  0
  146.4756  137.2438  154.8048 N   0  0  0  0  0  0  0  0  0  0  0  0
  146.5626  138.0403  153.7008 C   0  0  0  0  0  0  0  0  0  0  0  0
  147.1561  139.3325  153.6395 C   0  0  0  0  0  0  0  0  0  0  0  0
  147.0606  139.8342  152.3478 N   0  0  0  0  0  0  0  0  0  0  0  0
  146.4652  138.8851  151.6791 C   0  0  0  0  0  0  0  0  0  0  0  0
  146.1090  137.7808  152.4197 N   0  0  0  0  0  0  0  0  0  0  0  0
  145.4911  136.5812  151.9365 C   0  0  0  0  0  0  0  0  0  0  0  0
  145.4931  135.2891  152.7609 C   0  0  0  0  0  0  0  0  0  0  0  0
  145.5425  134.4714  151.4491 C   0  0  0  0  0  0  0  0  0  0  0  0
  146.4282  133.2099  151.4539 C   0  0  0  0  0  0  0  0  0  0  0  0
  146.7018  132.7321  150.1520 O   0  0  0  0  0  0  0  0  0  0  0  0
  144.1586  134.0531  150.9158 C   0  0  0  0  0  0  0  0  0  0  0  0
  144.1745  133.8701  149.5145 O   0  0  0  0  0  0  0  0  0  0  0  0
  146.1358  135.7541  150.8205 C   0  0  0  0  0  0  0  0  0  0  0  0
  149.4261  141.1946  155.9571 C   0  0  1  0  0  0  0  0  0  0  0  0
  148.9973  140.9795  157.4235 C   0  0  0  0  0  0  0  0  0  0  0  0
  149.5826  139.6204  157.8334 C   0  0  0  0  0  0  0  0  0  0  0  0
  150.6111  139.3608  156.8462 N   0  0  0  0  0  0  0  0  0  0  0  0
  150.5553  140.1788  155.7957 C   0  0  0  0  0  0  0  0  0  0  0  0
  151.3152  140.1497  154.8304 O   0  0  0  0  0  0  0  0  0  0  0  0
  146.2985  143.2571  153.3620 H   0  0  0  0  0  0  0  0  0  0  0  0
  146.2303  142.8406  155.0691 H   0  0  0  0  0  0  0  0  0  0  0  0
  145.8379  141.6323  153.8438 H   0  0  0  0  0  0  0  0  0  0  0  0
  148.2058  141.6671  153.0274 H   0  0  0  0  0  0  0  0  0  0  0  0
  148.6055  142.9229  154.1647 H   0  0  0  0  0  0  0  0  0  0  0  0
  146.9707  137.2678  156.7921 H   0  0  0  0  0  0  0  0  0  0  0  0
  146.2672  138.9692  150.6205 H   0  0  0  0  0  0  0  0  0  0  0  0
  144.4724  136.8623  151.6644 H   0  0  0  0  0  0  0  0  0  0  0  0
  146.3897  135.1905  153.3749 H   0  0  0  0  0  0  0  0  0  0  0  0
  144.5955  135.1381  153.3612 H   0  0  0  0  0  0  0  0  0  0  0  0
  147.3821  133.4081  151.9437 H   0  0  0  0  0  0  0  0  0  0  0  0
  145.9533  132.3990  152.0070 H   0  0  0  0  0  0  0  0  0  0  0  0
  147.4204  132.1204  150.2019 H   0  0  0  0  0  0  0  0  0  0  0  0
  143.8201  133.1292  151.3858 H   0  0  0  0  0  0  0  0  0  0  0  0
  143.4014  134.8037  151.1433 H   0  0  0  0  0  0  0  0  0  0  0  0
  144.9631  134.2601  149.1695 H   0  0  0  0  0  0  0  0  0  0  0  0
  145.7714  135.9903  149.8205 H   0  0  0  0  0  0  0  0  0  0  0  0
  147.2259  135.7947  150.8536 H   0  0  0  0  0  0  0  0  0  0  0  0
  149.8351  142.1991  155.8380 H   0  0  0  0  0  0  0  0  0  0  0  0
  149.4487  141.7587  158.0395 H   0  0  0  0  0  0  0  0  0  0  0  0
  147.9226  141.0410  157.5924 H   0  0  0  0  0  0  0  0  0  0  0  0
  149.9917  139.6340  158.8439 H   0  0  0  0  0  0  0  0  0  0  0  0
  148.8275  138.8351  157.7751 H   0  0  0  0  0  0  0  0  0  0  0  0
  151.2875  138.6179  156.9482 H   0  0  0  0  0  0  0  0  0  0  0  0
  1  2  1  0  0  0  0
  1 27  1  0  0  0  0
  1 28  1  0  0  0  0
  1 29  1  0  0  0  0
  2  3  1  0  0  0  0
  2 30  1  0  0  0  0
  2 31  1  0  0  0  0
  3  4  1  0  0  0  0
  3 21  1  0  0  0  0
  4  9  1  0  0  0  0
  4  5  2  0  0  0  0
  5  6  1  0  0  0  0
  6  7  2  0  0  0  0
  6 32  1  0  0  0  0
  7  8  1  0  0  0  0
  8 12  1  0  0  0  0
  8  9  2  0  0  0  0
  9 10  1  0  0  0  0
 10 11  2  0  0  0  0
 11 12  1  0  0  0  0
 11 33  1  0  0  0  0
 12 13  1  0  0  0  0
 13 20  1  0  0  0  0
 13 14  1  0  0  0  0
 13 34  1  0  0  0  0
 14 15  1  0  0  0  0
 14 35  1  0  0  0  0
 14 36  1  0  0  0  0
 15 16  1  0  0  0  0
 15 18  1  0  0  0  0
 15 20  1  0  0  0  0
 16 17  1  0  0  0  0
 16 37  1  0  0  0  0
 16 38  1  0  0  0  0
 17 39  1  0  0  0  0
 18 19  1  0  0  0  0
 18 40  1  0  0  0  0
 18 41  1  0  0  0  0
 19 42  1  0  0  0  0
 20 43  1  0  0  0  0
 20 44  1  0  0  0  0
 21 25  1  0  0  0  0
 21 22  1  0  0  0  0
 21 45  1  0  0  0  0
 22 23  1  0  0  0  0
 22 46  1  0  0  0  0
 22 47  1  0  0  0  0
 23 24  1  0  0  0  0
 23 48  1  0  0  0  0
 23 49  1  0  0  0  0
 24 25  1  0  0  0  0
 24 50  1  0  0  0  0
 25 26  2  0  0  0  0
M  END
> <s_m_source_file>
AV-unprocessed.smi

> <i_m_source_file_index>
231

> <i_lp_mmshare_version>
43012

> <i_f3d_flags>
0

> <s_epik_input>
Tz1DMVtOSF1bQ0gyXVtDSDJdW0NASF0xTihbQ0gyXVtDSDNdKWMobltjSF1uMiljKGMyMyluW2NIXW4zW0NIXShbQ0gyXTQpW0NIMl1DNChbQ0gyXVtPSF0pW0NIMl1bT0hd

> <s_epik_cmdline>
J2VwaWtfcHl0aG9uJywgJy1waCcsICc3LjAnLCAnLXRuJywgJzgnLCAnLW1hJywgJzIwMCcsICctbWV0YWxfYmluZGluZycsICctaW1hZScsICc8aW5maWxlLm1hZT4nLCAnLW9tYWUnLCAnPG91dGZpbGUubWFlPic=

> <r_lp_tautomer_probability>
1

> <r_epik_Ionization_Penalty>
0.000842899

> <r_epik_Ionization_Penalty_Charging>
0

> <r_epik_Ionization_Penalty_Neutral>
0.000842899

> <r_epik_State_Penalty>
0.000441286

> <r_epik_Charging_Adjusted_Penalty>
0.000441286

> <i_epik_Tot_Q>
0

> <i_epik_Tot_abs_Q>
0

> <r_epik_Metal_State_Penalty>
-0

> <b_epik_Metal_Only>
0

> <s_lp_Force_Field>
OPLS_2005

> <r_lp_Energy>
52.3391

> <b_lp_Chiralities_Consistent>
1

> <s_lp_Variant>
AV-unprocessed.smi:231-2

> <Gold.Version>
5.8.1

> <Gold.Id.Protein>
6NUR|6NUR_protein|mol2

> <Gold.PLP.Fitness>
46.4590

> <Gold.PLP.PLP>
-36.0147

> <Gold.PLP.part.hbond>
-3.9075

> <Gold.PLP.part.metal>
0.0000

> <Gold.PLP.part.buried>
-4.7367

> <Gold.PLP.part.nonpolar>
-29.7665

> <Gold.PLP.part.repulsive>
2.4080

> <Gold.PLP.ligand.clash>
0.0000

> <Gold.PLP.ligand.torsion>
0.9012

> <Gold.PLP.Chemscore.Hbond>
2.9913

> <Gold.PLP.Chemscore.CHOScore>
0.7955

> <Gold.PLP.Chemscore.Metal>
0.0000

> <Gold.Chemscore.Hbonds>
donor molecule, donor type, donor heavy atom, donor atom, acceptor molecule, acceptor atom, score
      L1  H    17    39       P1 10747  1.00
      L1  H    19    42       P1  7921  1.00
      P1  H  7989  7998       L1    26  1.00
      L1  C    11    33       P1 10171  0.78

> <Gold.PLP.Chemscore.Internal.Correction>
0.8864

> <Gold.Rescore>
     Score         DG    S(hbond)    S(metal)    S(lipo)     H(rot)  DE(clash)    DE(int)     intcor
      5.89     -13.31       2.94        0.00      62.29       3.63       1.49       5.93       ----

> <Gold.Chemscore.Fitness>
5.8877

> <Gold.Chemscore.DG>
-13.3050

> <Gold.Chemscore.ZeroCoef>
-5.4800

> <Gold.Chemscore.Hbond>
2.9404

> <Gold.Chemscore.Metal>
0.0000

> <Gold.Chemscore.Lipo>
62.2866

> <Gold.Chemscore.Internal_Hbond>
0.0000

> <Gold.Chemscore.DEClash>
1.4905

> <Gold.Chemscore.DEInternal>
5.9269

> <Gold.Chemscore.Rot>
3.6264

> <Gold.Chemscore.Internal.Correction>
   9.000000E+99

> <Gold.Chemscore.Hbonds>
donor molecule, donor type, donor heavy atom, donor atom, acceptor molecule, acceptor atom, score
      L1  H    17    39       P1 10747  0.97
      L1  H    19    42       P1  7921  0.91
      P1  H  7989  7998       L1    26  0.94

> <Gold.Chemscore.Hbond.Weighted>
-9.8210

> <Gold.Chemscore.Metal.Weighted>
-0.0000

> <Gold.Chemscore.Lipo.Weighted>
-7.2875

> <Gold.Chemscore.Internal_Hbond.Weighted>
0.0000

> <Gold.Chemscore.DEClash.Weighted>
1.4905

> <Gold.Chemscore.DEInternal.Weighted>
5.9269

> <Gold.Chemscore.Rot.Weighted>
9.2835

> <Gold.Chemscore.Internal.Correction.Weighted>
   9.000000E+99

> <Gold.Protein.RotatedTorsions>
[ 6907 6896 6895 6894 ] final  -22.31 input  -60.11 | X-H torsion
[ 7974 7965 7964 7962 ] final   69.00 input  175.53 | X-H torsion
[ 8008 7997 7996 7995 ] final -147.13 input   59.86 | X-H torsion
[ 10167 10162 10161 10158 ] final -115.44 input  -65.29 | X-H torsion
[ 10718 10713 10712 10709 ] final    5.27 input   66.30 | X-H torsion
[ 10763 10752 10751 10750 ] final   38.76 input  -60.55 | X-H torsion
[ 11005 11000 10999 10996 ] final -178.37 input  -57.11 | X-H torsion

> <Gold.Protein.ActiveResidues>
 VAL166  LYS551  ARG553  GLY616  TRP617  ASP618  TYR619  PRO620  LYS621  CYS622 
 ASP623  PHE694  ASN695  SER759  ASP760  ASP761  ALA762  ILE779  LEU786  VAL792 
 PHE793  MET794  SER795  GLU796  ALA797  LYS798  CYS799  TRP800  GLU811  SER814 

> <Gold.Protein.RotatedAtoms>
  151.2205  135.0517  159.8947 H   0  0  0  0  0  0  0  0  0  0  0  0  # atno 6907 bound_to 6896
  152.5416  134.0645  159.8177 H   0  0  0  0  0  0  0  0  0  0  0  0  # atno 6908 bound_to 6896
  151.0811  133.5341  159.2652 H   0  0  0  0  0  0  0  0  0  0  0  0  # atno 6909 bound_to 6896
  145.7958  139.2957  143.1184 H   0  0  0  0  0  0  0  0  0  0  0  0  # atno 7974 bound_to 7965
  155.5706  140.0634  157.2807 H   0  0  0  0  0  0  0  0  0  0  0  0  # atno 8008 bound_to 7997
  154.4362  140.1869  156.0921 H   0  0  0  0  0  0  0  0  0  0  0  0  # atno 8009 bound_to 7997
  156.0379  140.3299  155.7215 H   0  0  0  0  0  0  0  0  0  0  0  0  # atno 8010 bound_to 7997
  140.0901  143.4708  152.1875 H   0  0  0  0  0  0  0  0  0  0  0  0  # atno 10167 bound_to 10162
  156.9050  130.5735  149.5647 H   0  0  0  0  0  0  0  0  0  0  0  0  # atno 10718 bound_to 10713
  152.9990  135.6240  154.2356 H   0  0  0  0  0  0  0  0  0  0  0  0  # atno 10763 bound_to 10752
  154.2097  135.2800  155.2964 H   0  0  0  0  0  0  0  0  0  0  0  0  # atno 10764 bound_to 10752
  154.5616  135.5703  153.7072 H   0  0  0  0  0  0  0  0  0  0  0  0  # atno 10765 bound_to 10752
  140.4305  134.6523  157.4709 H   0  0  0  0  0  0  0  0  0  0  0  0  # atno 11005 bound_to 11000
  145.9929  140.8587  143.0057 LP  0  0  0  0  0  0  0  0  0  0  0  0  # atno 17320 bound_to 7965
  144.6775  140.2242  143.7363 LP  0  0  0  0  0  0  0  0  0  0  0  0  # atno 17321 bound_to 7965
  139.5730  144.7472  151.3841 LP  0  0  0  0  0  0  0  0  0  0  0  0  # atno 17342 bound_to 10162
  140.7033  143.7577  150.7439 LP  0  0  0  0  0  0  0  0  0  0  0  0  # atno 17343 bound_to 10162
  156.0564  130.5624  150.9099 LP  0  0  0  0  0  0  0  0  0  0  0  0  # atno 17370 bound_to 10713
  157.6003  131.0941  150.8971 LP  0  0  0  0  0  0  0  0  0  0  0  0  # atno 17371 bound_to 10713
  140.0137  134.6651  155.9341 LP  0  0  0  0  0  0  0  0  0  0  0  0  # atno 17394 bound_to 11000
  141.1747  133.6539  156.4784 LP  0  0  0  0  0  0  0  0  0  0  0  0  # atno 17395 bound_to 11000

$$$$
