AV-unprocessed.smi:3255|AV-procd|sdf|12458|dock5
  -GOLD-   2272018353D 1   1.00000     0.00000
 Structure written by MMmdl.
 39 40  0  0  0  0  0  0  0  0  2 V2000
  148.0461  139.9033  154.0862 C   0  0  0  0  0  0  0  0  0  0  0  0
  148.8548  138.7228  154.6434 C   0  0  1  0  0  0  0  0  0  0  0  0
  148.3375  137.4769  154.0793 N   0  0  0  0  0  0  0  0  0  0  0  0
  147.5093  136.6275  154.7027 C   0  0  0  0  0  0  0  0  0  0  0  0
  147.0484  136.8093  155.8300 O   0  0  0  0  0  0  0  0  0  0  0  0
  147.2538  135.5428  153.9583 N   0  0  0  0  0  0  0  0  0  0  0  0
  146.4169  134.4286  154.3860 C   0  0  0  0  0  0  0  0  0  0  0  0
  146.2715  133.3762  153.2739 C   0  0  0  0  0  0  0  0  0  0  0  0
  145.4327  133.8613  152.1778 N   0  0  0  0  0  0  0  0  0  0  0  0
  145.7593  134.7916  151.2250 C   0  0  0  0  0  0  0  0  0  0  0  0
  144.6596  134.9236  150.4162 C   0  0  0  0  0  0  0  0  0  0  0  0
  143.7096  134.0701  150.9102 N   0  3  0  0  0  0  0  0  0  0  0  0
  144.1817  133.4251  151.9820 C   0  0  0  0  0  0  0  0  0  0  0  0
  150.3702  138.8884  154.3806 C   0  0  2  0  0  0  0  0  0  0  0  0
  151.2722  137.7386  154.8498 C   0  0  0  0  0  0  0  0  0  0  0  0
  152.5785  138.4544  155.1076 C   0  0  0  0  0  0  0  0  0  0  0  0
  152.0888  139.7703  155.7002 C   0  0  0  0  0  0  0  0  0  0  0  0
  150.8754  140.0626  155.0156 O   0  0  0  0  0  0  0  0  0  0  0  0
  148.3836  140.8466  154.5163 H   0  0  0  0  0  0  0  0  0  0  0  0
  146.9861  139.7979  154.3197 H   0  0  0  0  0  0  0  0  0  0  0  0
  148.1421  139.9783  153.0026 H   0  0  0  0  0  0  0  0  0  0  0  0
  148.6982  138.7134  155.7236 H   0  0  0  0  0  0  0  0  0  0  0  0
  148.6574  137.2336  153.1534 H   0  0  0  0  0  0  0  0  0  0  0  0
  147.6747  135.4788  153.0428 H   0  0  0  0  0  0  0  0  0  0  0  0
  146.8366  133.9793  155.2879 H   0  0  0  0  0  0  0  0  0  0  0  0
  145.4370  134.8192  154.6619 H   0  0  0  0  0  0  0  0  0  0  0  0
  147.2464  133.1107  152.8629 H   0  0  0  0  0  0  0  0  0  0  0  0
  145.8240  132.4569  153.6559 H   0  0  0  0  0  0  0  0  0  0  0  0
  146.7238  135.2778  151.1945 H   0  0  0  0  0  0  0  0  0  0  0  0
  144.4862  135.5450  149.5496 H   0  0  0  0  0  0  0  0  0  0  0  0
  143.6561  132.6966  152.5738 H   0  0  0  0  0  0  0  0  0  0  0  0
  150.5309  139.0365  153.3116 H   0  0  0  0  0  0  0  0  0  0  0  0
  150.9144  137.2959  155.7795 H   0  0  0  0  0  0  0  0  0  0  0  0
  151.3617  136.9429  154.1099 H   0  0  0  0  0  0  0  0  0  0  0  0
  153.2450  137.9077  155.7754 H   0  0  0  0  0  0  0  0  0  0  0  0
  153.1026  138.6341  154.1681 H   0  0  0  0  0  0  0  0  0  0  0  0
  151.8674  139.6501  156.7616 H   0  0  0  0  0  0  0  0  0  0  0  0
  152.8141  140.5769  155.5924 H   0  0  0  0  0  0  0  0  0  0  0  0
  142.7826  133.9434  150.5231 H   0  0  0  0  0  0  0  0  0  0  0  0
  1  2  1  0  0  0  0
  1 19  1  0  0  0  0
  1 20  1  0  0  0  0
  1 21  1  0  0  0  0
  2  3  1  0  0  0  0
  2 14  1  0  0  0  0
  2 22  1  0  0  0  0
  3  4  1  0  0  0  0
  3 23  1  0  0  0  0
  4  5  2  0  0  0  0
  4  6  1  0  0  0  0
  6  7  1  0  0  0  0
  6 24  1  0  0  0  0
  7  8  1  0  0  0  0
  7 25  1  0  0  0  0
  7 26  1  0  0  0  0
  8  9  1  0  0  0  0
  8 27  1  0  0  0  0
  8 28  1  0  0  0  0
  9 13  1  0  0  0  0
  9 10  1  0  0  0  0
 10 11  2  0  0  0  0
 10 29  1  0  0  0  0
 11 12  1  0  0  0  0
 11 30  1  0  0  0  0
 12 13  2  0  0  0  0
 12 39  1  0  0  0  0
 13 31  1  0  0  0  0
 14 18  1  0  0  0  0
 14 15  1  0  0  0  0
 14 32  1  0  0  0  0
 15 16  1  0  0  0  0
 15 33  1  0  0  0  0
 15 34  1  0  0  0  0
 16 17  1  0  0  0  0
 16 35  1  0  0  0  0
 16 36  1  0  0  0  0
 17 18  1  0  0  0  0
 17 37  1  0  0  0  0
 17 38  1  0  0  0  0
M  CHG  1  12   1
M  END
> <s_m_source_file>
AV-unprocessed.smi

> <i_m_source_file_index>
3255

> <i_lp_mmshare_version>
43012

> <i_f3d_flags>
0

> <s_epik_input>
TzFbQ0gyXVtDSDJdW0NIMl1bQ0BIXTFbQ0BIXShbQ0gzXSlbTkhdQyg9TylbTkhdW0NIMl1bQ0gyXW4yW2NIXVtjSF1uW2NIXTI=

> <s_epik_cmdline>
J2VwaWtfcHl0aG9uJywgJy1waCcsICc3LjAnLCAnLXRuJywgJzgnLCAnLW1hJywgJzIwMCcsICctbWV0YWxfYmluZGluZycsICctaW1hZScsICc8aW5maWxlLm1hZT4nLCAnLW9tYWUnLCAnPG91dGZpbGUubWFlPic=

> <r_lp_tautomer_probability>
1

> <r_epik_Ionization_Penalty>
0.256241

> <r_epik_Ionization_Penalty_Charging>
0

> <r_epik_Ionization_Penalty_Neutral>
0.256241

> <r_epik_State_Penalty>
0.247735

> <r_epik_Charging_Adjusted_Penalty>
0.247735

> <i_epik_Tot_Q>
1

> <i_epik_Tot_abs_Q>
1

> <r_epik_Metal_State_Penalty>
0.537184

> <b_epik_Metal_Only>
0

> <s_lp_Force_Field>
OPLS_2005

> <r_lp_Energy>
18.6285

> <b_lp_Chiralities_Consistent>
1

> <s_lp_Variant>
AV-unprocessed.smi:3255-2

> <Gold.Version>
5.8.1

> <Gold.Id.Protein>
6NUR|6NUR_protein|mol2

> <Gold.PLP.Fitness>
50.1890

> <Gold.PLP.PLP>
-30.3168

> <Gold.PLP.part.hbond>
-4.0000

> <Gold.PLP.part.metal>
0.0000

> <Gold.PLP.part.buried>
-4.0469

> <Gold.PLP.part.nonpolar>
-23.0780

> <Gold.PLP.part.repulsive>
0.0818

> <Gold.PLP.ligand.clash>
0.0000

> <Gold.PLP.ligand.torsion>
0.4413

> <Gold.PLP.Chemscore.Hbond>
4.9280

> <Gold.PLP.Chemscore.CHOScore>
1.9841

> <Gold.PLP.Chemscore.Metal>
0.0000

> <Gold.Chemscore.Hbonds>
donor molecule, donor type, donor heavy atom, donor atom, acceptor molecule, acceptor atom, score
      L1  H     3    23       P1  7948  1.00
      L1  H     6    24       P1  7948  0.93
      L1  H    12    39       P1 10186  1.76
      P1  H  7989  7998       L1    18  0.81
      L1  C    10    29       P1  7948  1.00
      L1  C    13    31       P1 10957  0.65

> <Gold.PLP.Chemscore.Internal.Correction>
0.0184

> <Gold.Rescore>
     Score         DG    S(hbond)    S(metal)    S(lipo)     H(rot)  DE(clash)    DE(int)     intcor
     15.82     -16.42       3.01        0.00      57.08       2.26       0.26       0.34       ----

> <Gold.Chemscore.Fitness>
15.8201

> <Gold.Chemscore.DG>
-16.4194

> <Gold.Chemscore.ZeroCoef>
-5.4800

> <Gold.Chemscore.Hbond>
3.0111

> <Gold.Chemscore.Metal>
0.0000

> <Gold.Chemscore.Lipo>
57.0789

> <Gold.Chemscore.Internal_Hbond>
0.0000

> <Gold.Chemscore.DEClash>
0.2612

> <Gold.Chemscore.DEInternal>
0.3382

> <Gold.Chemscore.Rot>
2.2640

> <Gold.Chemscore.Internal.Correction>
   9.000000E+99

> <Gold.Chemscore.Hbonds>
donor molecule, donor type, donor heavy atom, donor atom, acceptor molecule, acceptor atom, score
      L1  H     3    23       P1  7948  0.99
      L1  H     6    24       P1  7948  0.89
      L1  H    12    39       P1 10186  0.77
      P1  H  7989  7998       L1    18  0.03

> <Gold.Chemscore.Hbond.Weighted>
-10.0570

> <Gold.Chemscore.Metal.Weighted>
-0.0000

> <Gold.Chemscore.Lipo.Weighted>
-6.6782

> <Gold.Chemscore.Internal_Hbond.Weighted>
0.0000

> <Gold.Chemscore.DEClash.Weighted>
0.2612

> <Gold.Chemscore.DEInternal.Weighted>
0.3382

> <Gold.Chemscore.Rot.Weighted>
5.7958

> <Gold.Chemscore.Internal.Correction.Weighted>
   9.000000E+99

> <Gold.Protein.RotatedTorsions>
[ 6907 6896 6895 6894 ] final  -53.54 input  -60.11 | X-H torsion
[ 7974 7965 7964 7962 ] final  142.46 input  175.53 | X-H torsion
[ 8008 7997 7996 7995 ] final  -90.35 input   59.86 | X-H torsion
[ 10167 10162 10161 10158 ] final  -38.20 input  -65.29 | X-H torsion
[ 10718 10713 10712 10709 ] final  -26.24 input   66.30 | X-H torsion
[ 10763 10752 10751 10750 ] final    4.41 input  -60.55 | X-H torsion
[ 11005 11000 10999 10996 ] final  144.95 input  -57.11 | X-H torsion

> <Gold.Protein.ActiveResidues>
 VAL166  LYS551  ARG553  GLY616  TRP617  ASP618  TYR619  PRO620  LYS621  CYS622 
 ASP623  PHE694  ASN695  SER759  ASP760  ASP761  ALA762  ILE779  LEU786  VAL792 
 PHE793  MET794  SER795  GLU796  ALA797  LYS798  CYS799  TRP800  GLU811  SER814 

> <Gold.Protein.RotatedAtoms>
  150.8417  134.7712  159.6937 H   0  0  0  0  0  0  0  0  0  0  0  0  # atno 6907 bound_to 6896
  152.4503  134.5404  159.9847 H   0  0  0  0  0  0  0  0  0  0  0  0  # atno 6908 bound_to 6896
  151.5543  133.3375  159.2994 H   0  0  0  0  0  0  0  0  0  0  0  0  # atno 6909 bound_to 6896
  144.9006  139.5429  143.5755 H   0  0  0  0  0  0  0  0  0  0  0  0  # atno 7974 bound_to 7965
  154.6976  140.0531  157.0426 H   0  0  0  0  0  0  0  0  0  0  0  0  # atno 8008 bound_to 7997
  155.0730  140.3201  155.4606 H   0  0  0  0  0  0  0  0  0  0  0  0  # atno 8009 bound_to 7997
  156.2749  140.2078  156.5858 H   0  0  0  0  0  0  0  0  0  0  0  0  # atno 8010 bound_to 7997
  140.7098  143.3292  151.2608 H   0  0  0  0  0  0  0  0  0  0  0  0  # atno 10167 bound_to 10162
  156.4538  130.4489  149.6972 H   0  0  0  0  0  0  0  0  0  0  0  0  # atno 10718 bound_to 10713
  153.2715  135.6932  153.7475 H   0  0  0  0  0  0  0  0  0  0  0  0  # atno 10763 bound_to 10752
  153.6497  135.3379  155.3097 H   0  0  0  0  0  0  0  0  0  0  0  0  # atno 10764 bound_to 10752
  154.8465  135.4451  154.1739 H   0  0  0  0  0  0  0  0  0  0  0  0  # atno 10765 bound_to 10752
  140.0673  134.9171  157.1286 H   0  0  0  0  0  0  0  0  0  0  0  0  # atno 11005 bound_to 11000
  146.3106  139.7732  142.9023 LP  0  0  0  0  0  0  0  0  0  0  0  0  # atno 17320 bound_to 7965
  145.3624  141.0328  143.3277 LP  0  0  0  0  0  0  0  0  0  0  0  0  # atno 17321 bound_to 7965
  139.6769  143.9921  152.2786 LP  0  0  0  0  0  0  0  0  0  0  0  0  # atno 17342 bound_to 10162
  139.9538  144.6603  150.8145 LP  0  0  0  0  0  0  0  0  0  0  0  0  # atno 17343 bound_to 10162
  156.3788  130.7568  151.2559 LP  0  0  0  0  0  0  0  0  0  0  0  0  # atno 17370 bound_to 10713
  157.7501  131.0302  150.4125 LP  0  0  0  0  0  0  0  0  0  0  0  0  # atno 17371 bound_to 10713
  140.3680  134.2421  155.7180 LP  0  0  0  0  0  0  0  0  0  0  0  0  # atno 17394 bound_to 11000
  141.1998  133.8003  157.0520 LP  0  0  0  0  0  0  0  0  0  0  0  0  # atno 17395 bound_to 11000

$$$$
