AV-unprocessed.smi:102|AV-procd|sdf|968|dock3
  -GOLD-   2262017513D 1   1.00000     0.00000
 Structure written by MMmdl.
 43 44  0  0  0  0  0  0  0  0  2 V2000
  150.9111  145.3293  159.3507 C   0  0  0  0  0  0  0  0  0  0  0  0
  151.5875  144.0987  159.9413 C   0  0  0  0  0  0  0  0  0  0  0  0
  151.3200  143.7032  161.0761 O   0  0  0  0  0  0  0  0  0  0  0  0
  152.4673  143.5379  159.0973 O   0  0  0  0  0  0  0  0  0  0  0  0
  153.0705  142.3001  159.4358 C   0  0  0  0  0  0  0  0  0  0  0  0
  151.9923  141.1992  159.4736 C   0  0  1  0  0  0  0  0  0  0  0  0
  150.9057  141.5911  158.6447 O   0  0  0  0  0  0  0  0  0  0  0  0
  151.1599  141.2092  157.3254 C   0  0  2  0  0  0  0  0  0  0  0  0
  149.8557  140.7812  156.6874 N   0  0  0  0  0  0  0  0  0  0  0  0
  149.3383  141.4841  155.6130 C   0  0  0  0  0  0  0  0  0  0  0  0
  148.1640  141.1339  155.0500 C   0  0  0  0  0  0  0  0  0  0  0  0
  147.6852  141.8370  154.0093 F   0  0  0  0  0  0  0  0  0  0  0  0
  147.4180  139.9951  155.5825 C   0  0  0  0  0  0  0  0  0  0  0  0
  146.3520  139.6745  155.0592 O   0  0  0  0  0  0  0  0  0  0  0  0
  147.9439  139.3323  156.6535 N   0  5  0  0  0  0  0  0  0  0  0  0
  149.1274  139.6895  157.2334 C   0  0  0  0  0  0  0  0  0  0  0  0
  149.5930  139.1181  158.2195 O   0  0  0  0  0  0  0  0  0  0  0  0
  152.2157  140.0820  157.3549 C   0  0  2  0  0  0  0  0  0  0  0  0
  151.7529  138.8867  156.7332 O   0  0  0  0  0  0  0  0  0  0  0  0
  151.5460  138.8449  155.4081 C   0  0  0  0  0  0  0  0  0  0  0  0
  151.1521  137.4541  154.9301 C   0  0  0  0  0  0  0  0  0  0  0  0
  151.6538  139.7892  154.6254 O   0  0  0  0  0  0  0  0  0  0  0  0
  152.4223  139.8662  158.8474 C   0  0  1  0  0  0  0  0  0  0  0  0
  153.7771  139.5281  159.1178 O   0  0  0  0  0  0  0  0  0  0  0  0
  154.3171  138.4201  158.5845 C   0  0  0  0  0  0  0  0  0  0  0  0
  155.7630  138.2160  159.0158 C   0  0  0  0  0  0  0  0  0  0  0  0
  153.7504  137.6260  157.8338 O   0  0  0  0  0  0  0  0  0  0  0  0
  151.0493  145.3687  158.2697 H   0  0  0  0  0  0  0  0  0  0  0  0
  151.3318  146.2353  159.7867 H   0  0  0  0  0  0  0  0  0  0  0  0
  149.8416  145.3091  159.5602 H   0  0  0  0  0  0  0  0  0  0  0  0
  153.8621  142.0539  158.7269 H   0  0  0  0  0  0  0  0  0  0  0  0
  153.5338  142.4025  160.4180 H   0  0  0  0  0  0  0  0  0  0  0  0
  151.6561  141.0467  160.4998 H   0  0  0  0  0  0  0  0  0  0  0  0
  151.5008  142.0918  156.7825 H   0  0  0  0  0  0  0  0  0  0  0  0
  149.8740  142.3347  155.2187 H   0  0  0  0  0  0  0  0  0  0  0  0
  153.1186  140.4698  156.8798 H   0  0  0  0  0  0  0  0  0  0  0  0
  150.3229  137.0702  155.5248 H   0  0  0  0  0  0  0  0  0  0  0  0
  151.9945  136.7693  155.0267 H   0  0  0  0  0  0  0  0  0  0  0  0
  150.8442  137.4806  153.8848 H   0  0  0  0  0  0  0  0  0  0  0  0
  151.7428  139.0803  159.1825 H   0  0  0  0  0  0  0  0  0  0  0  0
  156.3637  139.0856  158.7489 H   0  0  0  0  0  0  0  0  0  0  0  0
  156.1886  137.3390  158.5279 H   0  0  0  0  0  0  0  0  0  0  0  0
  155.8193  138.0732  160.0949 H   0  0  0  0  0  0  0  0  0  0  0  0
  1  2  1  0  0  0  0
  1 28  1  0  0  0  0
  1 29  1  0  0  0  0
  1 30  1  0  0  0  0
  2  3  2  0  0  0  0
  2  4  1  0  0  0  0
  4  5  1  0  0  0  0
  5  6  1  0  0  0  0
  5 31  1  0  0  0  0
  5 32  1  0  0  0  0
  6 23  1  0  0  0  0
  6  7  1  0  0  0  0
  6 33  1  0  0  0  0
  7  8  1  0  0  0  0
  8  9  1  0  0  0  0
  8 18  1  0  0  0  0
  8 34  1  0  0  0  0
  9 16  1  0  0  0  0
  9 10  1  0  0  0  0
 10 11  2  0  0  0  0
 10 35  1  0  0  0  0
 11 12  1  0  0  0  0
 11 13  1  0  0  0  0
 13 14  2  0  0  0  0
 13 15  1  0  0  0  0
 15 16  1  0  0  0  0
 16 17  2  0  0  0  0
 18 19  1  0  0  0  0
 18 23  1  0  0  0  0
 18 36  1  0  0  0  0
 19 20  1  0  0  0  0
 20 21  1  0  0  0  0
 20 22  2  0  0  0  0
 21 37  1  0  0  0  0
 21 38  1  0  0  0  0
 21 39  1  0  0  0  0
 23 24  1  0  0  0  0
 23 40  1  0  0  0  0
 24 25  1  0  0  0  0
 25 26  1  0  0  0  0
 25 27  2  0  0  0  0
 26 41  1  0  0  0  0
 26 42  1  0  0  0  0
 26 43  1  0  0  0  0
M  CHG  1  15  -1
M  END
> <s_m_source_file>
AV-unprocessed.smi

> <i_m_source_file_index>
102

> <i_lp_mmshare_version>
43012

> <i_f3d_flags>
0

> <s_epik_input>
W0NIM11DKD1PKU9bQ0gyXVtDQEBIXTFPW0NASF0oW0NAQEhdKE9DKD1PKVtDSDNdKVtDQEhdMU9DKD1PKVtDSDNdKW4yW2NIXWMoRiljKD1PKVtuSF1jMj1P

> <s_epik_cmdline>
J2VwaWtfcHl0aG9uJywgJy1waCcsICc3LjAnLCAnLXRuJywgJzgnLCAnLW1hJywgJzIwMCcsICctbWV0YWxfYmluZGluZycsICctaW1hZScsICc8aW5maWxlLm1hZT4nLCAnLW9tYWUnLCAnPG91dGZpbGUubWFlPic=

> <r_epik_Ionization_Penalty>
1.40304

> <r_epik_Ionization_Penalty_Charging>
1.43915e-08

> <r_epik_Ionization_Penalty_Neutral>
1.40304

> <r_epik_State_Penalty>
1.48536

> <r_epik_Charging_Adjusted_Penalty>
1.48536

> <i_epik_Tot_Q>
-1

> <i_epik_Tot_abs_Q>
1

> <r_epik_Metal_State_Penalty>
0.00663881

> <b_epik_Metal_Only>
0

> <s_epik_Chemistry_Notes>
This compound has an ester and may undergo hydrolysis at high or low pH. This compound contains an acetal/aminal-like group ( X-CH(R)-Y where X, Y are N, S, or O) that may be acid/base labile, releasing an aldehyde.

> <s_lp_Force_Field>
OPLS_2005

> <r_lp_Energy>
24.6661

> <b_lp_Chiralities_Consistent>
1

> <s_lp_Variant>
AV-unprocessed.smi:102-24

> <Gold.Version>
5.8.1

> <Gold.Id.Protein>
6NUR|6NUR_protein|mol2

> <Gold.PLP.Fitness>
42.3050

> <Gold.PLP.PLP>
-38.1542

> <Gold.PLP.part.hbond>
-1.9826

> <Gold.PLP.part.metal>
0.0000

> <Gold.PLP.part.buried>
-6.4952

> <Gold.PLP.part.nonpolar>
-29.9411

> <Gold.PLP.part.repulsive>
0.2965

> <Gold.PLP.ligand.clash>
0.0000

> <Gold.PLP.ligand.torsion>
0.6450

> <Gold.PLP.Chemscore.Hbond>
1.0000

> <Gold.PLP.Chemscore.CHOScore>
0.7560

> <Gold.PLP.Chemscore.Metal>
0.0000

> <Gold.Chemscore.Hbonds>
donor molecule, donor type, donor heavy atom, donor atom, acceptor molecule, acceptor atom, score
      P1  H  7989  7998       L1    22  1.00
      L1  C    10    35       P1  8028  0.61

> <Gold.PLP.Chemscore.Internal.Correction>
0.1728

> <Gold.Rescore>
     Score         DG    S(hbond)    S(metal)    S(lipo)     H(rot)  DE(clash)    DE(int)     intcor
      0.91      -5.61       0.81        0.00      65.27       4.00       0.33       4.36       ----

> <Gold.Chemscore.Fitness>
0.9122

> <Gold.Chemscore.DG>
-5.6071

> <Gold.Chemscore.ZeroCoef>
-5.4800

> <Gold.Chemscore.Hbond>
0.8136

> <Gold.Chemscore.Metal>
0.0000

> <Gold.Chemscore.Lipo>
65.2743

> <Gold.Chemscore.Internal_Hbond>
0.0000

> <Gold.Chemscore.DEClash>
0.3316

> <Gold.Chemscore.DEInternal>
4.3633

> <Gold.Chemscore.Rot>
3.9951

> <Gold.Chemscore.Internal.Correction>
   9.000000E+99

> <Gold.Chemscore.Hbonds>
donor molecule, donor type, donor heavy atom, donor atom, acceptor molecule, acceptor atom, score
      P1  H  7989  7998       L1    22  0.94

> <Gold.Chemscore.Hbond.Weighted>
-2.7174

> <Gold.Chemscore.Metal.Weighted>
-0.0000

> <Gold.Chemscore.Lipo.Weighted>
-7.6371

> <Gold.Chemscore.Internal_Hbond.Weighted>
0.0000

> <Gold.Chemscore.DEClash.Weighted>
0.3316

> <Gold.Chemscore.DEInternal.Weighted>
4.3633

> <Gold.Chemscore.Rot.Weighted>
10.2274

> <Gold.Chemscore.Internal.Correction.Weighted>
   9.000000E+99

> <Gold.Protein.RotatedTorsions>
[ 6907 6896 6895 6894 ] final   -1.89 input  -60.11 | X-H torsion
[ 7974 7965 7964 7962 ] final  -30.44 input  175.53 | X-H torsion
[ 8008 7997 7996 7995 ] final -114.64 input   59.86 | X-H torsion
[ 10167 10162 10161 10158 ] final -127.43 input  -65.29 | X-H torsion
[ 10718 10713 10712 10709 ] final -178.88 input   66.30 | X-H torsion
[ 10763 10752 10751 10750 ] final   80.01 input  -60.55 | X-H torsion
[ 11005 11000 10999 10996 ] final  -28.20 input  -57.11 | X-H torsion

> <Gold.Protein.ActiveResidues>
 VAL166  LYS551  ARG553  GLY616  TRP617  ASP618  TYR619  PRO620  LYS621  CYS622 
 ASP623  PHE694  ASN695  SER759  ASP760  ASP761  ALA762  ILE779  LEU786  VAL792 
 PHE793  MET794  SER795  GLU796  ALA797  LYS798  CYS799  TRP800  GLU811  SER814 

> <Gold.Protein.RotatedAtoms>
  151.5388  135.1068  159.9920 H   0  0  0  0  0  0  0  0  0  0  0  0  # atno 6907 bound_to 6896
  152.4545  133.7691  159.6799 H   0  0  0  0  0  0  0  0  0  0  0  0  # atno 6908 bound_to 6896
  150.8484  133.7760  159.3059 H   0  0  0  0  0  0  0  0  0  0  0  0  # atno 6909 bound_to 6896
  146.1142  140.5541  142.8764 H   0  0  0  0  0  0  0  0  0  0  0  0  # atno 7974 bound_to 7965
  155.0395  140.0392  157.2504 H   0  0  0  0  0  0  0  0  0  0  0  0  # atno 8008 bound_to 7997
  154.7228  140.2715  155.6502 H   0  0  0  0  0  0  0  0  0  0  0  0  # atno 8009 bound_to 7997
  156.2821  140.2699  156.1905 H   0  0  0  0  0  0  0  0  0  0  0  0  # atno 8010 bound_to 7997
  139.9610  143.5950  152.2445 H   0  0  0  0  0  0  0  0  0  0  0  0  # atno 10167 bound_to 10162
  156.8509  130.9718  151.3092 H   0  0  0  0  0  0  0  0  0  0  0  0  # atno 10718 bound_to 10713
  153.0999  135.4818  154.8847 H   0  0  0  0  0  0  0  0  0  0  0  0  # atno 10763 bound_to 10752
  154.7367  135.3072  154.8802 H   0  0  0  0  0  0  0  0  0  0  0  0  # atno 10764 bound_to 10752
  153.9422  135.6833  153.4797 H   0  0  0  0  0  0  0  0  0  0  0  0  # atno 10765 bound_to 10752
  140.9187  133.7413  156.0771 H   0  0  0  0  0  0  0  0  0  0  0  0  # atno 11005 bound_to 11000
  144.7538  140.5257  143.6783 LP  0  0  0  0  0  0  0  0  0  0  0  0  # atno 17320 bound_to 7965
  145.5601  139.1479  143.3346 LP  0  0  0  0  0  0  0  0  0  0  0  0  # atno 17321 bound_to 7965
  139.6554  144.7662  151.2066 LP  0  0  0  0  0  0  0  0  0  0  0  0  # atno 17342 bound_to 10162
  140.7553  143.6094  150.8620 LP  0  0  0  0  0  0  0  0  0  0  0  0  # atno 17343 bound_to 10162
  157.6304  130.8725  149.9264 LP  0  0  0  0  0  0  0  0  0  0  0  0  # atno 17370 bound_to 10713
  156.0829  130.3671  150.0545 LP  0  0  0  0  0  0  0  0  0  0  0  0  # atno 17371 bound_to 10713
  140.8016  134.3502  157.5437 LP  0  0  0  0  0  0  0  0  0  0  0  0  # atno 17394 bound_to 11000
  139.8771  134.9201  156.3243 LP  0  0  0  0  0  0  0  0  0  0  0  0  # atno 17395 bound_to 11000

$$$$
