AV-unprocessed.smi:560|AV-procd|sdf|2933|dock1
  -GOLD-   2262023423D 1   1.00000     0.00000
 Structure written by MMmdl.
 41 42  0  0  0  0  0  0  0  0  3 V2000
  141.7487  138.5881  156.4783 C   0  0  0  0  0  0  0  0  0  0  0  0
  141.5712  138.3572  154.9640 C   0  0  1  0  0  0  0  0  0  0  0  0
  142.1582  137.0164  154.4952 C   0  0  0  0  0  0  0  0  0  0  0  0
  141.9086  135.9734  155.1011 O   0  0  0  0  0  0  0  0  0  0  0  0
  142.9437  137.0602  153.4070 N   0  0  0  0  0  0  0  0  0  0  0  0
  143.5937  135.9079  152.7908 C   0  0  2  0  0  0  0  0  0  0  0  0
  144.2349  136.2943  151.4447 C   0  0  0  0  0  0  0  0  0  0  0  0
  144.8243  135.0645  150.7356 C   0  0  0  0  0  0  0  0  0  0  0  0
  143.7893  134.0149  150.5408 N   0  3  1  0  0  0  0  0  0  0  0  0
  144.2615  132.8650  149.7275 C   0  0  0  0  0  0  0  0  0  0  0  0
  143.4800  132.7684  148.4120 C   0  0  0  0  0  0  0  0  0  0  0  0
  143.6043  133.8787  147.6568 N   0  5  0  0  0  0  0  0  0  0  0  0
  142.8386  131.7515  148.1594 O   0  0  0  0  0  0  0  0  0  0  0  0
  143.1892  133.5916  151.8306 C   0  0  0  0  0  0  0  0  0  0  0  0
  142.5648  134.7871  152.5697 C   0  0  0  0  0  0  0  0  0  0  0  0
  140.1782  138.4746  154.5491 N   0  0  0  0  0  0  0  0  0  0  0  0
  139.6352  139.3633  153.6433 C   0  0  0  0  0  0  0  0  0  0  0  0
  138.3021  139.0860  153.5435 C   0  0  0  0  0  0  0  0  0  0  0  0
  138.1185  137.9873  154.4281 C   0  0  0  0  0  0  0  0  0  0  0  0
  139.2416  137.6192  155.0219 N   0  0  0  0  0  0  0  0  0  0  0  0
  142.8015  138.5518  156.7602 H   0  0  0  0  0  0  0  0  0  0  0  0
  141.2217  137.8414  157.0737 H   0  0  0  0  0  0  0  0  0  0  0  0
  141.3673  139.5679  156.7672 H   0  0  0  0  0  0  0  0  0  0  0  0
  142.1242  139.1485  154.4549 H   0  0  0  0  0  0  0  0  0  0  0  0
  143.0976  137.9580  152.9711 H   0  0  0  0  0  0  0  0  0  0  0  0
  144.3691  135.5345  153.4628 H   0  0  0  0  0  0  0  0  0  0  0  0
  143.4901  136.7609  150.7982 H   0  0  0  0  0  0  0  0  0  0  0  0
  145.0190  137.0368  151.5978 H   0  0  0  0  0  0  0  0  0  0  0  0
  145.2363  135.3723  149.7742 H   0  0  0  0  0  0  0  0  0  0  0  0
  145.6525  134.6574  151.3174 H   0  0  0  0  0  0  0  0  0  0  0  0
  145.3326  132.9481  149.5357 H   0  0  0  0  0  0  0  0  0  0  0  0
  144.1139  131.9295  150.2697 H   0  0  0  0  0  0  0  0  0  0  0  0
  144.4687  134.4292  147.7297 H   0  0  0  0  0  0  0  0  0  0  0  0
  142.4174  132.8429  151.6483 H   0  0  0  0  0  0  0  0  0  0  0  0
  143.9522  133.1182  152.4506 H   0  0  0  0  0  0  0  0  0  0  0  0
  142.1591  134.4569  153.5267 H   0  0  0  0  0  0  0  0  0  0  0  0
  141.7212  135.1660  151.9905 H   0  0  0  0  0  0  0  0  0  0  0  0
  140.2364  140.1131  153.1502 H   0  0  0  0  0  0  0  0  0  0  0  0
  137.5700  139.5885  152.9294 H   0  0  0  0  0  0  0  0  0  0  0  0
  137.2100  137.4477  154.6517 H   0  0  0  0  0  0  0  0  0  0  0  0
  143.0435  134.4311  150.0002 H   0  0  0  0  0  0  0  0  0  0  0  0
  1  2  1  0  0  0  0
  1 21  1  0  0  0  0
  1 22  1  0  0  0  0
  1 23  1  0  0  0  0
  2  3  1  0  0  0  0
  2 16  1  0  0  0  0
  2 24  1  0  0  0  0
  3  4  2  0  0  0  0
  3  5  1  0  0  0  0
  5  6  1  0  0  0  0
  5 25  1  0  0  0  0
  6 15  1  0  0  0  0
  6  7  1  0  0  0  0
  6 26  1  0  0  0  0
  7  8  1  0  0  0  0
  7 27  1  0  0  0  0
  7 28  1  0  0  0  0
  8  9  1  0  0  0  0
  8 29  1  0  0  0  0
  8 30  1  0  0  0  0
  9 10  1  0  0  0  0
  9 14  1  0  0  0  0
  9 41  1  0  0  0  0
 10 11  1  0  0  0  0
 10 31  1  0  0  0  0
 10 32  1  0  0  0  0
 11 12  1  0  0  0  0
 11 13  2  0  0  0  0
 12 33  1  0  0  0  0
 14 15  1  0  0  0  0
 14 34  1  0  0  0  0
 14 35  1  0  0  0  0
 15 36  1  0  0  0  0
 15 37  1  0  0  0  0
 16 20  1  0  0  0  0
 16 17  1  0  0  0  0
 17 18  2  0  0  0  0
 17 38  1  0  0  0  0
 18 19  1  0  0  0  0
 18 39  1  0  0  0  0
 19 20  2  0  0  0  0
 19 40  1  0  0  0  0
M  CHG  1   9   1
M  CHG  1  12  -1
M  END
> <s_m_source_file>
AV-unprocessed.smi

> <i_m_source_file_index>
560

> <i_lp_mmshare_version>
43012

> <i_f3d_flags>
0

> <s_epik_input>
bjFbY0hdW2NIXVtjSF1uMVtDQEhdKFtDSDNdKUMoPU8pW05IXVtDSF0yW0NIMl1bQ0gyXU4oW0NIMl1bQ0gyXTIpW0NIMl1DKD1PKVtOSDJd

> <s_epik_cmdline>
J2VwaWtfcHl0aG9uJywgJy1waCcsICc3LjAnLCAnLXRuJywgJzgnLCAnLW1hJywgJzIwMCcsICctbWV0YWxfYmluZGluZycsICctaW1hZScsICc8aW5maWxlLm1hZT4nLCAnLW9tYWUnLCAnPG91dGZpbGUubWFlPic=

> <r_lp_tautomer_probability>
1

> <r_epik_Ionization_Penalty>
5.71084

> <r_epik_Ionization_Penalty_Charging>
5.71081

> <r_epik_Ionization_Penalty_Neutral>
3.04611e-05

> <r_epik_State_Penalty>
6.71277

> <r_epik_Charging_Adjusted_Penalty>
12.4236

> <i_epik_Tot_Q>
0

> <i_epik_Tot_abs_Q>
2

> <r_epik_Metal_State_Penalty>
2.67562

> <b_epik_Metal_Only>
1

> <s_lp_Force_Field>
OPLS_2005

> <r_lp_Energy>
10.2497

> <b_lp_Chiralities_Consistent>
1

> <s_lp_Variant>
AV-unprocessed.smi:560-8

> <Gold.Version>
5.8.1

> <Gold.Id.Protein>
6NUR|6NUR_protein|mol2

> <Gold.PLP.Fitness>
44.6644

> <Gold.PLP.PLP>
-30.4086

> <Gold.PLP.part.hbond>
-6.6939

> <Gold.PLP.part.metal>
0.0000

> <Gold.PLP.part.buried>
-3.9679

> <Gold.PLP.part.nonpolar>
-24.1982

> <Gold.PLP.part.repulsive>
2.2037

> <Gold.PLP.ligand.clash>
0.0000

> <Gold.PLP.ligand.torsion>
1.2315

> <Gold.PLP.Chemscore.Hbond>
4.5288

> <Gold.PLP.Chemscore.CHOScore>
1.0000

> <Gold.PLP.Chemscore.Metal>
0.0000

> <Gold.Chemscore.Hbonds>
donor molecule, donor type, donor heavy atom, donor atom, acceptor molecule, acceptor atom, score
      L1  H     9    41       P1 10186  1.66
      L1  H    12    33       P1  7921  1.00
      P1  H 10192 10197       L1    12  0.83
      P1  H 10785 10796       L1    13  0.69
      L1  C    17    38       P1 10160  0.97

> <Gold.PLP.Chemscore.Internal.Correction>
0.1325

> <Gold.Rescore>
     Score         DG    S(hbond)    S(metal)    S(lipo)     H(rot)  DE(clash)    DE(int)     intcor
     12.63     -17.41       3.32        0.00      61.21       2.47       2.22       2.56       ----

> <Gold.Chemscore.Fitness>
12.6305

> <Gold.Chemscore.DG>
-17.4130

> <Gold.Chemscore.ZeroCoef>
-5.4800

> <Gold.Chemscore.Hbond>
3.3243

> <Gold.Chemscore.Metal>
0.0000

> <Gold.Chemscore.Lipo>
61.2100

> <Gold.Chemscore.Internal_Hbond>
0.0000

> <Gold.Chemscore.DEClash>
2.2186

> <Gold.Chemscore.DEInternal>
2.5639

> <Gold.Chemscore.Rot>
2.4734

> <Gold.Chemscore.Internal.Correction>
   9.000000E+99

> <Gold.Chemscore.Hbonds>
donor molecule, donor type, donor heavy atom, donor atom, acceptor molecule, acceptor atom, score
      L1  H     9    41       P1 10186  0.70
      L1  H    12    33       P1  7921  0.99
      P1  H 10192 10197       L1    12  0.57
      P1  H 10785 10796       L1    13  0.68

> <Gold.Chemscore.Hbond.Weighted>
-11.1032

> <Gold.Chemscore.Metal.Weighted>
-0.0000

> <Gold.Chemscore.Lipo.Weighted>
-7.1616

> <Gold.Chemscore.Internal_Hbond.Weighted>
0.0000

> <Gold.Chemscore.DEClash.Weighted>
2.2186

> <Gold.Chemscore.DEInternal.Weighted>
2.5639

> <Gold.Chemscore.Rot.Weighted>
6.3318

> <Gold.Chemscore.Internal.Correction.Weighted>
   9.000000E+99

> <Gold.Protein.RotatedTorsions>
[ 6907 6896 6895 6894 ] final   45.04 input  -60.11 | X-H torsion
[ 7974 7965 7964 7962 ] final  -76.79 input  175.53 | X-H torsion
[ 8008 7997 7996 7995 ] final   60.36 input   59.86 | X-H torsion
[ 10167 10162 10161 10158 ] final   33.58 input  -65.29 | X-H torsion
[ 10718 10713 10712 10709 ] final   -0.38 input   66.30 | X-H torsion
[ 10763 10752 10751 10750 ] final   31.13 input  -60.55 | X-H torsion
[ 11005 11000 10999 10996 ] final  -58.49 input  -57.11 | X-H torsion

> <Gold.Protein.ActiveResidues>
 VAL166  LYS551  ARG553  GLY616  TRP617  ASP618  TYR619  PRO620  LYS621  CYS622 
 ASP623  PHE694  ASN695  SER759  ASP760  ASP761  ALA762  ILE779  LEU786  VAL792 
 PHE793  MET794  SER795  GLU796  ALA797  LYS798  CYS799  TRP800  GLU811  SER814 

> <Gold.Protein.RotatedAtoms>
  152.2397  134.8240  160.0461 H   0  0  0  0  0  0  0  0  0  0  0  0  # atno 6907 bound_to 6896
  151.8959  133.3521  159.3822 H   0  0  0  0  0  0  0  0  0  0  0  0  # atno 6908 bound_to 6896
  150.7050  134.4803  159.5511 H   0  0  0  0  0  0  0  0  0  0  0  0  # atno 6909 bound_to 6896
  145.6082  140.9393  143.1203 H   0  0  0  0  0  0  0  0  0  0  0  0  # atno 7974 bound_to 7965
  155.5811  140.3491  155.4540 H   0  0  0  0  0  0  0  0  0  0  0  0  # atno 8008 bound_to 7997
  156.0373  140.1288  157.0219 H   0  0  0  0  0  0  0  0  0  0  0  0  # atno 8009 bound_to 7997
  154.4377  140.1031  156.6171 H   0  0  0  0  0  0  0  0  0  0  0  0  # atno 8010 bound_to 7997
  140.4394  144.1209  150.6171 H   0  0  0  0  0  0  0  0  0  0  0  0  # atno 10167 bound_to 10162
  156.8213  130.5457  149.5697 H   0  0  0  0  0  0  0  0  0  0  0  0  # atno 10718 bound_to 10713
  153.0333  135.6446  154.1152 H   0  0  0  0  0  0  0  0  0  0  0  0  # atno 10763 bound_to 10752
  154.0871  135.2869  155.3280 H   0  0  0  0  0  0  0  0  0  0  0  0  # atno 10764 bound_to 10752
  154.6490  135.5432  153.7943 H   0  0  0  0  0  0  0  0  0  0  0  0  # atno 10765 bound_to 10752
  141.1209  133.6612  156.4928 H   0  0  0  0  0  0  0  0  0  0  0  0  # atno 11005 bound_to 11000
  144.7281  139.7812  143.7357 LP  0  0  0  0  0  0  0  0  0  0  0  0  # atno 17320 bound_to 7965
  146.1524  139.4611  143.0040 LP  0  0  0  0  0  0  0  0  0  0  0  0  # atno 17321 bound_to 7965
  140.4335  143.2557  151.9564 LP  0  0  0  0  0  0  0  0  0  0  0  0  # atno 17342 bound_to 10162
  139.4789  144.5721  151.8071 LP  0  0  0  0  0  0  0  0  0  0  0  0  # atno 17343 bound_to 10162
  156.0987  130.5952  150.9857 LP  0  0  0  0  0  0  0  0  0  0  0  0  # atno 17370 bound_to 10713
  157.6455  131.0904  150.8162 LP  0  0  0  0  0  0  0  0  0  0  0  0  # atno 17371 bound_to 10713
  140.4509  134.6929  157.5039 LP  0  0  0  0  0  0  0  0  0  0  0  0  # atno 17394 bound_to 11000
  140.0166  134.6610  155.9301 LP  0  0  0  0  0  0  0  0  0  0  0  0  # atno 17395 bound_to 11000

$$$$
