AV-unprocessed.smi:814|AV-procd|sdf|3823|dock1
  -GOLD-   22720 1263D 1   1.00000     0.00000
 Structure written by MMmdl.
 36 37  0  0  0  0  0  0  0  0  1 V2000
  147.1824  139.0974  152.7087 C   0  0  0  0  0  0  0  0  0  0  0  0
  147.5394  140.2250  153.5478 N   0  0  0  0  0  0  0  0  0  0  0  0
  146.8758  141.4438  153.6006 C   0  0  0  0  0  0  0  0  0  0  0  0
  147.5489  142.2198  154.5130 C   0  0  0  0  0  0  0  0  0  0  0  0
  148.6207  141.4996  155.0289 N   0  0  0  0  0  0  0  0  0  0  0  0
  148.5597  140.3177  154.4226 C   0  0  0  0  0  0  0  0  0  0  0  0
  149.5435  139.2134  154.6577 C   0  0  0  0  0  0  0  0  0  0  0  0
  150.9465  139.7430  154.9944 C   0  0  0  0  0  0  0  0  0  0  0  0
  150.9066  140.7274  156.0694 N   0  0  0  0  0  0  0  0  0  0  0  0
  151.7359  140.7505  157.1243 C   0  0  0  0  0  0  0  0  0  0  0  0
  152.6381  139.9290  157.2904 O   0  0  0  0  0  0  0  0  0  0  0  0
  151.5099  141.8696  158.1499 C   0  0  2  0  0  0  0  0  0  0  0  0
  151.4609  143.2562  157.4671 C   0  0  0  0  0  0  0  0  0  0  0  0
  151.4957  144.3920  158.4745 C   0  0  0  0  0  0  0  0  0  0  0  0
  151.8694  144.2327  159.7558 C   0  0  0  0  0  0  0  0  0  0  0  0
  152.3045  142.9004  160.3403 C   0  0  0  0  0  0  0  0  0  0  0  0
  152.5896  141.8494  159.2508 C   0  0  0  0  0  0  0  0  0  0  0  0
  146.3860  139.3793  152.0192 H   0  0  0  0  0  0  0  0  0  0  0  0
  146.8357  138.2713  153.3299 H   0  0  0  0  0  0  0  0  0  0  0  0
  148.0487  138.7750  152.1309 H   0  0  0  0  0  0  0  0  0  0  0  0
  146.0045  141.6546  152.9980 H   0  0  0  0  0  0  0  0  0  0  0  0
  147.3477  143.2312  154.8340 H   0  0  0  0  0  0  0  0  0  0  0  0
  149.1719  138.5948  155.4756 H   0  0  0  0  0  0  0  0  0  0  0  0
  149.5827  138.5648  153.7821 H   0  0  0  0  0  0  0  0  0  0  0  0
  151.5870  138.9206  155.3140 H   0  0  0  0  0  0  0  0  0  0  0  0
  151.4154  140.1739  154.1079 H   0  0  0  0  0  0  0  0  0  0  0  0
  150.1915  141.4382  156.0125 H   0  0  0  0  0  0  0  0  0  0  0  0
  150.5455  141.6991  158.6323 H   0  0  0  0  0  0  0  0  0  0  0  0
  152.2977  143.3922  156.7802 H   0  0  0  0  0  0  0  0  0  0  0  0
  150.5485  143.3438  156.8761 H   0  0  0  0  0  0  0  0  0  0  0  0
  151.2129  145.3708  158.1158 H   0  0  0  0  0  0  0  0  0  0  0  0
  151.8592  145.0789  160.4268 H   0  0  0  0  0  0  0  0  0  0  0  0
  153.1935  143.0494  160.9537 H   0  0  0  0  0  0  0  0  0  0  0  0
  151.5146  142.5499  161.0052 H   0  0  0  0  0  0  0  0  0  0  0  0
  152.6593  140.8605  159.7066 H   0  0  0  0  0  0  0  0  0  0  0  0
  153.5660  142.0518  158.8073 H   0  0  0  0  0  0  0  0  0  0  0  0
  1  2  1  0  0  0  0
  1 18  1  0  0  0  0
  1 19  1  0  0  0  0
  1 20  1  0  0  0  0
  2  6  1  0  0  0  0
  2  3  1  0  0  0  0
  3  4  2  0  0  0  0
  3 21  1  0  0  0  0
  4  5  1  0  0  0  0
  4 22  1  0  0  0  0
  5  6  2  0  0  0  0
  6  7  1  0  0  0  0
  7  8  1  0  0  0  0
  7 23  1  0  0  0  0
  7 24  1  0  0  0  0
  8  9  1  0  0  0  0
  8 25  1  0  0  0  0
  8 26  1  0  0  0  0
  9 10  1  0  0  0  0
  9 27  1  0  0  0  0
 10 11  2  0  0  0  0
 10 12  1  0  0  0  0
 12 17  1  0  0  0  0
 12 13  1  0  0  0  0
 12 28  1  0  0  0  0
 13 14  1  0  0  0  0
 13 29  1  0  0  0  0
 13 30  1  0  0  0  0
 14 15  2  0  0  0  0
 14 31  1  0  0  0  0
 15 16  1  0  0  0  0
 15 32  1  0  0  0  0
 16 17  1  0  0  0  0
 16 33  1  0  0  0  0
 16 34  1  0  0  0  0
 17 35  1  0  0  0  0
 17 36  1  0  0  0  0
M  END
> <s_m_source_file>
AV-unprocessed.smi

> <i_m_source_file_index>
814

> <i_lp_mmshare_version>
43012

> <i_f3d_flags>
0

> <s_epik_input>
W0NIM11uMVtjSF1bY0hdbmMxW0NIMl1bQ0gyXVtOSF1DKD1PKVtDQEBIXTJbQ0gyXVtDSF09W0NIXVtDSDJdW0NIMl0y

> <s_epik_cmdline>
J2VwaWtfcHl0aG9uJywgJy1waCcsICc3LjAnLCAnLXRuJywgJzgnLCAnLW1hJywgJzIwMCcsICctbWV0YWxfYmluZGluZycsICctaW1hZScsICc8aW5maWxlLm1hZT4nLCAnLW9tYWUnLCAnPG91dGZpbGUubWFlPic=

> <r_lp_tautomer_probability>
1

> <r_epik_Ionization_Penalty>
1.21249

> <r_epik_Ionization_Penalty_Charging>
1.21249

> <r_epik_Ionization_Penalty_Neutral>
1.60917e-08

> <r_epik_State_Penalty>
1.27906

> <r_epik_Charging_Adjusted_Penalty>
2.49154

> <i_epik_Tot_Q>
0

> <i_epik_Tot_abs_Q>
0

> <r_epik_Metal_State_Penalty>
0.409603

> <b_epik_Metal_Only>
0

> <s_lp_Force_Field>
OPLS_2005

> <r_lp_Energy>
6.39824

> <b_lp_Chiralities_Consistent>
1

> <s_lp_Variant>
AV-unprocessed.smi:814-3

> <Gold.Version>
5.8.1

> <Gold.Id.Protein>
6NUR|6NUR_protein|mol2

> <Gold.PLP.Fitness>
45.7005

> <Gold.PLP.PLP>
-39.2148

> <Gold.PLP.part.hbond>
-1.0000

> <Gold.PLP.part.metal>
0.0000

> <Gold.PLP.part.buried>
-3.2479

> <Gold.PLP.part.nonpolar>
-35.1426

> <Gold.PLP.part.repulsive>
0.2501

> <Gold.PLP.ligand.clash>
0.0000

> <Gold.PLP.ligand.torsion>
0.5576

> <Gold.PLP.Chemscore.Hbond>
1.0000

> <Gold.PLP.Chemscore.CHOScore>
1.5257

> <Gold.PLP.Chemscore.Metal>
0.0000

> <Gold.Chemscore.Hbonds>
donor molecule, donor type, donor heavy atom, donor atom, acceptor molecule, acceptor atom, score
      P1  H  7997  8008       L1    11  1.00
      L1  C     3    21       P1 10175  0.37
      L1  C     4    22       P1  8028  0.91

> <Gold.PLP.Chemscore.Internal.Correction>
0.0240

> <Gold.Rescore>
     Score         DG    S(hbond)    S(metal)    S(lipo)     H(rot)  DE(clash)    DE(int)     intcor
     15.74     -16.41       0.99        0.00      99.77       1.58       0.09       0.58       ----

> <Gold.Chemscore.Fitness>
15.7402

> <Gold.Chemscore.DG>
-16.4119

> <Gold.Chemscore.ZeroCoef>
-5.4800

> <Gold.Chemscore.Hbond>
0.9899

> <Gold.Chemscore.Metal>
0.0000

> <Gold.Chemscore.Lipo>
99.7686

> <Gold.Chemscore.Internal_Hbond>
0.0000

> <Gold.Chemscore.DEClash>
0.0917

> <Gold.Chemscore.DEInternal>
0.5800

> <Gold.Chemscore.Rot>
1.5809

> <Gold.Chemscore.Internal.Correction>
   9.000000E+99

> <Gold.Chemscore.Hbonds>
donor molecule, donor type, donor heavy atom, donor atom, acceptor molecule, acceptor atom, score
      P1  H  7997  8008       L1    11  0.98

> <Gold.Chemscore.Hbond.Weighted>
-3.3062

> <Gold.Chemscore.Metal.Weighted>
-0.0000

> <Gold.Chemscore.Lipo.Weighted>
-11.6729

> <Gold.Chemscore.Internal_Hbond.Weighted>
0.0000

> <Gold.Chemscore.DEClash.Weighted>
0.0917

> <Gold.Chemscore.DEInternal.Weighted>
0.5800

> <Gold.Chemscore.Rot.Weighted>
4.0472

> <Gold.Chemscore.Internal.Correction.Weighted>
   9.000000E+99

> <Gold.Protein.RotatedTorsions>
[ 6907 6896 6895 6894 ] final   62.32 input  -60.11 | X-H torsion
[ 7974 7965 7964 7962 ] final  116.66 input  175.53 | X-H torsion
[ 8008 7997 7996 7995 ] final  -73.46 input   59.86 | X-H torsion
[ 10167 10162 10161 10158 ] final  -21.25 input  -65.29 | X-H torsion
[ 10718 10713 10712 10709 ] final -112.70 input   66.30 | X-H torsion
[ 10763 10752 10751 10750 ] final -119.12 input  -60.55 | X-H torsion
[ 11005 11000 10999 10996 ] final -163.24 input  -57.11 | X-H torsion

> <Gold.Protein.ActiveResidues>
 VAL166  LYS551  ARG553  GLY616  TRP617  ASP618  TYR619  PRO620  LYS621  CYS622 
 ASP623  PHE694  ASN695  SER759  ASP760  ASP761  ALA762  ILE779  LEU786  VAL792 
 PHE793  MET794  SER795  GLU796  ALA797  LYS798  CYS799  TRP800  GLU811  SER814 

> <Gold.Protein.RotatedAtoms>
  152.4162  134.6037  160.0006 H   0  0  0  0  0  0  0  0  0  0  0  0  # atno 6907 bound_to 6896
  151.6199  133.3334  159.3094 H   0  0  0  0  0  0  0  0  0  0  0  0  # atno 6908 bound_to 6896
  150.8051  134.7210  159.6702 H   0  0  0  0  0  0  0  0  0  0  0  0  # atno 6909 bound_to 6896
  145.1769  139.3071  143.4438 H   0  0  0  0  0  0  0  0  0  0  0  0  # atno 7974 bound_to 7965
  154.5249  140.0779  156.8240 H   0  0  0  0  0  0  0  0  0  0  0  0  # atno 8008 bound_to 7997
  155.3497  140.3412  155.4221 H   0  0  0  0  0  0  0  0  0  0  0  0  # atno 8009 bound_to 7997
  156.1721  140.1623  156.8416 H   0  0  0  0  0  0  0  0  0  0  0  0  # atno 8010 bound_to 7997
  140.7281  143.4645  151.0333 H   0  0  0  0  0  0  0  0  0  0  0  0  # atno 10167 bound_to 10162
  156.0721  130.5934  150.8544 H   0  0  0  0  0  0  0  0  0  0  0  0  # atno 10718 bound_to 10713
  154.8608  135.4250  154.2247 H   0  0  0  0  0  0  0  0  0  0  0  0  # atno 10763 bound_to 10752
  153.3245  135.6984  153.7007 H   0  0  0  0  0  0  0  0  0  0  0  0  # atno 10764 bound_to 10752
  153.6049  135.3530  155.2932 H   0  0  0  0  0  0  0  0  0  0  0  0  # atno 10765 bound_to 10752
  140.6003  134.4954  157.5204 H   0  0  0  0  0  0  0  0  0  0  0  0  # atno 11005 bound_to 11000
  146.3459  140.1935  142.8589 LP  0  0  0  0  0  0  0  0  0  0  0  0  # atno 17320 bound_to 7965
  145.0175  140.8766  143.5187 LP  0  0  0  0  0  0  0  0  0  0  0  0  # atno 17321 bound_to 7965
  139.8332  143.7662  152.3180 LP  0  0  0  0  0  0  0  0  0  0  0  0  # atno 17342 bound_to 10162
  139.7785  144.7452  151.0121 LP  0  0  0  0  0  0  0  0  0  0  0  0  # atno 17343 bound_to 10162
  157.5798  131.0946  150.9289 LP  0  0  0  0  0  0  0  0  0  0  0  0  # atno 17370 bound_to 10713
  156.9487  130.5411  149.5282 LP  0  0  0  0  0  0  0  0  0  0  0  0  # atno 17371 bound_to 10713
  139.9235  134.8101  156.1138 LP  0  0  0  0  0  0  0  0  0  0  0  0  # atno 17394 bound_to 11000
  141.0877  133.6727  156.2471 LP  0  0  0  0  0  0  0  0  0  0  0  0  # atno 17395 bound_to 11000

$$$$
