AV-unprocessed.smi:22|AV-procd|sdf|170|dock9
  -GOLD-   2262015423D 1   1.00000     0.00000
 Structure written by MMmdl.
 56 59  0  0  0  0  0  0  0  0  2 V2000
  146.6041  130.1950  152.9087 C   0  0  0  0  0  0  0  0  0  0  0  0
  146.6972  131.2084  151.8265 N   0  3  1  0  0  0  0  0  0  0  0  0
  145.4859  131.1779  150.9608 C   0  0  0  0  0  0  0  0  0  0  0  0
  145.6813  131.9958  149.6739 C   0  0  0  0  0  0  0  0  0  0  0  0
  145.2963  133.3364  149.8921 O   0  0  0  0  0  0  0  0  0  0  0  0
  147.0540  132.5897  152.2806 C   0  0  0  0  0  0  0  0  0  0  0  0
  148.1544  132.5349  153.3680 C   0  0  0  0  0  0  0  0  0  0  0  0
  148.5489  133.9389  153.8521 C   0  0  0  0  0  0  0  0  0  0  0  0
  147.3775  134.6725  154.3274 N   0  0  0  0  0  0  0  0  0  0  0  0
  147.5915  135.7950  155.0602 C   0  0  0  0  0  0  0  0  0  0  0  0
  148.3326  135.7327  156.1991 N   0  0  0  0  0  0  0  0  0  0  0  0
  148.5561  136.8353  156.9203 C   0  0  0  0  0  0  0  0  0  0  0  0
  148.1368  138.0808  156.6915 N   0  0  0  0  0  0  0  0  0  0  0  0
  147.3860  138.1495  155.5552 C   0  0  0  0  0  0  0  0  0  0  0  0
  147.0697  137.0659  154.6877 C   0  0  0  0  0  0  0  0  0  0  0  0
  146.2795  137.5167  153.6367 N   0  0  0  0  0  0  0  0  0  0  0  0
  146.1429  138.7943  153.8662 C   0  0  0  0  0  0  0  0  0  0  0  0
  146.7693  139.2576  155.0011 N   0  0  0  0  0  0  0  0  0  0  0  0
  146.7747  140.6260  155.4951 C   0  0  0  0  0  0  0  0  0  0  0  0
  148.0720  141.3952  155.1543 C   0  0  1  0  0  0  0  0  0  0  0  0
  147.7265  142.6430  154.5778 O   0  0  0  0  0  0  0  0  0  0  0  0
  148.9820  141.6484  156.3527 C   0  0  0  0  0  0  0  0  0  0  0  0
  150.3707  141.6419  155.7300 C   0  0  0  0  0  0  0  0  0  0  0  0
  150.2780  140.5922  154.7819 O   0  0  0  0  0  0  0  0  0  0  0  0
  148.9917  140.6428  154.1720 C   0  0  0  0  0  0  0  0  0  0  0  0
  146.2904  134.7800  153.3582 C   0  0  0  0  0  0  0  0  0  0  0  0
  145.8586  133.3922  152.8568 C   0  0  0  0  0  0  0  0  0  0  0  0
  145.8891  130.5033  153.6729 H   0  0  0  0  0  0  0  0  0  0  0  0
  147.5712  130.0252  153.3818 H   0  0  0  0  0  0  0  0  0  0  0  0
  146.2797  129.2302  152.5195 H   0  0  0  0  0  0  0  0  0  0  0  0
  145.2446  130.1428  150.7130 H   0  0  0  0  0  0  0  0  0  0  0  0
  144.6061  131.5562  151.4803 H   0  0  0  0  0  0  0  0  0  0  0  0
  146.7119  131.9628  149.3211 H   0  0  0  0  0  0  0  0  0  0  0  0
  145.0587  131.5872  148.8776 H   0  0  0  0  0  0  0  0  0  0  0  0
  145.7571  133.8870  149.2767 H   0  0  0  0  0  0  0  0  0  0  0  0
  147.4310  133.1392  151.4161 H   0  0  0  0  0  0  0  0  0  0  0  0
  147.7984  131.9497  154.2174 H   0  0  0  0  0  0  0  0  0  0  0  0
  149.0506  132.0302  153.0103 H   0  0  0  0  0  0  0  0  0  0  0  0
  149.2840  133.8514  154.6536 H   0  0  0  0  0  0  0  0  0  0  0  0
  149.0207  134.4943  153.0402 H   0  0  0  0  0  0  0  0  0  0  0  0
  149.1577  136.7002  157.8071 H   0  0  0  0  0  0  0  0  0  0  0  0
  145.5705  139.4380  153.2138 H   0  0  0  0  0  0  0  0  0  0  0  0
  145.9114  141.1432  155.0743 H   0  0  0  0  0  0  0  0  0  0  0  0
  146.6195  140.6028  156.5748 H   0  0  0  0  0  0  0  0  0  0  0  0
  148.2433  143.3172  154.9924 H   0  0  0  0  0  0  0  0  0  0  0  0
  148.7544  142.5672  156.8951 H   0  0  0  0  0  0  0  0  0  0  0  0
  148.9148  140.8203  157.0589 H   0  0  0  0  0  0  0  0  0  0  0  0
  150.5783  142.5839  155.2200 H   0  0  0  0  0  0  0  0  0  0  0  0
  151.1607  141.4596  156.4587 H   0  0  0  0  0  0  0  0  0  0  0  0
  148.6509  139.6245  153.9824 H   0  0  0  0  0  0  0  0  0  0  0  0
  149.0637  141.1463  153.2064 H   0  0  0  0  0  0  0  0  0  0  0  0
  145.4276  135.2906  153.7848 H   0  0  0  0  0  0  0  0  0  0  0  0
  146.6285  135.3897  152.5192 H   0  0  0  0  0  0  0  0  0  0  0  0
  145.0843  133.5396  152.1039 H   0  0  0  0  0  0  0  0  0  0  0  0
  145.4004  132.8406  153.6791 H   0  0  0  0  0  0  0  0  0  0  0  0
  147.4646  130.9158  151.2380 H   0  0  0  0  0  0  0  0  0  0  0  0
  1  2  1  0  0  0  0
  1 28  1  0  0  0  0
  1 29  1  0  0  0  0
  1 30  1  0  0  0  0
  2  3  1  0  0  0  0
  2  6  1  0  0  0  0
  2 56  1  0  0  0  0
  3  4  1  0  0  0  0
  3 31  1  0  0  0  0
  3 32  1  0  0  0  0
  4  5  1  0  0  0  0
  4 33  1  0  0  0  0
  4 34  1  0  0  0  0
  5 35  1  0  0  0  0
  6 27  1  0  0  0  0
  6  7  1  0  0  0  0
  6 36  1  0  0  0  0
  7  8  1  0  0  0  0
  7 37  1  0  0  0  0
  7 38  1  0  0  0  0
  8  9  1  0  0  0  0
  8 39  1  0  0  0  0
  8 40  1  0  0  0  0
  9 10  1  0  0  0  0
  9 26  1  0  0  0  0
 10 15  1  0  0  0  0
 10 11  2  0  0  0  0
 11 12  1  0  0  0  0
 12 13  2  0  0  0  0
 12 41  1  0  0  0  0
 13 14  1  0  0  0  0
 14 18  1  0  0  0  0
 14 15  2  0  0  0  0
 15 16  1  0  0  0  0
 16 17  2  0  0  0  0
 17 18  1  0  0  0  0
 17 42  1  0  0  0  0
 18 19  1  0  0  0  0
 19 20  1  0  0  0  0
 19 43  1  0  0  0  0
 19 44  1  0  0  0  0
 20 25  1  0  0  0  0
 20 21  1  0  0  0  0
 20 22  1  0  0  0  0
 21 45  1  0  0  0  0
 22 23  1  0  0  0  0
 22 46  1  0  0  0  0
 22 47  1  0  0  0  0
 23 24  1  0  0  0  0
 23 48  1  0  0  0  0
 23 49  1  0  0  0  0
 24 25  1  0  0  0  0
 25 50  1  0  0  0  0
 25 51  1  0  0  0  0
 26 27  1  0  0  0  0
 26 52  1  0  0  0  0
 26 53  1  0  0  0  0
 27 54  1  0  0  0  0
 27 55  1  0  0  0  0
M  CHG  1   2   1
M  END
> <s_m_source_file>
AV-unprocessed.smi

> <i_m_source_file_index>
22

> <i_lp_mmshare_version>
43012

> <i_f3d_flags>
0

> <s_epik_input>
W09IXVtDSDJdW0NIMl1OKFtDSDNdKVtDSF0xW0NIMl1bQ0gyXU4oW0NIMl1bQ0gyXTEpYyhuW2NIXW4yKWMoYzIzKW5bY0hdbjNbQ0gyXVtDQEBdNChbT0hdKVtDSDJdW0NIMl1PW0NIMl00

> <s_epik_cmdline>
J2VwaWtfcHl0aG9uJywgJy1waCcsICc3LjAnLCAnLXRuJywgJzgnLCAnLW1hJywgJzIwMCcsICctbWV0YWxfYmluZGluZycsICctaW1hZScsICc8aW5maWxlLm1hZT4nLCAnLW9tYWUnLCAnPG91dGZpbGUubWFlPic=

> <r_lp_tautomer_probability>
1

> <r_epik_Ionization_Penalty>
0.00317524

> <r_epik_Ionization_Penalty_Charging>
0.00191487

> <r_epik_Ionization_Penalty_Neutral>
0.00126037

> <r_epik_State_Penalty>
-0

> <r_epik_Charging_Adjusted_Penalty>
0.00191487

> <i_epik_Tot_Q>
1

> <i_epik_Tot_abs_Q>
1

> <r_epik_Metal_State_Penalty>
-0

> <b_epik_Metal_Only>
0

> <s_lp_Force_Field>
OPLS_2005

> <r_lp_Energy>
47.7053

> <b_lp_Chiralities_Consistent>
1

> <s_lp_Variant>
AV-unprocessed.smi:22-2

> <Gold.Version>
5.8.1

> <Gold.Id.Protein>
6NUR|6NUR_protein|mol2

> <Gold.PLP.Fitness>
45.5213

> <Gold.PLP.PLP>
-34.0182

> <Gold.PLP.part.hbond>
-3.7173

> <Gold.PLP.part.metal>
0.0000

> <Gold.PLP.part.buried>
-3.9603

> <Gold.PLP.part.nonpolar>
-26.1516

> <Gold.PLP.part.repulsive>
0.3395

> <Gold.PLP.ligand.clash>
0.0000

> <Gold.PLP.ligand.torsion>
1.9902

> <Gold.PLP.Chemscore.Hbond>
4.0000

> <Gold.PLP.Chemscore.CHOScore>
1.0000

> <Gold.PLP.Chemscore.Metal>
0.0000

> <Gold.Chemscore.Hbonds>
donor molecule, donor type, donor heavy atom, donor atom, acceptor molecule, acceptor atom, score
      L1  H     2    56       P1 10747  1.00
      L1  H     5    35       P1  7921  1.00
      L1  H    21    45       P1  8028  1.00
      P1  H  7989  7998       L1    24  0.91
      L1  C    17    42       P1 10175  1.00

> <Gold.PLP.Chemscore.Internal.Correction>
0.4834

> <Gold.Rescore>
     Score         DG    S(hbond)    S(metal)    S(lipo)     H(rot)  DE(clash)    DE(int)     intcor
     12.14     -16.46       3.32        0.00      81.13       3.76       0.22       4.09       ----

> <Gold.Chemscore.Fitness>
12.1422

> <Gold.Chemscore.DG>
-16.4553

> <Gold.Chemscore.ZeroCoef>
-5.4800

> <Gold.Chemscore.Hbond>
3.3247

> <Gold.Chemscore.Metal>
0.0000

> <Gold.Chemscore.Lipo>
81.1274

> <Gold.Chemscore.Internal_Hbond>
0.0000

> <Gold.Chemscore.DEClash>
0.2218

> <Gold.Chemscore.DEInternal>
4.0913

> <Gold.Chemscore.Rot>
3.7583

> <Gold.Chemscore.Internal.Correction>
   9.000000E+99

> <Gold.Chemscore.Hbonds>
donor molecule, donor type, donor heavy atom, donor atom, acceptor molecule, acceptor atom, score
      L1  H     2    56       P1 10747  1.00
      L1  H     5    35       P1  7921  0.34
      L1  H    21    45       P1  8028  0.97
      P1  H  7989  7998       L1    24  0.40

> <Gold.Chemscore.Hbond.Weighted>
-11.1046

> <Gold.Chemscore.Metal.Weighted>
-0.0000

> <Gold.Chemscore.Lipo.Weighted>
-9.4919

> <Gold.Chemscore.Internal_Hbond.Weighted>
0.0000

> <Gold.Chemscore.DEClash.Weighted>
0.2218

> <Gold.Chemscore.DEInternal.Weighted>
4.0913

> <Gold.Chemscore.Rot.Weighted>
9.6213

> <Gold.Chemscore.Internal.Correction.Weighted>
   9.000000E+99

> <Gold.Protein.RotatedTorsions>
[ 6907 6896 6895 6894 ] final  106.76 input  -60.11 | X-H torsion
[ 7974 7965 7964 7962 ] final  -83.66 input  175.53 | X-H torsion
[ 8008 7997 7996 7995 ] final  -81.96 input   59.86 | X-H torsion
[ 10167 10162 10161 10158 ] final  123.53 input  -65.29 | X-H torsion
[ 10718 10713 10712 10709 ] final  -49.53 input   66.30 | X-H torsion
[ 10763 10752 10751 10750 ] final  -82.97 input  -60.55 | X-H torsion
[ 11005 11000 10999 10996 ] final  -22.97 input  -57.11 | X-H torsion

> <Gold.Protein.ActiveResidues>
 VAL166  LYS551  ARG553  GLY616  TRP617  ASP618  TYR619  PRO620  LYS621  CYS622 
 ASP623  PHE694  ASN695  SER759  ASP760  ASP761  ALA762  ILE779  LEU786  VAL792 
 PHE793  MET794  SER795  GLU796  ALA797  LYS798  CYS799  TRP800  GLU811  SER814 

> <Gold.Protein.RotatedAtoms>
  152.5181  133.9334  159.7591 H   0  0  0  0  0  0  0  0  0  0  0  0  # atno 6907 bound_to 6896
  150.9680  133.6366  159.2750 H   0  0  0  0  0  0  0  0  0  0  0  0  # atno 6908 bound_to 6896
  151.3587  135.0905  159.9480 H   0  0  0  0  0  0  0  0  0  0  0  0  # atno 6909 bound_to 6896
  145.5170  140.9535  143.1676 H   0  0  0  0  0  0  0  0  0  0  0  0  # atno 7974 bound_to 7965
  154.6037  140.0640  156.9403 H   0  0  0  0  0  0  0  0  0  0  0  0  # atno 8008 bound_to 7997
  155.2089  140.3321  155.4313 H   0  0  0  0  0  0  0  0  0  0  0  0  # atno 8009 bound_to 7997
  156.2334  140.1851  156.7166 H   0  0  0  0  0  0  0  0  0  0  0  0  # atno 8010 bound_to 7997
  139.5794  144.6979  151.3568 H   0  0  0  0  0  0  0  0  0  0  0  0  # atno 10167 bound_to 10162
  156.1885  130.4152  149.9405 H   0  0  0  0  0  0  0  0  0  0  0  0  # atno 10718 bound_to 10713
  154.5822  135.5572  153.7196 H   0  0  0  0  0  0  0  0  0  0  0  0  # atno 10763 bound_to 10752
  153.0085  135.6323  154.1966 H   0  0  0  0  0  0  0  0  0  0  0  0  # atno 10764 bound_to 10752
  154.1907  135.2882  155.3003 H   0  0  0  0  0  0  0  0  0  0  0  0  # atno 10765 bound_to 10752
  140.8707  133.7722  156.0183 H   0  0  0  0  0  0  0  0  0  0  0  0  # atno 11005 bound_to 11000
  144.7696  139.6764  143.7200 LP  0  0  0  0  0  0  0  0  0  0  0  0  # atno 17320 bound_to 7965
  146.2130  139.5500  142.9668 LP  0  0  0  0  0  0  0  0  0  0  0  0  # atno 17321 bound_to 7965
  140.7074  143.7480  150.7505 LP  0  0  0  0  0  0  0  0  0  0  0  0  # atno 17342 bound_to 10162
  140.1008  143.4789  152.2426 LP  0  0  0  0  0  0  0  0  0  0  0  0  # atno 17343 bound_to 10162
  156.7153  130.8986  151.3613 LP  0  0  0  0  0  0  0  0  0  0  0  0  # atno 17370 bound_to 10713
  157.6914  130.9237  150.0524 LP  0  0  0  0  0  0  0  0  0  0  0  0  # atno 17371 bound_to 10713
  140.8576  134.2879  157.5248 LP  0  0  0  0  0  0  0  0  0  0  0  0  # atno 17394 bound_to 11000
  139.8712  134.9501  156.4045 LP  0  0  0  0  0  0  0  0  0  0  0  0  # atno 17395 bound_to 11000

$$$$
