AV-unprocessed.smi:623|AV-procd|sdf|3098|dock3
  -GOLD-   22720 0 13D 1   1.00000     0.00000
 Structure written by MMmdl.
 44 46  0  0  0  0  0  0  0  0  2 V2000
  145.2823  134.5017  162.7727 C   0  0  0  0  0  0  0  0  0  0  0  0
  146.4973  134.6158  161.8093 C   0  0  0  0  0  0  0  0  0  0  0  0
  147.4786  133.4922  162.2454 C   0  0  0  0  0  0  0  0  0  0  0  0
  146.1223  134.5813  160.3139 C   0  0  1  0  0  0  0  0  0  0  0  0
  145.2642  135.8511  160.1226 C   0  0  0  0  0  0  0  0  0  0  0  0
  145.9317  136.8531  161.0845 C   0  0  0  0  0  0  0  0  0  0  0  0
  147.1170  136.0330  161.6675 C   0  0  1  0  0  0  0  0  0  0  0  0
  147.6983  136.6452  162.9531 C   0  0  0  0  0  0  0  0  0  0  0  0
  148.1777  135.8353  160.5414 C   0  0  2  0  0  0  0  0  0  0  0  0
  148.5586  137.0772  159.8699 N   0  0  0  0  0  0  0  0  0  0  0  0
  149.4635  137.1780  158.8856 C   0  0  0  0  0  0  0  0  0  0  0  0
  150.0686  136.2085  158.4260 O   0  0  0  0  0  0  0  0  0  0  0  0
  149.6860  138.5900  158.3258 C   0  0  0  0  0  0  0  0  0  0  0  0
  150.8358  138.6817  157.4115 N   0  0  0  0  0  0  0  0  0  0  0  0
  150.6309  138.3190  156.0689 C   0  0  0  0  0  0  0  0  0  0  0  0
  151.6239  138.3661  155.1605 C   0  0  0  0  0  0  0  0  0  0  0  0
  152.9411  138.8085  155.6007 C   0  0  0  0  0  0  0  0  0  0  0  0
  153.8585  138.8625  154.7838 O   0  0  0  0  0  0  0  0  0  0  0  0
  153.0912  139.1453  156.9152 N   0  5  0  0  0  0  0  0  0  0  0  0
  152.0727  139.0886  157.8288 C   0  0  0  0  0  0  0  0  0  0  0  0
  152.2308  139.3928  159.0117 O   0  0  0  0  0  0  0  0  0  0  0  0
  147.4653  134.8375  159.5951 C   0  0  0  0  0  0  0  0  0  0  0  0
  144.8286  133.5127  162.7009 H   0  0  0  0  0  0  0  0  0  0  0  0
  144.4821  135.2171  162.5963 H   0  0  0  0  0  0  0  0  0  0  0  0
  145.5952  134.6345  163.8086 H   0  0  0  0  0  0  0  0  0  0  0  0
  148.3940  133.4241  161.6623 H   0  0  0  0  0  0  0  0  0  0  0  0
  146.9979  132.5160  162.1744 H   0  0  0  0  0  0  0  0  0  0  0  0
  147.7818  133.6245  163.2843 H   0  0  0  0  0  0  0  0  0  0  0  0
  145.6241  133.6691  159.9839 H   0  0  0  0  0  0  0  0  0  0  0  0
  145.2724  136.2042  159.0907 H   0  0  0  0  0  0  0  0  0  0  0  0
  144.2224  135.6773  160.3924 H   0  0  0  0  0  0  0  0  0  0  0  0
  146.2328  137.7701  160.5789 H   0  0  0  0  0  0  0  0  0  0  0  0
  145.2370  137.1616  161.8659 H   0  0  0  0  0  0  0  0  0  0  0  0
  148.0996  137.6410  162.7639 H   0  0  0  0  0  0  0  0  0  0  0  0
  148.5080  136.0346  163.3530 H   0  0  0  0  0  0  0  0  0  0  0  0
  146.9379  136.7389  163.7285 H   0  0  0  0  0  0  0  0  0  0  0  0
  149.0844  135.3880  160.9515 H   0  0  0  0  0  0  0  0  0  0  0  0
  148.1095  137.9235  160.1880 H   0  0  0  0  0  0  0  0  0  0  0  0
  148.7730  138.9007  157.8161 H   0  0  0  0  0  0  0  0  0  0  0  0
  149.8045  139.2933  159.1523 H   0  0  0  0  0  0  0  0  0  0  0  0
  149.6286  137.9965  155.8279 H   0  0  0  0  0  0  0  0  0  0  0  0
  151.4504  138.0809  154.1334 H   0  0  0  0  0  0  0  0  0  0  0  0
  148.0438  133.9196  159.4886 H   0  0  0  0  0  0  0  0  0  0  0  0
  147.3172  135.2308  158.5883 H   0  0  0  0  0  0  0  0  0  0  0  0
  1  2  1  0  0  0  0
  1 23  1  0  0  0  0
  1 24  1  0  0  0  0
  1 25  1  0  0  0  0
  2  7  1  0  0  0  0
  2  3  1  0  0  0  0
  2  4  1  0  0  0  0
  3 26  1  0  0  0  0
  3 27  1  0  0  0  0
  3 28  1  0  0  0  0
  4 22  1  0  0  0  0
  4  5  1  0  0  0  0
  4 29  1  0  0  0  0
  5  6  1  0  0  0  0
  5 30  1  0  0  0  0
  5 31  1  0  0  0  0
  6  7  1  0  0  0  0
  6 32  1  0  0  0  0
  6 33  1  0  0  0  0
  7  8  1  0  0  0  0
  7  9  1  0  0  0  0
  8 34  1  0  0  0  0
  8 35  1  0  0  0  0
  8 36  1  0  0  0  0
  9 10  1  0  0  0  0
  9 22  1  0  0  0  0
  9 37  1  0  0  0  0
 10 11  1  0  0  0  0
 10 38  1  0  0  0  0
 11 12  2  0  0  0  0
 11 13  1  0  0  0  0
 13 14  1  0  0  0  0
 13 39  1  0  0  0  0
 13 40  1  0  0  0  0
 14 20  1  0  0  0  0
 14 15  1  0  0  0  0
 15 16  2  0  0  0  0
 15 41  1  0  0  0  0
 16 17  1  0  0  0  0
 16 42  1  0  0  0  0
 17 18  2  0  0  0  0
 17 19  1  0  0  0  0
 19 20  1  0  0  0  0
 20 21  2  0  0  0  0
 22 43  1  0  0  0  0
 22 44  1  0  0  0  0
M  CHG  1  19  -1
M  END
> <s_m_source_file>
AV-unprocessed.smi

> <i_m_source_file_index>
623

> <i_lp_mmshare_version>
43012

> <i_f3d_flags>
0

> <s_epik_input>
W0NIM11bQ0BdMTJDKFtDSDNdKShbQ0gzXSlbQ0BIXShbQ0gyXVtDSDJdMSlbQ0gyXVtDQEBIXTJbTkhdQyg9TylbQ0gyXW4zW2NIXVtjSF1jKD1PKVtuSF1jMz1P

> <s_epik_cmdline>
J2VwaWtfcHl0aG9uJywgJy1waCcsICc3LjAnLCAnLXRuJywgJzgnLCAnLW1hJywgJzIwMCcsICctbWV0YWxfYmluZGluZycsICctaW1hZScsICc8aW5maWxlLm1hZT4nLCAnLW9tYWUnLCAnPG91dGZpbGUubWFlPic=

> <r_lp_tautomer_probability>
0.999537

> <r_epik_Ionization_Penalty>
3.12624

> <r_epik_Ionization_Penalty_Charging>
3.01273e-08

> <r_epik_Ionization_Penalty_Neutral>
3.12624

> <r_epik_State_Penalty>
3.12534

> <r_epik_Charging_Adjusted_Penalty>
3.12534

> <i_epik_Tot_Q>
-1

> <i_epik_Tot_abs_Q>
1

> <r_epik_Metal_State_Penalty>
0.46406

> <b_epik_Metal_Only>
1

> <s_lp_Force_Field>
OPLS_2005

> <r_lp_Energy>
65.8638

> <b_lp_Chiralities_Consistent>
1

> <s_lp_Variant>
AV-unprocessed.smi:623-8

> <Gold.Version>
5.8.1

> <Gold.Id.Protein>
6NUR|6NUR_protein|mol2

> <Gold.PLP.Fitness>
43.4420

> <Gold.PLP.PLP>
-34.5949

> <Gold.PLP.part.hbond>
-3.0000

> <Gold.PLP.part.metal>
0.0000

> <Gold.PLP.part.buried>
-4.5048

> <Gold.PLP.part.nonpolar>
-27.6387

> <Gold.PLP.part.repulsive>
0.2357

> <Gold.PLP.ligand.clash>
0.0000

> <Gold.PLP.ligand.torsion>
0.4476

> <Gold.PLP.Chemscore.Hbond>
3.2434

> <Gold.PLP.Chemscore.CHOScore>
0.0000

> <Gold.PLP.Chemscore.Metal>
0.0000

> <Gold.Chemscore.Hbonds>
donor molecule, donor type, donor heavy atom, donor atom, acceptor molecule, acceptor atom, score
      P1  H  6896  6907       L1    12  1.00
      P1  H  7997  8008       L1    19  2.00
      P1  H  7997  8009       L1    18  0.33

> <Gold.PLP.Chemscore.Internal.Correction>
0.0123

> <Gold.Rescore>
     Score         DG    S(hbond)    S(metal)    S(lipo)     H(rot)  DE(clash)    DE(int)     intcor
     15.71     -16.46       1.69        0.00      81.33       1.63       0.37       0.39       ----

> <Gold.Chemscore.Fitness>
15.7060

> <Gold.Chemscore.DG>
-16.4621

> <Gold.Chemscore.ZeroCoef>
-5.4800

> <Gold.Chemscore.Hbond>
1.6902

> <Gold.Chemscore.Metal>
0.0000

> <Gold.Chemscore.Lipo>
81.3253

> <Gold.Chemscore.Internal_Hbond>
0.0000

> <Gold.Chemscore.DEClash>
0.3669

> <Gold.Chemscore.DEInternal>
0.3892

> <Gold.Chemscore.Rot>
1.6322

> <Gold.Chemscore.Internal.Correction>
   9.000000E+99

> <Gold.Chemscore.Hbonds>
donor molecule, donor type, donor heavy atom, donor atom, acceptor molecule, acceptor atom, score
      P1  H  6896  6907       L1    12  0.89
      P1  H  7997  8008       L1    19  0.33
      P1  H  7997  8009       L1    18  0.22

> <Gold.Chemscore.Hbond.Weighted>
-5.6454

> <Gold.Chemscore.Metal.Weighted>
-0.0000

> <Gold.Chemscore.Lipo.Weighted>
-9.5151

> <Gold.Chemscore.Internal_Hbond.Weighted>
0.0000

> <Gold.Chemscore.DEClash.Weighted>
0.3669

> <Gold.Chemscore.DEInternal.Weighted>
0.3892

> <Gold.Chemscore.Rot.Weighted>
4.1783

> <Gold.Chemscore.Internal.Correction.Weighted>
   9.000000E+99

> <Gold.Protein.RotatedTorsions>
[ 6907 6896 6895 6894 ] final  -60.88 input  -60.11 | X-H torsion
[ 7974 7965 7964 7962 ] final  115.49 input  175.53 | X-H torsion
[ 8008 7997 7996 7995 ] final  -78.73 input   59.86 | X-H torsion
[ 10167 10162 10161 10158 ] final  163.28 input  -65.29 | X-H torsion
[ 10718 10713 10712 10709 ] final  170.11 input   66.30 | X-H torsion
[ 10763 10752 10751 10750 ] final   78.41 input  -60.55 | X-H torsion
[ 11005 11000 10999 10996 ] final  -72.95 input  -57.11 | X-H torsion

> <Gold.Protein.ActiveResidues>
 VAL166  LYS551  ARG553  GLY616  TRP617  ASP618  TYR619  PRO620  LYS621  CYS622 
 ASP623  PHE694  ASN695  SER759  ASP760  ASP761  ALA762  ILE779  LEU786  VAL792 
 PHE793  MET794  SER795  GLU796  ALA797  LYS798  CYS799  TRP800  GLU811  SER814 

> <Gold.Protein.RotatedAtoms>
  150.7824  134.6778  159.6426 H   0  0  0  0  0  0  0  0  0  0  0  0  # atno 6907 bound_to 6896
  152.3912  134.6435  160.0116 H   0  0  0  0  0  0  0  0  0  0  0  0  # atno 6908 bound_to 6896
  151.6735  133.3277  159.3238 H   0  0  0  0  0  0  0  0  0  0  0  0  # atno 6909 bound_to 6896
  145.1914  139.2998  143.4366 H   0  0  0  0  0  0  0  0  0  0  0  0  # atno 7974 bound_to 7965
  154.5717  140.0689  156.8974 H   0  0  0  0  0  0  0  0  0  0  0  0  # atno 8008 bound_to 7997
  155.2623  140.3359  155.4254 H   0  0  0  0  0  0  0  0  0  0  0  0  # atno 8009 bound_to 7997
  156.2123  140.1764  156.7653 H   0  0  0  0  0  0  0  0  0  0  0  0  # atno 8010 bound_to 7997
  139.4871  144.4353  151.9019 H   0  0  0  0  0  0  0  0  0  0  0  0  # atno 10167 bound_to 10162
  157.0128  131.0209  151.2798 H   0  0  0  0  0  0  0  0  0  0  0  0  # atno 10718 bound_to 10713
  153.0872  135.4878  154.8620 H   0  0  0  0  0  0  0  0  0  0  0  0  # atno 10763 bound_to 10752
  154.7225  135.3042  154.9026 H   0  0  0  0  0  0  0  0  0  0  0  0  # atno 10764 bound_to 10752
  153.9686  135.6804  153.4799 H   0  0  0  0  0  0  0  0  0  0  0  0  # atno 10765 bound_to 10752
  141.1616  133.6863  156.7138 H   0  0  0  0  0  0  0  0  0  0  0  0  # atno 11005 bound_to 11000
  146.3435  140.2128  142.8590 LP  0  0  0  0  0  0  0  0  0  0  0  0  # atno 17320 bound_to 7965
  145.0038  140.8654  143.5266 LP  0  0  0  0  0  0  0  0  0  0  0  0  # atno 17321 bound_to 7965
  140.3803  144.2745  150.5909 LP  0  0  0  0  0  0  0  0  0  0  0  0  # atno 17342 bound_to 10162
  140.5239  143.2259  151.8345 LP  0  0  0  0  0  0  0  0  0  0  0  0  # atno 17343 bound_to 10162
  157.5307  130.8057  149.7914 LP  0  0  0  0  0  0  0  0  0  0  0  0  # atno 17370 bound_to 10713
  156.0130  130.3825  150.2203 LP  0  0  0  0  0  0  0  0  0  0  0  0  # atno 17371 bound_to 10713
  140.2867  134.8273  157.3981 LP  0  0  0  0  0  0  0  0  0  0  0  0  # atno 17394 bound_to 11000
  140.1383  134.5005  155.8051 LP  0  0  0  0  0  0  0  0  0  0  0  0  # atno 17395 bound_to 11000

$$$$
