AV-unprocessed.smi:1304|AV-procd|sdf|5431|dock10
  -GOLD-   22720 4593D 1   1.00000     0.00000
 Structure written by MMmdl.
 48 49  0  0  0  0  0  0  0  0  2 V2000
  144.3537  143.7990  156.3145 C   0  0  0  0  0  0  0  0  0  0  0  0
  144.5941  142.4519  155.6093 C   0  0  0  0  0  0  0  0  0  0  0  0
  146.0868  142.0983  155.3282 C   0  0  1  0  0  0  0  0  0  0  0  0
  146.6564  143.1966  154.3913 C   0  0  0  0  0  0  0  0  0  0  0  0
  146.8820  142.1184  156.6673 C   0  0  0  0  0  0  0  0  0  0  0  0
  148.3069  142.3760  156.4793 N   0  0  0  0  0  0  0  0  0  0  0  0
  149.2806  141.5044  156.7763 C   0  0  0  0  0  0  0  0  0  0  0  0
  149.0585  140.3840  157.2372 O   0  0  0  0  0  0  0  0  0  0  0  0
  150.7138  141.9790  156.4947 C   0  0  0  0  0  0  0  0  0  0  0  0
  151.4353  142.4212  157.6999 N   0  0  0  0  0  0  0  0  0  0  0  0
  151.0368  143.6467  158.2702 C   0  0  0  0  0  0  0  0  0  0  0  0
  151.6311  144.1473  159.3646 C   0  0  0  0  0  0  0  0  0  0  0  0
  152.7086  143.3937  159.9611 C   0  0  0  0  0  0  0  0  0  0  0  0
  153.1000  142.2220  159.4219 C   0  0  0  0  0  0  0  0  0  0  0  0
  152.4539  141.6717  158.2244 C   0  0  0  0  0  0  0  0  0  0  0  0
  152.8071  140.6041  157.7226 O   0  0  0  0  0  0  0  0  0  0  0  0
  146.1829  140.7436  154.6702 N   0  3  0  0  0  0  0  0  0  0  0  0
  147.4674  140.4401  153.9770 C   0  0  0  0  0  0  0  0  0  0  0  0
  147.3609  139.1190  153.1957 C   0  0  0  0  0  0  0  0  0  0  0  0
  146.9946  138.0648  154.0746 O   0  0  0  0  0  0  0  0  0  0  0  0
  145.7286  138.2977  154.6750 C   0  0  0  0  0  0  0  0  0  0  0  0
  145.7904  139.5817  155.5174 C   0  0  0  0  0  0  0  0  0  0  0  0
  143.2873  143.9595  156.4736 H   0  0  0  0  0  0  0  0  0  0  0  0
  144.7217  144.6386  155.7249 H   0  0  0  0  0  0  0  0  0  0  0  0
  144.8341  143.8368  157.2920 H   0  0  0  0  0  0  0  0  0  0  0  0
  144.1435  141.6741  156.2270 H   0  0  0  0  0  0  0  0  0  0  0  0
  144.0155  142.4292  154.6861 H   0  0  0  0  0  0  0  0  0  0  0  0
  146.3944  144.1978  154.7353 H   0  0  0  0  0  0  0  0  0  0  0  0
  146.2781  143.0985  153.3736 H   0  0  0  0  0  0  0  0  0  0  0  0
  147.7452  143.1674  154.3426 H   0  0  0  0  0  0  0  0  0  0  0  0
  146.5030  142.8915  157.3361 H   0  0  0  0  0  0  0  0  0  0  0  0
  146.7676  141.1680  157.1897 H   0  0  0  0  0  0  0  0  0  0  0  0
  148.5688  143.2761  156.1041 H   0  0  0  0  0  0  0  0  0  0  0  0
  151.2537  141.1656  156.0077 H   0  0  0  0  0  0  0  0  0  0  0  0
  150.6837  142.7827  155.7565 H   0  0  0  0  0  0  0  0  0  0  0  0
  150.2293  144.1511  157.7597 H   0  0  0  0  0  0  0  0  0  0  0  0
  151.3151  145.0908  159.7849 H   0  0  0  0  0  0  0  0  0  0  0  0
  153.2047  143.7726  160.8426 H   0  0  0  0  0  0  0  0  0  0  0  0
  153.9097  141.6737  159.8808 H   0  0  0  0  0  0  0  0  0  0  0  0
  147.7350  141.2185  153.2650 H   0  0  0  0  0  0  0  0  0  0  0  0
  148.2796  140.3711  154.7010 H   0  0  0  0  0  0  0  0  0  0  0  0
  146.6337  139.2034  152.3863 H   0  0  0  0  0  0  0  0  0  0  0  0
  148.3195  138.8768  152.7366 H   0  0  0  0  0  0  0  0  0  0  0  0
  144.9526  138.3673  153.9109 H   0  0  0  0  0  0  0  0  0  0  0  0
  145.4778  137.4460  155.3075 H   0  0  0  0  0  0  0  0  0  0  0  0
  146.5100  139.4407  156.3241 H   0  0  0  0  0  0  0  0  0  0  0  0
  144.8160  139.7316  155.9778 H   0  0  0  0  0  0  0  0  0  0  0  0
  145.4938  140.7761  153.9324 H   0  0  0  0  0  0  0  0  0  0  0  0
  1  2  1  0  0  0  0
  1 23  1  0  0  0  0
  1 24  1  0  0  0  0
  1 25  1  0  0  0  0
  2  3  1  0  0  0  0
  2 26  1  0  0  0  0
  2 27  1  0  0  0  0
  3  4  1  0  0  0  0
  3  5  1  0  0  0  0
  3 17  1  0  0  0  0
  4 28  1  0  0  0  0
  4 29  1  0  0  0  0
  4 30  1  0  0  0  0
  5  6  1  0  0  0  0
  5 31  1  0  0  0  0
  5 32  1  0  0  0  0
  6  7  1  0  0  0  0
  6 33  1  0  0  0  0
  7  8  2  0  0  0  0
  7  9  1  0  0  0  0
  9 10  1  0  0  0  0
  9 34  1  0  0  0  0
  9 35  1  0  0  0  0
 10 15  1  0  0  0  0
 10 11  1  0  0  0  0
 11 12  2  0  0  0  0
 11 36  1  0  0  0  0
 12 13  1  0  0  0  0
 12 37  1  0  0  0  0
 13 14  2  0  0  0  0
 13 38  1  0  0  0  0
 14 15  1  0  0  0  0
 14 39  1  0  0  0  0
 15 16  2  0  0  0  0
 17 22  1  0  0  0  0
 17 18  1  0  0  0  0
 17 48  1  0  0  0  0
 18 19  1  0  0  0  0
 18 40  1  0  0  0  0
 18 41  1  0  0  0  0
 19 20  1  0  0  0  0
 19 42  1  0  0  0  0
 19 43  1  0  0  0  0
 20 21  1  0  0  0  0
 21 22  1  0  0  0  0
 21 44  1  0  0  0  0
 21 45  1  0  0  0  0
 22 46  1  0  0  0  0
 22 47  1  0  0  0  0
M  CHG  1  17   1
M  END
> <s_m_source_file>
AV-unprocessed.smi

> <i_m_source_file_index>
1304

> <i_lp_mmshare_version>
43012

> <i_f3d_flags>
0

> <s_epik_input>
W0NIMl0xW0NIMl1PW0NIMl1bQ0gyXU4xW0NAQF0oW0NIM10pKFtDSDJdW0NIM10pW0NIMl1bTkhdQyg9TylbQ0gyXW4yW2NIXVtjSF1bY0hdW2NIXWMyPU8=

> <s_epik_cmdline>
J2VwaWtfcHl0aG9uJywgJy1waCcsICc3LjAnLCAnLXRuJywgJzgnLCAnLW1hJywgJzIwMCcsICctbWV0YWxfYmluZGluZycsICctaW1hZScsICc8aW5maWxlLm1hZT4nLCAnLW9tYWUnLCAnPG91dGZpbGUubWFlPic=

> <r_lp_tautomer_probability>
1

> <r_epik_Ionization_Penalty>
0.519658

> <r_epik_Ionization_Penalty_Charging>
0.519658

> <r_epik_Ionization_Penalty_Neutral>
8.70177e-08

> <r_epik_State_Penalty>
0.527569

> <r_epik_Charging_Adjusted_Penalty>
1.04723

> <i_epik_Tot_Q>
1

> <i_epik_Tot_abs_Q>
1

> <r_epik_Metal_State_Penalty>
0.527613

> <b_epik_Metal_Only>
0

> <s_lp_Force_Field>
OPLS_2005

> <r_lp_Energy>
38.623

> <b_lp_Chiralities_Consistent>
1

> <s_lp_Variant>
AV-unprocessed.smi:1304-3

> <Gold.Version>
5.8.1

> <Gold.Id.Protein>
6NUR|6NUR_protein|mol2

> <Gold.PLP.Fitness>
49.5762

> <Gold.PLP.PLP>
-36.4705

> <Gold.PLP.part.hbond>
-3.0000

> <Gold.PLP.part.metal>
0.0000

> <Gold.PLP.part.buried>
-4.9552

> <Gold.PLP.part.nonpolar>
-29.1899

> <Gold.PLP.part.repulsive>
0.1992

> <Gold.PLP.ligand.clash>
0.0000

> <Gold.PLP.ligand.torsion>
1.0034

> <Gold.PLP.Chemscore.Hbond>
3.9833

> <Gold.PLP.Chemscore.CHOScore>
1.0000

> <Gold.PLP.Chemscore.Metal>
0.0000

> <Gold.Chemscore.Hbonds>
donor molecule, donor type, donor heavy atom, donor atom, acceptor molecule, acceptor atom, score
      L1  H     6    33       P1  8028  1.00
      L1  H    17    48       P1 10175  0.46
      P1  H  7997  8008       L1    16  0.77
      L1  C    11    36       P1  8028  1.00

> <Gold.PLP.Chemscore.Internal.Correction>
0.1625

> <Gold.Rescore>
     Score         DG    S(hbond)    S(metal)    S(lipo)     H(rot)  DE(clash)    DE(int)     intcor
     18.62     -19.53       2.87        0.00      82.66       2.03       0.00       0.91       ----

> <Gold.Chemscore.Fitness>
18.6241

> <Gold.Chemscore.DG>
-19.5334

> <Gold.Chemscore.ZeroCoef>
-5.4800

> <Gold.Chemscore.Hbond>
2.8679

> <Gold.Chemscore.Metal>
0.0000

> <Gold.Chemscore.Lipo>
82.6567

> <Gold.Chemscore.Internal_Hbond>
0.0000

> <Gold.Chemscore.DEClash>
0.0025

> <Gold.Chemscore.DEInternal>
0.9068

> <Gold.Chemscore.Rot>
2.0298

> <Gold.Chemscore.Internal.Correction>
   9.000000E+99

> <Gold.Chemscore.Hbonds>
donor molecule, donor type, donor heavy atom, donor atom, acceptor molecule, acceptor atom, score
      L1  H     6    33       P1  8028  0.88
      L1  H    17    48       P1 10175  0.24
      P1  H  7997  8008       L1    16  0.75

> <Gold.Chemscore.Hbond.Weighted>
-9.5788

> <Gold.Chemscore.Metal.Weighted>
-0.0000

> <Gold.Chemscore.Lipo.Weighted>
-9.6708

> <Gold.Chemscore.Internal_Hbond.Weighted>
0.0000

> <Gold.Chemscore.DEClash.Weighted>
0.0025

> <Gold.Chemscore.DEInternal.Weighted>
0.9068

> <Gold.Chemscore.Rot.Weighted>
5.1962

> <Gold.Chemscore.Internal.Correction.Weighted>
   9.000000E+99

> <Gold.Protein.RotatedTorsions>
[ 6907 6896 6895 6894 ] final   77.99 input  -60.11 | X-H torsion
[ 7974 7965 7964 7962 ] final   58.46 input  175.53 | X-H torsion
[ 8008 7997 7996 7995 ] final  -73.29 input   59.86 | X-H torsion
[ 10167 10162 10161 10158 ] final  -14.79 input  -65.29 | X-H torsion
[ 10718 10713 10712 10709 ] final  -45.90 input   66.30 | X-H torsion
[ 10763 10752 10751 10750 ] final -158.47 input  -60.55 | X-H torsion
[ 11005 11000 10999 10996 ] final   13.46 input  -57.11 | X-H torsion

> <Gold.Protein.ActiveResidues>
 VAL166  LYS551  ARG553  GLY616  TRP617  ASP618  TYR619  PRO620  LYS621  CYS622 
 ASP623  PHE694  ASN695  SER759  ASP760  ASP761  ALA762  ILE779  LEU786  VAL792 
 PHE793  MET794  SER795  GLU796  ALA797  LYS798  CYS799  TRP800  GLU811  SER814 

> <Gold.Protein.RotatedAtoms>
  152.5141  134.3732  159.9325 H   0  0  0  0  0  0  0  0  0  0  0  0  # atno 6907 bound_to 6896
  151.3687  133.3856  159.2705 H   0  0  0  0  0  0  0  0  0  0  0  0  # atno 6908 bound_to 6896
  150.9594  134.9004  159.7780 H   0  0  0  0  0  0  0  0  0  0  0  0  # atno 6909 bound_to 6896
  145.9179  139.3706  143.0496 H   0  0  0  0  0  0  0  0  0  0  0  0  # atno 7974 bound_to 7965
  154.5235  140.0782  156.8216 H   0  0  0  0  0  0  0  0  0  0  0  0  # atno 8008 bound_to 7997
  155.3525  140.3413  155.4221 H   0  0  0  0  0  0  0  0  0  0  0  0  # atno 8009 bound_to 7997
  156.1707  140.1618  156.8440 H   0  0  0  0  0  0  0  0  0  0  0  0  # atno 8010 bound_to 7997
  140.7207  143.5285  150.9548 H   0  0  0  0  0  0  0  0  0  0  0  0  # atno 10167 bound_to 10162
  156.2237  130.4168  149.8961 H   0  0  0  0  0  0  0  0  0  0  0  0  # atno 10718 bound_to 10713
  154.7554  135.3103  154.8480 H   0  0  0  0  0  0  0  0  0  0  0  0  # atno 10763 bound_to 10752
  153.9256  135.6791  153.4751 H   0  0  0  0  0  0  0  0  0  0  0  0  # atno 10764 bound_to 10752
  153.1151  135.4848  154.9031 H   0  0  0  0  0  0  0  0  0  0  0  0  # atno 10765 bound_to 10752
  140.4805  134.0940  155.7750 H   0  0  0  0  0  0  0  0  0  0  0  0  # atno 11005 bound_to 11000
  145.8588  140.9487  143.0711 LP  0  0  0  0  0  0  0  0  0  0  0  0  # atno 17320 bound_to 7965
  144.6750  140.0503  143.7479 LP  0  0  0  0  0  0  0  0  0  0  0  0  # atno 17321 bound_to 7965
  139.9005  143.6842  152.3132 LP  0  0  0  0  0  0  0  0  0  0  0  0  # atno 17342 bound_to 10162
  139.7190  144.7606  151.0987 LP  0  0  0  0  0  0  0  0  0  0  0  0  # atno 17343 bound_to 10162
  156.6599  130.8778  151.3545 LP  0  0  0  0  0  0  0  0  0  0  0  0  # atno 17370 bound_to 10713
  157.7100  130.9429  150.1057 LP  0  0  0  0  0  0  0  0  0  0  0  0  # atno 17371 bound_to 10713
  141.1533  133.8928  157.2041 LP  0  0  0  0  0  0  0  0  0  0  0  0  # atno 17394 bound_to 11000
  139.9829  135.0092  156.9794 LP  0  0  0  0  0  0  0  0  0  0  0  0  # atno 17395 bound_to 11000

$$$$
