AV-unprocessed.smi:3272|AV-procd|sdf|12518|dock5
  -GOLD-   2272018433D 1   1.00000     0.00000
 Structure written by MMmdl.
 35 36  0  0  0  0  0  0  0  0  1 V2000
  145.6892  128.7946  152.0140 C   0  0  0  0  0  0  0  0  0  0  0  0
  146.8131  129.2725  152.9412 C   0  0  0  0  0  0  0  0  0  0  0  0
  147.0345  130.7004  152.8240 N   0  0  0  0  0  0  0  0  0  0  0  0
  148.0100  131.4657  153.4318 C   0  0  0  0  0  0  0  0  0  0  0  0
  147.8013  132.7435  152.9956 C   0  0  0  0  0  0  0  0  0  0  0  0
  148.5205  133.9270  153.2993 N   0  0  0  0  0  0  0  0  0  0  0  0
  149.2572  134.1755  154.3943 C   0  0  0  0  0  0  0  0  0  0  0  0
  149.4026  133.4009  155.3400 O   0  0  0  0  0  0  0  0  0  0  0  0
  149.8167  135.3925  154.3363 N   0  0  0  0  0  0  0  0  0  0  0  0
  150.6629  135.9875  155.3658 C   0  0  0  0  0  0  0  0  0  0  0  0
  151.3146  137.2953  154.8802 C   0  0  2  0  0  0  0  0  0  0  0  0
  152.1501  137.9919  155.9343 C   0  0  0  0  0  0  0  0  0  0  0  0
  152.2657  139.4038  155.3670 C   0  0  0  0  0  0  0  0  0  0  0  0
  151.0743  139.6235  154.6169 O   0  0  0  0  0  0  0  0  0  0  0  0
  150.3368  138.4101  154.5043 C   0  0  0  0  0  0  0  0  0  0  0  0
  146.6821  132.6780  152.1257 C   0  0  0  0  0  0  0  0  0  0  0  0
  146.2225  131.4398  152.0286 N   0  0  0  0  0  0  0  0  0  0  0  0
  145.5440  127.7180  152.1039 H   0  0  0  0  0  0  0  0  0  0  0  0
  145.9201  129.0142  150.9712 H   0  0  0  0  0  0  0  0  0  0  0  0
  144.7431  129.2788  152.2578 H   0  0  0  0  0  0  0  0  0  0  0  0
  146.5760  129.0369  153.9796 H   0  0  0  0  0  0  0  0  0  0  0  0
  147.7430  128.7549  152.7030 H   0  0  0  0  0  0  0  0  0  0  0  0
  148.7449  131.0366  154.0969 H   0  0  0  0  0  0  0  0  0  0  0  0
  148.4692  134.6615  152.6087 H   0  0  0  0  0  0  0  0  0  0  0  0
  149.6388  135.9558  153.5177 H   0  0  0  0  0  0  0  0  0  0  0  0
  150.1020  136.1553  156.2871 H   0  0  0  0  0  0  0  0  0  0  0  0
  151.4402  135.2639  155.6122 H   0  0  0  0  0  0  0  0  0  0  0  0
  151.9528  137.0848  154.0201 H   0  0  0  0  0  0  0  0  0  0  0  0
  151.6191  138.0152  156.8873 H   0  0  0  0  0  0  0  0  0  0  0  0
  153.1194  137.5194  156.0955 H   0  0  0  0  0  0  0  0  0  0  0  0
  152.3899  140.1556  156.1469 H   0  0  0  0  0  0  0  0  0  0  0  0
  153.1183  139.4739  154.6904 H   0  0  0  0  0  0  0  0  0  0  0  0
  149.9259  138.2873  153.5019 H   0  0  0  0  0  0  0  0  0  0  0  0
  149.5044  138.4478  155.2083 H   0  0  0  0  0  0  0  0  0  0  0  0
  146.1981  133.4696  151.5728 H   0  0  0  0  0  0  0  0  0  0  0  0
  1  2  1  0  0  0  0
  1 18  1  0  0  0  0
  1 19  1  0  0  0  0
  1 20  1  0  0  0  0
  2  3  1  0  0  0  0
  2 21  1  0  0  0  0
  2 22  1  0  0  0  0
  3 17  1  0  0  0  0
  3  4  1  0  0  0  0
  4  5  2  0  0  0  0
  4 23  1  0  0  0  0
  5  6  1  0  0  0  0
  5 16  1  0  0  0  0
  6  7  1  0  0  0  0
  6 24  1  0  0  0  0
  7  8  2  0  0  0  0
  7  9  1  0  0  0  0
  9 10  1  0  0  0  0
  9 25  1  0  0  0  0
 10 11  1  0  0  0  0
 10 26  1  0  0  0  0
 10 27  1  0  0  0  0
 11 15  1  0  0  0  0
 11 12  1  0  0  0  0
 11 28  1  0  0  0  0
 12 13  1  0  0  0  0
 12 29  1  0  0  0  0
 12 30  1  0  0  0  0
 13 14  1  0  0  0  0
 13 31  1  0  0  0  0
 13 32  1  0  0  0  0
 14 15  1  0  0  0  0
 15 33  1  0  0  0  0
 15 34  1  0  0  0  0
 16 17  2  0  0  0  0
 16 35  1  0  0  0  0
M  END
> <s_m_source_file>
AV-unprocessed.smi

> <i_m_source_file_index>
3272

> <i_lp_mmshare_version>
43012

> <i_f3d_flags>
0

> <s_epik_input>
W0NIM11bQ0gyXW4xW2NIXWMoW2NIXW4xKVtOSF1DKD1PKVtOSF1bQ0gyXVtDQEBIXTJbQ0gyXVtDSDJdT1tDSDJdMg==

> <s_epik_cmdline>
J2VwaWtfcHl0aG9uJywgJy1waCcsICc3LjAnLCAnLXRuJywgJzgnLCAnLW1hJywgJzIwMCcsICctbWV0YWxfYmluZGluZycsICctaW1hZScsICc8aW5maWxlLm1hZT4nLCAnLW9tYWUnLCAnPG91dGZpbGUubWFlPic=

> <r_lp_tautomer_probability>
1

> <r_epik_Ionization_Penalty>
0.000182896

> <r_epik_Ionization_Penalty_Charging>
0

> <r_epik_Ionization_Penalty_Neutral>
0.000182896

> <r_epik_State_Penalty>
-0

> <r_epik_Charging_Adjusted_Penalty>
0

> <i_epik_Tot_Q>
0

> <i_epik_Tot_abs_Q>
0

> <r_epik_Metal_State_Penalty>
-0

> <b_epik_Metal_Only>
0

> <s_lp_Force_Field>
OPLS_2005

> <r_lp_Energy>
22.7112

> <b_lp_Chiralities_Consistent>
1

> <s_lp_Variant>
AV-unprocessed.smi:3272-1

> <Gold.Version>
5.8.1

> <Gold.Id.Protein>
6NUR|6NUR_protein|mol2

> <Gold.PLP.Fitness>
40.1043

> <Gold.PLP.PLP>
-31.4784

> <Gold.PLP.part.hbond>
-3.3037

> <Gold.PLP.part.metal>
0.0000

> <Gold.PLP.part.buried>
-3.3814

> <Gold.PLP.part.nonpolar>
-25.3942

> <Gold.PLP.part.repulsive>
0.3099

> <Gold.PLP.ligand.clash>
0.0000

> <Gold.PLP.ligand.torsion>
0.1911

> <Gold.PLP.Chemscore.Hbond>
3.0000

> <Gold.PLP.Chemscore.CHOScore>
0.0000

> <Gold.PLP.Chemscore.Metal>
0.0000

> <Gold.Chemscore.Hbonds>
donor molecule, donor type, donor heavy atom, donor atom, acceptor molecule, acceptor atom, score
      L1  H     6    24       P1  7948  0.90
      L1  H     9    25       P1  7948  0.95
      P1  H  7989  7998       L1    14  1.00

> <Gold.PLP.Chemscore.Internal.Correction>
0.0081

> <Gold.Rescore>
     Score         DG    S(hbond)    S(metal)    S(lipo)     H(rot)  DE(clash)    DE(int)     intcor
     17.67     -18.12       2.55        0.00      66.11       1.41       0.01       0.43       ----

> <Gold.Chemscore.Fitness>
17.6682

> <Gold.Chemscore.DG>
-18.1159

> <Gold.Chemscore.ZeroCoef>
-5.4800

> <Gold.Chemscore.Hbond>
2.5455

> <Gold.Chemscore.Metal>
0.0000

> <Gold.Chemscore.Lipo>
66.1052

> <Gold.Chemscore.Internal_Hbond>
0.0000

> <Gold.Chemscore.DEClash>
0.0149

> <Gold.Chemscore.DEInternal>
0.4328

> <Gold.Chemscore.Rot>
1.4064

> <Gold.Chemscore.Internal.Correction>
   9.000000E+99

> <Gold.Chemscore.Hbonds>
donor molecule, donor type, donor heavy atom, donor atom, acceptor molecule, acceptor atom, score
      L1  H     6    24       P1  7948  0.18
      L1  H     9    25       P1  7948  0.21
      P1  H  7989  7998       L1    14  0.26

> <Gold.Chemscore.Hbond.Weighted>
-8.5020

> <Gold.Chemscore.Metal.Weighted>
-0.0000

> <Gold.Chemscore.Lipo.Weighted>
-7.7343

> <Gold.Chemscore.Internal_Hbond.Weighted>
0.0000

> <Gold.Chemscore.DEClash.Weighted>
0.0149

> <Gold.Chemscore.DEInternal.Weighted>
0.4328

> <Gold.Chemscore.Rot.Weighted>
3.6004

> <Gold.Chemscore.Internal.Correction.Weighted>
   9.000000E+99

> <Gold.Protein.RotatedTorsions>
[ 6907 6896 6895 6894 ] final    7.13 input  -60.11 | X-H torsion
[ 7974 7965 7964 7962 ] final  147.78 input  175.53 | X-H torsion
[ 8008 7997 7996 7995 ] final -106.14 input   59.86 | X-H torsion
[ 10167 10162 10161 10158 ] final -169.77 input  -65.29 | X-H torsion
[ 10718 10713 10712 10709 ] final  125.60 input   66.30 | X-H torsion
[ 10763 10752 10751 10750 ] final  -50.48 input  -60.55 | X-H torsion
[ 11005 11000 10999 10996 ] final -116.74 input  -57.11 | X-H torsion

> <Gold.Protein.ActiveResidues>
 VAL166  LYS551  ARG553  GLY616  TRP617  ASP618  TYR619  PRO620  LYS621  CYS622 
 ASP623  PHE694  ASN695  SER759  ASP760  ASP761  ALA762  ILE779  LEU786  VAL792 
 PHE793  MET794  SER795  GLU796  ALA797  LYS798  CYS799  TRP800  GLU811  SER814 

> <Gold.Protein.RotatedAtoms>
  151.6849  135.0956  160.0222 H   0  0  0  0  0  0  0  0  0  0  0  0  # atno 6907 bound_to 6896
  152.3813  133.6546  159.6172 H   0  0  0  0  0  0  0  0  0  0  0  0  # atno 6908 bound_to 6896
  150.7749  133.9025  159.3387 H   0  0  0  0  0  0  0  0  0  0  0  0  # atno 6909 bound_to 6896
  144.8564  139.6072  143.5950 H   0  0  0  0  0  0  0  0  0  0  0  0  # atno 7974 bound_to 7965
  154.9101  140.0410  157.1941 H   0  0  0  0  0  0  0  0  0  0  0  0  # atno 8008 bound_to 7997
  154.8357  140.2906  155.5671 H   0  0  0  0  0  0  0  0  0  0  0  0  # atno 8009 bound_to 7997
  156.2989  140.2492  156.3290 H   0  0  0  0  0  0  0  0  0  0  0  0  # atno 8010 bound_to 7997
  139.5902  144.1230  152.1625 H   0  0  0  0  0  0  0  0  0  0  0  0  # atno 10167 bound_to 10162
  157.5489  131.1094  150.8735 H   0  0  0  0  0  0  0  0  0  0  0  0  # atno 10718 bound_to 10713
  154.1110  135.6549  153.4885 H   0  0  0  0  0  0  0  0  0  0  0  0  # atno 10763 bound_to 10752
  153.0256  135.5247  154.7192 H   0  0  0  0  0  0  0  0  0  0  0  0  # atno 10764 bound_to 10752
  154.6372  135.2983  155.0116 H   0  0  0  0  0  0  0  0  0  0  0  0  # atno 10765 bound_to 10752
  141.0402  133.9847  157.3007 H   0  0  0  0  0  0  0  0  0  0  0  0  # atno 11005 bound_to 11000
  146.2827  139.6919  142.9218 LP  0  0  0  0  0  0  0  0  0  0  0  0  # atno 17320 bound_to 7965
  145.4397  141.0421  143.2864 LP  0  0  0  0  0  0  0  0  0  0  0  0  # atno 17321 bound_to 7965
  140.0802  144.5707  150.7128 LP  0  0  0  0  0  0  0  0  0  0  0  0  # atno 17342 bound_to 10162
  140.7166  143.2550  151.4413 LP  0  0  0  0  0  0  0  0  0  0  0  0  # atno 17343 bound_to 10162
  156.9266  130.5334  149.5279 LP  0  0  0  0  0  0  0  0  0  0  0  0  # atno 17370 bound_to 10713
  156.0559  130.5621  150.9091 LP  0  0  0  0  0  0  0  0  0  0  0  0  # atno 17371 bound_to 10713
  139.9270  135.0201  156.8269 LP  0  0  0  0  0  0  0  0  0  0  0  0  # atno 17394 bound_to 11000
  140.6248  133.9960  155.7635 LP  0  0  0  0  0  0  0  0  0  0  0  0  # atno 17395 bound_to 11000

$$$$
