AV-unprocessed.smi:1379|AV-procd|sdf|5598|dock6
  -GOLD-   22720 5203D 1   1.00000     0.00000
 Structure written by MMmdl.
 34 35  0  0  0  0  0  0  0  0  1 V2000
  154.3808  133.0311  160.1672 C   0  0  0  0  0  0  0  0  0  0  0  0
  153.9077  134.2971  159.7436 O   0  0  0  0  0  0  0  0  0  0  0  0
  154.3833  135.3564  160.5604 C   0  0  0  0  0  0  0  0  0  0  0  0
  153.7281  136.6722  160.1349 C   0  0  0  0  0  0  0  0  0  0  0  0
  152.7850  136.6664  159.3435 O   0  0  0  0  0  0  0  0  0  0  0  0
  154.2728  137.7808  160.6686 N   0  0  0  0  0  0  0  0  0  0  0  0
  153.8997  139.1386  160.4733 C   0  0  0  0  0  0  0  0  0  0  0  0
  152.8083  139.5615  159.6776 C   0  0  0  0  0  0  0  0  0  0  0  0
  152.5323  140.9384  159.5772 C   0  0  0  0  0  0  0  0  0  0  0  0
  153.3448  141.8508  160.2809 C   0  0  0  0  0  0  0  0  0  0  0  0
  153.0682  143.2222  160.1737 N   0  0  0  0  0  0  0  0  0  0  0  0
  152.9968  143.7489  158.8206 C   0  0  0  0  0  0  0  0  0  0  0  0
  152.3258  145.1182  158.9535 C   0  0  0  0  0  0  0  0  0  0  0  0
  151.5500  145.0482  160.2746 C   0  0  0  0  0  0  0  0  0  0  0  0
  151.8466  143.6532  160.8325 C   0  0  0  0  0  0  0  0  0  0  0  0
  154.3825  141.4520  161.0546 N   0  0  0  0  0  0  0  0  0  0  0  0
  154.6428  140.1307  161.1459 C   0  0  0  0  0  0  0  0  0  0  0  0
  153.9935  132.2555  159.5067 H   0  0  0  0  0  0  0  0  0  0  0  0
  154.0492  132.8060  161.1816 H   0  0  0  0  0  0  0  0  0  0  0  0
  155.4702  132.9864  160.1365 H   0  0  0  0  0  0  0  0  0  0  0  0
  154.1500  135.1601  161.6083 H   0  0  0  0  0  0  0  0  0  0  0  0
  155.4666  135.4486  160.4668 H   0  0  0  0  0  0  0  0  0  0  0  0
  155.0922  137.6363  161.2410 H   0  0  0  0  0  0  0  0  0  0  0  0
  152.1721  138.8643  159.1556 H   0  0  0  0  0  0  0  0  0  0  0  0
  151.7063  141.2854  158.9736 H   0  0  0  0  0  0  0  0  0  0  0  0
  153.9898  143.8295  158.3773 H   0  0  0  0  0  0  0  0  0  0  0  0
  152.3952  143.0984  158.1843 H   0  0  0  0  0  0  0  0  0  0  0  0
  153.0793  145.9049  159.0086 H   0  0  0  0  0  0  0  0  0  0  0  0
  151.6801  145.3346  158.1019 H   0  0  0  0  0  0  0  0  0  0  0  0
  151.9115  145.8167  160.9589 H   0  0  0  0  0  0  0  0  0  0  0  0
  150.4797  145.2031  160.1356 H   0  0  0  0  0  0  0  0  0  0  0  0
  151.0265  142.9727  160.5981 H   0  0  0  0  0  0  0  0  0  0  0  0
  151.9693  143.6711  161.9157 H   0  0  0  0  0  0  0  0  0  0  0  0
  155.4778  139.8578  161.7747 H   0  0  0  0  0  0  0  0  0  0  0  0
  1  2  1  0  0  0  0
  1 18  1  0  0  0  0
  1 19  1  0  0  0  0
  1 20  1  0  0  0  0
  2  3  1  0  0  0  0
  3  4  1  0  0  0  0
  3 21  1  0  0  0  0
  3 22  1  0  0  0  0
  4  5  2  0  0  0  0
  4  6  1  0  0  0  0
  6  7  1  0  0  0  0
  6 23  1  0  0  0  0
  7 17  1  0  0  0  0
  7  8  2  0  0  0  0
  8  9  1  0  0  0  0
  8 24  1  0  0  0  0
  9 10  2  0  0  0  0
  9 25  1  0  0  0  0
 10 11  1  0  0  0  0
 10 16  1  0  0  0  0
 11 15  1  0  0  0  0
 11 12  1  0  0  0  0
 12 13  1  0  0  0  0
 12 26  1  0  0  0  0
 12 27  1  0  0  0  0
 13 14  1  0  0  0  0
 13 28  1  0  0  0  0
 13 29  1  0  0  0  0
 14 15  1  0  0  0  0
 14 30  1  0  0  0  0
 14 31  1  0  0  0  0
 15 32  1  0  0  0  0
 15 33  1  0  0  0  0
 16 17  2  0  0  0  0
 17 34  1  0  0  0  0
M  END
> <s_m_source_file>
AV-unprocessed.smi

> <i_m_source_file_index>
1379

> <i_lp_mmshare_version>
43012

> <i_f3d_flags>
0

> <s_epik_input>
W0NIM11PW0NIMl1DKD1PKVtOSF1jMVtjSF1bY0hdYyhuW2NIXTEpTjJbQ0gyXVtDSDJdW0NIMl1bQ0gyXTI=

> <s_epik_cmdline>
J2VwaWtfcHl0aG9uJywgJy1waCcsICc3LjAnLCAnLXRuJywgJzgnLCAnLW1hJywgJzIwMCcsICctbWV0YWxfYmluZGluZycsICctaW1hZScsICc8aW5maWxlLm1hZT4nLCAnLW9tYWUnLCAnPG91dGZpbGUubWFlPic=

> <r_lp_tautomer_probability>
1

> <r_epik_Ionization_Penalty>
0.0264378

> <r_epik_Ionization_Penalty_Charging>
0

> <r_epik_Ionization_Penalty_Neutral>
0.0264378

> <r_epik_State_Penalty>
0.0211097

> <r_epik_Charging_Adjusted_Penalty>
0.0211097

> <i_epik_Tot_Q>
0

> <i_epik_Tot_abs_Q>
0

> <r_epik_Metal_State_Penalty>
0.0201313

> <b_epik_Metal_Only>
0

> <s_lp_Force_Field>
OPLS_2005

> <r_lp_Energy>
37.8316

> <b_lp_Chiralities_Consistent>
1

> <s_lp_Variant>
AV-unprocessed.smi:1379-1

> <Gold.Version>
5.8.1

> <Gold.Id.Protein>
6NUR|6NUR_protein|mol2

> <Gold.PLP.Fitness>
37.8459

> <Gold.PLP.PLP>
-35.3279

> <Gold.PLP.part.hbond>
-3.0000

> <Gold.PLP.part.metal>
0.0000

> <Gold.PLP.part.buried>
-4.0438

> <Gold.PLP.part.nonpolar>
-28.7595

> <Gold.PLP.part.repulsive>
0.0037

> <Gold.PLP.ligand.clash>
0.0000

> <Gold.PLP.ligand.torsion>
0.2549

> <Gold.PLP.Chemscore.Hbond>
1.0031

> <Gold.PLP.Chemscore.CHOScore>
0.0000

> <Gold.PLP.Chemscore.Metal>
0.0000

> <Gold.Chemscore.Hbonds>
donor molecule, donor type, donor heavy atom, donor atom, acceptor molecule, acceptor atom, score
      P1  H  6896  6907       L1     5  0.70

> <Gold.PLP.Chemscore.Internal.Correction>
0.0185

> <Gold.Rescore>
     Score         DG    S(hbond)    S(metal)    S(lipo)     H(rot)  DE(clash)    DE(int)     intcor
     13.58     -14.85       0.99        0.00      82.77       1.42       0.01       1.27       ----

> <Gold.Chemscore.Fitness>
13.5770

> <Gold.Chemscore.DG>
-14.8540

> <Gold.Chemscore.ZeroCoef>
-5.4800

> <Gold.Chemscore.Hbond>
0.9919

> <Gold.Chemscore.Metal>
0.0000

> <Gold.Chemscore.Lipo>
82.7716

> <Gold.Chemscore.Internal_Hbond>
0.0000

> <Gold.Chemscore.DEClash>
0.0073

> <Gold.Chemscore.DEInternal>
1.2697

> <Gold.Chemscore.Rot>
1.4153

> <Gold.Chemscore.Internal.Correction>
   9.000000E+99

> <Gold.Chemscore.Hbonds>
donor molecule, donor type, donor heavy atom, donor atom, acceptor molecule, acceptor atom, score
      P1  H  6896  6907       L1     5  0.07

> <Gold.Chemscore.Hbond.Weighted>
-3.3129

> <Gold.Chemscore.Metal.Weighted>
-0.0000

> <Gold.Chemscore.Lipo.Weighted>
-9.6843

> <Gold.Chemscore.Internal_Hbond.Weighted>
0.0000

> <Gold.Chemscore.DEClash.Weighted>
0.0073

> <Gold.Chemscore.DEInternal.Weighted>
1.2697

> <Gold.Chemscore.Rot.Weighted>
3.6231

> <Gold.Chemscore.Internal.Correction.Weighted>
   9.000000E+99

> <Gold.Protein.RotatedTorsions>
[ 6907 6896 6895 6894 ] final   28.83 input  -60.11 | X-H torsion
[ 7974 7965 7964 7962 ] final   51.77 input  175.53 | X-H torsion
[ 8008 7997 7996 7995 ] final   57.96 input   59.86 | X-H torsion
[ 10167 10162 10161 10158 ] final -149.63 input  -65.29 | X-H torsion
[ 10718 10713 10712 10709 ] final   18.41 input   66.30 | X-H torsion
[ 10763 10752 10751 10750 ] final   92.20 input  -60.55 | X-H torsion
[ 11005 11000 10999 10996 ] final    4.60 input  -57.11 | X-H torsion

> <Gold.Protein.ActiveResidues>
 VAL166  LYS551  ARG553  GLY616  TRP617  ASP618  TYR619  PRO620  LYS621  CYS622 
 ASP623  PHE694  ASN695  SER759  ASP760  ASP761  ALA762  ILE779  LEU786  VAL792 
 PHE793  MET794  SER795  GLU796  ALA797  LYS798  CYS799  TRP800  GLU811  SER814 

> <Gold.Protein.RotatedAtoms>
  152.0226  134.9814  160.0570 H   0  0  0  0  0  0  0  0  0  0  0  0  # atno 6907 bound_to 6896
  152.1322  133.4410  159.4734 H   0  0  0  0  0  0  0  0  0  0  0  0  # atno 6908 bound_to 6896
  150.6857  134.2325  159.4483 H   0  0  0  0  0  0  0  0  0  0  0  0  # atno 6909 bound_to 6896
  145.9880  139.4310  143.0091 H   0  0  0  0  0  0  0  0  0  0  0  0  # atno 7974 bound_to 7965
  155.5423  140.3484  155.4449 H   0  0  0  0  0  0  0  0  0  0  0  0  # atno 8008 bound_to 7997
  156.0642  140.1347  156.9931 H   0  0  0  0  0  0  0  0  0  0  0  0  # atno 8009 bound_to 7997
  154.4495  140.0979  156.6547 H   0  0  0  0  0  0  0  0  0  0  0  0  # atno 8010 bound_to 7997
  139.7425  143.8640  152.2566 H   0  0  0  0  0  0  0  0  0  0  0  0  # atno 10167 bound_to 10162
  157.0959  130.6447  149.5860 H   0  0  0  0  0  0  0  0  0  0  0  0  # atno 10718 bound_to 10713
  153.2166  135.4370  155.0441 H   0  0  0  0  0  0  0  0  0  0  0  0  # atno 10763 bound_to 10752
  154.8228  135.3346  154.6990 H   0  0  0  0  0  0  0  0  0  0  0  0  # atno 10764 bound_to 10752
  153.7424  135.7004  153.5020 H   0  0  0  0  0  0  0  0  0  0  0  0  # atno 10765 bound_to 10752
  140.5801  134.0021  155.8044 H   0  0  0  0  0  0  0  0  0  0  0  0  # atno 11005 bound_to 11000
  145.7672  140.9911  143.1169 LP  0  0  0  0  0  0  0  0  0  0  0  0  # atno 17320 bound_to 7965
  144.6880  139.9402  143.7475 LP  0  0  0  0  0  0  0  0  0  0  0  0  # atno 17321 bound_to 7965
  139.8595  144.7124  150.9117 LP  0  0  0  0  0  0  0  0  0  0  0  0  # atno 17342 bound_to 10162
  140.7788  143.3830  151.1444 LP  0  0  0  0  0  0  0  0  0  0  0  0  # atno 17343 bound_to 10162
  155.9886  130.4930  150.7177 LP  0  0  0  0  0  0  0  0  0  0  0  0  # atno 17370 bound_to 10713
  157.4682  131.0890  151.0672 LP  0  0  0  0  0  0  0  0  0  0  0  0  # atno 17371 bound_to 10713
  141.1001  133.9781  157.3093 LP  0  0  0  0  0  0  0  0  0  0  0  0  # atno 17394 bound_to 11000
  139.9321  135.0199  156.8435 LP  0  0  0  0  0  0  0  0  0  0  0  0  # atno 17395 bound_to 11000

$$$$
