AV-unprocessed.smi:2923|AV-procd|sdf|11208|dock2
  -GOLD-   2272016103D 1   1.00000     0.00000
 Structure written by MMmdl.
 47 49  0  0  0  0  0  0  0  0  2 V2000
  151.7978  144.6697  157.7616 C   0  0  0  0  0  0  0  0  0  0  0  0
  151.9524  144.5006  159.2023 N   0  0  0  0  0  0  0  0  0  0  0  0
  151.5266  145.5518  160.1167 C   0  0  0  0  0  0  0  0  0  0  0  0
  152.5368  143.3207  159.7115 C   0  0  0  0  0  0  0  0  0  0  0  0
  152.7367  143.0882  161.0945 C   0  0  0  0  0  0  0  0  0  0  0  0
  153.3326  141.8850  161.5243 C   0  0  0  0  0  0  0  0  0  0  0  0
  153.7196  140.9139  160.5774 C   0  0  0  0  0  0  0  0  0  0  0  0
  154.3326  139.7267  161.0623 N   0  0  0  0  0  0  0  0  0  0  0  0
  154.9917  139.5299  162.2173 C   0  0  0  0  0  0  0  0  0  0  0  0
  155.2358  140.3961  163.0565 O   0  0  0  0  0  0  0  0  0  0  0  0
  155.3711  138.2518  162.3449 N   0  0  0  0  0  0  0  0  0  0  0  0
  156.0828  137.7135  163.4978 C   0  0  2  0  0  0  0  0  0  0  0  0
  156.4224  136.2320  163.3329 C   0  0  1  0  0  0  0  0  0  0  0  0
  157.6840  135.4573  163.1921 C   0  0  0  0  0  0  0  0  0  0  0  0
  157.3581  134.3359  164.2150 C   0  0  0  0  0  0  0  0  0  0  0  0
  156.1759  134.7778  164.9264 O   0  0  0  0  0  0  0  0  0  0  0  0
  156.2358  136.1864  164.8366 C   0  0  2  0  0  0  0  0  0  0  0  0
  155.1327  137.2503  164.6664 C   0  0  0  0  0  0  0  0  0  0  0  0
  154.9949  138.2347  165.8281 C   0  0  0  0  0  0  0  0  0  0  0  0
  153.7066  136.7597  164.3436 C   0  0  0  0  0  0  0  0  0  0  0  0
  153.5044  141.1949  159.2071 C   0  0  0  0  0  0  0  0  0  0  0  0
  152.9323  142.3616  158.8391 N   0  3  0  0  0  0  0  0  0  0  0  0
  152.7656  144.6151  157.2620 H   0  0  0  0  0  0  0  0  0  0  0  0
  151.3529  145.6352  157.5204 H   0  0  0  0  0  0  0  0  0  0  0  0
  151.1513  143.8929  157.3521 H   0  0  0  0  0  0  0  0  0  0  0  0
  152.3677  145.9071  160.7127 H   0  0  0  0  0  0  0  0  0  0  0  0
  150.7527  145.1822  160.7898 H   0  0  0  0  0  0  0  0  0  0  0  0
  151.1181  146.4061  159.5767 H   0  0  0  0  0  0  0  0  0  0  0  0
  152.4443  143.8156  161.8369 H   0  0  0  0  0  0  0  0  0  0  0  0
  153.4880  141.7119  162.5795 H   0  0  0  0  0  0  0  0  0  0  0  0
  154.2775  138.9292  160.4459 H   0  0  0  0  0  0  0  0  0  0  0  0
  155.1387  137.6032  161.6070 H   0  0  0  0  0  0  0  0  0  0  0  0
  156.9363  138.3164  163.8220 H   0  0  0  0  0  0  0  0  0  0  0  0
  155.6264  135.7190  162.7876 H   0  0  0  0  0  0  0  0  0  0  0  0
  157.8367  135.0735  162.1831 H   0  0  0  0  0  0  0  0  0  0  0  0
  158.5570  136.0406  163.4883 H   0  0  0  0  0  0  0  0  0  0  0  0
  157.1527  133.3841  163.7244 H   0  0  0  0  0  0  0  0  0  0  0  0
  158.1874  134.1887  164.9078 H   0  0  0  0  0  0  0  0  0  0  0  0
  157.0929  136.5725  165.4005 H   0  0  0  0  0  0  0  0  0  0  0  0
  154.5733  137.7543  166.7117 H   0  0  0  0  0  0  0  0  0  0  0  0
  154.3497  139.0744  165.5687 H   0  0  0  0  0  0  0  0  0  0  0  0
  155.9601  138.6509  166.1171 H   0  0  0  0  0  0  0  0  0  0  0  0
  153.2785  136.2188  165.1881 H   0  0  0  0  0  0  0  0  0  0  0  0
  153.6553  136.0903  163.4867 H   0  0  0  0  0  0  0  0  0  0  0  0
  153.0405  137.5951  164.1249 H   0  0  0  0  0  0  0  0  0  0  0  0
  153.7745  140.5481  158.3863 H   0  0  0  0  0  0  0  0  0  0  0  0
  152.7934  142.5315  157.8428 H   0  0  0  0  0  0  0  0  0  0  0  0
  1  2  1  0  0  0  0
  1 23  1  0  0  0  0
  1 24  1  0  0  0  0
  1 25  1  0  0  0  0
  2  3  1  0  0  0  0
  2  4  1  0  0  0  0
  3 26  1  0  0  0  0
  3 27  1  0  0  0  0
  3 28  1  0  0  0  0
  4 22  1  0  0  0  0
  4  5  2  0  0  0  0
  5  6  1  0  0  0  0
  5 29  1  0  0  0  0
  6  7  2  0  0  0  0
  6 30  1  0  0  0  0
  7  8  1  0  0  0  0
  7 21  1  0  0  0  0
  8  9  1  0  0  0  0
  8 31  1  0  0  0  0
  9 10  2  0  0  0  0
  9 11  1  0  0  0  0
 11 12  1  0  0  0  0
 11 32  1  0  0  0  0
 12 18  1  0  0  0  0
 12 13  1  0  0  0  0
 12 33  1  0  0  0  0
 13 17  1  0  0  0  0
 13 14  1  0  0  0  0
 13 34  1  0  0  0  0
 14 15  1  0  0  0  0
 14 35  1  0  0  0  0
 14 36  1  0  0  0  0
 15 16  1  0  0  0  0
 15 37  1  0  0  0  0
 15 38  1  0  0  0  0
 16 17  1  0  0  0  0
 17 18  1  0  0  0  0
 17 39  1  0  0  0  0
 18 19  1  0  0  0  0
 18 20  1  0  0  0  0
 19 40  1  0  0  0  0
 19 41  1  0  0  0  0
 19 42  1  0  0  0  0
 20 43  1  0  0  0  0
 20 44  1  0  0  0  0
 20 45  1  0  0  0  0
 21 22  2  0  0  0  0
 21 46  1  0  0  0  0
 22 47  1  0  0  0  0
M  CHG  1  22   1
M  END
> <s_m_source_file>
AV-unprocessed.smi

> <i_m_source_file_index>
2923

> <i_lp_mmshare_version>
43012

> <i_f3d_flags>
0

> <s_epik_input>
W0NIM11OKFtDSDNdKWMxW2NIXVtjSF1jKFtjSF1uMSlbTkhdQyg9TylbTkhdW0NASF0yQyhbQ0gzXSkoW0NIM10pW0NAQEhdKFtDQEhdMjMpT1tDSDJdW0NIMl0z

> <s_epik_cmdline>
J2VwaWtfcHl0aG9uJywgJy1waCcsICc3LjAnLCAnLXRuJywgJzgnLCAnLW1hJywgJzIwMCcsICctbWV0YWxfYmluZGluZycsICctaW1hZScsICc8aW5maWxlLm1hZT4nLCAnLW9tYWUnLCAnPG91dGZpbGUubWFlPic=

> <r_lp_tautomer_probability>
0.999994

> <r_epik_Ionization_Penalty>
0.252205

> <r_epik_Ionization_Penalty_Charging>
0.252185

> <r_epik_Ionization_Penalty_Neutral>
1.99479e-05

> <r_epik_State_Penalty>
0.243573

> <r_epik_Charging_Adjusted_Penalty>
0.495758

> <i_epik_Tot_Q>
1

> <i_epik_Tot_abs_Q>
1

> <r_epik_Metal_State_Penalty>
0.534372

> <b_epik_Metal_Only>
0

> <s_lp_Force_Field>
OPLS_2005

> <r_lp_Energy>
68.0101

> <b_lp_Chiralities_Consistent>
1

> <s_lp_Variant>
AV-unprocessed.smi:2923-7

> <Gold.Version>
5.8.1

> <Gold.Id.Protein>
6NUR|6NUR_protein|mol2

> <Gold.PLP.Fitness>
43.6895

> <Gold.PLP.PLP>
-44.0387

> <Gold.PLP.part.hbond>
-1.0000

> <Gold.PLP.part.metal>
0.0000

> <Gold.PLP.part.buried>
-5.8432

> <Gold.PLP.part.nonpolar>
-36.8288

> <Gold.PLP.part.repulsive>
0.1598

> <Gold.PLP.ligand.clash>
0.0000

> <Gold.PLP.ligand.torsion>
0.3107

> <Gold.PLP.Chemscore.Hbond>
0.0000

> <Gold.PLP.Chemscore.CHOScore>
0.0000

> <Gold.PLP.Chemscore.Metal>
0.0000

> <Gold.PLP.Chemscore.Internal.Correction>
0.2720

> <Gold.Rescore>
     Score         DG    S(hbond)    S(metal)    S(lipo)     H(rot)  DE(clash)    DE(int)     intcor
     13.50     -15.25       0.00        0.00     105.39       1.00       0.11       1.64       ----

> <Gold.Chemscore.Fitness>
13.5004

> <Gold.Chemscore.DG>
-15.2512

> <Gold.Chemscore.ZeroCoef>
-5.4800

> <Gold.Chemscore.Hbond>
0.0000

> <Gold.Chemscore.Metal>
0.0000

> <Gold.Chemscore.Lipo>
105.3947

> <Gold.Chemscore.Internal_Hbond>
0.0000

> <Gold.Chemscore.DEClash>
0.1099

> <Gold.Chemscore.DEInternal>
1.6408

> <Gold.Chemscore.Rot>
1.0000

> <Gold.Chemscore.Internal.Correction>
   9.000000E+99

> <Gold.Chemscore.Hbond.Weighted>
-0.0000

> <Gold.Chemscore.Metal.Weighted>
-0.0000

> <Gold.Chemscore.Lipo.Weighted>
-12.3312

> <Gold.Chemscore.Internal_Hbond.Weighted>
0.0000

> <Gold.Chemscore.DEClash.Weighted>
0.1099

> <Gold.Chemscore.DEInternal.Weighted>
1.6408

> <Gold.Chemscore.Rot.Weighted>
2.5600

> <Gold.Chemscore.Internal.Correction.Weighted>
   9.000000E+99

> <Gold.Protein.RotatedTorsions>
[ 6907 6896 6895 6894 ] final   78.65 input  -60.11 | X-H torsion
[ 7974 7965 7964 7962 ] final   72.61 input  175.53 | X-H torsion
[ 8008 7997 7996 7995 ] final  -26.88 input   59.86 | X-H torsion
[ 10167 10162 10161 10158 ] final   30.56 input  -65.29 | X-H torsion
[ 10718 10713 10712 10709 ] final -131.49 input   66.30 | X-H torsion
[ 10763 10752 10751 10750 ] final -163.46 input  -60.55 | X-H torsion
[ 11005 11000 10999 10996 ] final   81.21 input  -57.11 | X-H torsion

> <Gold.Protein.ActiveResidues>
 VAL166  LYS551  ARG553  GLY616  TRP617  ASP618  TYR619  PRO620  LYS621  CYS622 
 ASP623  PHE694  ASN695  SER759  ASP760  ASP761  ALA762  ILE779  LEU786  VAL792 
 PHE793  MET794  SER795  GLU796  ALA797  LYS798  CYS799  TRP800  GLU811  SER814 

> <Gold.Protein.RotatedAtoms>
  152.5168  134.3631  159.9291 H   0  0  0  0  0  0  0  0  0  0  0  0  # atno 6907 bound_to 6896
  151.3584  133.3892  159.2695 H   0  0  0  0  0  0  0  0  0  0  0  0  # atno 6908 bound_to 6896
  150.9671  134.9069  159.7824 H   0  0  0  0  0  0  0  0  0  0  0  0  # atno 6909 bound_to 6896
  145.7512  139.2761  143.1430 H   0  0  0  0  0  0  0  0  0  0  0  0  # atno 7974 bound_to 7965
  154.4403  140.1887  156.0845 H   0  0  0  0  0  0  0  0  0  0  0  0  # atno 8008 bound_to 7997
  156.0413  140.3319  155.7221 H   0  0  0  0  0  0  0  0  0  0  0  0  # atno 8009 bound_to 7997
  155.5695  140.0611  157.2800 H   0  0  0  0  0  0  0  0  0  0  0  0  # atno 8010 bound_to 7997
  140.4666  144.0826  150.6226 H   0  0  0  0  0  0  0  0  0  0  0  0  # atno 10167 bound_to 10162
  156.2250  130.7002  151.0797 H   0  0  0  0  0  0  0  0  0  0  0  0  # atno 10718 bound_to 10713
  154.7120  135.3008  154.9182 H   0  0  0  0  0  0  0  0  0  0  0  0  # atno 10763 bound_to 10752
  154.0081  135.6698  153.4767 H   0  0  0  0  0  0  0  0  0  0  0  0  # atno 10764 bound_to 10752
  153.0763  135.5033  154.8324 H   0  0  0  0  0  0  0  0  0  0  0  0  # atno 10765 bound_to 10752
  139.9106  134.7979  156.2011 H   0  0  0  0  0  0  0  0  0  0  0  0  # atno 11005 bound_to 11000
  146.0354  140.8217  142.9855 LP  0  0  0  0  0  0  0  0  0  0  0  0  # atno 17320 bound_to 7965
  144.6849  140.2831  143.7289 LP  0  0  0  0  0  0  0  0  0  0  0  0  # atno 17321 bound_to 7965
  140.4028  143.2695  151.9927 LP  0  0  0  0  0  0  0  0  0  0  0  0  # atno 17342 bound_to 10162
  139.4813  144.5983  151.7651 LP  0  0  0  0  0  0  0  0  0  0  0  0  # atno 17343 bound_to 10162
  157.7106  131.0736  150.6515 LP  0  0  0  0  0  0  0  0  0  0  0  0  # atno 17370 bound_to 10713
  156.6579  130.4504  149.5697 LP  0  0  0  0  0  0  0  0  0  0  0  0  # atno 17371 bound_to 10713
  141.0524  133.6882  156.1797 LP  0  0  0  0  0  0  0  0  0  0  0  0  # atno 17394 bound_to 11000
  140.6789  134.4788  157.5588 LP  0  0  0  0  0  0  0  0  0  0  0  0  # atno 17395 bound_to 11000

$$$$
