AV-unprocessed.smi:1793|AV-procd|sdf|7229|dock6
  -GOLD-   22720 8473D 1   1.00000     0.00000
 Structure written by MMmdl.
 47 49  0  0  0  0  0  0  0  0  2 V2000
  155.3216  137.2717  160.2874 C   0  0  0  0  0  0  0  0  0  0  0  0
  154.9040  138.5579  161.0150 C   0  0  1  0  0  0  0  0  0  0  0  0
  153.8875  139.2445  160.2195 N   0  0  0  0  0  0  0  0  0  0  0  0
  153.6891  140.5695  160.1702 C   0  0  0  0  0  0  0  0  0  0  0  0
  154.3540  141.3880  160.8044 O   0  0  0  0  0  0  0  0  0  0  0  0
  152.6862  140.8766  159.3309 N   0  0  0  0  0  0  0  0  0  0  0  0
  152.2340  142.1709  158.9489 C   0  0  0  0  0  0  0  0  0  0  0  0
  152.5785  143.3185  159.7086 C   0  0  0  0  0  0  0  0  0  0  0  0
  152.0615  144.5784  159.3536 C   0  0  0  0  0  0  0  0  0  0  0  0
  151.1928  144.6711  158.2533 C   0  0  0  0  0  0  0  0  0  0  0  0
  150.8744  143.5599  157.5579 N   0  3  0  0  0  0  0  0  0  0  0  0
  151.3510  142.3212  157.8394 C   0  0  0  0  0  0  0  0  0  0  0  0
  150.9330  141.2535  157.0114 N   0  0  0  0  0  0  0  0  0  0  0  0
  149.8769  141.4525  156.0256 C   0  0  0  0  0  0  0  0  0  0  0  0
  149.9450  140.2278  155.1174 C   0  0  0  0  0  0  0  0  0  0  0  0
  151.4404  139.9287  155.0809 C   0  0  0  0  0  0  0  0  0  0  0  0
  151.9239  140.3225  156.4804 C   0  0  0  0  0  0  0  0  0  0  0  0
  154.3635  138.2697  162.4292 C   0  0  2  0  0  0  0  0  0  0  0  0
  155.4276  138.2101  163.5254 C   0  0  0  0  0  0  0  0  0  0  0  0
  154.7652  137.3745  164.6077 C   0  0  0  0  0  0  0  0  0  0  0  0
  153.6484  136.6291  163.8703 C   0  0  0  0  0  0  0  0  0  0  0  0
  153.8031  136.9679  162.4982 O   0  0  0  0  0  0  0  0  0  0  0  0
  156.1036  136.7460  160.8359 H   0  0  0  0  0  0  0  0  0  0  0  0
  155.7119  137.4921  159.2932 H   0  0  0  0  0  0  0  0  0  0  0  0
  154.4798  136.5881  160.1718 H   0  0  0  0  0  0  0  0  0  0  0  0
  155.7924  139.1844  161.1120 H   0  0  0  0  0  0  0  0  0  0  0  0
  153.2871  138.6562  159.6607 H   0  0  0  0  0  0  0  0  0  0  0  0
  152.2879  140.1055  158.8152 H   0  0  0  0  0  0  0  0  0  0  0  0
  153.2163  143.2486  160.5769 H   0  0  0  0  0  0  0  0  0  0  0  0
  152.3179  145.4578  159.9264 H   0  0  0  0  0  0  0  0  0  0  0  0
  150.7417  145.5917  157.9124 H   0  0  0  0  0  0  0  0  0  0  0  0
  148.9001  141.5505  156.5002 H   0  0  0  0  0  0  0  0  0  0  0  0
  150.0679  142.3529  155.4403 H   0  0  0  0  0  0  0  0  0  0  0  0
  149.4093  139.3938  155.5730 H   0  0  0  0  0  0  0  0  0  0  0  0
  149.5194  140.4063  154.1294 H   0  0  0  0  0  0  0  0  0  0  0  0
  151.6619  138.8904  154.8329 H   0  0  0  0  0  0  0  0  0  0  0  0
  151.9222  140.5619  154.3348 H   0  0  0  0  0  0  0  0  0  0  0  0
  152.9236  140.7574  156.4461 H   0  0  0  0  0  0  0  0  0  0  0  0
  151.9564  139.4428  157.1233 H   0  0  0  0  0  0  0  0  0  0  0  0
  153.5965  138.9979  162.7003 H   0  0  0  0  0  0  0  0  0  0  0  0
  156.3161  137.6945  163.1581 H   0  0  0  0  0  0  0  0  0  0  0  0
  155.7314  139.1963  163.8775 H   0  0  0  0  0  0  0  0  0  0  0  0
  155.4762  136.6924  165.0748 H   0  0  0  0  0  0  0  0  0  0  0  0
  154.3445  138.0084  165.3891 H   0  0  0  0  0  0  0  0  0  0  0  0
  153.7066  135.5493  164.0086 H   0  0  0  0  0  0  0  0  0  0  0  0
  152.6698  136.9638  164.2168 H   0  0  0  0  0  0  0  0  0  0  0  0
  150.2400  143.6600  156.7653 H   0  0  0  0  0  0  0  0  0  0  0  0
  1  2  1  0  0  0  0
  1 23  1  0  0  0  0
  1 24  1  0  0  0  0
  1 25  1  0  0  0  0
  2  3  1  0  0  0  0
  2 18  1  0  0  0  0
  2 26  1  0  0  0  0
  3  4  1  0  0  0  0
  3 27  1  0  0  0  0
  4  5  2  0  0  0  0
  4  6  1  0  0  0  0
  6  7  1  0  0  0  0
  6 28  1  0  0  0  0
  7 12  1  0  0  0  0
  7  8  2  0  0  0  0
  8  9  1  0  0  0  0
  8 29  1  0  0  0  0
  9 10  2  0  0  0  0
  9 30  1  0  0  0  0
 10 11  1  0  0  0  0
 10 31  1  0  0  0  0
 11 12  2  0  0  0  0
 11 47  1  0  0  0  0
 12 13  1  0  0  0  0
 13 17  1  0  0  0  0
 13 14  1  0  0  0  0
 14 15  1  0  0  0  0
 14 32  1  0  0  0  0
 14 33  1  0  0  0  0
 15 16  1  0  0  0  0
 15 34  1  0  0  0  0
 15 35  1  0  0  0  0
 16 17  1  0  0  0  0
 16 36  1  0  0  0  0
 16 37  1  0  0  0  0
 17 38  1  0  0  0  0
 17 39  1  0  0  0  0
 18 22  1  0  0  0  0
 18 19  1  0  0  0  0
 18 40  1  0  0  0  0
 19 20  1  0  0  0  0
 19 41  1  0  0  0  0
 19 42  1  0  0  0  0
 20 21  1  0  0  0  0
 20 43  1  0  0  0  0
 20 44  1  0  0  0  0
 21 22  1  0  0  0  0
 21 45  1  0  0  0  0
 21 46  1  0  0  0  0
M  CHG  1  11   1
M  END
> <s_m_source_file>
AV-unprocessed.smi

> <i_m_source_file_index>
1793

> <i_lp_mmshare_version>
43012

> <i_f3d_flags>
0

> <s_epik_input>
TzFbQ0gyXVtDSDJdW0NIMl1bQ0BIXTFbQ0BIXShbQ0gzXSlbTkhdQyg9TylbTkhdYzJbY0hdW2NIXVtjSF1uYzJOM1tDSDJdW0NIMl1bQ0gyXVtDSDJdMw==

> <s_epik_cmdline>
J2VwaWtfcHl0aG9uJywgJy1waCcsICc3LjAnLCAnLXRuJywgJzgnLCAnLW1hJywgJzIwMCcsICctbWV0YWxfYmluZGluZycsICctaW1hZScsICc8aW5maWxlLm1hZT4nLCAnLW9tYWUnLCAnPG91dGZpbGUubWFlPic=

> <r_lp_tautomer_probability>
0.999994

> <r_epik_Ionization_Penalty>
1.11092

> <r_epik_Ionization_Penalty_Charging>
1.1109

> <r_epik_Ionization_Penalty_Neutral>
1.9363e-05

> <r_epik_State_Penalty>
1.16888

> <r_epik_Charging_Adjusted_Penalty>
2.27978

> <i_epik_Tot_Q>
1

> <i_epik_Tot_abs_Q>
1

> <r_epik_Metal_State_Penalty>
1.25472

> <b_epik_Metal_Only>
0

> <s_lp_Force_Field>
OPLS_2005

> <r_lp_Energy>
51.9838

> <b_lp_Chiralities_Consistent>
1

> <s_lp_Variant>
AV-unprocessed.smi:1793-6

> <Gold.Version>
5.8.1

> <Gold.Id.Protein>
6NUR|6NUR_protein|mol2

> <Gold.PLP.Fitness>
46.8757

> <Gold.PLP.PLP>
-43.2504

> <Gold.PLP.part.hbond>
-1.3696

> <Gold.PLP.part.metal>
0.0000

> <Gold.PLP.part.buried>
-4.8077

> <Gold.PLP.part.nonpolar>
-38.0983

> <Gold.PLP.part.repulsive>
0.2089

> <Gold.PLP.ligand.clash>
0.0000

> <Gold.PLP.ligand.torsion>
1.4067

> <Gold.PLP.Chemscore.Hbond>
2.0000

> <Gold.PLP.Chemscore.CHOScore>
0.0000

> <Gold.PLP.Chemscore.Metal>
0.0000

> <Gold.Chemscore.Hbonds>
donor molecule, donor type, donor heavy atom, donor atom, acceptor molecule, acceptor atom, score
      L1  H    11    47       P1  8028  1.98

> <Gold.PLP.Chemscore.Internal.Correction>
0.4388

> <Gold.Rescore>
     Score         DG    S(hbond)    S(metal)    S(lipo)     H(rot)  DE(clash)    DE(int)     intcor
     14.69     -18.37       0.94        0.00     113.65       1.38       0.17       3.50       ----

> <Gold.Chemscore.Fitness>
14.6948

> <Gold.Chemscore.DG>
-18.3742

> <Gold.Chemscore.ZeroCoef>
-5.4800

> <Gold.Chemscore.Hbond>
0.9371

> <Gold.Chemscore.Metal>
0.0000

> <Gold.Chemscore.Lipo>
113.6540

> <Gold.Chemscore.Internal_Hbond>
0.0000

> <Gold.Chemscore.DEClash>
0.1748

> <Gold.Chemscore.DEInternal>
3.5046

> <Gold.Chemscore.Rot>
1.3802

> <Gold.Chemscore.Internal.Correction>
   9.000000E+99

> <Gold.Chemscore.Hbonds>
donor molecule, donor type, donor heavy atom, donor atom, acceptor molecule, acceptor atom, score
      L1  H    11    47       P1  8028  0.88

> <Gold.Chemscore.Hbond.Weighted>
-3.1299

> <Gold.Chemscore.Metal.Weighted>
-0.0000

> <Gold.Chemscore.Lipo.Weighted>
-13.2975

> <Gold.Chemscore.Internal_Hbond.Weighted>
0.0000

> <Gold.Chemscore.DEClash.Weighted>
0.1748

> <Gold.Chemscore.DEInternal.Weighted>
3.5046

> <Gold.Chemscore.Rot.Weighted>
3.5332

> <Gold.Chemscore.Internal.Correction.Weighted>
   9.000000E+99

> <Gold.Protein.RotatedTorsions>
[ 6907 6896 6895 6894 ] final  -90.53 input  -60.11 | X-H torsion
[ 7974 7965 7964 7962 ] final  179.88 input  175.53 | X-H torsion
[ 8008 7997 7996 7995 ] final -150.12 input   59.86 | X-H torsion
[ 10167 10162 10161 10158 ] final  170.06 input  -65.29 | X-H torsion
[ 10718 10713 10712 10709 ] final -125.56 input   66.30 | X-H torsion
[ 10763 10752 10751 10750 ] final -127.85 input  -60.55 | X-H torsion
[ 11005 11000 10999 10996 ] final -120.07 input  -57.11 | X-H torsion

> <Gold.Protein.ActiveResidues>
 VAL166  LYS551  ARG553  GLY616  TRP617  ASP618  TYR619  PRO620  LYS621  CYS622 
 ASP623  PHE694  ASN695  SER759  ASP760  ASP761  ALA762  ILE779  LEU786  VAL792 
 PHE793  MET794  SER795  GLU796  ALA797  LYS798  CYS799  TRP800  GLU811  SER814 

> <Gold.Protein.RotatedAtoms>
  150.6883  134.2418  159.4475 H   0  0  0  0  0  0  0  0  0  0  0  0  # atno 6907 bound_to 6896
  152.0361  134.9736  160.0582 H   0  0  0  0  0  0  0  0  0  0  0  0  # atno 6908 bound_to 6896
  152.1256  133.4343  159.4733 H   0  0  0  0  0  0  0  0  0  0  0  0  # atno 6909 bound_to 6896
  144.7142  140.0615  143.6432 H   0  0  0  0  0  0  0  0  0  0  0  0  # atno 7974 bound_to 7965
  155.6186  140.0679  157.2685 H   0  0  0  0  0  0  0  0  0  0  0  0  # atno 8008 bound_to 7997
  154.4235  140.1788  156.1396 H   0  0  0  0  0  0  0  0  0  0  0  0  # atno 8009 bound_to 7997
  156.0028  140.3334  155.6865 H   0  0  0  0  0  0  0  0  0  0  0  0  # atno 8010 bound_to 7997
  139.5008  144.3637  151.9797 H   0  0  0  0  0  0  0  0  0  0  0  0  # atno 10167 bound_to 10162
  156.1686  130.6652  151.0149 H   0  0  0  0  0  0  0  0  0  0  0  0  # atno 10718 bound_to 10713
  154.8754  135.3948  154.3661 H   0  0  0  0  0  0  0  0  0  0  0  0  # atno 10763 bound_to 10752
  153.4426  135.7027  153.6164 H   0  0  0  0  0  0  0  0  0  0  0  0  # atno 10764 bound_to 10752
  153.4738  135.3784  155.2374 H   0  0  0  0  0  0  0  0  0  0  0  0  # atno 10765 bound_to 10752
  141.0170  134.0181  157.3336 H   0  0  0  0  0  0  0  0  0  0  0  0  # atno 11005 bound_to 11000
  145.9860  139.2977  143.1013 LP  0  0  0  0  0  0  0  0  0  0  0  0  # atno 17320 bound_to 7965
  145.8957  140.9275  143.0529 LP  0  0  0  0  0  0  0  0  0  0  0  0  # atno 17321 bound_to 7965
  140.3073  144.3578  150.6043 LP  0  0  0  0  0  0  0  0  0  0  0  0  # atno 17342 bound_to 10162
  140.5826  143.2172  151.7400 LP  0  0  0  0  0  0  0  0  0  0  0  0  # atno 17343 bound_to 10162
  157.6786  131.0844  150.7429 LP  0  0  0  0  0  0  0  0  0  0  0  0  # atno 17370 bound_to 10713
  156.7488  130.4762  149.5461 LP  0  0  0  0  0  0  0  0  0  0  0  0  # atno 17371 bound_to 10713
  139.9123  135.0192  156.7741 LP  0  0  0  0  0  0  0  0  0  0  0  0  # atno 17394 bound_to 11000
  140.6638  133.9621  155.7819 LP  0  0  0  0  0  0  0  0  0  0  0  0  # atno 17395 bound_to 11000

$$$$
