AV-unprocessed.smi:1285|AV-procd|sdf|5370|dock5
  -GOLD-   22720 4513D 1   1.00000     0.00000
 Structure written by MMmdl.
 46 47  0  0  0  0  0  0  0  0  1 V2000
  145.5433  138.5004  156.2709 C   0  0  0  0  0  0  0  0  0  0  0  0
  145.5920  138.8747  154.7779 C   0  0  0  0  0  0  0  0  0  0  0  0
  146.8460  138.3694  153.9955 C   0  0  2  0  0  0  0  0  0  0  0  0
  146.6496  138.8156  152.5214 C   0  0  0  0  0  0  0  0  0  0  0  0
  146.8598  136.8068  154.0495 C   0  0  0  0  0  0  0  0  0  0  0  0
  145.7318  136.1762  153.3641 N   0  0  0  0  0  0  0  0  0  0  0  0
  145.5268  134.8548  153.2404 C   0  0  0  0  0  0  0  0  0  0  0  0
  146.2969  134.0069  153.6929 O   0  0  0  0  0  0  0  0  0  0  0  0
  144.2554  134.4318  152.4897 C   0  0  1  0  0  0  0  0  0  0  0  0
  143.4837  135.6381  151.9167 C   0  0  0  0  0  0  0  0  0  0  0  0
  144.5833  133.4434  151.4692 N   0  0  0  0  0  0  0  0  0  0  0  0
  143.7797  132.7532  150.6566 C   0  0  0  0  0  0  0  0  0  0  0  0
  144.4137  131.8886  149.8770 N   0  0  0  0  0  0  0  0  0  0  0  0
  145.6959  132.1005  150.2981 C   0  0  0  0  0  0  0  0  0  0  0  0
  145.8522  133.0125  151.2574 N   0  0  0  0  0  0  0  0  0  0  0  0
  148.0980  138.9574  154.5515 N   0  0  0  0  0  0  0  0  0  0  0  0
  148.2124  140.4160  154.4300 C   0  0  0  0  0  0  0  0  0  0  0  0
  149.4565  140.9590  155.1533 C   0  0  0  0  0  0  0  0  0  0  0  0
  150.6228  140.3212  154.6470 O   0  0  0  0  0  0  0  0  0  0  0  0
  150.5776  138.9073  154.7965 C   0  0  0  0  0  0  0  0  0  0  0  0
  149.3436  138.3496  154.0674 C   0  0  0  0  0  0  0  0  0  0  0  0
  144.6322  138.8842  156.7302 H   0  0  0  0  0  0  0  0  0  0  0  0
  146.3840  138.9214  156.8215 H   0  0  0  0  0  0  0  0  0  0  0  0
  145.5509  137.4207  156.4200 H   0  0  0  0  0  0  0  0  0  0  0  0
  144.6794  138.5215  154.2980 H   0  0  0  0  0  0  0  0  0  0  0  0
  145.5269  139.9615  154.7148 H   0  0  0  0  0  0  0  0  0  0  0  0
  145.6399  138.6138  152.1626 H   0  0  0  0  0  0  0  0  0  0  0  0
  147.3262  138.2943  151.8439 H   0  0  0  0  0  0  0  0  0  0  0  0
  146.8253  139.8844  152.3964 H   0  0  0  0  0  0  0  0  0  0  0  0
  147.7941  136.4083  153.6541 H   0  0  0  0  0  0  0  0  0  0  0  0
  146.8097  136.4633  155.0823 H   0  0  0  0  0  0  0  0  0  0  0  0
  145.0492  136.7980  152.9557 H   0  0  0  0  0  0  0  0  0  0  0  0
  143.5950  133.9414  153.2073 H   0  0  0  0  0  0  0  0  0  0  0  0
  143.2119  136.3402  152.7058 H   0  0  0  0  0  0  0  0  0  0  0  0
  142.5598  135.3147  151.4365 H   0  0  0  0  0  0  0  0  0  0  0  0
  144.0661  136.1867  151.1754 H   0  0  0  0  0  0  0  0  0  0  0  0
  142.7075  132.8826  150.6382 H   0  0  0  0  0  0  0  0  0  0  0  0
  146.5382  131.5616  149.8903 H   0  0  0  0  0  0  0  0  0  0  0  0
  148.2661  140.7069  153.3810 H   0  0  0  0  0  0  0  0  0  0  0  0
  147.3408  140.9131  154.8519 H   0  0  0  0  0  0  0  0  0  0  0  0
  149.5441  142.0346  155.0001 H   0  0  0  0  0  0  0  0  0  0  0  0
  149.3800  140.7939  156.2292 H   0  0  0  0  0  0  0  0  0  0  0  0
  151.4892  138.4769  154.3819 H   0  0  0  0  0  0  0  0  0  0  0  0
  150.5521  138.6453  155.8555 H   0  0  0  0  0  0  0  0  0  0  0  0
  149.3334  137.2703  154.2075 H   0  0  0  0  0  0  0  0  0  0  0  0
  149.4616  138.5293  152.9989 H   0  0  0  0  0  0  0  0  0  0  0  0
  1  2  1  0  0  0  0
  1 22  1  0  0  0  0
  1 23  1  0  0  0  0
  1 24  1  0  0  0  0
  2  3  1  0  0  0  0
  2 25  1  0  0  0  0
  2 26  1  0  0  0  0
  3  4  1  0  0  0  0
  3  5  1  0  0  0  0
  3 16  1  0  0  0  0
  4 27  1  0  0  0  0
  4 28  1  0  0  0  0
  4 29  1  0  0  0  0
  5  6  1  0  0  0  0
  5 30  1  0  0  0  0
  5 31  1  0  0  0  0
  6  7  1  0  0  0  0
  6 32  1  0  0  0  0
  7  8  2  0  0  0  0
  7  9  1  0  0  0  0
  9 10  1  0  0  0  0
  9 11  1  0  0  0  0
  9 33  1  0  0  0  0
 10 34  1  0  0  0  0
 10 35  1  0  0  0  0
 10 36  1  0  0  0  0
 11 15  1  0  0  0  0
 11 12  1  0  0  0  0
 12 13  2  0  0  0  0
 12 37  1  0  0  0  0
 13 14  1  0  0  0  0
 14 15  2  0  0  0  0
 14 38  1  0  0  0  0
 16 21  1  0  0  0  0
 16 17  1  0  0  0  0
 17 18  1  0  0  0  0
 17 39  1  0  0  0  0
 17 40  1  0  0  0  0
 18 19  1  0  0  0  0
 18 41  1  0  0  0  0
 18 42  1  0  0  0  0
 19 20  1  0  0  0  0
 20 21  1  0  0  0  0
 20 43  1  0  0  0  0
 20 44  1  0  0  0  0
 21 45  1  0  0  0  0
 21 46  1  0  0  0  0
M  END
> <s_m_source_file>
AV-unprocessed.smi

> <i_m_source_file_index>
1285

> <i_lp_mmshare_version>
43012

> <i_f3d_flags>
0

> <s_epik_input>
W0NIMl0xW0NIMl1PW0NIMl1bQ0gyXU4xW0NAQF0oW0NIM10pKFtDSDJdW0NIM10pW0NIMl1bTkhdQyg9TylbQ0BIXShbQ0gzXSluMltjSF1uW2NIXW4y

> <s_epik_cmdline>
J2VwaWtfcHl0aG9uJywgJy1waCcsICc3LjAnLCAnLXRuJywgJzgnLCAnLW1hJywgJzIwMCcsICctbWV0YWxfYmluZGluZycsICctaW1hZScsICc8aW5maWxlLm1hZT4nLCAnLW9tYWUnLCAnPG91dGZpbGUubWFlPic=

> <r_lp_tautomer_probability>
1

> <r_epik_Ionization_Penalty>
0.285697

> <r_epik_Ionization_Penalty_Charging>
0

> <r_epik_Ionization_Penalty_Neutral>
0.285697

> <r_epik_State_Penalty>
0.278478

> <r_epik_Charging_Adjusted_Penalty>
0.278478

> <i_epik_Tot_Q>
0

> <i_epik_Tot_abs_Q>
0

> <r_epik_Metal_State_Penalty>
0.278477

> <b_epik_Metal_Only>
0

> <s_lp_Force_Field>
OPLS_2005

> <r_lp_Energy>
49.308

> <b_lp_Chiralities_Consistent>
1

> <s_lp_Variant>
AV-unprocessed.smi:1285-4

> <Gold.Version>
5.8.1

> <Gold.Id.Protein>
6NUR|6NUR_protein|mol2

> <Gold.PLP.Fitness>
35.0137

> <Gold.PLP.PLP>
-27.0462

> <Gold.PLP.part.hbond>
-1.7452

> <Gold.PLP.part.metal>
0.0000

> <Gold.PLP.part.buried>
-3.1615

> <Gold.PLP.part.nonpolar>
-23.8628

> <Gold.PLP.part.repulsive>
0.5803

> <Gold.PLP.ligand.clash>
0.8199

> <Gold.PLP.ligand.torsion>
0.3300

> <Gold.PLP.Chemscore.Hbond>
1.0842

> <Gold.PLP.Chemscore.CHOScore>
2.0000

> <Gold.PLP.Chemscore.Metal>
0.0000

> <Gold.Chemscore.Hbonds>
donor molecule, donor type, donor heavy atom, donor atom, acceptor molecule, acceptor atom, score
      P1  H  7989  7998       L1    19  1.00
      P1  H 10785 10796       L1    13  0.04
      L1  C    12    37       P1 10186  0.99
      L1  C    14    38       P1 10747  0.94

> <Gold.PLP.Chemscore.Internal.Correction>
0.1948

> <Gold.Rescore>
     Score         DG    S(hbond)    S(metal)    S(lipo)     H(rot)  DE(clash)    DE(int)     intcor
      5.96      -7.98       1.17        0.00      46.80       2.68       0.32       1.70       ----

> <Gold.Chemscore.Fitness>
5.9609

> <Gold.Chemscore.DG>
-7.9811

> <Gold.Chemscore.ZeroCoef>
-5.4800

> <Gold.Chemscore.Hbond>
1.1651

> <Gold.Chemscore.Metal>
0.0000

> <Gold.Chemscore.Lipo>
46.8023

> <Gold.Chemscore.Internal_Hbond>
0.0000

> <Gold.Chemscore.DEClash>
0.3209

> <Gold.Chemscore.DEInternal>
1.6993

> <Gold.Chemscore.Rot>
2.6821

> <Gold.Chemscore.Internal.Correction>
   9.000000E+99

> <Gold.Chemscore.Hbonds>
donor molecule, donor type, donor heavy atom, donor atom, acceptor molecule, acceptor atom, score
      P1  H  7989  7998       L1    19  0.91
      P1  H 10785 10796       L1    13  0.07

> <Gold.Chemscore.Hbond.Weighted>
-3.8913

> <Gold.Chemscore.Metal.Weighted>
-0.0000

> <Gold.Chemscore.Lipo.Weighted>
-5.4759

> <Gold.Chemscore.Internal_Hbond.Weighted>
0.0000

> <Gold.Chemscore.DEClash.Weighted>
0.3209

> <Gold.Chemscore.DEInternal.Weighted>
1.6993

> <Gold.Chemscore.Rot.Weighted>
6.8661

> <Gold.Chemscore.Internal.Correction.Weighted>
   9.000000E+99

> <Gold.Protein.RotatedTorsions>
[ 6907 6896 6895 6894 ] final   -7.68 input  -60.11 | X-H torsion
[ 7974 7965 7964 7962 ] final   23.40 input  175.53 | X-H torsion
[ 8008 7997 7996 7995 ] final  -10.04 input   59.86 | X-H torsion
[ 10167 10162 10161 10158 ] final -107.29 input  -65.29 | X-H torsion
[ 10718 10713 10712 10709 ] final    2.80 input   66.30 | X-H torsion
[ 10763 10752 10751 10750 ] final  -97.69 input  -60.55 | X-H torsion
[ 11005 11000 10999 10996 ] final   -0.96 input  -57.11 | X-H torsion

> <Gold.Protein.ActiveResidues>
 VAL166  LYS551  ARG553  GLY616  TRP617  ASP618  TYR619  PRO620  LYS621  CYS622 
 ASP623  PHE694  ASN695  SER759  ASP760  ASP761  ALA762  ILE779  LEU786  VAL792 
 PHE793  MET794  SER795  GLU796  ALA797  LYS798  CYS799  TRP800  GLU811  SER814 

> <Gold.Protein.RotatedAtoms>
  151.4457  135.1025  159.9682 H   0  0  0  0  0  0  0  0  0  0  0  0  # atno 6907 bound_to 6896
  152.4907  133.8487  159.7201 H   0  0  0  0  0  0  0  0  0  0  0  0  # atno 6908 bound_to 6896
  150.9057  133.7002  159.2895 H   0  0  0  0  0  0  0  0  0  0  0  0  # atno 6909 bound_to 6896
  146.1986  139.7750  142.8778 H   0  0  0  0  0  0  0  0  0  0  0  0  # atno 7974 bound_to 7965
  154.5591  140.2339  155.8363 H   0  0  0  0  0  0  0  0  0  0  0  0  # atno 8008 bound_to 7997
  156.2014  140.3051  155.9494 H   0  0  0  0  0  0  0  0  0  0  0  0  # atno 8009 bound_to 7997
  155.2923  140.0427  157.3014 H   0  0  0  0  0  0  0  0  0  0  0  0  # atno 8010 bound_to 7997
  140.1786  143.3985  152.1299 H   0  0  0  0  0  0  0  0  0  0  0  0  # atno 10167 bound_to 10162
  156.8683  130.5611  149.5659 H   0  0  0  0  0  0  0  0  0  0  0  0  # atno 10718 bound_to 10713
  154.7350  135.5037  153.9026 H   0  0  0  0  0  0  0  0  0  0  0  0  # atno 10763 bound_to 10752
  153.0986  135.6679  153.9723 H   0  0  0  0  0  0  0  0  0  0  0  0  # atno 10764 bound_to 10752
  153.9515  135.3057  155.3417 H   0  0  0  0  0  0  0  0  0  0  0  0  # atno 10765 bound_to 10752
  140.6421  133.9480  155.8332 H   0  0  0  0  0  0  0  0  0  0  0  0  # atno 11005 bound_to 11000
  145.3561  141.0317  143.3311 LP  0  0  0  0  0  0  0  0  0  0  0  0  # atno 17320 bound_to 7965
  144.8633  139.5144  143.6802 LP  0  0  0  0  0  0  0  0  0  0  0  0  # atno 17321 bound_to 7965
  139.5306  144.7154  151.5069 LP  0  0  0  0  0  0  0  0  0  0  0  0  # atno 17342 bound_to 10162
  140.6535  143.8648  150.6810 LP  0  0  0  0  0  0  0  0  0  0  0  0  # atno 17343 bound_to 10162
  156.0740  130.5766  150.9437 LP  0  0  0  0  0  0  0  0  0  0  0  0  # atno 17370 bound_to 10713
  157.6210  131.0929  150.8622 LP  0  0  0  0  0  0  0  0  0  0  0  0  # atno 17371 bound_to 10713
  141.0599  134.0361  157.3672 LP  0  0  0  0  0  0  0  0  0  0  0  0  # atno 17394 bound_to 11000
  139.9076  135.0183  156.7555 LP  0  0  0  0  0  0  0  0  0  0  0  0  # atno 17395 bound_to 11000

$$$$
