AV-unprocessed.smi:1611|AV-procd|sdf|6475|dock1
  -GOLD-   22720 7133D 1   1.00000     0.00000
 Structure written by MMmdl.
 48 49  0  0  0  0  0  0  0  0  1 V2000
  152.1841  143.3206  158.2889 C   0  0  0  0  0  0  0  0  0  0  0  0
  152.0153  141.8123  158.3498 C   0  0  0  0  0  0  0  0  0  0  0  0
  152.7297  141.0846  159.3232 C   0  0  0  0  0  0  0  0  0  0  0  0
  152.5948  139.6881  159.4097 C   0  0  0  0  0  0  0  0  0  0  0  0
  151.7496  139.0013  158.5170 C   0  0  0  0  0  0  0  0  0  0  0  0
  151.6112  137.4945  158.6280 C   0  0  0  0  0  0  0  0  0  0  0  0
  151.0416  139.7196  157.5262 C   0  0  0  0  0  0  0  0  0  0  0  0
  150.2279  139.0422  156.6546 O   0  0  0  0  0  0  0  0  0  0  0  0
  150.8381  138.7714  155.4006 C   0  0  0  0  0  0  0  0  0  0  0  0
  150.3549  137.4026  154.8926 C   0  0  1  0  0  0  0  0  0  0  0  0
  151.4344  136.8179  154.1902 O   0  0  0  0  0  0  0  0  0  0  0  0
  149.9646  136.4629  156.0548 C   0  0  0  0  0  0  0  0  0  0  0  0
  150.0166  135.0496  155.6589 N   0  0  0  0  0  0  0  0  0  0  0  0
  149.0673  134.6936  154.7201 N   0  0  0  0  0  0  0  0  0  0  0  0
  148.9966  133.4887  154.2576 C   0  0  0  0  0  0  0  0  0  0  0  0
  147.9218  133.2168  153.2397 C   0  0  0  0  0  0  0  0  0  0  0  0
  149.9346  132.4761  154.7309 C   0  0  0  0  0  0  0  0  0  0  0  0
  149.8041  131.0746  154.1501 C   0  0  0  0  0  0  0  0  0  0  0  0
  150.8600  132.8372  155.6547 C   0  0  0  0  0  0  0  0  0  0  0  0
  151.8171  131.9158  156.1768 C   0  0  0  0  0  0  0  0  0  0  0  0
  152.5881  131.1551  156.5856 N   0  0  0  0  0  0  0  0  0  0  0  0
  150.9454  134.2003  156.1840 C   0  0  0  0  0  0  0  0  0  0  0  0
  151.7737  134.5577  157.0229 O   0  0  0  0  0  0  0  0  0  0  0  0
  151.1566  141.1309  157.4509 C   0  0  0  0  0  0  0  0  0  0  0  0
  150.3641  141.9070  156.4074 C   0  0  0  0  0  0  0  0  0  0  0  0
  152.9843  143.6574  158.9487 H   0  0  0  0  0  0  0  0  0  0  0  0
  151.2643  143.8187  158.5964 H   0  0  0  0  0  0  0  0  0  0  0  0
  152.4319  143.6408  157.2765 H   0  0  0  0  0  0  0  0  0  0  0  0
  153.3840  141.5962  160.0140 H   0  0  0  0  0  0  0  0  0  0  0  0
  153.1448  139.1461  160.1651 H   0  0  0  0  0  0  0  0  0  0  0  0
  150.5713  137.1901  158.5053 H   0  0  0  0  0  0  0  0  0  0  0  0
  151.9497  137.1393  159.6020 H   0  0  0  0  0  0  0  0  0  0  0  0
  152.2081  137.0024  157.8600 H   0  0  0  0  0  0  0  0  0  0  0  0
  150.6412  139.5564  154.6675 H   0  0  0  0  0  0  0  0  0  0  0  0
  151.9171  138.7502  155.5571 H   0  0  0  0  0  0  0  0  0  0  0  0
  149.5057  137.5424  154.2220 H   0  0  0  0  0  0  0  0  0  0  0  0
  151.1353  136.5711  153.3284 H   0  0  0  0  0  0  0  0  0  0  0  0
  150.5666  136.6659  156.9427 H   0  0  0  0  0  0  0  0  0  0  0  0
  148.9397  136.6776  156.3627 H   0  0  0  0  0  0  0  0  0  0  0  0
  147.2318  132.4540  153.6007 H   0  0  0  0  0  0  0  0  0  0  0  0
  148.3550  132.8654  152.3031 H   0  0  0  0  0  0  0  0  0  0  0  0
  147.3369  134.1101  153.0162 H   0  0  0  0  0  0  0  0  0  0  0  0
  150.5575  130.3926  154.5431 H   0  0  0  0  0  0  0  0  0  0  0  0
  149.9185  131.0965  153.0659 H   0  0  0  0  0  0  0  0  0  0  0  0
  148.8262  130.6532  154.3851 H   0  0  0  0  0  0  0  0  0  0  0  0
  149.5277  141.3288  156.0156 H   0  0  0  0  0  0  0  0  0  0  0  0
  151.0094  142.1783  155.5719 H   0  0  0  0  0  0  0  0  0  0  0  0
  149.9448  142.8201  156.8294 H   0  0  0  0  0  0  0  0  0  0  0  0
  1  2  1  0  0  0  0
  1 26  1  0  0  0  0
  1 27  1  0  0  0  0
  1 28  1  0  0  0  0
  2 24  1  0  0  0  0
  2  3  2  0  0  0  0
  3  4  1  0  0  0  0
  3 29  1  0  0  0  0
  4  5  2  0  0  0  0
  4 30  1  0  0  0  0
  5  6  1  0  0  0  0
  5  7  1  0  0  0  0
  6 31  1  0  0  0  0
  6 32  1  0  0  0  0
  6 33  1  0  0  0  0
  7  8  1  0  0  0  0
  7 24  2  0  0  0  0
  8  9  1  0  0  0  0
  9 10  1  0  0  0  0
  9 34  1  0  0  0  0
  9 35  1  0  0  0  0
 10 11  1  0  0  0  0
 10 12  1  0  0  0  0
 10 36  1  0  0  0  0
 11 37  1  0  0  0  0
 12 13  1  0  0  0  0
 12 38  1  0  0  0  0
 12 39  1  0  0  0  0
 13 22  1  0  0  0  0
 13 14  1  0  0  0  0
 14 15  2  0  0  0  0
 15 16  1  0  0  0  0
 15 17  1  0  0  0  0
 16 40  1  0  0  0  0
 16 41  1  0  0  0  0
 16 42  1  0  0  0  0
 17 18  1  0  0  0  0
 17 19  2  0  0  0  0
 18 43  1  0  0  0  0
 18 44  1  0  0  0  0
 18 45  1  0  0  0  0
 19 20  1  0  0  0  0
 19 22  1  0  0  0  0
 20 21  3  0  0  0  0
 22 23  2  0  0  0  0
 24 25  1  0  0  0  0
 25 46  1  0  0  0  0
 25 47  1  0  0  0  0
 25 48  1  0  0  0  0
M  END
> <s_m_source_file>
AV-unprocessed.smi

> <i_m_source_file_index>
1611

> <i_lp_mmshare_version>
43012

> <i_f3d_flags>
0

> <s_epik_input>
W0NIM11jMVtjSF1bY0hdYyhbQ0gzXSljKGMxW0NIM10pT1tDSDJdW0NASF0oW09IXSlbQ0gyXW4ybmMoW0NIM10pYyhbQ0gzXSljKEMjTiljMj1P

> <s_epik_cmdline>
J2VwaWtfcHl0aG9uJywgJy1waCcsICc3LjAnLCAnLXRuJywgJzgnLCAnLW1hJywgJzIwMCcsICctbWV0YWxfYmluZGluZycsICctaW1hZScsICc8aW5maWxlLm1hZT4nLCAnLW9tYWUnLCAnPG91dGZpbGUubWFlPic=

> <r_lp_tautomer_probability>
1

> <r_epik_Ionization_Penalty>
1.17331e-07

> <r_epik_Ionization_Penalty_Charging>
1.57223e-10

> <r_epik_Ionization_Penalty_Neutral>
1.17174e-07

> <r_epik_State_Penalty>
-0

> <r_epik_Charging_Adjusted_Penalty>
1.57223e-10

> <i_epik_Tot_Q>
0

> <i_epik_Tot_abs_Q>
0

> <r_epik_Metal_State_Penalty>
-0

> <b_epik_Metal_Only>
0

> <s_lp_Force_Field>
OPLS_2005

> <r_lp_Energy>
37.4128

> <b_lp_Chiralities_Consistent>
1

> <s_lp_Variant>
AV-unprocessed.smi:1611-2

> <Gold.Version>
5.8.1

> <Gold.Id.Protein>
6NUR|6NUR_protein|mol2

> <Gold.PLP.Fitness>
46.8878

> <Gold.PLP.PLP>
-43.3095

> <Gold.PLP.part.hbond>
-3.0000

> <Gold.PLP.part.metal>
0.0000

> <Gold.PLP.part.buried>
-7.2870

> <Gold.PLP.part.nonpolar>
-33.2552

> <Gold.PLP.part.repulsive>
0.6813

> <Gold.PLP.ligand.clash>
0.0000

> <Gold.PLP.ligand.torsion>
1.2633

> <Gold.PLP.Chemscore.Hbond>
2.0000

> <Gold.PLP.Chemscore.CHOScore>
0.0000

> <Gold.PLP.Chemscore.Metal>
0.0000

> <Gold.Chemscore.Hbonds>
donor molecule, donor type, donor heavy atom, donor atom, acceptor molecule, acceptor atom, score
      L1  H    11    37       P1  7949  1.00
      P1  H 10752 10765       L1    11  1.00

> <Gold.PLP.Chemscore.Internal.Correction>
0.1049

> <Gold.Rescore>
     Score         DG    S(hbond)    S(metal)    S(lipo)     H(rot)  DE(clash)    DE(int)     intcor
     13.22     -14.91       0.80        0.00     107.49       2.27       0.35       1.34       ----

> <Gold.Chemscore.Fitness>
13.2231

> <Gold.Chemscore.DG>
-14.9143

> <Gold.Chemscore.ZeroCoef>
-5.4800

> <Gold.Chemscore.Hbond>
0.7996

> <Gold.Chemscore.Metal>
0.0000

> <Gold.Chemscore.Lipo>
107.4890

> <Gold.Chemscore.Internal_Hbond>
0.0000

> <Gold.Chemscore.DEClash>
0.3547

> <Gold.Chemscore.DEInternal>
1.3365

> <Gold.Chemscore.Rot>
2.2706

> <Gold.Chemscore.Internal.Correction>
   9.000000E+99

> <Gold.Chemscore.Hbonds>
donor molecule, donor type, donor heavy atom, donor atom, acceptor molecule, acceptor atom, score
      L1  H    11    37       P1  7949  0.44
      P1  H 10752 10765       L1    11  0.39

> <Gold.Chemscore.Hbond.Weighted>
-2.6708

> <Gold.Chemscore.Metal.Weighted>
-0.0000

> <Gold.Chemscore.Lipo.Weighted>
-12.5762

> <Gold.Chemscore.Internal_Hbond.Weighted>
0.0000

> <Gold.Chemscore.DEClash.Weighted>
0.3547

> <Gold.Chemscore.DEInternal.Weighted>
1.3365

> <Gold.Chemscore.Rot.Weighted>
5.8127

> <Gold.Chemscore.Internal.Correction.Weighted>
   9.000000E+99

> <Gold.Protein.RotatedTorsions>
[ 6907 6896 6895 6894 ] final  -98.21 input  -60.11 | X-H torsion
[ 7974 7965 7964 7962 ] final  133.15 input  175.53 | X-H torsion
[ 8008 7997 7996 7995 ] final  -58.16 input   59.86 | X-H torsion
[ 10167 10162 10161 10158 ] final  123.48 input  -65.29 | X-H torsion
[ 10718 10713 10712 10709 ] final   63.36 input   66.30 | X-H torsion
[ 10763 10752 10751 10750 ] final  175.39 input  -60.55 | X-H torsion
[ 11005 11000 10999 10996 ] final -128.21 input  -57.11 | X-H torsion

> <Gold.Protein.ActiveResidues>
 VAL166  LYS551  ARG553  GLY616  TRP617  ASP618  TYR619  PRO620  LYS621  CYS622 
 ASP623  PHE694  ASN695  SER759  ASP760  ASP761  ALA762  ILE779  LEU786  VAL792 
 PHE793  MET794  SER795  GLU796  ALA797  LYS798  CYS799  TRP800  GLU811  SER814 

> <Gold.Protein.RotatedAtoms>
  150.7040  134.1229  159.4041 H   0  0  0  0  0  0  0  0  0  0  0  0  # atno 6907 bound_to 6896
  151.9215  135.0294  160.0531 H   0  0  0  0  0  0  0  0  0  0  0  0  # atno 6908 bound_to 6896
  152.2252  133.4979  159.5221 H   0  0  0  0  0  0  0  0  0  0  0  0  # atno 6909 bound_to 6896
  144.9894  139.4422  143.5346 H   0  0  0  0  0  0  0  0  0  0  0  0  # atno 7974 bound_to 7965
  154.4297  140.1090  156.5913 H   0  0  0  0  0  0  0  0  0  0  0  0  # atno 8008 bound_to 7997
  155.6009  140.3493  155.4574 H   0  0  0  0  0  0  0  0  0  0  0  0  # atno 8009 bound_to 7997
  156.0174  140.1232  157.0381 H   0  0  0  0  0  0  0  0  0  0  0  0  # atno 8010 bound_to 7997
  139.5797  144.6980  151.3561 H   0  0  0  0  0  0  0  0  0  0  0  0  # atno 10167 bound_to 10162
  157.5966  130.9101  149.9706 H   0  0  0  0  0  0  0  0  0  0  0  0  # atno 10718 bound_to 10713
  154.4670  135.2769  155.1671 H   0  0  0  0  0  0  0  0  0  0  0  0  # atno 10763 bound_to 10752
  154.3435  135.6165  153.5612 H   0  0  0  0  0  0  0  0  0  0  0  0  # atno 10764 bound_to 10752
  152.9860  135.5794  154.5043 H   0  0  0  0  0  0  0  0  0  0  0  0  # atno 10765 bound_to 10752
  140.9535  134.1033  157.4039 H   0  0  0  0  0  0  0  0  0  0  0  0  # atno 11005 bound_to 11000
  146.3428  139.9217  142.8766 LP  0  0  0  0  0  0  0  0  0  0  0  0  # atno 17320 bound_to 7965
  145.2306  140.9971  143.3992 LP  0  0  0  0  0  0  0  0  0  0  0  0  # atno 17321 bound_to 7965
  140.7076  143.7473  150.7510 LP  0  0  0  0  0  0  0  0  0  0  0  0  # atno 17342 bound_to 10162
  140.1002  143.4795  152.2429 LP  0  0  0  0  0  0  0  0  0  0  0  0  # atno 17343 bound_to 10162
  156.1030  130.3654  150.0185 LP  0  0  0  0  0  0  0  0  0  0  0  0  # atno 17370 bound_to 10713
  156.8297  130.9388  151.3637 LP  0  0  0  0  0  0  0  0  0  0  0  0  # atno 17371 bound_to 10713
  139.8855  135.0073  156.6438 LP  0  0  0  0  0  0  0  0  0  0  0  0  # atno 17394 bound_to 11000
  140.7569  133.8850  155.8388 LP  0  0  0  0  0  0  0  0  0  0  0  0  # atno 17395 bound_to 11000

$$$$
