AV-unprocessed.smi:2931|AV-procd|sdf|11242|dock7
  -GOLD-   2272016133D 1   1.00000     0.00000
 Structure written by MMmdl.
 42 43  0  0  0  0  0  0  0  0  2 V2000
  144.0259  132.7141  149.0930 C   0  0  0  0  0  0  0  0  0  0  0  0
  143.7509  133.6645  150.1918 N   0  3  1  0  0  0  0  0  0  0  0  0
  143.1111  133.0102  151.3604 C   0  0  0  0  0  0  0  0  0  0  0  0
  142.7163  134.0483  152.4237 C   0  0  0  0  0  0  0  0  0  0  0  0
  143.9276  134.8872  152.8540 C   0  0  0  0  0  0  0  0  0  0  0  0
  144.6016  135.5206  151.6230 C   0  0  1  0  0  0  0  0  0  0  0  0
  145.8085  136.2411  152.0160 N   0  0  0  0  0  0  0  0  0  0  0  0
  145.9366  136.9829  153.1245 C   0  0  0  0  0  0  0  0  0  0  0  0
  145.0303  137.1761  153.9345 O   0  0  0  0  0  0  0  0  0  0  0  0
  147.1775  137.4711  153.2538 N   0  0  0  0  0  0  0  0  0  0  0  0
  147.6521  138.2704  154.3798 C   0  0  0  0  0  0  0  0  0  0  0  0
  148.4805  139.4967  153.9444 C   0  0  0  0  0  0  0  0  0  0  0  0
  149.8593  139.5576  154.5802 C   0  0  0  0  0  0  0  0  0  0  0  0
  150.8266  138.5687  154.3036 C   0  0  0  0  0  0  0  0  0  0  0  0
  152.0928  138.6786  154.9117 C   0  0  0  0  0  0  0  0  0  0  0  0
  152.4297  139.6850  155.7467 N   0  0  0  0  0  0  0  0  0  0  0  0
  151.4983  140.6271  156.0082 C   0  0  0  0  0  0  0  0  0  0  0  0
  150.2029  140.6103  155.4530 C   0  0  0  0  0  0  0  0  0  0  0  0
  144.9539  134.4414  150.5818 C   0  0  0  0  0  0  0  0  0  0  0  0
  144.7517  131.9601  149.4000 H   0  0  0  0  0  0  0  0  0  0  0  0
  144.4225  133.2373  148.2223 H   0  0  0  0  0  0  0  0  0  0  0  0
  143.1116  132.2051  148.7860 H   0  0  0  0  0  0  0  0  0  0  0  0
  142.2229  132.4673  151.0349 H   0  0  0  0  0  0  0  0  0  0  0  0
  143.7945  132.2747  151.7879 H   0  0  0  0  0  0  0  0  0  0  0  0
  141.9408  134.7037  152.0250 H   0  0  0  0  0  0  0  0  0  0  0  0
  142.2828  133.5484  153.2906 H   0  0  0  0  0  0  0  0  0  0  0  0
  143.6139  135.6599  153.5571 H   0  0  0  0  0  0  0  0  0  0  0  0
  144.6397  134.2533  153.3848 H   0  0  0  0  0  0  0  0  0  0  0  0
  143.9016  136.2182  151.1584 H   0  0  0  0  0  0  0  0  0  0  0  0
  146.6158  136.1416  151.4182 H   0  0  0  0  0  0  0  0  0  0  0  0
  147.8535  137.2532  152.5362 H   0  0  0  0  0  0  0  0  0  0  0  0
  146.7720  138.6069  154.9284 H   0  0  0  0  0  0  0  0  0  0  0  0
  148.2246  137.6482  155.0690 H   0  0  0  0  0  0  0  0  0  0  0  0
  148.5937  139.4964  152.8600 H   0  0  0  0  0  0  0  0  0  0  0  0
  147.9380  140.4112  154.1871 H   0  0  0  0  0  0  0  0  0  0  0  0
  150.6080  137.7462  153.6382 H   0  0  0  0  0  0  0  0  0  0  0  0
  152.8561  137.9391  154.7203 H   0  0  0  0  0  0  0  0  0  0  0  0
  151.7944  141.4199  156.6788 H   0  0  0  0  0  0  0  0  0  0  0  0
  149.4933  141.3893  155.6904 H   0  0  0  0  0  0  0  0  0  0  0  0
  145.7127  133.7630  150.9759 H   0  0  0  0  0  0  0  0  0  0  0  0
  145.3799  134.9143  149.6956 H   0  0  0  0  0  0  0  0  0  0  0  0
  143.0816  134.3305  149.8325 H   0  0  0  0  0  0  0  0  0  0  0  0
  1  2  1  0  0  0  0
  1 20  1  0  0  0  0
  1 21  1  0  0  0  0
  1 22  1  0  0  0  0
  2 19  1  0  0  0  0
  2  3  1  0  0  0  0
  2 42  1  0  0  0  0
  3  4  1  0  0  0  0
  3 23  1  0  0  0  0
  3 24  1  0  0  0  0
  4  5  1  0  0  0  0
  4 25  1  0  0  0  0
  4 26  1  0  0  0  0
  5  6  1  0  0  0  0
  5 27  1  0  0  0  0
  5 28  1  0  0  0  0
  6  7  1  0  0  0  0
  6 19  1  0  0  0  0
  6 29  1  0  0  0  0
  7  8  1  0  0  0  0
  7 30  1  0  0  0  0
  8  9  2  0  0  0  0
  8 10  1  0  0  0  0
 10 11  1  0  0  0  0
 10 31  1  0  0  0  0
 11 12  1  0  0  0  0
 11 32  1  0  0  0  0
 11 33  1  0  0  0  0
 12 13  1  0  0  0  0
 12 34  1  0  0  0  0
 12 35  1  0  0  0  0
 13 18  1  0  0  0  0
 13 14  2  0  0  0  0
 14 15  1  0  0  0  0
 14 36  1  0  0  0  0
 15 16  2  0  0  0  0
 15 37  1  0  0  0  0
 16 17  1  0  0  0  0
 17 18  2  0  0  0  0
 17 38  1  0  0  0  0
 18 39  1  0  0  0  0
 19 40  1  0  0  0  0
 19 41  1  0  0  0  0
M  CHG  1   2   1
M  END
> <s_m_source_file>
AV-unprocessed.smi

> <i_m_source_file_index>
2931

> <i_lp_mmshare_version>
43012

> <i_f3d_flags>
0

> <s_epik_input>
W0NIM11OMVtDSDJdW0NIMl1bQ0gyXVtDQEhdKFtDSDJdMSlbTkhdQyg9TylbTkhdW0NIMl1bQ0gyXWMyW2NIXVtjSF1uW2NIXVtjSF0y

> <s_epik_cmdline>
J2VwaWtfcHl0aG9uJywgJy1waCcsICc3LjAnLCAnLXRuJywgJzgnLCAnLW1hJywgJzIwMCcsICctbWV0YWxfYmluZGluZycsICctaW1hZScsICc8aW5maWxlLm1hZT4nLCAnLW9tYWUnLCAnPG91dGZpbGUubWFlPic=

> <r_epik_Ionization_Penalty>
0.0573876

> <r_epik_Ionization_Penalty_Charging>
0.00229982

> <r_epik_Ionization_Penalty_Neutral>
0.0550878

> <r_epik_State_Penalty>
0.0473925

> <r_epik_Charging_Adjusted_Penalty>
0.0496923

> <i_epik_Tot_Q>
1

> <i_epik_Tot_abs_Q>
1

> <r_epik_Metal_State_Penalty>
0.0433388

> <b_epik_Metal_Only>
0

> <s_lp_Force_Field>
OPLS_2005

> <r_lp_Energy>
13.6108

> <b_lp_Chiralities_Consistent>
1

> <s_lp_Variant>
AV-unprocessed.smi:2931-1

> <Gold.Version>
5.8.1

> <Gold.Id.Protein>
6NUR|6NUR_protein|mol2

> <Gold.PLP.Fitness>
44.5919

> <Gold.PLP.PLP>
-35.3570

> <Gold.PLP.part.hbond>
-3.5759

> <Gold.PLP.part.metal>
0.0000

> <Gold.PLP.part.buried>
-1.0480

> <Gold.PLP.part.nonpolar>
-30.5051

> <Gold.PLP.part.repulsive>
0.1814

> <Gold.PLP.ligand.clash>
0.0000

> <Gold.PLP.ligand.torsion>
0.7561

> <Gold.PLP.Chemscore.Hbond>
3.5803

> <Gold.PLP.Chemscore.CHOScore>
0.0000

> <Gold.PLP.Chemscore.Metal>
0.0000

> <Gold.Chemscore.Hbonds>
donor molecule, donor type, donor heavy atom, donor atom, acceptor molecule, acceptor atom, score
      L1  H     2    42       P1 10186  1.27
      L1  H     7    30       P1  7948  0.14
      L1  H    10    31       P1  7948  1.00
      P1  H  7997  8009       L1    16  0.89

> <Gold.PLP.Chemscore.Internal.Correction>
0.0062

> <Gold.Rescore>
     Score         DG    S(hbond)    S(metal)    S(lipo)     H(rot)  DE(clash)    DE(int)     intcor
     18.38     -20.47       2.72        0.00      84.49       1.56       0.15       1.94       ----

> <Gold.Chemscore.Fitness>
18.3756

> <Gold.Chemscore.DG>
-20.4702

> <Gold.Chemscore.ZeroCoef>
-5.4800

> <Gold.Chemscore.Hbond>
2.7236

> <Gold.Chemscore.Metal>
0.0000

> <Gold.Chemscore.Lipo>
84.4870

> <Gold.Chemscore.Internal_Hbond>
0.0000

> <Gold.Chemscore.DEClash>
0.1539

> <Gold.Chemscore.DEInternal>
1.9406

> <Gold.Chemscore.Rot>
1.5592

> <Gold.Chemscore.Internal.Correction>
   9.000000E+99

> <Gold.Chemscore.Hbonds>
donor molecule, donor type, donor heavy atom, donor atom, acceptor molecule, acceptor atom, score
      L1  H     2    42       P1 10186  0.62
      L1  H     7    30       P1  7948  0.16
      L1  H    10    31       P1  7948  0.96
      P1  H  7997  8009       L1    16  0.78

> <Gold.Chemscore.Hbond.Weighted>
-9.0967

> <Gold.Chemscore.Metal.Weighted>
-0.0000

> <Gold.Chemscore.Lipo.Weighted>
-9.8850

> <Gold.Chemscore.Internal_Hbond.Weighted>
0.0000

> <Gold.Chemscore.DEClash.Weighted>
0.1539

> <Gold.Chemscore.DEInternal.Weighted>
1.9406

> <Gold.Chemscore.Rot.Weighted>
3.9915

> <Gold.Chemscore.Internal.Correction.Weighted>
   9.000000E+99

> <Gold.Protein.RotatedTorsions>
[ 6907 6896 6895 6894 ] final  151.39 input  -60.11 | X-H torsion
[ 7974 7965 7964 7962 ] final   95.60 input  175.53 | X-H torsion
[ 8008 7997 7996 7995 ] final -168.86 input   59.86 | X-H torsion
[ 10167 10162 10161 10158 ] final   81.92 input  -65.29 | X-H torsion
[ 10718 10713 10712 10709 ] final -109.78 input   66.30 | X-H torsion
[ 10763 10752 10751 10750 ] final   81.27 input  -60.55 | X-H torsion
[ 11005 11000 10999 10996 ] final  118.66 input  -57.11 | X-H torsion

> <Gold.Protein.ActiveResidues>
 VAL166  LYS551  ARG553  GLY616  TRP617  ASP618  TYR619  PRO620  LYS621  CYS622 
 ASP623  PHE694  ASN695  SER759  ASP760  ASP761  ALA762  ILE779  LEU786  VAL792 
 PHE793  MET794  SER795  GLU796  ALA797  LYS798  CYS799  TRP800  GLU811  SER814 

> <Gold.Protein.RotatedAtoms>
  152.1013  133.4251  159.4588 H   0  0  0  0  0  0  0  0  0  0  0  0  # atno 6907 bound_to 6896
  150.6864  134.2757  159.4615 H   0  0  0  0  0  0  0  0  0  0  0  0  # atno 6908 bound_to 6896
  152.0617  134.9589  160.0625 H   0  0  0  0  0  0  0  0  0  0  0  0  # atno 6909 bound_to 6896
  145.4500  139.2294  143.3045 H   0  0  0  0  0  0  0  0  0  0  0  0  # atno 7974 bound_to 7965
  155.8971  140.1034  157.1377 H   0  0  0  0  0  0  0  0  0  0  0  0  # atno 8008 bound_to 7997
  154.4022  140.1299  156.4453 H   0  0  0  0  0  0  0  0  0  0  0  0  # atno 8009 bound_to 7997
  155.7466  140.3466  155.5132 H   0  0  0  0  0  0  0  0  0  0  0  0  # atno 8010 bound_to 7997
  139.9342  144.6132  150.8315 H   0  0  0  0  0  0  0  0  0  0  0  0  # atno 10167 bound_to 10162
  156.0555  130.5781  150.8147 H   0  0  0  0  0  0  0  0  0  0  0  0  # atno 10718 bound_to 10713
  153.1103  135.4771  154.9023 H   0  0  0  0  0  0  0  0  0  0  0  0  # atno 10763 bound_to 10752
  154.7474  135.3097  154.8623 H   0  0  0  0  0  0  0  0  0  0  0  0  # atno 10764 bound_to 10752
  153.9214  135.6854  153.4801 H   0  0  0  0  0  0  0  0  0  0  0  0  # atno 10765 bound_to 10752
  139.9117  134.9622  156.7537 H   0  0  0  0  0  0  0  0  0  0  0  0  # atno 11005 bound_to 11000
  146.2509  140.5258  142.8893 LP  0  0  0  0  0  0  0  0  0  0  0  0  # atno 17320 bound_to 7965
  144.8067  140.6313  143.6442 LP  0  0  0  0  0  0  0  0  0  0  0  0  # atno 17321 bound_to 7965
  140.7629  143.3209  151.2623 LP  0  0  0  0  0  0  0  0  0  0  0  0  # atno 17342 bound_to 10162
  139.6757  143.9942  152.2779 LP  0  0  0  0  0  0  0  0  0  0  0  0  # atno 17343 bound_to 10162
  157.5521  131.0944  150.9680 LP  0  0  0  0  0  0  0  0  0  0  0  0  # atno 17370 bound_to 10713
  156.9938  130.5573  149.5305 LP  0  0  0  0  0  0  0  0  0  0  0  0  # atno 17371 bound_to 10713
  140.6753  133.9523  155.7879 LP  0  0  0  0  0  0  0  0  0  0  0  0  # atno 17394 bound_to 11000
  141.0549  134.0431  157.3736 LP  0  0  0  0  0  0  0  0  0  0  0  0  # atno 17395 bound_to 11000

$$$$
