AV-unprocessed.smi:1005|AV-procd|sdf|4387|dock1
  -GOLD-   22720 2313D 1   1.00000     0.00000
 Structure written by MMmdl.
 55 57  0  0  0  0  0  0  0  0  1 V2000
  153.7327  141.9239  161.7319 C   0  0  0  0  0  0  0  0  0  0  0  0
  153.0451  141.8346  160.3809 C   0  0  0  0  0  0  0  0  0  0  0  0
  153.3186  140.7300  159.5429 C   0  0  0  0  0  0  0  0  0  0  0  0
  152.7001  140.6089  158.2791 C   0  0  0  0  0  0  0  0  0  0  0  0
  152.8192  139.6278  157.3096 N   0  0  0  0  0  0  0  0  0  0  0  0
  151.9959  140.0799  156.3680 C   0  0  0  0  0  0  0  0  0  0  0  0
  151.3570  141.2400  156.6132 N   0  0  0  0  0  0  0  0  0  0  0  0
  150.4175  141.9270  155.7453 C   0  0  0  0  0  0  0  0  0  0  0  0
  149.4383  140.9578  155.0571 C   0  0  1  0  0  0  0  0  0  0  0  0
  150.1187  140.2611  154.0307 O   0  0  0  0  0  0  0  0  0  0  0  0
  148.8600  139.9340  156.0555 C   0  0  0  0  0  0  0  0  0  0  0  0
  147.6633  140.3624  156.7816 N   0  0  0  0  0  0  0  0  0  0  0  0
  147.0455  139.2380  157.4752 C   0  0  0  0  0  0  0  0  0  0  0  0
  145.7886  139.6623  158.2520 C   0  0  0  0  0  0  0  0  0  0  0  0
  146.1252  140.7071  159.1587 O   0  0  0  0  0  0  0  0  0  0  0  0
  146.6641  141.8575  158.5106 C   0  0  1  0  0  0  0  0  0  0  0  0
  146.9442  142.9212  159.5928 C   0  0  0  0  0  0  0  0  0  0  0  0
  146.5751  142.5491  160.9600 N   0  0  0  0  0  0  0  0  0  0  0  0
  145.1396  142.3582  161.1244 C   0  0  0  0  0  0  0  0  0  0  0  0
  147.0651  143.5362  161.9120 C   0  0  0  0  0  0  0  0  0  0  0  0
  147.9374  141.4196  157.7535 C   0  0  0  0  0  0  0  0  0  0  0  0
  151.7926  141.6309  157.8743 C   0  0  0  0  0  0  0  0  0  0  0  0
  151.5121  142.7345  158.6990 C   0  0  0  0  0  0  0  0  0  0  0  0
  152.1387  142.8403  159.9583 C   0  0  0  0  0  0  0  0  0  0  0  0
  151.8301  144.0375  160.8400 C   0  0  0  0  0  0  0  0  0  0  0  0
  154.4411  141.1070  161.8730 H   0  0  0  0  0  0  0  0  0  0  0  0
  152.9985  141.8736  162.5365 H   0  0  0  0  0  0  0  0  0  0  0  0
  154.2824  142.8611  161.8217 H   0  0  0  0  0  0  0  0  0  0  0  0
  154.0083  139.9634  159.8644 H   0  0  0  0  0  0  0  0  0  0  0  0
  151.8501  139.5380  155.4449 H   0  0  0  0  0  0  0  0  0  0  0  0
  149.8751  142.6706  156.3312 H   0  0  0  0  0  0  0  0  0  0  0  0
  150.9904  142.4762  154.9973 H   0  0  0  0  0  0  0  0  0  0  0  0
  148.6440  141.5464  154.6010 H   0  0  0  0  0  0  0  0  0  0  0  0
  149.4997  139.7069  153.5812 H   0  0  0  0  0  0  0  0  0  0  0  0
  148.6399  139.0162  155.5077 H   0  0  0  0  0  0  0  0  0  0  0  0
  149.6326  139.6653  156.7778 H   0  0  0  0  0  0  0  0  0  0  0  0
  146.7793  138.4604  156.7583 H   0  0  0  0  0  0  0  0  0  0  0  0
  147.7616  138.7921  158.1675 H   0  0  0  0  0  0  0  0  0  0  0  0
  145.0059  139.9981  157.5700 H   0  0  0  0  0  0  0  0  0  0  0  0
  145.3857  138.8191  158.8129 H   0  0  0  0  0  0  0  0  0  0  0  0
  145.9152  142.2339  157.8106 H   0  0  0  0  0  0  0  0  0  0  0  0
  148.0182  143.1128  159.5842 H   0  0  0  0  0  0  0  0  0  0  0  0
  146.4808  143.8701  159.3184 H   0  0  0  0  0  0  0  0  0  0  0  0
  144.8958  142.1343  162.1635 H   0  0  0  0  0  0  0  0  0  0  0  0
  144.7847  141.5186  160.5275 H   0  0  0  0  0  0  0  0  0  0  0  0
  144.5858  143.2513  160.8317 H   0  0  0  0  0  0  0  0  0  0  0  0
  146.8412  143.2323  162.9350 H   0  0  0  0  0  0  0  0  0  0  0  0
  146.6077  144.5114  161.7392 H   0  0  0  0  0  0  0  0  0  0  0  0
  148.1470  143.6492  161.8327 H   0  0  0  0  0  0  0  0  0  0  0  0
  148.6850  141.0747  158.4697 H   0  0  0  0  0  0  0  0  0  0  0  0
  148.3671  142.2851  157.2559 H   0  0  0  0  0  0  0  0  0  0  0  0
  150.8206  143.4932  158.3634 H   0  0  0  0  0  0  0  0  0  0  0  0
  151.0645  144.6729  160.3937 H   0  0  0  0  0  0  0  0  0  0  0  0
  152.7249  144.6430  160.9866 H   0  0  0  0  0  0  0  0  0  0  0  0
  151.4667  143.7134  161.8156 H   0  0  0  0  0  0  0  0  0  0  0  0
  1  2  1  0  0  0  0
  1 26  1  0  0  0  0
  1 27  1  0  0  0  0
  1 28  1  0  0  0  0
  2 24  1  0  0  0  0
  2  3  2  0  0  0  0
  3  4  1  0  0  0  0
  3 29  1  0  0  0  0
  4 22  2  0  0  0  0
  4  5  1  0  0  0  0
  5  6  2  0  0  0  0
  6  7  1  0  0  0  0
  6 30  1  0  0  0  0
  7  8  1  0  0  0  0
  7 22  1  0  0  0  0
  8  9  1  0  0  0  0
  8 31  1  0  0  0  0
  8 32  1  0  0  0  0
  9 10  1  0  0  0  0
  9 11  1  0  0  0  0
  9 33  1  0  0  0  0
 10 34  1  0  0  0  0
 11 12  1  0  0  0  0
 11 35  1  0  0  0  0
 11 36  1  0  0  0  0
 12 21  1  0  0  0  0
 12 13  1  0  0  0  0
 13 14  1  0  0  0  0
 13 37  1  0  0  0  0
 13 38  1  0  0  0  0
 14 15  1  0  0  0  0
 14 39  1  0  0  0  0
 14 40  1  0  0  0  0
 15 16  1  0  0  0  0
 16 17  1  0  0  0  0
 16 21  1  0  0  0  0
 16 41  1  0  0  0  0
 17 18  1  0  0  0  0
 17 42  1  0  0  0  0
 17 43  1  0  0  0  0
 18 19  1  0  0  0  0
 18 20  1  0  0  0  0
 19 44  1  0  0  0  0
 19 45  1  0  0  0  0
 19 46  1  0  0  0  0
 20 47  1  0  0  0  0
 20 48  1  0  0  0  0
 20 49  1  0  0  0  0
 21 50  1  0  0  0  0
 21 51  1  0  0  0  0
 22 23  1  0  0  0  0
 23 24  2  0  0  0  0
 23 52  1  0  0  0  0
 24 25  1  0  0  0  0
 25 53  1  0  0  0  0
 25 54  1  0  0  0  0
 25 55  1  0  0  0  0
M  END
> <s_m_source_file>
AV-unprocessed.smi

> <i_m_source_file_index>
1005

> <i_lp_mmshare_version>
43012

> <i_f3d_flags>
0

> <s_epik_input>
W0NIM11jKFtjSF0xKWMoW0NIM10pW2NIXWMoYzEyKW4oW2NIXW4yKVtDSDJdW0NASF0oW09IXSlbQ0gyXU4zW0NIMl1bQ0gyXU9bQ0BIXShbQ0gyXTMpW0NIMl1OKFtDSDNdKVtDSDNd

> <s_epik_cmdline>
J2VwaWtfcHl0aG9uJywgJy1waCcsICc3LjAnLCAnLXRuJywgJzgnLCAnLW1hJywgJzIwMCcsICctbWV0YWxfYmluZGluZycsICctaW1hZScsICc8aW5maWxlLm1hZT4nLCAnLW9tYWUnLCAnPG91dGZpbGUubWFlPic=

> <r_epik_Ionization_Penalty>
2.78613

> <r_epik_Ionization_Penalty_Charging>
0

> <r_epik_Ionization_Penalty_Neutral>
2.78613

> <r_epik_State_Penalty>
2.57336

> <r_epik_Charging_Adjusted_Penalty>
2.57336

> <i_epik_Tot_Q>
0

> <i_epik_Tot_abs_Q>
0

> <r_epik_Metal_State_Penalty>
2.49087

> <b_epik_Metal_Only>
0

> <s_lp_Force_Field>
OPLS_2005

> <r_lp_Energy>
38.3146

> <b_lp_Chiralities_Consistent>
1

> <s_lp_Variant>
AV-unprocessed.smi:1005-26

> <Gold.Version>
5.8.1

> <Gold.Id.Protein>
6NUR|6NUR_protein|mol2

> <Gold.PLP.Fitness>
52.4007

> <Gold.PLP.PLP>
-47.4669

> <Gold.PLP.part.hbond>
-4.5804

> <Gold.PLP.part.metal>
0.0000

> <Gold.PLP.part.buried>
-7.2055

> <Gold.PLP.part.nonpolar>
-34.9841

> <Gold.PLP.part.repulsive>
0.0376

> <Gold.PLP.ligand.clash>
0.0070

> <Gold.PLP.ligand.torsion>
1.5072

> <Gold.PLP.Chemscore.Hbond>
2.5680

> <Gold.PLP.Chemscore.CHOScore>
0.0000

> <Gold.PLP.Chemscore.Metal>
0.0000

> <Gold.Chemscore.Hbonds>
donor molecule, donor type, donor heavy atom, donor atom, acceptor molecule, acceptor atom, score
      P1  H  6934  6946       L1    18  0.50
      P1  H  7989  7998       L1    10  0.86
      P1  H  7997  8008       L1     5  0.85

> <Gold.PLP.Chemscore.Internal.Correction>
0.2512

> <Gold.Rescore>
     Score         DG    S(hbond)    S(metal)    S(lipo)     H(rot)  DE(clash)    DE(int)     intcor
     15.33     -19.66       2.04        0.00     113.21       2.29       0.40       3.93       ----

> <Gold.Chemscore.Fitness>
15.3296

> <Gold.Chemscore.DG>
-19.6613

> <Gold.Chemscore.ZeroCoef>
-5.4800

> <Gold.Chemscore.Hbond>
2.0351

> <Gold.Chemscore.Metal>
0.0000

> <Gold.Chemscore.Lipo>
113.2080

> <Gold.Chemscore.Internal_Hbond>
0.0000

> <Gold.Chemscore.DEClash>
0.4030

> <Gold.Chemscore.DEInternal>
3.9287

> <Gold.Chemscore.Rot>
2.2895

> <Gold.Chemscore.Internal.Correction>
   9.000000E+99

> <Gold.Chemscore.Hbonds>
donor molecule, donor type, donor heavy atom, donor atom, acceptor molecule, acceptor atom, score
      L1  H    10    34       P1  7957  0.01
      P1  H  6934  6946       L1    15  0.12
      P1  H  7989  7998       L1    10  0.82
      P1  H  7997  8008       L1     5  0.07

> <Gold.Chemscore.Hbond.Weighted>
-6.7972

> <Gold.Chemscore.Metal.Weighted>
-0.0000

> <Gold.Chemscore.Lipo.Weighted>
-13.2453

> <Gold.Chemscore.Internal_Hbond.Weighted>
0.0000

> <Gold.Chemscore.DEClash.Weighted>
0.4030

> <Gold.Chemscore.DEInternal.Weighted>
3.9287

> <Gold.Chemscore.Rot.Weighted>
5.8612

> <Gold.Chemscore.Internal.Correction.Weighted>
   9.000000E+99

> <Gold.Protein.RotatedTorsions>
[ 6907 6896 6895 6894 ] final  -19.49 input  -60.11 | X-H torsion
[ 7974 7965 7964 7962 ] final  -47.18 input  175.53 | X-H torsion
[ 8008 7997 7996 7995 ] final  -66.91 input   59.86 | X-H torsion
[ 10167 10162 10161 10158 ] final  141.11 input  -65.29 | X-H torsion
[ 10718 10713 10712 10709 ] final   11.51 input   66.30 | X-H torsion
[ 10763 10752 10751 10750 ] final   17.57 input  -60.55 | X-H torsion
[ 11005 11000 10999 10996 ] final   38.59 input  -57.11 | X-H torsion

> <Gold.Protein.ActiveResidues>
 VAL166  LYS551  ARG553  GLY616  TRP617  ASP618  TYR619  PRO620  LYS621  CYS622 
 ASP623  PHE694  ASN695  SER759  ASP760  ASP761  ALA762  ILE779  LEU786  VAL792 
 PHE793  MET794  SER795  GLU796  ALA797  LYS798  CYS799  TRP800  GLU811  SER814 

> <Gold.Protein.RotatedAtoms>
  151.2623  135.0658  159.9102 H   0  0  0  0  0  0  0  0  0  0  0  0  # atno 6907 bound_to 6896
  152.5364  134.0218  159.7995 H   0  0  0  0  0  0  0  0  0  0  0  0  # atno 6908 bound_to 6896
  151.0443  133.5629  159.2679 H   0  0  0  0  0  0  0  0  0  0  0  0  # atno 6909 bound_to 6896
  145.9643  140.7448  142.9442 H   0  0  0  0  0  0  0  0  0  0  0  0  # atno 7974 bound_to 7965
  154.4765  140.0903  156.7275 H   0  0  0  0  0  0  0  0  0  0  0  0  # atno 8008 bound_to 7997
  155.4582  140.3460  155.4291 H   0  0  0  0  0  0  0  0  0  0  0  0  # atno 8009 bound_to 7997
  156.1125  140.1451  156.9307 H   0  0  0  0  0  0  0  0  0  0  0  0  # atno 8010 bound_to 7997
  139.5030  144.6192  151.6091 H   0  0  0  0  0  0  0  0  0  0  0  0  # atno 10167 bound_to 10162
  156.9966  130.6063  149.5691 H   0  0  0  0  0  0  0  0  0  0  0  0  # atno 10718 bound_to 10713
  153.1327  135.6743  153.9152 H   0  0  0  0  0  0  0  0  0  0  0  0  # atno 10763 bound_to 10752
  153.8633  135.3078  155.3440 H   0  0  0  0  0  0  0  0  0  0  0  0  # atno 10764 bound_to 10752
  154.7721  135.4933  153.9752 H   0  0  0  0  0  0  0  0  0  0  0  0  # atno 10765 bound_to 10752
  140.2111  134.3754  155.8049 H   0  0  0  0  0  0  0  0  0  0  0  0  # atno 11005 bound_to 11000
  144.6822  140.2642  143.7315 LP  0  0  0  0  0  0  0  0  0  0  0  0  # atno 17320 bound_to 7965
  145.7996  139.1959  143.2055 LP  0  0  0  0  0  0  0  0  0  0  0  0  # atno 17321 bound_to 7965
  140.5889  143.9814  150.6313 LP  0  0  0  0  0  0  0  0  0  0  0  0  # atno 17342 bound_to 10162
  140.2988  143.3274  152.0992 LP  0  0  0  0  0  0  0  0  0  0  0  0  # atno 17343 bound_to 10162
  156.0187  130.5281  150.8211 LP  0  0  0  0  0  0  0  0  0  0  0  0  # atno 17370 bound_to 10713
  157.5420  131.0941  150.9814 LP  0  0  0  0  0  0  0  0  0  0  0  0  # atno 17371 bound_to 10713
  141.2226  133.7143  156.8419 LP  0  0  0  0  0  0  0  0  0  0  0  0  # atno 17394 bound_to 11000
  140.1950  134.8938  157.3104 LP  0  0  0  0  0  0  0  0  0  0  0  0  # atno 17395 bound_to 11000

$$$$
