AV-unprocessed.smi:2439|AV-procd|sdf|9610|dock5
  -GOLD-   2272013243D 1   1.00000     0.00000
 Structure written by MMmdl.
 41 43  0  0  0  0  0  0  0  0  2 V2000
  149.4503  136.3190  159.1269 N   0  0  0  0  0  0  0  0  0  0  0  0
  150.0964  136.8347  158.3176 C   0  0  0  0  0  0  0  0  0  0  0  0
  150.9103  137.4861  157.2982 C   0  0  0  0  0  0  0  0  0  0  0  0
  150.6583  137.2031  155.9395 C   0  0  0  0  0  0  0  0  0  0  0  0
  151.4436  137.8257  154.9524 C   0  0  0  0  0  0  0  0  0  0  0  0
  152.4537  138.7125  155.3664 C   0  0  0  0  0  0  0  0  0  0  0  0
  152.7056  138.9920  156.6623 N   0  0  0  0  0  0  0  0  0  0  0  0
  151.9534  138.3958  157.6201 C   0  0  0  0  0  0  0  0  0  0  0  0
  152.2360  138.7086  158.9631 N   0  0  0  0  0  0  0  0  0  0  0  0
  153.5439  139.1940  159.3875 C   0  0  0  0  0  0  0  0  0  0  0  0
  153.5201  140.6805  159.7812 C   0  0  1  0  0  0  0  0  0  0  0  0
  152.7275  141.5221  158.7652 C   0  0  0  0  0  0  0  0  0  0  0  0
  152.6602  142.9359  159.2016 N   0  3  1  0  0  0  0  0  0  0  0  0
  151.9417  143.7952  158.2271 C   0  0  0  0  0  0  0  0  0  0  0  0
  151.9724  145.2690  158.6625 C   0  0  0  0  0  0  0  0  0  0  0  0
  151.3948  145.4330  160.0741 C   0  0  0  0  0  0  0  0  0  0  0  0
  152.1356  144.5146  161.0553 C   0  0  0  0  0  0  0  0  0  0  0  0
  152.1080  143.0486  160.5791 C   0  0  2  0  0  0  0  0  0  0  0  0
  152.8955  142.1329  161.5370 C   0  0  0  0  0  0  0  0  0  0  0  0
  152.8834  140.7974  161.0491 O   0  0  0  0  0  0  0  0  0  0  0  0
  149.8740  136.5175  155.6514 H   0  0  0  0  0  0  0  0  0  0  0  0
  151.2752  137.6289  153.9039 H   0  0  0  0  0  0  0  0  0  0  0  0
  153.0774  139.2099  154.6386 H   0  0  0  0  0  0  0  0  0  0  0  0
  151.5517  138.4931  159.6743 H   0  0  0  0  0  0  0  0  0  0  0  0
  153.9028  138.5853  160.2183 H   0  0  0  0  0  0  0  0  0  0  0  0
  154.2512  139.0383  158.5725 H   0  0  0  0  0  0  0  0  0  0  0  0
  154.5404  141.0625  159.8445 H   0  0  0  0  0  0  0  0  0  0  0  0
  153.2052  141.4666  157.7861 H   0  0  0  0  0  0  0  0  0  0  0  0
  151.7172  141.1248  158.6531 H   0  0  0  0  0  0  0  0  0  0  0  0
  152.4034  143.6960  157.2439 H   0  0  0  0  0  0  0  0  0  0  0  0
  150.9096  143.4543  158.1292 H   0  0  0  0  0  0  0  0  0  0  0  0
  152.9989  145.6373  158.6399 H   0  0  0  0  0  0  0  0  0  0  0  0
  151.4086  145.8784  157.9557 H   0  0  0  0  0  0  0  0  0  0  0  0
  151.4753  146.4717  160.3960 H   0  0  0  0  0  0  0  0  0  0  0  0
  150.3319  145.1879  160.0694 H   0  0  0  0  0  0  0  0  0  0  0  0
  153.1684  144.8511  161.1576 H   0  0  0  0  0  0  0  0  0  0  0  0
  151.6856  144.5955  162.0454 H   0  0  0  0  0  0  0  0  0  0  0  0
  151.0708  142.7086  160.5562 H   0  0  0  0  0  0  0  0  0  0  0  0
  153.9243  142.4771  161.6555 H   0  0  0  0  0  0  0  0  0  0  0  0
  152.4414  142.1451  162.5281 H   0  0  0  0  0  0  0  0  0  0  0  0
  153.6114  143.2732  159.2416 H   0  0  0  0  0  0  0  0  0  0  0  0
  1  2  3  0  0  0  0
  2  3  1  0  0  0  0
  3  8  1  0  0  0  0
  3  4  2  0  0  0  0
  4  5  1  0  0  0  0
  4 21  1  0  0  0  0
  5  6  2  0  0  0  0
  5 22  1  0  0  0  0
  6  7  1  0  0  0  0
  6 23  1  0  0  0  0
  7  8  2  0  0  0  0
  8  9  1  0  0  0  0
  9 10  1  0  0  0  0
  9 24  1  0  0  0  0
 10 11  1  0  0  0  0
 10 25  1  0  0  0  0
 10 26  1  0  0  0  0
 11 20  1  0  0  0  0
 11 12  1  0  0  0  0
 11 27  1  0  0  0  0
 12 13  1  0  0  0  0
 12 28  1  0  0  0  0
 12 29  1  0  0  0  0
 13 18  1  0  0  0  0
 13 14  1  0  0  0  0
 13 41  1  0  0  0  0
 14 15  1  0  0  0  0
 14 30  1  0  0  0  0
 14 31  1  0  0  0  0
 15 16  1  0  0  0  0
 15 32  1  0  0  0  0
 15 33  1  0  0  0  0
 16 17  1  0  0  0  0
 16 34  1  0  0  0  0
 16 35  1  0  0  0  0
 17 18  1  0  0  0  0
 17 36  1  0  0  0  0
 17 37  1  0  0  0  0
 18 19  1  0  0  0  0
 18 38  1  0  0  0  0
 19 20  1  0  0  0  0
 19 39  1  0  0  0  0
 19 40  1  0  0  0  0
M  CHG  1  13   1
M  END
> <s_m_source_file>
AV-unprocessed.smi

> <i_m_source_file_index>
2439

> <i_lp_mmshare_version>
43012

> <i_f3d_flags>
0

> <s_epik_input>
TiNDYzFbY0hdW2NIXVtjSF1uYzFbTkhdW0NIMl1bQ0BIXShbQ0gyXTIpT1tDSDJdW0NAQEhdKE4yMylbQ0gyXVtDSDJdW0NIMl1bQ0gyXTM=

> <s_epik_cmdline>
J2VwaWtfcHl0aG9uJywgJy1waCcsICc3LjAnLCAnLXRuJywgJzgnLCAnLW1hJywgJzIwMCcsICctbWV0YWxfYmluZGluZycsICctaW1hZScsICc8aW5maWxlLm1hZT4nLCAnLW9tYWUnLCAnPG91dGZpbGUubWFlPic=

> <r_epik_Ionization_Penalty>
0.0803594

> <r_epik_Ionization_Penalty_Charging>
0.0803403

> <r_epik_Ionization_Penalty_Neutral>
1.90988e-05

> <r_epik_State_Penalty>
0.0711481

> <r_epik_Charging_Adjusted_Penalty>
0.151488

> <i_epik_Tot_Q>
1

> <i_epik_Tot_abs_Q>
1

> <r_epik_Metal_State_Penalty>
0.0711482

> <b_epik_Metal_Only>
0

> <s_lp_Force_Field>
OPLS_2005

> <r_lp_Energy>
27.3027

> <b_lp_Chiralities_Consistent>
1

> <s_lp_Variant>
AV-unprocessed.smi:2439-8

> <Gold.Version>
5.8.1

> <Gold.Id.Protein>
6NUR|6NUR_protein|mol2

> <Gold.PLP.Fitness>
45.1044

> <Gold.PLP.PLP>
-39.6791

> <Gold.PLP.part.hbond>
-2.0000

> <Gold.PLP.part.metal>
0.0000

> <Gold.PLP.part.buried>
-5.8913

> <Gold.PLP.part.nonpolar>
-31.7641

> <Gold.PLP.part.repulsive>
0.1262

> <Gold.PLP.ligand.clash>
0.0000

> <Gold.PLP.ligand.torsion>
0.2882

> <Gold.PLP.Chemscore.Hbond>
2.0000

> <Gold.PLP.Chemscore.CHOScore>
0.0000

> <Gold.PLP.Chemscore.Metal>
0.0000

> <Gold.Chemscore.Hbonds>
donor molecule, donor type, donor heavy atom, donor atom, acceptor molecule, acceptor atom, score
      P1  H  6896  6908       L1     1  0.76
      P1  H  7997  8010       L1     7  0.49

> <Gold.PLP.Chemscore.Internal.Correction>
0.0017

> <Gold.Rescore>
     Score         DG    S(hbond)    S(metal)    S(lipo)     H(rot)  DE(clash)    DE(int)     intcor
     22.01     -22.31       1.92        0.00     116.68       1.27       0.14       0.17       ----

> <Gold.Chemscore.Fitness>
22.0054

> <Gold.Chemscore.DG>
-22.3082

> <Gold.Chemscore.ZeroCoef>
-5.4800

> <Gold.Chemscore.Hbond>
1.9213

> <Gold.Chemscore.Metal>
0.0000

> <Gold.Chemscore.Lipo>
116.6827

> <Gold.Chemscore.Internal_Hbond>
0.0000

> <Gold.Chemscore.DEClash>
0.1377

> <Gold.Chemscore.DEInternal>
0.1652

> <Gold.Chemscore.Rot>
1.2659

> <Gold.Chemscore.Internal.Correction>
   9.000000E+99

> <Gold.Chemscore.Hbonds>
donor molecule, donor type, donor heavy atom, donor atom, acceptor molecule, acceptor atom, score
      P1  H  6896  6908       L1     1  0.15
      P1  H  7997  8010       L1     7  0.03

> <Gold.Chemscore.Hbond.Weighted>
-6.4171

> <Gold.Chemscore.Metal.Weighted>
-0.0000

> <Gold.Chemscore.Lipo.Weighted>
-13.6519

> <Gold.Chemscore.Internal_Hbond.Weighted>
0.0000

> <Gold.Chemscore.DEClash.Weighted>
0.1377

> <Gold.Chemscore.DEInternal.Weighted>
0.1652

> <Gold.Chemscore.Rot.Weighted>
3.2408

> <Gold.Chemscore.Internal.Correction.Weighted>
   9.000000E+99

> <Gold.Protein.RotatedTorsions>
[ 6907 6896 6895 6894 ] final -175.37 input  -60.11 | X-H torsion
[ 7974 7965 7964 7962 ] final -129.12 input  175.53 | X-H torsion
[ 8008 7997 7996 7995 ] final   89.96 input   59.86 | X-H torsion
[ 10167 10162 10161 10158 ] final    1.49 input  -65.29 | X-H torsion
[ 10718 10713 10712 10709 ] final  162.97 input   66.30 | X-H torsion
[ 10763 10752 10751 10750 ] final   91.18 input  -60.55 | X-H torsion
[ 11005 11000 10999 10996 ] final   70.36 input  -57.11 | X-H torsion

> <Gold.Protein.ActiveResidues>
 VAL166  LYS551  ARG553  GLY616  TRP617  ASP618  TYR619  PRO620  LYS621  CYS622 
 ASP623  PHE694  ASN695  SER759  ASP760  ASP761  ALA762  ILE779  LEU786  VAL792 
 PHE793  MET794  SER795  GLU796  ALA797  LYS798  CYS799  TRP800  GLU811  SER814 

> <Gold.Protein.RotatedAtoms>
  151.5875  133.3370  159.3020 H   0  0  0  0  0  0  0  0  0  0  0  0  # atno 6907 bound_to 6896
  150.8278  134.7521  159.6839 H   0  0  0  0  0  0  0  0  0  0  0  0  # atno 6908 bound_to 6896
  152.4366  134.5681  159.9965 H   0  0  0  0  0  0  0  0  0  0  0  0  # atno 6909 bound_to 6896
  144.9603  140.7439  143.4733 H   0  0  0  0  0  0  0  0  0  0  0  0  # atno 7974 bound_to 7965
  156.0062  140.3355  155.6895 H   0  0  0  0  0  0  0  0  0  0  0  0  # atno 8008 bound_to 7997
  155.6222  140.0676  157.2692 H   0  0  0  0  0  0  0  0  0  0  0  0  # atno 8009 bound_to 7997
  154.4265  140.1774  156.1371 H   0  0  0  0  0  0  0  0  0  0  0  0  # atno 8010 bound_to 7997
  140.6680  143.7127  150.7865 H   0  0  0  0  0  0  0  0  0  0  0  0  # atno 10167 bound_to 10162
  157.1150  131.0477  151.2440 H   0  0  0  0  0  0  0  0  0  0  0  0  # atno 10718 bound_to 10713
  153.2055  135.4407  155.0318 H   0  0  0  0  0  0  0  0  0  0  0  0  # atno 10763 bound_to 10752
  154.8171  135.3320  154.7147 H   0  0  0  0  0  0  0  0  0  0  0  0  # atno 10764 bound_to 10752
  153.7589  135.6993  153.4985 H   0  0  0  0  0  0  0  0  0  0  0  0  # atno 10765 bound_to 10752
  139.9602  134.7074  156.0663 H   0  0  0  0  0  0  0  0  0  0  0  0  # atno 11005 bound_to 11000
  145.2710  139.1954  143.4841 LP  0  0  0  0  0  0  0  0  0  0  0  0  # atno 17320 bound_to 7965
  146.3351  140.2657  142.8604 LP  0  0  0  0  0  0  0  0  0  0  0  0  # atno 17321 bound_to 7965
  140.0807  143.4971  152.2531 LP  0  0  0  0  0  0  0  0  0  0  0  0  # atno 17342 bound_to 10162
  139.5936  144.7559  151.3340 LP  0  0  0  0  0  0  0  0  0  0  0  0  # atno 17343 bound_to 10162
  157.4526  130.7607  149.7165 LP  0  0  0  0  0  0  0  0  0  0  0  0  # atno 17370 bound_to 10713
  155.9841  130.3994  150.3327 LP  0  0  0  0  0  0  0  0  0  0  0  0  # atno 17371 bound_to 10713
  141.1278  133.6594  156.3384 LP  0  0  0  0  0  0  0  0  0  0  0  0  # atno 17394 bound_to 11000
  140.5517  134.6021  157.5409 LP  0  0  0  0  0  0  0  0  0  0  0  0  # atno 17395 bound_to 11000

$$$$
