AV-unprocessed.smi:1644|AV-procd|sdf|6589|dock2
  -GOLD-   22720 7283D 1   1.00000     0.00000
 Structure written by MMmdl.
 50 52  0  0  0  0  0  0  0  0  2 V2000
  151.4138  131.3130  155.4045 C   0  0  0  0  0  0  0  0  0  0  0  0
  150.7846  132.1301  156.5379 C   0  0  0  0  0  0  0  0  0  0  0  0
  149.6144  133.0074  156.0480 C   0  0  0  0  0  0  0  0  0  0  0  0
  149.9982  134.1952  155.1360 C   0  0  1  0  0  0  0  0  0  0  0  0
  148.8608  134.9966  154.7294 N   0  0  0  0  0  0  0  0  0  0  0  0
  148.9871  136.2823  155.0841 C   0  0  0  0  0  0  0  0  0  0  0  0
  148.1711  137.1696  154.8387 O   0  0  0  0  0  0  0  0  0  0  0  0
  150.1530  136.4297  155.7403 N   0  0  0  0  0  0  0  0  0  0  0  0
  150.6417  137.7024  156.2791 C   0  0  0  0  0  0  0  0  0  0  0  0
  151.2723  138.5821  155.1809 C   0  0  2  0  0  0  0  0  0  0  0  0
  152.0376  137.7619  154.3195 O   0  0  0  0  0  0  0  0  0  0  0  0
  152.2038  139.6560  155.7755 C   0  0  0  0  0  0  0  0  0  0  0  0
  151.4686  140.8087  156.3101 N   0  0  0  0  0  0  0  0  0  0  0  0
  150.4564  141.5348  155.7637 C   0  0  0  0  0  0  0  0  0  0  0  0
  150.1142  142.5004  156.6615 N   0  3  0  0  0  0  0  0  0  0  0  0
  150.9198  142.3871  157.7974 C   0  0  0  0  0  0  0  0  0  0  0  0
  150.9515  143.1302  158.9716 C   0  0  0  0  0  0  0  0  0  0  0  0
  151.9010  142.7530  159.9484 C   0  0  0  0  0  0  0  0  0  0  0  0
  151.9626  143.5444  161.2440 C   0  0  0  0  0  0  0  0  0  0  0  0
  152.7796  141.6599  159.7296 C   0  0  0  0  0  0  0  0  0  0  0  0
  153.7944  141.2606  160.7873 C   0  0  0  0  0  0  0  0  0  0  0  0
  152.7331  140.9181  158.5279 C   0  0  0  0  0  0  0  0  0  0  0  0
  151.7913  141.3036  157.5773 C   0  0  0  0  0  0  0  0  0  0  0  0
  150.8198  135.2714  155.8223 C   0  0  0  0  0  0  0  0  0  0  0  0
  151.9143  135.0742  156.3491 O   0  0  0  0  0  0  0  0  0  0  0  0
  152.2364  130.7019  155.7762 H   0  0  0  0  0  0  0  0  0  0  0  0
  151.8090  131.9634  154.6236 H   0  0  0  0  0  0  0  0  0  0  0  0
  150.6833  130.6450  154.9475 H   0  0  0  0  0  0  0  0  0  0  0  0
  150.4397  131.4480  157.3152 H   0  0  0  0  0  0  0  0  0  0  0  0
  151.5567  132.7509  156.9929 H   0  0  0  0  0  0  0  0  0  0  0  0
  148.8925  132.3797  155.5238 H   0  0  0  0  0  0  0  0  0  0  0  0
  149.0847  133.3997  156.9168 H   0  0  0  0  0  0  0  0  0  0  0  0
  150.5309  133.8434  154.2517 H   0  0  0  0  0  0  0  0  0  0  0  0
  148.0756  134.6174  154.2200 H   0  0  0  0  0  0  0  0  0  0  0  0
  149.7903  138.2229  156.7210 H   0  0  0  0  0  0  0  0  0  0  0  0
  151.3374  137.5473  157.1060 H   0  0  0  0  0  0  0  0  0  0  0  0
  150.4929  139.0711  154.5953 H   0  0  0  0  0  0  0  0  0  0  0  0
  152.5878  138.3160  153.7867 H   0  0  0  0  0  0  0  0  0  0  0  0
  152.8148  139.2422  156.5788 H   0  0  0  0  0  0  0  0  0  0  0  0
  152.8963  140.0253  155.0174 H   0  0  0  0  0  0  0  0  0  0  0  0
  150.0046  141.3712  154.7958 H   0  0  0  0  0  0  0  0  0  0  0  0
  150.2787  143.9601  159.1320 H   0  0  0  0  0  0  0  0  0  0  0  0
  152.9516  143.9832  161.3784 H   0  0  0  0  0  0  0  0  0  0  0  0
  151.7509  142.8988  162.0966 H   0  0  0  0  0  0  0  0  0  0  0  0
  151.2348  144.3563  161.2515 H   0  0  0  0  0  0  0  0  0  0  0  0
  154.3850  140.4008  160.4691 H   0  0  0  0  0  0  0  0  0  0  0  0
  153.2933  140.9935  161.7180 H   0  0  0  0  0  0  0  0  0  0  0  0
  154.4827  142.0823  160.9868 H   0  0  0  0  0  0  0  0  0  0  0  0
  153.4006  140.0854  158.3600 H   0  0  0  0  0  0  0  0  0  0  0  0
  149.3831  143.1832  156.5081 H   0  0  0  0  0  0  0  0  0  0  0  0
  1  2  1  0  0  0  0
  1 26  1  0  0  0  0
  1 27  1  0  0  0  0
  1 28  1  0  0  0  0
  2  3  1  0  0  0  0
  2 29  1  0  0  0  0
  2 30  1  0  0  0  0
  3  4  1  0  0  0  0
  3 31  1  0  0  0  0
  3 32  1  0  0  0  0
  4 24  1  0  0  0  0
  4  5  1  0  0  0  0
  4 33  1  0  0  0  0
  5  6  1  0  0  0  0
  5 34  1  0  0  0  0
  6  7  2  0  0  0  0
  6  8  1  0  0  0  0
  8  9  1  0  0  0  0
  8 24  1  0  0  0  0
  9 10  1  0  0  0  0
  9 35  1  0  0  0  0
  9 36  1  0  0  0  0
 10 11  1  0  0  0  0
 10 12  1  0  0  0  0
 10 37  1  0  0  0  0
 11 38  1  0  0  0  0
 12 13  1  0  0  0  0
 12 39  1  0  0  0  0
 12 40  1  0  0  0  0
 13 23  1  0  0  0  0
 13 14  1  0  0  0  0
 14 15  2  0  0  0  0
 14 41  1  0  0  0  0
 15 16  1  0  0  0  0
 15 50  1  0  0  0  0
 16 23  2  0  0  0  0
 16 17  1  0  0  0  0
 17 18  2  0  0  0  0
 17 42  1  0  0  0  0
 18 19  1  0  0  0  0
 18 20  1  0  0  0  0
 19 43  1  0  0  0  0
 19 44  1  0  0  0  0
 19 45  1  0  0  0  0
 20 21  1  0  0  0  0
 20 22  2  0  0  0  0
 21 46  1  0  0  0  0
 21 47  1  0  0  0  0
 21 48  1  0  0  0  0
 22 23  1  0  0  0  0
 22 49  1  0  0  0  0
 24 25  2  0  0  0  0
M  CHG  1  15   1
M  END
> <s_m_source_file>
AV-unprocessed.smi

> <i_m_source_file_index>
1644

> <i_lp_mmshare_version>
43012

> <i_f3d_flags>
0

> <s_epik_input>
W0NIM11bQ0gyXVtDSDJdW0NAQEhdMVtOSF1DKD1PKU4oQzE9TylbQ0gyXVtDQEhdKFtPSF0pW0NIMl1uKFtjSF1uMiljKGMyMylbY0hdYyhbQ0gzXSljKFtjSF0zKVtDSDNd

> <s_epik_cmdline>
J2VwaWtfcHl0aG9uJywgJy1waCcsICc3LjAnLCAnLXRuJywgJzgnLCAnLW1hJywgJzIwMCcsICctbWV0YWxfYmluZGluZycsICctaW1hZScsICc8aW5maWxlLm1hZT4nLCAnLW9tYWUnLCAnPG91dGZpbGUubWFlPic=

> <r_lp_tautomer_probability>
1

> <r_epik_Ionization_Penalty>
1.06742

> <r_epik_Ionization_Penalty_Charging>
1.06736

> <r_epik_Ionization_Penalty_Neutral>
5.56132e-05

> <r_epik_State_Penalty>
1.12163

> <r_epik_Charging_Adjusted_Penalty>
2.18899

> <i_epik_Tot_Q>
1

> <i_epik_Tot_abs_Q>
1

> <r_epik_Metal_State_Penalty>
1.26636

> <b_epik_Metal_Only>
0

> <s_lp_Force_Field>
OPLS_2005

> <r_lp_Energy>
29.5638

> <b_lp_Chiralities_Consistent>
1

> <s_lp_Variant>
AV-unprocessed.smi:1644-6

> <Gold.Version>
5.8.1

> <Gold.Id.Protein>
6NUR|6NUR_protein|mol2

> <Gold.PLP.Fitness>
51.8301

> <Gold.PLP.PLP>
-44.3749

> <Gold.PLP.part.hbond>
-3.0652

> <Gold.PLP.part.metal>
0.0000

> <Gold.PLP.part.buried>
-5.8618

> <Gold.PLP.part.nonpolar>
-34.4113

> <Gold.PLP.part.repulsive>
0.1634

> <Gold.PLP.ligand.clash>
0.0000

> <Gold.PLP.ligand.torsion>
0.8168

> <Gold.PLP.Chemscore.Hbond>
2.9840

> <Gold.PLP.Chemscore.CHOScore>
0.0000

> <Gold.PLP.Chemscore.Metal>
0.0000

> <Gold.Chemscore.Hbonds>
donor molecule, donor type, donor heavy atom, donor atom, acceptor molecule, acceptor atom, score
      L1  H    15    50       P1  8028  1.89
      P1  H 10752 10765       L1    25  1.00

> <Gold.PLP.Chemscore.Internal.Correction>
0.1367

> <Gold.Rescore>
     Score         DG    S(hbond)    S(metal)    S(lipo)     H(rot)  DE(clash)    DE(int)     intcor
     16.78     -17.60       1.85        0.00     112.00       2.80       0.17       0.65       ----

> <Gold.Chemscore.Fitness>
16.7810

> <Gold.Chemscore.DG>
-17.5986

> <Gold.Chemscore.ZeroCoef>
-5.4800

> <Gold.Chemscore.Hbond>
1.8481

> <Gold.Chemscore.Metal>
0.0000

> <Gold.Chemscore.Lipo>
111.9996

> <Gold.Chemscore.Internal_Hbond>
0.0000

> <Gold.Chemscore.DEClash>
0.1712

> <Gold.Chemscore.DEInternal>
0.6463

> <Gold.Chemscore.Rot>
2.7961

> <Gold.Chemscore.Internal.Correction>
   9.000000E+99

> <Gold.Chemscore.Hbonds>
donor molecule, donor type, donor heavy atom, donor atom, acceptor molecule, acceptor atom, score
      L1  H    15    50       P1  8028  0.91
      P1  H 10752 10765       L1    25  0.58

> <Gold.Chemscore.Hbond.Weighted>
-6.1727

> <Gold.Chemscore.Metal.Weighted>
-0.0000

> <Gold.Chemscore.Lipo.Weighted>
-13.1040

> <Gold.Chemscore.Internal_Hbond.Weighted>
0.0000

> <Gold.Chemscore.DEClash.Weighted>
0.1712

> <Gold.Chemscore.DEInternal.Weighted>
0.6463

> <Gold.Chemscore.Rot.Weighted>
7.1580

> <Gold.Chemscore.Internal.Correction.Weighted>
   9.000000E+99

> <Gold.Protein.RotatedTorsions>
[ 6907 6896 6895 6894 ] final  169.93 input  -60.11 | X-H torsion
[ 7974 7965 7964 7962 ] final   26.05 input  175.53 | X-H torsion
[ 8008 7997 7996 7995 ] final  -98.54 input   59.86 | X-H torsion
[ 10167 10162 10161 10158 ] final   18.72 input  -65.29 | X-H torsion
[ 10718 10713 10712 10709 ] final -137.89 input   66.30 | X-H torsion
[ 10763 10752 10751 10750 ] final -147.11 input  -60.55 | X-H torsion
[ 11005 11000 10999 10996 ] final  145.68 input  -57.11 | X-H torsion

> <Gold.Protein.ActiveResidues>
 VAL166  LYS551  ARG553  GLY616  TRP617  ASP618  TYR619  PRO620  LYS621  CYS622 
 ASP623  PHE694  ASN695  SER759  ASP760  ASP761  ALA762  ILE779  LEU786  VAL792 
 PHE793  MET794  SER795  GLU796  ALA797  LYS798  CYS799  TRP800  GLU811  SER814 

> <Gold.Protein.RotatedAtoms>
  151.8241  133.3399  159.3592 H   0  0  0  0  0  0  0  0  0  0  0  0  # atno 6907 bound_to 6896
  150.7285  134.5546  159.5821 H   0  0  0  0  0  0  0  0  0  0  0  0  # atno 6908 bound_to 6896
  152.2985  134.7640  160.0414 H   0  0  0  0  0  0  0  0  0  0  0  0  # atno 6909 bound_to 6896
  146.1857  139.7381  142.8868 H   0  0  0  0  0  0  0  0  0  0  0  0  # atno 7974 bound_to 7965
  154.8026  140.0454  157.1284 H   0  0  0  0  0  0  0  0  0  0  0  0  # atno 8008 bound_to 7997
  154.9462  140.3059  155.5077 H   0  0  0  0  0  0  0  0  0  0  0  0  # atno 8009 bound_to 7997
  156.2963  140.2296  156.4535 H   0  0  0  0  0  0  0  0  0  0  0  0  # atno 8010 bound_to 7997
  140.5632  143.9298  150.6658 H   0  0  0  0  0  0  0  0  0  0  0  0  # atno 10167 bound_to 10162
  156.2932  130.7387  151.1418 H   0  0  0  0  0  0  0  0  0  0  0  0  # atno 10718 bound_to 10713
  154.8302  135.3369  154.6767 H   0  0  0  0  0  0  0  0  0  0  0  0  # atno 10763 bound_to 10752
  153.7388  135.6947  153.4976 H   0  0  0  0  0  0  0  0  0  0  0  0  # atno 10764 bound_to 10752
  153.2259  135.4433  155.0492 H   0  0  0  0  0  0  0  0  0  0  0  0  # atno 10765 bound_to 10752
  140.0731  134.9140  157.1379 H   0  0  0  0  0  0  0  0  0  0  0  0  # atno 11005 bound_to 11000
  145.3945  141.0377  143.3105 LP  0  0  0  0  0  0  0  0  0  0  0  0  # atno 17320 bound_to 7965
  144.8393  139.5498  143.6907 LP  0  0  0  0  0  0  0  0  0  0  0  0  # atno 17321 bound_to 7965
  140.2754  143.3426  152.1200 LP  0  0  0  0  0  0  0  0  0  0  0  0  # atno 17342 bound_to 10162
  139.5080  144.6842  151.5929 LP  0  0  0  0  0  0  0  0  0  0  0  0  # atno 17343 bound_to 10162
  157.7348  131.0578  150.5504 LP  0  0  0  0  0  0  0  0  0  0  0  0  # atno 17370 bound_to 10713
  156.5623  130.4258  149.6057 LP  0  0  0  0  0  0  0  0  0  0  0  0  # atno 17371 bound_to 10713
  140.3597  134.2508  155.7188 LP  0  0  0  0  0  0  0  0  0  0  0  0  # atno 17394 bound_to 11000
  141.2019  133.7950  157.0415 LP  0  0  0  0  0  0  0  0  0  0  0  0  # atno 17395 bound_to 11000

$$$$
