AV-unprocessed.smi:234|AV-procd|sdf|1791|dock5
  -GOLD-   2262020353D 1   1.00000     0.00000
 Structure written by MMmdl.
 59 62  0  0  0  0  0  0  0  0  1 V2000
  150.1547  142.8168  157.9030 C   0  0  0  0  0  0  0  0  0  0  0  0
  150.0702  141.9357  156.6496 C   0  0  0  0  0  0  0  0  0  0  0  0
  150.9461  140.8192  156.7148 O   0  0  0  0  0  0  0  0  0  0  0  0
  150.7960  139.8809  155.6575 C   0  0  2  0  0  0  0  0  0  0  0  0
  149.5188  139.0550  155.8094 C   0  0  0  0  0  0  0  0  0  0  0  0
  150.3463  137.8802  155.2742 C   0  0  2  0  0  0  0  0  0  0  0  0
  150.0250  136.5860  155.8809 N   0  0  0  0  0  0  0  0  0  0  0  0
  151.1287  135.6521  156.0651 C   0  0  0  0  0  0  0  0  0  0  0  0
  148.9271  135.9514  155.4082 C   0  0  0  0  0  0  0  0  0  0  0  0
  147.7213  136.4340  155.7996 N   0  0  0  0  0  0  0  0  0  0  0  0
  146.5961  135.8525  155.3739 C   0  0  0  0  0  0  0  0  0  0  0  0
  146.4542  134.7935  154.5743 N   0  0  0  0  0  0  0  0  0  0  0  0
  147.6650  134.2959  154.1908 C   0  0  0  0  0  0  0  0  0  0  0  0
  148.9417  134.8088  154.5566 C   0  0  0  0  0  0  0  0  0  0  0  0
  149.9426  134.0353  153.9795 N   0  0  0  0  0  0  0  0  0  0  0  0
  149.2954  133.1256  153.3045 C   0  0  0  0  0  0  0  0  0  0  0  0
  147.9236  133.2016  153.3839 N   0  0  0  0  0  0  0  0  0  0  0  0
  146.9632  132.3146  152.7466 C   0  0  0  0  0  0  0  0  0  0  0  0
  146.2793  132.9380  151.5065 C   0  0  2  0  0  0  0  0  0  0  0  0
  147.0682  132.6537  150.3624 O   0  0  0  0  0  0  0  0  0  0  0  0
  146.0878  134.4450  151.5949 C   0  0  0  0  0  0  0  0  0  0  0  0
  144.9270  134.6875  150.6385 C   0  0  0  0  0  0  0  0  0  0  0  0
  144.0825  133.5557  150.8002 O   0  0  0  0  0  0  0  0  0  0  0  0
  144.8274  132.4488  151.3067 C   0  0  1  0  0  0  0  0  0  0  0  0
  144.6354  131.2078  150.4202 C   0  0  0  0  0  0  0  0  0  0  0  0
  151.6137  138.5749  155.8442 C   0  0  0  0  0  0  0  0  0  0  0  0
  152.8770  138.4543  154.9910 C   0  0  0  0  0  0  0  0  0  0  0  0
  152.0119  138.2473  157.2945 C   0  0  0  0  0  0  0  0  0  0  0  0
  149.3904  143.5936  157.8796 H   0  0  0  0  0  0  0  0  0  0  0  0
  151.1206  143.3147  157.9784 H   0  0  0  0  0  0  0  0  0  0  0  0
  150.0044  142.2274  158.8076 H   0  0  0  0  0  0  0  0  0  0  0  0
  149.0552  141.5493  156.5561 H   0  0  0  0  0  0  0  0  0  0  0  0
  150.2633  142.5193  155.7484 H   0  0  0  0  0  0  0  0  0  0  0  0
  150.8744  140.3051  154.6532 H   0  0  0  0  0  0  0  0  0  0  0  0
  149.1976  138.9390  156.8462 H   0  0  0  0  0  0  0  0  0  0  0  0
  148.6969  139.3661  155.1645 H   0  0  0  0  0  0  0  0  0  0  0  0
  150.3622  137.8606  154.1829 H   0  0  0  0  0  0  0  0  0  0  0  0
  150.8099  134.7629  156.6103 H   0  0  0  0  0  0  0  0  0  0  0  0
  151.9373  136.1099  156.6321 H   0  0  0  0  0  0  0  0  0  0  0  0
  151.5274  135.3373  155.1003 H   0  0  0  0  0  0  0  0  0  0  0  0
  145.6777  136.2989  155.7254 H   0  0  0  0  0  0  0  0  0  0  0  0
  149.8049  132.3636  152.7330 H   0  0  0  0  0  0  0  0  0  0  0  0
  147.4732  131.3903  152.4719 H   0  0  0  0  0  0  0  0  0  0  0  0
  146.2160  132.0396  153.4923 H   0  0  0  0  0  0  0  0  0  0  0  0
  147.7917  132.1063  150.6266 H   0  0  0  0  0  0  0  0  0  0  0  0
  145.7852  134.7275  152.6040 H   0  0  0  0  0  0  0  0  0  0  0  0
  146.9801  135.0185  151.3398 H   0  0  0  0  0  0  0  0  0  0  0  0
  144.3961  135.6162  150.8476 H   0  0  0  0  0  0  0  0  0  0  0  0
  145.2798  134.7219  149.6070 H   0  0  0  0  0  0  0  0  0  0  0  0
  144.3952  132.2352  152.2853 H   0  0  0  0  0  0  0  0  0  0  0  0
  145.2147  130.3645  150.7962 H   0  0  0  0  0  0  0  0  0  0  0  0
  144.9408  131.3961  149.3907 H   0  0  0  0  0  0  0  0  0  0  0  0
  143.5878  130.9074  150.3993 H   0  0  0  0  0  0  0  0  0  0  0  0
  153.2504  137.4309  154.9680 H   0  0  0  0  0  0  0  0  0  0  0  0
  153.6819  139.0832  155.3711 H   0  0  0  0  0  0  0  0  0  0  0  0
  152.6922  138.7522  153.9587 H   0  0  0  0  0  0  0  0  0  0  0  0
  152.4762  137.2648  157.3758 H   0  0  0  0  0  0  0  0  0  0  0  0
  151.1551  138.2534  157.9685 H   0  0  0  0  0  0  0  0  0  0  0  0
  152.7269  138.9733  157.6824 H   0  0  0  0  0  0  0  0  0  0  0  0
  1  2  1  0  0  0  0
  1 29  1  0  0  0  0
  1 30  1  0  0  0  0
  1 31  1  0  0  0  0
  2  3  1  0  0  0  0
  2 32  1  0  0  0  0
  2 33  1  0  0  0  0
  3  4  1  0  0  0  0
  4 26  1  0  0  0  0
  4  5  1  0  0  0  0
  4 34  1  0  0  0  0
  5  6  1  0  0  0  0
  5 35  1  0  0  0  0
  5 36  1  0  0  0  0
  6  7  1  0  0  0  0
  6 26  1  0  0  0  0
  6 37  1  0  0  0  0
  7  8  1  0  0  0  0
  7  9  1  0  0  0  0
  8 38  1  0  0  0  0
  8 39  1  0  0  0  0
  8 40  1  0  0  0  0
  9 14  1  0  0  0  0
  9 10  2  0  0  0  0
 10 11  1  0  0  0  0
 11 12  2  0  0  0  0
 11 41  1  0  0  0  0
 12 13  1  0  0  0  0
 13 17  1  0  0  0  0
 13 14  2  0  0  0  0
 14 15  1  0  0  0  0
 15 16  2  0  0  0  0
 16 17  1  0  0  0  0
 16 42  1  0  0  0  0
 17 18  1  0  0  0  0
 18 19  1  0  0  0  0
 18 43  1  0  0  0  0
 18 44  1  0  0  0  0
 19 24  1  0  0  0  0
 19 20  1  0  0  0  0
 19 21  1  0  0  0  0
 20 45  1  0  0  0  0
 21 22  1  0  0  0  0
 21 46  1  0  0  0  0
 21 47  1  0  0  0  0
 22 23  1  0  0  0  0
 22 48  1  0  0  0  0
 22 49  1  0  0  0  0
 23 24  1  0  0  0  0
 24 25  1  0  0  0  0
 24 50  1  0  0  0  0
 25 51  1  0  0  0  0
 25 52  1  0  0  0  0
 25 53  1  0  0  0  0
 26 27  1  0  0  0  0
 26 28  1  0  0  0  0
 27 54  1  0  0  0  0
 27 55  1  0  0  0  0
 27 56  1  0  0  0  0
 28 57  1  0  0  0  0
 28 58  1  0  0  0  0
 28 59  1  0  0  0  0
M  END
> <s_m_source_file>
AV-unprocessed.smi

> <i_m_source_file_index>
234

> <i_lp_mmshare_version>
43012

> <i_f3d_flags>
0

> <s_epik_input>
W0NIM11bQ0gyXU9bQ0BASF0oQzEoW0NIM10pW0NIM10pW0NIMl1bQ0BIXTFOKFtDSDNdKWMobltjSF1uMiljKGMyMyluW2NIXW4zW0NIMl1bQ0BAXTQoW09IXSlbQ0gyXVtDSDJdT1tDQEhdNFtDSDNd

> <s_epik_cmdline>
J2VwaWtfcHl0aG9uJywgJy1waCcsICc3LjAnLCAnLXRuJywgJzgnLCAnLW1hJywgJzIwMCcsICctbWV0YWxfYmluZGluZycsICctaW1hZScsICc8aW5maWxlLm1hZT4nLCAnLW9tYWUnLCAnPG91dGZpbGUubWFlPic=

> <r_lp_tautomer_probability>
1

> <r_epik_Ionization_Penalty>
0.00349132

> <r_epik_Ionization_Penalty_Charging>
0

> <r_epik_Ionization_Penalty_Neutral>
0.00349132

> <r_epik_State_Penalty>
0.00242418

> <r_epik_Charging_Adjusted_Penalty>
0.00242418

> <i_epik_Tot_Q>
0

> <i_epik_Tot_abs_Q>
0

> <r_epik_Metal_State_Penalty>
-0

> <b_epik_Metal_Only>
0

> <s_lp_Force_Field>
OPLS_2005

> <r_lp_Energy>
50.4374

> <b_lp_Chiralities_Consistent>
1

> <s_lp_Variant>
AV-unprocessed.smi:234-7

> <Gold.Version>
5.8.1

> <Gold.Id.Protein>
6NUR|6NUR_protein|mol2

> <Gold.PLP.Fitness>
38.0762

> <Gold.PLP.PLP>
-38.1320

> <Gold.PLP.part.hbond>
-1.0000

> <Gold.PLP.part.metal>
0.0000

> <Gold.PLP.part.buried>
-0.9172

> <Gold.PLP.part.nonpolar>
-36.2846

> <Gold.PLP.part.repulsive>
0.5172

> <Gold.PLP.ligand.clash>
0.0000

> <Gold.PLP.ligand.torsion>
1.7578

> <Gold.PLP.Chemscore.Hbond>
0.8800

> <Gold.PLP.Chemscore.CHOScore>
0.0000

> <Gold.PLP.Chemscore.Metal>
0.0000

> <Gold.Chemscore.Hbonds>
donor molecule, donor type, donor heavy atom, donor atom, acceptor molecule, acceptor atom, score
      L1  H    20    45       P1 10747  1.00

> <Gold.PLP.Chemscore.Internal.Correction>
0.8197

> <Gold.Rescore>
     Score         DG    S(hbond)    S(metal)    S(lipo)     H(rot)  DE(clash)    DE(int)     intcor
      9.49     -12.51       0.85        0.00      93.31       2.62       0.21       2.82       ----

> <Gold.Chemscore.Fitness>
9.4863

> <Gold.Chemscore.DG>
-12.5145

> <Gold.Chemscore.ZeroCoef>
-5.4800

> <Gold.Chemscore.Hbond>
0.8471

> <Gold.Chemscore.Metal>
0.0000

> <Gold.Chemscore.Lipo>
93.3097

> <Gold.Chemscore.Internal_Hbond>
0.0000

> <Gold.Chemscore.DEClash>
0.2079

> <Gold.Chemscore.DEInternal>
2.8203

> <Gold.Chemscore.Rot>
2.6219

> <Gold.Chemscore.Internal.Correction>
   9.000000E+99

> <Gold.Chemscore.Hbonds>
donor molecule, donor type, donor heavy atom, donor atom, acceptor molecule, acceptor atom, score
      L1  H    20    45       P1 10747  0.94

> <Gold.Chemscore.Hbond.Weighted>
-2.8294

> <Gold.Chemscore.Metal.Weighted>
-0.0000

> <Gold.Chemscore.Lipo.Weighted>
-10.9172

> <Gold.Chemscore.Internal_Hbond.Weighted>
0.0000

> <Gold.Chemscore.DEClash.Weighted>
0.2079

> <Gold.Chemscore.DEInternal.Weighted>
2.8203

> <Gold.Chemscore.Rot.Weighted>
6.7121

> <Gold.Chemscore.Internal.Correction.Weighted>
   9.000000E+99

> <Gold.Protein.RotatedTorsions>
[ 6907 6896 6895 6894 ] final  -77.87 input  -60.11 | X-H torsion
[ 7974 7965 7964 7962 ] final -175.98 input  175.53 | X-H torsion
[ 8008 7997 7996 7995 ] final   -7.45 input   59.86 | X-H torsion
[ 10167 10162 10161 10158 ] final  102.41 input  -65.29 | X-H torsion
[ 10718 10713 10712 10709 ] final   -3.29 input   66.30 | X-H torsion
[ 10763 10752 10751 10750 ] final  153.18 input  -60.55 | X-H torsion
[ 11005 11000 10999 10996 ] final  -81.41 input  -57.11 | X-H torsion

> <Gold.Protein.ActiveResidues>
 VAL166  LYS551  ARG553  GLY616  TRP617  ASP618  TYR619  PRO620  LYS621  CYS622 
 ASP623  PHE694  ASN695  SER759  ASP760  ASP761  ALA762  ILE779  LEU786  VAL792 
 PHE793  MET794  SER795  GLU796  ALA797  LYS798  CYS799  TRP800  GLU811  SER814 

> <Gold.Protein.RotatedAtoms>
  150.6987  134.4358  159.5268 H   0  0  0  0  0  0  0  0  0  0  0  0  # atno 6907 bound_to 6896
  152.2076  134.8528  160.0510 H   0  0  0  0  0  0  0  0  0  0  0  0  # atno 6908 bound_to 6896
  151.9425  133.3607  159.4007 H   0  0  0  0  0  0  0  0  0  0  0  0  # atno 6909 bound_to 6896
  144.7127  140.1239  143.6403 H   0  0  0  0  0  0  0  0  0  0  0  0  # atno 7974 bound_to 7965
  154.5837  140.2406  155.8018 H   0  0  0  0  0  0  0  0  0  0  0  0  # atno 8008 bound_to 7997
  156.2197  140.3001  155.9880 H   0  0  0  0  0  0  0  0  0  0  0  0  # atno 8009 bound_to 7997
  155.2496  140.0410  157.2975 H   0  0  0  0  0  0  0  0  0  0  0  0  # atno 8010 bound_to 7997
  139.7352  144.7026  151.0659 H   0  0  0  0  0  0  0  0  0  0  0  0  # atno 10167 bound_to 10162
  156.7783  130.5322  149.5755 H   0  0  0  0  0  0  0  0  0  0  0  0  # atno 10718 bound_to 10713
  154.1320  135.2826  155.3182 H   0  0  0  0  0  0  0  0  0  0  0  0  # atno 10763 bound_to 10752
  154.6348  135.5423  153.7725 H   0  0  0  0  0  0  0  0  0  0  0  0  # atno 10764 bound_to 10752
  153.0278  135.6471  154.1470 H   0  0  0  0  0  0  0  0  0  0  0  0  # atno 10765 bound_to 10752
  141.1666  133.7195  156.8418 H   0  0  0  0  0  0  0  0  0  0  0  0  # atno 11005 bound_to 11000
  145.9346  139.2629  143.1305 LP  0  0  0  0  0  0  0  0  0  0  0  0  # atno 17320 bound_to 7965
  145.9487  140.8925  143.0270 LP  0  0  0  0  0  0  0  0  0  0  0  0  # atno 17321 bound_to 7965
  140.7778  143.4992  150.9793 LP  0  0  0  0  0  0  0  0  0  0  0  0  # atno 17342 bound_to 10162
  139.8681  143.7228  152.3168 LP  0  0  0  0  0  0  0  0  0  0  0  0  # atno 17343 bound_to 10162
  156.1234  130.6126  151.0227 LP  0  0  0  0  0  0  0  0  0  0  0  0  # atno 17370 bound_to 10713
  157.6658  131.0872  150.7731 LP  0  0  0  0  0  0  0  0  0  0  0  0  # atno 17371 bound_to 10713
  140.1978  134.8919  157.3134 LP  0  0  0  0  0  0  0  0  0  0  0  0  # atno 17394 bound_to 11000
  140.2220  134.4012  155.7561 LP  0  0  0  0  0  0  0  0  0  0  0  0  # atno 17395 bound_to 11000

$$$$
