AV-unprocessed.smi:1224|AV-procd|sdf|5128|dock9
  -GOLD-   22720 4183D 1   1.00000     0.00000
 Structure written by MMmdl.
 44 46  0  0  0  0  0  0  0  0  2 V2000
  153.0502  142.8668  160.5596 C   0  0  0  0  0  0  0  0  0  0  0  0
  152.3511  142.4434  159.2798 C   0  0  0  0  0  0  0  0  0  0  0  0
  152.2402  141.0668  158.9807 C   0  0  0  0  0  0  0  0  0  0  0  0
  151.5917  140.6313  157.8044 C   0  0  0  0  0  0  0  0  0  0  0  0
  151.3685  139.3538  157.3205 N   0  0  0  0  0  0  0  0  0  0  0  0
  150.7118  139.6048  156.1919 C   0  0  0  0  0  0  0  0  0  0  0  0
  150.4763  140.8966  155.8905 N   0  0  0  0  0  0  0  0  0  0  0  0
  149.7726  141.4134  154.7303 C   0  0  0  0  0  0  0  0  0  0  0  0
  148.4212  140.7084  154.5041 C   0  0  2  0  0  0  0  0  0  0  0  0
  148.6389  139.4874  153.8225 O   0  0  0  0  0  0  0  0  0  0  0  0
  147.4541  141.5665  153.6738 C   0  0  0  0  0  0  0  0  0  0  0  0
  146.8899  142.6668  154.4845 N   0  3  0  0  0  0  0  0  0  0  0  0
  145.8339  143.4565  153.8187 C   0  0  0  0  0  0  0  0  0  0  0  0
  144.8828  144.0692  154.7951 C   0  0  0  0  0  0  0  0  0  0  0  0
  144.8144  143.8569  156.1489 C   0  0  0  0  0  0  0  0  0  0  0  0
  143.7929  144.6216  156.7850 C   0  0  0  0  0  0  0  0  0  0  0  0
  143.0946  145.4082  155.9078 C   0  0  0  0  0  0  0  0  0  0  0  0
  143.6786  145.2229  154.2772 S   0  0  0  0  0  0  0  0  0  0  0  0
  151.0515  141.6190  156.9299 C   0  0  0  0  0  0  0  0  0  0  0  0
  151.1602  142.9918  157.2135 C   0  0  0  0  0  0  0  0  0  0  0  0
  151.8118  143.4095  158.3926 C   0  0  0  0  0  0  0  0  0  0  0  0
  151.9223  144.8942  158.6916 C   0  0  0  0  0  0  0  0  0  0  0  0
  153.4449  142.0064  161.1009 H   0  0  0  0  0  0  0  0  0  0  0  0
  152.3549  143.3870  161.2186 H   0  0  0  0  0  0  0  0  0  0  0  0
  153.8841  143.5336  160.3397 H   0  0  0  0  0  0  0  0  0  0  0  0
  152.6517  140.3309  159.6559 H   0  0  0  0  0  0  0  0  0  0  0  0
  150.3743  138.8030  155.5513 H   0  0  0  0  0  0  0  0  0  0  0  0
  149.6222  142.4842  154.8740 H   0  0  0  0  0  0  0  0  0  0  0  0
  150.4134  141.3024  153.8541 H   0  0  0  0  0  0  0  0  0  0  0  0
  147.9689  140.4845  155.4715 H   0  0  0  0  0  0  0  0  0  0  0  0
  149.0305  139.6776  152.9829 H   0  0  0  0  0  0  0  0  0  0  0  0
  147.9804  142.0020  152.8233 H   0  0  0  0  0  0  0  0  0  0  0  0
  146.6561  140.9425  153.2689 H   0  0  0  0  0  0  0  0  0  0  0  0
  146.5064  142.2721  155.3318 H   0  0  0  0  0  0  0  0  0  0  0  0
  146.3136  144.2447  153.2379 H   0  0  0  0  0  0  0  0  0  0  0  0
  145.3005  142.8262  153.1058 H   0  0  0  0  0  0  0  0  0  0  0  0
  145.4573  143.1874  156.7013 H   0  0  0  0  0  0  0  0  0  0  0  0
  143.6088  144.5693  157.8480 H   0  0  0  0  0  0  0  0  0  0  0  0
  142.2763  146.0814  156.1186 H   0  0  0  0  0  0  0  0  0  0  0  0
  150.7445  143.7170  156.5301 H   0  0  0  0  0  0  0  0  0  0  0  0
  151.4432  145.4933  157.9169 H   0  0  0  0  0  0  0  0  0  0  0  0
  152.9687  145.1951  158.7474 H   0  0  0  0  0  0  0  0  0  0  0  0
  151.4425  145.1299  159.6417 H   0  0  0  0  0  0  0  0  0  0  0  0
  147.6444  143.2901  154.7342 H   0  0  0  0  0  0  0  0  0  0  0  0
  1  2  1  0  0  0  0
  1 23  1  0  0  0  0
  1 24  1  0  0  0  0
  1 25  1  0  0  0  0
  2 21  1  0  0  0  0
  2  3  2  0  0  0  0
  3  4  1  0  0  0  0
  3 26  1  0  0  0  0
  4 19  2  0  0  0  0
  4  5  1  0  0  0  0
  5  6  2  0  0  0  0
  6  7  1  0  0  0  0
  6 27  1  0  0  0  0
  7  8  1  0  0  0  0
  7 19  1  0  0  0  0
  8  9  1  0  0  0  0
  8 28  1  0  0  0  0
  8 29  1  0  0  0  0
  9 10  1  0  0  0  0
  9 11  1  0  0  0  0
  9 30  1  0  0  0  0
 10 31  1  0  0  0  0
 11 12  1  0  0  0  0
 11 32  1  0  0  0  0
 11 33  1  0  0  0  0
 12 13  1  0  0  0  0
 12 34  1  0  0  0  0
 12 44  1  0  0  0  0
 13 14  1  0  0  0  0
 13 35  1  0  0  0  0
 13 36  1  0  0  0  0
 14 18  1  0  0  0  0
 14 15  2  0  0  0  0
 15 16  1  0  0  0  0
 15 37  1  0  0  0  0
 16 17  2  0  0  0  0
 16 38  1  0  0  0  0
 17 18  1  0  0  0  0
 17 39  1  0  0  0  0
 19 20  1  0  0  0  0
 20 21  2  0  0  0  0
 20 40  1  0  0  0  0
 21 22  1  0  0  0  0
 22 41  1  0  0  0  0
 22 42  1  0  0  0  0
 22 43  1  0  0  0  0
M  CHG  1  12   1
M  END
> <s_m_source_file>
AV-unprocessed.smi

> <i_m_source_file_index>
1224

> <i_lp_mmshare_version>
43012

> <i_f3d_flags>
0

> <s_epik_input>
W0NIM11jKFtjSF0xKWMoW0NIM10pW2NIXWMoYzEyKW4oW2NIXW4yKVtDSDJdW0NASF0oW09IXSlbQ0gyXVtOSF1bQ0gyXWMzW2NIXVtjSF1bY0hdczM=

> <s_epik_cmdline>
J2VwaWtfcHl0aG9uJywgJy1waCcsICc3LjAnLCAnLXRuJywgJzgnLCAnLW1hJywgJzIwMCcsICctbWV0YWxfYmluZGluZycsICctaW1hZScsICc8aW5maWxlLm1hZT4nLCAnLW9tYWUnLCAnPG91dGZpbGUubWFlPic=

> <r_epik_Ionization_Penalty>
0.145091

> <r_epik_Ionization_Penalty_Charging>
0.0551904

> <r_epik_Ionization_Penalty_Neutral>
0.0899003

> <r_epik_State_Penalty>
0.131364

> <r_epik_Charging_Adjusted_Penalty>
0.186554

> <i_epik_Tot_Q>
1

> <i_epik_Tot_abs_Q>
1

> <r_epik_Metal_State_Penalty>
0.0472291

> <b_epik_Metal_Only>
0

> <s_lp_Force_Field>
OPLS_2005

> <r_lp_Energy>
7.24279

> <b_lp_Chiralities_Consistent>
1

> <s_lp_Variant>
AV-unprocessed.smi:1224-1

> <Gold.Version>
5.8.1

> <Gold.Id.Protein>
6NUR|6NUR_protein|mol2

> <Gold.PLP.Fitness>
56.8763

> <Gold.PLP.PLP>
-49.2167

> <Gold.PLP.part.hbond>
-2.0000

> <Gold.PLP.part.metal>
0.0000

> <Gold.PLP.part.buried>
-5.5999

> <Gold.PLP.part.nonpolar>
-41.1115

> <Gold.PLP.part.repulsive>
0.1346

> <Gold.PLP.ligand.clash>
0.0000

> <Gold.PLP.ligand.torsion>
0.6879

> <Gold.PLP.Chemscore.Hbond>
3.0000

> <Gold.PLP.Chemscore.CHOScore>
0.0000

> <Gold.PLP.Chemscore.Metal>
0.0000

> <Gold.Chemscore.Hbonds>
donor molecule, donor type, donor heavy atom, donor atom, acceptor molecule, acceptor atom, score
      L1  H    10    31       P1  7957  1.00
      L1  H    12    44       P1  8028  1.85

> <Gold.PLP.Chemscore.Internal.Correction>
0.0354

> <Gold.Rescore>
     Score         DG    S(hbond)    S(metal)    S(lipo)     H(rot)  DE(clash)    DE(int)     intcor
     19.12     -20.87       1.60        0.00     138.96       2.42       1.14       0.61       ----

> <Gold.Chemscore.Fitness>
19.1197

> <Gold.Chemscore.DG>
-20.8709

> <Gold.Chemscore.ZeroCoef>
-5.4800

> <Gold.Chemscore.Hbond>
1.5983

> <Gold.Chemscore.Metal>
0.0000

> <Gold.Chemscore.Lipo>
138.9583

> <Gold.Chemscore.Internal_Hbond>
0.0000

> <Gold.Chemscore.DEClash>
1.1376

> <Gold.Chemscore.DEInternal>
0.6136

> <Gold.Chemscore.Rot>
2.4240

> <Gold.Chemscore.Internal.Correction>
   9.000000E+99

> <Gold.Chemscore.Hbonds>
donor molecule, donor type, donor heavy atom, donor atom, acceptor molecule, acceptor atom, score
      L1  H    10    31       P1  7957  0.99
      L1  H    12    44       P1  8028  0.44

> <Gold.Chemscore.Hbond.Weighted>
-5.3383

> <Gold.Chemscore.Metal.Weighted>
-0.0000

> <Gold.Chemscore.Lipo.Weighted>
-16.2581

> <Gold.Chemscore.Internal_Hbond.Weighted>
0.0000

> <Gold.Chemscore.DEClash.Weighted>
1.1376

> <Gold.Chemscore.DEInternal.Weighted>
0.6136

> <Gold.Chemscore.Rot.Weighted>
6.2055

> <Gold.Chemscore.Internal.Correction.Weighted>
   9.000000E+99

> <Gold.Protein.RotatedTorsions>
[ 6907 6896 6895 6894 ] final  163.47 input  -60.11 | X-H torsion
[ 7974 7965 7964 7962 ] final  -74.36 input  175.53 | X-H torsion
[ 8008 7997 7996 7995 ] final  -93.79 input   59.86 | X-H torsion
[ 10167 10162 10161 10158 ] final  -71.05 input  -65.29 | X-H torsion
[ 10718 10713 10712 10709 ] final  -87.09 input   66.30 | X-H torsion
[ 10763 10752 10751 10750 ] final  123.43 input  -60.55 | X-H torsion
[ 11005 11000 10999 10996 ] final  -65.92 input  -57.11 | X-H torsion

> <Gold.Protein.ActiveResidues>
 VAL166  LYS551  ARG553  GLY616  TRP617  ASP618  TYR619  PRO620  LYS621  CYS622 
 ASP623  PHE694  ASN695  SER759  ASP760  ASP761  ALA762  ILE779  LEU786  VAL792 
 PHE793  MET794  SER795  GLU796  ALA797  LYS798  CYS799  TRP800  GLU811  SER814 

> <Gold.Protein.RotatedAtoms>
  151.9247  133.3595  159.3909 H   0  0  0  0  0  0  0  0  0  0  0  0  # atno 6907 bound_to 6896
  150.7029  134.4599  159.5385 H   0  0  0  0  0  0  0  0  0  0  0  0  # atno 6908 bound_to 6896
  152.2229  134.8396  160.0534 H   0  0  0  0  0  0  0  0  0  0  0  0  # atno 6909 bound_to 6896
  145.6402  140.9313  143.1040 H   0  0  0  0  0  0  0  0  0  0  0  0  # atno 7974 bound_to 7965
  154.7401  140.0495  157.0804 H   0  0  0  0  0  0  0  0  0  0  0  0  # atno 8008 bound_to 7997
  155.0189  140.3144  155.4782 H   0  0  0  0  0  0  0  0  0  0  0  0  # atno 8009 bound_to 7997
  156.2862  140.2170  156.5306 H   0  0  0  0  0  0  0  0  0  0  0  0  # atno 8010 bound_to 7997
  140.5304  143.2322  151.7272 H   0  0  0  0  0  0  0  0  0  0  0  0  # atno 10167 bound_to 10162
  155.9987  130.4788  150.4815 H   0  0  0  0  0  0  0  0  0  0  0  0  # atno 10718 bound_to 10713
  153.6454  135.3372  155.3084 H   0  0  0  0  0  0  0  0  0  0  0  0  # atno 10763 bound_to 10752
  154.8550  135.4328  154.1960 H   0  0  0  0  0  0  0  0  0  0  0  0  # atno 10764 bound_to 10752
  153.2890  135.7015  153.7386 H   0  0  0  0  0  0  0  0  0  0  0  0  # atno 10765 bound_to 10752
  141.1468  133.6690  156.6060 H   0  0  0  0  0  0  0  0  0  0  0  0  # atno 11005 bound_to 11000
  144.7160  139.8195  143.7398 LP  0  0  0  0  0  0  0  0  0  0  0  0  # atno 17320 bound_to 7965
  146.1287  139.4318  143.0182 LP  0  0  0  0  0  0  0  0  0  0  0  0  # atno 17321 bound_to 7965
  139.4952  144.4123  152.0067 LP  0  0  0  0  0  0  0  0  0  0  0  0  # atno 17342 bound_to 10162
  140.3225  144.3411  150.6006 LP  0  0  0  0  0  0  0  0  0  0  0  0  # atno 17343 bound_to 10162
  157.2819  131.0608  151.2192 LP  0  0  0  0  0  0  0  0  0  0  0  0  # atno 17370 bound_to 10713
  157.3235  130.6949  149.6282 LP  0  0  0  0  0  0  0  0  0  0  0  0  # atno 17371 bound_to 10713
  140.3651  134.7654  157.4561 LP  0  0  0  0  0  0  0  0  0  0  0  0  # atno 17394 bound_to 11000
  140.0754  134.5804  155.8597 LP  0  0  0  0  0  0  0  0  0  0  0  0  # atno 17395 bound_to 11000

$$$$
