AV-unprocessed.smi:255|AV-procd|sdf|1953|dock4
  -GOLD-   2262021 93D 1   1.00000     0.00000
 Structure written by MMmdl.
 44 47  0  0  0  0  0  0  0  0  1 V2000
  146.0047  133.0894  149.8484 O   0  0  0  0  0  0  0  0  0  0  0  0
  145.9687  133.7544  151.0934 C   0  0  0  0  0  0  0  0  0  0  0  0
  146.7458  132.9538  152.1556 C   0  0  2  0  0  0  0  0  0  0  0  0
  146.4803  131.4498  152.0879 C   0  0  0  0  0  0  0  0  0  0  0  0
  146.9535  130.9914  153.4625 C   0  0  2  0  0  0  0  0  0  0  0  0
  146.4040  129.8353  153.8334 F   0  0  0  0  0  0  0  0  0  0  0  0
  146.5661  132.1514  154.3848 C   0  0  0  0  0  0  0  0  0  0  0  0
  146.3721  133.3145  153.5216 N   0  0  0  0  0  0  0  0  0  0  0  0
  146.9045  134.4700  153.9762 C   0  0  0  0  0  0  0  0  0  0  0  0
  146.1957  135.6271  153.8982 N   0  0  0  0  0  0  0  0  0  0  0  0
  146.7224  136.7628  154.3663 C   0  0  0  0  0  0  0  0  0  0  0  0
  147.9136  136.9581  154.9372 N   0  0  0  0  0  0  0  0  0  0  0  0
  148.6244  135.7960  155.0147 C   0  0  0  0  0  0  0  0  0  0  0  0
  148.1944  134.5170  154.5647 C   0  0  0  0  0  0  0  0  0  0  0  0
  149.1728  133.5655  154.8190 N   0  0  0  0  0  0  0  0  0  0  0  0
  150.1331  134.2457  155.3839 C   0  0  0  0  0  0  0  0  0  0  0  0
  149.8927  135.5943  155.5314 N   0  0  0  0  0  0  0  0  0  0  0  0
  150.7866  136.5787  156.1233 C   0  0  0  0  0  0  0  0  0  0  0  0
  151.4300  137.5352  155.0897 C   0  0  2  0  0  0  0  0  0  0  0  0
  152.1419  136.7661  154.1369 O   0  0  0  0  0  0  0  0  0  0  0  0
  152.3900  138.5345  155.7388 C   0  0  0  0  0  0  0  0  0  0  0  0
  151.6352  139.8559  155.6614 C   0  0  0  0  0  0  0  0  0  0  0  0
  150.9535  139.7476  154.4248 O   0  0  0  0  0  0  0  0  0  0  0  0
  150.4121  138.4362  154.3604 C   0  0  0  0  0  0  0  0  0  0  0  0
  147.8178  133.1050  152.0130 H   0  0  0  0  0  0  0  0  0  0  0  0
  148.0362  130.8582  153.4612 H   0  0  0  0  0  0  0  0  0  0  0  0
  146.0727  133.7372  149.1637 H   0  0  0  0  0  0  0  0  0  0  0  0
  146.3498  134.7716  150.9956 H   0  0  0  0  0  0  0  0  0  0  0  0
  144.9197  133.8324  151.3804 H   0  0  0  0  0  0  0  0  0  0  0  0
  145.4124  131.2562  151.9731 H   0  0  0  0  0  0  0  0  0  0  0  0
  147.0077  130.9584  151.2697 H   0  0  0  0  0  0  0  0  0  0  0  0
  145.6151  131.9425  154.8758 H   0  0  0  0  0  0  0  0  0  0  0  0
  147.3108  132.3044  155.1673 H   0  0  0  0  0  0  0  0  0  0  0  0
  146.1004  137.6406  154.2708 H   0  0  0  0  0  0  0  0  0  0  0  0
  151.0530  133.7803  155.7069 H   0  0  0  0  0  0  0  0  0  0  0  0
  150.2241  137.1517  156.8616 H   0  0  0  0  0  0  0  0  0  0  0  0
  151.5601  136.0457  156.6781 H   0  0  0  0  0  0  0  0  0  0  0  0
  151.5537  136.5486  153.4299 H   0  0  0  0  0  0  0  0  0  0  0  0
  152.6676  138.2726  156.7606 H   0  0  0  0  0  0  0  0  0  0  0  0
  153.3128  138.6226  155.1625 H   0  0  0  0  0  0  0  0  0  0  0  0
  150.9141  139.9457  156.4757 H   0  0  0  0  0  0  0  0  0  0  0  0
  152.2958  140.7227  155.6846 H   0  0  0  0  0  0  0  0  0  0  0  0
  150.2195  138.1347  153.3301 H   0  0  0  0  0  0  0  0  0  0  0  0
  149.4551  138.4538  154.8817 H   0  0  0  0  0  0  0  0  0  0  0  0
  1  2  1  0  0  0  0
  1 27  1  0  0  0  0
  2  3  1  0  0  0  0
  2 28  1  0  0  0  0
  2 29  1  0  0  0  0
  3 25  1  0  0  0  0
  3  8  1  0  0  0  0
  3  4  1  0  0  0  0
  4  5  1  0  0  0  0
  4 30  1  0  0  0  0
  4 31  1  0  0  0  0
  5 26  1  0  0  0  0
  5  6  1  0  0  0  0
  5  7  1  0  0  0  0
  7  8  1  0  0  0  0
  7 32  1  0  0  0  0
  7 33  1  0  0  0  0
  8  9  1  0  0  0  0
  9 14  1  0  0  0  0
  9 10  2  0  0  0  0
 10 11  1  0  0  0  0
 11 12  2  0  0  0  0
 11 34  1  0  0  0  0
 12 13  1  0  0  0  0
 13 17  1  0  0  0  0
 13 14  2  0  0  0  0
 14 15  1  0  0  0  0
 15 16  2  0  0  0  0
 16 17  1  0  0  0  0
 16 35  1  0  0  0  0
 17 18  1  0  0  0  0
 18 19  1  0  0  0  0
 18 36  1  0  0  0  0
 18 37  1  0  0  0  0
 19 24  1  0  0  0  0
 19 20  1  0  0  0  0
 19 21  1  0  0  0  0
 20 38  1  0  0  0  0
 21 22  1  0  0  0  0
 21 39  1  0  0  0  0
 21 40  1  0  0  0  0
 22 23  1  0  0  0  0
 22 41  1  0  0  0  0
 22 42  1  0  0  0  0
 23 24  1  0  0  0  0
 24 43  1  0  0  0  0
 24 44  1  0  0  0  0
M  END
> <s_m_source_file>
AV-unprocessed.smi

> <i_m_source_file_index>
255

> <i_lp_mmshare_version>
43012

> <i_f3d_flags>
0

> <s_epik_input>
W09IXVtDSDJdW0NAQEhdMVtDSDJdW0NASF0oRilbQ0gyXU4xYyhuW2NIXW4yKWMoYzIzKW5bY0hdbjNbQ0gyXVtDQEBdNChbT0hdKVtDSDJdW0NIMl1PW0NIMl00

> <s_epik_cmdline>
J2VwaWtfcHl0aG9uJywgJy1waCcsICc3LjAnLCAnLXRuJywgJzgnLCAnLW1hJywgJzIwMCcsICctbWV0YWxfYmluZGluZycsICctaW1hZScsICc8aW5maWxlLm1hZT4nLCAnLW9tYWUnLCAnPG91dGZpbGUubWFlPic=

> <r_lp_tautomer_probability>
1

> <r_epik_Ionization_Penalty>
0.0058098

> <r_epik_Ionization_Penalty_Charging>
0

> <r_epik_Ionization_Penalty_Neutral>
0.0058098

> <r_epik_State_Penalty>
0.00411166

> <r_epik_Charging_Adjusted_Penalty>
0.00411166

> <i_epik_Tot_Q>
0

> <i_epik_Tot_abs_Q>
0

> <r_epik_Metal_State_Penalty>
-0

> <b_epik_Metal_Only>
0

> <s_lp_Force_Field>
OPLS_2005

> <r_lp_Energy>
52.96

> <b_lp_Chiralities_Consistent>
1

> <s_lp_Variant>
AV-unprocessed.smi:255-5

> <Gold.Version>
5.8.1

> <Gold.Id.Protein>
6NUR|6NUR_protein|mol2

> <Gold.PLP.Fitness>
43.3680

> <Gold.PLP.PLP>
-33.5556

> <Gold.PLP.part.hbond>
-3.9859

> <Gold.PLP.part.metal>
0.0000

> <Gold.PLP.part.buried>
-3.6498

> <Gold.PLP.part.nonpolar>
-25.4316

> <Gold.PLP.part.repulsive>
0.4619

> <Gold.PLP.ligand.clash>
0.0000

> <Gold.PLP.ligand.torsion>
0.8984

> <Gold.PLP.Chemscore.Hbond>
3.8400

> <Gold.PLP.Chemscore.CHOScore>
0.0000

> <Gold.PLP.Chemscore.Metal>
0.0000

> <Gold.Chemscore.Hbonds>
donor molecule, donor type, donor heavy atom, donor atom, acceptor molecule, acceptor atom, score
      L1  H     1    27       P1  7921  0.55
      L1  H    20    38       P1  7949  0.94
      P1  H  7989  7998       L1    23  1.00
      P1  H 10752 10764       L1    20  0.57

> <Gold.PLP.Chemscore.Internal.Correction>
0.0892

> <Gold.Rescore>
     Score         DG    S(hbond)    S(metal)    S(lipo)     H(rot)  DE(clash)    DE(int)     intcor
     13.04     -14.83       3.18        0.00      62.03       3.33       0.00       1.79       ----

> <Gold.Chemscore.Fitness>
13.0358

> <Gold.Chemscore.DG>
-14.8306

> <Gold.Chemscore.ZeroCoef>
-5.4800

> <Gold.Chemscore.Hbond>
3.1769

> <Gold.Chemscore.Metal>
0.0000

> <Gold.Chemscore.Lipo>
62.0324

> <Gold.Chemscore.Internal_Hbond>
0.0000

> <Gold.Chemscore.DEClash>
0.0038

> <Gold.Chemscore.DEInternal>
1.7910

> <Gold.Chemscore.Rot>
3.3273

> <Gold.Chemscore.Internal.Correction>
   9.000000E+99

> <Gold.Chemscore.Hbonds>
donor molecule, donor type, donor heavy atom, donor atom, acceptor molecule, acceptor atom, score
      L1  H     1    27       P1  7921  0.03
      L1  H    20    38       P1  7949  0.78
      P1  H  7989  7998       L1    23  0.49
      P1  H 10752 10764       L1    20  0.22

> <Gold.Chemscore.Hbond.Weighted>
-10.6107

> <Gold.Chemscore.Metal.Weighted>
-0.0000

> <Gold.Chemscore.Lipo.Weighted>
-7.2578

> <Gold.Chemscore.Internal_Hbond.Weighted>
0.0000

> <Gold.Chemscore.DEClash.Weighted>
0.0038

> <Gold.Chemscore.DEInternal.Weighted>
1.7910

> <Gold.Chemscore.Rot.Weighted>
8.5179

> <Gold.Chemscore.Internal.Correction.Weighted>
   9.000000E+99

> <Gold.Protein.RotatedTorsions>
[ 6907 6896 6895 6894 ] final  109.94 input  -60.11 | X-H torsion
[ 7974 7965 7964 7962 ] final  149.20 input  175.53 | X-H torsion
[ 8008 7997 7996 7995 ] final   40.59 input   59.86 | X-H torsion
[ 10167 10162 10161 10158 ] final  -68.07 input  -65.29 | X-H torsion
[ 10718 10713 10712 10709 ] final -149.38 input   66.30 | X-H torsion
[ 10763 10752 10751 10750 ] final  -83.13 input  -60.55 | X-H torsion
[ 11005 11000 10999 10996 ] final  -35.95 input  -57.11 | X-H torsion

> <Gold.Protein.ActiveResidues>
 VAL166  LYS551  ARG553  GLY616  TRP617  ASP618  TYR619  PRO620  LYS621  CYS622 
 ASP623  PHE694  ASN695  SER759  ASP760  ASP761  ALA762  ILE779  LEU786  VAL792 
 PHE793  MET794  SER795  GLU796  ALA797  LYS798  CYS799  TRP800  GLU811  SER814 

> <Gold.Protein.RotatedAtoms>
  152.5043  133.8872  159.7375 H   0  0  0  0  0  0  0  0  0  0  0  0  # atno 6907 bound_to 6896
  150.9320  133.6747  159.2815 H   0  0  0  0  0  0  0  0  0  0  0  0  # atno 6908 bound_to 6896
  151.4089  135.0987  159.9631 H   0  0  0  0  0  0  0  0  0  0  0  0  # atno 6909 bound_to 6896
  144.8456  139.6250  143.5997 H   0  0  0  0  0  0  0  0  0  0  0  0  # atno 7974 bound_to 7965
  155.2556  140.3355  155.4278 H   0  0  0  0  0  0  0  0  0  0  0  0  # atno 8008 bound_to 7997
  156.2197  140.1804  156.7549 H   0  0  0  0  0  0  0  0  0  0  0  0  # atno 8009 bound_to 7997
  154.5806  140.0654  156.9083 H   0  0  0  0  0  0  0  0  0  0  0  0  # atno 8010 bound_to 7997
  140.5535  143.2312  151.6866 H   0  0  0  0  0  0  0  0  0  0  0  0  # atno 10167 bound_to 10162
  156.4324  130.8082  151.2309 H   0  0  0  0  0  0  0  0  0  0  0  0  # atno 10718 bound_to 10713
  154.5841  135.5567  153.7214 H   0  0  0  0  0  0  0  0  0  0  0  0  # atno 10763 bound_to 10752
  153.0092  135.6327  154.1941 H   0  0  0  0  0  0  0  0  0  0  0  0  # atno 10764 bound_to 10752
  154.1882  135.2883  155.3010 H   0  0  0  0  0  0  0  0  0  0  0  0  # atno 10765 bound_to 10752
  140.9836  133.7042  156.1727 H   0  0  0  0  0  0  0  0  0  0  0  0  # atno 11005 bound_to 11000
  146.2741  139.6708  142.9275 LP  0  0  0  0  0  0  0  0  0  0  0  0  # atno 17320 bound_to 7965
  145.4604  141.0432  143.2754 LP  0  0  0  0  0  0  0  0  0  0  0  0  # atno 17321 bound_to 7965
  139.5037  144.3779  152.0405 LP  0  0  0  0  0  0  0  0  0  0  0  0  # atno 17342 bound_to 10162
  140.2899  144.3766  150.6092 LP  0  0  0  0  0  0  0  0  0  0  0  0  # atno 17343 bound_to 10162
  157.7508  131.0194  150.3666 LP  0  0  0  0  0  0  0  0  0  0  0  0  # atno 17370 bound_to 10713
  156.4006  130.3915  149.6962 LP  0  0  0  0  0  0  0  0  0  0  0  0  # atno 17371 bound_to 10713
  140.7148  134.4422  157.5579 LP  0  0  0  0  0  0  0  0  0  0  0  0  # atno 17394 bound_to 11000
  139.8961  134.8668  156.2103 LP  0  0  0  0  0  0  0  0  0  0  0  0  # atno 17395 bound_to 11000

$$$$
