AV-unprocessed.smi:3271|AV-procd|sdf|12516|dock6
  -GOLD-   2272018423D 1   1.00000     0.00000
 Structure written by MMmdl.
 41 41  0  0  0  0  0  0  0  0  1 V2000
  151.6954  144.0764  158.5725 C   0  0  0  0  0  0  0  0  0  0  0  0
  152.3697  142.7523  158.1797 C   0  0  0  0  0  0  0  0  0  0  0  0
  152.1269  141.5927  159.1725 C   0  0  0  0  0  0  0  0  0  0  0  0
  152.9920  141.7737  160.4410 C   0  0  0  0  0  0  0  0  0  0  0  0
  152.7367  143.0809  161.2073 C   0  0  0  0  0  0  0  0  0  0  0  0
  152.3764  140.2279  158.5079 C   0  0  0  0  0  0  0  0  0  0  0  0
  153.5250  139.8237  158.3275 O   0  0  0  0  0  0  0  0  0  0  0  0
  151.2868  139.5300  158.1548 N   0  0  0  0  0  0  0  0  0  0  0  0
  151.2920  138.2116  157.5253 C   0  0  0  0  0  0  0  0  0  0  0  0
  151.4253  138.2479  155.9784 C   0  0  1  0  0  0  0  0  0  0  0  0
  152.7862  138.8435  155.5788 C   0  0  0  0  0  0  0  0  0  0  0  0
  151.4809  136.9034  155.5417 O   0  0  0  0  0  0  0  0  0  0  0  0
  150.3108  139.0178  155.2976 C   0  0  0  0  0  0  0  0  0  0  0  0
  149.3081  138.5232  154.4122 C   0  0  0  0  0  0  0  0  0  0  0  0
  148.4715  139.4611  153.9995 N   0  0  0  0  0  0  0  0  0  0  0  0
  148.9152  140.5882  154.5902 N   0  0  0  0  0  0  0  0  0  0  0  0
  148.2209  141.8366  154.3593 C   0  0  0  0  0  0  0  0  0  0  0  0
  150.0259  140.3539  155.3703 C   0  0  0  0  0  0  0  0  0  0  0  0
  151.9632  144.8672  157.8714 H   0  0  0  0  0  0  0  0  0  0  0  0
  152.0070  144.3965  159.5671 H   0  0  0  0  0  0  0  0  0  0  0  0
  150.6083  143.9936  158.5705 H   0  0  0  0  0  0  0  0  0  0  0  0
  152.0428  142.4632  157.1798 H   0  0  0  0  0  0  0  0  0  0  0  0
  153.4425  142.9313  158.0994 H   0  0  0  0  0  0  0  0  0  0  0  0
  151.0813  141.6371  159.4829 H   0  0  0  0  0  0  0  0  0  0  0  0
  152.8510  140.9279  161.1154 H   0  0  0  0  0  0  0  0  0  0  0  0
  154.0441  141.7516  160.1546 H   0  0  0  0  0  0  0  0  0  0  0  0
  153.4502  143.1954  162.0235 H   0  0  0  0  0  0  0  0  0  0  0  0
  151.7395  143.0970  161.6456 H   0  0  0  0  0  0  0  0  0  0  0  0
  152.8339  143.9500  160.5563 H   0  0  0  0  0  0  0  0  0  0  0  0
  150.3835  139.9391  158.3440 H   0  0  0  0  0  0  0  0  0  0  0  0
  152.1696  137.7132  157.9384 H   0  0  0  0  0  0  0  0  0  0  0  0
  150.4381  137.6114  157.8462 H   0  0  0  0  0  0  0  0  0  0  0  0
  152.8653  139.8883  155.8817 H   0  0  0  0  0  0  0  0  0  0  0  0
  152.9358  138.8045  154.4989 H   0  0  0  0  0  0  0  0  0  0  0  0
  153.6114  138.3045  156.0460 H   0  0  0  0  0  0  0  0  0  0  0  0
  151.0334  136.3644  156.1769 H   0  0  0  0  0  0  0  0  0  0  0  0
  149.1575  137.5109  154.0674 H   0  0  0  0  0  0  0  0  0  0  0  0
  148.8438  142.6739  154.6753 H   0  0  0  0  0  0  0  0  0  0  0  0
  147.2913  141.8494  154.9290 H   0  0  0  0  0  0  0  0  0  0  0  0
  147.9934  141.9469  153.2984 H   0  0  0  0  0  0  0  0  0  0  0  0
  150.5138  141.1469  155.9175 H   0  0  0  0  0  0  0  0  0  0  0  0
  1  2  1  0  0  0  0
  1 19  1  0  0  0  0
  1 20  1  0  0  0  0
  1 21  1  0  0  0  0
  2  3  1  0  0  0  0
  2 22  1  0  0  0  0
  2 23  1  0  0  0  0
  3  4  1  0  0  0  0
  3  6  1  0  0  0  0
  3 24  1  0  0  0  0
  4  5  1  0  0  0  0
  4 25  1  0  0  0  0
  4 26  1  0  0  0  0
  5 27  1  0  0  0  0
  5 28  1  0  0  0  0
  5 29  1  0  0  0  0
  6  7  2  0  0  0  0
  6  8  1  0  0  0  0
  8  9  1  0  0  0  0
  8 30  1  0  0  0  0
  9 10  1  0  0  0  0
  9 31  1  0  0  0  0
  9 32  1  0  0  0  0
 10 11  1  0  0  0  0
 10 12  1  0  0  0  0
 10 13  1  0  0  0  0
 11 33  1  0  0  0  0
 11 34  1  0  0  0  0
 11 35  1  0  0  0  0
 12 36  1  0  0  0  0
 13 18  2  0  0  0  0
 13 14  1  0  0  0  0
 14 15  2  0  0  0  0
 14 37  1  0  0  0  0
 15 16  1  0  0  0  0
 16 17  1  0  0  0  0
 16 18  1  0  0  0  0
 17 38  1  0  0  0  0
 17 39  1  0  0  0  0
 17 40  1  0  0  0  0
 18 41  1  0  0  0  0
M  END
> <s_m_source_file>
AV-unprocessed.smi

> <i_m_source_file_index>
3271

> <i_lp_mmshare_version>
43012

> <i_f3d_flags>
0

> <s_epik_input>
W0NIM11bQ0gyXVtDSF0oW0NIMl1bQ0gzXSlDKD1PKVtOSF1bQ0gyXVtDQEBdKFtDSDNdKShbT0hdKWMxW2NIXW5uKFtDSDNdKVtjSF0x

> <s_epik_cmdline>
J2VwaWtfcHl0aG9uJywgJy1waCcsICc3LjAnLCAnLXRuJywgJzgnLCAnLW1hJywgJzIwMCcsICctbWV0YWxfYmluZGluZycsICctaW1hZScsICc8aW5maWxlLm1hZT4nLCAnLW9tYWUnLCAnPG91dGZpbGUubWFlPic=

> <r_lp_tautomer_probability>
1

> <r_epik_Ionization_Penalty>
6.03488e-05

> <r_epik_Ionization_Penalty_Charging>
0

> <r_epik_Ionization_Penalty_Neutral>
6.03488e-05

> <r_epik_State_Penalty>
-0

> <r_epik_Charging_Adjusted_Penalty>
0

> <i_epik_Tot_Q>
0

> <i_epik_Tot_abs_Q>
0

> <r_epik_Metal_State_Penalty>
-0

> <b_epik_Metal_Only>
0

> <s_lp_Force_Field>
OPLS_2005

> <r_lp_Energy>
0.472609

> <b_lp_Chiralities_Consistent>
1

> <s_lp_Variant>
AV-unprocessed.smi:3271-1

> <Gold.Version>
5.8.1

> <Gold.Id.Protein>
6NUR|6NUR_protein|mol2

> <Gold.PLP.Fitness>
40.8598

> <Gold.PLP.PLP>
-33.2787

> <Gold.PLP.part.hbond>
-2.0000

> <Gold.PLP.part.metal>
0.0000

> <Gold.PLP.part.buried>
-2.7874

> <Gold.PLP.part.nonpolar>
-29.5694

> <Gold.PLP.part.repulsive>
1.4549

> <Gold.PLP.ligand.clash>
0.0000

> <Gold.PLP.ligand.torsion>
0.7914

> <Gold.PLP.Chemscore.Hbond>
2.0000

> <Gold.PLP.Chemscore.CHOScore>
1.0000

> <Gold.PLP.Chemscore.Metal>
0.0000

> <Gold.Chemscore.Hbonds>
donor molecule, donor type, donor heavy atom, donor atom, acceptor molecule, acceptor atom, score
      P1  H  7997  8008       L1     7  1.00
      P1  H 10752 10764       L1    12  0.60
      L1  C    14    37       P1  7948  0.98

> <Gold.PLP.Chemscore.Internal.Correction>
0.1639

> <Gold.Rescore>
     Score         DG    S(hbond)    S(metal)    S(lipo)     H(rot)  DE(clash)    DE(int)     intcor
     13.52     -15.90       1.79        0.00      89.01       2.33       0.59       1.79       ----

> <Gold.Chemscore.Fitness>
13.5208

> <Gold.Chemscore.DG>
-15.9003

> <Gold.Chemscore.ZeroCoef>
-5.4800

> <Gold.Chemscore.Hbond>
1.7909

> <Gold.Chemscore.Metal>
0.0000

> <Gold.Chemscore.Lipo>
89.0082

> <Gold.Chemscore.Internal_Hbond>
0.0000

> <Gold.Chemscore.DEClash>
0.5912

> <Gold.Chemscore.DEInternal>
1.7883

> <Gold.Chemscore.Rot>
2.3341

> <Gold.Chemscore.Internal.Correction>
   9.000000E+99

> <Gold.Chemscore.Hbonds>
donor molecule, donor type, donor heavy atom, donor atom, acceptor molecule, acceptor atom, score
      P1  H  7997  8008       L1     7  0.99
      P1  H 10752 10764       L1    12  0.36

> <Gold.Chemscore.Hbond.Weighted>
-5.9816

> <Gold.Chemscore.Metal.Weighted>
-0.0000

> <Gold.Chemscore.Lipo.Weighted>
-10.4140

> <Gold.Chemscore.Internal_Hbond.Weighted>
0.0000

> <Gold.Chemscore.DEClash.Weighted>
0.5912

> <Gold.Chemscore.DEInternal.Weighted>
1.7883

> <Gold.Chemscore.Rot.Weighted>
5.9753

> <Gold.Chemscore.Internal.Correction.Weighted>
   9.000000E+99

> <Gold.Protein.RotatedTorsions>
[ 6907 6896 6895 6894 ] final   21.61 input  -60.11 | X-H torsion
[ 7974 7965 7964 7962 ] final    3.36 input  175.53 | X-H torsion
[ 8008 7997 7996 7995 ] final  -94.97 input   59.86 | X-H torsion
[ 10167 10162 10161 10158 ] final -146.43 input  -65.29 | X-H torsion
[ 10718 10713 10712 10709 ] final -174.42 input   66.30 | X-H torsion
[ 10763 10752 10751 10750 ] final  -64.02 input  -60.55 | X-H torsion
[ 11005 11000 10999 10996 ] final   12.89 input  -57.11 | X-H torsion

> <Gold.Protein.ActiveResidues>
 VAL166  LYS551  ARG553  GLY616  TRP617  ASP618  TYR619  PRO620  LYS621  CYS622 
 ASP623  PHE694  ASN695  SER759  ASP760  ASP761  ALA762  ILE779  LEU786  VAL792 
 PHE793  MET794  SER795  GLU796  ALA797  LYS798  CYS799  TRP800  GLU811  SER814 

> <Gold.Protein.RotatedAtoms>
  151.9145  135.0325  160.0516 H   0  0  0  0  0  0  0  0  0  0  0  0  # atno 6907 bound_to 6896
  152.2251  133.5009  159.5193 H   0  0  0  0  0  0  0  0  0  0  0  0  # atno 6908 bound_to 6896
  150.7010  134.1207  159.4076 H   0  0  0  0  0  0  0  0  0  0  0  0  # atno 6909 bound_to 6896
  146.2445  140.0696  142.8363 H   0  0  0  0  0  0  0  0  0  0  0  0  # atno 7974 bound_to 7965
  154.7552  140.0484  157.0927 H   0  0  0  0  0  0  0  0  0  0  0  0  # atno 8008 bound_to 7997
  155.0006  140.3124  155.4849 H   0  0  0  0  0  0  0  0  0  0  0  0  # atno 8009 bound_to 7997
  156.2893  140.2202  156.5116 H   0  0  0  0  0  0  0  0  0  0  0  0  # atno 8010 bound_to 7997
  139.7714  143.8233  152.2625 H   0  0  0  0  0  0  0  0  0  0  0  0  # atno 10167 bound_to 10162
  156.7848  130.9496  151.3120 H   0  0  0  0  0  0  0  0  0  0  0  0  # atno 10718 bound_to 10713
  154.3239  135.6190  153.5520 H   0  0  0  0  0  0  0  0  0  0  0  0  # atno 10763 bound_to 10752
  152.9817  135.5730  154.5039 H   0  0  0  0  0  0  0  0  0  0  0  0  # atno 10764 bound_to 10752
  154.4712  135.2859  155.1618 H   0  0  0  0  0  0  0  0  0  0  0  0  # atno 10765 bound_to 10752
  140.4869  134.0879  155.7762 H   0  0  0  0  0  0  0  0  0  0  0  0  # atno 11005 bound_to 11000
  145.0828  140.9232  143.4815 LP  0  0  0  0  0  0  0  0  0  0  0  0  # atno 17320 bound_to 7965
  145.0853  139.2930  143.5763 LP  0  0  0  0  0  0  0  0  0  0  0  0  # atno 17321 bound_to 7965
  139.8268  144.7271  150.9501 LP  0  0  0  0  0  0  0  0  0  0  0  0  # atno 17342 bound_to 10162
  140.7814  143.4107  151.0998 LP  0  0  0  0  0  0  0  0  0  0  0  0  # atno 17343 bound_to 10162
  157.6629  130.8982  149.9868 LP  0  0  0  0  0  0  0  0  0  0  0  0  # atno 17370 bound_to 10713
  156.1195  130.3646  149.9911 LP  0  0  0  0  0  0  0  0  0  0  0  0  # atno 17371 bound_to 10713
  141.1504  133.8980  157.2113 LP  0  0  0  0  0  0  0  0  0  0  0  0  # atno 17394 bound_to 11000
  139.9793  135.0103  156.9709 LP  0  0  0  0  0  0  0  0  0  0  0  0  # atno 17395 bound_to 11000

$$$$
