AV-unprocessed.smi:37|AV-procd|sdf|305|dock10
  -GOLD-   2262016113D 1   1.00000     0.00000
 Structure written by MMmdl.
 44 45  0  0  0  0  0  0  0  0  1 V2000
  147.3492  133.8789  161.6701 C   0  0  0  0  0  0  0  0  0  0  0  0
  147.2337  135.1670  162.4964 C   0  0  0  0  0  0  0  0  0  0  0  0
  147.4532  136.4210  161.6525 C   0  0  0  0  0  0  0  0  0  0  0  0
  147.2438  137.5453  162.1080 O   0  0  0  0  0  0  0  0  0  0  0  0
  147.8687  136.1422  160.4075 O   0  0  0  0  0  0  0  0  0  0  0  0
  147.9199  137.1725  159.4346 C   0  0  0  0  0  0  0  0  0  0  0  0
  148.4989  136.6062  158.1325 C   0  0  2  0  0  0  0  0  0  0  0  0
  149.7571  135.9707  158.3611 O   0  0  0  0  0  0  0  0  0  0  0  0
  150.6418  136.2366  157.3085 C   0  0  2  0  0  0  0  0  0  0  0  0
  151.7851  137.0973  157.8081 N   0  0  0  0  0  0  0  0  0  0  0  0
  151.5836  138.3489  158.3785 C   0  0  0  0  0  0  0  0  0  0  0  0
  152.5980  139.1300  158.8194 C   0  0  0  0  0  0  0  0  0  0  0  0
  152.3246  140.3300  159.3593 F   0  0  0  0  0  0  0  0  0  0  0  0
  153.9837  138.6839  158.7122 C   0  0  0  0  0  0  0  0  0  0  0  0
  154.9682  139.3203  159.0824 O   0  0  0  0  0  0  0  0  0  0  0  0
  154.1397  137.4224  158.1311 N   0  0  0  0  0  0  0  0  0  0  0  0
  153.1037  136.6081  157.6716 C   0  0  0  0  0  0  0  0  0  0  0  0
  153.3574  135.5155  157.1661 O   0  0  0  0  0  0  0  0  0  0  0  0
  149.8519  136.9871  156.2313 C   0  0  1  0  0  0  0  0  0  0  0  0
  149.0572  135.6650  154.9644 Br  0  0  0  0  0  0  0  0  0  0  0  0
  148.7741  137.6615  157.0626 C   0  0  1  0  0  0  0  0  0  0  0  0
  147.6066  137.9674  156.3126 O   0  0  0  0  0  0  0  0  0  0  0  0
  147.6406  138.9206  155.3663 C   0  0  0  0  0  0  0  0  0  0  0  0
  148.5762  139.6907  155.1495 O   0  0  0  0  0  0  0  0  0  0  0  0
  146.3615  138.9660  154.5345 C   0  0  0  0  0  0  0  0  0  0  0  0
  146.6484  138.8589  153.0304 C   0  0  0  0  0  0  0  0  0  0  0  0
  155.0820  137.0726  158.0333 H   0  0  0  0  0  0  0  0  0  0  0  0
  147.2326  133.0029  162.3083 H   0  0  0  0  0  0  0  0  0  0  0  0
  148.3219  133.8058  161.1828 H   0  0  0  0  0  0  0  0  0  0  0  0
  146.5805  133.8271  160.8984 H   0  0  0  0  0  0  0  0  0  0  0  0
  146.2512  135.2252  162.9645 H   0  0  0  0  0  0  0  0  0  0  0  0
  147.9665  135.1541  163.3037 H   0  0  0  0  0  0  0  0  0  0  0  0
  146.9239  137.5838  159.2682 H   0  0  0  0  0  0  0  0  0  0  0  0
  148.5534  137.9809  159.8018 H   0  0  0  0  0  0  0  0  0  0  0  0
  147.8307  135.8406  157.7346 H   0  0  0  0  0  0  0  0  0  0  0  0
  151.1020  135.3085  156.9642 H   0  0  0  0  0  0  0  0  0  0  0  0
  150.5843  138.7401  158.4853 H   0  0  0  0  0  0  0  0  0  0  0  0
  150.4681  137.6813  155.6589 H   0  0  0  0  0  0  0  0  0  0  0  0
  149.1834  138.5513  157.5447 H   0  0  0  0  0  0  0  0  0  0  0  0
  145.7082  138.1508  154.8465 H   0  0  0  0  0  0  0  0  0  0  0  0
  145.8339  139.8955  154.7496 H   0  0  0  0  0  0  0  0  0  0  0  0
  145.7190  138.8510  152.4613 H   0  0  0  0  0  0  0  0  0  0  0  0
  147.1883  137.9412  152.7944 H   0  0  0  0  0  0  0  0  0  0  0  0
  147.2441  139.7008  152.6762 H   0  0  0  0  0  0  0  0  0  0  0  0
  1  2  1  0  0  0  0
  1 28  1  0  0  0  0
  1 29  1  0  0  0  0
  1 30  1  0  0  0  0
  2  3  1  0  0  0  0
  2 31  1  0  0  0  0
  2 32  1  0  0  0  0
  3  4  2  0  0  0  0
  3  5  1  0  0  0  0
  5  6  1  0  0  0  0
  6  7  1  0  0  0  0
  6 33  1  0  0  0  0
  6 34  1  0  0  0  0
  7 21  1  0  0  0  0
  7  8  1  0  0  0  0
  7 35  1  0  0  0  0
  8  9  1  0  0  0  0
  9 10  1  0  0  0  0
  9 19  1  0  0  0  0
  9 36  1  0  0  0  0
 10 17  1  0  0  0  0
 10 11  1  0  0  0  0
 11 12  2  0  0  0  0
 11 37  1  0  0  0  0
 12 13  1  0  0  0  0
 12 14  1  0  0  0  0
 14 15  2  0  0  0  0
 14 16  1  0  0  0  0
 16 27  1  0  0  0  0
 16 17  1  0  0  0  0
 17 18  2  0  0  0  0
 19 20  1  0  0  0  0
 19 21  1  0  0  0  0
 19 38  1  0  0  0  0
 21 22  1  0  0  0  0
 21 39  1  0  0  0  0
 22 23  1  0  0  0  0
 23 24  2  0  0  0  0
 23 25  1  0  0  0  0
 25 26  1  0  0  0  0
 25 40  1  0  0  0  0
 25 41  1  0  0  0  0
 26 42  1  0  0  0  0
 26 43  1  0  0  0  0
 26 44  1  0  0  0  0
M  END
> <s_m_source_file>
AV-unprocessed.smi

> <i_m_source_file_index>
37

> <i_lp_mmshare_version>
43012

> <i_f3d_flags>
0

> <s_epik_input>
W0NIM11bQ0gyXUMoPU8pT1tDSDJdW0NAQEhdMU9bQ0BASF0objJbY0hdYyhGKWMoPU8pW25IXWMyPU8pW0NAQEhdKEJyKVtDQEhdMU9DKD1PKVtDSDJdW0NIM10=

> <s_epik_cmdline>
J2VwaWtfcHl0aG9uJywgJy1waCcsICc3LjAnLCAnLXRuJywgJzgnLCAnLW1hJywgJzIwMCcsICctbWV0YWxfYmluZGluZycsICctaW1hZScsICc8aW5maWxlLm1hZT4nLCAnLW9tYWUnLCAnPG91dGZpbGUubWFlPic=

> <r_lp_tautomer_probability>
0.999537

> <r_epik_Ionization_Penalty>
0.104106

> <r_epik_Ionization_Penalty_Charging>
0.104106

> <r_epik_Ionization_Penalty_Neutral>
3.94675e-16

> <r_epik_State_Penalty>
0.0940182

> <r_epik_Charging_Adjusted_Penalty>
0.198124

> <i_epik_Tot_Q>
0

> <i_epik_Tot_abs_Q>
0

> <r_epik_Metal_State_Penalty>
3.05314

> <b_epik_Metal_Only>
0

> <s_epik_Chemistry_Notes>
This compound has an ester and may undergo hydrolysis at high or low pH. This compound contains an acetal/aminal-like group ( X-CH(R)-Y where X, Y are N, S, or O) that may be acid/base labile, releasing an aldehyde.

> <s_lp_Force_Field>
OPLS_2005

> <r_lp_Energy>
22.9743

> <b_lp_Chiralities_Consistent>
1

> <s_lp_Variant>
AV-unprocessed.smi:37-3

> <Gold.Version>
5.8.1

> <Gold.Id.Protein>
6NUR|6NUR_protein|mol2

> <Gold.PLP.Fitness>
42.5677

> <Gold.PLP.PLP>
-29.8228

> <Gold.PLP.part.hbond>
-5.0000

> <Gold.PLP.part.metal>
0.0000

> <Gold.PLP.part.buried>
-4.3118

> <Gold.PLP.part.nonpolar>
-20.4715

> <Gold.PLP.part.repulsive>
0.1917

> <Gold.PLP.ligand.clash>
0.0000

> <Gold.PLP.ligand.torsion>
0.3057

> <Gold.PLP.Chemscore.Hbond>
4.3920

> <Gold.PLP.Chemscore.CHOScore>
0.0000

> <Gold.PLP.Chemscore.Metal>
0.0000

> <Gold.Chemscore.Hbonds>
donor molecule, donor type, donor heavy atom, donor atom, acceptor molecule, acceptor atom, score
      P1  H  6896  6909       L1     8  1.00
      P1  H  6931  6943       L1     4  0.64
      P1  H  6934  6947       L1     4  0.62
      P1  H  7997  8008       L1    15  0.65
      P1  H 10752 10765       L1    18  1.00

> <Gold.PLP.Chemscore.Internal.Correction>
0.1802

> <Gold.Rescore>
     Score         DG    S(hbond)    S(metal)    S(lipo)     H(rot)  DE(clash)    DE(int)     intcor
     13.22     -13.90       3.50        0.00      44.91       3.33       0.19       0.49       ----

> <Gold.Chemscore.Fitness>
13.2203

> <Gold.Chemscore.DG>
-13.8981

> <Gold.Chemscore.ZeroCoef>
-5.4800

> <Gold.Chemscore.Hbond>
3.4997

> <Gold.Chemscore.Metal>
0.0000

> <Gold.Chemscore.Lipo>
44.9112

> <Gold.Chemscore.Internal_Hbond>
0.0000

> <Gold.Chemscore.DEClash>
0.1889

> <Gold.Chemscore.DEInternal>
0.4889

> <Gold.Chemscore.Rot>
3.3303

> <Gold.Chemscore.Internal.Correction>
   9.000000E+99

> <Gold.Chemscore.Hbonds>
donor molecule, donor type, donor heavy atom, donor atom, acceptor molecule, acceptor atom, score
      P1  H  6896  6909       L1     8  0.51
      P1  H  6931  6943       L1     4  0.14
      P1  H  6934  6947       L1     4  0.61
      P1  H  7997  8008       L1    15  0.06
      P1  H 10752 10765       L1    18  0.99

> <Gold.Chemscore.Hbond.Weighted>
-11.6891

> <Gold.Chemscore.Metal.Weighted>
-0.0000

> <Gold.Chemscore.Lipo.Weighted>
-5.2546

> <Gold.Chemscore.Internal_Hbond.Weighted>
0.0000

> <Gold.Chemscore.DEClash.Weighted>
0.1889

> <Gold.Chemscore.DEInternal.Weighted>
0.4889

> <Gold.Chemscore.Rot.Weighted>
8.5256

> <Gold.Chemscore.Internal.Correction.Weighted>
   9.000000E+99

> <Gold.Protein.RotatedTorsions>
[ 6907 6896 6895 6894 ] final   55.75 input  -60.11 | X-H torsion
[ 7974 7965 7964 7962 ] final  -50.82 input  175.53 | X-H torsion
[ 8008 7997 7996 7995 ] final -129.68 input   59.86 | X-H torsion
[ 10167 10162 10161 10158 ] final -173.09 input  -65.29 | X-H torsion
[ 10718 10713 10712 10709 ] final   32.66 input   66.30 | X-H torsion
[ 10763 10752 10751 10750 ] final -108.55 input  -60.55 | X-H torsion
[ 11005 11000 10999 10996 ] final   73.02 input  -57.11 | X-H torsion

> <Gold.Protein.ActiveResidues>
 VAL166  LYS551  ARG553  GLY616  TRP617  ASP618  TYR619  PRO620  LYS621  CYS622 
 ASP623  PHE694  ASN695  SER759  ASP760  ASP761  ALA762  ILE779  LEU786  VAL792 
 PHE793  MET794  SER795  GLU796  ALA797  LYS798  CYS799  TRP800  GLU811  SER814 

> <Gold.Protein.RotatedAtoms>
  152.3569  134.6927  160.0218 H   0  0  0  0  0  0  0  0  0  0  0  0  # atno 6907 bound_to 6896
  151.7262  133.3310  159.3336 H   0  0  0  0  0  0  0  0  0  0  0  0  # atno 6908 bound_to 6896
  150.7578  134.6338  159.6245 H   0  0  0  0  0  0  0  0  0  0  0  0  # atno 6909 bound_to 6896
  145.9257  140.7794  142.9625 H   0  0  0  0  0  0  0  0  0  0  0  0  # atno 7974 bound_to 7965
  155.2832  140.0445  157.3017 H   0  0  0  0  0  0  0  0  0  0  0  0  # atno 8008 bound_to 7997
  154.5585  140.2339  155.8341 H   0  0  0  0  0  0  0  0  0  0  0  0  # atno 8009 bound_to 7997
  156.2027  140.3021  155.9568 H   0  0  0  0  0  0  0  0  0  0  0  0  # atno 8010 bound_to 7997
  139.5708  144.1647  152.1380 H   0  0  0  0  0  0  0  0  0  0  0  0  # atno 10167 bound_to 10162
  157.2880  130.7288  149.6594 H   0  0  0  0  0  0  0  0  0  0  0  0  # atno 10718 bound_to 10713
  154.8142  135.4633  154.0598 H   0  0  0  0  0  0  0  0  0  0  0  0  # atno 10763 bound_to 10752
  153.2004  135.6868  153.8245 H   0  0  0  0  0  0  0  0  0  0  0  0  # atno 10764 bound_to 10752
  153.7731  135.3267  155.3332 H   0  0  0  0  0  0  0  0  0  0  0  0  # atno 10765 bound_to 10752
  139.9461  134.7311  156.0976 H   0  0  0  0  0  0  0  0  0  0  0  0  # atno 11005 bound_to 11000
  144.6758  140.2046  143.7383 LP  0  0  0  0  0  0  0  0  0  0  0  0  # atno 17320 bound_to 7965
  145.8492  139.2167  143.1782 LP  0  0  0  0  0  0  0  0  0  0  0  0  # atno 17321 bound_to 7965
  140.1179  144.5399  150.6882 LP  0  0  0  0  0  0  0  0  0  0  0  0  # atno 17342 bound_to 10162
  140.6992  143.2423  151.4914 LP  0  0  0  0  0  0  0  0  0  0  0  0  # atno 17343 bound_to 10162
  155.9666  130.4317  150.4933 LP  0  0  0  0  0  0  0  0  0  0  0  0  # atno 17370 bound_to 10713
  157.2890  131.0622  151.2146 LP  0  0  0  0  0  0  0  0  0  0  0  0  # atno 17371 bound_to 10713
  141.1111  133.6643  156.2982 LP  0  0  0  0  0  0  0  0  0  0  0  0  # atno 17394 bound_to 11000
  140.5832  134.5725  157.5484 LP  0  0  0  0  0  0  0  0  0  0  0  0  # atno 17395 bound_to 11000

$$$$
