AV-unprocessed.smi:3273|AV-procd|sdf|12520|dock4
  -GOLD-   2272018433D 1   1.00000     0.00000
 Structure written by MMmdl.
 41 42  0  0  0  0  0  0  0  0  1 V2000
  148.2933  142.3087  154.7251 C   0  0  0  0  0  0  0  0  0  0  0  0
  149.0264  140.9907  154.4135 C   0  0  0  0  0  0  0  0  0  0  0  0
  147.9995  139.9390  153.9466 C   0  0  0  0  0  0  0  0  0  0  0  0
  149.8912  140.4887  155.6046 C   0  0  2  0  0  0  0  0  0  0  0  0
  150.9207  141.5414  156.0760 C   0  0  0  0  0  0  0  0  0  0  0  0
  150.3145  142.5250  156.9673 N   0  0  0  0  0  0  0  0  0  0  0  0
  150.5191  142.5876  158.2904 C   0  0  0  0  0  0  0  0  0  0  0  0
  151.2591  141.8114  158.8958 O   0  0  0  0  0  0  0  0  0  0  0  0
  149.7645  143.6924  159.0355 C   0  0  0  0  0  0  0  0  0  0  0  0
  150.6820  144.6544  159.7720 C   0  0  0  0  0  0  0  0  0  0  0  0
  152.0408  145.0138  159.2150 C   0  0  0  0  0  0  0  0  0  0  0  0
  151.9384  144.1595  160.4539 C   0  0  0  0  0  0  0  0  0  0  0  0
  150.5599  139.1684  155.3186 C   0  0  0  0  0  0  0  0  0  0  0  0
  150.5844  138.4324  154.1658 C   0  0  0  0  0  0  0  0  0  0  0  0
  151.3810  137.3008  154.4901 C   0  0  0  0  0  0  0  0  0  0  0  0
  151.8200  137.3313  155.7359 N   0  0  0  0  0  0  0  0  0  0  0  0
  151.3207  138.4767  156.2470 N   0  0  0  0  0  0  0  0  0  0  0  0
  151.6249  138.8241  157.6220 C   0  0  0  0  0  0  0  0  0  0  0  0
  147.6602  142.2119  155.6076 H   0  0  0  0  0  0  0  0  0  0  0  0
  147.6553  142.6075  153.8930 H   0  0  0  0  0  0  0  0  0  0  0  0
  148.9866  143.1313  154.8962 H   0  0  0  0  0  0  0  0  0  0  0  0
  149.6922  141.1764  153.5696 H   0  0  0  0  0  0  0  0  0  0  0  0
  147.3328  139.6512  154.7601 H   0  0  0  0  0  0  0  0  0  0  0  0
  148.4777  139.0342  153.5717 H   0  0  0  0  0  0  0  0  0  0  0  0
  147.3822  140.3257  153.1352 H   0  0  0  0  0  0  0  0  0  0  0  0
  149.2015  140.3451  156.4365 H   0  0  0  0  0  0  0  0  0  0  0  0
  151.7403  141.0409  156.5951 H   0  0  0  0  0  0  0  0  0  0  0  0
  151.3547  142.0760  155.2315 H   0  0  0  0  0  0  0  0  0  0  0  0
  149.6881  143.1980  156.5497 H   0  0  0  0  0  0  0  0  0  0  0  0
  149.1564  144.2531  158.3239 H   0  0  0  0  0  0  0  0  0  0  0  0
  149.0785  143.2379  159.7508 H   0  0  0  0  0  0  0  0  0  0  0  0
  150.1525  145.4554  160.2853 H   0  0  0  0  0  0  0  0  0  0  0  0
  152.3608  144.5267  158.2960 H   0  0  0  0  0  0  0  0  0  0  0  0
  152.3784  146.0408  159.3391 H   0  0  0  0  0  0  0  0  0  0  0  0
  152.2040  144.6156  161.4053 H   0  0  0  0  0  0  0  0  0  0  0  0
  152.1868  143.1042  160.3572 H   0  0  0  0  0  0  0  0  0  0  0  0
  150.1037  138.6703  153.2285 H   0  0  0  0  0  0  0  0  0  0  0  0
  151.6535  136.4664  153.8610 H   0  0  0  0  0  0  0  0  0  0  0  0
  152.1401  139.7844  157.6521 H   0  0  0  0  0  0  0  0  0  0  0  0
  152.2643  138.0678  158.0792 H   0  0  0  0  0  0  0  0  0  0  0  0
  150.7000  138.8948  158.1948 H   0  0  0  0  0  0  0  0  0  0  0  0
  1  2  1  0  0  0  0
  1 19  1  0  0  0  0
  1 20  1  0  0  0  0
  1 21  1  0  0  0  0
  2  3  1  0  0  0  0
  2  4  1  0  0  0  0
  2 22  1  0  0  0  0
  3 23  1  0  0  0  0
  3 24  1  0  0  0  0
  3 25  1  0  0  0  0
  4  5  1  0  0  0  0
  4 13  1  0  0  0  0
  4 26  1  0  0  0  0
  5  6  1  0  0  0  0
  5 27  1  0  0  0  0
  5 28  1  0  0  0  0
  6  7  1  0  0  0  0
  6 29  1  0  0  0  0
  7  8  2  0  0  0  0
  7  9  1  0  0  0  0
  9 10  1  0  0  0  0
  9 30  1  0  0  0  0
  9 31  1  0  0  0  0
 10 12  1  0  0  0  0
 10 11  1  0  0  0  0
 10 32  1  0  0  0  0
 11 12  1  0  0  0  0
 11 33  1  0  0  0  0
 11 34  1  0  0  0  0
 12 35  1  0  0  0  0
 12 36  1  0  0  0  0
 13 17  1  0  0  0  0
 13 14  2  0  0  0  0
 14 15  1  0  0  0  0
 14 37  1  0  0  0  0
 15 16  2  0  0  0  0
 15 38  1  0  0  0  0
 16 17  1  0  0  0  0
 17 18  1  0  0  0  0
 18 39  1  0  0  0  0
 18 40  1  0  0  0  0
 18 41  1  0  0  0  0
M  END
> <s_m_source_file>
AV-unprocessed.smi

> <i_m_source_file_index>
3273

> <i_lp_mmshare_version>
43012

> <i_f3d_flags>
0

> <s_epik_input>
W0NIM11uMW5bY0hdW2NIXWMxW0NASF0oW0NIXShbQ0gzXSlbQ0gzXSlbQ0gyXVtOSF1DKD1PKVtDSDJdW0NIXTJbQ0gyXVtDSDJdMg==

> <s_epik_cmdline>
J2VwaWtfcHl0aG9uJywgJy1waCcsICc3LjAnLCAnLXRuJywgJzgnLCAnLW1hJywgJzIwMCcsICctbWV0YWxfYmluZGluZycsICctaW1hZScsICc8aW5maWxlLm1hZT4nLCAnLW9tYWUnLCAnPG91dGZpbGUubWFlPic=

> <r_lp_tautomer_probability>
1

> <r_epik_Ionization_Penalty>
0.00116261

> <r_epik_Ionization_Penalty_Charging>
0

> <r_epik_Ionization_Penalty_Neutral>
0.00116261

> <r_epik_State_Penalty>
-0

> <r_epik_Charging_Adjusted_Penalty>
0

> <i_epik_Tot_Q>
0

> <i_epik_Tot_abs_Q>
0

> <r_epik_Metal_State_Penalty>
-0

> <b_epik_Metal_Only>
0

> <s_lp_Force_Field>
OPLS_2005

> <r_lp_Energy>
13.9008

> <b_lp_Chiralities_Consistent>
1

> <s_lp_Variant>
AV-unprocessed.smi:3273-1

> <Gold.Version>
5.8.1

> <Gold.Id.Protein>
6NUR|6NUR_protein|mol2

> <Gold.PLP.Fitness>
42.1503

> <Gold.PLP.PLP>
-36.5892

> <Gold.PLP.part.hbond>
-1.8621

> <Gold.PLP.part.metal>
0.0000

> <Gold.PLP.part.buried>
-2.3024

> <Gold.PLP.part.nonpolar>
-32.6875

> <Gold.PLP.part.repulsive>
0.0676

> <Gold.PLP.ligand.clash>
0.0008

> <Gold.PLP.ligand.torsion>
0.6758

> <Gold.PLP.Chemscore.Hbond>
1.0639

> <Gold.PLP.Chemscore.CHOScore>
1.0000

> <Gold.PLP.Chemscore.Metal>
0.0000

> <Gold.Chemscore.Hbonds>
donor molecule, donor type, donor heavy atom, donor atom, acceptor molecule, acceptor atom, score
      L1  H     6    29       P1  8028  1.00
      P1  H 10752 10764       L1    16  0.02
      L1  C    15    38       P1  7949  1.00

> <Gold.PLP.Chemscore.Internal.Correction>
0.7220

> <Gold.Rescore>
     Score         DG    S(hbond)    S(metal)    S(lipo)     H(rot)  DE(clash)    DE(int)     intcor
     12.73     -16.63       1.00        0.00     102.70       1.64       0.72       3.18       ----

> <Gold.Chemscore.Fitness>
12.7325

> <Gold.Chemscore.DG>
-16.6294

> <Gold.Chemscore.ZeroCoef>
-5.4800

> <Gold.Chemscore.Hbond>
1.0000

> <Gold.Chemscore.Metal>
0.0000

> <Gold.Chemscore.Lipo>
102.6978

> <Gold.Chemscore.Internal_Hbond>
0.0000

> <Gold.Chemscore.DEClash>
0.7168

> <Gold.Chemscore.DEInternal>
3.1801

> <Gold.Chemscore.Rot>
1.6430

> <Gold.Chemscore.Internal.Correction>
   9.000000E+99

> <Gold.Chemscore.Hbonds>
donor molecule, donor type, donor heavy atom, donor atom, acceptor molecule, acceptor atom, score
      L1  H     6    29       P1  8028  0.99

> <Gold.Chemscore.Hbond.Weighted>
-3.3399

> <Gold.Chemscore.Metal.Weighted>
-0.0000

> <Gold.Chemscore.Lipo.Weighted>
-12.0156

> <Gold.Chemscore.Internal_Hbond.Weighted>
0.0000

> <Gold.Chemscore.DEClash.Weighted>
0.7168

> <Gold.Chemscore.DEInternal.Weighted>
3.1801

> <Gold.Chemscore.Rot.Weighted>
4.2062

> <Gold.Chemscore.Internal.Correction.Weighted>
   9.000000E+99

> <Gold.Protein.RotatedTorsions>
[ 6907 6896 6895 6894 ] final  116.28 input  -60.11 | X-H torsion
[ 7974 7965 7964 7962 ] final  177.71 input  175.53 | X-H torsion
[ 8008 7997 7996 7995 ] final   53.81 input   59.86 | X-H torsion
[ 10167 10162 10161 10158 ] final   16.86 input  -65.29 | X-H torsion
[ 10718 10713 10712 10709 ] final  -62.47 input   66.30 | X-H torsion
[ 10763 10752 10751 10750 ] final  -31.26 input  -60.55 | X-H torsion
[ 11005 11000 10999 10996 ] final  170.66 input  -57.11 | X-H torsion

> <Gold.Protein.ActiveResidues>
 VAL166  LYS551  ARG553  GLY616  TRP617  ASP618  TYR619  PRO620  LYS621  CYS622 
 ASP623  PHE694  ASN695  SER759  ASP760  ASP761  ALA762  ILE779  LEU786  VAL792 
 PHE793  MET794  SER795  GLU796  ALA797  LYS798  CYS799  TRP800  GLU811  SER814 

> <Gold.Protein.RotatedAtoms>
  152.4688  133.7983  159.6938 H   0  0  0  0  0  0  0  0  0  0  0  0  # atno 6907 bound_to 6896
  150.8666  133.7556  159.2981 H   0  0  0  0  0  0  0  0  0  0  0  0  # atno 6908 bound_to 6896
  151.5104  135.1068  159.9904 H   0  0  0  0  0  0  0  0  0  0  0  0  # atno 6909 bound_to 6896
  144.7165  140.0288  143.6439 H   0  0  0  0  0  0  0  0  0  0  0  0  # atno 7974 bound_to 7965
  155.4744  140.3466  155.4330 H   0  0  0  0  0  0  0  0  0  0  0  0  # atno 8008 bound_to 7997
  156.1080  140.1453  156.9407 H   0  0  0  0  0  0  0  0  0  0  0  0  # atno 8009 bound_to 7997
  154.4737  140.0892  156.7187 H   0  0  0  0  0  0  0  0  0  0  0  0  # atno 8010 bound_to 7997
  140.5767  143.9058  150.6756 H   0  0  0  0  0  0  0  0  0  0  0  0  # atno 10167 bound_to 10162
  156.0853  130.4209  150.1139 H   0  0  0  0  0  0  0  0  0  0  0  0  # atno 10718 bound_to 10713
  153.7945  135.6895  153.4866 H   0  0  0  0  0  0  0  0  0  0  0  0  # atno 10763 bound_to 10752
  153.1728  135.4536  154.9924 H   0  0  0  0  0  0  0  0  0  0  0  0  # atno 10764 bound_to 10752
  154.8031  135.3346  154.7438 H   0  0  0  0  0  0  0  0  0  0  0  0  # atno 10765 bound_to 10752
  140.3107  134.7519  157.3989 H   0  0  0  0  0  0  0  0  0  0  0  0  # atno 11005 bound_to 11000
  146.0120  139.3177  143.0865 LP  0  0  0  0  0  0  0  0  0  0  0  0  # atno 17320 bound_to 7965
  145.8671  140.9442  143.0670 LP  0  0  0  0  0  0  0  0  0  0  0  0  # atno 17321 bound_to 7965
  140.2547  143.3567  152.1375 LP  0  0  0  0  0  0  0  0  0  0  0  0  # atno 17342 bound_to 10162
  139.5147  144.6951  151.5651 LP  0  0  0  0  0  0  0  0  0  0  0  0  # atno 17343 bound_to 10162
  156.9161  130.9668  151.3555 LP  0  0  0  0  0  0  0  0  0  0  0  0  # atno 17370 bound_to 10713
  157.5985  130.8495  149.8766 LP  0  0  0  0  0  0  0  0  0  0  0  0  # atno 17371 bound_to 10713
  140.1027  134.5451  155.8338 LP  0  0  0  0  0  0  0  0  0  0  0  0  # atno 17394 bound_to 11000
  141.2109  133.6700  156.6540 LP  0  0  0  0  0  0  0  0  0  0  0  0  # atno 17395 bound_to 11000

$$$$
