AV-unprocessed.smi:3338|AV-procd|sdf|12870|dock4
  -GOLD-   2272019273D 1   1.00000     0.00000
 Structure written by MMmdl.
 44 45  0  0  0  0  0  0  0  0  2 V2000
  146.4531  134.4150  153.3883 C   0  0  0  0  0  0  0  0  0  0  0  0
  146.6035  133.4695  154.5927 C   0  0  1  0  0  0  0  0  0  0  0  0
  147.1072  132.0694  154.1953 C   0  0  0  0  0  0  0  0  0  0  0  0
  148.6014  132.0931  153.8439 C   0  0  0  0  0  0  0  0  0  0  0  0
  149.4248  132.7262  154.9766 C   0  0  0  0  0  0  0  0  0  0  0  0
  148.9307  134.0894  155.2995 N   0  3  2  0  0  0  0  0  0  0  0  0
  149.7990  134.7871  156.2804 C   0  0  0  0  0  0  0  0  0  0  0  0
  149.2641  136.1827  156.6398 C   0  0  0  0  0  0  0  0  0  0  0  0
  150.1297  137.2136  156.0851 N   0  0  0  0  0  0  0  0  0  0  0  0
  151.4707  137.1855  156.1103 C   0  0  0  0  0  0  0  0  0  0  0  0
  152.1120  136.2536  156.5976 O   0  0  0  0  0  0  0  0  0  0  0  0
  152.1830  138.3979  155.4885 C   0  0  2  0  0  0  0  0  0  0  0  0
  153.7102  138.2188  155.3896 C   0  0  0  0  0  0  0  0  0  0  0  0
  151.8400  139.6123  156.2187 N   0  0  0  0  0  0  0  0  0  0  0  0
  152.1727  139.9708  157.5109 C   0  0  0  0  0  0  0  0  0  0  0  0
  151.5953  141.1824  157.7610 C   0  0  0  0  0  0  0  0  0  0  0  0
  150.9143  141.4884  156.5504 C   0  0  0  0  0  0  0  0  0  0  0  0
  151.0564  140.5455  155.6332 N   0  0  0  0  0  0  0  0  0  0  0  0
  147.4963  134.0722  155.6967 C   0  0  0  0  0  0  0  0  0  0  0  0
  147.4115  134.6294  152.9156 H   0  0  0  0  0  0  0  0  0  0  0  0
  146.0170  135.3669  153.6920 H   0  0  0  0  0  0  0  0  0  0  0  0
  145.7985  133.9835  152.6304 H   0  0  0  0  0  0  0  0  0  0  0  0
  145.6038  133.3466  155.0116 H   0  0  0  0  0  0  0  0  0  0  0  0
  146.9493  131.3824  155.0278 H   0  0  0  0  0  0  0  0  0  0  0  0
  146.5268  131.6751  153.3605 H   0  0  0  0  0  0  0  0  0  0  0  0
  148.9530  131.0788  153.6523 H   0  0  0  0  0  0  0  0  0  0  0  0
  148.7586  132.6494  152.9194 H   0  0  0  0  0  0  0  0  0  0  0  0
  149.3847  132.1005  155.8698 H   0  0  0  0  0  0  0  0  0  0  0  0
  150.4702  132.7741  154.6691 H   0  0  0  0  0  0  0  0  0  0  0  0
  149.9201  134.1716  157.1733 H   0  0  0  0  0  0  0  0  0  0  0  0
  150.7963  134.9111  155.8554 H   0  0  0  0  0  0  0  0  0  0  0  0
  148.2496  136.2954  156.2532 H   0  0  0  0  0  0  0  0  0  0  0  0
  149.2150  136.3243  157.7192 H   0  0  0  0  0  0  0  0  0  0  0  0
  149.6825  138.0157  155.6638 H   0  0  0  0  0  0  0  0  0  0  0  0
  151.8044  138.4987  154.4693 H   0  0  0  0  0  0  0  0  0  0  0  0
  153.9671  137.3366  154.8019 H   0  0  0  0  0  0  0  0  0  0  0  0
  154.1726  138.1102  156.3713 H   0  0  0  0  0  0  0  0  0  0  0  0
  154.1703  139.0788  154.9020 H   0  0  0  0  0  0  0  0  0  0  0  0
  152.7845  139.3399  158.1386 H   0  0  0  0  0  0  0  0  0  0  0  0
  151.6493  141.7611  158.6711 H   0  0  0  0  0  0  0  0  0  0  0  0
  150.3214  142.3595  156.3136 H   0  0  0  0  0  0  0  0  0  0  0  0
  147.1497  135.0786  155.9298 H   0  0  0  0  0  0  0  0  0  0  0  0
  147.3896  133.4904  156.6136 H   0  0  0  0  0  0  0  0  0  0  0  0
  148.9916  134.6178  154.4408 H   0  0  0  0  0  0  0  0  0  0  0  0
  1  2  1  0  0  0  0
  1 20  1  0  0  0  0
  1 21  1  0  0  0  0
  1 22  1  0  0  0  0
  2 19  1  0  0  0  0
  2  3  1  0  0  0  0
  2 23  1  0  0  0  0
  3  4  1  0  0  0  0
  3 24  1  0  0  0  0
  3 25  1  0  0  0  0
  4  5  1  0  0  0  0
  4 26  1  0  0  0  0
  4 27  1  0  0  0  0
  5  6  1  0  0  0  0
  5 28  1  0  0  0  0
  5 29  1  0  0  0  0
  6  7  1  0  0  0  0
  6 19  1  0  0  0  0
  6 44  1  0  0  0  0
  7  8  1  0  0  0  0
  7 30  1  0  0  0  0
  7 31  1  0  0  0  0
  8  9  1  0  0  0  0
  8 32  1  0  0  0  0
  8 33  1  0  0  0  0
  9 10  1  0  0  0  0
  9 34  1  0  0  0  0
 10 11  2  0  0  0  0
 10 12  1  0  0  0  0
 12 13  1  0  0  0  0
 12 14  1  0  0  0  0
 12 35  1  0  0  0  0
 13 36  1  0  0  0  0
 13 37  1  0  0  0  0
 13 38  1  0  0  0  0
 14 18  1  0  0  0  0
 14 15  1  0  0  0  0
 15 16  2  0  0  0  0
 15 39  1  0  0  0  0
 16 17  1  0  0  0  0
 16 40  1  0  0  0  0
 17 18  2  0  0  0  0
 17 41  1  0  0  0  0
 19 42  1  0  0  0  0
 19 43  1  0  0  0  0
M  CHG  1   6   1
M  END
> <s_m_source_file>
AV-unprocessed.smi

> <i_m_source_file_index>
3338

> <i_lp_mmshare_version>
43012

> <i_f3d_flags>
0

> <s_epik_input>
W0NIM11bQ0BASF0xW0NIMl1bQ0gyXVtDSDJdTihbQ0gyXTEpW0NIMl1bQ0gyXVtOSF1DKD1PKVtDQEhdKFtDSDNdKW4yW2NIXVtjSF1bY0hdbjI=

> <s_epik_cmdline>
J2VwaWtfcHl0aG9uJywgJy1waCcsICc3LjAnLCAnLXRuJywgJzgnLCAnLW1hJywgJzIwMCcsICctbWV0YWxfYmluZGluZycsICctaW1hZScsICc8aW5maWxlLm1hZT4nLCAnLW9tYWUnLCAnPG91dGZpbGUubWFlPic=

> <r_lp_tautomer_probability>
1

> <r_epik_Ionization_Penalty>
0.00225707

> <r_epik_Ionization_Penalty_Charging>
0.00223709

> <r_epik_Ionization_Penalty_Neutral>
1.99775e-05

> <r_epik_State_Penalty>
0.00153978

> <r_epik_Charging_Adjusted_Penalty>
0.00377687

> <i_epik_Tot_Q>
1

> <i_epik_Tot_abs_Q>
1

> <r_epik_Metal_State_Penalty>
-0

> <b_epik_Metal_Only>
0

> <s_lp_Force_Field>
OPLS_2005

> <r_lp_Energy>
22.9717

> <b_lp_Chiralities_Consistent>
1

> <s_lp_Variant>
AV-unprocessed.smi:3338-2

> <Gold.Version>
5.8.1

> <Gold.Id.Protein>
6NUR|6NUR_protein|mol2

> <Gold.PLP.Fitness>
44.5891

> <Gold.PLP.PLP>
-31.8918

> <Gold.PLP.part.hbond>
-3.0000

> <Gold.PLP.part.metal>
0.0000

> <Gold.PLP.part.buried>
-0.3940

> <Gold.PLP.part.nonpolar>
-28.5174

> <Gold.PLP.part.repulsive>
0.1489

> <Gold.PLP.ligand.clash>
0.0000

> <Gold.PLP.ligand.torsion>
0.6186

> <Gold.PLP.Chemscore.Hbond>
3.6000

> <Gold.PLP.Chemscore.CHOScore>
1.0000

> <Gold.PLP.Chemscore.Metal>
0.0000

> <Gold.Chemscore.Hbonds>
donor molecule, donor type, donor heavy atom, donor atom, acceptor molecule, acceptor atom, score
      P1  H  7989  7998       L1    18  0.44
      P1  H 10752 10763       L1    11  1.00
      L1  C    17    41       P1  8028  0.23

> <Gold.PLP.Chemscore.Internal.Correction>
0.1346

> <Gold.Rescore>
     Score         DG    S(hbond)    S(metal)    S(lipo)     H(rot)  DE(clash)    DE(int)     intcor
     13.11     -15.49       2.03        0.00      66.12       1.76       0.00       2.37       ----

> <Gold.Chemscore.Fitness>
13.1087

> <Gold.Chemscore.DG>
-15.4863

> <Gold.Chemscore.ZeroCoef>
-5.4800

> <Gold.Chemscore.Hbond>
2.0264

> <Gold.Chemscore.Metal>
0.0000

> <Gold.Chemscore.Lipo>
66.1195

> <Gold.Chemscore.Internal_Hbond>
0.0000

> <Gold.Chemscore.DEClash>
0.0045

> <Gold.Chemscore.DEInternal>
2.3731

> <Gold.Chemscore.Rot>
1.7570

> <Gold.Chemscore.Internal.Correction>
   9.000000E+99

> <Gold.Chemscore.Hbonds>
donor molecule, donor type, donor heavy atom, donor atom, acceptor molecule, acceptor atom, score
      P1  H  7989  7998       L1    18  0.35
      P1  H 10752 10763       L1    11  0.48

> <Gold.Chemscore.Hbond.Weighted>
-6.7682

> <Gold.Chemscore.Metal.Weighted>
-0.0000

> <Gold.Chemscore.Lipo.Weighted>
-7.7360

> <Gold.Chemscore.Internal_Hbond.Weighted>
0.0000

> <Gold.Chemscore.DEClash.Weighted>
0.0045

> <Gold.Chemscore.DEInternal.Weighted>
2.3731

> <Gold.Chemscore.Rot.Weighted>
4.4979

> <Gold.Chemscore.Internal.Correction.Weighted>
   9.000000E+99

> <Gold.Protein.RotatedTorsions>
[ 6907 6896 6895 6894 ] final   62.69 input  -60.11 | X-H torsion
[ 7974 7965 7964 7962 ] final -155.11 input  175.53 | X-H torsion
[ 8008 7997 7996 7995 ] final  -45.77 input   59.86 | X-H torsion
[ 10167 10162 10161 10158 ] final   -3.63 input  -65.29 | X-H torsion
[ 10718 10713 10712 10709 ] final  145.81 input   66.30 | X-H torsion
[ 10763 10752 10751 10750 ] final   90.16 input  -60.55 | X-H torsion
[ 11005 11000 10999 10996 ] final -150.25 input  -57.11 | X-H torsion

> <Gold.Protein.ActiveResidues>
 VAL166  LYS551  ARG553  GLY616  TRP617  ASP618  TYR619  PRO620  LYS621  CYS622 
 ASP623  PHE694  ASN695  SER759  ASP760  ASP761  ALA762  ILE779  LEU786  VAL792 
 PHE793  MET794  SER795  GLU796  ALA797  LYS798  CYS799  TRP800  GLU811  SER814 

> <Gold.Protein.RotatedAtoms>
  152.4193  134.5985  159.9993 H   0  0  0  0  0  0  0  0  0  0  0  0  # atno 6907 bound_to 6896
  151.6139  133.3339  159.3081 H   0  0  0  0  0  0  0  0  0  0  0  0  # atno 6908 bound_to 6896
  150.8081  134.7257  159.6728 H   0  0  0  0  0  0  0  0  0  0  0  0  # atno 6909 bound_to 6896
  144.7656  140.4294  143.5944 H   0  0  0  0  0  0  0  0  0  0  0  0  # atno 7974 bound_to 7965
  154.4003  140.1388  156.3901 H   0  0  0  0  0  0  0  0  0  0  0  0  # atno 8008 bound_to 7997
  155.7922  140.3478  155.5335 H   0  0  0  0  0  0  0  0  0  0  0  0  # atno 8009 bound_to 7997
  155.8568  140.0950  157.1630 H   0  0  0  0  0  0  0  0  0  0  0  0  # atno 8010 bound_to 7997
  140.6897  143.6517  150.8344 H   0  0  0  0  0  0  0  0  0  0  0  0  # atno 10167 bound_to 10162
  157.3407  131.0935  151.1084 H   0  0  0  0  0  0  0  0  0  0  0  0  # atno 10718 bound_to 10713
  153.1947  135.4444  155.0193 H   0  0  0  0  0  0  0  0  0  0  0  0  # atno 10763 bound_to 10752
  154.8111  135.3295  154.7304 H   0  0  0  0  0  0  0  0  0  0  0  0  # atno 10764 bound_to 10752
  153.7755  135.6981  153.4953 H   0  0  0  0  0  0  0  0  0  0  0  0  # atno 10765 bound_to 10752
  140.7422  134.3501  157.5145 H   0  0  0  0  0  0  0  0  0  0  0  0  # atno 11005 bound_to 11000
  145.6481  139.1560  143.2877 LP  0  0  0  0  0  0  0  0  0  0  0  0  # atno 17320 bound_to 7965
  146.1760  140.6572  142.9211 LP  0  0  0  0  0  0  0  0  0  0  0  0  # atno 17321 bound_to 7965
  140.0229  143.5524  152.2793 LP  0  0  0  0  0  0  0  0  0  0  0  0  # atno 17342 bound_to 10162
  139.6288  144.7641  151.2580 LP  0  0  0  0  0  0  0  0  0  0  0  0  # atno 17343 bound_to 10162
  157.2297  130.6519  149.5845 LP  0  0  0  0  0  0  0  0  0  0  0  0  # atno 17370 bound_to 10713
  155.9707  130.4602  150.6066 LP  0  0  0  0  0  0  0  0  0  0  0  0  # atno 17371 bound_to 10713
  139.8804  134.9088  156.2976 LP  0  0  0  0  0  0  0  0  0  0  0  0  # atno 17394 bound_to 11000
  140.9826  133.7258  156.0695 LP  0  0  0  0  0  0  0  0  0  0  0  0  # atno 17395 bound_to 11000

$$$$
