AV-unprocessed.smi:1856|AV-procd|sdf|7534|dock4
  -GOLD-   22720 9243D 1   1.00000     0.00000
 Structure written by MMmdl.
 44 45  0  0  0  0  0  0  0  0  1 V2000
  146.7579  142.6190  153.9914 C   0  0  0  0  0  0  0  0  0  0  0  0
  147.1386  141.2696  153.3725 C   0  0  0  0  0  0  0  0  0  0  0  0
  147.6047  140.2501  154.4272 C   0  0  0  0  0  0  0  0  0  0  0  0
  149.0946  140.3730  154.7595 C   0  0  0  0  0  0  0  0  0  0  0  0
  149.8191  141.1272  154.1100 O   0  0  0  0  0  0  0  0  0  0  0  0
  149.5420  139.6107  155.7700 N   0  0  0  0  0  0  0  0  0  0  0  0
  150.9257  139.5487  156.2391 C   0  0  1  0  0  0  0  0  0  0  0  0
  151.8742  139.3463  155.0507 C   0  0  0  0  0  0  0  0  0  0  0  0
  151.2444  140.8113  157.0021 C   0  0  0  0  0  0  0  0  0  0  0  0
  151.1294  142.0229  156.4504 N   0  0  0  0  0  0  0  0  0  0  0  0
  151.5246  142.8652  157.4691 C   0  0  0  0  0  0  0  0  0  0  0  0
  151.6158  144.2748  157.5105 C   0  0  0  0  0  0  0  0  0  0  0  0
  152.0543  144.9274  158.6808 C   0  0  0  0  0  0  0  0  0  0  0  0
  152.4077  144.1813  159.8235 C   0  0  0  0  0  0  0  0  0  0  0  0
  152.3256  142.7757  159.8023 C   0  0  0  0  0  0  0  0  0  0  0  0
  151.8865  142.1284  158.6314 C   0  0  0  0  0  0  0  0  0  0  0  0
  151.6948  140.7937  158.2838 N   0  0  0  0  0  0  0  0  0  0  0  0
  151.9466  139.6422  159.1414 C   0  0  0  0  0  0  0  0  0  0  0  0
  153.4468  139.3258  159.3156 C   0  0  2  0  0  0  0  0  0  0  0  0
  154.2693  140.4748  159.9190 C   0  0  0  0  0  0  0  0  0  0  0  0
  153.9830  139.0046  158.0501 O   0  0  0  0  0  0  0  0  0  0  0  0
  146.4365  143.3215  153.2223 H   0  0  0  0  0  0  0  0  0  0  0  0
  147.6030  143.0649  154.5167 H   0  0  0  0  0  0  0  0  0  0  0  0
  145.9396  142.5086  154.7035 H   0  0  0  0  0  0  0  0  0  0  0  0
  146.2793  140.8775  152.8265 H   0  0  0  0  0  0  0  0  0  0  0  0
  147.9280  141.4254  152.6361 H   0  0  0  0  0  0  0  0  0  0  0  0
  147.0182  140.3747  155.3388 H   0  0  0  0  0  0  0  0  0  0  0  0
  147.4178  139.2358  154.0725 H   0  0  0  0  0  0  0  0  0  0  0  0
  148.8787  139.0110  156.2389 H   0  0  0  0  0  0  0  0  0  0  0  0
  151.0193  138.6814  156.8912 H   0  0  0  0  0  0  0  0  0  0  0  0
  152.9093  139.2799  155.3867 H   0  0  0  0  0  0  0  0  0  0  0  0
  151.8073  140.1729  154.3422 H   0  0  0  0  0  0  0  0  0  0  0  0
  151.6412  138.4264  154.5138 H   0  0  0  0  0  0  0  0  0  0  0  0
  151.3472  144.8545  156.6399 H   0  0  0  0  0  0  0  0  0  0  0  0
  152.1194  146.0055  158.7017 H   0  0  0  0  0  0  0  0  0  0  0  0
  152.7417  144.6888  160.7168 H   0  0  0  0  0  0  0  0  0  0  0  0
  152.5942  142.2031  160.6772 H   0  0  0  0  0  0  0  0  0  0  0  0
  151.4729  139.8106  160.1092 H   0  0  0  0  0  0  0  0  0  0  0  0
  151.4359  138.7804  158.7099 H   0  0  0  0  0  0  0  0  0  0  0  0
  153.5638  138.4466  159.9475 H   0  0  0  0  0  0  0  0  0  0  0  0
  153.9442  140.7066  160.9336 H   0  0  0  0  0  0  0  0  0  0  0  0
  154.1786  141.3830  159.3222 H   0  0  0  0  0  0  0  0  0  0  0  0
  155.3266  140.2145  159.9714 H   0  0  0  0  0  0  0  0  0  0  0  0
  154.4897  138.2109  158.1323 H   0  0  0  0  0  0  0  0  0  0  0  0
  1  2  1  0  0  0  0
  1 22  1  0  0  0  0
  1 23  1  0  0  0  0
  1 24  1  0  0  0  0
  2  3  1  0  0  0  0
  2 25  1  0  0  0  0
  2 26  1  0  0  0  0
  3  4  1  0  0  0  0
  3 27  1  0  0  0  0
  3 28  1  0  0  0  0
  4  5  2  0  0  0  0
  4  6  1  0  0  0  0
  6  7  1  0  0  0  0
  6 29  1  0  0  0  0
  7  8  1  0  0  0  0
  7  9  1  0  0  0  0
  7 30  1  0  0  0  0
  8 31  1  0  0  0  0
  8 32  1  0  0  0  0
  8 33  1  0  0  0  0
  9 17  1  0  0  0  0
  9 10  2  0  0  0  0
 10 11  1  0  0  0  0
 11 16  2  0  0  0  0
 11 12  1  0  0  0  0
 12 13  2  0  0  0  0
 12 34  1  0  0  0  0
 13 14  1  0  0  0  0
 13 35  1  0  0  0  0
 14 15  2  0  0  0  0
 14 36  1  0  0  0  0
 15 16  1  0  0  0  0
 15 37  1  0  0  0  0
 16 17  1  0  0  0  0
 17 18  1  0  0  0  0
 18 19  1  0  0  0  0
 18 38  1  0  0  0  0
 18 39  1  0  0  0  0
 19 20  1  0  0  0  0
 19 21  1  0  0  0  0
 19 40  1  0  0  0  0
 20 41  1  0  0  0  0
 20 42  1  0  0  0  0
 20 43  1  0  0  0  0
 21 44  1  0  0  0  0
M  END
> <s_m_source_file>
AV-unprocessed.smi

> <i_m_source_file_index>
1856

> <i_lp_mmshare_version>
43012

> <i_f3d_flags>
0

> <s_epik_input>
W0NIM11bQ0gyXVtDSDJdQyg9TylbTkhdW0NASF0oW0NIM10pYyhuMSluKFtDSDJdW0NASF0oW0NIM10pW09IXSljKGMxMilbY0hdW2NIXVtjSF1bY0hdMg==

> <s_epik_cmdline>
J2VwaWtfcHl0aG9uJywgJy1waCcsICc3LjAnLCAnLXRuJywgJzgnLCAnLW1hJywgJzIwMCcsICctbWV0YWxfYmluZGluZycsICctaW1hZScsICc8aW5maWxlLm1hZT4nLCAnLW9tYWUnLCAnPG91dGZpbGUubWFlPic=

> <r_epik_Ionization_Penalty>
0.134222

> <r_epik_Ionization_Penalty_Charging>
0

> <r_epik_Ionization_Penalty_Neutral>
0.134222

> <r_epik_State_Penalty>
0.123585

> <r_epik_Charging_Adjusted_Penalty>
0.123585

> <i_epik_Tot_Q>
0

> <i_epik_Tot_abs_Q>
0

> <r_epik_Metal_State_Penalty>
0.100548

> <b_epik_Metal_Only>
0

> <s_lp_Force_Field>
OPLS_2005

> <r_lp_Energy>
2.96492

> <b_lp_Chiralities_Consistent>
1

> <s_lp_Variant>
AV-unprocessed.smi:1856-2

> <Gold.Version>
5.8.1

> <Gold.Id.Protein>
6NUR|6NUR_protein|mol2

> <Gold.PLP.Fitness>
50.7164

> <Gold.PLP.PLP>
-46.0502

> <Gold.PLP.part.hbond>
-2.9682

> <Gold.PLP.part.metal>
0.0000

> <Gold.PLP.part.buried>
-3.4146

> <Gold.PLP.part.nonpolar>
-39.3691

> <Gold.PLP.part.repulsive>
0.2922

> <Gold.PLP.ligand.clash>
0.0000

> <Gold.PLP.ligand.torsion>
0.5514

> <Gold.PLP.Chemscore.Hbond>
1.8688

> <Gold.PLP.Chemscore.CHOScore>
0.0000

> <Gold.PLP.Chemscore.Metal>
0.0000

> <Gold.Chemscore.Hbonds>
donor molecule, donor type, donor heavy atom, donor atom, acceptor molecule, acceptor atom, score
      P1  H  7989  7998       L1     5  0.43
      P1  H  7997  8010       L1    21  1.00
      P1  H  8011  8017       L1     5  0.46

> <Gold.PLP.Chemscore.Internal.Correction>
0.1626

> <Gold.Rescore>
     Score         DG    S(hbond)    S(metal)    S(lipo)     H(rot)  DE(clash)    DE(int)     intcor
     16.13     -19.52       1.79        0.00     122.25       2.45       0.16       3.23       ----

> <Gold.Chemscore.Fitness>
16.1318

> <Gold.Chemscore.DG>
-19.5169

> <Gold.Chemscore.ZeroCoef>
-5.4800

> <Gold.Chemscore.Hbond>
1.7949

> <Gold.Chemscore.Metal>
0.0000

> <Gold.Chemscore.Lipo>
122.2502

> <Gold.Chemscore.Internal_Hbond>
0.0000

> <Gold.Chemscore.DEClash>
0.1554

> <Gold.Chemscore.DEInternal>
3.2297

> <Gold.Chemscore.Rot>
2.4459

> <Gold.Chemscore.Internal.Correction>
   9.000000E+99

> <Gold.Chemscore.Hbonds>
donor molecule, donor type, donor heavy atom, donor atom, acceptor molecule, acceptor atom, score
      P1  H  7989  7998       L1     5  0.42
      P1  H  7997  8010       L1    21  0.75
      P1  H  8011  8017       L1     5  0.46

> <Gold.Chemscore.Hbond.Weighted>
-5.9951

> <Gold.Chemscore.Metal.Weighted>
-0.0000

> <Gold.Chemscore.Lipo.Weighted>
-14.3033

> <Gold.Chemscore.Internal_Hbond.Weighted>
0.0000

> <Gold.Chemscore.DEClash.Weighted>
0.1554

> <Gold.Chemscore.DEInternal.Weighted>
3.2297

> <Gold.Chemscore.Rot.Weighted>
6.2614

> <Gold.Chemscore.Internal.Correction.Weighted>
   9.000000E+99

> <Gold.Protein.RotatedTorsions>
[ 6907 6896 6895 6894 ] final -116.84 input  -60.11 | X-H torsion
[ 7974 7965 7964 7962 ] final -174.18 input  175.53 | X-H torsion
[ 8008 7997 7996 7995 ] final   30.46 input   59.86 | X-H torsion
[ 10167 10162 10161 10158 ] final  -63.04 input  -65.29 | X-H torsion
[ 10718 10713 10712 10709 ] final -141.54 input   66.30 | X-H torsion
[ 10763 10752 10751 10750 ] final   48.70 input  -60.55 | X-H torsion
[ 11005 11000 10999 10996 ] final   75.71 input  -57.11 | X-H torsion

> <Gold.Protein.ActiveResidues>
 VAL166  LYS551  ARG553  GLY616  TRP617  ASP618  TYR619  PRO620  LYS621  CYS622 
 ASP623  PHE694  ASN695  SER759  ASP760  ASP761  ALA762  ILE779  LEU786  VAL792 
 PHE793  MET794  SER795  GLU796  ALA797  LYS798  CYS799  TRP800  GLU811  SER814 

> <Gold.Protein.RotatedAtoms>
  150.8088  133.8460  159.3191 H   0  0  0  0  0  0  0  0  0  0  0  0  # atno 6907 bound_to 6896
  151.6251  135.1026  160.0119 H   0  0  0  0  0  0  0  0  0  0  0  0  # atno 6908 bound_to 6896
  152.4180  133.7029  159.6491 H   0  0  0  0  0  0  0  0  0  0  0  0  # atno 6909 bound_to 6896
  144.7133  140.1510  143.6384 H   0  0  0  0  0  0  0  0  0  0  0  0  # atno 7974 bound_to 7965
  155.0907  140.3219  155.4574 H   0  0  0  0  0  0  0  0  0  0  0  0  # atno 8008 bound_to 7997
  156.2743  140.2078  156.5981 H   0  0  0  0  0  0  0  0  0  0  0  0  # atno 8009 bound_to 7997
  154.6905  140.0517  157.0346 H   0  0  0  0  0  0  0  0  0  0  0  0  # atno 8010 bound_to 7997
  140.5898  143.2340  151.6164 H   0  0  0  0  0  0  0  0  0  0  0  0  # atno 10167 bound_to 10162
  156.3352  130.7607  151.1733 H   0  0  0  0  0  0  0  0  0  0  0  0  # atno 10718 bound_to 10713
  152.9790  135.5936  154.3968 H   0  0  0  0  0  0  0  0  0  0  0  0  # atno 10763 bound_to 10752
  154.3618  135.2767  155.2318 H   0  0  0  0  0  0  0  0  0  0  0  0  # atno 10764 bound_to 10752
  154.4312  135.6036  153.6124 H   0  0  0  0  0  0  0  0  0  0  0  0  # atno 10765 bound_to 10752
  139.9331  134.7540  156.1305 H   0  0  0  0  0  0  0  0  0  0  0  0  # atno 11005 bound_to 11000
  145.9116  139.2491  143.1434 LP  0  0  0  0  0  0  0  0  0  0  0  0  # atno 17320 bound_to 7965
  145.9710  140.8760  143.0162 LP  0  0  0  0  0  0  0  0  0  0  0  0  # atno 17321 bound_to 7965
  139.5220  144.3175  152.0939 LP  0  0  0  0  0  0  0  0  0  0  0  0  # atno 17342 bound_to 10162
  140.2338  144.4341  150.6289 LP  0  0  0  0  0  0  0  0  0  0  0  0  # atno 17343 bound_to 10162
  157.7437  131.0470  150.4922 LP  0  0  0  0  0  0  0  0  0  0  0  0  # atno 17370 bound_to 10713
  156.5094  130.4136  149.6309 LP  0  0  0  0  0  0  0  0  0  0  0  0  # atno 17371 bound_to 10713
  141.0931  133.6706  156.2584 LP  0  0  0  0  0  0  0  0  0  0  0  0  # atno 17394 bound_to 11000
  140.6148  134.5422  157.5539 LP  0  0  0  0  0  0  0  0  0  0  0  0  # atno 17395 bound_to 11000

$$$$
