AV-unprocessed.smi:2786|AV-procd|sdf|10754|dock4
  -GOLD-   2272015183D 1   1.00000     0.00000
 Structure written by MMmdl.
 26 27  0  0  0  0  0  0  0  0  1 V2000
  152.2929  141.6000  159.7591 C   0  0  0  0  0  0  0  0  0  0  0  0
  152.1786  142.8340  159.0063 N   0  0  0  0  0  0  0  0  0  0  0  0
  152.7835  144.0415  159.3294 C   0  0  0  0  0  0  0  0  0  0  0  0
  152.4217  144.9373  158.3530 C   0  0  0  0  0  0  0  0  0  0  0  0
  151.6015  144.3024  157.4272 N   0  0  0  0  0  0  0  0  0  0  0  0
  151.4837  143.0529  157.8722 C   0  0  0  0  0  0  0  0  0  0  0  0
  150.6968  141.9781  157.1770 C   0  0  2  0  0  0  0  0  0  0  0  0
  151.5637  140.7225  156.9390 C   0  0  0  0  0  0  0  0  0  0  0  0
  150.7948  139.6716  156.2683 N   0  0  0  0  0  0  0  0  0  0  0  0
  150.2405  140.1545  155.0027 C   0  0  0  0  0  0  0  0  0  0  0  0
  149.3673  141.4010  155.2344 C   0  0  0  0  0  0  0  0  0  0  0  0
  150.1340  142.4522  155.9060 N   0  0  0  0  0  0  0  0  0  0  0  0
  153.0220  141.7151  160.5616 H   0  0  0  0  0  0  0  0  0  0  0  0
  152.6187  140.7932  159.1019 H   0  0  0  0  0  0  0  0  0  0  0  0
  151.3267  141.3435  160.1941 H   0  0  0  0  0  0  0  0  0  0  0  0
  153.4079  144.1600  160.2030 H   0  0  0  0  0  0  0  0  0  0  0  0
  152.6874  145.9783  158.2444 H   0  0  0  0  0  0  0  0  0  0  0  0
  149.8681  141.6974  157.8276 H   0  0  0  0  0  0  0  0  0  0  0  0
  152.4370  140.9836  156.3394 H   0  0  0  0  0  0  0  0  0  0  0  0
  151.9422  140.3489  157.8906 H   0  0  0  0  0  0  0  0  0  0  0  0
  151.3979  138.8750  156.0901 H   0  0  0  0  0  0  0  0  0  0  0  0
  151.0479  140.3927  154.3088 H   0  0  0  0  0  0  0  0  0  0  0  0
  149.6479  139.3697  154.5326 H   0  0  0  0  0  0  0  0  0  0  0  0
  148.9892  141.7698  154.2809 H   0  0  0  0  0  0  0  0  0  0  0  0
  148.4950  141.1349  155.8332 H   0  0  0  0  0  0  0  0  0  0  0  0
  149.5299  143.2480  156.0839 H   0  0  0  0  0  0  0  0  0  0  0  0
  1  2  1  0  0  0  0
  1 13  1  0  0  0  0
  1 14  1  0  0  0  0
  1 15  1  0  0  0  0
  2  6  1  0  0  0  0
  2  3  1  0  0  0  0
  3  4  2  0  0  0  0
  3 16  1  0  0  0  0
  4  5  1  0  0  0  0
  4 17  1  0  0  0  0
  5  6  2  0  0  0  0
  6  7  1  0  0  0  0
  7 12  1  0  0  0  0
  7  8  1  0  0  0  0
  7 18  1  0  0  0  0
  8  9  1  0  0  0  0
  8 19  1  0  0  0  0
  8 20  1  0  0  0  0
  9 10  1  0  0  0  0
  9 21  1  0  0  0  0
 10 11  1  0  0  0  0
 10 22  1  0  0  0  0
 10 23  1  0  0  0  0
 11 12  1  0  0  0  0
 11 24  1  0  0  0  0
 11 25  1  0  0  0  0
 12 26  1  0  0  0  0
M  END
> <s_m_source_file>
AV-unprocessed.smi

> <i_m_source_file_index>
2786

> <i_lp_mmshare_version>
43012

> <i_f3d_flags>
0

> <s_epik_input>
W0NIM11uMVtjSF1bY0hdbmMxW0NAQEhdMltDSDJdW05IXVtDSDJdW0NIMl1bTkhdMg==

> <s_epik_cmdline>
J2VwaWtfcHl0aG9uJywgJy1waCcsICc3LjAnLCAnLXRuJywgJzgnLCAnLW1hJywgJzIwMCcsICctbWV0YWxfYmluZGluZycsICctaW1hZScsICc8aW5maWxlLm1hZT4nLCAnLW9tYWUnLCAnPG91dGZpbGUubWFlPic=

> <r_lp_tautomer_probability>
1

> <r_epik_Ionization_Penalty>
3.5722

> <r_epik_Ionization_Penalty_Charging>
1.66148

> <r_epik_Ionization_Penalty_Neutral>
1.91072

> <r_epik_State_Penalty>
2.63328

> <r_epik_Charging_Adjusted_Penalty>
4.29476

> <i_epik_Tot_Q>
0

> <i_epik_Tot_abs_Q>
0

> <r_epik_Metal_State_Penalty>
0.942173

> <b_epik_Metal_Only>
0

> <s_lp_Force_Field>
OPLS_2005

> <r_lp_Energy>
22.0451

> <b_lp_Chiralities_Consistent>
1

> <s_lp_Variant>
AV-unprocessed.smi:2786-7

> <Gold.Version>
5.8.1

> <Gold.Id.Protein>
6NUR|6NUR_protein|mol2

> <Gold.PLP.Fitness>
31.5930

> <Gold.PLP.PLP>
-28.7282

> <Gold.PLP.part.hbond>
-1.0000

> <Gold.PLP.part.metal>
0.0000

> <Gold.PLP.part.buried>
-3.1691

> <Gold.PLP.part.nonpolar>
-24.1118

> <Gold.PLP.part.repulsive>
0.1442

> <Gold.PLP.ligand.clash>
0.0000

> <Gold.PLP.ligand.torsion>
0.0751

> <Gold.PLP.Chemscore.Hbond>
1.0000

> <Gold.PLP.Chemscore.CHOScore>
0.0000

> <Gold.PLP.Chemscore.Metal>
0.0000

> <Gold.Chemscore.Hbonds>
donor molecule, donor type, donor heavy atom, donor atom, acceptor molecule, acceptor atom, score
      L1  H    12    26       P1  8028  1.00

> <Gold.PLP.Chemscore.Internal.Correction>
0.0150

> <Gold.Rescore>
     Score         DG    S(hbond)    S(metal)    S(lipo)     H(rot)  DE(clash)    DE(int)     intcor
     13.74     -13.75       1.00        0.00      64.01       1.00       0.00       0.01       ----

> <Gold.Chemscore.Fitness>
13.7355

> <Gold.Chemscore.DG>
-13.7463

> <Gold.Chemscore.ZeroCoef>
-5.4800

> <Gold.Chemscore.Hbond>
0.9993

> <Gold.Chemscore.Metal>
0.0000

> <Gold.Chemscore.Lipo>
64.0054

> <Gold.Chemscore.Internal_Hbond>
0.0000

> <Gold.Chemscore.DEClash>
0.0000

> <Gold.Chemscore.DEInternal>
0.0108

> <Gold.Chemscore.Rot>
1.0000

> <Gold.Chemscore.Internal.Correction>
   9.000000E+99

> <Gold.Chemscore.Hbonds>
donor molecule, donor type, donor heavy atom, donor atom, acceptor molecule, acceptor atom, score
      L1  H    12    26       P1  8028  0.96

> <Gold.Chemscore.Hbond.Weighted>
-3.3377

> <Gold.Chemscore.Metal.Weighted>
-0.0000

> <Gold.Chemscore.Lipo.Weighted>
-7.4886

> <Gold.Chemscore.Internal_Hbond.Weighted>
0.0000

> <Gold.Chemscore.DEClash.Weighted>
0.0000

> <Gold.Chemscore.DEInternal.Weighted>
0.0108

> <Gold.Chemscore.Rot.Weighted>
2.5600

> <Gold.Chemscore.Internal.Correction.Weighted>
   9.000000E+99

> <Gold.Protein.RotatedTorsions>
[ 6907 6896 6895 6894 ] final  168.94 input  -60.11 | X-H torsion
[ 7974 7965 7964 7962 ] final  -15.52 input  175.53 | X-H torsion
[ 8008 7997 7996 7995 ] final  -29.36 input   59.86 | X-H torsion
[ 10167 10162 10161 10158 ] final  152.12 input  -65.29 | X-H torsion
[ 10718 10713 10712 10709 ] final -134.41 input   66.30 | X-H torsion
[ 10763 10752 10751 10750 ] final  -89.66 input  -60.55 | X-H torsion
[ 11005 11000 10999 10996 ] final  -42.48 input  -57.11 | X-H torsion

> <Gold.Protein.ActiveResidues>
 VAL166  LYS551  ARG553  GLY616  TRP617  ASP618  TYR619  PRO620  LYS621  CYS622 
 ASP623  PHE694  ASN695  SER759  ASP760  ASP761  ALA762  ILE779  LEU786  VAL792 
 PHE793  MET794  SER795  GLU796  ALA797  LYS798  CYS799  TRP800  GLU811  SER814 

> <Gold.Protein.RotatedAtoms>
  151.8397  133.3421  159.3638 H   0  0  0  0  0  0  0  0  0  0  0  0  # atno 6907 bound_to 6896
  150.7238  134.5403  159.5753 H   0  0  0  0  0  0  0  0  0  0  0  0  # atno 6908 bound_to 6896
  152.2874  134.7761  160.0436 H   0  0  0  0  0  0  0  0  0  0  0  0  # atno 6909 bound_to 6896
  146.2028  140.3504  142.8417 H   0  0  0  0  0  0  0  0  0  0  0  0  # atno 7974 bound_to 7965
  154.4293  140.1820  156.1236 H   0  0  0  0  0  0  0  0  0  0  0  0  # atno 8008 bound_to 7997
  156.0123  140.3349  155.6928 H   0  0  0  0  0  0  0  0  0  0  0  0  # atno 8009 bound_to 7997
  155.6093  140.0648  157.2701 H   0  0  0  0  0  0  0  0  0  0  0  0  # atno 8010 bound_to 7997
  139.4835  144.5384  151.7606 H   0  0  0  0  0  0  0  0  0  0  0  0  # atno 10167 bound_to 10162
  156.2551  130.7176  151.1090 H   0  0  0  0  0  0  0  0  0  0  0  0  # atno 10718 bound_to 10713
  154.6576  135.5333  153.7978 H   0  0  0  0  0  0  0  0  0  0  0  0  # atno 10763 bound_to 10752
  153.0422  135.6498  154.0922 H   0  0  0  0  0  0  0  0  0  0  0  0  # atno 10764 bound_to 10752
  154.0833  135.2945  155.3266 H   0  0  0  0  0  0  0  0  0  0  0  0  # atno 10765 bound_to 10752
  141.0319  133.6816  156.2601 H   0  0  0  0  0  0  0  0  0  0  0  0  # atno 11005 bound_to 11000
  144.8723  140.7289  143.6039 LP  0  0  0  0  0  0  0  0  0  0  0  0  # atno 17320 bound_to 7965
  145.3423  139.1728  143.4479 LP  0  0  0  0  0  0  0  0  0  0  0  0  # atno 17321 bound_to 7965
  140.4920  144.1296  150.5952 LP  0  0  0  0  0  0  0  0  0  0  0  0  # atno 17342 bound_to 10162
  140.4160  143.2634  151.9774 LP  0  0  0  0  0  0  0  0  0  0  0  0  # atno 17343 bound_to 10162
  157.7229  131.0669  150.6056 LP  0  0  0  0  0  0  0  0  0  0  0  0  # atno 17370 bound_to 10713
  156.6140  130.4387  149.5848 LP  0  0  0  0  0  0  0  0  0  0  0  0  # atno 17371 bound_to 10713
  140.6392  134.5183  157.5568 LP  0  0  0  0  0  0  0  0  0  0  0  0  # atno 17394 bound_to 11000
  139.9213  134.8142  156.1202 LP  0  0  0  0  0  0  0  0  0  0  0  0  # atno 17395 bound_to 11000

$$$$
