AV-unprocessed.smi:683|AV-procd|sdf|3331|dock8
  -GOLD-   22720 0303D 1   1.00000     0.00000
 Structure written by MMmdl.
 29 30  0  0  0  0  0  0  0  0  2 V2000
  154.3565  141.6423  162.2294 N   0  0  0  0  0  0  0  0  0  0  0  0
  153.6046  142.1443  161.5072 C   0  0  0  0  0  0  0  0  0  0  0  0
  152.6601  142.7746  160.6001 C   0  0  0  0  0  0  0  0  0  0  0  0
  152.1205  144.0385  160.9109 C   0  0  0  0  0  0  0  0  0  0  0  0
  151.2064  144.6460  160.0304 C   0  0  0  0  0  0  0  0  0  0  0  0
  150.8331  143.9921  158.8409 C   0  0  0  0  0  0  0  0  0  0  0  0
  151.3647  142.7276  158.5145 C   0  0  0  0  0  0  0  0  0  0  0  0
  150.9461  142.1607  157.3297 O   0  0  0  0  0  0  0  0  0  0  0  0
  151.6432  141.0199  156.8486 C   0  0  0  0  0  0  0  0  0  0  0  0
  151.0481  140.6129  155.4933 C   0  0  0  0  0  0  0  0  0  0  0  0
  151.0550  139.1540  155.3243 N   0  0  0  0  0  0  0  0  0  0  0  0
  149.8157  138.5108  155.1677 C   0  0  0  0  0  0  0  0  0  0  0  0
  149.7173  137.1760  155.0152 C   0  0  0  0  0  0  0  0  0  0  0  0
  148.1792  136.4124  154.8255 Cl  0  0  0  0  0  0  0  0  0  0  0  0
  150.9512  136.3925  155.0184 C   0  0  0  0  0  0  0  0  0  0  0  0
  150.8979  135.1715  154.8775 O   0  0  0  0  0  0  0  0  0  0  0  0
  152.1284  137.0644  155.1822 N   0  5  0  0  0  0  0  0  0  0  0  0
  152.2080  138.4217  155.3391 C   0  0  0  0  0  0  0  0  0  0  0  0
  153.2811  139.0046  155.4957 O   0  0  0  0  0  0  0  0  0  0  0  0
  152.2844  142.1211  159.4080 C   0  0  0  0  0  0  0  0  0  0  0  0
  152.4035  144.5471  161.8216 H   0  0  0  0  0  0  0  0  0  0  0  0
  150.7917  145.6146  160.2670 H   0  0  0  0  0  0  0  0  0  0  0  0
  150.1317  144.4668  158.1703 H   0  0  0  0  0  0  0  0  0  0  0  0
  152.7040  141.2491  156.7346 H   0  0  0  0  0  0  0  0  0  0  0  0
  151.5459  140.1949  157.5561 H   0  0  0  0  0  0  0  0  0  0  0  0
  150.0295  140.9956  155.4131 H   0  0  0  0  0  0  0  0  0  0  0  0
  151.5982  141.0946  154.6832 H   0  0  0  0  0  0  0  0  0  0  0  0
  148.9557  139.1643  155.1833 H   0  0  0  0  0  0  0  0  0  0  0  0
  152.7135  141.1530  159.1948 H   0  0  0  0  0  0  0  0  0  0  0  0
  1  2  3  0  0  0  0
  2  3  1  0  0  0  0
  3 20  1  0  0  0  0
  3  4  2  0  0  0  0
  4  5  1  0  0  0  0
  4 21  1  0  0  0  0
  5  6  2  0  0  0  0
  5 22  1  0  0  0  0
  6  7  1  0  0  0  0
  6 23  1  0  0  0  0
  7  8  1  0  0  0  0
  7 20  2  0  0  0  0
  8  9  1  0  0  0  0
  9 10  1  0  0  0  0
  9 24  1  0  0  0  0
  9 25  1  0  0  0  0
 10 11  1  0  0  0  0
 10 26  1  0  0  0  0
 10 27  1  0  0  0  0
 11 18  1  0  0  0  0
 11 12  1  0  0  0  0
 12 13  2  0  0  0  0
 12 28  1  0  0  0  0
 13 14  1  0  0  0  0
 13 15  1  0  0  0  0
 15 16  2  0  0  0  0
 15 17  1  0  0  0  0
 17 18  1  0  0  0  0
 18 19  2  0  0  0  0
 20 29  1  0  0  0  0
M  CHG  1  17  -1
M  END
> <s_m_source_file>
AV-unprocessed.smi

> <i_m_source_file_index>
683

> <i_lp_mmshare_version>
43012

> <i_f3d_flags>
0

> <s_epik_input>
TiNDYzFbY0hdW2NIXVtjSF1jKFtjSF0xKU9bQ0gyXVtDSDJdbjJbY0hdYyhDbCljKD1PKVtuSF1jMj1P

> <s_epik_cmdline>
J2VwaWtfcHl0aG9uJywgJy1waCcsICc3LjAnLCAnLXRuJywgJzgnLCAnLW1hJywgJzIwMCcsICctbWV0YWxfYmluZGluZycsICctaW1hZScsICc8aW5maWxlLm1hZT4nLCAnLW9tYWUnLCAnPG91dGZpbGUubWFlPic=

> <r_epik_Ionization_Penalty>
1.49102

> <r_epik_Ionization_Penalty_Charging>
6.47896e-09

> <r_epik_Ionization_Penalty_Neutral>
1.49102

> <r_epik_State_Penalty>
1.58045

> <r_epik_Charging_Adjusted_Penalty>
1.58045

> <i_epik_Tot_Q>
-1

> <i_epik_Tot_abs_Q>
1

> <r_epik_Metal_State_Penalty>
0.00788874

> <b_epik_Metal_Only>
0

> <s_lp_Force_Field>
OPLS_2005

> <r_lp_Energy>
20.1006

> <b_lp_Chiralities_Consistent>
1

> <s_lp_Variant>
AV-unprocessed.smi:683-2

> <Gold.Version>
5.8.1

> <Gold.Id.Protein>
6NUR|6NUR_protein|mol2

> <Gold.PLP.Fitness>
47.7157

> <Gold.PLP.PLP>
-39.4186

> <Gold.PLP.part.hbond>
-3.0000

> <Gold.PLP.part.metal>
0.0000

> <Gold.PLP.part.buried>
-6.0843

> <Gold.PLP.part.nonpolar>
-30.4418

> <Gold.PLP.part.repulsive>
0.2743

> <Gold.PLP.ligand.clash>
0.0000

> <Gold.PLP.ligand.torsion>
0.3636

> <Gold.PLP.Chemscore.Hbond>
3.0000

> <Gold.PLP.Chemscore.CHOScore>
0.0000

> <Gold.PLP.Chemscore.Metal>
0.0000

> <Gold.Chemscore.Hbonds>
donor molecule, donor type, donor heavy atom, donor atom, acceptor molecule, acceptor atom, score
      P1  H  7997  8009       L1    19  1.00
      P1  H 10752 10765       L1    17  0.85

> <Gold.PLP.Chemscore.Internal.Correction>
0.0244

> <Gold.Rescore>
     Score         DG    S(hbond)    S(metal)    S(lipo)     H(rot)  DE(clash)    DE(int)     intcor
     14.06     -15.60       1.62        0.00      83.26       1.97       0.02       1.52       ----

> <Gold.Chemscore.Fitness>
14.0596

> <Gold.Chemscore.DG>
-15.5999

> <Gold.Chemscore.ZeroCoef>
-5.4800

> <Gold.Chemscore.Hbond>
1.6246

> <Gold.Chemscore.Metal>
0.0000

> <Gold.Chemscore.Lipo>
83.2582

> <Gold.Chemscore.Internal_Hbond>
0.0000

> <Gold.Chemscore.DEClash>
0.0186

> <Gold.Chemscore.DEInternal>
1.5216

> <Gold.Chemscore.Rot>
1.9717

> <Gold.Chemscore.Internal.Correction>
   9.000000E+99

> <Gold.Chemscore.Hbonds>
donor molecule, donor type, donor heavy atom, donor atom, acceptor molecule, acceptor atom, score
      P1  H  7997  8009       L1    19  0.98
      P1  H 10752 10765       L1    17  0.02

> <Gold.Chemscore.Hbond.Weighted>
-5.4261

> <Gold.Chemscore.Metal.Weighted>
-0.0000

> <Gold.Chemscore.Lipo.Weighted>
-9.7412

> <Gold.Chemscore.Internal_Hbond.Weighted>
0.0000

> <Gold.Chemscore.DEClash.Weighted>
0.0186

> <Gold.Chemscore.DEInternal.Weighted>
1.5216

> <Gold.Chemscore.Rot.Weighted>
5.0475

> <Gold.Chemscore.Internal.Correction.Weighted>
   9.000000E+99

> <Gold.Protein.RotatedTorsions>
[ 6907 6896 6895 6894 ] final -123.19 input  -60.11 | X-H torsion
[ 7974 7965 7964 7962 ] final -157.11 input  175.53 | X-H torsion
[ 8008 7997 7996 7995 ] final -150.42 input   59.86 | X-H torsion
[ 10167 10162 10161 10158 ] final  -26.64 input  -65.29 | X-H torsion
[ 10718 10713 10712 10709 ] final   32.13 input   66.30 | X-H torsion
[ 10763 10752 10751 10750 ] final -164.82 input  -60.55 | X-H torsion
[ 11005 11000 10999 10996 ] final  -97.39 input  -57.11 | X-H torsion

> <Gold.Protein.ActiveResidues>
 VAL166  LYS551  ARG553  GLY616  TRP617  ASP618  TYR619  PRO620  LYS621  CYS622 
 ASP623  PHE694  ASN695  SER759  ASP760  ASP761  ALA762  ILE779  LEU786  VAL792 
 PHE793  MET794  SER795  GLU796  ALA797  LYS798  CYS799  TRP800  GLU811  SER814 

> <Gold.Protein.RotatedAtoms>
  150.8647  133.7592  159.2980 H   0  0  0  0  0  0  0  0  0  0  0  0  # atno 6907 bound_to 6896
  151.5223  135.1066  159.9891 H   0  0  0  0  0  0  0  0  0  0  0  0  # atno 6908 bound_to 6896
  152.4652  133.7863  159.6934 H   0  0  0  0  0  0  0  0  0  0  0  0  # atno 6909 bound_to 6896
  144.7563  140.4015  143.6010 H   0  0  0  0  0  0  0  0  0  0  0  0  # atno 7974 bound_to 7965
  155.6233  140.0684  157.2671 H   0  0  0  0  0  0  0  0  0  0  0  0  # atno 8008 bound_to 7997
  154.4224  140.1780  156.1443 H   0  0  0  0  0  0  0  0  0  0  0  0  # atno 8009 bound_to 7997
  155.9992  140.3338  155.6832 H   0  0  0  0  0  0  0  0  0  0  0  0  # atno 8010 bound_to 7997
  140.7282  143.4161  151.1027 H   0  0  0  0  0  0  0  0  0  0  0  0  # atno 10167 bound_to 10162
  157.2813  130.7256  149.6558 H   0  0  0  0  0  0  0  0  0  0  0  0  # atno 10718 bound_to 10713
  154.6991  135.2984  154.9367 H   0  0  0  0  0  0  0  0  0  0  0  0  # atno 10763 bound_to 10752
  154.0305  135.6671  153.4784 H   0  0  0  0  0  0  0  0  0  0  0  0  # atno 10764 bound_to 10752
  153.0668  135.5083  154.8126 H   0  0  0  0  0  0  0  0  0  0  0  0  # atno 10765 bound_to 10752
  141.1380  133.8167  157.0699 H   0  0  0  0  0  0  0  0  0  0  0  0  # atno 11005 bound_to 11000
  145.6769  139.1610  143.2723 LP  0  0  0  0  0  0  0  0  0  0  0  0  # atno 17320 bound_to 7965
  146.1576  140.6835  142.9292 LP  0  0  0  0  0  0  0  0  0  0  0  0  # atno 17321 bound_to 7965
  139.7800  143.8369  152.3136 LP  0  0  0  0  0  0  0  0  0  0  0  0  # atno 17342 bound_to 10162
  139.8317  144.7251  150.9442 LP  0  0  0  0  0  0  0  0  0  0  0  0  # atno 17343 bound_to 10162
  155.9664  130.4337  150.5018 LP  0  0  0  0  0  0  0  0  0  0  0  0  # atno 17370 bound_to 10713
  157.2962  131.0636  151.2100 LP  0  0  0  0  0  0  0  0  0  0  0  0  # atno 17371 bound_to 10713
  140.0518  134.9801  157.1149 LP  0  0  0  0  0  0  0  0  0  0  0  0  # atno 17394 bound_to 11000
  140.3979  134.2114  155.7164 LP  0  0  0  0  0  0  0  0  0  0  0  0  # atno 17395 bound_to 11000

$$$$
