AV-unprocessed.smi:2571|AV-procd|sdf|10109|dock8
  -GOLD-   2272014123D 1   1.00000     0.00000
 Structure written by MMmdl.
 38 40  0  0  0  0  0  0  0  0  1 V2000
  153.1182  142.9278  162.8231 C   0  0  0  0  0  0  0  0  0  0  0  0
  153.1822  142.1525  161.6353 O   0  0  0  0  0  0  0  0  0  0  0  0
  152.6792  142.7014  160.4756 C   0  0  0  0  0  0  0  0  0  0  0  0
  152.3869  144.0778  160.3062 C   0  0  0  0  0  0  0  0  0  0  0  0
  151.8868  144.5527  159.0787 C   0  0  0  0  0  0  0  0  0  0  0  0
  151.6789  143.6650  158.0073 C   0  0  0  0  0  0  0  0  0  0  0  0
  151.9669  142.2922  158.1601 C   0  0  0  0  0  0  0  0  0  0  0  0
  151.8052  141.3227  156.9959 C   0  0  1  0  0  0  0  0  0  0  0  0
  152.4480  140.0850  157.2273 O   0  0  0  0  0  0  0  0  0  0  0  0
  150.3228  141.0490  156.6653 C   0  0  0  0  0  0  0  0  0  0  0  0
  150.1496  139.8322  155.8846 N   0  0  0  0  0  0  0  0  0  0  0  0
  150.3011  139.8779  154.5358 N   0  0  0  0  0  0  0  0  0  0  0  0
  150.0371  138.6485  154.0984 C   0  0  0  0  0  0  0  0  0  0  0  0
  149.6991  137.7663  155.1608 C   0  0  0  0  0  0  0  0  0  0  0  0
  149.3080  136.3632  155.2543 C   0  0  0  0  0  0  0  0  0  0  0  0
  149.0384  135.8782  156.4259 N   0  0  0  0  0  0  0  0  0  0  0  0
  149.1235  136.6693  157.5771 N   0  0  0  0  0  0  0  0  0  0  0  0
  148.7744  135.9833  158.8189 C   0  0  0  0  0  0  0  0  0  0  0  0
  149.5048  137.9814  157.6012 C   0  0  0  0  0  0  0  0  0  0  0  0
  149.6015  138.6498  158.6299 O   0  0  0  0  0  0  0  0  0  0  0  0
  149.7956  138.5509  156.2627 C   0  0  0  0  0  0  0  0  0  0  0  0
  152.4554  141.8217  159.3975 C   0  0  0  0  0  0  0  0  0  0  0  0
  153.5697  142.3684  163.6423 H   0  0  0  0  0  0  0  0  0  0  0  0
  152.0864  143.1459  163.1022 H   0  0  0  0  0  0  0  0  0  0  0  0
  153.6708  143.8626  162.7186 H   0  0  0  0  0  0  0  0  0  0  0  0
  152.5405  144.7907  161.1018 H   0  0  0  0  0  0  0  0  0  0  0  0
  151.6719  145.6039  158.9554 H   0  0  0  0  0  0  0  0  0  0  0  0
  151.3162  144.0467  157.0641 H   0  0  0  0  0  0  0  0  0  0  0  0
  152.2877  141.7569  156.1190 H   0  0  0  0  0  0  0  0  0  0  0  0
  151.8295  139.3911  157.0574 H   0  0  0  0  0  0  0  0  0  0  0  0
  149.7515  140.9376  157.5886 H   0  0  0  0  0  0  0  0  0  0  0  0
  149.8774  141.8903  156.1356 H   0  0  0  0  0  0  0  0  0  0  0  0
  150.0883  138.4452  153.0390 H   0  0  0  0  0  0  0  0  0  0  0  0
  149.2434  135.7451  154.3589 H   0  0  0  0  0  0  0  0  0  0  0  0
  149.6286  135.9597  159.4972 H   0  0  0  0  0  0  0  0  0  0  0  0
  148.4628  134.9523  158.6432 H   0  0  0  0  0  0  0  0  0  0  0  0
  147.9519  136.4945  159.3215 H   0  0  0  0  0  0  0  0  0  0  0  0
  152.6887  140.7733  159.5154 H   0  0  0  0  0  0  0  0  0  0  0  0
  1  2  1  0  0  0  0
  1 23  1  0  0  0  0
  1 24  1  0  0  0  0
  1 25  1  0  0  0  0
  2  3  1  0  0  0  0
  3 22  1  0  0  0  0
  3  4  2  0  0  0  0
  4  5  1  0  0  0  0
  4 26  1  0  0  0  0
  5  6  2  0  0  0  0
  5 27  1  0  0  0  0
  6  7  1  0  0  0  0
  6 28  1  0  0  0  0
  7  8  1  0  0  0  0
  7 22  2  0  0  0  0
  8  9  1  0  0  0  0
  8 10  1  0  0  0  0
  8 29  1  0  0  0  0
  9 30  1  0  0  0  0
 10 11  1  0  0  0  0
 10 31  1  0  0  0  0
 10 32  1  0  0  0  0
 11 21  1  0  0  0  0
 11 12  1  0  0  0  0
 12 13  2  0  0  0  0
 13 14  1  0  0  0  0
 13 33  1  0  0  0  0
 14 21  2  0  0  0  0
 14 15  1  0  0  0  0
 15 16  2  0  0  0  0
 15 34  1  0  0  0  0
 16 17  1  0  0  0  0
 17 18  1  0  0  0  0
 17 19  1  0  0  0  0
 18 35  1  0  0  0  0
 18 36  1  0  0  0  0
 18 37  1  0  0  0  0
 19 20  2  0  0  0  0
 19 21  1  0  0  0  0
 22 38  1  0  0  0  0
M  END
> <s_m_source_file>
AV-unprocessed.smi

> <i_m_source_file_index>
2571

> <i_lp_mmshare_version>
43012

> <i_f3d_flags>
0

> <s_epik_input>
W0NIM11PYzFbY0hdW2NIXVtjSF1jKFtjSF0xKVtDQEhdKFtPSF0pW0NIMl1uKG5bY0hdMiljKGMyMyljKD1PKW4oW0NIM10pbltjSF0z

> <s_epik_cmdline>
J2VwaWtfcHl0aG9uJywgJy1waCcsICc3LjAnLCAnLXRuJywgJzgnLCAnLW1hJywgJzIwMCcsICctbWV0YWxfYmluZGluZycsICctaW1hZScsICc8aW5maWxlLm1hZT4nLCAnLW9tYWUnLCAnPG91dGZpbGUubWFlPic=

> <r_lp_tautomer_probability>
1

> <r_epik_Ionization_Penalty>
1.38887e-06

> <r_epik_Ionization_Penalty_Charging>
1.65421e-10

> <r_epik_Ionization_Penalty_Neutral>
1.38871e-06

> <r_epik_State_Penalty>
-0

> <r_epik_Charging_Adjusted_Penalty>
1.65421e-10

> <i_epik_Tot_Q>
0

> <i_epik_Tot_abs_Q>
0

> <r_epik_Metal_State_Penalty>
-0

> <b_epik_Metal_Only>
0

> <s_lp_Force_Field>
OPLS_2005

> <r_lp_Energy>
30.2232

> <b_lp_Chiralities_Consistent>
1

> <s_lp_Variant>
AV-unprocessed.smi:2571-2

> <Gold.Version>
5.8.1

> <Gold.Id.Protein>
6NUR|6NUR_protein|mol2

> <Gold.PLP.Fitness>
49.2784

> <Gold.PLP.PLP>
-37.7556

> <Gold.PLP.part.hbond>
-2.0000

> <Gold.PLP.part.metal>
0.0000

> <Gold.PLP.part.buried>
-6.8776

> <Gold.PLP.part.nonpolar>
-29.1729

> <Gold.PLP.part.repulsive>
0.1499

> <Gold.PLP.ligand.clash>
0.0000

> <Gold.PLP.ligand.torsion>
1.0006

> <Gold.PLP.Chemscore.Hbond>
2.0000

> <Gold.PLP.Chemscore.CHOScore>
2.4999

> <Gold.PLP.Chemscore.Metal>
0.0000

> <Gold.Chemscore.Hbonds>
donor molecule, donor type, donor heavy atom, donor atom, acceptor molecule, acceptor atom, score
      P1  H  7989  7998       L1    12  1.00
      P1  H  7997  8010       L1     9  1.00
      L1  C    13    33       P1  7948  0.51
      L1  C    13    33       P1  7957  0.97
      L1  C    15    34       P1  7948  0.99

> <Gold.PLP.Chemscore.Internal.Correction>
0.0242

> <Gold.Rescore>
     Score         DG    S(hbond)    S(metal)    S(lipo)     H(rot)  DE(clash)    DE(int)     intcor
     17.96     -19.05       1.84        0.00     112.02       2.21       0.30       0.80       ----

> <Gold.Chemscore.Fitness>
17.9636

> <Gold.Chemscore.DG>
-19.0542

> <Gold.Chemscore.ZeroCoef>
-5.4800

> <Gold.Chemscore.Hbond>
1.8376

> <Gold.Chemscore.Metal>
0.0000

> <Gold.Chemscore.Lipo>
112.0166

> <Gold.Chemscore.Internal_Hbond>
0.0000

> <Gold.Chemscore.DEClash>
0.2950

> <Gold.Chemscore.DEInternal>
0.7957

> <Gold.Chemscore.Rot>
2.2146

> <Gold.Chemscore.Internal.Correction>
   9.000000E+99

> <Gold.Chemscore.Hbonds>
donor molecule, donor type, donor heavy atom, donor atom, acceptor molecule, acceptor atom, score
      P1  H  7989  7998       L1    12  0.89
      P1  H  7997  8010       L1     9  0.81

> <Gold.Chemscore.Hbond.Weighted>
-6.1376

> <Gold.Chemscore.Metal.Weighted>
-0.0000

> <Gold.Chemscore.Lipo.Weighted>
-13.1059

> <Gold.Chemscore.Internal_Hbond.Weighted>
0.0000

> <Gold.Chemscore.DEClash.Weighted>
0.2950

> <Gold.Chemscore.DEInternal.Weighted>
0.7957

> <Gold.Chemscore.Rot.Weighted>
5.6693

> <Gold.Chemscore.Internal.Correction.Weighted>
   9.000000E+99

> <Gold.Protein.RotatedTorsions>
[ 6907 6896 6895 6894 ] final   38.74 input  -60.11 | X-H torsion
[ 7974 7965 7964 7962 ] final -157.44 input  175.53 | X-H torsion
[ 8008 7997 7996 7995 ] final   53.80 input   59.86 | X-H torsion
[ 10167 10162 10161 10158 ] final   86.64 input  -65.29 | X-H torsion
[ 10718 10713 10712 10709 ] final  135.49 input   66.30 | X-H torsion
[ 10763 10752 10751 10750 ] final -152.06 input  -60.55 | X-H torsion
[ 11005 11000 10999 10996 ] final   19.94 input  -57.11 | X-H torsion

> <Gold.Protein.ActiveResidues>
 VAL166  LYS551  ARG553  GLY616  TRP617  ASP618  TYR619  PRO620  LYS621  CYS622 
 ASP623  PHE694  ASN695  SER759  ASP760  ASP761  ALA762  ILE779  LEU786  VAL792 
 PHE793  MET794  SER795  GLU796  ALA797  LYS798  CYS799  TRP800  GLU811  SER814 

> <Gold.Protein.RotatedAtoms>
  152.1604  134.8917  160.0541 H   0  0  0  0  0  0  0  0  0  0  0  0  # atno 6907 bound_to 6896
  151.9915  133.3787  159.4154 H   0  0  0  0  0  0  0  0  0  0  0  0  # atno 6908 bound_to 6896
  150.6887  134.3854  159.5096 H   0  0  0  0  0  0  0  0  0  0  0  0  # atno 6909 bound_to 6896
  144.7548  140.3969  143.6020 H   0  0  0  0  0  0  0  0  0  0  0  0  # atno 7974 bound_to 7965
  155.4742  140.3466  155.4330 H   0  0  0  0  0  0  0  0  0  0  0  0  # atno 8008 bound_to 7997
  156.1081  140.1453  156.9405 H   0  0  0  0  0  0  0  0  0  0  0  0  # atno 8009 bound_to 7997
  154.4738  140.0892  156.7189 H   0  0  0  0  0  0  0  0  0  0  0  0  # atno 8010 bound_to 7997
  139.8855  144.6416  150.8796 H   0  0  0  0  0  0  0  0  0  0  0  0  # atno 10167 bound_to 10162
  157.4565  131.1070  150.9972 H   0  0  0  0  0  0  0  0  0  0  0  0  # atno 10718 bound_to 10713
  154.8018  135.3245  154.7530 H   0  0  0  0  0  0  0  0  0  0  0  0  # atno 10763 bound_to 10752
  153.8196  135.6889  153.4833 H   0  0  0  0  0  0  0  0  0  0  0  0  # atno 10764 bound_to 10752
  153.1740  135.4612  154.9884 H   0  0  0  0  0  0  0  0  0  0  0  0  # atno 10765 bound_to 10752
  140.4082  134.1647  155.7666 H   0  0  0  0  0  0  0  0  0  0  0  0  # atno 11005 bound_to 11000
  145.6816  139.1620  143.2697 LP  0  0  0  0  0  0  0  0  0  0  0  0  # atno 17320 bound_to 7965
  146.1545  140.6877  142.9306 LP  0  0  0  0  0  0  0  0  0  0  0  0  # atno 17321 bound_to 7965
  140.7736  143.3552  151.1936 LP  0  0  0  0  0  0  0  0  0  0  0  0  # atno 17342 bound_to 10162
  139.7157  143.9304  152.2966 LP  0  0  0  0  0  0  0  0  0  0  0  0  # atno 17343 bound_to 10162
  157.0784  130.5893  149.5415 LP  0  0  0  0  0  0  0  0  0  0  0  0  # atno 17370 bound_to 10713
  156.0009  130.5088  150.7660 LP  0  0  0  0  0  0  0  0  0  0  0  0  # atno 17371 bound_to 10713
  141.1831  133.8371  157.1185 LP  0  0  0  0  0  0  0  0  0  0  0  0  # atno 17394 bound_to 11000
  140.0287  134.9911  157.0737 LP  0  0  0  0  0  0  0  0  0  0  0  0  # atno 17395 bound_to 11000

$$$$
