AV-unprocessed.smi:1893|AV-procd|sdf|7676|dock9
  -GOLD-   22720 9413D 1   1.00000     0.00000
 Structure written by MMmdl.
 43 44  0  0  0  0  0  0  0  0  2 V2000
  146.4158  131.7683  152.4695 C   0  0  0  0  0  0  0  0  0  0  0  0
  146.9715  133.0506  151.8120 C   0  0  1  0  0  0  0  0  0  0  0  0
  145.9318  133.7436  150.9063 C   0  0  0  0  0  0  0  0  0  0  0  0
  144.8306  134.4393  151.7199 C   0  0  0  0  0  0  0  0  0  0  0  0
  145.4566  135.4045  152.7337 C   0  0  0  0  0  0  0  0  0  0  0  0
  146.4899  134.6895  153.6199 C   0  0  0  0  0  0  0  0  0  0  0  0
  147.5357  134.0246  152.7945 N   0  3  1  0  0  0  0  0  0  0  0  0
  148.6700  133.4820  153.5864 C   0  0  0  0  0  0  0  0  0  0  0  0
  148.9347  134.2991  154.8649 C   0  0  0  0  0  0  0  0  0  0  0  0
  149.4473  135.6278  154.5533 N   0  0  0  0  0  0  0  0  0  0  0  0
  150.6226  136.1179  154.9811 C   0  0  0  0  0  0  0  0  0  0  0  0
  151.3767  135.4852  155.7215 O   0  0  0  0  0  0  0  0  0  0  0  0
  150.9882  137.5358  154.5063 C   0  0  1  0  0  0  0  0  0  0  0  0
  149.7803  138.3168  153.9501 C   0  0  0  0  0  0  0  0  0  0  0  0
  151.6645  138.2777  155.5640 N   0  0  0  0  0  0  0  0  0  0  0  0
  152.1671  139.5143  155.5609 C   0  0  0  0  0  0  0  0  0  0  0  0
  152.7516  139.8610  156.6990 N   0  0  0  0  0  0  0  0  0  0  0  0
  152.5649  138.7103  157.4113 C   0  0  0  0  0  0  0  0  0  0  0  0
  151.9262  137.7279  156.7762 N   0  0  0  0  0  0  0  0  0  0  0  0
  146.0347  131.0829  151.7123 H   0  0  0  0  0  0  0  0  0  0  0  0
  145.5972  131.9743  153.1583 H   0  0  0  0  0  0  0  0  0  0  0  0
  147.1858  131.2306  153.0224 H   0  0  0  0  0  0  0  0  0  0  0  0
  147.7918  132.7422  151.1622 H   0  0  0  0  0  0  0  0  0  0  0  0
  146.4362  134.4858  150.2857 H   0  0  0  0  0  0  0  0  0  0  0  0
  145.4902  133.0242  150.2157 H   0  0  0  0  0  0  0  0  0  0  0  0
  144.1572  134.9797  151.0540 H   0  0  0  0  0  0  0  0  0  0  0  0
  144.2216  133.6987  152.2389 H   0  0  0  0  0  0  0  0  0  0  0  0
  145.9374  136.2284  152.2045 H   0  0  0  0  0  0  0  0  0  0  0  0
  144.6777  135.8495  153.3536 H   0  0  0  0  0  0  0  0  0  0  0  0
  146.9441  135.4252  154.2823 H   0  0  0  0  0  0  0  0  0  0  0  0
  145.9982  133.9596  154.2638 H   0  0  0  0  0  0  0  0  0  0  0  0
  148.4865  132.4347  153.8312 H   0  0  0  0  0  0  0  0  0  0  0  0
  149.5719  133.5031  152.9730 H   0  0  0  0  0  0  0  0  0  0  0  0
  148.0251  134.3810  155.4624 H   0  0  0  0  0  0  0  0  0  0  0  0
  149.6753  133.8085  155.4952 H   0  0  0  0  0  0  0  0  0  0  0  0
  148.8831  136.2072  153.9484 H   0  0  0  0  0  0  0  0  0  0  0  0
  151.7021  137.4182  153.6896 H   0  0  0  0  0  0  0  0  0  0  0  0
  149.3215  137.7913  153.1117 H   0  0  0  0  0  0  0  0  0  0  0  0
  150.0861  139.2992  153.5889 H   0  0  0  0  0  0  0  0  0  0  0  0
  149.0100  138.4693  154.7072 H   0  0  0  0  0  0  0  0  0  0  0  0
  152.1078  140.1733  154.7071 H   0  0  0  0  0  0  0  0  0  0  0  0
  152.9149  138.5910  158.4260 H   0  0  0  0  0  0  0  0  0  0  0  0
  147.9384  134.7558  152.2257 H   0  0  0  0  0  0  0  0  0  0  0  0
  1  2  1  0  0  0  0
  1 20  1  0  0  0  0
  1 21  1  0  0  0  0
  1 22  1  0  0  0  0
  2  7  1  0  0  0  0
  2  3  1  0  0  0  0
  2 23  1  0  0  0  0
  3  4  1  0  0  0  0
  3 24  1  0  0  0  0
  3 25  1  0  0  0  0
  4  5  1  0  0  0  0
  4 26  1  0  0  0  0
  4 27  1  0  0  0  0
  5  6  1  0  0  0  0
  5 28  1  0  0  0  0
  5 29  1  0  0  0  0
  6  7  1  0  0  0  0
  6 30  1  0  0  0  0
  6 31  1  0  0  0  0
  7  8  1  0  0  0  0
  7 43  1  0  0  0  0
  8  9  1  0  0  0  0
  8 32  1  0  0  0  0
  8 33  1  0  0  0  0
  9 10  1  0  0  0  0
  9 34  1  0  0  0  0
  9 35  1  0  0  0  0
 10 11  1  0  0  0  0
 10 36  1  0  0  0  0
 11 12  2  0  0  0  0
 11 13  1  0  0  0  0
 13 14  1  0  0  0  0
 13 15  1  0  0  0  0
 13 37  1  0  0  0  0
 14 38  1  0  0  0  0
 14 39  1  0  0  0  0
 14 40  1  0  0  0  0
 15 19  1  0  0  0  0
 15 16  1  0  0  0  0
 16 17  2  0  0  0  0
 16 41  1  0  0  0  0
 17 18  1  0  0  0  0
 18 19  2  0  0  0  0
 18 42  1  0  0  0  0
M  CHG  1   7   1
M  END
> <s_m_source_file>
AV-unprocessed.smi

> <i_m_source_file_index>
1893

> <i_lp_mmshare_version>
43012

> <i_f3d_flags>
0

> <s_epik_input>
W0NIM11bQ0BASF0xW0NIMl1bQ0gyXVtDSDJdW0NIMl1OMVtDSDJdW0NIMl1bTkhdQyg9TylbQ0BIXShbQ0gzXSluMltjSF1uW2NIXW4y

> <s_epik_cmdline>
J2VwaWtfcHl0aG9uJywgJy1waCcsICc3LjAnLCAnLXRuJywgJzgnLCAnLW1hJywgJzIwMCcsICctbWV0YWxfYmluZGluZycsICctaW1hZScsICc8aW5maWxlLm1hZT4nLCAnLW9tYWUnLCAnPG91dGZpbGUubWFlPic=

> <r_lp_tautomer_probability>
1

> <r_epik_Ionization_Penalty>
0.00266409

> <r_epik_Ionization_Penalty_Charging>
0.00265606

> <r_epik_Ionization_Penalty_Neutral>
8.02794e-06

> <r_epik_State_Penalty>
0.00184955

> <r_epik_Charging_Adjusted_Penalty>
0.00450561

> <i_epik_Tot_Q>
1

> <i_epik_Tot_abs_Q>
1

> <r_epik_Metal_State_Penalty>
-0

> <b_epik_Metal_Only>
0

> <s_lp_Force_Field>
OPLS_2005

> <r_lp_Energy>
24.9679

> <b_lp_Chiralities_Consistent>
1

> <s_lp_Variant>
AV-unprocessed.smi:1893-6

> <Gold.Version>
5.8.1

> <Gold.Id.Protein>
6NUR|6NUR_protein|mol2

> <Gold.PLP.Fitness>
41.8687

> <Gold.PLP.PLP>
-29.7326

> <Gold.PLP.part.hbond>
-4.0000

> <Gold.PLP.part.metal>
0.0000

> <Gold.PLP.part.buried>
0.5967

> <Gold.PLP.part.nonpolar>
-26.1079

> <Gold.PLP.part.repulsive>
0.0854

> <Gold.PLP.ligand.clash>
0.0000

> <Gold.PLP.ligand.torsion>
0.8704

> <Gold.PLP.Chemscore.Hbond>
4.5760

> <Gold.PLP.Chemscore.CHOScore>
0.0000

> <Gold.PLP.Chemscore.Metal>
0.0000

> <Gold.Chemscore.Hbonds>
donor molecule, donor type, donor heavy atom, donor atom, acceptor molecule, acceptor atom, score
      L1  H     7    43       P1  7948  2.00
      L1  H    10    36       P1  7948  0.44
      P1  H  7997  8010       L1    17  1.00
      P1  H 10752 10765       L1    12  1.00

> <Gold.PLP.Chemscore.Internal.Correction>
0.1489

> <Gold.Rescore>
     Score         DG    S(hbond)    S(metal)    S(lipo)     H(rot)  DE(clash)    DE(int)     intcor
     12.16     -14.86       2.80        0.00      55.69       2.54       0.15       2.55       ----

> <Gold.Chemscore.Fitness>
12.1552

> <Gold.Chemscore.DG>
-14.8577

> <Gold.Chemscore.ZeroCoef>
-5.4800

> <Gold.Chemscore.Hbond>
2.8020

> <Gold.Chemscore.Metal>
0.0000

> <Gold.Chemscore.Lipo>
55.6890

> <Gold.Chemscore.Internal_Hbond>
0.0000

> <Gold.Chemscore.DEClash>
0.1513

> <Gold.Chemscore.DEInternal>
2.5512

> <Gold.Chemscore.Rot>
2.5377

> <Gold.Chemscore.Internal.Correction>
   9.000000E+99

> <Gold.Chemscore.Hbonds>
donor molecule, donor type, donor heavy atom, donor atom, acceptor molecule, acceptor atom, score
      L1  H     7    43       P1  7948  0.55
      L1  H    10    36       P1  7948  0.43
      P1  H  7997  8010       L1    17  0.54
      P1  H 10752 10765       L1    12  0.55

> <Gold.Chemscore.Hbond.Weighted>
-9.3586

> <Gold.Chemscore.Metal.Weighted>
-0.0000

> <Gold.Chemscore.Lipo.Weighted>
-6.5156

> <Gold.Chemscore.Internal_Hbond.Weighted>
0.0000

> <Gold.Chemscore.DEClash.Weighted>
0.1513

> <Gold.Chemscore.DEInternal.Weighted>
2.5512

> <Gold.Chemscore.Rot.Weighted>
6.4966

> <Gold.Chemscore.Internal.Correction.Weighted>
   9.000000E+99

> <Gold.Protein.RotatedTorsions>
[ 6907 6896 6895 6894 ] final   41.09 input  -60.11 | X-H torsion
[ 7974 7965 7964 7962 ] final -106.19 input  175.53 | X-H torsion
[ 8008 7997 7996 7995 ] final   68.86 input   59.86 | X-H torsion
[ 10167 10162 10161 10158 ] final  140.70 input  -65.29 | X-H torsion
[ 10718 10713 10712 10709 ] final  155.77 input   66.30 | X-H torsion
[ 10763 10752 10751 10750 ] final -161.56 input  -60.55 | X-H torsion
[ 11005 11000 10999 10996 ] final  119.43 input  -57.11 | X-H torsion

> <Gold.Protein.ActiveResidues>
 VAL166  LYS551  ARG553  GLY616  TRP617  ASP618  TYR619  PRO620  LYS621  CYS622 
 ASP623  PHE694  ASN695  SER759  ASP760  ASP761  ALA762  ILE779  LEU786  VAL792 
 PHE793  MET794  SER795  GLU796  ALA797  LYS798  CYS799  TRP800  GLU811  SER814 

> <Gold.Protein.RotatedAtoms>
  152.1909  134.8673  160.0517 H   0  0  0  0  0  0  0  0  0  0  0  0  # atno 6907 bound_to 6896
  151.9562  133.3676  159.4026 H   0  0  0  0  0  0  0  0  0  0  0  0  # atno 6908 bound_to 6896
  150.6935  134.4212  159.5249 H   0  0  0  0  0  0  0  0  0  0  0  0  # atno 6909 bound_to 6896
  145.2210  140.9134  143.3259 H   0  0  0  0  0  0  0  0  0  0  0  0  # atno 7974 bound_to 7965
  155.7147  140.3494  155.4989 H   0  0  0  0  0  0  0  0  0  0  0  0  # atno 8008 bound_to 7997
  155.9324  140.1086  157.1143 H   0  0  0  0  0  0  0  0  0  0  0  0  # atno 8009 bound_to 7997
  154.4087  140.1228  156.4806 H   0  0  0  0  0  0  0  0  0  0  0  0  # atno 8010 bound_to 7997
  139.5041  144.6218  151.6034 H   0  0  0  0  0  0  0  0  0  0  0  0  # atno 10167 bound_to 10162
  157.2139  131.0703  151.1953 H   0  0  0  0  0  0  0  0  0  0  0  0  # atno 10718 bound_to 10713
  154.7292  135.3043  154.8919 H   0  0  0  0  0  0  0  0  0  0  0  0  # atno 10763 bound_to 10752
  153.9767  135.6735  153.4753 H   0  0  0  0  0  0  0  0  0  0  0  0  # atno 10764 bound_to 10752
  153.0903  135.4963  154.8597 H   0  0  0  0  0  0  0  0  0  0  0  0  # atno 10765 bound_to 10752
  139.9146  134.9628  156.7655 H   0  0  0  0  0  0  0  0  0  0  0  0  # atno 11005 bound_to 11000
  144.9765  139.3826  143.6283 LP  0  0  0  0  0  0  0  0  0  0  0  0  # atno 17320 bound_to 7965
  146.3376  139.8887  142.8812 LP  0  0  0  0  0  0  0  0  0  0  0  0  # atno 17321 bound_to 7965
  140.5922  143.9759  150.6332 LP  0  0  0  0  0  0  0  0  0  0  0  0  # atno 17342 bound_to 10162
  140.2944  143.3303  152.1032 LP  0  0  0  0  0  0  0  0  0  0  0  0  # atno 17343 bound_to 10162
  157.3645  130.7148  149.6523 LP  0  0  0  0  0  0  0  0  0  0  0  0  # atno 17370 bound_to 10713
  155.9688  130.4216  150.4478 LP  0  0  0  0  0  0  0  0  0  0  0  0  # atno 17371 bound_to 10713
  140.6663  133.9599  155.7832 LP  0  0  0  0  0  0  0  0  0  0  0  0  # atno 17394 bound_to 11000
  141.0608  134.0348  157.3660 LP  0  0  0  0  0  0  0  0  0  0  0  0  # atno 17395 bound_to 11000

$$$$
