AV-unprocessed.smi:1214|AV-procd|sdf|5092|dock5
  -GOLD-   22720 4143D 1   1.00000     0.00000
 Structure written by MMmdl.
 33 34  0  0  0  0  0  0  0  0  1 V2000
  147.5503  132.9774  152.3062 C   0  0  0  0  0  0  0  0  0  0  0  0
  146.3158  133.0735  151.4238 C   0  0  0  0  0  0  0  0  0  0  0  0
  145.7192  131.8879  150.9446 C   0  0  0  0  0  0  0  0  0  0  0  0
  144.5781  131.9750  150.1293 C   0  0  0  0  0  0  0  0  0  0  0  0
  144.0786  133.2526  149.8269 C   0  0  0  0  0  0  0  0  0  0  0  0
  144.6429  134.3904  150.2807 N   0  0  0  0  0  0  0  0  0  0  0  0
  145.7493  134.3269  151.0657 C   0  0  0  0  0  0  0  0  0  0  0  0
  146.3979  135.4813  151.6038 N   0  0  0  0  0  0  0  0  0  0  0  0
  145.9061  136.5987  152.1807 C   0  0  0  0  0  0  0  0  0  0  0  0
  144.6958  136.7537  152.3341 O   0  0  0  0  0  0  0  0  0  0  0  0
  146.8102  137.5061  152.5840 N   0  0  0  0  0  0  0  0  0  0  0  0
  146.5041  138.7732  153.2381 C   0  0  2  0  0  0  0  0  0  0  0  0
  147.0798  139.9761  152.4641 C   0  0  0  0  0  0  0  0  0  0  0  0
  147.0617  141.2058  153.3806 C   0  0  0  0  0  0  0  0  0  0  0  0
  147.2575  140.5727  155.0896 S   0  0  0  0  0  0  0  0  0  0  0  0
  148.6292  140.8246  155.5565 O   0  0  0  0  0  0  0  0  0  0  0  0
  146.0969  140.9940  155.8887 O   0  0  0  0  0  0  0  0  0  0  0  0
  147.0871  138.8010  154.6572 C   0  0  0  0  0  0  0  0  0  0  0  0
  147.8444  131.9399  152.4670 H   0  0  0  0  0  0  0  0  0  0  0  0
  147.3594  133.4262  153.2815 H   0  0  0  0  0  0  0  0  0  0  0  0
  148.3908  133.4959  151.8439 H   0  0  0  0  0  0  0  0  0  0  0  0
  146.1283  130.9208  151.1978 H   0  0  0  0  0  0  0  0  0  0  0  0
  144.0981  131.0862  149.7475 H   0  0  0  0  0  0  0  0  0  0  0  0
  143.2026  133.3657  149.2054 H   0  0  0  0  0  0  0  0  0  0  0  0
  147.4059  135.4425  151.5690 H   0  0  0  0  0  0  0  0  0  0  0  0
  147.7852  137.3009  152.4161 H   0  0  0  0  0  0  0  0  0  0  0  0
  145.4222  138.8963  153.3168 H   0  0  0  0  0  0  0  0  0  0  0  0
  148.1137  139.7622  152.1889 H   0  0  0  0  0  0  0  0  0  0  0  0
  146.5369  140.1616  151.5369 H   0  0  0  0  0  0  0  0  0  0  0  0
  147.8520  141.9199  153.1495 H   0  0  0  0  0  0  0  0  0  0  0  0
  146.1010  141.7174  153.3211 H   0  0  0  0  0  0  0  0  0  0  0  0
  146.4572  138.2938  155.3881 H   0  0  0  0  0  0  0  0  0  0  0  0
  148.0825  138.3561  154.6854 H   0  0  0  0  0  0  0  0  0  0  0  0
  1  2  1  0  0  0  0
  1 19  1  0  0  0  0
  1 20  1  0  0  0  0
  1 21  1  0  0  0  0
  2  7  1  0  0  0  0
  2  3  2  0  0  0  0
  3  4  1  0  0  0  0
  3 22  1  0  0  0  0
  4  5  2  0  0  0  0
  4 23  1  0  0  0  0
  5  6  1  0  0  0  0
  5 24  1  0  0  0  0
  6  7  2  0  0  0  0
  7  8  1  0  0  0  0
  8  9  1  0  0  0  0
  8 25  1  0  0  0  0
  9 10  2  0  0  0  0
  9 11  1  0  0  0  0
 11 12  1  0  0  0  0
 11 26  1  0  0  0  0
 12 18  1  0  0  0  0
 12 13  1  0  0  0  0
 12 27  1  0  0  0  0
 13 14  1  0  0  0  0
 13 28  1  0  0  0  0
 13 29  1  0  0  0  0
 14 15  1  0  0  0  0
 14 30  1  0  0  0  0
 14 31  1  0  0  0  0
 15 16  2  0  0  0  0
 15 17  2  0  0  0  0
 15 18  1  0  0  0  0
 18 32  1  0  0  0  0
 18 33  1  0  0  0  0
M  END
> <s_m_source_file>
AV-unprocessed.smi

> <i_m_source_file_index>
1214

> <i_lp_mmshare_version>
43012

> <i_f3d_flags>
0

> <s_epik_input>
W0NIM11jMVtjSF1bY0hdW2NIXW5jMVtOSF1DKD1PKVtOSF1bQ0BASF0oW0NIMl0yKVtDSDJdW0NIMl1TMig9Tyk9Tw==

> <s_epik_cmdline>
J2VwaWtfcHl0aG9uJywgJy1waCcsICc3LjAnLCAnLXRuJywgJzgnLCAnLW1hJywgJzIwMCcsICctbWV0YWxfYmluZGluZycsICctaW1hZScsICc8aW5maWxlLm1hZT4nLCAnLW9tYWUnLCAnPG91dGZpbGUubWFlPic=

> <r_lp_tautomer_probability>
1

> <r_epik_Ionization_Penalty>
4.18367e-05

> <r_epik_Ionization_Penalty_Charging>
0

> <r_epik_Ionization_Penalty_Neutral>
4.18367e-05

> <r_epik_State_Penalty>
-0

> <r_epik_Charging_Adjusted_Penalty>
0

> <i_epik_Tot_Q>
0

> <i_epik_Tot_abs_Q>
0

> <r_epik_Metal_State_Penalty>
-0

> <b_epik_Metal_Only>
0

> <s_lp_Force_Field>
OPLS_2005

> <r_lp_Energy>
8.88601

> <b_lp_Chiralities_Consistent>
1

> <s_lp_Variant>
AV-unprocessed.smi:1214-1

> <Gold.Version>
5.8.1

> <Gold.Id.Protein>
6NUR|6NUR_protein|mol2

> <Gold.PLP.Fitness>
34.5098

> <Gold.PLP.PLP>
-26.2810

> <Gold.PLP.part.hbond>
-2.0000

> <Gold.PLP.part.metal>
0.0000

> <Gold.PLP.part.buried>
-2.5205

> <Gold.PLP.part.nonpolar>
-23.0638

> <Gold.PLP.part.repulsive>
1.1840

> <Gold.PLP.ligand.clash>
0.0000

> <Gold.PLP.ligand.torsion>
0.3740

> <Gold.PLP.Chemscore.Hbond>
1.9920

> <Gold.PLP.Chemscore.CHOScore>
1.0000

> <Gold.PLP.Chemscore.Metal>
0.0000

> <Gold.Chemscore.Hbonds>
donor molecule, donor type, donor heavy atom, donor atom, acceptor molecule, acceptor atom, score
      L1  H     8    25       P1  7948  1.00
      L1  H    11    26       P1  7948  0.98
      L1  C     5    24       P1 10186  1.00

> <Gold.PLP.Chemscore.Internal.Correction>
0.0009

> <Gold.Rescore>
     Score         DG    S(hbond)    S(metal)    S(lipo)     H(rot)  DE(clash)    DE(int)     intcor
     16.63     -17.13       1.90        0.00      67.14       1.00       0.12       0.38       ----

> <Gold.Chemscore.Fitness>
16.6304

> <Gold.Chemscore.DG>
-17.1305

> <Gold.Chemscore.ZeroCoef>
-5.4800

> <Gold.Chemscore.Hbond>
1.9026

> <Gold.Chemscore.Metal>
0.0000

> <Gold.Chemscore.Lipo>
67.1443

> <Gold.Chemscore.Internal_Hbond>
0.0000

> <Gold.Chemscore.DEClash>
0.1190

> <Gold.Chemscore.DEInternal>
0.3811

> <Gold.Chemscore.Rot>
1.0000

> <Gold.Chemscore.Internal.Correction>
   9.000000E+99

> <Gold.Chemscore.Hbonds>
donor molecule, donor type, donor heavy atom, donor atom, acceptor molecule, acceptor atom, score
      L1  H     8    25       P1  7948  0.90
      L1  H    11    26       P1  7948  0.93

> <Gold.Chemscore.Hbond.Weighted>
-6.3547

> <Gold.Chemscore.Metal.Weighted>
-0.0000

> <Gold.Chemscore.Lipo.Weighted>
-7.8559

> <Gold.Chemscore.Internal_Hbond.Weighted>
0.0000

> <Gold.Chemscore.DEClash.Weighted>
0.1190

> <Gold.Chemscore.DEInternal.Weighted>
0.3811

> <Gold.Chemscore.Rot.Weighted>
2.5600

> <Gold.Chemscore.Internal.Correction.Weighted>
   9.000000E+99

> <Gold.Protein.RotatedTorsions>
[ 6907 6896 6895 6894 ] final  146.75 input  -60.11 | X-H torsion
[ 7974 7965 7964 7962 ] final -113.29 input  175.53 | X-H torsion
[ 8008 7997 7996 7995 ] final -172.19 input   59.86 | X-H torsion
[ 10167 10162 10161 10158 ] final   57.94 input  -65.29 | X-H torsion
[ 10718 10713 10712 10709 ] final  151.62 input   66.30 | X-H torsion
[ 10763 10752 10751 10750 ] final -162.23 input  -60.55 | X-H torsion
[ 11005 11000 10999 10996 ] final  -65.35 input  -57.11 | X-H torsion

> <Gold.Protein.ActiveResidues>
 VAL166  LYS551  ARG553  GLY616  TRP617  ASP618  TYR619  PRO620  LYS621  CYS622 
 ASP623  PHE694  ASN695  SER759  ASP760  ASP761  ALA762  ILE779  LEU786  VAL792 
 PHE793  MET794  SER795  GLU796  ALA797  LYS798  CYS799  TRP800  GLU811  SER814 

> <Gold.Protein.RotatedAtoms>
  152.1638  133.4599  159.4873 H   0  0  0  0  0  0  0  0  0  0  0  0  # atno 6907 bound_to 6896
  150.6910  134.2039  159.4342 H   0  0  0  0  0  0  0  0  0  0  0  0  # atno 6908 bound_to 6896
  151.9942  134.9962  160.0613 H   0  0  0  0  0  0  0  0  0  0  0  0  # atno 6909 bound_to 6896
  145.1338  140.8739  143.3742 H   0  0  0  0  0  0  0  0  0  0  0  0  # atno 7974 bound_to 7965
  155.9414  140.1109  157.1052 H   0  0  0  0  0  0  0  0  0  0  0  0  # atno 8008 bound_to 7997
  154.4090  140.1218  156.4998 H   0  0  0  0  0  0  0  0  0  0  0  0  # atno 8009 bound_to 7997
  155.6957  140.3472  155.4914 H   0  0  0  0  0  0  0  0  0  0  0  0  # atno 8010 bound_to 7997
  140.1926  144.4070  150.6564 H   0  0  0  0  0  0  0  0  0  0  0  0  # atno 10167 bound_to 10162
  157.2683  131.0812  151.1617 H   0  0  0  0  0  0  0  0  0  0  0  0  # atno 10718 bound_to 10713
  154.7233  135.3030  154.9012 H   0  0  0  0  0  0  0  0  0  0  0  0  # atno 10763 bound_to 10752
  153.9877  135.6722  153.4757 H   0  0  0  0  0  0  0  0  0  0  0  0  # atno 10764 bound_to 10752
  153.0853  135.4987  154.8502 H   0  0  0  0  0  0  0  0  0  0  0  0  # atno 10765 bound_to 10752
  141.1452  133.6680  156.5972 H   0  0  0  0  0  0  0  0  0  0  0  0  # atno 11005 bound_to 11000
  145.0606  139.3108  143.5882 LP  0  0  0  0  0  0  0  0  0  0  0  0  # atno 17320 bound_to 7965
  146.3511  140.0047  142.8673 LP  0  0  0  0  0  0  0  0  0  0  0  0  # atno 17321 bound_to 7965
  140.6445  143.2210  151.6216 LP  0  0  0  0  0  0  0  0  0  0  0  0  # atno 17342 bound_to 10162
  139.5250  144.3088  152.1010 LP  0  0  0  0  0  0  0  0  0  0  0  0  # atno 17343 bound_to 10162
  157.3099  130.6885  149.6210 LP  0  0  0  0  0  0  0  0  0  0  0  0  # atno 17370 bound_to 10713
  155.9663  130.4366  150.5143 LP  0  0  0  0  0  0  0  0  0  0  0  0  # atno 17371 bound_to 10713
  140.3717  134.7600  157.4603 LP  0  0  0  0  0  0  0  0  0  0  0  0  # atno 17394 bound_to 11000
  140.0706  134.5868  155.8646 LP  0  0  0  0  0  0  0  0  0  0  0  0  # atno 17395 bound_to 11000

$$$$
