AV-unprocessed.smi:2230|AV-procd|sdf|9035|dock1
  -GOLD-   2272012243D 1   1.00000     0.00000
 Structure written by MMmdl.
 29 30  0  0  0  0  0  0  0  0  2 V2000
  148.9524  135.4318  159.0906 O   0  0  0  0  0  0  0  0  0  0  0  0
  149.1772  136.6396  159.3291 C   0  0  0  0  0  0  0  0  0  0  0  0
  148.3820  137.4143  159.9059 O   0  5  0  0  0  0  0  0  0  0  0  0
  150.5126  137.2294  158.8497 C   0  0  2  0  0  0  0  0  0  0  0  0
  150.6040  138.7438  159.1503 C   0  0  0  0  0  0  0  0  0  0  0  0
  151.8457  139.2883  158.6148 N   0  0  0  0  0  0  0  0  0  0  0  0
  152.0746  140.6198  158.9983 C   0  0  0  0  0  0  0  0  0  0  0  0
  151.1515  141.5395  158.6237 N   0  0  0  0  0  0  0  0  0  0  0  0
  151.3287  142.8241  158.9930 C   0  0  0  0  0  0  0  0  0  0  0  0
  152.4285  143.2604  159.7528 C   0  0  0  0  0  0  0  0  0  0  0  0
  153.3893  142.3094  160.1422 C   0  0  0  0  0  0  0  0  0  0  0  0
  153.2236  140.9581  159.7620 C   0  0  0  0  0  0  0  0  0  0  0  0
  154.2618  139.9108  160.1614 C   0  0  0  0  0  0  0  0  0  0  0  0
  155.5000  140.4021  160.1000 F   0  0  0  0  0  0  0  0  0  0  0  0
  154.0434  139.5003  161.4100 F   0  0  0  0  0  0  0  0  0  0  0  0
  154.1994  138.8611  159.3416 F   0  0  0  0  0  0  0  0  0  0  0  0
  152.0149  139.0072  157.1948 C   0  0  0  0  0  0  0  0  0  0  0  0
  151.9123  137.4936  156.9508 C   0  0  0  0  0  0  0  0  0  0  0  0
  150.6639  137.0185  157.4442 O   0  0  0  0  0  0  0  0  0  0  0  0
  151.3095  136.7006  159.3754 H   0  0  0  0  0  0  0  0  0  0  0  0
  149.7580  139.2688  158.7036 H   0  0  0  0  0  0  0  0  0  0  0  0
  150.5600  138.9229  160.2252 H   0  0  0  0  0  0  0  0  0  0  0  0
  150.5712  143.5244  158.6739 H   0  0  0  0  0  0  0  0  0  0  0  0
  152.5331  144.2993  160.0287 H   0  0  0  0  0  0  0  0  0  0  0  0
  154.2413  142.6259  160.7250 H   0  0  0  0  0  0  0  0  0  0  0  0
  151.2471  139.5250  156.6181 H   0  0  0  0  0  0  0  0  0  0  0  0
  152.9830  139.3788  156.8569 H   0  0  0  0  0  0  0  0  0  0  0  0
  151.9774  137.2789  155.8843 H   0  0  0  0  0  0  0  0  0  0  0  0
  152.7336  136.9628  157.4351 H   0  0  0  0  0  0  0  0  0  0  0  0
  1  2  2  0  0  0  0
  2  3  1  0  0  0  0
  2  4  1  0  0  0  0
  4 19  1  0  0  0  0
  4  5  1  0  0  0  0
  4 20  1  0  0  0  0
  5  6  1  0  0  0  0
  5 21  1  0  0  0  0
  5 22  1  0  0  0  0
  6  7  1  0  0  0  0
  6 17  1  0  0  0  0
  7 12  1  0  0  0  0
  7  8  2  0  0  0  0
  8  9  1  0  0  0  0
  9 10  2  0  0  0  0
  9 23  1  0  0  0  0
 10 11  1  0  0  0  0
 10 24  1  0  0  0  0
 11 12  2  0  0  0  0
 11 25  1  0  0  0  0
 12 13  1  0  0  0  0
 13 14  1  0  0  0  0
 13 15  1  0  0  0  0
 13 16  1  0  0  0  0
 17 18  1  0  0  0  0
 17 26  1  0  0  0  0
 17 27  1  0  0  0  0
 18 19  1  0  0  0  0
 18 28  1  0  0  0  0
 18 29  1  0  0  0  0
M  CHG  1   3  -1
M  END
> <s_m_source_file>
AV-unprocessed.smi

> <i_m_source_file_index>
2230

> <i_lp_mmshare_version>
43012

> <i_f3d_flags>
0

> <s_epik_input>
Tz1DKFtPSF0pW0NAQEhdMVtDSDJdTihbQ0gyXVtDSDJdTzEpYzJuW2NIXVtjSF1bY0hdYzJDKEYpKEYpRg==

> <s_epik_cmdline>
J2VwaWtfcHl0aG9uJywgJy1waCcsICc3LjAnLCAnLXRuJywgJzgnLCAnLW1hJywgJzIwMCcsICctbWV0YWxfYmluZGluZycsICctaW1hZScsICc8aW5maWxlLm1hZT4nLCAnLW9tYWUnLCAnPG91dGZpbGUubWFlPic=

> <r_lp_tautomer_probability>
1

> <r_epik_Ionization_Penalty>
0.000150991

> <r_epik_Ionization_Penalty_Charging>
0.000148814

> <r_epik_Ionization_Penalty_Neutral>
2.17728e-06

> <r_epik_State_Penalty>
-0

> <r_epik_Charging_Adjusted_Penalty>
0.000148814

> <i_epik_Tot_Q>
-1

> <i_epik_Tot_abs_Q>
1

> <r_epik_Metal_State_Penalty>
-0

> <b_epik_Metal_Only>
0

> <s_lp_Force_Field>
OPLS_2005

> <r_lp_Energy>
24.3661

> <b_lp_Chiralities_Consistent>
1

> <s_lp_Variant>
AV-unprocessed.smi:2230-1

> <Gold.Version>
5.8.1

> <Gold.Id.Protein>
6NUR|6NUR_protein|mol2

> <Gold.PLP.Fitness>
35.8472

> <Gold.PLP.PLP>
-26.5267

> <Gold.PLP.part.hbond>
-3.0000

> <Gold.PLP.part.metal>
0.0000

> <Gold.PLP.part.buried>
-0.9755

> <Gold.PLP.part.nonpolar>
-23.8526

> <Gold.PLP.part.repulsive>
0.0044

> <Gold.PLP.ligand.clash>
0.0000

> <Gold.PLP.ligand.torsion>
1.0701

> <Gold.PLP.Chemscore.Hbond>
3.5395

> <Gold.PLP.Chemscore.CHOScore>
0.0000

> <Gold.PLP.Chemscore.Metal>
0.0000

> <Gold.Chemscore.Hbonds>
donor molecule, donor type, donor heavy atom, donor atom, acceptor molecule, acceptor atom, score
      P1  H  6896  6908       L1     1  1.90
      P1  H  6931  6943       L1     3  0.44
      P1  H  6934  6947       L1     3  0.48

> <Gold.PLP.Chemscore.Internal.Correction>
0.8421

> <Gold.Rescore>
     Score         DG    S(hbond)    S(metal)    S(lipo)     H(rot)  DE(clash)    DE(int)     intcor
     11.20     -15.36       1.73        0.00      67.73       1.49       1.28       2.88       ----

> <Gold.Chemscore.Fitness>
11.2044

> <Gold.Chemscore.DG>
-15.3609

> <Gold.Chemscore.ZeroCoef>
-5.4800

> <Gold.Chemscore.Hbond>
1.7291

> <Gold.Chemscore.Metal>
0.0000

> <Gold.Chemscore.Lipo>
67.7270

> <Gold.Chemscore.Internal_Hbond>
0.0000

> <Gold.Chemscore.DEClash>
1.2766

> <Gold.Chemscore.DEInternal>
2.8800

> <Gold.Chemscore.Rot>
1.4916

> <Gold.Chemscore.Internal.Correction>
   9.000000E+99

> <Gold.Chemscore.Hbonds>
donor molecule, donor type, donor heavy atom, donor atom, acceptor molecule, acceptor atom, score
      P1  H  6896  6908       L1     1  0.21
      P1  H  6931  6943       L1     3  0.20
      P1  H  6934  6947       L1     3  0.25

> <Gold.Chemscore.Hbond.Weighted>
-5.7753

> <Gold.Chemscore.Metal.Weighted>
-0.0000

> <Gold.Chemscore.Lipo.Weighted>
-7.9241

> <Gold.Chemscore.Internal_Hbond.Weighted>
0.0000

> <Gold.Chemscore.DEClash.Weighted>
1.2766

> <Gold.Chemscore.DEInternal.Weighted>
2.8800

> <Gold.Chemscore.Rot.Weighted>
3.8185

> <Gold.Chemscore.Internal.Correction.Weighted>
   9.000000E+99

> <Gold.Protein.RotatedTorsions>
[ 6907 6896 6895 6894 ] final  177.92 input  -60.11 | X-H torsion
[ 7974 7965 7964 7962 ] final  -17.94 input  175.53 | X-H torsion
[ 8008 7997 7996 7995 ] final    7.08 input   59.86 | X-H torsion
[ 10167 10162 10161 10158 ] final  -45.88 input  -65.29 | X-H torsion
[ 10718 10713 10712 10709 ] final -179.38 input   66.30 | X-H torsion
[ 10763 10752 10751 10750 ] final   82.81 input  -60.55 | X-H torsion
[ 11005 11000 10999 10996 ] final    6.37 input  -57.11 | X-H torsion

> <Gold.Protein.ActiveResidues>
 VAL166  LYS551  ARG553  GLY616  TRP617  ASP618  TYR619  PRO620  LYS621  CYS622 
 ASP623  PHE694  ASN695  SER759  ASP760  ASP761  ALA762  ILE779  LEU786  VAL792 
 PHE793  MET794  SER795  GLU796  ALA797  LYS798  CYS799  TRP800  GLU811  SER814 

> <Gold.Protein.RotatedAtoms>
  151.6962  133.3311  159.3254 H   0  0  0  0  0  0  0  0  0  0  0  0  # atno 6907 bound_to 6896
  150.7756  134.6656  159.6373 H   0  0  0  0  0  0  0  0  0  0  0  0  # atno 6908 bound_to 6896
  152.3797  134.6612  160.0199 H   0  0  0  0  0  0  0  0  0  0  0  0  # atno 6909 bound_to 6896
  146.1916  140.3851  142.8456 H   0  0  0  0  0  0  0  0  0  0  0  0  # atno 7974 bound_to 7965
  154.7492  140.2764  155.6306 H   0  0  0  0  0  0  0  0  0  0  0  0  # atno 8008 bound_to 7997
  156.2892  140.2682  156.2168 H   0  0  0  0  0  0  0  0  0  0  0  0  # atno 8009 bound_to 7997
  155.0158  140.0372  157.2407 H   0  0  0  0  0  0  0  0  0  0  0  0  # atno 8010 bound_to 7997
  140.6840  143.2858  151.3702 H   0  0  0  0  0  0  0  0  0  0  0  0  # atno 10167 bound_to 10162
  156.8582  130.9742  151.3086 H   0  0  0  0  0  0  0  0  0  0  0  0  # atno 10718 bound_to 10713
  153.1235  135.4714  154.9235 H   0  0  0  0  0  0  0  0  0  0  0  0  # atno 10763 bound_to 10752
  154.7598  135.3128  154.8402 H   0  0  0  0  0  0  0  0  0  0  0  0  # atno 10764 bound_to 10752
  153.8961  135.6880  153.4811 H   0  0  0  0  0  0  0  0  0  0  0  0  # atno 10765 bound_to 10752
  140.5602  134.0199  155.7969 H   0  0  0  0  0  0  0  0  0  0  0  0  # atno 11005 bound_to 11000
  144.8499  140.6985  143.6175 LP  0  0  0  0  0  0  0  0  0  0  0  0  # atno 17320 bound_to 7965
  145.3773  139.1645  143.4299 LP  0  0  0  0  0  0  0  0  0  0  0  0  # atno 17321 bound_to 7965
  139.6184  144.0956  152.2368 LP  0  0  0  0  0  0  0  0  0  0  0  0  # atno 17342 bound_to 10162
  140.0393  144.6020  150.7424 LP  0  0  0  0  0  0  0  0  0  0  0  0  # atno 17343 bound_to 10162
  157.6265  130.8695  149.9198 LP  0  0  0  0  0  0  0  0  0  0  0  0  # atno 17370 bound_to 10713
  156.0791  130.3675  150.0617 LP  0  0  0  0  0  0  0  0  0  0  0  0  # atno 17371 bound_to 10713
  141.1119  133.9603  157.2894 LP  0  0  0  0  0  0  0  0  0  0  0  0  # atno 17394 bound_to 11000
  139.9411  135.0191  156.8712 LP  0  0  0  0  0  0  0  0  0  0  0  0  # atno 17395 bound_to 11000

$$$$
