AV-unprocessed.smi:85|AV-procd|sdf|811|dock7
  -GOLD-   2262017213D 1   1.00000     0.00000
 Structure written by MMmdl.
 62 65  0  0  0  0  0  0  0  0  1 V2000
  147.1084  141.1668  153.1968 C   0  0  0  0  0  0  0  0  0  0  0  0
  146.6840  141.0136  154.6671 C   0  0  0  0  0  0  0  0  0  0  0  0
  147.0703  139.7273  155.2578 N   0  0  0  0  0  0  0  0  0  0  0  0
  146.2757  138.6634  154.9857 C   0  0  0  0  0  0  0  0  0  0  0  0
  145.7449  138.0008  156.0441 N   0  0  0  0  0  0  0  0  0  0  0  0
  144.9479  136.9474  155.8441 C   0  0  0  0  0  0  0  0  0  0  0  0
  144.5618  136.4004  154.6900 N   0  0  0  0  0  0  0  0  0  0  0  0
  145.1009  137.0565  153.6228 C   0  0  0  0  0  0  0  0  0  0  0  0
  145.9686  138.1839  153.6796 C   0  0  0  0  0  0  0  0  0  0  0  0
  146.3353  138.5607  152.3932 N   0  0  0  0  0  0  0  0  0  0  0  0
  145.7134  137.7127  151.6220 C   0  0  0  0  0  0  0  0  0  0  0  0
  144.9294  136.7881  152.2750 N   0  0  0  0  0  0  0  0  0  0  0  0
  144.1258  135.7393  151.6616 C   0  0  0  0  0  0  0  0  0  0  0  0
  144.7830  134.3262  151.6614 C   0  0  0  0  0  0  0  0  0  0  0  0
  145.1551  133.8951  153.1091 C   0  0  0  0  0  0  0  0  0  0  0  0
  144.0536  133.9771  153.9911 O   0  0  0  0  0  0  0  0  0  0  0  0
  143.8075  133.2886  151.0478 C   0  0  0  0  0  0  0  0  0  0  0  0
  144.4835  131.9478  150.7043 C   0  0  0  0  0  0  0  0  0  0  0  0
  145.5942  132.1631  149.8444 O   0  0  0  0  0  0  0  0  0  0  0  0
  146.6003  132.9717  150.4392 C   0  0  0  0  0  0  0  0  0  0  0  0
  146.0317  134.3685  150.7444 C   0  0  0  0  0  0  0  0  0  0  0  0
  148.4890  139.3669  155.3769 C   0  0  1  0  0  0  0  0  0  0  0  0
  149.1207  138.9671  154.0338 C   0  0  0  0  0  0  0  0  0  0  0  0
  150.5955  138.5924  154.2325 C   0  0  0  0  0  0  0  0  0  0  0  0
  151.3072  139.6648  154.8484 O   0  0  0  0  0  0  0  0  0  0  0  0
  150.8308  140.0924  156.1295 C   0  0  0  0  0  0  0  0  0  0  0  0
  151.0878  139.0094  157.1997 C   0  0  0  0  0  0  0  0  0  0  0  0
  151.6656  141.3379  156.4721 C   0  0  0  0  0  0  0  0  0  0  0  0
  149.3359  140.4802  156.0211 C   0  0  0  0  0  0  0  0  0  0  0  0
  146.7386  142.1074  152.7891 H   0  0  0  0  0  0  0  0  0  0  0  0
  146.7036  140.3594  152.5860 H   0  0  0  0  0  0  0  0  0  0  0  0
  148.1919  141.1670  153.0796 H   0  0  0  0  0  0  0  0  0  0  0  0
  147.0878  141.8341  155.2592 H   0  0  0  0  0  0  0  0  0  0  0  0
  145.6021  141.1213  154.7126 H   0  0  0  0  0  0  0  0  0  0  0  0
  144.5618  136.4766  156.7362 H   0  0  0  0  0  0  0  0  0  0  0  0
  145.8030  137.7455  150.5459 H   0  0  0  0  0  0  0  0  0  0  0  0
  143.1719  135.7078  152.1899 H   0  0  0  0  0  0  0  0  0  0  0  0
  143.8845  136.0463  150.6431 H   0  0  0  0  0  0  0  0  0  0  0  0
  145.5342  132.8732  153.1249 H   0  0  0  0  0  0  0  0  0  0  0  0
  145.9495  134.5139  153.5229 H   0  0  0  0  0  0  0  0  0  0  0  0
  143.6588  133.1213  154.0598 H   0  0  0  0  0  0  0  0  0  0  0  0
  142.9696  133.1024  151.7200 H   0  0  0  0  0  0  0  0  0  0  0  0
  143.3781  133.6944  150.1307 H   0  0  0  0  0  0  0  0  0  0  0  0
  144.7997  131.4150  151.6013 H   0  0  0  0  0  0  0  0  0  0  0  0
  143.7729  131.2978  150.1936 H   0  0  0  0  0  0  0  0  0  0  0  0
  146.9939  132.4920  151.3359 H   0  0  0  0  0  0  0  0  0  0  0  0
  147.4330  133.0566  149.7408 H   0  0  0  0  0  0  0  0  0  0  0  0
  145.7669  134.8355  149.7947 H   0  0  0  0  0  0  0  0  0  0  0  0
  146.8100  134.9991  151.1751 H   0  0  0  0  0  0  0  0  0  0  0  0
  148.5507  138.4994  156.0350 H   0  0  0  0  0  0  0  0  0  0  0  0
  148.5866  138.1256  153.5924 H   0  0  0  0  0  0  0  0  0  0  0  0
  149.0533  139.7906  153.3224 H   0  0  0  0  0  0  0  0  0  0  0  0
  150.6895  137.6776  154.8173 H   0  0  0  0  0  0  0  0  0  0  0  0
  151.0556  138.3850  153.2663 H   0  0  0  0  0  0  0  0  0  0  0  0
  150.8151  139.3701  158.1920 H   0  0  0  0  0  0  0  0  0  0  0  0
  152.1421  138.7331  157.2298 H   0  0  0  0  0  0  0  0  0  0  0  0
  150.5185  138.0976  157.0260 H   0  0  0  0  0  0  0  0  0  0  0  0
  151.3659  141.7654  157.4295 H   0  0  0  0  0  0  0  0  0  0  0  0
  151.5514  142.1137  155.7141 H   0  0  0  0  0  0  0  0  0  0  0  0
  152.7275  141.0977  156.5344 H   0  0  0  0  0  0  0  0  0  0  0  0
  149.2630  141.3880  155.4231 H   0  0  0  0  0  0  0  0  0  0  0  0
  148.9397  140.7311  157.0061 H   0  0  0  0  0  0  0  0  0  0  0  0
  1  2  1  0  0  0  0
  1 30  1  0  0  0  0
  1 31  1  0  0  0  0
  1 32  1  0  0  0  0
  2  3  1  0  0  0  0
  2 33  1  0  0  0  0
  2 34  1  0  0  0  0
  3  4  1  0  0  0  0
  3 22  1  0  0  0  0
  4  9  1  0  0  0  0
  4  5  2  0  0  0  0
  5  6  1  0  0  0  0
  6  7  2  0  0  0  0
  6 35  1  0  0  0  0
  7  8  1  0  0  0  0
  8 12  1  0  0  0  0
  8  9  2  0  0  0  0
  9 10  1  0  0  0  0
 10 11  2  0  0  0  0
 11 12  1  0  0  0  0
 11 36  1  0  0  0  0
 12 13  1  0  0  0  0
 13 14  1  0  0  0  0
 13 37  1  0  0  0  0
 13 38  1  0  0  0  0
 14 21  1  0  0  0  0
 14 15  1  0  0  0  0
 14 17  1  0  0  0  0
 15 16  1  0  0  0  0
 15 39  1  0  0  0  0
 15 40  1  0  0  0  0
 16 41  1  0  0  0  0
 17 18  1  0  0  0  0
 17 42  1  0  0  0  0
 17 43  1  0  0  0  0
 18 19  1  0  0  0  0
 18 44  1  0  0  0  0
 18 45  1  0  0  0  0
 19 20  1  0  0  0  0
 20 21  1  0  0  0  0
 20 46  1  0  0  0  0
 20 47  1  0  0  0  0
 21 48  1  0  0  0  0
 21 49  1  0  0  0  0
 22 29  1  0  0  0  0
 22 23  1  0  0  0  0
 22 50  1  0  0  0  0
 23 24  1  0  0  0  0
 23 51  1  0  0  0  0
 23 52  1  0  0  0  0
 24 25  1  0  0  0  0
 24 53  1  0  0  0  0
 24 54  1  0  0  0  0
 25 26  1  0  0  0  0
 26 27  1  0  0  0  0
 26 28  1  0  0  0  0
 26 29  1  0  0  0  0
 27 55  1  0  0  0  0
 27 56  1  0  0  0  0
 27 57  1  0  0  0  0
 28 58  1  0  0  0  0
 28 59  1  0  0  0  0
 28 60  1  0  0  0  0
 29 61  1  0  0  0  0
 29 62  1  0  0  0  0
M  END
> <s_m_source_file>
AV-unprocessed.smi

> <i_m_source_file_index>
85

> <i_lp_mmshare_version>
43012

> <i_f3d_flags>
0

> <s_epik_input>
W0NIM11DMShbQ0gzXSlPW0NIMl1bQ0gyXVtDQEhdKFtDSDJdMSlOKFtDSDJdW0NIM10pYyhuW2NIXW4yKWMoYzIzKW5bY0hdbjNbQ0gyXUM0KFtDSDJdW09IXSlbQ0gyXVtDSDJdT1tDSDJdW0NIMl00

> <s_epik_cmdline>
J2VwaWtfcHl0aG9uJywgJy1waCcsICc3LjAnLCAnLXRuJywgJzgnLCAnLW1hJywgJzIwMCcsICctbWV0YWxfYmluZGluZycsICctaW1hZScsICc8aW5maWxlLm1hZT4nLCAnLW9tYWUnLCAnPG91dGZpbGUubWFlPic=

> <r_lp_tautomer_probability>
1

> <r_epik_Ionization_Penalty>
0.00336056

> <r_epik_Ionization_Penalty_Charging>
0

> <r_epik_Ionization_Penalty_Neutral>
0.00336056

> <r_epik_State_Penalty>
0.00222191

> <r_epik_Charging_Adjusted_Penalty>
0.00222191

> <i_epik_Tot_Q>
0

> <i_epik_Tot_abs_Q>
0

> <r_epik_Metal_State_Penalty>
-0

> <b_epik_Metal_Only>
0

> <s_lp_Force_Field>
OPLS_2005

> <r_lp_Energy>
36.9586

> <b_lp_Chiralities_Consistent>
1

> <s_lp_Variant>
AV-unprocessed.smi:85-2

> <Gold.Version>
5.8.1

> <Gold.Id.Protein>
6NUR|6NUR_protein|mol2

> <Gold.PLP.Fitness>
39.8642

> <Gold.PLP.PLP>
-35.2024

> <Gold.PLP.part.hbond>
-2.0000

> <Gold.PLP.part.metal>
0.0000

> <Gold.PLP.part.buried>
-3.9724

> <Gold.PLP.part.nonpolar>
-28.9363

> <Gold.PLP.part.repulsive>
0.5303

> <Gold.PLP.ligand.clash>
0.0000

> <Gold.PLP.ligand.torsion>
2.0318

> <Gold.PLP.Chemscore.Hbond>
2.0000

> <Gold.PLP.Chemscore.CHOScore>
0.5176

> <Gold.PLP.Chemscore.Metal>
0.0000

> <Gold.Chemscore.Hbonds>
donor molecule, donor type, donor heavy atom, donor atom, acceptor molecule, acceptor atom, score
      L1  H    16    41       P1 10957  1.00
      P1  H  7989  7998       L1    25  1.00
      L1  C    11    36       P1 10171  0.53

> <Gold.PLP.Chemscore.Internal.Correction>
1.1725

> <Gold.Rescore>
     Score         DG    S(hbond)    S(metal)    S(lipo)     H(rot)  DE(clash)    DE(int)     intcor
      9.39     -16.24       1.82        0.00      92.75       2.41       2.32       4.52       ----

> <Gold.Chemscore.Fitness>
9.3936

> <Gold.Chemscore.DG>
-16.2362

> <Gold.Chemscore.ZeroCoef>
-5.4800

> <Gold.Chemscore.Hbond>
1.8174

> <Gold.Chemscore.Metal>
0.0000

> <Gold.Chemscore.Lipo>
92.7472

> <Gold.Chemscore.Internal_Hbond>
0.0000

> <Gold.Chemscore.DEClash>
2.3215

> <Gold.Chemscore.DEInternal>
4.5210

> <Gold.Chemscore.Rot>
2.4083

> <Gold.Chemscore.Internal.Correction>
   9.000000E+99

> <Gold.Chemscore.Hbonds>
donor molecule, donor type, donor heavy atom, donor atom, acceptor molecule, acceptor atom, score
      L1  H    16    41       P1 10957  0.99
      P1  H  7989  7998       L1    25  0.49

> <Gold.Chemscore.Hbond.Weighted>
-6.0700

> <Gold.Chemscore.Metal.Weighted>
-0.0000

> <Gold.Chemscore.Lipo.Weighted>
-10.8514

> <Gold.Chemscore.Internal_Hbond.Weighted>
0.0000

> <Gold.Chemscore.DEClash.Weighted>
2.3215

> <Gold.Chemscore.DEInternal.Weighted>
4.5210

> <Gold.Chemscore.Rot.Weighted>
6.1652

> <Gold.Chemscore.Internal.Correction.Weighted>
   9.000000E+99

> <Gold.Protein.RotatedTorsions>
[ 6907 6896 6895 6894 ] final -160.92 input  -60.11 | X-H torsion
[ 7974 7965 7964 7962 ] final   78.82 input  175.53 | X-H torsion
[ 8008 7997 7996 7995 ] final  179.92 input   59.86 | X-H torsion
[ 10167 10162 10161 10158 ] final -109.40 input  -65.29 | X-H torsion
[ 10718 10713 10712 10709 ] final   80.99 input   66.30 | X-H torsion
[ 10763 10752 10751 10750 ] final  -68.36 input  -60.55 | X-H torsion
[ 11005 11000 10999 10996 ] final   94.08 input  -57.11 | X-H torsion

> <Gold.Protein.ActiveResidues>
 VAL166  LYS551  ARG553  GLY616  TRP617  ASP618  TYR619  PRO620  LYS621  CYS622 
 ASP623  PHE694  ASN695  SER759  ASP760  ASP761  ALA762  ILE779  LEU786  VAL792 
 PHE793  MET794  SER795  GLU796  ALA797  LYS798  CYS799  TRP800  GLU811  SER814 

> <Gold.Protein.RotatedAtoms>
  151.3566  133.3905  159.2685 H   0  0  0  0  0  0  0  0  0  0  0  0  # atno 6907 bound_to 6896
  150.9758  134.9124  159.7826 H   0  0  0  0  0  0  0  0  0  0  0  0  # atno 6908 bound_to 6896
  152.5200  134.3529  159.9310 H   0  0  0  0  0  0  0  0  0  0  0  0  # atno 6909 bound_to 6896
  145.6722  139.2500  143.1862 H   0  0  0  0  0  0  0  0  0  0  0  0  # atno 7974 bound_to 7965
  156.0379  140.1297  157.0187 H   0  0  0  0  0  0  0  0  0  0  0  0  # atno 8008 bound_to 7997
  154.4378  140.1036  156.6265 H   0  0  0  0  0  0  0  0  0  0  0  0  # atno 8009 bound_to 7997
  155.5710  140.3466  155.4517 H   0  0  0  0  0  0  0  0  0  0  0  0  # atno 8010 bound_to 7997
  140.1557  143.4162  152.1462 H   0  0  0  0  0  0  0  0  0  0  0  0  # atno 10167 bound_to 10162
  157.6821  130.9984  150.2160 H   0  0  0  0  0  0  0  0  0  0  0  0  # atno 10718 bound_to 10713
  154.3878  135.6059  153.5826 H   0  0  0  0  0  0  0  0  0  0  0  0  # atno 10763 bound_to 10752
  152.9787  135.5876  154.4333 H   0  0  0  0  0  0  0  0  0  0  0  0  # atno 10764 bound_to 10752
  154.4113  135.2844  155.2013 H   0  0  0  0  0  0  0  0  0  0  0  0  # atno 10765 bound_to 10752
  139.8802  134.8825  156.3812 H   0  0  0  0  0  0  0  0  0  0  0  0  # atno 11005 bound_to 11000
  146.1035  140.7515  142.9537 LP  0  0  0  0  0  0  0  0  0  0  0  0  # atno 17320 bound_to 7965
  144.7053  140.3825  143.7123 LP  0  0  0  0  0  0  0  0  0  0  0  0  # atno 17321 bound_to 7965
  139.5405  144.7251  151.4751 LP  0  0  0  0  0  0  0  0  0  0  0  0  # atno 17342 bound_to 10162
  140.6675  143.8367  150.6959 LP  0  0  0  0  0  0  0  0  0  0  0  0  # atno 17343 bound_to 10162
  156.2821  130.3735  149.7925 LP  0  0  0  0  0  0  0  0  0  0  0  0  # atno 17370 bound_to 10713
  156.5610  130.8383  151.3328 LP  0  0  0  0  0  0  0  0  0  0  0  0  # atno 17371 bound_to 10713
  140.9398  133.7522  156.0131 LP  0  0  0  0  0  0  0  0  0  0  0  0  # atno 17394 bound_to 11000
  140.8233  134.3263  157.5374 LP  0  0  0  0  0  0  0  0  0  0  0  0  # atno 17395 bound_to 11000

$$$$
