AV-unprocessed.smi:847|AV-procd|sdf|3938|dock1
  -GOLD-   22720 1403D 1   1.00000     0.00000
 Structure written by MMmdl.
 46 47  0  0  0  0  0  0  0  0  1 V2000
  152.8555  142.6600  160.6632 C   0  0  0  0  0  0  0  0  0  0  0  0
  152.0152  143.4716  159.8619 O   0  0  0  0  0  0  0  0  0  0  0  0
  151.9375  143.0161  158.5214 C   0  0  0  0  0  0  0  0  0  0  0  0
  151.4846  141.5532  158.5122 C   0  0  0  0  0  0  0  0  0  0  0  0
  151.4663  141.0885  157.1658 O   0  0  0  0  0  0  0  0  0  0  0  0
  150.3002  141.2171  156.4400 C   0  0  0  0  0  0  0  0  0  0  0  0
  149.1077  141.5148  157.1301 C   0  0  0  0  0  0  0  0  0  0  0  0
  147.9152  141.6537  156.3953 C   0  0  0  0  0  0  0  0  0  0  0  0
  147.9533  141.4882  154.9952 C   0  0  0  0  0  0  0  0  0  0  0  0
  146.6998  141.6475  154.1531 C   0  0  0  0  0  0  0  0  0  0  0  0
  146.0551  142.9383  154.3645 N   0  0  0  0  0  0  0  0  0  0  0  0
  144.9174  143.1360  155.0471 C   0  0  0  0  0  0  0  0  0  0  0  0
  144.2433  142.2211  155.5223 O   0  0  0  0  0  0  0  0  0  0  0  0
  144.4727  144.6006  155.2211 C   0  0  1  0  0  0  0  0  0  0  0  0
  144.0537  145.1958  153.8674 C   0  0  0  0  0  0  0  0  0  0  0  0
  143.0028  146.2343  154.2118 C   0  0  0  0  0  0  0  0  0  0  0  0
  142.3428  145.7129  155.4876 C   0  0  0  0  0  0  0  0  0  0  0  0
  143.3033  144.7924  156.1020 N   0  0  0  0  0  0  0  0  0  0  0  0
  143.1375  144.2565  157.3366 C   0  0  0  0  0  0  0  0  0  0  0  0
  141.8348  144.5406  158.0881 C   0  0  0  0  0  0  0  0  0  0  0  0
  143.9907  143.5619  157.8894 O   0  0  0  0  0  0  0  0  0  0  0  0
  149.1946  141.1883  154.3963 C   0  0  0  0  0  0  0  0  0  0  0  0
  150.3426  141.0537  155.0937 N   0  0  0  0  0  0  0  0  0  0  0  0
  145.2910  145.1895  155.6397 H   0  0  0  0  0  0  0  0  0  0  0  0
  152.8805  143.0506  161.6804 H   0  0  0  0  0  0  0  0  0  0  0  0
  153.8769  142.6509  160.2809 H   0  0  0  0  0  0  0  0  0  0  0  0
  152.4883  141.6336  160.7057 H   0  0  0  0  0  0  0  0  0  0  0  0
  151.2125  143.6243  157.9786 H   0  0  0  0  0  0  0  0  0  0  0  0
  152.8983  143.1207  158.0151 H   0  0  0  0  0  0  0  0  0  0  0  0
  152.1487  140.9493  159.1330 H   0  0  0  0  0  0  0  0  0  0  0  0
  150.4797  141.4875  158.9324 H   0  0  0  0  0  0  0  0  0  0  0  0
  149.1086  141.6390  158.2030 H   0  0  0  0  0  0  0  0  0  0  0  0
  146.9900  141.8871  156.9006 H   0  0  0  0  0  0  0  0  0  0  0  0
  146.9564  141.5637  153.0967 H   0  0  0  0  0  0  0  0  0  0  0  0
  146.0129  140.8262  154.3648 H   0  0  0  0  0  0  0  0  0  0  0  0
  146.5368  143.7498  154.0050 H   0  0  0  0  0  0  0  0  0  0  0  0
  144.8957  145.6235  153.3222 H   0  0  0  0  0  0  0  0  0  0  0  0
  143.5986  144.4390  153.2255 H   0  0  0  0  0  0  0  0  0  0  0  0
  143.4947  147.1847  154.4231 H   0  0  0  0  0  0  0  0  0  0  0  0
  142.2895  146.4034  153.4047 H   0  0  0  0  0  0  0  0  0  0  0  0
  142.0759  146.5376  156.1498 H   0  0  0  0  0  0  0  0  0  0  0  0
  141.4322  145.1651  155.2405 H   0  0  0  0  0  0  0  0  0  0  0  0
  140.9698  144.2496  157.4918 H   0  0  0  0  0  0  0  0  0  0  0  0
  141.7531  145.5994  158.3339 H   0  0  0  0  0  0  0  0  0  0  0  0
  141.7998  143.9776  159.0214 H   0  0  0  0  0  0  0  0  0  0  0  0
  149.2730  141.0583  153.3269 H   0  0  0  0  0  0  0  0  0  0  0  0
  1  2  1  0  0  0  0
  1 25  1  0  0  0  0
  1 26  1  0  0  0  0
  1 27  1  0  0  0  0
  2  3  1  0  0  0  0
  3  4  1  0  0  0  0
  3 28  1  0  0  0  0
  3 29  1  0  0  0  0
  4  5  1  0  0  0  0
  4 30  1  0  0  0  0
  4 31  1  0  0  0  0
  5  6  1  0  0  0  0
  6 23  1  0  0  0  0
  6  7  2  0  0  0  0
  7  8  1  0  0  0  0
  7 32  1  0  0  0  0
  8  9  2  0  0  0  0
  8 33  1  0  0  0  0
  9 10  1  0  0  0  0
  9 22  1  0  0  0  0
 10 11  1  0  0  0  0
 10 34  1  0  0  0  0
 10 35  1  0  0  0  0
 11 12  1  0  0  0  0
 11 36  1  0  0  0  0
 12 13  2  0  0  0  0
 12 14  1  0  0  0  0
 14 24  1  0  0  0  0
 14 18  1  0  0  0  0
 14 15  1  0  0  0  0
 15 16  1  0  0  0  0
 15 37  1  0  0  0  0
 15 38  1  0  0  0  0
 16 17  1  0  0  0  0
 16 39  1  0  0  0  0
 16 40  1  0  0  0  0
 17 18  1  0  0  0  0
 17 41  1  0  0  0  0
 17 42  1  0  0  0  0
 18 19  1  0  0  0  0
 19 20  1  0  0  0  0
 19 21  2  0  0  0  0
 20 43  1  0  0  0  0
 20 44  1  0  0  0  0
 20 45  1  0  0  0  0
 22 23  2  0  0  0  0
 22 46  1  0  0  0  0
M  END
> <s_m_source_file>
AV-unprocessed.smi

> <i_m_source_file_index>
847

> <i_lp_mmshare_version>
43012

> <i_f3d_flags>
0

> <s_epik_input>
W0NIM11PW0NIMl1bQ0gyXU9jMVtjSF1bY0hdYyhbY0hdbjEpW0NIMl1bTkhdQyg9TylbQ0BASF0yW0NIMl1bQ0gyXVtDSDJdTjJDKD1PKVtDSDNd

> <s_epik_cmdline>
J2VwaWtfcHl0aG9uJywgJy1waCcsICc3LjAnLCAnLXRuJywgJzgnLCAnLW1hJywgJzIwMCcsICctbWV0YWxfYmluZGluZycsICctaW1hZScsICc8aW5maWxlLm1hZT4nLCAnLW9tYWUnLCAnPG91dGZpbGUubWFlPic=

> <r_lp_tautomer_probability>
1

> <r_epik_Ionization_Penalty>
6.04138e-05

> <r_epik_Ionization_Penalty_Charging>
0

> <r_epik_Ionization_Penalty_Neutral>
6.04138e-05

> <r_epik_State_Penalty>
-0

> <r_epik_Charging_Adjusted_Penalty>
0

> <i_epik_Tot_Q>
0

> <i_epik_Tot_abs_Q>
0

> <r_epik_Metal_State_Penalty>
-0

> <b_epik_Metal_Only>
0

> <s_lp_Force_Field>
OPLS_2005

> <r_lp_Energy>
14.1261

> <b_lp_Chiralities_Consistent>
1

> <s_lp_Variant>
AV-unprocessed.smi:847-2

> <Gold.Version>
5.8.1

> <Gold.Id.Protein>
6NUR|6NUR_protein|mol2

> <Gold.PLP.Fitness>
41.1099

> <Gold.PLP.PLP>
-36.6004

> <Gold.PLP.part.hbond>
-1.0000

> <Gold.PLP.part.metal>
0.0000

> <Gold.PLP.part.buried>
-6.0832

> <Gold.PLP.part.nonpolar>
-29.4098

> <Gold.PLP.part.repulsive>
0.3611

> <Gold.PLP.ligand.clash>
0.0073

> <Gold.PLP.ligand.torsion>
0.5794

> <Gold.PLP.Chemscore.Hbond>
0.7360

> <Gold.PLP.Chemscore.CHOScore>
1.0000

> <Gold.PLP.Chemscore.Metal>
0.0000

> <Gold.Chemscore.Hbonds>
donor molecule, donor type, donor heavy atom, donor atom, acceptor molecule, acceptor atom, score
      P1  H  7989  7998       L1    23  0.59
      L1  C    22    46       P1  7957  1.00

> <Gold.PLP.Chemscore.Internal.Correction>
0.4677

> <Gold.Rescore>
     Score         DG    S(hbond)    S(metal)    S(lipo)     H(rot)  DE(clash)    DE(int)     intcor
      7.62     -11.81       0.62        0.00      86.84       2.31       0.02       4.16       ----

> <Gold.Chemscore.Fitness>
7.6194

> <Gold.Chemscore.DG>
-11.8062

> <Gold.Chemscore.ZeroCoef>
-5.4800

> <Gold.Chemscore.Hbond>
0.6197

> <Gold.Chemscore.Metal>
0.0000

> <Gold.Chemscore.Lipo>
86.8407

> <Gold.Chemscore.Internal_Hbond>
0.0000

> <Gold.Chemscore.DEClash>
0.0241

> <Gold.Chemscore.DEInternal>
4.1627

> <Gold.Chemscore.Rot>
2.3062

> <Gold.Chemscore.Internal.Correction>
   9.000000E+99

> <Gold.Chemscore.Hbonds>
donor molecule, donor type, donor heavy atom, donor atom, acceptor molecule, acceptor atom, score
      P1  H  7989  7998       L1    23  0.11

> <Gold.Chemscore.Hbond.Weighted>
-2.0697

> <Gold.Chemscore.Metal.Weighted>
-0.0000

> <Gold.Chemscore.Lipo.Weighted>
-10.1604

> <Gold.Chemscore.Internal_Hbond.Weighted>
0.0000

> <Gold.Chemscore.DEClash.Weighted>
0.0241

> <Gold.Chemscore.DEInternal.Weighted>
4.1627

> <Gold.Chemscore.Rot.Weighted>
5.9038

> <Gold.Chemscore.Internal.Correction.Weighted>
   9.000000E+99

> <Gold.Protein.RotatedTorsions>
[ 6907 6896 6895 6894 ] final  -20.30 input  -60.11 | X-H torsion
[ 7974 7965 7964 7962 ] final  -83.71 input  175.53 | X-H torsion
[ 8008 7997 7996 7995 ] final  172.96 input   59.86 | X-H torsion
[ 10167 10162 10161 10158 ] final   96.29 input  -65.29 | X-H torsion
[ 10718 10713 10712 10709 ] final   88.10 input   66.30 | X-H torsion
[ 10763 10752 10751 10750 ] final  166.81 input  -60.55 | X-H torsion
[ 11005 11000 10999 10996 ] final   70.58 input  -57.11 | X-H torsion

> <Gold.Protein.ActiveResidues>
 VAL166  LYS551  ARG553  GLY616  TRP617  ASP618  TYR619  PRO620  LYS621  CYS622 
 ASP623  PHE694  ASN695  SER759  ASP760  ASP761  ALA762  ILE779  LEU786  VAL792 
 PHE793  MET794  SER795  GLU796  ALA797  LYS798  CYS799  TRP800  GLU811  SER814 

> <Gold.Protein.RotatedAtoms>
  151.2502  135.0619  159.9058 H   0  0  0  0  0  0  0  0  0  0  0  0  # atno 6907 bound_to 6896
  152.5381  134.0340  159.8048 H   0  0  0  0  0  0  0  0  0  0  0  0  # atno 6908 bound_to 6896
  151.0547  133.5545  159.2670 H   0  0  0  0  0  0  0  0  0  0  0  0  # atno 6909 bound_to 6896
  145.5163  140.9535  143.1680 H   0  0  0  0  0  0  0  0  0  0  0  0  # atno 7974 bound_to 7965
  156.1123  140.1472  156.9321 H   0  0  0  0  0  0  0  0  0  0  0  0  # atno 8008 bound_to 7997
  154.4776  140.0889  156.7342 H   0  0  0  0  0  0  0  0  0  0  0  0  # atno 8009 bound_to 7997
  155.4574  140.3437  155.4310 H   0  0  0  0  0  0  0  0  0  0  0  0  # atno 8010 bound_to 7997
  139.7908  144.6852  150.9894 H   0  0  0  0  0  0  0  0  0  0  0  0  # atno 10167 bound_to 10162
  157.6946  131.0281  150.3224 H   0  0  0  0  0  0  0  0  0  0  0  0  # atno 10718 bound_to 10713
  154.3445  135.2753  155.2405 H   0  0  0  0  0  0  0  0  0  0  0  0  # atno 10763 bound_to 10752
  154.4661  135.5895  153.6293 H   0  0  0  0  0  0  0  0  0  0  0  0  # atno 10764 bound_to 10752
  152.9855  135.6077  154.3649 H   0  0  0  0  0  0  0  0  0  0  0  0  # atno 10765 bound_to 10752
  139.9590  134.7094  156.0688 H   0  0  0  0  0  0  0  0  0  0  0  0  # atno 11005 bound_to 11000
  144.7700  139.6757  143.7199 LP  0  0  0  0  0  0  0  0  0  0  0  0  # atno 17320 bound_to 7965
  146.2134  139.5507  142.9666 LP  0  0  0  0  0  0  0  0  0  0  0  0  # atno 17321 bound_to 7965
  140.7820  143.4382  151.0591 LP  0  0  0  0  0  0  0  0  0  0  0  0  # atno 17342 bound_to 10162
  139.8059  143.8018  152.3167 LP  0  0  0  0  0  0  0  0  0  0  0  0  # atno 17343 bound_to 10162
  156.3709  130.3863  149.7176 LP  0  0  0  0  0  0  0  0  0  0  0  0  # atno 17370 bound_to 10713
  156.4591  130.7943  151.2963 LP  0  0  0  0  0  0  0  0  0  0  0  0  # atno 17371 bound_to 10713
  141.1265  133.6598  156.3351 LP  0  0  0  0  0  0  0  0  0  0  0  0  # atno 17394 bound_to 11000
  140.5543  134.5997  157.5416 LP  0  0  0  0  0  0  0  0  0  0  0  0  # atno 17395 bound_to 11000

$$$$
