AV-unprocessed.smi:1736|AV-procd|sdf|6991|dock3
  -GOLD-   22720 8203D 1   1.00000     0.00000
 Structure written by MMmdl.
 45 46  0  0  0  0  0  0  0  0  2 V2000
  151.4517  139.7540  156.0108 C   0  0  0  0  0  0  0  0  0  0  0  0
  150.9839  139.4481  154.6632 N   0  0  0  0  0  0  0  0  0  0  0  0
  151.7715  138.4122  153.9967 C   0  0  0  0  0  0  0  0  0  0  0  0
  151.5309  137.0176  154.6093 C   0  0  0  0  0  0  0  0  0  0  0  0
  150.0877  136.6452  154.5380 N   0  3  0  0  0  0  0  0  0  0  0  0
  149.7694  135.2155  154.9071 C   0  0  0  0  0  0  0  0  0  0  0  0
  150.5993  134.2241  154.0542 C   0  0  0  0  0  0  0  0  0  0  0  0
  150.0929  134.9380  156.3997 C   0  0  0  0  0  0  0  0  0  0  0  0
  148.2400  134.9803  154.7016 C   0  0  0  0  0  0  0  0  0  0  0  0
  147.8576  134.6817  153.3211 N   0  0  0  0  0  0  0  0  0  0  0  0
  146.7331  134.0614  152.9358 C   0  0  0  0  0  0  0  0  0  0  0  0
  145.8755  133.6570  153.7207 O   0  0  0  0  0  0  0  0  0  0  0  0
  146.6703  133.9546  151.5986 N   0  0  0  0  0  0  0  0  0  0  0  0
  145.6191  133.3972  150.8279 C   0  0  0  0  0  0  0  0  0  0  0  0
  145.8018  132.4934  149.7462 C   0  0  0  0  0  0  0  0  0  0  0  0
  144.6423  132.1408  149.2097 N   0  0  0  0  0  0  0  0  0  0  0  0
  143.7215  132.8107  149.9389 N   0  0  0  0  0  0  0  0  0  0  0  0
  144.2701  133.5881  150.9349 C   0  0  0  0  0  0  0  0  0  0  0  0
  149.2835  137.7007  155.2203 C   0  0  0  0  0  0  0  0  0  0  0  0
  149.5672  139.0920  154.6143 C   0  0  0  0  0  0  0  0  0  0  0  0
  142.7332  132.7277  149.7471 H   0  0  0  0  0  0  0  0  0  0  0  0
  152.4976  140.0615  155.9862 H   0  0  0  0  0  0  0  0  0  0  0  0
  151.3658  138.9057  156.6890 H   0  0  0  0  0  0  0  0  0  0  0  0
  150.8758  140.5793  156.4310 H   0  0  0  0  0  0  0  0  0  0  0  0
  151.5062  138.3978  152.9386 H   0  0  0  0  0  0  0  0  0  0  0  0
  152.8298  138.6712  154.0459 H   0  0  0  0  0  0  0  0  0  0  0  0
  152.1489  136.3095  154.0626 H   0  0  0  0  0  0  0  0  0  0  0  0
  151.8832  136.9966  155.6404 H   0  0  0  0  0  0  0  0  0  0  0  0
  150.4831  133.1996  154.4079 H   0  0  0  0  0  0  0  0  0  0  0  0
  151.6649  134.4495  154.0940 H   0  0  0  0  0  0  0  0  0  0  0  0
  150.2962  134.2304  153.0070 H   0  0  0  0  0  0  0  0  0  0  0  0
  149.7743  133.9435  156.7117 H   0  0  0  0  0  0  0  0  0  0  0  0
  149.5996  135.6556  157.0565 H   0  0  0  0  0  0  0  0  0  0  0  0
  151.1636  134.9698  156.6021 H   0  0  0  0  0  0  0  0  0  0  0  0
  147.9185  134.1356  155.3122 H   0  0  0  0  0  0  0  0  0  0  0  0
  147.6488  135.8281  155.0444 H   0  0  0  0  0  0  0  0  0  0  0  0
  148.5019  134.9753  152.6012 H   0  0  0  0  0  0  0  0  0  0  0  0
  147.4494  134.3248  151.0740 H   0  0  0  0  0  0  0  0  0  0  0  0
  146.7184  132.0910  149.3405 H   0  0  0  0  0  0  0  0  0  0  0  0
  143.6654  134.1839  151.6024 H   0  0  0  0  0  0  0  0  0  0  0  0
  148.2169  137.5311  155.0880 H   0  0  0  0  0  0  0  0  0  0  0  0
  149.4739  137.6924  156.2936 H   0  0  0  0  0  0  0  0  0  0  0  0
  148.9805  139.8558  155.1262 H   0  0  0  0  0  0  0  0  0  0  0  0
  149.2446  139.1054  153.5724 H   0  0  0  0  0  0  0  0  0  0  0  0
  149.8354  136.7223  153.5631 H   0  0  0  0  0  0  0  0  0  0  0  0
  1  2  1  0  0  0  0
  1 22  1  0  0  0  0
  1 23  1  0  0  0  0
  1 24  1  0  0  0  0
  2 20  1  0  0  0  0
  2  3  1  0  0  0  0
  3  4  1  0  0  0  0
  3 25  1  0  0  0  0
  3 26  1  0  0  0  0
  4  5  1  0  0  0  0
  4 27  1  0  0  0  0
  4 28  1  0  0  0  0
  5  6  1  0  0  0  0
  5 19  1  0  0  0  0
  5 45  1  0  0  0  0
  6  7  1  0  0  0  0
  6  8  1  0  0  0  0
  6  9  1  0  0  0  0
  7 29  1  0  0  0  0
  7 30  1  0  0  0  0
  7 31  1  0  0  0  0
  8 32  1  0  0  0  0
  8 33  1  0  0  0  0
  8 34  1  0  0  0  0
  9 10  1  0  0  0  0
  9 35  1  0  0  0  0
  9 36  1  0  0  0  0
 10 11  1  0  0  0  0
 10 37  1  0  0  0  0
 11 12  2  0  0  0  0
 11 13  1  0  0  0  0
 13 14  1  0  0  0  0
 13 38  1  0  0  0  0
 14 18  2  0  0  0  0
 14 15  1  0  0  0  0
 15 16  2  0  0  0  0
 15 39  1  0  0  0  0
 16 17  1  0  0  0  0
 17 21  1  0  0  0  0
 17 18  1  0  0  0  0
 18 40  1  0  0  0  0
 19 20  1  0  0  0  0
 19 41  1  0  0  0  0
 19 42  1  0  0  0  0
 20 43  1  0  0  0  0
 20 44  1  0  0  0  0
M  CHG  1   5   1
M  END
> <s_m_source_file>
AV-unprocessed.smi

> <i_m_source_file_index>
1736

> <i_lp_mmshare_version>
43012

> <i_f3d_flags>
0

> <s_epik_input>
W0NIM11OMVtDSDJdW0NIMl1OKFtDSDJdW0NIMl0xKUMoW0NIM10pKFtDSDNdKVtDSDJdW05IXUMoPU8pW05IXWMyW2NIXW5bbkhdW2NIXTI=

> <s_epik_cmdline>
J2VwaWtfcHl0aG9uJywgJy1waCcsICc3LjAnLCAnLXRuJywgJzgnLCAnLW1hJywgJzIwMCcsICctbWV0YWxfYmluZGluZycsICctaW1hZScsICc8aW5maWxlLm1hZT4nLCAnLW9tYWUnLCAnPG91dGZpbGUubWFlPic=

> <r_epik_Ionization_Penalty>
0.0906742

> <r_epik_Ionization_Penalty_Charging>
0.0886444

> <r_epik_Ionization_Penalty_Neutral>
0.00202984

> <r_epik_State_Penalty>
1.00524

> <r_epik_Charging_Adjusted_Penalty>
1.09388

> <i_epik_Tot_Q>
1

> <i_epik_Tot_abs_Q>
1

> <r_epik_Metal_State_Penalty>
1.00524

> <b_epik_Metal_Only>
0

> <s_lp_Force_Field>
OPLS_2005

> <r_lp_Energy>
30.5106

> <b_lp_Chiralities_Consistent>
1

> <s_lp_Variant>
AV-unprocessed.smi:1736-2

> <Gold.Version>
5.8.1

> <Gold.Id.Protein>
6NUR|6NUR_protein|mol2

> <Gold.PLP.Fitness>
43.5343

> <Gold.PLP.PLP>
-30.3593

> <Gold.PLP.part.hbond>
-4.7361

> <Gold.PLP.part.metal>
0.0000

> <Gold.PLP.part.buried>
-6.9393

> <Gold.PLP.part.nonpolar>
-20.1600

> <Gold.PLP.part.repulsive>
0.5223

> <Gold.PLP.ligand.clash>
0.0000

> <Gold.PLP.ligand.torsion>
0.8998

> <Gold.PLP.Chemscore.Hbond>
4.0941

> <Gold.PLP.Chemscore.CHOScore>
0.8704

> <Gold.PLP.Chemscore.Metal>
0.0000

> <Gold.Chemscore.Hbonds>
donor molecule, donor type, donor heavy atom, donor atom, acceptor molecule, acceptor atom, score
      L1  H     5    45       P1  7948  2.00
      L1  H    10    37       P1  7948  0.76
      L1  H    17    21       P1 10186  0.01
      P1  H  7989  7998       L1     2  0.65
      L1  C    15    39       P1 10747  0.54

> <Gold.PLP.Chemscore.Internal.Correction>
0.0810

> <Gold.Rescore>
     Score         DG    S(hbond)    S(metal)    S(lipo)     H(rot)  DE(clash)    DE(int)     intcor
     16.73     -17.70       2.55        0.00      67.16       1.63       0.28       0.69       ----

> <Gold.Chemscore.Fitness>
16.7262

> <Gold.Chemscore.DG>
-17.7020

> <Gold.Chemscore.ZeroCoef>
-5.4800

> <Gold.Chemscore.Hbond>
2.5535

> <Gold.Chemscore.Metal>
0.0000

> <Gold.Chemscore.Lipo>
67.1589

> <Gold.Chemscore.Internal_Hbond>
0.0000

> <Gold.Chemscore.DEClash>
0.2819

> <Gold.Chemscore.DEInternal>
0.6938

> <Gold.Chemscore.Rot>
1.6267

> <Gold.Chemscore.Internal.Correction>
   9.000000E+99

> <Gold.Chemscore.Hbonds>
donor molecule, donor type, donor heavy atom, donor atom, acceptor molecule, acceptor atom, score
      L1  H     5    45       P1  7948  0.39
      L1  H    10    37       P1  7948  0.29
      L1  H    17    21       P1 10186  0.05
      P1  H  7989  7998       L1     2  0.03

> <Gold.Chemscore.Hbond.Weighted>
-8.5288

> <Gold.Chemscore.Metal.Weighted>
-0.0000

> <Gold.Chemscore.Lipo.Weighted>
-7.8576

> <Gold.Chemscore.Internal_Hbond.Weighted>
0.0000

> <Gold.Chemscore.DEClash.Weighted>
0.2819

> <Gold.Chemscore.DEInternal.Weighted>
0.6938

> <Gold.Chemscore.Rot.Weighted>
4.1645

> <Gold.Chemscore.Internal.Correction.Weighted>
   9.000000E+99

> <Gold.Protein.RotatedTorsions>
[ 6907 6896 6895 6894 ] final  -43.93 input  -60.11 | X-H torsion
[ 7974 7965 7964 7962 ] final -144.39 input  175.53 | X-H torsion
[ 8008 7997 7996 7995 ] final -117.49 input   59.86 | X-H torsion
[ 10167 10162 10161 10158 ] final   34.86 input  -65.29 | X-H torsion
[ 10718 10713 10712 10709 ] final   30.41 input   66.30 | X-H torsion
[ 10763 10752 10751 10750 ] final  -36.50 input  -60.55 | X-H torsion
[ 11005 11000 10999 10996 ] final  164.25 input  -57.11 | X-H torsion

> <Gold.Protein.ActiveResidues>
 VAL166  LYS551  ARG553  GLY616  TRP617  ASP618  TYR619  PRO620  LYS621  CYS622 
 ASP623  PHE694  ASN695  SER759  ASP760  ASP761  ALA762  ILE779  LEU786  VAL792 
 PHE793  MET794  SER795  GLU796  ALA797  LYS798  CYS799  TRP800  GLU811  SER814 

> <Gold.Protein.RotatedAtoms>
  150.9385  134.8796  159.7596 H   0  0  0  0  0  0  0  0  0  0  0  0  # atno 6907 bound_to 6896
  152.5070  134.3976  159.9415 H   0  0  0  0  0  0  0  0  0  0  0  0  # atno 6908 bound_to 6896
  151.3998  133.3721  159.2766 H   0  0  0  0  0  0  0  0  0  0  0  0  # atno 6909 bound_to 6896
  144.8301  140.5715  143.5521 H   0  0  0  0  0  0  0  0  0  0  0  0  # atno 7974 bound_to 7965
  155.0845  140.0394  157.2649 H   0  0  0  0  0  0  0  0  0  0  0  0  # atno 8008 bound_to 7997
  154.6880  140.2647  155.6816 H   0  0  0  0  0  0  0  0  0  0  0  0  # atno 8009 bound_to 7997
  156.2719  140.2765  156.1448 H   0  0  0  0  0  0  0  0  0  0  0  0  # atno 8010 bound_to 7997
  140.4275  144.1372  150.6155 H   0  0  0  0  0  0  0  0  0  0  0  0  # atno 10167 bound_to 10162
  157.2592  130.7153  149.6445 H   0  0  0  0  0  0  0  0  0  0  0  0  # atno 10718 bound_to 10713
  153.8807  135.6822  153.4767 H   0  0  0  0  0  0  0  0  0  0  0  0  # atno 10763 bound_to 10752
  153.1235  135.4729  154.9232 H   0  0  0  0  0  0  0  0  0  0  0  0  # atno 10764 bound_to 10752
  154.7670  135.3227  154.8218 H   0  0  0  0  0  0  0  0  0  0  0  0  # atno 10765 bound_to 10752
  140.2441  134.8028  157.3439 H   0  0  0  0  0  0  0  0  0  0  0  0  # atno 11005 bound_to 11000
  145.4915  139.1488  143.3707 LP  0  0  0  0  0  0  0  0  0  0  0  0  # atno 17320 bound_to 7965
  146.2604  140.5053  142.8856 LP  0  0  0  0  0  0  0  0  0  0  0  0  # atno 17321 bound_to 7965
  140.4464  143.2505  151.9405 LP  0  0  0  0  0  0  0  0  0  0  0  0  # atno 17342 bound_to 10162
  139.4784  144.5604  151.8247 LP  0  0  0  0  0  0  0  0  0  0  0  0  # atno 17343 bound_to 10162
  155.9664  130.4403  150.5293 LP  0  0  0  0  0  0  0  0  0  0  0  0  # atno 17370 bound_to 10713
  157.3194  131.0679  151.1943 LP  0  0  0  0  0  0  0  0  0  0  0  0  # atno 17371 bound_to 10713
  140.1624  134.4712  155.7886 LP  0  0  0  0  0  0  0  0  0  0  0  0  # atno 17394 bound_to 11000
  141.2208  133.6907  156.7567 LP  0  0  0  0  0  0  0  0  0  0  0  0  # atno 17395 bound_to 11000

$$$$
