AV-unprocessed.smi:1485|AV-procd|sdf|6003|dock8
  -GOLD-   22720 6 93D 1   1.00000     0.00000
 Structure written by MMmdl.
 44 45  0  0  0  0  0  0  0  0  1 V2000
  144.6440  144.5856  154.0912 C   0  0  0  0  0  0  0  0  0  0  0  0
  144.8586  143.3465  154.7439 O   0  0  0  0  0  0  0  0  0  0  0  0
  146.2352  143.0424  154.8912 C   0  0  0  0  0  0  0  0  0  0  0  0
  146.7592  142.4587  153.5705 C   0  0  0  0  0  0  0  0  0  0  0  0
  147.6800  141.3420  153.8054 N   0  0  0  0  0  0  0  0  0  0  0  0
  148.7760  141.6701  154.5854 N   0  0  0  0  0  0  0  0  0  0  0  0
  149.6604  140.7711  154.8755 C   0  0  0  0  0  0  0  0  0  0  0  0
  150.8520  141.0832  155.7124 C   0  0  0  0  0  0  0  0  0  0  0  0
  151.9486  140.5614  155.5037 O   0  0  0  0  0  0  0  0  0  0  0  0
  150.6424  141.9710  156.7012 N   0  0  0  0  0  0  0  0  0  0  0  0
  151.6494  142.4417  157.6466 C   0  0  2  0  0  0  0  0  0  0  0  0
  151.8253  141.4023  158.7684 C   0  0  0  0  0  0  0  0  0  0  0  0
  152.8306  141.8843  159.8252 C   0  0  0  0  0  0  0  0  0  0  0  0
  152.4219  143.2493  160.4007 C   0  0  0  0  0  0  0  0  0  0  0  0
  152.2550  144.3021  159.2883 C   0  0  2  0  0  0  0  0  0  0  0  0
  151.8464  145.6662  159.8617 C   0  0  0  0  0  0  0  0  0  0  0  0
  151.2482  143.8128  158.2289 C   0  0  0  0  0  0  0  0  0  0  0  0
  149.5223  139.4081  154.3907 C   0  0  0  0  0  0  0  0  0  0  0  0
  148.4449  139.1018  153.6352 C   0  0  0  0  0  0  0  0  0  0  0  0
  147.4269  140.0981  153.2978 C   0  0  0  0  0  0  0  0  0  0  0  0
  146.4307  139.8406  152.6227 O   0  0  0  0  0  0  0  0  0  0  0  0
  143.5738  144.7700  153.9970 H   0  0  0  0  0  0  0  0  0  0  0  0
  145.0746  144.5839  153.0889 H   0  0  0  0  0  0  0  0  0  0  0  0
  145.0786  145.4101  154.6580 H   0  0  0  0  0  0  0  0  0  0  0  0
  146.7902  143.9461  155.1480 H   0  0  0  0  0  0  0  0  0  0  0  0
  146.3732  142.3279  155.7043 H   0  0  0  0  0  0  0  0  0  0  0  0
  145.9242  142.1412  152.9435 H   0  0  0  0  0  0  0  0  0  0  0  0
  147.2647  143.2428  153.0036 H   0  0  0  0  0  0  0  0  0  0  0  0
  149.7118  142.3502  156.8023 H   0  0  0  0  0  0  0  0  0  0  0  0
  152.6039  142.5437  157.1263 H   0  0  0  0  0  0  0  0  0  0  0  0
  150.8645  141.2081  159.2476 H   0  0  0  0  0  0  0  0  0  0  0  0
  152.1600  140.4524  158.3499 H   0  0  0  0  0  0  0  0  0  0  0  0
  152.9061  141.1502  160.6278 H   0  0  0  0  0  0  0  0  0  0  0  0
  153.8232  141.9580  159.3791 H   0  0  0  0  0  0  0  0  0  0  0  0
  151.4879  143.1453  160.9545 H   0  0  0  0  0  0  0  0  0  0  0  0
  153.1716  143.5807  161.1200 H   0  0  0  0  0  0  0  0  0  0  0  0
  153.2215  144.4288  158.7982 H   0  0  0  0  0  0  0  0  0  0  0  0
  150.8831  145.6104  160.3696 H   0  0  0  0  0  0  0  0  0  0  0  0
  151.7640  146.4141  159.0725 H   0  0  0  0  0  0  0  0  0  0  0  0
  152.5823  146.0268  160.5808 H   0  0  0  0  0  0  0  0  0  0  0  0
  151.1757  144.5490  157.4273 H   0  0  0  0  0  0  0  0  0  0  0  0
  150.2543  143.7448  158.6742 H   0  0  0  0  0  0  0  0  0  0  0  0
  150.2581  138.6524  154.6243 H   0  0  0  0  0  0  0  0  0  0  0  0
  148.3294  138.0924  153.2684 H   0  0  0  0  0  0  0  0  0  0  0  0
  1  2  1  0  0  0  0
  1 22  1  0  0  0  0
  1 23  1  0  0  0  0
  1 24  1  0  0  0  0
  2  3  1  0  0  0  0
  3  4  1  0  0  0  0
  3 25  1  0  0  0  0
  3 26  1  0  0  0  0
  4  5  1  0  0  0  0
  4 27  1  0  0  0  0
  4 28  1  0  0  0  0
  5 20  1  0  0  0  0
  5  6  1  0  0  0  0
  6  7  2  0  0  0  0
  7  8  1  0  0  0  0
  7 18  1  0  0  0  0
  8  9  2  0  0  0  0
  8 10  1  0  0  0  0
 10 11  1  0  0  0  0
 10 29  1  0  0  0  0
 11 17  1  0  0  0  0
 11 12  1  0  0  0  0
 11 30  1  0  0  0  0
 12 13  1  0  0  0  0
 12 31  1  0  0  0  0
 12 32  1  0  0  0  0
 13 14  1  0  0  0  0
 13 33  1  0  0  0  0
 13 34  1  0  0  0  0
 14 15  1  0  0  0  0
 14 35  1  0  0  0  0
 14 36  1  0  0  0  0
 15 16  1  0  0  0  0
 15 17  1  0  0  0  0
 15 37  1  0  0  0  0
 16 38  1  0  0  0  0
 16 39  1  0  0  0  0
 16 40  1  0  0  0  0
 17 41  1  0  0  0  0
 17 42  1  0  0  0  0
 18 19  2  0  0  0  0
 18 43  1  0  0  0  0
 19 20  1  0  0  0  0
 19 44  1  0  0  0  0
 20 21  2  0  0  0  0
M  END
> <s_m_source_file>
AV-unprocessed.smi

> <i_m_source_file_index>
1485

> <i_lp_mmshare_version>
43012

> <i_f3d_flags>
0

> <s_epik_input>
W0NIM11PW0NIMl1bQ0gyXW4xbmMoW2NIXVtjSF1jMT1PKUMoPU8pW05IXVtDQEBIXTJbQ0gyXVtDSDJdW0NIMl1bQ0BASF0oW0NIM10pW0NIMl0y

> <s_epik_cmdline>
J2VwaWtfcHl0aG9uJywgJy1waCcsICc3LjAnLCAnLXRuJywgJzgnLCAnLW1hJywgJzIwMCcsICctbWV0YWxfYmluZGluZycsICctaW1hZScsICc8aW5maWxlLm1hZT4nLCAnLW9tYWUnLCAnPG91dGZpbGUubWFlPic=

> <r_lp_tautomer_probability>
1

> <r_epik_Ionization_Penalty>
6.4688e-07

> <r_epik_Ionization_Penalty_Charging>
6.63567e-09

> <r_epik_Ionization_Penalty_Neutral>
6.40245e-07

> <r_epik_State_Penalty>
-0

> <r_epik_Charging_Adjusted_Penalty>
6.63567e-09

> <i_epik_Tot_Q>
0

> <i_epik_Tot_abs_Q>
0

> <r_epik_Metal_State_Penalty>
-0

> <b_epik_Metal_Only>
0

> <s_lp_Force_Field>
OPLS_2005

> <r_lp_Energy>
28.6474

> <b_lp_Chiralities_Consistent>
1

> <s_lp_Variant>
AV-unprocessed.smi:1485-3

> <Gold.Version>
5.8.1

> <Gold.Id.Protein>
6NUR|6NUR_protein|mol2

> <Gold.PLP.Fitness>
43.4887

> <Gold.PLP.PLP>
-44.9215

> <Gold.PLP.part.hbond>
-1.0000

> <Gold.PLP.part.metal>
0.0000

> <Gold.PLP.part.buried>
-5.3693

> <Gold.PLP.part.nonpolar>
-40.6604

> <Gold.PLP.part.repulsive>
2.8596

> <Gold.PLP.ligand.clash>
0.0000

> <Gold.PLP.ligand.torsion>
1.2144

> <Gold.PLP.Chemscore.Hbond>
0.3276

> <Gold.PLP.Chemscore.CHOScore>
0.0000

> <Gold.PLP.Chemscore.Metal>
0.0000

> <Gold.Chemscore.Hbonds>
donor molecule, donor type, donor heavy atom, donor atom, acceptor molecule, acceptor atom, score
      P1  H  7989  7998       L1     9  0.29

> <Gold.PLP.Chemscore.Internal.Correction>
0.0133

> <Gold.Rescore>
     Score         DG    S(hbond)    S(metal)    S(lipo)     H(rot)  DE(clash)    DE(int)     intcor
     13.61     -15.40       0.21        0.00     112.62       1.55       0.46       1.33       ----

> <Gold.Chemscore.Fitness>
13.6071

> <Gold.Chemscore.DG>
-15.3958

> <Gold.Chemscore.ZeroCoef>
-5.4800

> <Gold.Chemscore.Hbond>
0.2101

> <Gold.Chemscore.Metal>
0.0000

> <Gold.Chemscore.Lipo>
112.6168

> <Gold.Chemscore.Internal_Hbond>
0.0000

> <Gold.Chemscore.DEClash>
0.4606

> <Gold.Chemscore.DEInternal>
1.3280

> <Gold.Chemscore.Rot>
1.5478

> <Gold.Chemscore.Internal.Correction>
   9.000000E+99

> <Gold.Chemscore.Hbonds>
donor molecule, donor type, donor heavy atom, donor atom, acceptor molecule, acceptor atom, score
      P1  H  7989  7998       L1     9  0.01
      P1  H  7997  8010       L1     9  0.01

> <Gold.Chemscore.Hbond.Weighted>
-0.7019

> <Gold.Chemscore.Metal.Weighted>
-0.0000

> <Gold.Chemscore.Lipo.Weighted>
-13.1762

> <Gold.Chemscore.Internal_Hbond.Weighted>
0.0000

> <Gold.Chemscore.DEClash.Weighted>
0.4606

> <Gold.Chemscore.DEInternal.Weighted>
1.3280

> <Gold.Chemscore.Rot.Weighted>
3.9623

> <Gold.Chemscore.Internal.Correction.Weighted>
   9.000000E+99

> <Gold.Protein.RotatedTorsions>
[ 6907 6896 6895 6894 ] final  -93.80 input  -60.11 | X-H torsion
[ 7974 7965 7964 7962 ] final   68.93 input  175.53 | X-H torsion
[ 8008 7997 7996 7995 ] final   87.16 input   59.86 | X-H torsion
[ 10167 10162 10161 10158 ] final  143.08 input  -65.29 | X-H torsion
[ 10718 10713 10712 10709 ] final  -38.81 input   66.30 | X-H torsion
[ 10763 10752 10751 10750 ] final -132.34 input  -60.55 | X-H torsion
[ 11005 11000 10999 10996 ] final  114.16 input  -57.11 | X-H torsion

> <Gold.Protein.ActiveResidues>
 VAL166  LYS551  ARG553  GLY616  TRP617  ASP618  TYR619  PRO620  LYS621  CYS622 
 ASP623  PHE694  ASN695  SER759  ASP760  ASP761  ALA762  ILE779  LEU786  VAL792 
 PHE793  MET794  SER795  GLU796  ALA797  LYS798  CYS799  TRP800  GLU811  SER814 

> <Gold.Protein.RotatedAtoms>
  150.6929  134.1910  159.4285 H   0  0  0  0  0  0  0  0  0  0  0  0  # atno 6907 bound_to 6896
  151.9881  134.9991  160.0569 H   0  0  0  0  0  0  0  0  0  0  0  0  # atno 6908 bound_to 6896
  152.1693  133.4598  159.4937 H   0  0  0  0  0  0  0  0  0  0  0  0  # atno 6909 bound_to 6896
  145.7967  139.2961  143.1179 H   0  0  0  0  0  0  0  0  0  0  0  0  # atno 7974 bound_to 7965
  155.9719  140.3385  155.6583 H   0  0  0  0  0  0  0  0  0  0  0  0  # atno 8008 bound_to 7997
  155.6664  140.0722  157.2554 H   0  0  0  0  0  0  0  0  0  0  0  0  # atno 8009 bound_to 7997
  154.4168  140.1699  156.1819 H   0  0  0  0  0  0  0  0  0  0  0  0  # atno 8010 bound_to 7997
  139.4978  144.6065  151.6368 H   0  0  0  0  0  0  0  0  0  0  0  0  # atno 10167 bound_to 10162
  156.2995  130.4238  149.8157 H   0  0  0  0  0  0  0  0  0  0  0  0  # atno 10718 bound_to 10713
  154.8744  135.3801  154.4394 H   0  0  0  0  0  0  0  0  0  0  0  0  # atno 10763 bound_to 10752
  153.5081  135.7030  153.5801 H   0  0  0  0  0  0  0  0  0  0  0  0  # atno 10764 bound_to 10752
  153.4103  135.3926  155.2012 H   0  0  0  0  0  0  0  0  0  0  0  0  # atno 10765 bound_to 10752
  139.8973  134.9563  156.6850 H   0  0  0  0  0  0  0  0  0  0  0  0  # atno 11005 bound_to 11000
  145.9921  140.8594  143.0061 LP  0  0  0  0  0  0  0  0  0  0  0  0  # atno 17320 bound_to 7965
  144.6774  140.2230  143.7364 LP  0  0  0  0  0  0  0  0  0  0  0  0  # atno 17321 bound_to 7965
  140.5728  144.0080  150.6225 LP  0  0  0  0  0  0  0  0  0  0  0  0  # atno 17342 bound_to 10162
  140.3203  143.3141  152.0790 LP  0  0  0  0  0  0  0  0  0  0  0  0  # atno 17343 bound_to 10162
  156.5540  130.8354  151.3308 LP  0  0  0  0  0  0  0  0  0  0  0  0  # atno 17370 bound_to 10713
  157.7364  130.9778  150.2135 LP  0  0  0  0  0  0  0  0  0  0  0  0  # atno 17371 bound_to 10713
  140.7269  133.9092  155.8185 LP  0  0  0  0  0  0  0  0  0  0  0  0  # atno 17394 bound_to 11000
  141.0183  134.0924  157.4148 LP  0  0  0  0  0  0  0  0  0  0  0  0  # atno 17395 bound_to 11000

$$$$
