AV-unprocessed.smi:1174|AV-procd|sdf|4947|dock10
  -GOLD-   22720 3533D 1   1.00000     0.00000
 Structure written by MMmdl.
 41 42  0  0  0  0  0  0  0  0  1 V2000
  145.3564  136.1392  150.5466 C   0  0  0  0  0  0  0  0  0  0  0  0
  145.4941  135.5917  151.9755 C   0  0  1  0  0  0  0  0  0  0  0  0
  146.0980  134.1739  151.9818 C   0  0  0  0  0  0  0  0  0  0  0  0
  145.3175  133.2357  151.1942 N   0  0  0  0  0  0  0  0  0  0  0  0
  145.7305  132.0567  150.6095 C   0  0  0  0  0  0  0  0  0  0  0  0
  144.6469  131.5138  149.9810 C   0  0  0  0  0  0  0  0  0  0  0  0
  143.6040  132.4467  150.2400 C   0  0  0  0  0  0  0  0  0  0  0  0
  144.0088  133.4769  150.9650 N   0  0  0  0  0  0  0  0  0  0  0  0
  146.3250  136.4892  152.7751 N   0  0  0  0  0  0  0  0  0  0  0  0
  145.8806  137.3268  153.7241 C   0  0  0  0  0  0  0  0  0  0  0  0
  144.6897  137.4595  154.0069 O   0  0  0  0  0  0  0  0  0  0  0  0
  146.9495  138.1367  154.4682 C   0  0  2  0  0  0  0  0  0  0  0  0
  146.3158  139.0486  155.5453 C   0  0  0  0  0  0  0  0  0  0  0  0
  147.3638  139.9657  156.2047 C   0  0  0  0  0  0  0  0  0  0  0  0
  148.1921  140.7105  155.1419 C   0  0  0  0  0  0  0  0  0  0  0  0
  148.8067  139.7201  154.2415 N   0  0  0  0  0  0  0  0  0  0  0  0
  150.1086  139.3380  154.2410 C   0  0  0  0  0  0  0  0  0  0  0  0
  150.3751  138.2213  153.5569 N   0  0  0  0  0  0  0  0  0  0  0  0
  150.9970  139.9347  154.8471 O   0  0  0  0  0  0  0  0  0  0  0  0
  147.7858  138.9850  153.4844 C   0  0  0  0  0  0  0  0  0  0  0  0
  144.7283  135.4889  149.9371 H   0  0  0  0  0  0  0  0  0  0  0  0
  146.3272  136.2190  150.0563 H   0  0  0  0  0  0  0  0  0  0  0  0
  144.8995  137.1292  150.5450 H   0  0  0  0  0  0  0  0  0  0  0  0
  144.4964  135.5364  152.4153 H   0  0  0  0  0  0  0  0  0  0  0  0
  147.1123  134.1941  151.5804 H   0  0  0  0  0  0  0  0  0  0  0  0
  146.1747  133.7944  153.0018 H   0  0  0  0  0  0  0  0  0  0  0  0
  146.7485  131.7049  150.6914 H   0  0  0  0  0  0  0  0  0  0  0  0
  144.6054  130.5910  149.4216 H   0  0  0  0  0  0  0  0  0  0  0  0
  142.5720  132.4062  149.9241 H   0  0  0  0  0  0  0  0  0  0  0  0
  147.3201  136.4546  152.6083 H   0  0  0  0  0  0  0  0  0  0  0  0
  147.6222  137.4381  154.9698 H   0  0  0  0  0  0  0  0  0  0  0  0
  145.5414  139.6724  155.0959 H   0  0  0  0  0  0  0  0  0  0  0  0
  145.8206  138.4459  156.3078 H   0  0  0  0  0  0  0  0  0  0  0  0
  146.8710  140.6797  156.8652 H   0  0  0  0  0  0  0  0  0  0  0  0
  148.0280  139.3698  156.8322 H   0  0  0  0  0  0  0  0  0  0  0  0
  147.5442  141.3684  154.5608 H   0  0  0  0  0  0  0  0  0  0  0  0
  148.9098  141.3703  155.6289 H   0  0  0  0  0  0  0  0  0  0  0  0
  151.3213  137.8734  153.5082 H   0  0  0  0  0  0  0  0  0  0  0  0
  149.6262  137.7313  153.0895 H   0  0  0  0  0  0  0  0  0  0  0  0
  148.2211  138.3518  152.7090 H   0  0  0  0  0  0  0  0  0  0  0  0
  147.1509  139.6983  152.9561 H   0  0  0  0  0  0  0  0  0  0  0  0
  1  2  1  0  0  0  0
  1 21  1  0  0  0  0
  1 22  1  0  0  0  0
  1 23  1  0  0  0  0
  2  3  1  0  0  0  0
  2  9  1  0  0  0  0
  2 24  1  0  0  0  0
  3  4  1  0  0  0  0
  3 25  1  0  0  0  0
  3 26  1  0  0  0  0
  4  8  1  0  0  0  0
  4  5  1  0  0  0  0
  5  6  2  0  0  0  0
  5 27  1  0  0  0  0
  6  7  1  0  0  0  0
  6 28  1  0  0  0  0
  7  8  2  0  0  0  0
  7 29  1  0  0  0  0
  9 10  1  0  0  0  0
  9 30  1  0  0  0  0
 10 11  2  0  0  0  0
 10 12  1  0  0  0  0
 12 20  1  0  0  0  0
 12 13  1  0  0  0  0
 12 31  1  0  0  0  0
 13 14  1  0  0  0  0
 13 32  1  0  0  0  0
 13 33  1  0  0  0  0
 14 15  1  0  0  0  0
 14 34  1  0  0  0  0
 14 35  1  0  0  0  0
 15 16  1  0  0  0  0
 15 36  1  0  0  0  0
 15 37  1  0  0  0  0
 16 17  1  0  0  0  0
 16 20  1  0  0  0  0
 17 18  1  0  0  0  0
 17 19  2  0  0  0  0
 18 38  1  0  0  0  0
 18 39  1  0  0  0  0
 20 40  1  0  0  0  0
 20 41  1  0  0  0  0
M  END
> <s_m_source_file>
AV-unprocessed.smi

> <i_m_source_file_index>
1174

> <i_lp_mmshare_version>
43012

> <i_f3d_flags>
0

> <s_epik_input>
bjFbY0hdW2NIXVtjSF1uMVtDSDJdW0NAQEhdKFtDSDNdKVtOSF1DKD1PKVtDQEBIXTJbQ0gyXVtDSDJdW0NIMl1OKFtDSDJdMilDKD1PKVtOSDJd

> <s_epik_cmdline>
J2VwaWtfcHl0aG9uJywgJy1waCcsICc3LjAnLCAnLXRuJywgJzgnLCAnLW1hJywgJzIwMCcsICctbWV0YWxfYmluZGluZycsICctaW1hZScsICc8aW5maWxlLm1hZT4nLCAnLW9tYWUnLCAnPG91dGZpbGUubWFlPic=

> <r_lp_tautomer_probability>
1

> <r_epik_Ionization_Penalty>
0.000372452

> <r_epik_Ionization_Penalty_Charging>
0

> <r_epik_Ionization_Penalty_Neutral>
0.000372452

> <r_epik_State_Penalty>
-0

> <r_epik_Charging_Adjusted_Penalty>
0

> <i_epik_Tot_Q>
0

> <i_epik_Tot_abs_Q>
0

> <r_epik_Metal_State_Penalty>
-0

> <b_epik_Metal_Only>
0

> <s_lp_Force_Field>
OPLS_2005

> <r_lp_Energy>
26.6636

> <b_lp_Chiralities_Consistent>
1

> <s_lp_Variant>
AV-unprocessed.smi:1174-2

> <Gold.Version>
5.8.1

> <Gold.Id.Protein>
6NUR|6NUR_protein|mol2

> <Gold.PLP.Fitness>
41.2201

> <Gold.PLP.PLP>
-27.5297

> <Gold.PLP.part.hbond>
-4.4510

> <Gold.PLP.part.metal>
0.0000

> <Gold.PLP.part.buried>
0.2051

> <Gold.PLP.part.nonpolar>
-23.7702

> <Gold.PLP.part.repulsive>
0.4414

> <Gold.PLP.ligand.clash>
1.7821

> <Gold.PLP.ligand.torsion>
0.5281

> <Gold.PLP.Chemscore.Hbond>
2.9760

> <Gold.PLP.Chemscore.CHOScore>
2.5155

> <Gold.PLP.Chemscore.Metal>
0.0000

> <Gold.Chemscore.Hbonds>
donor molecule, donor type, donor heavy atom, donor atom, acceptor molecule, acceptor atom, score
      L1  H     9    30       P1  7948  1.00
      L1  H    18    39       P1  7948  0.99
      P1  H  7989  7998       L1    19  0.90
      L1  C     5    27       P1 10747  1.00
      L1  C     7    29       P1 10186  0.84
      L1  C     7    29       P1 10952  0.53

> <Gold.PLP.Chemscore.Internal.Correction>
0.0542

> <Gold.Rescore>
     Score         DG    S(hbond)    S(metal)    S(lipo)     H(rot)  DE(clash)    DE(int)     intcor
     13.51     -15.68       2.22        0.00      63.60       1.82       0.39       1.78       ----

> <Gold.Chemscore.Fitness>
13.5082

> <Gold.Chemscore.DG>
-15.6794

> <Gold.Chemscore.ZeroCoef>
-5.4800

> <Gold.Chemscore.Hbond>
2.2214

> <Gold.Chemscore.Metal>
0.0000

> <Gold.Chemscore.Lipo>
63.5958

> <Gold.Chemscore.Internal_Hbond>
0.0000

> <Gold.Chemscore.DEClash>
0.3926

> <Gold.Chemscore.DEInternal>
1.7785

> <Gold.Chemscore.Rot>
1.8206

> <Gold.Chemscore.Internal.Correction>
   9.000000E+99

> <Gold.Chemscore.Hbonds>
donor molecule, donor type, donor heavy atom, donor atom, acceptor molecule, acceptor atom, score
      L1  H     9    30       P1  7948  1.00
      L1  H    18    39       P1  7948  0.67
      P1  H  7989  7998       L1    19  0.18

> <Gold.Chemscore.Hbond.Weighted>
-7.4194

> <Gold.Chemscore.Metal.Weighted>
-0.0000

> <Gold.Chemscore.Lipo.Weighted>
-7.4407

> <Gold.Chemscore.Internal_Hbond.Weighted>
0.0000

> <Gold.Chemscore.DEClash.Weighted>
0.3926

> <Gold.Chemscore.DEInternal.Weighted>
1.7785

> <Gold.Chemscore.Rot.Weighted>
4.6607

> <Gold.Chemscore.Internal.Correction.Weighted>
   9.000000E+99

> <Gold.Protein.RotatedTorsions>
[ 6907 6896 6895 6894 ] final -123.99 input  -60.11 | X-H torsion
[ 7974 7965 7964 7962 ] final   29.30 input  175.53 | X-H torsion
[ 8008 7997 7996 7995 ] final   64.37 input   59.86 | X-H torsion
[ 10167 10162 10161 10158 ] final  -32.21 input  -65.29 | X-H torsion
[ 10718 10713 10712 10709 ] final  148.07 input   66.30 | X-H torsion
[ 10763 10752 10751 10750 ] final -159.07 input  -60.55 | X-H torsion
[ 11005 11000 10999 10996 ] final   15.99 input  -57.11 | X-H torsion

> <Gold.Protein.ActiveResidues>
 VAL166  LYS551  ARG553  GLY616  TRP617  ASP618  TYR619  PRO620  LYS621  CYS622 
 ASP623  PHE694  ASN695  SER759  ASP760  ASP761  ALA762  ILE779  LEU786  VAL792 
 PHE793  MET794  SER795  GLU796  ALA797  LYS798  CYS799  TRP800  GLU811  SER814 

> <Gold.Protein.RotatedAtoms>
  150.8725  133.7486  159.2956 H   0  0  0  0  0  0  0  0  0  0  0  0  # atno 6907 bound_to 6896
  151.5093  135.1063  159.9859 H   0  0  0  0  0  0  0  0  0  0  0  0  # atno 6908 bound_to 6896
  152.4705  133.7973  159.6990 H   0  0  0  0  0  0  0  0  0  0  0  0  # atno 6909 bound_to 6896
  146.1679  139.6940  142.8988 H   0  0  0  0  0  0  0  0  0  0  0  0  # atno 7974 bound_to 7965
  155.6450  140.3497  155.4728 H   0  0  0  0  0  0  0  0  0  0  0  0  # atno 8008 bound_to 7997
  155.9895  140.1191  157.0675 H   0  0  0  0  0  0  0  0  0  0  0  0  # atno 8009 bound_to 7997
  154.4215  140.1122  156.5532 H   0  0  0  0  0  0  0  0  0  0  0  0  # atno 8010 bound_to 7997
  140.7224  143.3711  151.1776 H   0  0  0  0  0  0  0  0  0  0  0  0  # atno 10167 bound_to 10162
  157.3132  131.0891  151.1300 H   0  0  0  0  0  0  0  0  0  0  0  0  # atno 10718 bound_to 10713
  154.7505  135.3091  154.8567 H   0  0  0  0  0  0  0  0  0  0  0  0  # atno 10763 bound_to 10752
  153.9355  135.6780  153.4749 H   0  0  0  0  0  0  0  0  0  0  0  0  # atno 10764 bound_to 10752
  153.1101  135.4870  154.8947 H   0  0  0  0  0  0  0  0  0  0  0  0  # atno 10765 bound_to 10752
  140.4521  134.1213  155.7704 H   0  0  0  0  0  0  0  0  0  0  0  0  # atno 11005 bound_to 11000
  145.4418  141.0423  143.2853 LP  0  0  0  0  0  0  0  0  0  0  0  0  # atno 17320 bound_to 7965
  144.8120  139.5945  143.7025 LP  0  0  0  0  0  0  0  0  0  0  0  0  # atno 17321 bound_to 7965
  139.7283  143.9113  152.3010 LP  0  0  0  0  0  0  0  0  0  0  0  0  # atno 17342 bound_to 10162
  139.8893  144.6974  150.8788 LP  0  0  0  0  0  0  0  0  0  0  0  0  # atno 17343 bound_to 10162
  157.2614  130.6660  149.5976 LP  0  0  0  0  0  0  0  0  0  0  0  0  # atno 17370 bound_to 10713
  155.9679  130.4507  150.5709 LP  0  0  0  0  0  0  0  0  0  0  0  0  # atno 17371 bound_to 10713
  141.1659  133.8703  157.1715 LP  0  0  0  0  0  0  0  0  0  0  0  0  # atno 17394 bound_to 11000
  140.0000  135.0031  157.0168 LP  0  0  0  0  0  0  0  0  0  0  0  0  # atno 17395 bound_to 11000

$$$$
