AV-unprocessed.smi:1809|AV-procd|sdf|7319|dock6
  -GOLD-   22720 8573D 1   1.00000     0.00000
 Structure written by MMmdl.
 39 41  0  0  0  0  0  0  0  0  1 V2000
  149.7410  129.5155  154.2361 C   0  0  0  0  0  0  0  0  0  0  0  0
  149.8887  130.9835  154.4486 C   0  0  0  0  0  0  0  0  0  0  0  0
  150.6940  131.5044  155.3825 N   0  0  0  0  0  0  0  0  0  0  0  0
  150.6588  132.8918  155.3933 N   0  0  0  0  0  0  0  0  0  0  0  0
  149.8238  133.3778  154.4647 C   0  0  0  0  0  0  0  0  0  0  0  0
  149.5943  134.7638  154.2570 N   0  0  0  0  0  0  0  0  0  0  0  0
  149.7624  135.7759  155.1262 C   0  0  0  0  0  0  0  0  0  0  0  0
  150.1588  135.6588  156.2859 O   0  0  0  0  0  0  0  0  0  0  0  0
  149.4361  136.9504  154.5683 N   0  0  0  0  0  0  0  0  0  0  0  0
  149.4611  138.2439  155.2435 C   0  0  0  0  0  0  0  0  0  0  0  0
  150.6450  139.1071  154.7592 C   0  0  2  0  0  0  0  0  0  0  0  0
  151.7407  139.2864  155.8374 C   0  0  0  0  0  0  0  0  0  0  0  0
  151.3214  140.2412  156.8457 N   0  0  0  0  0  0  0  0  0  0  0  0
  152.2886  140.5772  157.8650 C   0  0  0  0  0  0  0  0  0  0  0  0
  151.7350  141.8617  158.5049 C   0  0  0  0  0  0  0  0  0  0  0  0
  150.7712  142.4357  157.4431 C   0  0  0  0  0  0  0  0  0  0  0  0
  150.9868  141.5049  156.2480 C   0  0  2  0  0  0  0  0  0  0  0  0
  149.8251  141.3438  155.2594 C   0  0  0  0  0  0  0  0  0  0  0  0
  150.2065  140.3843  154.2678 O   0  0  0  0  0  0  0  0  0  0  0  0
  149.0088  132.1672  153.4892 S   0  0  0  0  0  0  0  0  0  0  0  0
  150.5048  128.9675  154.7889 H   0  0  0  0  0  0  0  0  0  0  0  0
  149.8410  129.2793  153.1767 H   0  0  0  0  0  0  0  0  0  0  0  0
  148.7590  129.1879  154.5775 H   0  0  0  0  0  0  0  0  0  0  0  0
  149.2533  135.0130  153.3406 H   0  0  0  0  0  0  0  0  0  0  0  0
  149.1230  136.9486  153.6087 H   0  0  0  0  0  0  0  0  0  0  0  0
  148.5115  138.7691  155.1318 H   0  0  0  0  0  0  0  0  0  0  0  0
  149.5690  138.0486  156.3106 H   0  0  0  0  0  0  0  0  0  0  0  0
  151.0999  138.5881  153.9147 H   0  0  0  0  0  0  0  0  0  0  0  0
  151.9819  138.3296  156.3016 H   0  0  0  0  0  0  0  0  0  0  0  0
  152.6557  139.6396  155.3597 H   0  0  0  0  0  0  0  0  0  0  0  0
  152.4127  139.7681  158.5853 H   0  0  0  0  0  0  0  0  0  0  0  0
  153.2603  140.7788  157.4107 H   0  0  0  0  0  0  0  0  0  0  0  0
  151.1937  141.6369  159.4246 H   0  0  0  0  0  0  0  0  0  0  0  0
  152.5379  142.5574  158.7499 H   0  0  0  0  0  0  0  0  0  0  0  0
  149.7418  142.3770  157.7994 H   0  0  0  0  0  0  0  0  0  0  0  0
  150.9871  143.4760  157.1975 H   0  0  0  0  0  0  0  0  0  0  0  0
  151.8529  141.8731  155.6937 H   0  0  0  0  0  0  0  0  0  0  0  0
  148.9177  141.0250  155.7722 H   0  0  0  0  0  0  0  0  0  0  0  0
  149.6005  142.2920  154.7712 H   0  0  0  0  0  0  0  0  0  0  0  0
  1  2  1  0  0  0  0
  1 21  1  0  0  0  0
  1 22  1  0  0  0  0
  1 23  1  0  0  0  0
  2 20  1  0  0  0  0
  2  3  2  0  0  0  0
  3  4  1  0  0  0  0
  4  5  2  0  0  0  0
  5  6  1  0  0  0  0
  5 20  1  0  0  0  0
  6  7  1  0  0  0  0
  6 24  1  0  0  0  0
  7  8  2  0  0  0  0
  7  9  1  0  0  0  0
  9 10  1  0  0  0  0
  9 25  1  0  0  0  0
 10 11  1  0  0  0  0
 10 26  1  0  0  0  0
 10 27  1  0  0  0  0
 11 19  1  0  0  0  0
 11 12  1  0  0  0  0
 11 28  1  0  0  0  0
 12 13  1  0  0  0  0
 12 29  1  0  0  0  0
 12 30  1  0  0  0  0
 13 17  1  0  0  0  0
 13 14  1  0  0  0  0
 14 15  1  0  0  0  0
 14 31  1  0  0  0  0
 14 32  1  0  0  0  0
 15 16  1  0  0  0  0
 15 33  1  0  0  0  0
 15 34  1  0  0  0  0
 16 17  1  0  0  0  0
 16 35  1  0  0  0  0
 16 36  1  0  0  0  0
 17 18  1  0  0  0  0
 17 37  1  0  0  0  0
 18 19  1  0  0  0  0
 18 38  1  0  0  0  0
 18 39  1  0  0  0  0
M  END
> <s_m_source_file>
AV-unprocessed.smi

> <i_m_source_file_index>
1809

> <i_lp_mmshare_version>
43012

> <i_f3d_flags>
0

> <s_epik_input>
W0NIM11jMW5uYyhzMSlbTkhdQyg9TylbTkhdW0NIMl1bQ0BIXShbQ0gyXTIpT1tDSDJdW0NAQEhdKE4yMylbQ0gyXVtDSDJdW0NIMl0z

> <s_epik_cmdline>
J2VwaWtfcHl0aG9uJywgJy1waCcsICc3LjAnLCAnLXRuJywgJzgnLCAnLW1hJywgJzIwMCcsICctbWV0YWxfYmluZGluZycsICctaW1hZScsICc8aW5maWxlLm1hZT4nLCAnLW9tYWUnLCAnPG91dGZpbGUubWFlPic=

> <r_lp_tautomer_probability>
1

> <r_epik_Ionization_Penalty>
1.05954

> <r_epik_Ionization_Penalty_Charging>
0

> <r_epik_Ionization_Penalty_Neutral>
1.05954

> <r_epik_State_Penalty>
1.4238

> <r_epik_Charging_Adjusted_Penalty>
1.4238

> <i_epik_Tot_Q>
0

> <i_epik_Tot_abs_Q>
0

> <r_epik_Metal_State_Penalty>
1.7901

> <b_epik_Metal_Only>
0

> <s_lp_Force_Field>
OPLS_2005

> <r_lp_Energy>
48.8115

> <b_lp_Chiralities_Consistent>
1

> <s_lp_Variant>
AV-unprocessed.smi:1809-11

> <Gold.Version>
5.8.1

> <Gold.Id.Protein>
6NUR|6NUR_protein|mol2

> <Gold.PLP.Fitness>
41.0186

> <Gold.PLP.PLP>
-34.2492

> <Gold.PLP.part.hbond>
-3.0000

> <Gold.PLP.part.metal>
0.0000

> <Gold.PLP.part.buried>
-5.8075

> <Gold.PLP.part.nonpolar>
-26.4895

> <Gold.PLP.part.repulsive>
0.1805

> <Gold.PLP.ligand.clash>
0.0000

> <Gold.PLP.ligand.torsion>
0.9131

> <Gold.PLP.Chemscore.Hbond>
2.8620

> <Gold.PLP.Chemscore.CHOScore>
0.0000

> <Gold.PLP.Chemscore.Metal>
0.0000

> <Gold.Chemscore.Hbonds>
donor molecule, donor type, donor heavy atom, donor atom, acceptor molecule, acceptor atom, score
      L1  H     6    24       P1  7948  0.75
      L1  H     9    25       P1  7948  1.00
      P1  H  7989  7998       L1    19  0.93

> <Gold.PLP.Chemscore.Internal.Correction>
0.0095

> <Gold.Rescore>
     Score         DG    S(hbond)    S(metal)    S(lipo)     H(rot)  DE(clash)    DE(int)     intcor
     15.63     -17.77       2.34        0.00      67.13       1.32       0.06       2.08       ----

> <Gold.Chemscore.Fitness>
15.6346

> <Gold.Chemscore.DG>
-17.7688

> <Gold.Chemscore.ZeroCoef>
-5.4800

> <Gold.Chemscore.Hbond>
2.3393

> <Gold.Chemscore.Metal>
0.0000

> <Gold.Chemscore.Lipo>
67.1272

> <Gold.Chemscore.Internal_Hbond>
0.0000

> <Gold.Chemscore.DEClash>
0.0566

> <Gold.Chemscore.DEInternal>
2.0776

> <Gold.Chemscore.Rot>
1.3196

> <Gold.Chemscore.Internal.Correction>
   9.000000E+99

> <Gold.Chemscore.Hbonds>
donor molecule, donor type, donor heavy atom, donor atom, acceptor molecule, acceptor atom, score
      L1  H     6    24       P1  7948  0.09
      L1  H     9    25       P1  7948  0.97
      P1  H  7989  7998       L1    19  0.17

> <Gold.Chemscore.Hbond.Weighted>
-7.8132

> <Gold.Chemscore.Metal.Weighted>
-0.0000

> <Gold.Chemscore.Lipo.Weighted>
-7.8539

> <Gold.Chemscore.Internal_Hbond.Weighted>
0.0000

> <Gold.Chemscore.DEClash.Weighted>
0.0566

> <Gold.Chemscore.DEInternal.Weighted>
2.0776

> <Gold.Chemscore.Rot.Weighted>
3.3783

> <Gold.Chemscore.Internal.Correction.Weighted>
   9.000000E+99

> <Gold.Protein.RotatedTorsions>
[ 6907 6896 6895 6894 ] final  113.37 input  -60.11 | X-H torsion
[ 7974 7965 7964 7962 ] final   98.14 input  175.53 | X-H torsion
[ 8008 7997 7996 7995 ] final  130.35 input   59.86 | X-H torsion
[ 10167 10162 10161 10158 ] final  -40.33 input  -65.29 | X-H torsion
[ 10718 10713 10712 10709 ] final -139.40 input   66.30 | X-H torsion
[ 10763 10752 10751 10750 ] final   -8.28 input  -60.55 | X-H torsion
[ 11005 11000 10999 10996 ] final   30.73 input  -57.11 | X-H torsion

> <Gold.Protein.ActiveResidues>
 VAL166  LYS551  ARG553  GLY616  TRP617  ASP618  TYR619  PRO620  LYS621  CYS622 
 ASP623  PHE694  ASN695  SER759  ASP760  ASP761  ALA762  ILE779  LEU786  VAL792 
 PHE793  MET794  SER795  GLU796  ALA797  LYS798  CYS799  TRP800  GLU811  SER814 

> <Gold.Protein.RotatedAtoms>
  152.4865  133.8385  159.7140 H   0  0  0  0  0  0  0  0  0  0  0  0  # atno 6907 bound_to 6896
  150.8955  133.7177  159.2899 H   0  0  0  0  0  0  0  0  0  0  0  0  # atno 6908 bound_to 6896
  151.4635  135.1044  159.9784 H   0  0  0  0  0  0  0  0  0  0  0  0  # atno 6909 bound_to 6896
  145.4161  139.2327  143.3221 H   0  0  0  0  0  0  0  0  0  0  0  0  # atno 7974 bound_to 7965
  156.2953  140.2598  156.2747 H   0  0  0  0  0  0  0  0  0  0  0  0  # atno 8008 bound_to 7997
  154.9661  140.0392  157.2231 H   0  0  0  0  0  0  0  0  0  0  0  0  # atno 8009 bound_to 7997
  154.7902  140.2810  155.6002 H   0  0  0  0  0  0  0  0  0  0  0  0  # atno 8010 bound_to 7997
  140.7037  143.3160  151.2909 H   0  0  0  0  0  0  0  0  0  0  0  0  # atno 10167 bound_to 10162
  156.3103  130.7478  151.1552 H   0  0  0  0  0  0  0  0  0  0  0  0  # atno 10718 bound_to 10713
  153.4382  135.7013  153.6186 H   0  0  0  0  0  0  0  0  0  0  0  0  # atno 10763 bound_to 10752
  153.4572  135.3744  155.2318 H   0  0  0  0  0  0  0  0  0  0  0  0  # atno 10764 bound_to 10752
  154.8727  135.4011  154.3776 H   0  0  0  0  0  0  0  0  0  0  0  0  # atno 10765 bound_to 10752
  140.2913  134.2861  155.7775 H   0  0  0  0  0  0  0  0  0  0  0  0  # atno 11005 bound_to 11000
  146.2680  140.4879  142.8826 LP  0  0  0  0  0  0  0  0  0  0  0  0  # atno 17320 bound_to 7965
  144.8276  140.6654  143.6312 LP  0  0  0  0  0  0  0  0  0  0  0  0  # atno 17321 bound_to 7965
  139.6598  144.0209  152.2685 LP  0  0  0  0  0  0  0  0  0  0  0  0  # atno 17342 bound_to 10162
  139.9773  144.6452  150.7933 LP  0  0  0  0  0  0  0  0  0  0  0  0  # atno 17343 bound_to 10162
  157.7389  131.0535  150.5263 LP  0  0  0  0  0  0  0  0  0  0  0  0  # atno 17370 bound_to 10713
  156.5402  130.4206  149.6158 LP  0  0  0  0  0  0  0  0  0  0  0  0  # atno 17371 bound_to 10713
  141.2145  133.7587  156.9629 LP  0  0  0  0  0  0  0  0  0  0  0  0  # atno 17394 bound_to 11000
  140.1193  134.9427  157.2180 LP  0  0  0  0  0  0  0  0  0  0  0  0  # atno 17395 bound_to 11000

$$$$
