AV-unprocessed.smi:2294|AV-procd|sdf|9217|dock9
  -GOLD-   2272012433D 1   1.00000     0.00000
 Structure written by MMmdl.
 34 35  0  0  0  0  0  0  0  0  1 V2000
  145.9311  141.7046  155.2455 C   0  0  0  0  0  0  0  0  0  0  0  0
  147.4137  141.4460  155.4458 C   0  0  0  0  0  0  0  0  0  0  0  0
  148.0126  142.1476  156.4962 N   0  0  0  0  0  0  0  0  0  0  0  0
  149.2737  141.9951  156.7370 C   0  0  0  0  0  0  0  0  0  0  0  0
  150.0720  141.1311  155.9700 N   0  0  0  0  0  0  0  0  0  0  0  0
  151.4954  141.0560  156.3407 C   0  0  0  0  0  0  0  0  0  0  0  0
  151.6969  140.9606  157.8695 C   0  0  1  0  0  0  0  0  0  0  0  0
  152.7668  140.0718  158.1290 O   0  0  0  0  0  0  0  0  0  0  0  0
  151.9539  142.3365  158.4712 C   0  0  0  0  0  0  0  0  0  0  0  0
  151.6707  143.5066  157.7306 C   0  0  0  0  0  0  0  0  0  0  0  0
  151.9030  144.7779  158.2898 C   0  0  0  0  0  0  0  0  0  0  0  0
  152.4155  144.8896  159.5959 C   0  0  0  0  0  0  0  0  0  0  0  0
  152.6918  143.7290  160.3431 C   0  0  0  0  0  0  0  0  0  0  0  0
  152.4604  142.4562  159.7857 C   0  0  0  0  0  0  0  0  0  0  0  0
  152.7261  141.3513  160.5234 F   0  0  0  0  0  0  0  0  0  0  0  0
  149.5678  140.4091  154.9275 C   0  0  0  0  0  0  0  0  0  0  0  0
  150.2791  139.6585  154.2567 O   0  0  0  0  0  0  0  0  0  0  0  0
  148.1320  140.5950  154.6633 C   0  0  0  0  0  0  0  0  0  0  0  0
  147.5351  139.8077  153.5033 C   0  0  0  0  0  0  0  0  0  0  0  0
  145.3646  140.7774  155.3382 H   0  0  0  0  0  0  0  0  0  0  0  0
  145.7484  142.1288  154.2577 H   0  0  0  0  0  0  0  0  0  0  0  0
  145.5461  142.4064  155.9867 H   0  0  0  0  0  0  0  0  0  0  0  0
  149.7907  142.5254  157.5386 H   0  0  0  0  0  0  0  0  0  0  0  0
  152.0174  140.2421  155.8330 H   0  0  0  0  0  0  0  0  0  0  0  0
  151.9852  141.9591  155.9706 H   0  0  0  0  0  0  0  0  0  0  0  0
  150.8095  140.5377  158.3409 H   0  0  0  0  0  0  0  0  0  0  0  0
  152.8605  139.9827  159.0652 H   0  0  0  0  0  0  0  0  0  0  0  0
  151.2716  143.4344  156.7294 H   0  0  0  0  0  0  0  0  0  0  0  0
  151.6866  145.6675  157.7168 H   0  0  0  0  0  0  0  0  0  0  0  0
  152.5936  145.8645  160.0256 H   0  0  0  0  0  0  0  0  0  0  0  0
  153.0807  143.8147  161.3471 H   0  0  0  0  0  0  0  0  0  0  0  0
  148.0429  140.0668  152.5735 H   0  0  0  0  0  0  0  0  0  0  0  0
  146.4723  139.9951  153.3582 H   0  0  0  0  0  0  0  0  0  0  0  0
  147.6602  138.7375  153.6712 H   0  0  0  0  0  0  0  0  0  0  0  0
  1  2  1  0  0  0  0
  1 20  1  0  0  0  0
  1 21  1  0  0  0  0
  1 22  1  0  0  0  0
  2 18  2  0  0  0  0
  2  3  1  0  0  0  0
  3  4  2  0  0  0  0
  4  5  1  0  0  0  0
  4 23  1  0  0  0  0
  5  6  1  0  0  0  0
  5 16  1  0  0  0  0
  6  7  1  0  0  0  0
  6 24  1  0  0  0  0
  6 25  1  0  0  0  0
  7  8  1  0  0  0  0
  7  9  1  0  0  0  0
  7 26  1  0  0  0  0
  8 27  1  0  0  0  0
  9 14  1  0  0  0  0
  9 10  2  0  0  0  0
 10 11  1  0  0  0  0
 10 28  1  0  0  0  0
 11 12  2  0  0  0  0
 11 29  1  0  0  0  0
 12 13  1  0  0  0  0
 12 30  1  0  0  0  0
 13 14  2  0  0  0  0
 13 31  1  0  0  0  0
 14 15  1  0  0  0  0
 16 17  2  0  0  0  0
 16 18  1  0  0  0  0
 18 19  1  0  0  0  0
 19 32  1  0  0  0  0
 19 33  1  0  0  0  0
 19 34  1  0  0  0  0
M  END
> <s_m_source_file>
AV-unprocessed.smi

> <i_m_source_file_index>
2294

> <i_lp_mmshare_version>
43012

> <i_f3d_flags>
0

> <s_epik_input>
W0NIM11jMW5bY0hdbihjKD1PKWMxW0NIM10pW0NIMl1bQ0BIXShbT0hdKWMyW2NIXVtjSF1bY0hdW2NIXWMyRg==

> <s_epik_cmdline>
J2VwaWtfcHl0aG9uJywgJy1waCcsICc3LjAnLCAnLXRuJywgJzgnLCAnLW1hJywgJzIwMCcsICctbWV0YWxfYmluZGluZycsICctaW1hZScsICc8aW5maWxlLm1hZT4nLCAnLW9tYWUnLCAnPG91dGZpbGUubWFlPic=

> <r_lp_tautomer_probability>
1

> <r_epik_Ionization_Penalty>
5.07259e-05

> <r_epik_Ionization_Penalty_Charging>
7.56727e-08

> <r_epik_Ionization_Penalty_Neutral>
5.06502e-05

> <r_epik_State_Penalty>
-0

> <r_epik_Charging_Adjusted_Penalty>
7.56727e-08

> <i_epik_Tot_Q>
0

> <i_epik_Tot_abs_Q>
0

> <r_epik_Metal_State_Penalty>
-0

> <b_epik_Metal_Only>
0

> <s_lp_Force_Field>
OPLS_2005

> <r_lp_Energy>
19.7062

> <b_lp_Chiralities_Consistent>
1

> <s_lp_Variant>
AV-unprocessed.smi:2294-2

> <Gold.Version>
5.8.1

> <Gold.Id.Protein>
6NUR|6NUR_protein|mol2

> <Gold.PLP.Fitness>
43.4317

> <Gold.PLP.PLP>
-39.6670

> <Gold.PLP.part.hbond>
-2.0000

> <Gold.PLP.part.metal>
0.0000

> <Gold.PLP.part.buried>
-3.7559

> <Gold.PLP.part.nonpolar>
-35.0132

> <Gold.PLP.part.repulsive>
1.6920

> <Gold.PLP.ligand.clash>
0.0000

> <Gold.PLP.ligand.torsion>
1.1094

> <Gold.PLP.Chemscore.Hbond>
1.9920

> <Gold.PLP.Chemscore.CHOScore>
0.0000

> <Gold.PLP.Chemscore.Metal>
0.0000

> <Gold.Chemscore.Hbonds>
donor molecule, donor type, donor heavy atom, donor atom, acceptor molecule, acceptor atom, score
      P1  H  7989  7998       L1    17  1.00
      P1  H  7997  8010       L1     8  0.74

> <Gold.PLP.Chemscore.Internal.Correction>
0.0074

> <Gold.Rescore>
     Score         DG    S(hbond)    S(metal)    S(lipo)     H(rot)  DE(clash)    DE(int)     intcor
     14.83     -17.72       1.68        0.00     100.96       2.02       0.27       2.62       ----

> <Gold.Chemscore.Fitness>
14.8292

> <Gold.Chemscore.DG>
-17.7217

> <Gold.Chemscore.ZeroCoef>
-5.4800

> <Gold.Chemscore.Hbond>
1.6752

> <Gold.Chemscore.Metal>
0.0000

> <Gold.Chemscore.Lipo>
100.9637

> <Gold.Chemscore.Internal_Hbond>
0.0000

> <Gold.Chemscore.DEClash>
0.2743

> <Gold.Chemscore.DEInternal>
2.6182

> <Gold.Chemscore.Rot>
2.0181

> <Gold.Chemscore.Internal.Correction>
   9.000000E+99

> <Gold.Chemscore.Hbonds>
donor molecule, donor type, donor heavy atom, donor atom, acceptor molecule, acceptor atom, score
      P1  H  7989  7998       L1    17  0.44
      P1  H  7997  8010       L1     8  0.65

> <Gold.Chemscore.Hbond.Weighted>
-5.5953

> <Gold.Chemscore.Metal.Weighted>
-0.0000

> <Gold.Chemscore.Lipo.Weighted>
-11.8128

> <Gold.Chemscore.Internal_Hbond.Weighted>
0.0000

> <Gold.Chemscore.DEClash.Weighted>
0.2743

> <Gold.Chemscore.DEInternal.Weighted>
2.6182

> <Gold.Chemscore.Rot.Weighted>
5.1663

> <Gold.Chemscore.Internal.Correction.Weighted>
   9.000000E+99

> <Gold.Protein.RotatedTorsions>
[ 6907 6896 6895 6894 ] final  173.05 input  -60.11 | X-H torsion
[ 7974 7965 7964 7962 ] final   75.03 input  175.53 | X-H torsion
[ 8008 7997 7996 7995 ] final   51.22 input   59.86 | X-H torsion
[ 10167 10162 10161 10158 ] final  -93.14 input  -65.29 | X-H torsion
[ 10718 10713 10712 10709 ] final  -32.78 input   66.30 | X-H torsion
[ 10763 10752 10751 10750 ] final  -11.25 input  -60.55 | X-H torsion
[ 11005 11000 10999 10996 ] final   -2.47 input  -57.11 | X-H torsion

> <Gold.Protein.ActiveResidues>
 VAL166  LYS551  ARG553  GLY616  TRP617  ASP618  TYR619  PRO620  LYS621  CYS622 
 ASP623  PHE694  ASN695  SER759  ASP760  ASP761  ALA762  ILE779  LEU786  VAL792 
 PHE793  MET794  SER795  GLU796  ALA797  LYS798  CYS799  TRP800  GLU811  SER814 

> <Gold.Protein.RotatedAtoms>
  151.7744  133.3344  159.3453 H   0  0  0  0  0  0  0  0  0  0  0  0  # atno 6907 bound_to 6896
  150.7449  134.5988  159.6035 H   0  0  0  0  0  0  0  0  0  0  0  0  # atno 6908 bound_to 6896
  152.3319  134.7250  160.0338 H   0  0  0  0  0  0  0  0  0  0  0  0  # atno 6909 bound_to 6896
  145.7208  139.2647  143.1597 H   0  0  0  0  0  0  0  0  0  0  0  0  # atno 7974 bound_to 7965
  155.4317  140.3451  155.4281 H   0  0  0  0  0  0  0  0  0  0  0  0  # atno 8008 bound_to 7997
  156.1332  140.1520  156.9064 H   0  0  0  0  0  0  0  0  0  0  0  0  # atno 8009 bound_to 7997
  154.4911  140.0841  156.7577 H   0  0  0  0  0  0  0  0  0  0  0  0  # atno 8010 bound_to 7997
  140.3277  143.3013  151.9977 H   0  0  0  0  0  0  0  0  0  0  0  0  # atno 10167 bound_to 10162
  156.3707  130.4339  149.7548 H   0  0  0  0  0  0  0  0  0  0  0  0  # atno 10718 bound_to 10713
  153.4811  135.7017  153.5938 H   0  0  0  0  0  0  0  0  0  0  0  0  # atno 10763 bound_to 10752
  153.4150  135.3839  155.2075 H   0  0  0  0  0  0  0  0  0  0  0  0  # atno 10764 bound_to 10752
  154.8721  135.3914  154.4260 H   0  0  0  0  0  0  0  0  0  0  0  0  # atno 10765 bound_to 10752
  140.6587  133.9339  155.8423 H   0  0  0  0  0  0  0  0  0  0  0  0  # atno 11005 bound_to 11000
  146.0628  140.7953  142.9726 LP  0  0  0  0  0  0  0  0  0  0  0  0  # atno 17320 bound_to 7965
  144.6917  140.3222  143.7230 LP  0  0  0  0  0  0  0  0  0  0  0  0  # atno 17321 bound_to 7965
  139.4862  144.6260  151.7163 LP  0  0  0  0  0  0  0  0  0  0  0  0  # atno 17342 bound_to 10162
  140.5426  144.0555  150.6094 LP  0  0  0  0  0  0  0  0  0  0  0  0  # atno 17343 bound_to 10162
  156.4676  130.7981  151.3000 LP  0  0  0  0  0  0  0  0  0  0  0  0  # atno 17370 bound_to 10713
  157.7483  131.0046  150.3081 LP  0  0  0  0  0  0  0  0  0  0  0  0  # atno 17371 bound_to 10713
  141.0481  134.0524  157.3818 LP  0  0  0  0  0  0  0  0  0  0  0  0  # atno 17394 bound_to 11000
  139.9020  135.0168  156.7314 LP  0  0  0  0  0  0  0  0  0  0  0  0  # atno 17395 bound_to 11000

$$$$
