AV-unprocessed.smi:1218|AV-procd|sdf|5110|dock7
  -GOLD-   22720 4163D 1   1.00000     0.00000
 Structure written by MMmdl.
 44 45  0  0  0  0  0  0  0  0  1 V2000
  151.7458  144.5686  157.4509 C   0  0  0  0  0  0  0  0  0  0  0  0
  152.2919  143.5097  158.4216 C   0  0  0  0  0  0  0  0  0  0  0  0
  151.9404  142.1019  157.9106 C   0  0  0  0  0  0  0  0  0  0  0  0
  151.7659  143.7494  159.8566 C   0  0  0  0  0  0  0  0  0  0  0  0
  152.6985  143.4188  160.9350 N   0  0  0  0  0  0  0  0  0  0  0  0
  152.0874  143.6500  162.2395 C   0  0  0  0  0  0  0  0  0  0  0  0
  153.0440  143.3075  163.3928 C   0  0  0  0  0  0  0  0  0  0  0  0
  153.4736  141.9575  163.2626 O   0  0  0  0  0  0  0  0  0  0  0  0
  154.1374  141.7004  162.0274 C   0  0  1  0  0  0  0  0  0  0  0  0
  154.5773  140.2271  161.9910 C   0  0  0  0  0  0  0  0  0  0  0  0
  155.9681  140.0923  161.5700 N   0  0  0  0  0  0  0  0  0  0  0  0
  156.4013  140.1092  160.3003 C   0  0  0  0  0  0  0  0  0  0  0  0
  155.6516  140.2599  159.3342 O   0  0  0  0  0  0  0  0  0  0  0  0
  157.9128  139.9242  160.1139 C   0  0  0  0  0  0  0  0  0  0  0  0
  158.5992  141.1605  159.7741 N   0  0  0  0  0  0  0  0  0  0  0  0
  158.4296  141.9566  158.6602 C   0  0  0  0  0  0  0  0  0  0  0  0
  159.2926  143.0082  158.7763 C   0  0  0  0  0  0  0  0  0  0  0  0
  159.9551  142.7665  160.0122 C   0  0  0  0  0  0  0  0  0  0  0  0
  159.5364  141.6617  160.6083 N   0  0  0  0  0  0  0  0  0  0  0  0
  153.1738  142.0388  160.8720 C   0  0  0  0  0  0  0  0  0  0  0  0
  150.6567  144.5374  157.4006 H   0  0  0  0  0  0  0  0  0  0  0  0
  152.1304  144.4143  156.4423 H   0  0  0  0  0  0  0  0  0  0  0  0
  152.0370  145.5728  157.7605 H   0  0  0  0  0  0  0  0  0  0  0  0
  153.3780  143.6135  158.4207 H   0  0  0  0  0  0  0  0  0  0  0  0
  150.8608  141.9648  157.8435 H   0  0  0  0  0  0  0  0  0  0  0  0
  152.3297  141.3227  158.5646 H   0  0  0  0  0  0  0  0  0  0  0  0
  152.3575  141.9307  156.9178 H   0  0  0  0  0  0  0  0  0  0  0  0
  151.5155  144.8073  159.9495 H   0  0  0  0  0  0  0  0  0  0  0  0
  150.8217  143.2223  160.0027 H   0  0  0  0  0  0  0  0  0  0  0  0
  151.7802  144.6928  162.3257 H   0  0  0  0  0  0  0  0  0  0  0  0
  151.1816  143.0490  162.3351 H   0  0  0  0  0  0  0  0  0  0  0  0
  153.9071  143.9748  163.3937 H   0  0  0  0  0  0  0  0  0  0  0  0
  152.5416  143.4304  164.3523 H   0  0  0  0  0  0  0  0  0  0  0  0
  155.0209  142.3381  161.9567 H   0  0  0  0  0  0  0  0  0  0  0  0
  154.4098  139.7504  162.9583 H   0  0  0  0  0  0  0  0  0  0  0  0
  153.9664  139.6816  161.2713 H   0  0  0  0  0  0  0  0  0  0  0  0
  156.6526  139.9611  162.3007 H   0  0  0  0  0  0  0  0  0  0  0  0
  158.3479  139.5326  161.0342 H   0  0  0  0  0  0  0  0  0  0  0  0
  158.0932  139.1843  159.3325 H   0  0  0  0  0  0  0  0  0  0  0  0
  157.7189  141.7085  157.8859 H   0  0  0  0  0  0  0  0  0  0  0  0
  159.4307  143.8249  158.0837 H   0  0  0  0  0  0  0  0  0  0  0  0
  160.7221  143.3574  160.4905 H   0  0  0  0  0  0  0  0  0  0  0  0
  152.3243  141.3544  160.8924 H   0  0  0  0  0  0  0  0  0  0  0  0
  153.6939  141.8678  159.9301 H   0  0  0  0  0  0  0  0  0  0  0  0
  1  2  1  0  0  0  0
  1 21  1  0  0  0  0
  1 22  1  0  0  0  0
  1 23  1  0  0  0  0
  2  3  1  0  0  0  0
  2  4  1  0  0  0  0
  2 24  1  0  0  0  0
  3 25  1  0  0  0  0
  3 26  1  0  0  0  0
  3 27  1  0  0  0  0
  4  5  1  0  0  0  0
  4 28  1  0  0  0  0
  4 29  1  0  0  0  0
  5 20  1  0  0  0  0
  5  6  1  0  0  0  0
  6  7  1  0  0  0  0
  6 30  1  0  0  0  0
  6 31  1  0  0  0  0
  7  8  1  0  0  0  0
  7 32  1  0  0  0  0
  7 33  1  0  0  0  0
  8  9  1  0  0  0  0
  9 10  1  0  0  0  0
  9 20  1  0  0  0  0
  9 34  1  0  0  0  0
 10 11  1  0  0  0  0
 10 35  1  0  0  0  0
 10 36  1  0  0  0  0
 11 12  1  0  0  0  0
 11 37  1  0  0  0  0
 12 13  2  0  0  0  0
 12 14  1  0  0  0  0
 14 15  1  0  0  0  0
 14 38  1  0  0  0  0
 14 39  1  0  0  0  0
 15 19  1  0  0  0  0
 15 16  1  0  0  0  0
 16 17  2  0  0  0  0
 16 40  1  0  0  0  0
 17 18  1  0  0  0  0
 17 41  1  0  0  0  0
 18 19  2  0  0  0  0
 18 42  1  0  0  0  0
 20 43  1  0  0  0  0
 20 44  1  0  0  0  0
M  END
> <s_m_source_file>
AV-unprocessed.smi

> <i_m_source_file_index>
1218

> <i_lp_mmshare_version>
43012

> <i_f3d_flags>
0

> <s_epik_input>
W0NIM11bQ0hdKFtDSDNdKVtDSDJdTjFbQ0gyXVtDSDJdT1tDQEhdKFtDSDJdMSlbQ0gyXVtOSF1DKD1PKVtDSDJdbjJbY0hdW2NIXVtjSF1uMg==

> <s_epik_cmdline>
J2VwaWtfcHl0aG9uJywgJy1waCcsICc3LjAnLCAnLXRuJywgJzgnLCAnLW1hJywgJzIwMCcsICctbWV0YWxfYmluZGluZycsICctaW1hZScsICc8aW5maWxlLm1hZT4nLCAnLW9tYWUnLCAnPG91dGZpbGUubWFlPic=

> <r_lp_tautomer_probability>
1

> <r_epik_Ionization_Penalty>
1.10621

> <r_epik_Ionization_Penalty_Charging>
0

> <r_epik_Ionization_Penalty_Neutral>
1.10621

> <r_epik_State_Penalty>
1.16377

> <r_epik_Charging_Adjusted_Penalty>
1.16377

> <i_epik_Tot_Q>
0

> <i_epik_Tot_abs_Q>
0

> <r_epik_Metal_State_Penalty>
1.16377

> <b_epik_Metal_Only>
0

> <s_lp_Force_Field>
OPLS_2005

> <r_lp_Energy>
27.1639

> <b_lp_Chiralities_Consistent>
1

> <s_lp_Variant>
AV-unprocessed.smi:1218-5

> <Gold.Version>
5.8.1

> <Gold.Id.Protein>
6NUR|6NUR_protein|mol2

> <Gold.PLP.Fitness>
41.2691

> <Gold.PLP.PLP>
-41.0594

> <Gold.PLP.part.hbond>
-1.1789

> <Gold.PLP.part.metal>
0.0000

> <Gold.PLP.part.buried>
1.0937

> <Gold.PLP.part.nonpolar>
-41.0104

> <Gold.PLP.part.repulsive>
0.2021

> <Gold.PLP.ligand.clash>
0.0000

> <Gold.PLP.ligand.torsion>
1.4642

> <Gold.PLP.Chemscore.Hbond>
1.0000

> <Gold.PLP.Chemscore.CHOScore>
0.0000

> <Gold.PLP.Chemscore.Metal>
0.0000

> <Gold.Chemscore.Hbonds>
donor molecule, donor type, donor heavy atom, donor atom, acceptor molecule, acceptor atom, score
      P1  H  7997  8009       L1    13  0.83

> <Gold.PLP.Chemscore.Internal.Correction>
0.1381

> <Gold.Rescore>
     Score         DG    S(hbond)    S(metal)    S(lipo)     H(rot)  DE(clash)    DE(int)     intcor
     16.49     -20.40       0.99        0.00     140.73       1.90       2.19       1.72       ----

> <Gold.Chemscore.Fitness>
16.4888

> <Gold.Chemscore.DG>
-20.3969

> <Gold.Chemscore.ZeroCoef>
-5.4800

> <Gold.Chemscore.Hbond>
0.9904

> <Gold.Chemscore.Metal>
0.0000

> <Gold.Chemscore.Lipo>
140.7289

> <Gold.Chemscore.Internal_Hbond>
0.0000

> <Gold.Chemscore.DEClash>
2.1901

> <Gold.Chemscore.DEInternal>
1.7180

> <Gold.Chemscore.Rot>
1.8970

> <Gold.Chemscore.Internal.Correction>
   9.000000E+99

> <Gold.Chemscore.Hbonds>
donor molecule, donor type, donor heavy atom, donor atom, acceptor molecule, acceptor atom, score
      P1  H  7997  8009       L1    13  0.79

> <Gold.Chemscore.Hbond.Weighted>
-3.3080

> <Gold.Chemscore.Metal.Weighted>
-0.0000

> <Gold.Chemscore.Lipo.Weighted>
-16.4653

> <Gold.Chemscore.Internal_Hbond.Weighted>
0.0000

> <Gold.Chemscore.DEClash.Weighted>
2.1901

> <Gold.Chemscore.DEInternal.Weighted>
1.7180

> <Gold.Chemscore.Rot.Weighted>
4.8564

> <Gold.Chemscore.Internal.Correction.Weighted>
   9.000000E+99

> <Gold.Protein.RotatedTorsions>
[ 6907 6896 6895 6894 ] final  162.68 input  -60.11 | X-H torsion
[ 7974 7965 7964 7962 ] final   99.24 input  175.53 | X-H torsion
[ 8008 7997 7996 7995 ] final  113.08 input   59.86 | X-H torsion
[ 10167 10162 10161 10158 ] final  -46.31 input  -65.29 | X-H torsion
[ 10718 10713 10712 10709 ] final  -32.63 input   66.30 | X-H torsion
[ 10763 10752 10751 10750 ] final   -3.30 input  -60.55 | X-H torsion
[ 11005 11000 10999 10996 ] final   97.89 input  -57.11 | X-H torsion

> <Gold.Protein.ActiveResidues>
 VAL166  LYS551  ARG553  GLY616  TRP617  ASP618  TYR619  PRO620  LYS621  CYS622 
 ASP623  PHE694  ASN695  SER759  ASP760  ASP761  ALA762  ILE779  LEU786  VAL792 
 PHE793  MET794  SER795  GLU796  ALA797  LYS798  CYS799  TRP800  GLU811  SER814 

> <Gold.Protein.RotatedAtoms>
  151.9368  133.3626  159.3950 H   0  0  0  0  0  0  0  0  0  0  0  0  # atno 6907 bound_to 6896
  150.7006  134.4481  159.5332 H   0  0  0  0  0  0  0  0  0  0  0  0  # atno 6908 bound_to 6896
  152.2131  134.8483  160.0546 H   0  0  0  0  0  0  0  0  0  0  0  0  # atno 6909 bound_to 6896
  145.4014  139.2347  143.3298 H   0  0  0  0  0  0  0  0  0  0  0  0  # atno 7974 bound_to 7965
  156.2235  140.2986  156.0009 H   0  0  0  0  0  0  0  0  0  0  0  0  # atno 8008 bound_to 7997
  155.2419  140.0422  157.2993 H   0  0  0  0  0  0  0  0  0  0  0  0  # atno 8009 bound_to 7997
  154.5878  140.2393  155.7971 H   0  0  0  0  0  0  0  0  0  0  0  0  # atno 8010 bound_to 7997
  140.6822  143.2837  151.3765 H   0  0  0  0  0  0  0  0  0  0  0  0  # atno 10167 bound_to 10162
  156.3725  130.4342  149.7534 H   0  0  0  0  0  0  0  0  0  0  0  0  # atno 10718 bound_to 10713
  153.3696  135.6994  153.6648 H   0  0  0  0  0  0  0  0  0  0  0  0  # atno 10763 bound_to 10752
  153.5304  135.3593  155.2673 H   0  0  0  0  0  0  0  0  0  0  0  0  # atno 10764 bound_to 10752
  154.8679  135.4179  154.2971 H   0  0  0  0  0  0  0  0  0  0  0  0  # atno 10765 bound_to 10752
  139.8774  134.9022  156.4374 H   0  0  0  0  0  0  0  0  0  0  0  0  # atno 11005 bound_to 11000
  146.2750  140.4713  142.8799 LP  0  0  0  0  0  0  0  0  0  0  0  0  # atno 17320 bound_to 7965
  144.8371  140.6799  143.6253 LP  0  0  0  0  0  0  0  0  0  0  0  0  # atno 17321 bound_to 7965
  139.6154  144.1014  152.2340 LP  0  0  0  0  0  0  0  0  0  0  0  0  # atno 17342 bound_to 10162
  140.0442  144.5984  150.7387 LP  0  0  0  0  0  0  0  0  0  0  0  0  # atno 17343 bound_to 10162
  156.4655  130.7972  151.2991 LP  0  0  0  0  0  0  0  0  0  0  0  0  # atno 17370 bound_to 10713
  157.7485  131.0052  150.3105 LP  0  0  0  0  0  0  0  0  0  0  0  0  # atno 17371 bound_to 10713
  140.9024  133.7770  155.9695 LP  0  0  0  0  0  0  0  0  0  0  0  0  # atno 17394 bound_to 11000
  140.8637  134.2810  157.5223 LP  0  0  0  0  0  0  0  0  0  0  0  0  # atno 17395 bound_to 11000

$$$$
