AV-unprocessed.smi:618|AV-procd|sdf|3077|dock8
  -GOLD-   22720 0 03D 1   1.00000     0.00000
 Structure written by MMmdl.
 41 43  0  0  0  0  0  0  0  0  2 V2000
  150.5470  134.6880  155.6813 O   0  0  0  0  0  0  0  0  0  0  0  0
  150.1589  135.1173  154.5957 C   0  0  0  0  0  0  0  0  0  0  0  0
  149.3090  134.4512  153.8014 N   0  0  0  0  0  0  0  0  0  0  0  0
  148.7380  133.1382  154.0920 C   0  0  0  0  0  0  0  0  0  0  0  0
  148.2390  132.4027  152.8313 C   0  0  1  0  0  0  0  0  0  0  0  0
  147.8631  130.9299  153.0809 C   0  0  0  0  0  0  0  0  0  0  0  0
  147.3854  130.2734  151.8377 N   0  3  1  0  0  0  0  0  0  0  0  0
  146.7409  128.9687  152.1065 C   0  0  0  0  0  0  0  0  0  0  0  0
  145.2234  129.2277  152.1514 C   0  0  0  0  0  0  0  0  0  0  0  0
  145.0423  130.7036  151.7780 C   0  0  0  0  0  0  0  0  0  0  0  0
  146.3699  131.0702  151.1149 C   0  0  1  0  0  0  0  0  0  0  0  0
  146.7034  132.5747  151.0509 C   0  0  0  0  0  0  0  0  0  0  0  0
  147.0939  133.0735  152.3217 O   0  0  0  0  0  0  0  0  0  0  0  0
  150.5065  136.2957  154.0503 N   0  0  0  0  0  0  0  0  0  0  0  0
  151.3803  137.2965  154.5579 C   0  0  0  0  0  0  0  0  0  0  0  0
  152.3440  137.0860  155.5747 C   0  0  0  0  0  0  0  0  0  0  0  0
  153.1551  138.1647  155.9765 C   0  0  0  0  0  0  0  0  0  0  0  0
  152.9795  139.4113  155.3455 C   0  0  0  0  0  0  0  0  0  0  0  0
  152.0739  139.6240  154.3681 N   0  0  0  0  0  0  0  0  0  0  0  0
  151.2998  138.5854  153.9882 C   0  0  0  0  0  0  0  0  0  0  0  0
  149.0355  134.8839  152.9313 H   0  0  0  0  0  0  0  0  0  0  0  0
  149.4571  132.5191  154.6310 H   0  0  0  0  0  0  0  0  0  0  0  0
  147.9016  133.2907  154.7742 H   0  0  0  0  0  0  0  0  0  0  0  0
  149.0365  132.4507  152.0874 H   0  0  0  0  0  0  0  0  0  0  0  0
  148.7223  130.3800  153.4663 H   0  0  0  0  0  0  0  0  0  0  0  0
  147.0830  130.8701  153.8414 H   0  0  0  0  0  0  0  0  0  0  0  0
  146.9727  128.2961  151.2800 H   0  0  0  0  0  0  0  0  0  0  0  0
  147.1118  128.4981  153.0184 H   0  0  0  0  0  0  0  0  0  0  0  0
  144.7105  128.5812  151.4383 H   0  0  0  0  0  0  0  0  0  0  0  0
  144.8082  129.0222  153.1386 H   0  0  0  0  0  0  0  0  0  0  0  0
  144.1863  130.8704  151.1235 H   0  0  0  0  0  0  0  0  0  0  0  0
  144.8929  131.2994  152.6797 H   0  0  0  0  0  0  0  0  0  0  0  0
  146.3358  130.6903  150.0921 H   0  0  0  0  0  0  0  0  0  0  0  0
  147.5063  132.7523  150.3338 H   0  0  0  0  0  0  0  0  0  0  0  0
  145.8408  133.1388  150.6956 H   0  0  0  0  0  0  0  0  0  0  0  0
  150.0537  136.5274  153.1784 H   0  0  0  0  0  0  0  0  0  0  0  0
  152.4892  136.1275  156.0467 H   0  0  0  0  0  0  0  0  0  0  0  0
  153.8980  138.0379  156.7499 H   0  0  0  0  0  0  0  0  0  0  0  0
  153.5856  140.2588  155.6297 H   0  0  0  0  0  0  0  0  0  0  0  0
  150.5887  138.7932  153.2019 H   0  0  0  0  0  0  0  0  0  0  0  0
  148.1863  130.1392  151.2368 H   0  0  0  0  0  0  0  0  0  0  0  0
  1  2  2  0  0  0  0
  2  3  1  0  0  0  0
  2 14  1  0  0  0  0
  3  4  1  0  0  0  0
  3 21  1  0  0  0  0
  4  5  1  0  0  0  0
  4 22  1  0  0  0  0
  4 23  1  0  0  0  0
  5 13  1  0  0  0  0
  5  6  1  0  0  0  0
  5 24  1  0  0  0  0
  6  7  1  0  0  0  0
  6 25  1  0  0  0  0
  6 26  1  0  0  0  0
  7 11  1  0  0  0  0
  7  8  1  0  0  0  0
  7 41  1  0  0  0  0
  8  9  1  0  0  0  0
  8 27  1  0  0  0  0
  8 28  1  0  0  0  0
  9 10  1  0  0  0  0
  9 29  1  0  0  0  0
  9 30  1  0  0  0  0
 10 11  1  0  0  0  0
 10 31  1  0  0  0  0
 10 32  1  0  0  0  0
 11 12  1  0  0  0  0
 11 33  1  0  0  0  0
 12 13  1  0  0  0  0
 12 34  1  0  0  0  0
 12 35  1  0  0  0  0
 14 15  1  0  0  0  0
 14 36  1  0  0  0  0
 15 20  1  0  0  0  0
 15 16  2  0  0  0  0
 16 17  1  0  0  0  0
 16 37  1  0  0  0  0
 17 18  2  0  0  0  0
 17 38  1  0  0  0  0
 18 19  1  0  0  0  0
 18 39  1  0  0  0  0
 19 20  2  0  0  0  0
 20 40  1  0  0  0  0
M  CHG  1   7   1
M  END
> <s_m_source_file>
AV-unprocessed.smi

> <i_m_source_file_index>
618

> <i_lp_mmshare_version>
43012

> <i_f3d_flags>
0

> <s_epik_input>
W2NIXTFuW2NIXVtjSF1bY0hdYzFbTkhdQyg9TylbTkhdW0NIMl1bQ0BIXShbQ0gyXTIpT1tDSDJdW0NAQEhdKE4yMylbQ0gyXVtDSDJdW0NIMl0z

> <s_epik_cmdline>
J2VwaWtfcHl0aG9uJywgJy1waCcsICc3LjAnLCAnLXRuJywgJzgnLCAnLW1hJywgJzIwMCcsICctbWV0YWxfYmluZGluZycsICctaW1hZScsICc8aW5maWxlLm1hZT4nLCAnLW9tYWUnLCAnPG91dGZpbGUubWFlPic=

> <r_epik_Ionization_Penalty>
0.111044

> <r_epik_Ionization_Penalty_Charging>
0.10673

> <r_epik_Ionization_Penalty_Neutral>
0.00431361

> <r_epik_State_Penalty>
0.0978747

> <r_epik_Charging_Adjusted_Penalty>
0.204605

> <i_epik_Tot_Q>
1

> <i_epik_Tot_abs_Q>
1

> <r_epik_Metal_State_Penalty>
0.0947591

> <b_epik_Metal_Only>
0

> <s_lp_Force_Field>
OPLS_2005

> <r_lp_Energy>
41.8914

> <b_lp_Chiralities_Consistent>
1

> <s_lp_Variant>
AV-unprocessed.smi:618-4

> <Gold.Version>
5.8.1

> <Gold.Id.Protein>
6NUR|6NUR_protein|mol2

> <Gold.PLP.Fitness>
45.3865

> <Gold.PLP.PLP>
-31.8054

> <Gold.PLP.part.hbond>
-4.0304

> <Gold.PLP.part.metal>
0.0000

> <Gold.PLP.part.buried>
1.9334

> <Gold.PLP.part.nonpolar>
-29.9595

> <Gold.PLP.part.repulsive>
0.3231

> <Gold.PLP.ligand.clash>
0.0000

> <Gold.PLP.ligand.torsion>
0.2673

> <Gold.PLP.Chemscore.Hbond>
3.7050

> <Gold.PLP.Chemscore.CHOScore>
1.0000

> <Gold.PLP.Chemscore.Metal>
0.0000

> <Gold.Chemscore.Hbonds>
donor molecule, donor type, donor heavy atom, donor atom, acceptor molecule, acceptor atom, score
      L1  H     3    21       P1  7948  0.60
      L1  H     7    41       P1 10747  0.59
      L1  H    14    36       P1  7948  0.50
      P1  H  7989  7998       L1    19  0.82
      L1  C    20    40       P1  7957  0.91

> <Gold.PLP.Chemscore.Internal.Correction>
0.0007

> <Gold.Rescore>
     Score         DG    S(hbond)    S(metal)    S(lipo)     H(rot)  DE(clash)    DE(int)     intcor
     20.92     -22.51       2.93        0.00      89.64       1.27       0.39       1.19       ----

> <Gold.Chemscore.Fitness>
20.9211

> <Gold.Chemscore.DG>
-22.5062

> <Gold.Chemscore.ZeroCoef>
-5.4800

> <Gold.Chemscore.Hbond>
2.9276

> <Gold.Chemscore.Metal>
0.0000

> <Gold.Chemscore.Lipo>
89.6403

> <Gold.Chemscore.Internal_Hbond>
0.0000

> <Gold.Chemscore.DEClash>
0.3914

> <Gold.Chemscore.DEInternal>
1.1938

> <Gold.Chemscore.Rot>
1.2656

> <Gold.Chemscore.Internal.Correction>
   9.000000E+99

> <Gold.Chemscore.Hbonds>
donor molecule, donor type, donor heavy atom, donor atom, acceptor molecule, acceptor atom, score
      L1  H     3    21       P1  7948  0.04
      L1  H     7    41       P1 10747  0.55
      L1  H    14    36       P1  7948  0.02
      P1  H  7989  7998       L1    19  0.51

> <Gold.Chemscore.Hbond.Weighted>
-9.7781

> <Gold.Chemscore.Metal.Weighted>
-0.0000

> <Gold.Chemscore.Lipo.Weighted>
-10.4879

> <Gold.Chemscore.Internal_Hbond.Weighted>
0.0000

> <Gold.Chemscore.DEClash.Weighted>
0.3914

> <Gold.Chemscore.DEInternal.Weighted>
1.1938

> <Gold.Chemscore.Rot.Weighted>
3.2399

> <Gold.Chemscore.Internal.Correction.Weighted>
   9.000000E+99

> <Gold.Protein.RotatedTorsions>
[ 6907 6896 6895 6894 ] final -123.35 input  -60.11 | X-H torsion
[ 7974 7965 7964 7962 ] final -151.36 input  175.53 | X-H torsion
[ 8008 7997 7996 7995 ] final  -59.31 input   59.86 | X-H torsion
[ 10167 10162 10161 10158 ] final -155.85 input  -65.29 | X-H torsion
[ 10718 10713 10712 10709 ] final   77.98 input   66.30 | X-H torsion
[ 10763 10752 10751 10750 ] final   18.53 input  -60.55 | X-H torsion
[ 11005 11000 10999 10996 ] final -138.35 input  -57.11 | X-H torsion

> <Gold.Protein.ActiveResidues>
 VAL166  LYS551  ARG553  GLY616  TRP617  ASP618  TYR619  PRO620  LYS621  CYS622 
 ASP623  PHE694  ASN695  SER759  ASP760  ASP761  ALA762  ILE779  LEU786  VAL792 
 PHE793  MET794  SER795  GLU796  ALA797  LYS798  CYS799  TRP800  GLU811  SER814 

> <Gold.Protein.RotatedAtoms>
  150.8662  133.7571  159.2975 H   0  0  0  0  0  0  0  0  0  0  0  0  # atno 6907 bound_to 6896
  151.5198  135.1065  159.9885 H   0  0  0  0  0  0  0  0  0  0  0  0  # atno 6908 bound_to 6896
  152.4662  133.7885  159.6945 H   0  0  0  0  0  0  0  0  0  0  0  0  # atno 6909 bound_to 6896
  144.7854  140.4808  143.5810 H   0  0  0  0  0  0  0  0  0  0  0  0  # atno 7974 bound_to 7965
  154.4347  140.1064  156.6096 H   0  0  0  0  0  0  0  0  0  0  0  0  # atno 8008 bound_to 7997
  155.5824  140.3491  155.4525 H   0  0  0  0  0  0  0  0  0  0  0  0  # atno 8009 bound_to 7997
  156.0308  140.1260  157.0249 H   0  0  0  0  0  0  0  0  0  0  0  0  # atno 8010 bound_to 7997
  139.6897  143.9441  152.2379 H   0  0  0  0  0  0  0  0  0  0  0  0  # atno 10167 bound_to 10162
  157.6729  130.9847  150.1720 H   0  0  0  0  0  0  0  0  0  0  0  0  # atno 10718 bound_to 10713
  153.1241  135.6726  153.9286 H   0  0  0  0  0  0  0  0  0  0  0  0  # atno 10763 bound_to 10752
  153.8792  135.3060  155.3446 H   0  0  0  0  0  0  0  0  0  0  0  0  # atno 10764 bound_to 10752
  154.7649  135.4969  153.9614 H   0  0  0  0  0  0  0  0  0  0  0  0  # atno 10765 bound_to 10752
  140.8624  134.2152  157.4699 H   0  0  0  0  0  0  0  0  0  0  0  0  # atno 11005 bound_to 11000
  145.5936  139.1497  143.3168 LP  0  0  0  0  0  0  0  0  0  0  0  0  # atno 17320 bound_to 7965
  146.2083  140.6060  142.9071 LP  0  0  0  0  0  0  0  0  0  0  0  0  # atno 17321 bound_to 7965
  139.9253  144.6774  150.8418 LP  0  0  0  0  0  0  0  0  0  0  0  0  # atno 17342 bound_to 10162
  140.7679  143.3346  151.2337 LP  0  0  0  0  0  0  0  0  0  0  0  0  # atno 17343 bound_to 10162
  156.2472  130.3697  149.8272 LP  0  0  0  0  0  0  0  0  0  0  0  0  # atno 17370 bound_to 10713
  156.6055  130.8564  151.3442 LP  0  0  0  0  0  0  0  0  0  0  0  0  # atno 17371 bound_to 10713
  139.8707  134.9736  156.4815 LP  0  0  0  0  0  0  0  0  0  0  0  0  # atno 17394 bound_to 11000
  140.8667  133.8019  155.9321 LP  0  0  0  0  0  0  0  0  0  0  0  0  # atno 17395 bound_to 11000

$$$$
