AV-unprocessed.smi:1726|AV-procd|sdf|6962|dock9
  -GOLD-   22720 8173D 1   1.00000     0.00000
 Structure written by MMmdl.
 42 43  0  0  0  0  0  0  0  0  3 V2000
  147.0218  139.4170  152.8258 C   0  0  0  0  0  0  0  0  0  0  0  0
  146.5018  138.7726  151.5324 C   0  0  0  0  0  0  0  0  0  0  0  0
  146.3244  137.3054  151.6668 N   0  3  2  0  0  0  0  0  0  0  0  0
  145.7148  136.6916  150.4585 C   0  0  0  0  0  0  0  0  0  0  0  0
  145.6924  135.1565  150.5656 C   0  0  0  0  0  0  0  0  0  0  0  0
  144.9947  134.6914  151.8554 C   0  0  0  0  0  0  0  0  0  0  0  0
  145.6017  135.3804  153.0908 C   0  0  1  0  0  0  0  0  0  0  0  0
  146.9566  134.8794  153.3253 N   0  0  0  0  0  0  0  0  0  0  0  0
  147.3243  134.0750  154.3333 C   0  0  0  0  0  0  0  0  0  0  0  0
  146.5354  133.6604  155.1816 O   0  0  0  0  0  0  0  0  0  0  0  0
  148.6400  133.8030  154.2717 N   0  0  0  0  0  0  0  0  0  0  0  0
  149.4445  133.0527  155.1470 C   0  0  0  0  0  0  0  0  0  0  0  0
  149.9254  131.8036  154.8919 C   0  0  0  0  0  0  0  0  0  0  0  0
  150.7452  131.0742  155.8518 C   0  0  0  0  0  0  0  0  0  0  0  0
  151.3162  129.6881  155.6131 C   0  0  0  0  0  0  0  0  0  0  0  0
  150.9555  128.8656  156.5977 F   0  0  0  0  0  0  0  0  0  0  0  0
  150.8512  129.1893  154.4682 F   0  0  0  0  0  0  0  0  0  0  0  0
  152.6477  129.7127  155.5514 F   0  0  0  0  0  0  0  0  0  0  0  0
  150.9523  131.7866  157.0158 C   0  0  0  0  0  0  0  0  0  0  0  0
  150.5058  133.0168  157.3506 N   0  5  0  0  0  0  0  0  0  0  0  0
  149.7442  133.6927  156.4450 C   0  0  0  0  0  0  0  0  0  0  0  0
  149.3025  134.8168  156.6863 O   0  0  0  0  0  0  0  0  0  0  0  0
  145.5841  136.9128  152.8951 C   0  0  0  0  0  0  0  0  0  0  0  0
  147.2140  140.4794  152.6743 H   0  0  0  0  0  0  0  0  0  0  0  0
  147.9564  138.9559  153.1469 H   0  0  0  0  0  0  0  0  0  0  0  0
  146.3081  139.3323  153.6446 H   0  0  0  0  0  0  0  0  0  0  0  0
  145.5668  139.2374  151.2163 H   0  0  0  0  0  0  0  0  0  0  0  0
  147.2293  138.9776  150.7460 H   0  0  0  0  0  0  0  0  0  0  0  0
  144.7018  137.0753  150.3263 H   0  0  0  0  0  0  0  0  0  0  0  0
  146.2806  136.9781  149.5711 H   0  0  0  0  0  0  0  0  0  0  0  0
  145.1879  134.7313  149.6976 H   0  0  0  0  0  0  0  0  0  0  0  0
  146.7141  134.7755  150.5413 H   0  0  0  0  0  0  0  0  0  0  0  0
  143.9321  134.9307  151.7949 H   0  0  0  0  0  0  0  0  0  0  0  0
  145.0587  133.6067  151.9508 H   0  0  0  0  0  0  0  0  0  0  0  0
  144.9929  135.1253  153.9600 H   0  0  0  0  0  0  0  0  0  0  0  0
  147.6662  135.1589  152.6635 H   0  0  0  0  0  0  0  0  0  0  0  0
  149.1374  134.1717  153.4740 H   0  0  0  0  0  0  0  0  0  0  0  0
  149.7006  131.3014  153.9666 H   0  0  0  0  0  0  0  0  0  0  0  0
  151.5710  131.2906  157.7940 H   0  0  0  0  0  0  0  0  0  0  0  0
  146.0105  137.4011  153.7702 H   0  0  0  0  0  0  0  0  0  0  0  0
  144.5541  137.2670  152.8249 H   0  0  0  0  0  0  0  0  0  0  0  0
  147.2522  136.9140  151.7455 H   0  0  0  0  0  0  0  0  0  0  0  0
  1  2  1  0  0  0  0
  1 24  1  0  0  0  0
  1 25  1  0  0  0  0
  1 26  1  0  0  0  0
  2  3  1  0  0  0  0
  2 27  1  0  0  0  0
  2 28  1  0  0  0  0
  3 23  1  0  0  0  0
  3  4  1  0  0  0  0
  3 42  1  0  0  0  0
  4  5  1  0  0  0  0
  4 29  1  0  0  0  0
  4 30  1  0  0  0  0
  5  6  1  0  0  0  0
  5 31  1  0  0  0  0
  5 32  1  0  0  0  0
  6  7  1  0  0  0  0
  6 33  1  0  0  0  0
  6 34  1  0  0  0  0
  7  8  1  0  0  0  0
  7 23  1  0  0  0  0
  7 35  1  0  0  0  0
  8  9  1  0  0  0  0
  8 36  1  0  0  0  0
  9 10  2  0  0  0  0
  9 11  1  0  0  0  0
 11 12  1  0  0  0  0
 11 37  1  0  0  0  0
 12 21  1  0  0  0  0
 12 13  2  0  0  0  0
 13 14  1  0  0  0  0
 13 38  1  0  0  0  0
 14 15  1  0  0  0  0
 14 19  2  0  0  0  0
 15 16  1  0  0  0  0
 15 17  1  0  0  0  0
 15 18  1  0  0  0  0
 19 20  1  0  0  0  0
 19 39  1  0  0  0  0
 20 21  1  0  0  0  0
 21 22  2  0  0  0  0
 23 40  1  0  0  0  0
 23 41  1  0  0  0  0
M  CHG  1   3   1
M  CHG  1  20  -1
M  END
> <s_m_source_file>
AV-unprocessed.smi

> <i_m_source_file_index>
1726

> <i_lp_mmshare_version>
43012

> <i_f3d_flags>
0

> <s_epik_input>
W0NIM11bQ0gyXU4xW0NIMl1bQ0gyXVtDSDJdW0NASF0oW0NIMl0xKVtOSF1DKD1PKVtOSF1jMltjSF1jKEMoRikoRilGKVtjSF1bbkhdYzI9Tw==

> <s_epik_cmdline>
J2VwaWtfcHl0aG9uJywgJy1waCcsICc3LjAnLCAnLXRuJywgJzgnLCAnLW1hJywgJzIwMCcsICctbWV0YWxfYmluZGluZycsICctaW1hZScsICc8aW5maWxlLm1hZT4nLCAnLW9tYWUnLCAnPG91dGZpbGUubWFlPic=

> <r_lp_tautomer_probability>
1

> <r_epik_Ionization_Penalty>
3.01007

> <r_epik_Ionization_Penalty_Charging>
0.14897

> <r_epik_Ionization_Penalty_Neutral>
2.8611

> <r_epik_State_Penalty>
2.85632

> <r_epik_Charging_Adjusted_Penalty>
3.00529

> <i_epik_Tot_Q>
0

> <i_epik_Tot_abs_Q>
2

> <r_epik_Metal_State_Penalty>
0.443826

> <b_epik_Metal_Only>
1

> <s_lp_Force_Field>
OPLS_2005

> <r_lp_Energy>
34.8935

> <b_lp_Chiralities_Consistent>
1

> <s_lp_Variant>
AV-unprocessed.smi:1726-6

> <Gold.Version>
5.8.1

> <Gold.Id.Protein>
6NUR|6NUR_protein|mol2

> <Gold.PLP.Fitness>
45.8086

> <Gold.PLP.PLP>
-32.9789

> <Gold.PLP.part.hbond>
-3.0000

> <Gold.PLP.part.metal>
0.0000

> <Gold.PLP.part.buried>
0.2922

> <Gold.PLP.part.nonpolar>
-30.5804

> <Gold.PLP.part.repulsive>
0.0903

> <Gold.PLP.ligand.clash>
0.0000

> <Gold.PLP.ligand.torsion>
0.9296

> <Gold.PLP.Chemscore.Hbond>
4.8880

> <Gold.PLP.Chemscore.CHOScore>
0.0000

> <Gold.PLP.Chemscore.Metal>
0.0000

> <Gold.Chemscore.Hbonds>
donor molecule, donor type, donor heavy atom, donor atom, acceptor molecule, acceptor atom, score
      L1  H     3    42       P1  7948  2.00
      L1  H     8    36       P1  7948  1.00
      P1  H  6896  6909       L1    20  1.87

> <Gold.PLP.Chemscore.Internal.Correction>
0.0249

> <Gold.Rescore>
     Score         DG    S(hbond)    S(metal)    S(lipo)     H(rot)  DE(clash)    DE(int)     intcor
     18.13     -19.14       2.85        0.00      63.49       1.28       0.19       0.82       ----

> <Gold.Chemscore.Fitness>
18.1252

> <Gold.Chemscore.DG>
-19.1356

> <Gold.Chemscore.ZeroCoef>
-5.4800

> <Gold.Chemscore.Hbond>
2.8452

> <Gold.Chemscore.Metal>
0.0000

> <Gold.Chemscore.Lipo>
63.4920

> <Gold.Chemscore.Internal_Hbond>
0.0000

> <Gold.Chemscore.DEClash>
0.1892

> <Gold.Chemscore.DEInternal>
0.8212

> <Gold.Chemscore.Rot>
1.2796

> <Gold.Chemscore.Internal.Correction>
   9.000000E+99

> <Gold.Chemscore.Hbonds>
donor molecule, donor type, donor heavy atom, donor atom, acceptor molecule, acceptor atom, score
      L1  H     3    42       P1  7948  1.00
      L1  H     8    36       P1  7948  0.99
      P1  H  6896  6909       L1    20  0.47

> <Gold.Chemscore.Hbond.Weighted>
-9.5029

> <Gold.Chemscore.Metal.Weighted>
-0.0000

> <Gold.Chemscore.Lipo.Weighted>
-7.4286

> <Gold.Chemscore.Internal_Hbond.Weighted>
0.0000

> <Gold.Chemscore.DEClash.Weighted>
0.1892

> <Gold.Chemscore.DEInternal.Weighted>
0.8212

> <Gold.Chemscore.Rot.Weighted>
3.2759

> <Gold.Chemscore.Internal.Correction.Weighted>
   9.000000E+99

> <Gold.Protein.RotatedTorsions>
[ 6907 6896 6895 6894 ] final  -37.13 input  -60.11 | X-H torsion
[ 7974 7965 7964 7962 ] final  -24.38 input  175.53 | X-H torsion
[ 8008 7997 7996 7995 ] final  147.65 input   59.86 | X-H torsion
[ 10167 10162 10161 10158 ] final -173.24 input  -65.29 | X-H torsion
[ 10718 10713 10712 10709 ] final  -94.70 input   66.30 | X-H torsion
[ 10763 10752 10751 10750 ] final -114.23 input  -60.55 | X-H torsion
[ 11005 11000 10999 10996 ] final -140.97 input  -57.11 | X-H torsion

> <Gold.Protein.ActiveResidues>
 VAL166  LYS551  ARG553  GLY616  TRP617  ASP618  TYR619  PRO620  LYS621  CYS622 
 ASP623  PHE694  ASN695  SER759  ASP760  ASP761  ALA762  ILE779  LEU786  VAL792 
 PHE793  MET794  SER795  GLU796  ALA797  LYS798  CYS799  TRP800  GLU811  SER814 

> <Gold.Protein.RotatedAtoms>
  151.0186  134.9452  159.8046 H   0  0  0  0  0  0  0  0  0  0  0  0  # atno 6907 bound_to 6896
  152.5320  134.2934  159.9061 H   0  0  0  0  0  0  0  0  0  0  0  0  # atno 6908 bound_to 6896
  151.2941  133.4110  159.2669 H   0  0  0  0  0  0  0  0  0  0  0  0  # atno 6909 bound_to 6896
  146.1558  140.4743  142.8592 H   0  0  0  0  0  0  0  0  0  0  0  0  # atno 7974 bound_to 7965
  156.2817  140.2150  156.5572 H   0  0  0  0  0  0  0  0  0  0  0  0  # atno 8008 bound_to 7997
  154.7243  140.0501  157.0690 H   0  0  0  0  0  0  0  0  0  0  0  0  # atno 8009 bound_to 7997
  155.0438  140.3148  155.4718 H   0  0  0  0  0  0  0  0  0  0  0  0  # atno 8010 bound_to 7997
  139.5699  144.1665  152.1369 H   0  0  0  0  0  0  0  0  0  0  0  0  # atno 10167 bound_to 10162
  156.0031  130.5078  150.5966 H   0  0  0  0  0  0  0  0  0  0  0  0  # atno 10718 bound_to 10713
  154.8431  135.4425  154.1473 H   0  0  0  0  0  0  0  0  0  0  0  0  # atno 10763 bound_to 10752
  153.2643  135.6939  153.7552 H   0  0  0  0  0  0  0  0  0  0  0  0  # atno 10764 bound_to 10752
  153.6817  135.3402  155.3155 H   0  0  0  0  0  0  0  0  0  0  0  0  # atno 10765 bound_to 10752
  140.8370  134.2448  157.4829 H   0  0  0  0  0  0  0  0  0  0  0  0  # atno 11005 bound_to 11000
  144.7962  140.6126  143.6509 LP  0  0  0  0  0  0  0  0  0  0  0  0  # atno 17320 bound_to 7965
  145.4711  139.1503  143.3813 LP  0  0  0  0  0  0  0  0  0  0  0  0  # atno 17321 bound_to 7965
  140.1196  144.5385  150.6871 LP  0  0  0  0  0  0  0  0  0  0  0  0  # atno 17342 bound_to 10162
  140.6984  143.2418  151.4935 LP  0  0  0  0  0  0  0  0  0  0  0  0  # atno 17343 bound_to 10162
  157.3822  131.0782  151.1467 LP  0  0  0  0  0  0  0  0  0  0  0  0  # atno 17370 bound_to 10713
  157.2186  130.6470  149.5802 LP  0  0  0  0  0  0  0  0  0  0  0  0  # atno 17371 bound_to 10713
  139.8704  134.9616  156.4401 LP  0  0  0  0  0  0  0  0  0  0  0  0  # atno 17394 bound_to 11000
  140.8936  133.7830  155.9600 LP  0  0  0  0  0  0  0  0  0  0  0  0  # atno 17395 bound_to 11000

$$$$
