AV-unprocessed.smi:1554|AV-procd|sdf|6250|dock2
  -GOLD-   22720 6433D 1   1.00000     0.00000
 Structure written by MMmdl.
 48 50  0  0  0  0  0  0  0  0  2 V2000
  152.4006  143.2918  160.6875 C   0  0  0  0  0  0  0  0  0  0  0  0
  152.0330  142.4744  159.4613 C   0  0  0  0  0  0  0  0  0  0  0  0
  152.7826  141.3155  159.1588 C   0  0  0  0  0  0  0  0  0  0  0  0
  152.4752  140.5287  158.0274 C   0  0  0  0  0  0  0  0  0  0  0  0
  153.0686  139.3738  157.5481 N   0  0  0  0  0  0  0  0  0  0  0  0
  152.3355  139.1235  156.4676 C   0  0  0  0  0  0  0  0  0  0  0  0
  151.3430  139.9888  156.1816 N   0  0  0  0  0  0  0  0  0  0  0  0
  150.4257  139.9275  155.0572 C   0  0  0  0  0  0  0  0  0  0  0  0
  150.4655  138.5681  154.3299 C   0  0  2  0  0  0  0  0  0  0  0  0
  149.4734  138.5916  153.3232 O   0  0  0  0  0  0  0  0  0  0  0  0
  150.2126  137.3620  155.2636 C   0  0  0  0  0  0  0  0  0  0  0  0
  149.3901  136.3038  154.6248 N   0  3  2  0  0  0  0  0  0  0  0  0
  147.9669  136.3710  155.0330 C   0  0  0  0  0  0  0  0  0  0  0  0
  147.1474  135.2898  154.3092 C   0  0  0  0  0  0  0  0  0  0  0  0
  147.7068  134.0088  154.5723 O   0  0  0  0  0  0  0  0  0  0  0  0
  149.0467  133.8979  154.1046 C   0  0  2  0  0  0  0  0  0  0  0  0
  149.5245  132.4622  154.3493 C   0  0  0  0  0  0  0  0  0  0  0  0
  149.9211  134.9337  154.8365 C   0  0  0  0  0  0  0  0  0  0  0  0
  151.3886  140.9364  157.1993 C   0  0  0  0  0  0  0  0  0  0  0  0
  150.6323  142.0851  157.4928 C   0  0  0  0  0  0  0  0  0  0  0  0
  150.9551  142.8615  158.6252 C   0  0  0  0  0  0  0  0  0  0  0  0
  150.1364  144.1039  158.9286 C   0  0  0  0  0  0  0  0  0  0  0  0
  153.1845  142.8061  161.2695 H   0  0  0  0  0  0  0  0  0  0  0  0
  151.5356  143.4201  161.3385 H   0  0  0  0  0  0  0  0  0  0  0  0
  152.7623  144.2769  160.3926 H   0  0  0  0  0  0  0  0  0  0  0  0
  153.6034  141.0200  159.7959 H   0  0  0  0  0  0  0  0  0  0  0  0
  152.5390  138.2665  155.8420 H   0  0  0  0  0  0  0  0  0  0  0  0
  149.4174  140.1319  155.4211 H   0  0  0  0  0  0  0  0  0  0  0  0
  150.6797  140.7344  154.3684 H   0  0  0  0  0  0  0  0  0  0  0  0
  151.4315  138.4741  153.8371 H   0  0  0  0  0  0  0  0  0  0  0  0
  149.4178  137.7363  152.9259 H   0  0  0  0  0  0  0  0  0  0  0  0
  151.1496  136.9103  155.5911 H   0  0  0  0  0  0  0  0  0  0  0  0
  149.7216  137.7218  156.1694 H   0  0  0  0  0  0  0  0  0  0  0  0
  147.8897  136.2389  156.1137 H   0  0  0  0  0  0  0  0  0  0  0  0
  147.5599  137.3557  154.7997 H   0  0  0  0  0  0  0  0  0  0  0  0
  146.1152  135.3028  154.6599 H   0  0  0  0  0  0  0  0  0  0  0  0
  147.1204  135.4749  153.2342 H   0  0  0  0  0  0  0  0  0  0  0  0
  149.0693  134.0917  153.0305 H   0  0  0  0  0  0  0  0  0  0  0  0
  150.5476  132.3236  153.9981 H   0  0  0  0  0  0  0  0  0  0  0  0
  148.8935  131.7466  153.8219 H   0  0  0  0  0  0  0  0  0  0  0  0
  149.4979  132.2114  155.4102 H   0  0  0  0  0  0  0  0  0  0  0  0
  150.9462  134.8600  154.4753 H   0  0  0  0  0  0  0  0  0  0  0  0
  149.9459  134.7139  155.9053 H   0  0  0  0  0  0  0  0  0  0  0  0
  149.8099  142.3675  156.8528 H   0  0  0  0  0  0  0  0  0  0  0  0
  149.3890  144.2866  158.1561 H   0  0  0  0  0  0  0  0  0  0  0  0
  150.7796  144.9824  158.9850 H   0  0  0  0  0  0  0  0  0  0  0  0
  149.6149  143.9937  159.8797 H   0  0  0  0  0  0  0  0  0  0  0  0
  149.4071  136.4823  153.6308 H   0  0  0  0  0  0  0  0  0  0  0  0
  1  2  1  0  0  0  0
  1 23  1  0  0  0  0
  1 24  1  0  0  0  0
  1 25  1  0  0  0  0
  2 21  1  0  0  0  0
  2  3  2  0  0  0  0
  3  4  1  0  0  0  0
  3 26  1  0  0  0  0
  4 19  2  0  0  0  0
  4  5  1  0  0  0  0
  5  6  2  0  0  0  0
  6  7  1  0  0  0  0
  6 27  1  0  0  0  0
  7  8  1  0  0  0  0
  7 19  1  0  0  0  0
  8  9  1  0  0  0  0
  8 28  1  0  0  0  0
  8 29  1  0  0  0  0
  9 10  1  0  0  0  0
  9 11  1  0  0  0  0
  9 30  1  0  0  0  0
 10 31  1  0  0  0  0
 11 12  1  0  0  0  0
 11 32  1  0  0  0  0
 11 33  1  0  0  0  0
 12 18  1  0  0  0  0
 12 13  1  0  0  0  0
 12 48  1  0  0  0  0
 13 14  1  0  0  0  0
 13 34  1  0  0  0  0
 13 35  1  0  0  0  0
 14 15  1  0  0  0  0
 14 36  1  0  0  0  0
 14 37  1  0  0  0  0
 15 16  1  0  0  0  0
 16 17  1  0  0  0  0
 16 18  1  0  0  0  0
 16 38  1  0  0  0  0
 17 39  1  0  0  0  0
 17 40  1  0  0  0  0
 17 41  1  0  0  0  0
 18 42  1  0  0  0  0
 18 43  1  0  0  0  0
 19 20  1  0  0  0  0
 20 21  2  0  0  0  0
 20 44  1  0  0  0  0
 21 22  1  0  0  0  0
 22 45  1  0  0  0  0
 22 46  1  0  0  0  0
 22 47  1  0  0  0  0
M  CHG  1  12   1
M  END
> <s_m_source_file>
AV-unprocessed.smi

> <i_m_source_file_index>
1554

> <i_lp_mmshare_version>
43012

> <i_f3d_flags>
0

> <s_epik_input>
W0NIM11jKFtjSF0xKWMoW0NIM10pW2NIXWMoYzEyKW4oW2NIXW4yKVtDSDJdW0NASF0oW09IXSlbQ0gyXU4zW0NIMl1bQ0gyXU9bQ0BASF0oW0NIM10pW0NIMl0z

> <s_epik_cmdline>
J2VwaWtfcHl0aG9uJywgJy1waCcsICc3LjAnLCAnLXRuJywgJzgnLCAnLW1hJywgJzIwMCcsICctbWV0YWxfYmluZGluZycsICctaW1hZScsICc8aW5maWxlLm1hZT4nLCAnLW9tYWUnLCAnPG91dGZpbGUubWFlPic=

> <r_epik_Ionization_Penalty>
0.695251

> <r_epik_Ionization_Penalty_Charging>
0.608065

> <r_epik_Ionization_Penalty_Neutral>
0.0871863

> <r_epik_State_Penalty>
0.731955

> <r_epik_Charging_Adjusted_Penalty>
1.34002

> <i_epik_Tot_Q>
1

> <i_epik_Tot_abs_Q>
1

> <r_epik_Metal_State_Penalty>
0.652186

> <b_epik_Metal_Only>
0

> <s_lp_Force_Field>
OPLS_2005

> <r_lp_Energy>
21.764

> <b_lp_Chiralities_Consistent>
1

> <s_lp_Variant>
AV-unprocessed.smi:1554-11

> <Gold.Version>
5.8.1

> <Gold.Id.Protein>
6NUR|6NUR_protein|mol2

> <Gold.PLP.Fitness>
51.3086

> <Gold.PLP.PLP>
-41.8218

> <Gold.PLP.part.hbond>
-4.0000

> <Gold.PLP.part.metal>
0.0000

> <Gold.PLP.part.buried>
-2.3457

> <Gold.PLP.part.nonpolar>
-34.3465

> <Gold.PLP.part.repulsive>
0.0868

> <Gold.PLP.ligand.clash>
0.0000

> <Gold.PLP.ligand.torsion>
1.3006

> <Gold.PLP.Chemscore.Hbond>
4.0000

> <Gold.PLP.Chemscore.CHOScore>
0.0000

> <Gold.PLP.Chemscore.Metal>
0.0000

> <Gold.Chemscore.Hbonds>
donor molecule, donor type, donor heavy atom, donor atom, acceptor molecule, acceptor atom, score
      L1  H    10    31       P1  7948  1.00
      L1  H    12    48       P1  7948  2.00
      P1  H  7997  8008       L1     5  0.95

> <Gold.PLP.Chemscore.Internal.Correction>
0.0880

> <Gold.Rescore>
     Score         DG    S(hbond)    S(metal)    S(lipo)     H(rot)  DE(clash)    DE(int)     intcor
     18.26     -20.95       2.37        0.00     109.47       2.05       0.32       2.38       ----

> <Gold.Chemscore.Fitness>
18.2575

> <Gold.Chemscore.DG>
-20.9541

> <Gold.Chemscore.ZeroCoef>
-5.4800

> <Gold.Chemscore.Hbond>
2.3731

> <Gold.Chemscore.Metal>
0.0000

> <Gold.Chemscore.Lipo>
109.4680

> <Gold.Chemscore.Internal_Hbond>
0.0000

> <Gold.Chemscore.DEClash>
0.3187

> <Gold.Chemscore.DEInternal>
2.3779

> <Gold.Chemscore.Rot>
2.0546

> <Gold.Chemscore.Internal.Correction>
   9.000000E+99

> <Gold.Chemscore.Hbonds>
donor molecule, donor type, donor heavy atom, donor atom, acceptor molecule, acceptor atom, score
      L1  H    10    31       P1  7948  0.91
      L1  H    12    48       P1  7948  0.84
      P1  H  7997  8008       L1     5  0.12

> <Gold.Chemscore.Hbond.Weighted>
-7.9260

> <Gold.Chemscore.Metal.Weighted>
-0.0000

> <Gold.Chemscore.Lipo.Weighted>
-12.8078

> <Gold.Chemscore.Internal_Hbond.Weighted>
0.0000

> <Gold.Chemscore.DEClash.Weighted>
0.3187

> <Gold.Chemscore.DEInternal.Weighted>
2.3779

> <Gold.Chemscore.Rot.Weighted>
5.2597

> <Gold.Chemscore.Internal.Correction.Weighted>
   9.000000E+99

> <Gold.Protein.RotatedTorsions>
[ 6907 6896 6895 6894 ] final  121.45 input  -60.11 | X-H torsion
[ 7974 7965 7964 7962 ] final  -29.06 input  175.53 | X-H torsion
[ 8008 7997 7996 7995 ] final  -82.71 input   59.86 | X-H torsion
[ 10167 10162 10161 10158 ] final  -36.31 input  -65.29 | X-H torsion
[ 10718 10713 10712 10709 ] final -104.52 input   66.30 | X-H torsion
[ 10763 10752 10751 10750 ] final   -0.64 input  -60.55 | X-H torsion
[ 11005 11000 10999 10996 ] final -161.80 input  -57.11 | X-H torsion

> <Gold.Protein.ActiveResidues>
 VAL166  LYS551  ARG553  GLY616  TRP617  ASP618  TYR619  PRO620  LYS621  CYS622 
 ASP623  PHE694  ASN695  SER759  ASP760  ASP761  ALA762  ILE779  LEU786  VAL792 
 PHE793  MET794  SER795  GLU796  ALA797  LYS798  CYS799  TRP800  GLU811  SER814 

> <Gold.Protein.RotatedAtoms>
  152.4320  133.7295  159.6578 H   0  0  0  0  0  0  0  0  0  0  0  0  # atno 6907 bound_to 6896
  150.8200  133.8258  159.3149 H   0  0  0  0  0  0  0  0  0  0  0  0  # atno 6908 bound_to 6896
  151.5943  135.1053  160.0097 H   0  0  0  0  0  0  0  0  0  0  0  0  # atno 6909 bound_to 6896
  146.1244  140.5363  142.8721 H   0  0  0  0  0  0  0  0  0  0  0  0  # atno 7974 bound_to 7965
  154.6114  140.0629  156.9499 H   0  0  0  0  0  0  0  0  0  0  0  0  # atno 8008 bound_to 7997
  155.1966  140.3311  155.4331 H   0  0  0  0  0  0  0  0  0  0  0  0  # atno 8009 bound_to 7997
  156.2379  140.1872  156.7052 H   0  0  0  0  0  0  0  0  0  0  0  0  # atno 8010 bound_to 7997
  140.7145  143.3418  151.2342 H   0  0  0  0  0  0  0  0  0  0  0  0  # atno 10167 bound_to 10162
  156.0308  130.5519  150.7408 H   0  0  0  0  0  0  0  0  0  0  0  0  # atno 10718 bound_to 10713
  153.3346  135.6977  153.6919 H   0  0  0  0  0  0  0  0  0  0  0  0  # atno 10763 bound_to 10752
  153.5708  135.3516  155.2837 H   0  0  0  0  0  0  0  0  0  0  0  0  # atno 10764 bound_to 10752
  154.8625  135.4271  154.2543 H   0  0  0  0  0  0  0  0  0  0  0  0  # atno 10765 bound_to 10752
  140.6163  134.4797  157.5220 H   0  0  0  0  0  0  0  0  0  0  0  0  # atno 11005 bound_to 11000
  144.7628  140.5460  143.6724 LP  0  0  0  0  0  0  0  0  0  0  0  0  # atno 17320 bound_to 7965
  145.5398  139.1475  143.3453 LP  0  0  0  0  0  0  0  0  0  0  0  0  # atno 17321 bound_to 7965
  139.6927  143.9665  152.2867 LP  0  0  0  0  0  0  0  0  0  0  0  0  # atno 17342 bound_to 10162
  139.9332  144.6728  150.8342 LP  0  0  0  0  0  0  0  0  0  0  0  0  # atno 17343 bound_to 10162
  157.4977  131.0916  151.0352 LP  0  0  0  0  0  0  0  0  0  0  0  0  # atno 17370 bound_to 10713
  157.0741  130.5876  149.5408 LP  0  0  0  0  0  0  0  0  0  0  0  0  # atno 17371 bound_to 10713
  139.9171  134.8223  156.1330 LP  0  0  0  0  0  0  0  0  0  0  0  0  # atno 17394 bound_to 11000
  141.0773  133.6770  156.2263 LP  0  0  0  0  0  0  0  0  0  0  0  0  # atno 17395 bound_to 11000

$$$$
