AV-unprocessed.smi:693|AV-procd|sdf|3372|dock10
  -GOLD-   22720 0353D 1   1.00000     0.00000
 Structure written by MMmdl.
 46 47  0  0  0  0  0  0  0  0  1 V2000
  152.0489  145.6235  159.9677 C   0  0  0  0  0  0  0  0  0  0  0  0
  152.0072  144.1887  159.4847 C   0  0  0  0  0  0  0  0  0  0  0  0
  152.6322  143.1595  160.2202 C   0  0  0  0  0  0  0  0  0  0  0  0
  152.5653  141.8440  159.7222 C   0  0  0  0  0  0  0  0  0  0  0  0
  151.8802  141.6088  158.5125 C   0  0  0  0  0  0  0  0  0  0  0  0
  151.7779  140.2112  157.9347 C   0  0  0  0  0  0  0  0  0  0  0  0
  152.3675  140.1261  156.5178 C   0  0  0  0  0  0  0  0  0  0  0  0
  151.3448  140.3355  155.5002 N   0  0  0  0  0  0  0  0  0  0  0  0
  150.3884  139.4541  155.1623 C   0  0  0  0  0  0  0  0  0  0  0  0
  150.3096  138.3421  155.6866 O   0  0  0  0  0  0  0  0  0  0  0  0
  149.5432  139.8794  154.1888 N   0  0  0  0  0  0  0  0  0  0  0  0
  149.3719  141.2683  153.7330 C   0  0  0  0  0  0  0  0  0  0  0  0
  148.0600  141.8112  154.3217 C   0  0  0  0  0  0  0  0  0  0  0  0
  146.8668  140.9234  153.9197 C   0  0  0  0  0  0  0  0  0  0  0  0
  147.1248  139.4208  154.2019 C   0  0  1  0  0  0  0  0  0  0  0  0
  146.0128  138.4955  153.6566 C   0  0  0  0  0  0  0  0  0  0  0  0
  146.1789  138.1284  152.1781 C   0  0  0  0  0  0  0  0  0  0  0  0
  146.0981  139.1243  151.2924 N   0  0  0  0  0  0  0  0  0  0  0  0
  146.3540  136.9612  151.8356 O   0  0  0  0  0  0  0  0  0  0  0  0
  148.5007  139.0093  153.6299 C   0  0  0  0  0  0  0  0  0  0  0  0
  151.2896  142.7082  157.8544 C   0  0  0  0  0  0  0  0  0  0  0  0
  151.3480  143.9728  158.3250 N   0  0  0  0  0  0  0  0  0  0  0  0
  152.4431  145.6875  160.9824 H   0  0  0  0  0  0  0  0  0  0  0  0
  151.0488  146.0581  159.9648 H   0  0  0  0  0  0  0  0  0  0  0  0
  152.6859  146.2217  159.3158 H   0  0  0  0  0  0  0  0  0  0  0  0
  153.1515  143.3697  161.1436 H   0  0  0  0  0  0  0  0  0  0  0  0
  153.0315  141.0322  160.2609 H   0  0  0  0  0  0  0  0  0  0  0  0
  152.2917  139.5181  158.6021 H   0  0  0  0  0  0  0  0  0  0  0  0
  150.7304  139.9068  157.9232 H   0  0  0  0  0  0  0  0  0  0  0  0
  153.1305  140.8939  156.3872 H   0  0  0  0  0  0  0  0  0  0  0  0
  152.8620  139.1657  156.3622 H   0  0  0  0  0  0  0  0  0  0  0  0
  151.3558  141.2236  155.0202 H   0  0  0  0  0  0  0  0  0  0  0  0
  150.1983  141.9281  153.9961 H   0  0  0  0  0  0  0  0  0  0  0  0
  149.3260  141.2867  152.6432 H   0  0  0  0  0  0  0  0  0  0  0  0
  148.1375  141.8499  155.4093 H   0  0  0  0  0  0  0  0  0  0  0  0
  147.8922  142.8348  153.9859 H   0  0  0  0  0  0  0  0  0  0  0  0
  145.9772  141.2697  154.4450 H   0  0  0  0  0  0  0  0  0  0  0  0
  146.6687  141.0599  152.8557 H   0  0  0  0  0  0  0  0  0  0  0  0
  147.1702  139.2876  155.2845 H   0  0  0  0  0  0  0  0  0  0  0  0
  145.9749  137.5754  154.2412 H   0  0  0  0  0  0  0  0  0  0  0  0
  145.0407  138.9732  153.7889 H   0  0  0  0  0  0  0  0  0  0  0  0
  146.1991  138.9330  150.3062 H   0  0  0  0  0  0  0  0  0  0  0  0
  145.9340  140.0673  151.6137 H   0  0  0  0  0  0  0  0  0  0  0  0
  148.4992  139.1002  152.5426 H   0  0  0  0  0  0  0  0  0  0  0  0
  148.6949  137.9550  153.8324 H   0  0  0  0  0  0  0  0  0  0  0  0
  150.7545  142.5697  156.9263 H   0  0  0  0  0  0  0  0  0  0  0  0
  1  2  1  0  0  0  0
  1 23  1  0  0  0  0
  1 24  1  0  0  0  0
  1 25  1  0  0  0  0
  2 22  1  0  0  0  0
  2  3  2  0  0  0  0
  3  4  1  0  0  0  0
  3 26  1  0  0  0  0
  4  5  2  0  0  0  0
  4 27  1  0  0  0  0
  5  6  1  0  0  0  0
  5 21  1  0  0  0  0
  6  7  1  0  0  0  0
  6 28  1  0  0  0  0
  6 29  1  0  0  0  0
  7  8  1  0  0  0  0
  7 30  1  0  0  0  0
  7 31  1  0  0  0  0
  8  9  1  0  0  0  0
  8 32  1  0  0  0  0
  9 10  2  0  0  0  0
  9 11  1  0  0  0  0
 11 20  1  0  0  0  0
 11 12  1  0  0  0  0
 12 13  1  0  0  0  0
 12 33  1  0  0  0  0
 12 34  1  0  0  0  0
 13 14  1  0  0  0  0
 13 35  1  0  0  0  0
 13 36  1  0  0  0  0
 14 15  1  0  0  0  0
 14 37  1  0  0  0  0
 14 38  1  0  0  0  0
 15 16  1  0  0  0  0
 15 20  1  0  0  0  0
 15 39  1  0  0  0  0
 16 17  1  0  0  0  0
 16 40  1  0  0  0  0
 16 41  1  0  0  0  0
 17 18  1  0  0  0  0
 17 19  2  0  0  0  0
 18 42  1  0  0  0  0
 18 43  1  0  0  0  0
 20 44  1  0  0  0  0
 20 45  1  0  0  0  0
 21 22  2  0  0  0  0
 21 46  1  0  0  0  0
M  END
> <s_m_source_file>
AV-unprocessed.smi

> <i_m_source_file_index>
693

> <i_lp_mmshare_version>
43012

> <i_f3d_flags>
0

> <s_epik_input>
W0NIM11jMVtjSF1bY0hdYyhbY0hdbjEpW0NIMl1bQ0gyXVtOSF1DKD1PKU4yW0NIMl1bQ0gyXVtDSDJdW0NASF0oW0NIMl0yKVtDSDJdQyg9TylbTkgyXQ==

> <s_epik_cmdline>
J2VwaWtfcHl0aG9uJywgJy1waCcsICc3LjAnLCAnLXRuJywgJzgnLCAnLW1hJywgJzIwMCcsICctbWV0YWxfYmluZGluZycsICctaW1hZScsICc8aW5maWxlLm1hZT4nLCAnLW9tYWUnLCAnPG91dGZpbGUubWFlPic=

> <r_epik_Ionization_Penalty>
0.056948

> <r_epik_Ionization_Penalty_Charging>
0

> <r_epik_Ionization_Penalty_Neutral>
0.056948

> <r_epik_State_Penalty>
0.0490937

> <r_epik_Charging_Adjusted_Penalty>
0.0490937

> <i_epik_Tot_Q>
0

> <i_epik_Tot_abs_Q>
0

> <r_epik_Metal_State_Penalty>
0.0447689

> <b_epik_Metal_Only>
0

> <s_lp_Force_Field>
OPLS_2005

> <r_lp_Energy>
25.6146

> <b_lp_Chiralities_Consistent>
1

> <s_lp_Variant>
AV-unprocessed.smi:693-1

> <Gold.Version>
5.8.1

> <Gold.Id.Protein>
6NUR|6NUR_protein|mol2

> <Gold.PLP.Fitness>
41.4300

> <Gold.PLP.PLP>
-39.1482

> <Gold.PLP.part.hbond>
-1.9249

> <Gold.PLP.part.metal>
0.0000

> <Gold.PLP.part.buried>
-5.3617

> <Gold.PLP.part.nonpolar>
-33.1292

> <Gold.PLP.part.repulsive>
0.5338

> <Gold.PLP.ligand.clash>
0.0000

> <Gold.PLP.ligand.torsion>
0.5924

> <Gold.PLP.Chemscore.Hbond>
1.1360

> <Gold.PLP.Chemscore.CHOScore>
0.0000

> <Gold.PLP.Chemscore.Metal>
0.0000

> <Gold.PLP.Chemscore.Internal.Correction>
0.0586

> <Gold.Rescore>
     Score         DG    S(hbond)    S(metal)    S(lipo)     H(rot)  DE(clash)    DE(int)     intcor
     15.81     -16.55       1.63        0.00      97.29       2.25       0.03       0.71       ----

> <Gold.Chemscore.Fitness>
15.8064

> <Gold.Chemscore.DG>
-16.5485

> <Gold.Chemscore.ZeroCoef>
-5.4800

> <Gold.Chemscore.Hbond>
1.6314

> <Gold.Chemscore.Metal>
0.0000

> <Gold.Chemscore.Lipo>
97.2885

> <Gold.Chemscore.Internal_Hbond>
0.0000

> <Gold.Chemscore.DEClash>
0.0310

> <Gold.Chemscore.DEInternal>
0.7112

> <Gold.Chemscore.Rot>
2.2512

> <Gold.Chemscore.Internal.Correction>
   9.000000E+99

> <Gold.Chemscore.Hbonds>
donor molecule, donor type, donor heavy atom, donor atom, acceptor molecule, acceptor atom, score
      L1  H    18    42       P1 10171  0.01
      L1  H    18    43       P1 10175  0.01

> <Gold.Chemscore.Hbond.Weighted>
-5.4489

> <Gold.Chemscore.Metal.Weighted>
-0.0000

> <Gold.Chemscore.Lipo.Weighted>
-11.3827

> <Gold.Chemscore.Internal_Hbond.Weighted>
0.0000

> <Gold.Chemscore.DEClash.Weighted>
0.0310

> <Gold.Chemscore.DEInternal.Weighted>
0.7112

> <Gold.Chemscore.Rot.Weighted>
5.7631

> <Gold.Chemscore.Internal.Correction.Weighted>
   9.000000E+99

> <Gold.Protein.RotatedTorsions>
[ 6907 6896 6895 6894 ] final  112.20 input  -60.11 | X-H torsion
[ 7974 7965 7964 7962 ] final   36.32 input  175.53 | X-H torsion
[ 8008 7997 7996 7995 ] final  -67.17 input   59.86 | X-H torsion
[ 10167 10162 10161 10158 ] final  -64.78 input  -65.29 | X-H torsion
[ 10718 10713 10712 10709 ] final  172.00 input   66.30 | X-H torsion
[ 10763 10752 10751 10750 ] final -157.39 input  -60.55 | X-H torsion
[ 11005 11000 10999 10996 ] final -117.23 input  -57.11 | X-H torsion

> <Gold.Protein.ActiveResidues>
 VAL166  LYS551  ARG553  GLY616  TRP617  ASP618  TYR619  PRO620  LYS621  CYS622 
 ASP623  PHE694  ASN695  SER759  ASP760  ASP761  ALA762  ILE779  LEU786  VAL792 
 PHE793  MET794  SER795  GLU796  ALA797  LYS798  CYS799  TRP800  GLU811  SER814 

> <Gold.Protein.RotatedAtoms>
  152.4929  133.8550  159.7220 H   0  0  0  0  0  0  0  0  0  0  0  0  # atno 6907 bound_to 6896
  150.9077  133.7028  159.2869 H   0  0  0  0  0  0  0  0  0  0  0  0  # atno 6908 bound_to 6896
  151.4448  135.1028  159.9733 H   0  0  0  0  0  0  0  0  0  0  0  0  # atno 6909 bound_to 6896
  146.1219  139.6032  142.9284 H   0  0  0  0  0  0  0  0  0  0  0  0  # atno 7974 bound_to 7965
  154.4782  140.0898  156.7314 H   0  0  0  0  0  0  0  0  0  0  0  0  # atno 8008 bound_to 7997
  155.4540  140.3458  155.4286 H   0  0  0  0  0  0  0  0  0  0  0  0  # atno 8009 bound_to 7997
  156.1150  140.1458  156.9273 H   0  0  0  0  0  0  0  0  0  0  0  0  # atno 8010 bound_to 7997
  140.5776  143.2323  151.6409 H   0  0  0  0  0  0  0  0  0  0  0  0  # atno 10167 bound_to 10162
  156.9854  131.0131  151.2871 H   0  0  0  0  0  0  0  0  0  0  0  0  # atno 10718 bound_to 10713
  154.7640  135.3125  154.8323 H   0  0  0  0  0  0  0  0  0  0  0  0  # atno 10763 bound_to 10752
  153.9077  135.6809  153.4756 H   0  0  0  0  0  0  0  0  0  0  0  0  # atno 10764 bound_to 10752
  153.1243  135.4808  154.9179 H   0  0  0  0  0  0  0  0  0  0  0  0  # atno 10765 bound_to 10752
  141.0368  133.9897  157.3057 H   0  0  0  0  0  0  0  0  0  0  0  0  # atno 11005 bound_to 11000
  145.5447  141.0418  143.2311 LP  0  0  0  0  0  0  0  0  0  0  0  0  # atno 17320 bound_to 7965
  144.7605  139.6967  143.7236 LP  0  0  0  0  0  0  0  0  0  0  0  0  # atno 17321 bound_to 7965
  139.5151  144.3388  152.0760 LP  0  0  0  0  0  0  0  0  0  0  0  0  # atno 17342 bound_to 10162
  140.2533  144.4145  150.6213 LP  0  0  0  0  0  0  0  0  0  0  0  0  # atno 17343 bound_to 10162
  157.5497  130.8174  149.8129 LP  0  0  0  0  0  0  0  0  0  0  0  0  # atno 17370 bound_to 10713
  156.0228  130.3789  150.1911 LP  0  0  0  0  0  0  0  0  0  0  0  0  # atno 17371 bound_to 10713
  139.9247  135.0201  156.8190 LP  0  0  0  0  0  0  0  0  0  0  0  0  # atno 17394 bound_to 11000
  140.6307  133.9909  155.7660 LP  0  0  0  0  0  0  0  0  0  0  0  0  # atno 17395 bound_to 11000

$$$$
