AV-unprocessed.smi:711|AV-procd|sdf|3465|dock5
  -GOLD-   22720 0453D 1   1.00000     0.00000
 Structure written by MMmdl.
 29 30  0  0  0  0  0  0  0  0  1 V2000
  147.4207  139.4741  152.7923 O   0  0  0  0  0  0  0  0  0  0  0  0
  148.4390  139.6967  153.4440 C   0  0  0  0  0  0  0  0  0  0  0  0
  149.4349  138.7196  153.5345 N   0  0  0  0  0  0  0  0  0  0  0  0
  150.6346  138.8435  154.2361 C   0  0  0  0  0  0  0  0  0  0  0  0
  151.4341  137.9077  154.2489 O   0  0  0  0  0  0  0  0  0  0  0  0
  150.8570  140.0701  154.9038 N   0  0  0  0  0  0  0  0  0  0  0  0
  152.0839  140.2334  155.6465 C   0  0  0  0  0  0  0  0  0  0  0  0
  151.8872  140.1666  157.1764 C   0  0  1  0  0  0  0  0  0  0  0  0
  152.8835  139.3358  157.7405 O   0  0  0  0  0  0  0  0  0  0  0  0
  151.9212  141.5650  157.7814 C   0  0  0  0  0  0  0  0  0  0  0  0
  151.4425  142.6739  157.0472 C   0  0  0  0  0  0  0  0  0  0  0  0
  151.4574  143.9634  157.6131 C   0  0  0  0  0  0  0  0  0  0  0  0
  151.9467  144.1535  158.9190 C   0  0  0  0  0  0  0  0  0  0  0  0
  151.9595  145.3927  159.4644 F   0  0  0  0  0  0  0  0  0  0  0  0
  152.4194  143.0530  159.6587 C   0  0  0  0  0  0  0  0  0  0  0  0
  152.4046  141.7620  159.0951 C   0  0  0  0  0  0  0  0  0  0  0  0
  152.8519  140.7132  159.8270 F   0  0  0  0  0  0  0  0  0  0  0  0
  149.8916  141.0640  154.8497 C   0  0  0  0  0  0  0  0  0  0  0  0
  148.7279  140.9337  154.1682 C   0  0  0  0  0  0  0  0  0  0  0  0
  147.5751  142.2199  154.1473 Cl  0  0  0  0  0  0  0  0  0  0  0  0
  149.2717  137.8482  153.0514 H   0  0  0  0  0  0  0  0  0  0  0  0
  152.8380  139.5402  155.2677 H   0  0  0  0  0  0  0  0  0  0  0  0
  152.4354  141.2266  155.3602 H   0  0  0  0  0  0  0  0  0  0  0  0
  150.9227  139.7107  157.4035 H   0  0  0  0  0  0  0  0  0  0  0  0
  152.7435  139.2898  158.6739 H   0  0  0  0  0  0  0  0  0  0  0  0
  151.0567  142.5398  156.0471 H   0  0  0  0  0  0  0  0  0  0  0  0
  151.0907  144.8061  157.0458 H   0  0  0  0  0  0  0  0  0  0  0  0
  152.7905  143.1980  160.6624 H   0  0  0  0  0  0  0  0  0  0  0  0
  150.0733  141.9896  155.3781 H   0  0  0  0  0  0  0  0  0  0  0  0
  1  2  2  0  0  0  0
  2 19  1  0  0  0  0
  2  3  1  0  0  0  0
  3 21  1  0  0  0  0
  3  4  1  0  0  0  0
  4  5  2  0  0  0  0
  4  6  1  0  0  0  0
  6  7  1  0  0  0  0
  6 18  1  0  0  0  0
  7  8  1  0  0  0  0
  7 22  1  0  0  0  0
  7 23  1  0  0  0  0
  8  9  1  0  0  0  0
  8 10  1  0  0  0  0
  8 24  1  0  0  0  0
  9 25  1  0  0  0  0
 10 16  1  0  0  0  0
 10 11  2  0  0  0  0
 11 12  1  0  0  0  0
 11 26  1  0  0  0  0
 12 13  2  0  0  0  0
 12 27  1  0  0  0  0
 13 14  1  0  0  0  0
 13 15  1  0  0  0  0
 15 16  2  0  0  0  0
 15 28  1  0  0  0  0
 16 17  1  0  0  0  0
 18 19  2  0  0  0  0
 18 29  1  0  0  0  0
 19 20  1  0  0  0  0
M  END
> <s_m_source_file>
AV-unprocessed.smi

> <i_m_source_file_index>
711

> <i_lp_mmshare_version>
43012

> <i_f3d_flags>
0

> <s_epik_input>
Tz1jMVtuSF1jKD1PKW4oW2NIXWMxQ2wpW0NIMl1bQ0BIXShbT0hdKWMyW2NIXVtjSF1jKEYpW2NIXWMyRg==

> <s_epik_cmdline>
J2VwaWtfcHl0aG9uJywgJy1waCcsICc3LjAnLCAnLXRuJywgJzgnLCAnLW1hJywgJzIwMCcsICctbWV0YWxfYmluZGluZycsICctaW1hZScsICc8aW5maWxlLm1hZT4nLCAnLW9tYWUnLCAnPG91dGZpbGUubWFlPic=

> <r_lp_tautomer_probability>
0.999537

> <r_epik_Ionization_Penalty>
0.0292058

> <r_epik_Ionization_Penalty_Charging>
0.0292057

> <r_epik_Ionization_Penalty_Neutral>
9.07348e-08

> <r_epik_State_Penalty>
0.0240115

> <r_epik_Charging_Adjusted_Penalty>
0.0532172

> <i_epik_Tot_Q>
0

> <i_epik_Tot_abs_Q>
0

> <r_epik_Metal_State_Penalty>
2.21956

> <b_epik_Metal_Only>
0

> <s_lp_Force_Field>
OPLS_2005

> <r_lp_Energy>
13.2316

> <b_lp_Chiralities_Consistent>
1

> <s_lp_Variant>
AV-unprocessed.smi:711-2

> <Gold.Version>
5.8.1

> <Gold.Id.Protein>
6NUR|6NUR_protein|mol2

> <Gold.PLP.Fitness>
49.4817

> <Gold.PLP.PLP>
-46.5335

> <Gold.PLP.part.hbond>
-3.0000

> <Gold.PLP.part.metal>
0.0000

> <Gold.PLP.part.buried>
-1.7454

> <Gold.PLP.part.nonpolar>
-42.4727

> <Gold.PLP.part.repulsive>
0.4768

> <Gold.PLP.ligand.clash>
0.0000

> <Gold.PLP.ligand.torsion>
1.5211

> <Gold.PLP.Chemscore.Hbond>
1.9913

> <Gold.PLP.Chemscore.CHOScore>
0.0000

> <Gold.PLP.Chemscore.Metal>
0.0000

> <Gold.Chemscore.Hbonds>
donor molecule, donor type, donor heavy atom, donor atom, acceptor molecule, acceptor atom, score
      L1  H     3    21       P1  7948  1.00
      P1  H  7997  8010       L1     9  1.00

> <Gold.PLP.Chemscore.Internal.Correction>
0.0166

> <Gold.Rescore>
     Score         DG    S(hbond)    S(metal)    S(lipo)     H(rot)  DE(clash)    DE(int)     intcor
     12.98     -16.31       1.77        0.00      93.84       2.37       0.16       3.17       ----

> <Gold.Chemscore.Fitness>
12.9793

> <Gold.Chemscore.DG>
-16.3088

> <Gold.Chemscore.ZeroCoef>
-5.4800

> <Gold.Chemscore.Hbond>
1.7677

> <Gold.Chemscore.Metal>
0.0000

> <Gold.Chemscore.Lipo>
93.8411

> <Gold.Chemscore.Internal_Hbond>
0.0000

> <Gold.Chemscore.DEClash>
0.1590

> <Gold.Chemscore.DEInternal>
3.1704

> <Gold.Chemscore.Rot>
2.3652

> <Gold.Chemscore.Internal.Correction>
   9.000000E+99

> <Gold.Chemscore.Hbonds>
donor molecule, donor type, donor heavy atom, donor atom, acceptor molecule, acceptor atom, score
      L1  H     3    21       P1  7948  0.94
      P1  H  7997  8010       L1     9  0.51

> <Gold.Chemscore.Hbond.Weighted>
-5.9041

> <Gold.Chemscore.Metal.Weighted>
-0.0000

> <Gold.Chemscore.Lipo.Weighted>
-10.9794

> <Gold.Chemscore.Internal_Hbond.Weighted>
0.0000

> <Gold.Chemscore.DEClash.Weighted>
0.1590

> <Gold.Chemscore.DEInternal.Weighted>
3.1704

> <Gold.Chemscore.Rot.Weighted>
6.0548

> <Gold.Chemscore.Internal.Correction.Weighted>
   9.000000E+99

> <Gold.Protein.RotatedTorsions>
[ 6907 6896 6895 6894 ] final   15.24 input  -60.11 | X-H torsion
[ 7974 7965 7964 7962 ] final  108.11 input  175.53 | X-H torsion
[ 8008 7997 7996 7995 ] final   30.15 input   59.86 | X-H torsion
[ 10167 10162 10161 10158 ] final   62.97 input  -65.29 | X-H torsion
[ 10718 10713 10712 10709 ] final   35.60 input   66.30 | X-H torsion
[ 10763 10752 10751 10750 ] final   35.10 input  -60.55 | X-H torsion
[ 11005 11000 10999 10996 ] final -173.82 input  -57.11 | X-H torsion

> <Gold.Protein.ActiveResidues>
 VAL166  LYS551  ARG553  GLY616  TRP617  ASP618  TYR619  PRO620  LYS621  CYS622 
 ASP623  PHE694  ASN695  SER759  ASP760  ASP761  ALA762  ILE779  LEU786  VAL792 
 PHE793  MET794  SER795  GLU796  ALA797  LYS798  CYS799  TRP800  GLU811  SER814 

> <Gold.Protein.RotatedAtoms>
  151.8149  135.0669  160.0417 H   0  0  0  0  0  0  0  0  0  0  0  0  # atno 6907 bound_to 6896
  152.2993  133.5635  159.5616 H   0  0  0  0  0  0  0  0  0  0  0  0  # atno 6908 bound_to 6896
  150.7266  134.0230  159.3750 H   0  0  0  0  0  0  0  0  0  0  0  0  # atno 6909 bound_to 6896
  145.2849  139.2620  143.3896 H   0  0  0  0  0  0  0  0  0  0  0  0  # atno 7974 bound_to 7965
  155.0859  140.3215  155.4588 H   0  0  0  0  0  0  0  0  0  0  0  0  # atno 8008 bound_to 7997
  156.2755  140.2086  156.5932 H   0  0  0  0  0  0  0  0  0  0  0  0  # atno 8009 bound_to 7997
  154.6942  140.0513  157.0381 H   0  0  0  0  0  0  0  0  0  0  0  0  # atno 8010 bound_to 7997
  140.1382  144.4579  150.6826 H   0  0  0  0  0  0  0  0  0  0  0  0  # atno 10167 bound_to 10162
  157.3247  130.7466  149.6808 H   0  0  0  0  0  0  0  0  0  0  0  0  # atno 10718 bound_to 10713
  153.0134  135.6342  154.1774 H   0  0  0  0  0  0  0  0  0  0  0  0  # atno 10763 bound_to 10752
  154.1514  135.2829  155.3136 H   0  0  0  0  0  0  0  0  0  0  0  0  # atno 10764 bound_to 10752
  154.6050  135.5575  153.7475 H   0  0  0  0  0  0  0  0  0  0  0  0  # atno 10765 bound_to 10752
  140.4814  134.6071  157.4921 H   0  0  0  0  0  0  0  0  0  0  0  0  # atno 11005 bound_to 11000
  146.3204  140.3325  142.8641 LP  0  0  0  0  0  0  0  0  0  0  0  0  # atno 17320 bound_to 7965
  144.9222  140.7881  143.5741 LP  0  0  0  0  0  0  0  0  0  0  0  0  # atno 17321 bound_to 7965
  140.6776  143.2312  151.5466 LP  0  0  0  0  0  0  0  0  0  0  0  0  # atno 17342 bound_to 10162
  139.5485  144.2457  152.1487 LP  0  0  0  0  0  0  0  0  0  0  0  0  # atno 17343 bound_to 10162
  155.9689  130.4213  150.4462 LP  0  0  0  0  0  0  0  0  0  0  0  0  # atno 17370 bound_to 10713
  157.2483  131.0541  151.2395 LP  0  0  0  0  0  0  0  0  0  0  0  0  # atno 17371 bound_to 10713
  139.9824  134.7116  155.9835 LP  0  0  0  0  0  0  0  0  0  0  0  0  # atno 17394 bound_to 11000
  141.1529  133.6546  156.4070 LP  0  0  0  0  0  0  0  0  0  0  0  0  # atno 17395 bound_to 11000

$$$$
