AV-unprocessed.smi:2994|AV-procd|sdf|11405|dock4
  -GOLD-   2272016333D 1   1.00000     0.00000
 Structure written by MMmdl.
 47 49  0  0  0  0  0  0  0  0  1 V2000
  145.7120  134.6634  153.6735 C   0  0  0  0  0  0  0  0  0  0  0  0
  145.7733  136.1859  153.4868 C   0  0  1  0  0  0  0  0  0  0  0  0
  147.1619  136.6162  153.6187 N   0  0  0  0  0  0  0  0  0  0  0  0
  147.6712  137.2938  154.6576 C   0  0  0  0  0  0  0  0  0  0  0  0
  147.0069  137.6337  155.6357 O   0  0  0  0  0  0  0  0  0  0  0  0
  148.9785  137.5459  154.4718 N   0  0  0  0  0  0  0  0  0  0  0  0
  149.8999  138.2221  155.3190 C   0  0  0  0  0  0  0  0  0  0  0  0
  151.0003  138.9932  154.8720 C   0  0  0  0  0  0  0  0  0  0  0  0
  151.8269  139.6168  155.8259 C   0  0  0  0  0  0  0  0  0  0  0  0
  151.5223  139.4644  157.1971 C   0  0  0  0  0  0  0  0  0  0  0  0
  152.3907  140.0965  158.2457 C   0  0  0  0  0  0  0  0  0  0  0  0
  153.4782  139.5766  158.4997 O   0  0  0  0  0  0  0  0  0  0  0  0
  151.9440  141.2190  158.8642 N   0  0  0  0  0  0  0  0  0  0  0  0
  152.7562  142.1355  159.6811 C   0  0  0  0  0  0  0  0  0  0  0  0
  152.9908  143.4371  158.8920 C   0  0  0  0  0  0  0  0  0  0  0  0
  151.6573  144.0729  158.4590 C   0  0  0  0  0  0  0  0  0  0  0  0
  150.7463  143.0502  157.7566 C   0  0  0  0  0  0  0  0  0  0  0  0
  150.6081  141.7713  158.6019 C   0  0  0  0  0  0  0  0  0  0  0  0
  150.4791  138.7227  157.6303 N   0  0  0  0  0  0  0  0  0  0  0  0
  149.6920  138.1265  156.7107 C   0  0  0  0  0  0  0  0  0  0  0  0
  145.1341  136.5957  152.1701 C   0  0  0  0  0  0  0  0  0  0  0  0
  144.1128  135.7198  151.4832 C   0  0  0  0  0  0  0  0  0  0  0  0
  145.4890  135.8907  150.8823 C   0  0  0  0  0  0  0  0  0  0  0  0
  144.6830  134.3046  153.6375 H   0  0  0  0  0  0  0  0  0  0  0  0
  146.1282  134.3673  154.6371 H   0  0  0  0  0  0  0  0  0  0  0  0
  146.2717  134.1444  152.8944 H   0  0  0  0  0  0  0  0  0  0  0  0
  145.1943  136.6339  154.2970 H   0  0  0  0  0  0  0  0  0  0  0  0
  147.7815  136.3817  152.8570 H   0  0  0  0  0  0  0  0  0  0  0  0
  149.3641  137.2257  153.5955 H   0  0  0  0  0  0  0  0  0  0  0  0
  151.2310  139.1288  153.8280 H   0  0  0  0  0  0  0  0  0  0  0  0
  152.6753  140.2052  155.5076 H   0  0  0  0  0  0  0  0  0  0  0  0
  152.2279  142.3499  160.6111 H   0  0  0  0  0  0  0  0  0  0  0  0
  153.7209  141.7288  159.9776 H   0  0  0  0  0  0  0  0  0  0  0  0
  153.5621  144.1437  159.4944 H   0  0  0  0  0  0  0  0  0  0  0  0
  153.5963  143.2223  158.0102 H   0  0  0  0  0  0  0  0  0  0  0  0
  151.1448  144.4610  159.3401 H   0  0  0  0  0  0  0  0  0  0  0  0
  151.8400  144.9269  157.8063 H   0  0  0  0  0  0  0  0  0  0  0  0
  149.7649  143.4882  157.5730 H   0  0  0  0  0  0  0  0  0  0  0  0
  151.1619  142.7988  156.7799 H   0  0  0  0  0  0  0  0  0  0  0  0
  149.9501  141.0609  158.0992 H   0  0  0  0  0  0  0  0  0  0  0  0
  150.1219  142.0008  159.5512 H   0  0  0  0  0  0  0  0  0  0  0  0
  148.8663  137.5508  157.1025 H   0  0  0  0  0  0  0  0  0  0  0  0
  144.9733  137.6688  152.0829 H   0  0  0  0  0  0  0  0  0  0  0  0
  143.8805  134.7569  151.9337 H   0  0  0  0  0  0  0  0  0  0  0  0
  143.2803  136.2156  150.9883 H   0  0  0  0  0  0  0  0  0  0  0  0
  145.5744  136.4984  149.9838 H   0  0  0  0  0  0  0  0  0  0  0  0
  146.1686  135.0426  150.9385 H   0  0  0  0  0  0  0  0  0  0  0  0
  1  2  1  0  0  0  0
  1 24  1  0  0  0  0
  1 25  1  0  0  0  0
  1 26  1  0  0  0  0
  2  3  1  0  0  0  0
  2 21  1  0  0  0  0
  2 27  1  0  0  0  0
  3  4  1  0  0  0  0
  3 28  1  0  0  0  0
  4  5  2  0  0  0  0
  4  6  1  0  0  0  0
  6  7  1  0  0  0  0
  6 29  1  0  0  0  0
  7 20  1  0  0  0  0
  7  8  2  0  0  0  0
  8  9  1  0  0  0  0
  8 30  1  0  0  0  0
  9 10  2  0  0  0  0
  9 31  1  0  0  0  0
 10 11  1  0  0  0  0
 10 19  1  0  0  0  0
 11 12  2  0  0  0  0
 11 13  1  0  0  0  0
 13 18  1  0  0  0  0
 13 14  1  0  0  0  0
 14 15  1  0  0  0  0
 14 32  1  0  0  0  0
 14 33  1  0  0  0  0
 15 16  1  0  0  0  0
 15 34  1  0  0  0  0
 15 35  1  0  0  0  0
 16 17  1  0  0  0  0
 16 36  1  0  0  0  0
 16 37  1  0  0  0  0
 17 18  1  0  0  0  0
 17 38  1  0  0  0  0
 17 39  1  0  0  0  0
 18 40  1  0  0  0  0
 18 41  1  0  0  0  0
 19 20  2  0  0  0  0
 20 42  1  0  0  0  0
 21 23  1  0  0  0  0
 21 22  1  0  0  0  0
 21 43  1  0  0  0  0
 22 23  1  0  0  0  0
 22 44  1  0  0  0  0
 22 45  1  0  0  0  0
 23 46  1  0  0  0  0
 23 47  1  0  0  0  0
M  END
> <s_m_source_file>
AV-unprocessed.smi

> <i_m_source_file_index>
2994

> <i_lp_mmshare_version>
43012

> <i_f3d_flags>
0

> <s_epik_input>
W0NIMl0xW0NIMl1bQ0hdMVtDQEhdKFtDSDNdKVtOSF1DKD1PKVtOSF1jMltjSF1bY0hdYyhuW2NIXTIpQyg9TylOM1tDSDJdW0NIMl1bQ0gyXVtDSDJdW0NIMl0z

> <s_epik_cmdline>
J2VwaWtfcHl0aG9uJywgJy1waCcsICc3LjAnLCAnLXRuJywgJzgnLCAnLW1hJywgJzIwMCcsICctbWV0YWxfYmluZGluZycsICctaW1hZScsICc8aW5maWxlLm1hZT4nLCAnLW9tYWUnLCAnPG91dGZpbGUubWFlPic=

> <r_lp_tautomer_probability>
1

> <r_epik_Ionization_Penalty>
4.52104e-05

> <r_epik_Ionization_Penalty_Charging>
0

> <r_epik_Ionization_Penalty_Neutral>
4.52104e-05

> <r_epik_State_Penalty>
-0

> <r_epik_Charging_Adjusted_Penalty>
0

> <i_epik_Tot_Q>
0

> <i_epik_Tot_abs_Q>
0

> <r_epik_Metal_State_Penalty>
-0

> <b_epik_Metal_Only>
0

> <s_lp_Force_Field>
OPLS_2005

> <r_lp_Energy>
45.5302

> <b_lp_Chiralities_Consistent>
1

> <s_lp_Variant>
AV-unprocessed.smi:2994-2

> <Gold.Version>
5.8.1

> <Gold.Id.Protein>
6NUR|6NUR_protein|mol2

> <Gold.PLP.Fitness>
44.6376

> <Gold.PLP.PLP>
-38.6204

> <Gold.PLP.part.hbond>
-2.9979

> <Gold.PLP.part.metal>
0.0000

> <Gold.PLP.part.buried>
-5.3467

> <Gold.PLP.part.nonpolar>
-32.2644

> <Gold.PLP.part.repulsive>
0.0253

> <Gold.PLP.ligand.clash>
0.0000

> <Gold.PLP.ligand.torsion>
2.3441

> <Gold.PLP.Chemscore.Hbond>
2.8892

> <Gold.PLP.Chemscore.CHOScore>
0.0000

> <Gold.PLP.Chemscore.Metal>
0.0000

> <Gold.Chemscore.Hbonds>
donor molecule, donor type, donor heavy atom, donor atom, acceptor molecule, acceptor atom, score
      L1  H     3    28       P1  7948  1.00
      L1  H     6    29       P1  7948  0.93
      P1  H  7997  8009       L1    12  1.00

> <Gold.PLP.Chemscore.Internal.Correction>
2.0378

> <Gold.Rescore>
     Score         DG    S(hbond)    S(metal)    S(lipo)     H(rot)  DE(clash)    DE(int)     intcor
     20.02     -23.54       2.85        0.00      97.87       1.14       0.14       3.38       ----

> <Gold.Chemscore.Fitness>
20.0181

> <Gold.Chemscore.DG>
-23.5378

> <Gold.Chemscore.ZeroCoef>
-5.4800

> <Gold.Chemscore.Hbond>
2.8516

> <Gold.Chemscore.Metal>
0.0000

> <Gold.Chemscore.Lipo>
97.8745

> <Gold.Chemscore.Internal_Hbond>
0.0000

> <Gold.Chemscore.DEClash>
0.1419

> <Gold.Chemscore.DEInternal>
3.3778

> <Gold.Chemscore.Rot>
1.1399

> <Gold.Chemscore.Internal.Correction>
   9.000000E+99

> <Gold.Chemscore.Hbonds>
donor molecule, donor type, donor heavy atom, donor atom, acceptor molecule, acceptor atom, score
      L1  H     3    28       P1  7948  0.94
      L1  H     6    29       P1  7948  0.82
      P1  H  7997  8009       L1    12  0.86

> <Gold.Chemscore.Hbond.Weighted>
-9.5245

> <Gold.Chemscore.Metal.Weighted>
-0.0000

> <Gold.Chemscore.Lipo.Weighted>
-11.4513

> <Gold.Chemscore.Internal_Hbond.Weighted>
0.0000

> <Gold.Chemscore.DEClash.Weighted>
0.1419

> <Gold.Chemscore.DEInternal.Weighted>
3.3778

> <Gold.Chemscore.Rot.Weighted>
2.9180

> <Gold.Chemscore.Internal.Correction.Weighted>
   9.000000E+99

> <Gold.Protein.RotatedTorsions>
[ 6907 6896 6895 6894 ] final -128.60 input  -60.11 | X-H torsion
[ 7974 7965 7964 7962 ] final  -37.63 input  175.53 | X-H torsion
[ 8008 7997 7996 7995 ] final  128.74 input   59.86 | X-H torsion
[ 10167 10162 10161 10158 ] final  -40.58 input  -65.29 | X-H torsion
[ 10718 10713 10712 10709 ] final  142.85 input   66.30 | X-H torsion
[ 10763 10752 10751 10750 ] final  105.60 input  -60.55 | X-H torsion
[ 11005 11000 10999 10996 ] final  -73.95 input  -57.11 | X-H torsion

> <Gold.Protein.ActiveResidues>
 VAL166  LYS551  ARG553  GLY616  TRP617  ASP618  TYR619  PRO620  LYS621  CYS622 
 ASP623  PHE694  ASN695  SER759  ASP760  ASP761  ALA762  ILE779  LEU786  VAL792 
 PHE793  MET794  SER795  GLU796  ALA797  LYS798  CYS799  TRP800  GLU811  SER814 

> <Gold.Protein.RotatedAtoms>
  150.9197  133.6896  159.2834 H   0  0  0  0  0  0  0  0  0  0  0  0  # atno 6907 bound_to 6896
  151.4355  135.1013  159.9664 H   0  0  0  0  0  0  0  0  0  0  0  0  # atno 6908 bound_to 6896
  152.4973  133.8617  159.7308 H   0  0  0  0  0  0  0  0  0  0  0  0  # atno 6909 bound_to 6896
  146.0558  140.6418  142.9020 H   0  0  0  0  0  0  0  0  0  0  0  0  # atno 7974 bound_to 7965
  156.2921  140.2637  156.2485 H   0  0  0  0  0  0  0  0  0  0  0  0  # atno 8008 bound_to 7997
  154.9906  140.0388  157.2336 H   0  0  0  0  0  0  0  0  0  0  0  0  # atno 8009 bound_to 7997
  154.7689  140.2774  155.6158 H   0  0  0  0  0  0  0  0  0  0  0  0  # atno 8010 bound_to 7997
  140.7030  143.3145  151.2944 H   0  0  0  0  0  0  0  0  0  0  0  0  # atno 10167 bound_to 10162
  157.3758  131.0985  151.0785 H   0  0  0  0  0  0  0  0  0  0  0  0  # atno 10718 bound_to 10713
  153.3815  135.3904  155.1860 H   0  0  0  0  0  0  0  0  0  0  0  0  # atno 10763 bound_to 10752
  154.8708  135.3726  154.4851 H   0  0  0  0  0  0  0  0  0  0  0  0  # atno 10764 bound_to 10752
  153.5328  135.7085  153.5736 H   0  0  0  0  0  0  0  0  0  0  0  0  # atno 10765 bound_to 10752
  141.1629  133.6895  156.7289 H   0  0  0  0  0  0  0  0  0  0  0  0  # atno 11005 bound_to 11000
  144.7147  140.4167  143.7053 LP  0  0  0  0  0  0  0  0  0  0  0  0  # atno 17320 bound_to 7965
  145.6646  139.1587  143.2789 LP  0  0  0  0  0  0  0  0  0  0  0  0  # atno 17321 bound_to 7965
  139.6579  144.0242  152.2672 LP  0  0  0  0  0  0  0  0  0  0  0  0  # atno 17342 bound_to 10162
  139.9800  144.6435  150.7909 LP  0  0  0  0  0  0  0  0  0  0  0  0  # atno 17343 bound_to 10162
  157.1873  130.6336  149.5692 LP  0  0  0  0  0  0  0  0  0  0  0  0  # atno 17370 bound_to 10713
  155.9765  130.4734  150.6531 LP  0  0  0  0  0  0  0  0  0  0  0  0  # atno 17371 bound_to 10713
  140.2760  134.8355  157.3890 LP  0  0  0  0  0  0  0  0  0  0  0  0  # atno 17394 bound_to 11000
  140.1477  134.4889  155.7984 LP  0  0  0  0  0  0  0  0  0  0  0  0  # atno 17395 bound_to 11000

$$$$
