AV-unprocessed.smi:234|AV-procd|sdf|1796|dock2
  -GOLD-   2262020363D 1   1.00000     0.00000
 Structure written by MMmdl.
 59 62  0  0  0  0  0  0  0  0  1 V2000
  150.9528  145.0055  159.7888 C   0  0  0  0  0  0  0  0  0  0  0  0
  151.7959  143.9336  159.0945 C   0  0  0  0  0  0  0  0  0  0  0  0
  150.9294  142.9465  158.5599 O   0  0  0  0  0  0  0  0  0  0  0  0
  151.5736  142.0637  157.6482 C   0  0  1  0  0  0  0  0  0  0  0  0
  152.4996  141.1230  158.4205 C   0  0  0  0  0  0  0  0  0  0  0  0
  151.2995  140.1781  158.5370 C   0  0  2  0  0  0  0  0  0  0  0  0
  151.6658  138.7612  158.4313 N   0  0  0  0  0  0  0  0  0  0  0  0
  152.8029  138.2995  159.2222 C   0  0  0  0  0  0  0  0  0  0  0  0
  150.6622  137.8495  158.4405 C   0  0  0  0  0  0  0  0  0  0  0  0
  150.0256  137.5431  159.6019 N   0  0  0  0  0  0  0  0  0  0  0  0
  149.0453  136.6356  159.6114 C   0  0  0  0  0  0  0  0  0  0  0  0
  148.5603  135.9204  158.5946 N   0  0  0  0  0  0  0  0  0  0  0  0
  149.2088  136.2106  157.4303 C   0  0  0  0  0  0  0  0  0  0  0  0
  150.2598  137.1558  157.2667 C   0  0  0  0  0  0  0  0  0  0  0  0
  150.6631  137.1936  155.9381 N   0  0  0  0  0  0  0  0  0  0  0  0
  149.8969  136.3162  155.3498 C   0  0  0  0  0  0  0  0  0  0  0  0
  149.0054  135.6657  156.1738 N   0  0  0  0  0  0  0  0  0  0  0  0
  148.0468  134.6430  155.7820 C   0  0  0  0  0  0  0  0  0  0  0  0
  148.6103  133.5343  154.8503 C   0  0  1  0  0  0  0  0  0  0  0  0
  148.3020  133.9359  153.5282 O   0  0  0  0  0  0  0  0  0  0  0  0
  150.1169  133.3201  154.9806 C   0  0  0  0  0  0  0  0  0  0  0  0
  150.2570  132.1519  155.9617 C   0  0  0  0  0  0  0  0  0  0  0  0
  148.9455  131.6336  156.1644 O   0  0  0  0  0  0  0  0  0  0  0  0
  148.0643  132.1257  155.1619 C   0  0  2  0  0  0  0  0  0  0  0  0
  148.0831  131.1273  153.9875 C   0  0  0  0  0  0  0  0  0  0  0  0
  150.7278  140.8259  157.2403 C   0  0  0  0  0  0  0  0  0  0  0  0
  149.2112  141.0303  157.1787 C   0  0  0  0  0  0  0  0  0  0  0  0
  151.1375  140.2068  155.8932 C   0  0  0  0  0  0  0  0  0  0  0  0
  151.5855  145.7854  160.2127 H   0  0  0  0  0  0  0  0  0  0  0  0
  150.3628  144.5759  160.5988 H   0  0  0  0  0  0  0  0  0  0  0  0
  150.2649  145.4774  159.0867 H   0  0  0  0  0  0  0  0  0  0  0  0
  152.3978  144.3873  158.3070 H   0  0  0  0  0  0  0  0  0  0  0  0
  152.4818  143.4780  159.8100 H   0  0  0  0  0  0  0  0  0  0  0  0
  152.0819  142.5694  156.8252 H   0  0  0  0  0  0  0  0  0  0  0  0
  153.3144  140.7306  157.8096 H   0  0  0  0  0  0  0  0  0  0  0  0
  152.8641  141.5161  159.3701 H   0  0  0  0  0  0  0  0  0  0  0  0
  150.6976  140.4124  159.4172 H   0  0  0  0  0  0  0  0  0  0  0  0
  152.4946  137.6307  160.0277 H   0  0  0  0  0  0  0  0  0  0  0  0
  153.3377  139.1325  159.6786 H   0  0  0  0  0  0  0  0  0  0  0  0
  153.5049  137.7623  158.5843 H   0  0  0  0  0  0  0  0  0  0  0  0
  148.5851  136.4560  160.5719 H   0  0  0  0  0  0  0  0  0  0  0  0
  149.9687  136.1115  154.2914 H   0  0  0  0  0  0  0  0  0  0  0  0
  147.6384  134.1958  156.6893 H   0  0  0  0  0  0  0  0  0  0  0  0
  147.2111  135.1463  155.2936 H   0  0  0  0  0  0  0  0  0  0  0  0
  148.7780  134.7297  153.3377 H   0  0  0  0  0  0  0  0  0  0  0  0
  150.5450  133.0220  154.0221 H   0  0  0  0  0  0  0  0  0  0  0  0
  150.6525  134.2132  155.3023 H   0  0  0  0  0  0  0  0  0  0  0  0
  150.9088  131.3773  155.5567 H   0  0  0  0  0  0  0  0  0  0  0  0
  150.6713  132.4724  156.9177 H   0  0  0  0  0  0  0  0  0  0  0  0
  147.0468  132.1720  155.5492 H   0  0  0  0  0  0  0  0  0  0  0  0
  147.3963  131.4308  153.1972 H   0  0  0  0  0  0  0  0  0  0  0  0
  147.7742  130.1368  154.3215 H   0  0  0  0  0  0  0  0  0  0  0  0
  149.0762  131.0317  153.5483 H   0  0  0  0  0  0  0  0  0  0  0  0
  148.6859  140.1036  156.9491 H   0  0  0  0  0  0  0  0  0  0  0  0
  148.9365  141.7511  156.4087 H   0  0  0  0  0  0  0  0  0  0  0  0
  148.8152  141.3963  158.1263 H   0  0  0  0  0  0  0  0  0  0  0  0
  150.6043  139.2763  155.6962 H   0  0  0  0  0  0  0  0  0  0  0  0
  152.2028  139.9797  155.8519 H   0  0  0  0  0  0  0  0  0  0  0  0
  150.9240  140.8833  155.0651 H   0  0  0  0  0  0  0  0  0  0  0  0
  1  2  1  0  0  0  0
  1 29  1  0  0  0  0
  1 30  1  0  0  0  0
  1 31  1  0  0  0  0
  2  3  1  0  0  0  0
  2 32  1  0  0  0  0
  2 33  1  0  0  0  0
  3  4  1  0  0  0  0
  4 26  1  0  0  0  0
  4  5  1  0  0  0  0
  4 34  1  0  0  0  0
  5  6  1  0  0  0  0
  5 35  1  0  0  0  0
  5 36  1  0  0  0  0
  6  7  1  0  0  0  0
  6 26  1  0  0  0  0
  6 37  1  0  0  0  0
  7  8  1  0  0  0  0
  7  9  1  0  0  0  0
  8 38  1  0  0  0  0
  8 39  1  0  0  0  0
  8 40  1  0  0  0  0
  9 14  1  0  0  0  0
  9 10  2  0  0  0  0
 10 11  1  0  0  0  0
 11 12  2  0  0  0  0
 11 41  1  0  0  0  0
 12 13  1  0  0  0  0
 13 17  1  0  0  0  0
 13 14  2  0  0  0  0
 14 15  1  0  0  0  0
 15 16  2  0  0  0  0
 16 17  1  0  0  0  0
 16 42  1  0  0  0  0
 17 18  1  0  0  0  0
 18 19  1  0  0  0  0
 18 43  1  0  0  0  0
 18 44  1  0  0  0  0
 19 24  1  0  0  0  0
 19 20  1  0  0  0  0
 19 21  1  0  0  0  0
 20 45  1  0  0  0  0
 21 22  1  0  0  0  0
 21 46  1  0  0  0  0
 21 47  1  0  0  0  0
 22 23  1  0  0  0  0
 22 48  1  0  0  0  0
 22 49  1  0  0  0  0
 23 24  1  0  0  0  0
 24 25  1  0  0  0  0
 24 50  1  0  0  0  0
 25 51  1  0  0  0  0
 25 52  1  0  0  0  0
 25 53  1  0  0  0  0
 26 27  1  0  0  0  0
 26 28  1  0  0  0  0
 27 54  1  0  0  0  0
 27 55  1  0  0  0  0
 27 56  1  0  0  0  0
 28 57  1  0  0  0  0
 28 58  1  0  0  0  0
 28 59  1  0  0  0  0
M  END
> <s_m_source_file>
AV-unprocessed.smi

> <i_m_source_file_index>
234

> <i_lp_mmshare_version>
43012

> <i_f3d_flags>
0

> <s_epik_input>
W0NIM11bQ0gyXU9bQ0BASF0oQzEoW0NIM10pW0NIM10pW0NIMl1bQ0BIXTFOKFtDSDNdKWMobltjSF1uMiljKGMyMyluW2NIXW4zW0NIMl1bQ0BAXTQoW09IXSlbQ0gyXVtDSDJdT1tDQEhdNFtDSDNd

> <s_epik_cmdline>
J2VwaWtfcHl0aG9uJywgJy1waCcsICc3LjAnLCAnLXRuJywgJzgnLCAnLW1hJywgJzIwMCcsICctbWV0YWxfYmluZGluZycsICctaW1hZScsICc8aW5maWxlLm1hZT4nLCAnLW9tYWUnLCAnPG91dGZpbGUubWFlPic=

> <r_lp_tautomer_probability>
1

> <r_epik_Ionization_Penalty>
0.00349132

> <r_epik_Ionization_Penalty_Charging>
0

> <r_epik_Ionization_Penalty_Neutral>
0.00349132

> <r_epik_State_Penalty>
0.00242418

> <r_epik_Charging_Adjusted_Penalty>
0.00242418

> <i_epik_Tot_Q>
0

> <i_epik_Tot_abs_Q>
0

> <r_epik_Metal_State_Penalty>
-0

> <b_epik_Metal_Only>
0

> <s_lp_Force_Field>
OPLS_2005

> <r_lp_Energy>
50.3749

> <b_lp_Chiralities_Consistent>
1

> <s_lp_Variant>
AV-unprocessed.smi:234-12

> <Gold.Version>
5.8.1

> <Gold.Id.Protein>
6NUR|6NUR_protein|mol2

> <Gold.PLP.Fitness>
39.5163

> <Gold.PLP.PLP>
-36.2371

> <Gold.PLP.part.hbond>
-2.0000

> <Gold.PLP.part.metal>
0.0000

> <Gold.PLP.part.buried>
-7.0317

> <Gold.PLP.part.nonpolar>
-27.1402

> <Gold.PLP.part.repulsive>
0.1218

> <Gold.PLP.ligand.clash>
0.0000

> <Gold.PLP.ligand.torsion>
1.5654

> <Gold.PLP.Chemscore.Hbond>
0.8160

> <Gold.PLP.Chemscore.CHOScore>
1.0000

> <Gold.PLP.Chemscore.Metal>
0.0000

> <Gold.Chemscore.Hbonds>
donor molecule, donor type, donor heavy atom, donor atom, acceptor molecule, acceptor atom, score
      L1  H    20    45       P1  7948  0.73
      L1  C    16    42       P1  7948  0.83

> <Gold.PLP.Chemscore.Internal.Correction>
0.9620

> <Gold.Rescore>
     Score         DG    S(hbond)    S(metal)    S(lipo)     H(rot)  DE(clash)    DE(int)     intcor
     10.59     -12.11       0.85        0.00      89.80       2.62       0.07       1.45       ----

> <Gold.Chemscore.Fitness>
10.5947

> <Gold.Chemscore.DG>
-12.1146

> <Gold.Chemscore.ZeroCoef>
-5.4800

> <Gold.Chemscore.Hbond>
0.8502

> <Gold.Chemscore.Metal>
0.0000

> <Gold.Chemscore.Lipo>
89.8046

> <Gold.Chemscore.Internal_Hbond>
0.0000

> <Gold.Chemscore.DEClash>
0.0659

> <Gold.Chemscore.DEInternal>
1.4541

> <Gold.Chemscore.Rot>
2.6219

> <Gold.Chemscore.Internal.Correction>
   9.000000E+99

> <Gold.Chemscore.Hbonds>
donor molecule, donor type, donor heavy atom, donor atom, acceptor molecule, acceptor atom, score
      L1  H    20    45       P1  7948  0.21

> <Gold.Chemscore.Hbond.Weighted>
-2.8396

> <Gold.Chemscore.Metal.Weighted>
-0.0000

> <Gold.Chemscore.Lipo.Weighted>
-10.5071

> <Gold.Chemscore.Internal_Hbond.Weighted>
0.0000

> <Gold.Chemscore.DEClash.Weighted>
0.0659

> <Gold.Chemscore.DEInternal.Weighted>
1.4541

> <Gold.Chemscore.Rot.Weighted>
6.7121

> <Gold.Chemscore.Internal.Correction.Weighted>
   9.000000E+99

> <Gold.Protein.RotatedTorsions>
[ 6907 6896 6895 6894 ] final -152.25 input  -60.11 | X-H torsion
[ 7974 7965 7964 7962 ] final  -48.35 input  175.53 | X-H torsion
[ 8008 7997 7996 7995 ] final   55.61 input   59.86 | X-H torsion
[ 10167 10162 10161 10158 ] final -130.13 input  -65.29 | X-H torsion
[ 10718 10713 10712 10709 ] final   26.81 input   66.30 | X-H torsion
[ 10763 10752 10751 10750 ] final   53.43 input  -60.55 | X-H torsion
[ 11005 11000 10999 10996 ] final   35.87 input  -57.11 | X-H torsion

> <Gold.Protein.ActiveResidues>
 VAL166  LYS551  ARG553  GLY616  TRP617  ASP618  TYR619  PRO620  LYS621  CYS622 
 ASP623  PHE694  ASN695  SER759  ASP760  ASP761  ALA762  ILE779  LEU786  VAL792 
 PHE793  MET794  SER795  GLU796  ALA797  LYS798  CYS799  TRP800  GLU811  SER814 

> <Gold.Protein.RotatedAtoms>
  151.2250  133.4481  159.2601 H   0  0  0  0  0  0  0  0  0  0  0  0  # atno 6907 bound_to 6896
  151.0849  134.9881  159.8384 H   0  0  0  0  0  0  0  0  0  0  0  0  # atno 6908 bound_to 6896
  152.5428  134.2187  159.8832 H   0  0  0  0  0  0  0  0  0  0  0  0  # atno 6909 bound_to 6896
  145.9520  140.7563  142.9500 H   0  0  0  0  0  0  0  0  0  0  0  0  # atno 7974 bound_to 7965
  155.5040  140.3475  155.4376 H   0  0  0  0  0  0  0  0  0  0  0  0  # atno 8008 bound_to 7997
  156.0894  140.1407  156.9639 H   0  0  0  0  0  0  0  0  0  0  0  0  # atno 8009 bound_to 7997
  154.4626  140.0929  156.6911 H   0  0  0  0  0  0  0  0  0  0  0  0  # atno 8010 bound_to 7997
  139.9326  143.6255  152.2525 H   0  0  0  0  0  0  0  0  0  0  0  0  # atno 10167 bound_to 10162
  157.2118  130.6938  149.6232 H   0  0  0  0  0  0  0  0  0  0  0  0  # atno 10718 bound_to 10713
  152.9795  135.5779  154.4740 H   0  0  0  0  0  0  0  0  0  0  0  0  # atno 10763 bound_to 10752
  154.4299  135.2773  155.1921 H   0  0  0  0  0  0  0  0  0  0  0  0  # atno 10764 bound_to 10752
  154.3634  135.6183  153.5756 H   0  0  0  0  0  0  0  0  0  0  0  0  # atno 10765 bound_to 10752
  140.2383  134.3445  155.7936 H   0  0  0  0  0  0  0  0  0  0  0  0  # atno 11005 bound_to 11000
  144.6798  140.2451  143.7339 LP  0  0  0  0  0  0  0  0  0  0  0  0  # atno 17320 bound_to 7965
  145.8158  139.2022  143.1967 LP  0  0  0  0  0  0  0  0  0  0  0  0  # atno 17321 bound_to 7965
  139.6770  144.7658  151.1678 LP  0  0  0  0  0  0  0  0  0  0  0  0  # atno 17342 bound_to 10162
  140.7633  143.5781  150.8924 LP  0  0  0  0  0  0  0  0  0  0  0  0  # atno 17343 bound_to 10162
  155.9690  130.4548  150.5866 LP  0  0  0  0  0  0  0  0  0  0  0  0  # atno 17370 bound_to 10713
  157.3664  131.0758  151.1594 LP  0  0  0  0  0  0  0  0  0  0  0  0  # atno 17371 bound_to 10713
  141.2212  133.7284  156.8843 LP  0  0  0  0  0  0  0  0  0  0  0  0  # atno 17394 bound_to 11000
  140.1680  134.9120  157.2797 LP  0  0  0  0  0  0  0  0  0  0  0  0  # atno 17395 bound_to 11000

$$$$
