AV-unprocessed.smi:1638|AV-procd|sdf|6547|dock2
  -GOLD-   22720 7233D 1   1.00000     0.00000
 Structure written by MMmdl.
 40 41  0  0  0  0  0  0  0  0  3 V2000
  146.5331  134.1176  162.3331 C   0  0  0  0  0  0  0  0  0  0  0  0
  147.1526  135.1215  161.4224 C   0  0  0  0  0  0  0  0  0  0  0  0
  147.1906  136.4268  161.7024 N   0  0  0  0  0  0  0  0  0  0  0  0
  147.8198  137.1562  160.7051 N   0  0  0  0  0  0  0  0  0  0  0  0
  148.2623  136.3929  159.6950 C   0  0  0  0  0  0  0  0  0  0  0  0
  148.9150  136.9081  158.6403 N   0  5  0  0  0  0  0  0  0  0  0  0
  150.0948  137.5370  158.8307 C   0  0  0  0  0  0  0  0  0  0  0  0
  151.0988  137.0571  159.3611 O   0  0  0  0  0  0  0  0  0  0  0  0
  150.0951  138.8168  158.4313 N   0  0  0  0  0  0  0  0  0  0  0  0
  151.1313  139.8067  158.7218 C   0  0  0  0  0  0  0  0  0  0  0  0
  150.9229  141.0886  157.8888 C   0  0  0  0  0  0  0  0  0  0  0  0
  151.4696  142.2962  158.5661 N   0  3  0  0  0  0  0  0  0  0  0  0
  151.6393  143.4790  157.6853 C   0  0  0  0  0  0  0  0  0  0  0  0
  151.0454  144.7225  158.3684 C   0  0  0  0  0  0  0  0  0  0  0  0
  151.9046  145.2993  159.5048 C   0  0  0  0  0  0  0  0  0  0  0  0
  152.2761  144.2916  160.6071 C   0  0  0  0  0  0  0  0  0  0  0  0
  153.2709  143.2230  160.1200 C   0  0  0  0  0  0  0  0  0  0  0  0
  152.6388  141.9942  159.4338 C   0  0  0  0  0  0  0  0  0  0  0  0
  147.8996  134.6801  159.8959 S   0  0  0  0  0  0  0  0  0  0  0  0
  147.2761  133.7497  163.0410 H   0  0  0  0  0  0  0  0  0  0  0  0
  146.1483  133.2749  161.7585 H   0  0  0  0  0  0  0  0  0  0  0  0
  145.7085  134.5652  162.8889 H   0  0  0  0  0  0  0  0  0  0  0  0
  149.2580  139.1556  157.9789 H   0  0  0  0  0  0  0  0  0  0  0  0
  151.1667  140.0374  159.7875 H   0  0  0  0  0  0  0  0  0  0  0  0
  152.0987  139.3667  158.4790 H   0  0  0  0  0  0  0  0  0  0  0  0
  151.3533  140.9815  156.8924 H   0  0  0  0  0  0  0  0  0  0  0  0
  149.8475  141.1922  157.7419 H   0  0  0  0  0  0  0  0  0  0  0  0
  152.6836  143.6253  157.4062 H   0  0  0  0  0  0  0  0  0  0  0  0
  151.1026  143.3399  156.7469 H   0  0  0  0  0  0  0  0  0  0  0  0
  150.9060  145.5028  157.6195 H   0  0  0  0  0  0  0  0  0  0  0  0
  150.0471  144.4913  158.7437 H   0  0  0  0  0  0  0  0  0  0  0  0
  152.8138  145.7343  159.0886 H   0  0  0  0  0  0  0  0  0  0  0  0
  151.3611  146.1289  159.9585 H   0  0  0  0  0  0  0  0  0  0  0  0
  152.7437  144.8477  161.4202 H   0  0  0  0  0  0  0  0  0  0  0  0
  151.3847  143.8336  161.0361 H   0  0  0  0  0  0  0  0  0  0  0  0
  154.0017  143.6844  159.4549 H   0  0  0  0  0  0  0  0  0  0  0  0
  153.8500  142.8660  160.9723 H   0  0  0  0  0  0  0  0  0  0  0  0
  152.3200  141.2903  160.2022 H   0  0  0  0  0  0  0  0  0  0  0  0
  153.4053  141.4819  158.8511 H   0  0  0  0  0  0  0  0  0  0  0  0
  150.7311  142.5762  159.1974 H   0  0  0  0  0  0  0  0  0  0  0  0
  1  2  1  0  0  0  0
  1 20  1  0  0  0  0
  1 21  1  0  0  0  0
  1 22  1  0  0  0  0
  2 19  1  0  0  0  0
  2  3  2  0  0  0  0
  3  4  1  0  0  0  0
  4  5  2  0  0  0  0
  5  6  1  0  0  0  0
  5 19  1  0  0  0  0
  6  7  1  0  0  0  0
  7  8  2  0  0  0  0
  7  9  1  0  0  0  0
  9 10  1  0  0  0  0
  9 23  1  0  0  0  0
 10 11  1  0  0  0  0
 10 24  1  0  0  0  0
 10 25  1  0  0  0  0
 11 12  1  0  0  0  0
 11 26  1  0  0  0  0
 11 27  1  0  0  0  0
 12 18  1  0  0  0  0
 12 13  1  0  0  0  0
 12 40  1  0  0  0  0
 13 14  1  0  0  0  0
 13 28  1  0  0  0  0
 13 29  1  0  0  0  0
 14 15  1  0  0  0  0
 14 30  1  0  0  0  0
 14 31  1  0  0  0  0
 15 16  1  0  0  0  0
 15 32  1  0  0  0  0
 15 33  1  0  0  0  0
 16 17  1  0  0  0  0
 16 34  1  0  0  0  0
 16 35  1  0  0  0  0
 17 18  1  0  0  0  0
 17 36  1  0  0  0  0
 17 37  1  0  0  0  0
 18 38  1  0  0  0  0
 18 39  1  0  0  0  0
M  CHG  1   6  -1
M  CHG  1  12   1
M  END
> <s_m_source_file>
AV-unprocessed.smi

> <i_m_source_file_index>
1638

> <i_lp_mmshare_version>
43012

> <i_f3d_flags>
0

> <s_epik_input>
W0NIM11jMW5uYyhzMSlbTkhdQyg9TylbTkhdW0NIMl1bQ0gyXU4yW0NIMl1bQ0gyXVtDSDJdW0NIMl1bQ0gyXVtDSDJdMg==

> <s_epik_cmdline>
J2VwaWtfcHl0aG9uJywgJy1waCcsICc3LjAnLCAnLXRuJywgJzgnLCAnLW1hJywgJzIwMCcsICctbWV0YWxfYmluZGluZycsICctaW1hZScsICc8aW5maWxlLm1hZT4nLCAnLW9tYWUnLCAnPG91dGZpbGUubWFlPic=

> <r_lp_tautomer_probability>
1

> <r_epik_Ionization_Penalty>
3.03755

> <r_epik_Ionization_Penalty_Charging>
2.92994

> <r_epik_Ionization_Penalty_Neutral>
0.107609

> <r_epik_State_Penalty>
2.92594

> <r_epik_Charging_Adjusted_Penalty>
5.85589

> <i_epik_Tot_Q>
0

> <i_epik_Tot_abs_Q>
2

> <r_epik_Metal_State_Penalty>
0.448256

> <b_epik_Metal_Only>
1

> <s_lp_Force_Field>
OPLS_2005

> <r_lp_Energy>
18.025

> <b_lp_Chiralities_Consistent>
1

> <s_lp_Variant>
AV-unprocessed.smi:1638-2

> <Gold.Version>
5.8.1

> <Gold.Id.Protein>
6NUR|6NUR_protein|mol2

> <Gold.PLP.Fitness>
45.7677

> <Gold.PLP.PLP>
-40.6363

> <Gold.PLP.part.hbond>
-3.0000

> <Gold.PLP.part.metal>
0.0000

> <Gold.PLP.part.buried>
-6.7940

> <Gold.PLP.part.nonpolar>
-31.2686

> <Gold.PLP.part.repulsive>
0.2393

> <Gold.PLP.ligand.clash>
0.0000

> <Gold.PLP.ligand.torsion>
1.5936

> <Gold.PLP.Chemscore.Hbond>
2.7280

> <Gold.PLP.Chemscore.CHOScore>
0.0000

> <Gold.PLP.Chemscore.Metal>
0.0000

> <Gold.Chemscore.Hbonds>
donor molecule, donor type, donor heavy atom, donor atom, acceptor molecule, acceptor atom, score
      P1  H  6896  6909       L1     8  0.96
      P1  H  6931  6943       L1     4  0.75
      P1  H  6934  6947       L1     4  0.86

> <Gold.PLP.Chemscore.Internal.Correction>
0.1347

> <Gold.Rescore>
     Score         DG    S(hbond)    S(metal)    S(lipo)     H(rot)  DE(clash)    DE(int)     intcor
     19.05     -21.00       2.20        0.00     104.14       1.57       0.48       1.47       ----

> <Gold.Chemscore.Fitness>
19.0516

> <Gold.Chemscore.DG>
-20.9953

> <Gold.Chemscore.ZeroCoef>
-5.4800

> <Gold.Chemscore.Hbond>
2.1997

> <Gold.Chemscore.Metal>
0.0000

> <Gold.Chemscore.Lipo>
104.1368

> <Gold.Chemscore.Internal_Hbond>
0.0000

> <Gold.Chemscore.DEClash>
0.4765

> <Gold.Chemscore.DEInternal>
1.4673

> <Gold.Chemscore.Rot>
1.5686

> <Gold.Chemscore.Internal.Correction>
   9.000000E+99

> <Gold.Chemscore.Hbonds>
donor molecule, donor type, donor heavy atom, donor atom, acceptor molecule, acceptor atom, score
      P1  H  6896  6909       L1     8  0.86
      P1  H  6931  6943       L1     4  0.14
      P1  H  6934  6947       L1     4  0.46

> <Gold.Chemscore.Hbond.Weighted>
-7.3470

> <Gold.Chemscore.Metal.Weighted>
-0.0000

> <Gold.Chemscore.Lipo.Weighted>
-12.1840

> <Gold.Chemscore.Internal_Hbond.Weighted>
0.0000

> <Gold.Chemscore.DEClash.Weighted>
0.4765

> <Gold.Chemscore.DEInternal.Weighted>
1.4673

> <Gold.Chemscore.Rot.Weighted>
4.0157

> <Gold.Chemscore.Internal.Correction.Weighted>
   9.000000E+99

> <Gold.Protein.RotatedTorsions>
[ 6907 6896 6895 6894 ] final   89.67 input  -60.11 | X-H torsion
[ 7974 7965 7964 7962 ] final -144.17 input  175.53 | X-H torsion
[ 8008 7997 7996 7995 ] final  165.73 input   59.86 | X-H torsion
[ 10167 10162 10161 10158 ] final  178.33 input  -65.29 | X-H torsion
[ 10718 10713 10712 10709 ] final  123.11 input   66.30 | X-H torsion
[ 10763 10752 10751 10750 ] final  -33.61 input  -60.55 | X-H torsion
[ 11005 11000 10999 10996 ] final  -10.35 input  -57.11 | X-H torsion

> <Gold.Protein.ActiveResidues>
 VAL166  LYS551  ARG553  GLY616  TRP617  ASP618  TYR619  PRO620  LYS621  CYS622 
 ASP623  PHE694  ASN695  SER759  ASP760  ASP761  ALA762  ILE779  LEU786  VAL792 
 PHE793  MET794  SER795  GLU796  ALA797  LYS798  CYS799  TRP800  GLU811  SER814 

> <Gold.Protein.RotatedAtoms>
  152.5438  134.1931  159.8681 H   0  0  0  0  0  0  0  0  0  0  0  0  # atno 6907 bound_to 6896
  151.1925  133.4652  159.2602 H   0  0  0  0  0  0  0  0  0  0  0  0  # atno 6908 bound_to 6896
  151.1069  135.0017  159.8531 H   0  0  0  0  0  0  0  0  0  0  0  0  # atno 6909 bound_to 6896
  144.8317  140.5743  143.5511 H   0  0  0  0  0  0  0  0  0  0  0  0  # atno 7974 bound_to 7965
  156.1777  140.1662  156.8333 H   0  0  0  0  0  0  0  0  0  0  0  0  # atno 8008 bound_to 7997
  154.5325  140.0754  156.8403 H   0  0  0  0  0  0  0  0  0  0  0  0  # atno 8009 bound_to 7997
  155.3378  140.3383  155.4241 H   0  0  0  0  0  0  0  0  0  0  0  0  # atno 8010 bound_to 7997
  139.5290  144.2692  152.0642 H   0  0  0  0  0  0  0  0  0  0  0  0  # atno 10167 bound_to 10162
  157.5690  131.1084  150.8402 H   0  0  0  0  0  0  0  0  0  0  0  0  # atno 10718 bound_to 10713
  153.8330  135.6864  153.4812 H   0  0  0  0  0  0  0  0  0  0  0  0  # atno 10763 bound_to 10752
  153.1499  135.4622  154.9620 H   0  0  0  0  0  0  0  0  0  0  0  0  # atno 10764 bound_to 10752
  154.7878  135.3291  154.7791 H   0  0  0  0  0  0  0  0  0  0  0  0  # atno 10765 bound_to 10752
  140.7438  133.8648  155.8989 H   0  0  0  0  0  0  0  0  0  0  0  0  # atno 11005 bound_to 11000
  145.4882  139.1490  143.3724 LP  0  0  0  0  0  0  0  0  0  0  0  0  # atno 17320 bound_to 7965
  146.2619  140.5020  142.8850 LP  0  0  0  0  0  0  0  0  0  0  0  0  # atno 17321 bound_to 7965
  140.2153  144.4521  150.6367 LP  0  0  0  0  0  0  0  0  0  0  0  0  # atno 17342 bound_to 10162
  140.6454  143.2212  151.6197 LP  0  0  0  0  0  0  0  0  0  0  0  0  # atno 17343 bound_to 10162
  156.8878  130.5202  149.5287 LP  0  0  0  0  0  0  0  0  0  0  0  0  # atno 17370 bound_to 10713
  156.0736  130.5764  150.9432 LP  0  0  0  0  0  0  0  0  0  0  0  0  # atno 17371 bound_to 10713
  140.9813  134.1402  157.4492 LP  0  0  0  0  0  0  0  0  0  0  0  0  # atno 17394 bound_to 11000
  139.8801  135.0011  156.6049 LP  0  0  0  0  0  0  0  0  0  0  0  0  # atno 17395 bound_to 11000

$$$$
