AV-unprocessed.smi:2751|AV-procd|sdf|10602|dock8
  -GOLD-   2272015 53D 1   1.00000     0.00000
 Structure written by MMmdl.
 34 35  0  0  0  0  0  0  0  0  1 V2000
  150.3218  140.2371  154.9596 O   0  0  0  0  0  0  0  0  0  0  0  0
  149.6754  141.2827  154.8389 C   0  0  0  0  0  0  0  0  0  0  0  0
  149.8971  142.3389  155.6357 N   0  0  0  0  0  0  0  0  0  0  0  0
  150.8820  142.3964  156.7103 C   0  0  0  0  0  0  0  0  0  0  0  0
  151.4293  143.8217  156.8985 C   0  0  0  0  0  0  0  0  0  0  0  0
  152.0862  144.0331  158.2715 C   0  0  1  0  0  0  0  0  0  0  0  0
  151.4519  145.2107  159.0372 C   0  0  0  0  0  0  0  0  0  0  0  0
  152.0743  145.3466  160.4315 C   0  0  0  0  0  0  0  0  0  0  0  0
  151.9940  144.0043  161.1659 C   0  0  0  0  0  0  0  0  0  0  0  0
  152.5908  142.8845  160.2985 C   0  0  0  0  0  0  0  0  0  0  0  0
  151.9279  142.8406  159.0386 O   0  0  0  0  0  0  0  0  0  0  0  0
  148.6606  141.5726  153.9372 N   0  0  0  0  0  0  0  0  0  0  0  0
  148.0065  140.6108  153.3610 C   0  0  0  0  0  0  0  0  0  0  0  0
  148.0910  139.2232  153.4403 N   0  0  0  0  0  0  0  0  0  0  0  0
  147.1481  138.6899  152.6070 C   0  0  0  0  0  0  0  0  0  0  0  0
  146.4957  139.6933  152.0279 C   0  0  0  0  0  0  0  0  0  0  0  0
  146.9988  140.8802  152.4694 O   0  0  0  0  0  0  0  0  0  0  0  0
  149.3361  143.1655  155.4878 H   0  0  0  0  0  0  0  0  0  0  0  0
  150.4461  142.0232  157.6384 H   0  0  0  0  0  0  0  0  0  0  0  0
  151.6965  141.7175  156.4566 H   0  0  0  0  0  0  0  0  0  0  0  0
  152.1618  144.0236  156.1158 H   0  0  0  0  0  0  0  0  0  0  0  0
  150.6291  144.5507  156.7641 H   0  0  0  0  0  0  0  0  0  0  0  0
  153.1504  144.2282  158.1259 H   0  0  0  0  0  0  0  0  0  0  0  0
  151.5823  146.1390  158.4802 H   0  0  0  0  0  0  0  0  0  0  0  0
  150.3770  145.0515  159.1329 H   0  0  0  0  0  0  0  0  0  0  0  0
  153.1168  145.6542  160.3402 H   0  0  0  0  0  0  0  0  0  0  0  0
  151.5654  146.1242  161.0018 H   0  0  0  0  0  0  0  0  0  0  0  0
  152.5177  144.0636  162.1203 H   0  0  0  0  0  0  0  0  0  0  0  0
  150.9526  143.7730  161.3930 H   0  0  0  0  0  0  0  0  0  0  0  0
  153.6619  143.0325  160.1529 H   0  0  0  0  0  0  0  0  0  0  0  0
  152.4677  141.9217  160.7944 H   0  0  0  0  0  0  0  0  0  0  0  0
  148.7226  138.6666  153.9985 H   0  0  0  0  0  0  0  0  0  0  0  0
  147.0421  137.6190  152.5151 H   0  0  0  0  0  0  0  0  0  0  0  0
  145.6873  139.7269  151.3125 H   0  0  0  0  0  0  0  0  0  0  0  0
  1  2  2  0  0  0  0
  2 12  1  0  0  0  0
  2  3  1  0  0  0  0
  3  4  1  0  0  0  0
  3 18  1  0  0  0  0
  4  5  1  0  0  0  0
  4 19  1  0  0  0  0
  4 20  1  0  0  0  0
  5  6  1  0  0  0  0
  5 21  1  0  0  0  0
  5 22  1  0  0  0  0
  6 11  1  0  0  0  0
  6  7  1  0  0  0  0
  6 23  1  0  0  0  0
  7  8  1  0  0  0  0
  7 24  1  0  0  0  0
  7 25  1  0  0  0  0
  8  9  1  0  0  0  0
  8 26  1  0  0  0  0
  8 27  1  0  0  0  0
  9 10  1  0  0  0  0
  9 28  1  0  0  0  0
  9 29  1  0  0  0  0
 10 11  1  0  0  0  0
 10 30  1  0  0  0  0
 10 31  1  0  0  0  0
 12 13  2  0  0  0  0
 13 17  1  0  0  0  0
 13 14  1  0  0  0  0
 14 32  1  0  0  0  0
 14 15  1  0  0  0  0
 15 33  1  0  0  0  0
 15 16  2  0  0  0  0
 16 34  1  0  0  0  0
 16 17  1  0  0  0  0
M  END
> <s_m_source_file>
AV-unprocessed.smi

> <i_m_source_file_index>
2751

> <i_lp_mmshare_version>
43012

> <i_f3d_flags>
0

> <s_epik_input>
bzFbY0hdW2NIXW5jMVtOSF1DKD1PKVtOSF1bQ0gyXVtDSDJdW0NAQEhdMltDSDJdW0NIMl1bQ0gyXVtDSDJdTzI=

> <s_epik_cmdline>
J2VwaWtfcHl0aG9uJywgJy1waCcsICc3LjAnLCAnLXRuJywgJzgnLCAnLW1hJywgJzIwMCcsICctbWV0YWxfYmluZGluZycsICctaW1hZScsICc8aW5maWxlLm1hZT4nLCAnLW9tYWUnLCAnPG91dGZpbGUubWFlPic=

> <r_lp_tautomer_probability>
0.107061

> <r_epik_Ionization_Penalty>
1.421

> <r_epik_Ionization_Penalty_Charging>
1.42064

> <r_epik_Ionization_Penalty_Neutral>
0.0003614

> <r_epik_State_Penalty>
2.61489

> <r_epik_Charging_Adjusted_Penalty>
4.03553

> <i_epik_Tot_Q>
0

> <i_epik_Tot_abs_Q>
0

> <r_epik_Metal_State_Penalty>
3.57288

> <b_epik_Metal_Only>
0

> <s_lp_Force_Field>
OPLS_2005

> <r_lp_Energy>
32.5629

> <b_lp_Chiralities_Consistent>
1

> <s_lp_Variant>
AV-unprocessed.smi:2751-8

> <Gold.Version>
5.8.1

> <Gold.Id.Protein>
6NUR|6NUR_protein|mol2

> <Gold.PLP.Fitness>
46.8718

> <Gold.PLP.PLP>
-34.7441

> <Gold.PLP.part.hbond>
-3.9507

> <Gold.PLP.part.metal>
0.0000

> <Gold.PLP.part.buried>
6.1798

> <Gold.PLP.part.nonpolar>
-37.6876

> <Gold.PLP.part.repulsive>
0.6979

> <Gold.PLP.ligand.clash>
0.0000

> <Gold.PLP.ligand.torsion>
1.1118

> <Gold.PLP.Chemscore.Hbond>
2.1594

> <Gold.PLP.Chemscore.CHOScore>
2.6197

> <Gold.PLP.Chemscore.Metal>
0.0000

> <Gold.Chemscore.Hbonds>
donor molecule, donor type, donor heavy atom, donor atom, acceptor molecule, acceptor atom, score
      L1  H     3    18       P1  8028  1.00
      P1  H  7989  7998       L1     1  0.46
      P1  H  8011  8017       L1    12  0.48
      L1  C    15    33       P1  7948  0.80
      L1  C    16    34       P1 10171  0.86
      L1  C    16    34       P1 10175  0.59

> <Gold.PLP.Chemscore.Internal.Correction>
0.0138

> <Gold.Rescore>
     Score         DG    S(hbond)    S(metal)    S(lipo)     H(rot)  DE(clash)    DE(int)     intcor
     12.83     -17.48       1.35        0.00      99.81       1.63       3.85       0.80       ----

> <Gold.Chemscore.Fitness>
12.8298

> <Gold.Chemscore.DG>
-17.4819

> <Gold.Chemscore.ZeroCoef>
-5.4800

> <Gold.Chemscore.Hbond>
1.3486

> <Gold.Chemscore.Metal>
0.0000

> <Gold.Chemscore.Lipo>
99.8064

> <Gold.Chemscore.Internal_Hbond>
0.0000

> <Gold.Chemscore.DEClash>
3.8506

> <Gold.Chemscore.DEInternal>
0.8016

> <Gold.Chemscore.Rot>
1.6328

> <Gold.Chemscore.Internal.Correction>
   9.000000E+99

> <Gold.Chemscore.Hbonds>
donor molecule, donor type, donor heavy atom, donor atom, acceptor molecule, acceptor atom, score
      L1  H     3    18       P1  8028  0.99
      P1  H  7989  7998       L1     1  0.02
      P1  H  8011  8017       L1    12  0.06

> <Gold.Chemscore.Hbond.Weighted>
-4.5045

> <Gold.Chemscore.Metal.Weighted>
-0.0000

> <Gold.Chemscore.Lipo.Weighted>
-11.6774

> <Gold.Chemscore.Internal_Hbond.Weighted>
0.0000

> <Gold.Chemscore.DEClash.Weighted>
3.8506

> <Gold.Chemscore.DEInternal.Weighted>
0.8016

> <Gold.Chemscore.Rot.Weighted>
4.1799

> <Gold.Chemscore.Internal.Correction.Weighted>
   9.000000E+99

> <Gold.Protein.RotatedTorsions>
[ 6907 6896 6895 6894 ] final   36.66 input  -60.11 | X-H torsion
[ 7974 7965 7964 7962 ] final  170.42 input  175.53 | X-H torsion
[ 8008 7997 7996 7995 ] final   -5.00 input   59.86 | X-H torsion
[ 10167 10162 10161 10158 ] final  -93.19 input  -65.29 | X-H torsion
[ 10718 10713 10712 10709 ] final  -30.26 input   66.30 | X-H torsion
[ 10763 10752 10751 10750 ] final   74.35 input  -60.55 | X-H torsion
[ 11005 11000 10999 10996 ] final   88.54 input  -57.11 | X-H torsion

> <Gold.Protein.ActiveResidues>
 VAL166  LYS551  ARG553  GLY616  TRP617  ASP618  TYR619  PRO620  LYS621  CYS622 
 ASP623  PHE694  ASN695  SER759  ASP760  ASP761  ALA762  ILE779  LEU786  VAL792 
 PHE793  MET794  SER795  GLU796  ALA797  LYS798  CYS799  TRP800  GLU811  SER814 

> <Gold.Protein.RotatedAtoms>
  152.1328  134.9122  160.0557 H   0  0  0  0  0  0  0  0  0  0  0  0  # atno 6907 bound_to 6896
  152.0220  133.3897  159.4270 H   0  0  0  0  0  0  0  0  0  0  0  0  # atno 6908 bound_to 6896
  150.6858  134.3537  159.4964 H   0  0  0  0  0  0  0  0  0  0  0  0  # atno 6909 bound_to 6896
  144.7324  139.9199  143.6419 H   0  0  0  0  0  0  0  0  0  0  0  0  # atno 7974 bound_to 7965
  154.6084  140.2469  155.7701 H   0  0  0  0  0  0  0  0  0  0  0  0  # atno 8008 bound_to 7997
  156.2355  140.2951  156.0252 H   0  0  0  0  0  0  0  0  0  0  0  0  # atno 8009 bound_to 7997
  155.2093  140.0397  157.2921 H   0  0  0  0  0  0  0  0  0  0  0  0  # atno 8010 bound_to 7997
  140.3272  143.3015  151.9982 H   0  0  0  0  0  0  0  0  0  0  0  0  # atno 10167 bound_to 10162
  156.4021  130.4392  149.7315 H   0  0  0  0  0  0  0  0  0  0  0  0  # atno 10718 bound_to 10713
  153.0581  135.5029  154.8030 H   0  0  0  0  0  0  0  0  0  0  0  0  # atno 10763 bound_to 10752
  154.6840  135.2973  154.9576 H   0  0  0  0  0  0  0  0  0  0  0  0  # atno 10764 bound_to 10752
  154.0353  135.6724  153.4837 H   0  0  0  0  0  0  0  0  0  0  0  0  # atno 10765 bound_to 10752
  139.8894  134.8494  156.3014 H   0  0  0  0  0  0  0  0  0  0  0  0  # atno 11005 bound_to 11000
  146.0937  139.3928  143.0390 LP  0  0  0  0  0  0  0  0  0  0  0  0  # atno 17320 bound_to 7965
  145.7675  140.9910  143.1167 LP  0  0  0  0  0  0  0  0  0  0  0  0  # atno 17321 bound_to 7965
  139.4863  144.6264  151.7155 LP  0  0  0  0  0  0  0  0  0  0  0  0  # atno 17342 bound_to 10162
  140.5430  144.0548  150.6096 LP  0  0  0  0  0  0  0  0  0  0  0  0  # atno 17343 bound_to 10162
  156.4327  130.7823  151.2843 LP  0  0  0  0  0  0  0  0  0  0  0  0  # atno 17370 bound_to 10713
  157.7504  131.0149  150.3483 LP  0  0  0  0  0  0  0  0  0  0  0  0  # atno 17371 bound_to 10713
  140.9911  133.7208  156.0815 LP  0  0  0  0  0  0  0  0  0  0  0  0  # atno 17394 bound_to 11000
  140.7624  134.3924  157.5523 LP  0  0  0  0  0  0  0  0  0  0  0  0  # atno 17395 bound_to 11000

$$$$
