AV-unprocessed.smi:2784|AV-procd|sdf|10734|dock2
  -GOLD-   2272015173D 1   1.00000     0.00000
 Structure written by MMmdl.
 31 32  0  0  0  0  0  0  0  0  1 V2000
  152.8035  142.3652  161.5843 C   0  0  0  0  0  0  0  0  0  0  0  0
  153.4083  142.4508  160.3035 O   0  0  0  0  0  0  0  0  0  0  0  0
  152.6669  143.2312  159.3757 C   0  0  2  0  0  0  0  0  0  0  0  0
  152.3594  144.5993  159.9906 C   0  0  0  0  0  0  0  0  0  0  0  0
  151.0696  145.0398  159.3079 C   0  0  0  0  0  0  0  0  0  0  0  0
  150.2597  143.7494  159.1867 C   0  0  0  0  0  0  0  0  0  0  0  0
  151.2918  142.6146  159.0300 C   0  0  1  0  0  0  0  0  0  0  0  0
  151.2934  142.0908  157.6662 N   0  0  0  0  0  0  0  0  0  0  0  0
  152.0327  141.0619  157.2268 C   0  0  0  0  0  0  0  0  0  0  0  0
  152.7970  140.4457  157.9761 O   0  0  0  0  0  0  0  0  0  0  0  0
  151.8176  140.8626  155.8714 N   0  0  0  0  0  0  0  0  0  0  0  0
  151.0369  139.9016  155.4822 C   0  0  0  0  0  0  0  0  0  0  0  0
  150.3195  138.9264  156.1701 N   0  0  0  0  0  0  0  0  0  0  0  0
  149.6641  138.1536  155.2530 C   0  0  0  0  0  0  0  0  0  0  0  0
  149.9540  138.6174  154.0411 C   0  0  0  0  0  0  0  0  0  0  0  0
  150.7921  139.6864  154.1495 O   0  0  0  0  0  0  0  0  0  0  0  0
  153.4120  141.7347  162.2324 H   0  0  0  0  0  0  0  0  0  0  0  0
  151.8096  141.9206  161.5222 H   0  0  0  0  0  0  0  0  0  0  0  0
  152.7189  143.3442  162.0565 H   0  0  0  0  0  0  0  0  0  0  0  0
  153.2550  143.3985  158.4705 H   0  0  0  0  0  0  0  0  0  0  0  0
  152.1815  144.4951  161.0620 H   0  0  0  0  0  0  0  0  0  0  0  0
  153.1740  145.3117  159.8571 H   0  0  0  0  0  0  0  0  0  0  0  0
  150.5428  145.8160  159.8635 H   0  0  0  0  0  0  0  0  0  0  0  0
  151.2931  145.4308  158.3144 H   0  0  0  0  0  0  0  0  0  0  0  0
  149.6947  143.5935  160.1067 H   0  0  0  0  0  0  0  0  0  0  0  0
  149.5354  143.7963  158.3723 H   0  0  0  0  0  0  0  0  0  0  0  0
  151.0542  141.8172  159.7369 H   0  0  0  0  0  0  0  0  0  0  0  0
  150.6945  142.5571  157.0004 H   0  0  0  0  0  0  0  0  0  0  0  0
  150.2641  138.7791  157.1679 H   0  0  0  0  0  0  0  0  0  0  0  0
  149.0429  137.3308  155.5750 H   0  0  0  0  0  0  0  0  0  0  0  0
  149.6580  138.3115  153.0485 H   0  0  0  0  0  0  0  0  0  0  0  0
  1  2  1  0  0  0  0
  1 17  1  0  0  0  0
  1 18  1  0  0  0  0
  1 19  1  0  0  0  0
  2  3  1  0  0  0  0
  3  7  1  0  0  0  0
  3  4  1  0  0  0  0
  3 20  1  0  0  0  0
  4  5  1  0  0  0  0
  4 21  1  0  0  0  0
  4 22  1  0  0  0  0
  5  6  1  0  0  0  0
  5 23  1  0  0  0  0
  5 24  1  0  0  0  0
  6  7  1  0  0  0  0
  6 25  1  0  0  0  0
  6 26  1  0  0  0  0
  7  8  1  0  0  0  0
  7 27  1  0  0  0  0
  8 28  1  0  0  0  0
  8  9  1  0  0  0  0
  9 11  1  0  0  0  0
  9 10  2  0  0  0  0
 11 12  2  0  0  0  0
 12 16  1  0  0  0  0
 12 13  1  0  0  0  0
 13 29  1  0  0  0  0
 13 14  1  0  0  0  0
 14 30  1  0  0  0  0
 14 15  2  0  0  0  0
 15 31  1  0  0  0  0
 15 16  1  0  0  0  0
M  END
> <s_m_source_file>
AV-unprocessed.smi

> <i_m_source_file_index>
2784

> <i_lp_mmshare_version>
43012

> <i_f3d_flags>
0

> <s_epik_input>
W0NIM11PW0NAQEhdMVtDSDJdW0NIMl1bQ0gyXVtDQEhdMVtOSF1DKD1PKVtOSF1jMm5bY0hdW2NIXW8y

> <s_epik_cmdline>
J2VwaWtfcHl0aG9uJywgJy1waCcsICc3LjAnLCAnLXRuJywgJzgnLCAnLW1hJywgJzIwMCcsICctbWV0YWxfYmluZGluZycsICctaW1hZScsICc8aW5maWxlLm1hZT4nLCAnLW9tYWUnLCAnPG91dGZpbGUubWFlPic=

> <r_lp_tautomer_probability>
0.107061

> <r_epik_Ionization_Penalty>
1.29244

> <r_epik_Ionization_Penalty_Charging>
1.29208

> <r_epik_Ionization_Penalty_Neutral>
0.000359742

> <r_epik_State_Penalty>
2.59896

> <r_epik_Charging_Adjusted_Penalty>
3.89105

> <i_epik_Tot_Q>
0

> <i_epik_Tot_abs_Q>
0

> <r_epik_Metal_State_Penalty>
3.62496

> <b_epik_Metal_Only>
0

> <s_lp_Force_Field>
OPLS_2005

> <r_lp_Energy>
42.7812

> <b_lp_Chiralities_Consistent>
1

> <s_lp_Variant>
AV-unprocessed.smi:2784-9

> <Gold.Version>
5.8.1

> <Gold.Id.Protein>
6NUR|6NUR_protein|mol2

> <Gold.PLP.Fitness>
37.1231

> <Gold.PLP.PLP>
-28.4210

> <Gold.PLP.part.hbond>
-2.8030

> <Gold.PLP.part.metal>
0.0000

> <Gold.PLP.part.buried>
-3.3153

> <Gold.PLP.part.nonpolar>
-21.2454

> <Gold.PLP.part.repulsive>
0.2301

> <Gold.PLP.ligand.clash>
0.0000

> <Gold.PLP.ligand.torsion>
0.7640

> <Gold.PLP.Chemscore.Hbond>
1.6198

> <Gold.PLP.Chemscore.CHOScore>
1.7880

> <Gold.PLP.Chemscore.Metal>
0.0000

> <Gold.Chemscore.Hbonds>
donor molecule, donor type, donor heavy atom, donor atom, acceptor molecule, acceptor atom, score
      P1  H  7989  7998       L1    16  1.00
      P1  H  7997  8008       L1    10  0.84
      L1  C    15    31       P1  7948  1.00
      L1  C    15    31       P1  7957  0.78

> <Gold.PLP.Chemscore.Internal.Correction>
0.0067

> <Gold.Rescore>
     Score         DG    S(hbond)    S(metal)    S(lipo)     H(rot)  DE(clash)    DE(int)     intcor
     12.84     -13.90       0.90        0.00      75.36       1.32       0.39       0.68       ----

> <Gold.Chemscore.Fitness>
12.8379

> <Gold.Chemscore.DG>
-13.9001

> <Gold.Chemscore.ZeroCoef>
-5.4800

> <Gold.Chemscore.Hbond>
0.8956

> <Gold.Chemscore.Metal>
0.0000

> <Gold.Chemscore.Lipo>
75.3578

> <Gold.Chemscore.Internal_Hbond>
0.0000

> <Gold.Chemscore.DEClash>
0.3856

> <Gold.Chemscore.DEInternal>
0.6766

> <Gold.Chemscore.Rot>
1.3235

> <Gold.Chemscore.Internal.Correction>
   9.000000E+99

> <Gold.Chemscore.Hbonds>
donor molecule, donor type, donor heavy atom, donor atom, acceptor molecule, acceptor atom, score
      P1  H  7989  7998       L1    16  0.34
      P1  H  7997  8008       L1    10  0.39

> <Gold.Chemscore.Hbond.Weighted>
-2.9914

> <Gold.Chemscore.Metal.Weighted>
-0.0000

> <Gold.Chemscore.Lipo.Weighted>
-8.8169

> <Gold.Chemscore.Internal_Hbond.Weighted>
0.0000

> <Gold.Chemscore.DEClash.Weighted>
0.3856

> <Gold.Chemscore.DEInternal.Weighted>
0.6766

> <Gold.Chemscore.Rot.Weighted>
3.3882

> <Gold.Chemscore.Internal.Correction.Weighted>
   9.000000E+99

> <Gold.Protein.RotatedTorsions>
[ 6907 6896 6895 6894 ] final  137.73 input  -60.11 | X-H torsion
[ 7974 7965 7964 7962 ] final   21.65 input  175.53 | X-H torsion
[ 8008 7997 7996 7995 ] final  -72.68 input   59.86 | X-H torsion
[ 10167 10162 10161 10158 ] final  172.85 input  -65.29 | X-H torsion
[ 10718 10713 10712 10709 ] final  -18.11 input   66.30 | X-H torsion
[ 10763 10752 10751 10750 ] final  -49.93 input  -60.55 | X-H torsion
[ 11005 11000 10999 10996 ] final  -61.97 input  -57.11 | X-H torsion

> <Gold.Protein.ActiveResidues>
 VAL166  LYS551  ARG553  GLY616  TRP617  ASP618  TYR619  PRO620  LYS621  CYS622 
 ASP623  PHE694  ASN695  SER759  ASP760  ASP761  ALA762  ILE779  LEU786  VAL792 
 PHE793  MET794  SER795  GLU796  ALA797  LYS798  CYS799  TRP800  GLU811  SER814 

> <Gold.Protein.RotatedAtoms>
  152.2747  133.5415  159.5460 H   0  0  0  0  0  0  0  0  0  0  0  0  # atno 6907 bound_to 6896
  150.7172  134.0648  159.3853 H   0  0  0  0  0  0  0  0  0  0  0  0  # atno 6908 bound_to 6896
  151.8561  135.0540  160.0515 H   0  0  0  0  0  0  0  0  0  0  0  0  # atno 6909 bound_to 6896
  146.2062  139.7997  142.8724 H   0  0  0  0  0  0  0  0  0  0  0  0  # atno 7974 bound_to 7965
  154.5186  140.0793  156.8129 H   0  0  0  0  0  0  0  0  0  0  0  0  # atno 8008 bound_to 7997
  155.3626  140.3418  155.4223 H   0  0  0  0  0  0  0  0  0  0  0  0  # atno 8009 bound_to 7997
  156.1656  140.1602  156.8525 H   0  0  0  0  0  0  0  0  0  0  0  0  # atno 8010 bound_to 7997
  139.5089  144.3328  152.0095 H   0  0  0  0  0  0  0  0  0  0  0  0  # atno 10167 bound_to 10162
  156.5641  130.4733  149.6393 H   0  0  0  0  0  0  0  0  0  0  0  0  # atno 10718 bound_to 10713
  154.1022  135.6561  153.4870 H   0  0  0  0  0  0  0  0  0  0  0  0  # atno 10763 bound_to 10752
  153.0285  135.5227  154.7275 H   0  0  0  0  0  0  0  0  0  0  0  0  # atno 10764 bound_to 10752
  154.6431  135.2991  155.0049 H   0  0  0  0  0  0  0  0  0  0  0  0  # atno 10765 bound_to 10752
  141.1343  133.6635  156.5456 H   0  0  0  0  0  0  0  0  0  0  0  0  # atno 11005 bound_to 11000
  145.3309  141.0266  143.3447 LP  0  0  0  0  0  0  0  0  0  0  0  0  # atno 17320 bound_to 7965
  144.8799  139.4918  143.6728 LP  0  0  0  0  0  0  0  0  0  0  0  0  # atno 17321 bound_to 7965
  140.2767  144.3905  150.6133 LP  0  0  0  0  0  0  0  0  0  0  0  0  # atno 17342 bound_to 10162
  140.6048  143.2167  151.7001 LP  0  0  0  0  0  0  0  0  0  0  0  0  # atno 17343 bound_to 10162
  156.2773  130.7051  151.1865 LP  0  0  0  0  0  0  0  0  0  0  0  0  # atno 17370 bound_to 10713
  157.7362  131.0564  150.5425 LP  0  0  0  0  0  0  0  0  0  0  0  0  # atno 17371 bound_to 10713
  140.4105  134.7276  157.4833 LP  0  0  0  0  0  0  0  0  0  0  0  0  # atno 17394 bound_to 11000
  140.0431  134.6239  155.8956 LP  0  0  0  0  0  0  0  0  0  0  0  0  # atno 17395 bound_to 11000

$$$$
