AV-unprocessed.smi:2975|AV-procd|sdf|11358|dock10
  -GOLD-   2272016273D 1   1.00000     0.00000
 Structure written by MMmdl.
 40 42  0  0  0  0  0  0  0  0  2 V2000
  147.7081  141.7277  154.6029 C   0  0  0  0  0  0  0  0  0  0  0  0
  148.9798  140.8698  154.5726 C   0  0  1  0  0  0  0  0  0  0  0  0
  149.6097  141.0441  153.3205 O   0  0  0  0  0  0  0  0  0  0  0  0
  149.8871  141.2248  155.7102 C   0  0  0  0  0  0  0  0  0  0  0  0
  150.1933  142.4920  156.1104 N   0  3  0  0  0  0  0  0  0  0  0  0
  151.0354  142.4498  157.2210 C   0  0  0  0  0  0  0  0  0  0  0  0
  151.6041  143.4738  157.9720 C   0  0  0  0  0  0  0  0  0  0  0  0
  152.4155  143.0860  159.0583 C   0  0  0  0  0  0  0  0  0  0  0  0
  152.6334  141.7266  159.3628 C   0  0  0  0  0  0  0  0  0  0  0  0
  152.0517  140.6973  158.5929 C   0  0  0  0  0  0  0  0  0  0  0  0
  151.2536  141.0892  157.5180 C   0  0  0  0  0  0  0  0  0  0  0  0
  150.5328  140.3693  156.5571 N   0  0  0  0  0  0  0  0  0  0  0  0
  150.5563  138.8999  156.6012 C   0  0  0  0  0  0  0  0  0  0  0  0
  150.0634  138.3610  157.9491 C   0  0  0  0  0  0  0  0  0  0  0  0
  149.8687  136.9592  157.8309 O   0  0  0  0  0  0  0  0  0  0  0  0
  149.0785  136.3280  158.7685 C   0  0  0  0  0  0  0  0  0  0  0  0
  148.6938  136.9083  160.0043 C   0  0  0  0  0  0  0  0  0  0  0  0
  147.8789  136.1947  160.9050 C   0  0  0  0  0  0  0  0  0  0  0  0
  147.4414  134.8963  160.5861 C   0  0  0  0  0  0  0  0  0  0  0  0
  147.8205  134.3108  159.3644 C   0  0  0  0  0  0  0  0  0  0  0  0
  148.6341  135.0236  158.4623 C   0  0  0  0  0  0  0  0  0  0  0  0
  148.9910  134.4484  157.2890 F   0  0  0  0  0  0  0  0  0  0  0  0
  147.1643  141.5915  155.5378 H   0  0  0  0  0  0  0  0  0  0  0  0
  147.0333  141.4603  153.7892 H   0  0  0  0  0  0  0  0  0  0  0  0
  147.9408  142.7888  154.5068 H   0  0  0  0  0  0  0  0  0  0  0  0
  148.6999  139.8196  154.6480 H   0  0  0  0  0  0  0  0  0  0  0  0
  149.1957  140.4710  152.6932 H   0  0  0  0  0  0  0  0  0  0  0  0
  151.4355  144.5158  157.7421 H   0  0  0  0  0  0  0  0  0  0  0  0
  152.8784  143.8461  159.6710 H   0  0  0  0  0  0  0  0  0  0  0  0
  153.2590  141.4674  160.2046 H   0  0  0  0  0  0  0  0  0  0  0  0
  152.2240  139.6599  158.8383 H   0  0  0  0  0  0  0  0  0  0  0  0
  149.9296  138.5255  155.7922 H   0  0  0  0  0  0  0  0  0  0  0  0
  151.5664  138.5511  156.3857 H   0  0  0  0  0  0  0  0  0  0  0  0
  150.7982  138.5749  158.7269 H   0  0  0  0  0  0  0  0  0  0  0  0
  149.1264  138.8500  158.2188 H   0  0  0  0  0  0  0  0  0  0  0  0
  149.0102  137.9009  160.2863 H   0  0  0  0  0  0  0  0  0  0  0  0
  147.5890  136.6454  161.8428 H   0  0  0  0  0  0  0  0  0  0  0  0
  146.8167  134.3500  161.2776 H   0  0  0  0  0  0  0  0  0  0  0  0
  147.4867  133.3139  159.1175 H   0  0  0  0  0  0  0  0  0  0  0  0
  149.8432  143.3240  155.6527 H   0  0  0  0  0  0  0  0  0  0  0  0
  1  2  1  0  0  0  0
  1 23  1  0  0  0  0
  1 24  1  0  0  0  0
  1 25  1  0  0  0  0
  2  3  1  0  0  0  0
  2  4  1  0  0  0  0
  2 26  1  0  0  0  0
  3 27  1  0  0  0  0
  4 12  1  0  0  0  0
  4  5  2  0  0  0  0
  5  6  1  0  0  0  0
  5 40  1  0  0  0  0
  6 11  2  0  0  0  0
  6  7  1  0  0  0  0
  7  8  2  0  0  0  0
  7 28  1  0  0  0  0
  8  9  1  0  0  0  0
  8 29  1  0  0  0  0
  9 10  2  0  0  0  0
  9 30  1  0  0  0  0
 10 11  1  0  0  0  0
 10 31  1  0  0  0  0
 11 12  1  0  0  0  0
 12 13  1  0  0  0  0
 13 14  1  0  0  0  0
 13 32  1  0  0  0  0
 13 33  1  0  0  0  0
 14 15  1  0  0  0  0
 14 34  1  0  0  0  0
 14 35  1  0  0  0  0
 15 16  1  0  0  0  0
 16 21  1  0  0  0  0
 16 17  2  0  0  0  0
 17 18  1  0  0  0  0
 17 36  1  0  0  0  0
 18 19  2  0  0  0  0
 18 37  1  0  0  0  0
 19 20  1  0  0  0  0
 19 38  1  0  0  0  0
 20 21  2  0  0  0  0
 20 39  1  0  0  0  0
 21 22  1  0  0  0  0
M  CHG  1   5   1
M  END
> <s_m_source_file>
AV-unprocessed.smi

> <i_m_source_file_index>
2975

> <i_lp_mmshare_version>
43012

> <i_f3d_flags>
0

> <s_epik_input>
W2NIXTFbY0hdW2NIXVtjSF1jKGMxMiluKGMobjIpW0NASF0oW0NIM10pW09IXSlbQ0gyXVtDSDJdT2MzW2NIXVtjSF1bY0hdW2NIXWMzRg==

> <s_epik_cmdline>
J2VwaWtfcHl0aG9uJywgJy1waCcsICc3LjAnLCAnLXRuJywgJzgnLCAnLW1hJywgJzIwMCcsICctbWV0YWxfYmluZGluZycsICctaW1hZScsICc8aW5maWxlLm1hZT4nLCAnLW9tYWUnLCAnPG91dGZpbGUubWFlPic=

> <r_lp_tautomer_probability>
1

> <r_epik_Ionization_Penalty>
1.61121

> <r_epik_Ionization_Penalty_Charging>
1.61119

> <r_epik_Ionization_Penalty_Neutral>
2.92192e-05

> <r_epik_State_Penalty>
1.71016

> <r_epik_Charging_Adjusted_Penalty>
3.32134

> <i_epik_Tot_Q>
1

> <i_epik_Tot_abs_Q>
1

> <r_epik_Metal_State_Penalty>
5.76893

> <b_epik_Metal_Only>
0

> <s_lp_Force_Field>
OPLS_2005

> <r_lp_Energy>
20.882

> <b_lp_Chiralities_Consistent>
1

> <s_lp_Variant>
AV-unprocessed.smi:2975-4

> <Gold.Version>
5.8.1

> <Gold.Id.Protein>
6NUR|6NUR_protein|mol2

> <Gold.PLP.Fitness>
49.3505

> <Gold.PLP.PLP>
-39.3119

> <Gold.PLP.part.hbond>
-3.4733

> <Gold.PLP.part.metal>
0.0000

> <Gold.PLP.part.buried>
-3.9788

> <Gold.PLP.part.nonpolar>
-33.1600

> <Gold.PLP.part.repulsive>
0.1188

> <Gold.PLP.ligand.clash>
0.0000

> <Gold.PLP.ligand.torsion>
0.6940

> <Gold.PLP.Chemscore.Hbond>
3.8000

> <Gold.PLP.Chemscore.CHOScore>
0.0000

> <Gold.PLP.Chemscore.Metal>
0.0000

> <Gold.Chemscore.Hbonds>
donor molecule, donor type, donor heavy atom, donor atom, acceptor molecule, acceptor atom, score
      L1  H     3    27       P1  7957  0.62
      L1  H     5    40       P1  8028  2.00
      P1  H  7989  7998       L1     3  0.18
      P1  H  8011  8017       L1     3  0.95

> <Gold.PLP.Chemscore.Internal.Correction>
0.0266

> <Gold.Rescore>
     Score         DG    S(hbond)    S(metal)    S(lipo)     H(rot)  DE(clash)    DE(int)     intcor
     18.02     -18.63       2.11        0.00     101.87       2.28       0.14       0.47       ----

> <Gold.Chemscore.Fitness>
18.0216

> <Gold.Chemscore.DG>
-18.6270

> <Gold.Chemscore.ZeroCoef>
-5.4800

> <Gold.Chemscore.Hbond>
2.1133

> <Gold.Chemscore.Metal>
0.0000

> <Gold.Chemscore.Lipo>
101.8698

> <Gold.Chemscore.Internal_Hbond>
0.0000

> <Gold.Chemscore.DEClash>
0.1360

> <Gold.Chemscore.DEInternal>
0.4694

> <Gold.Chemscore.Rot>
2.2774

> <Gold.Chemscore.Internal.Correction>
   9.000000E+99

> <Gold.Chemscore.Hbonds>
donor molecule, donor type, donor heavy atom, donor atom, acceptor molecule, acceptor atom, score
      L1  H     3    27       P1  7957  0.64
      L1  H     5    40       P1  8028  0.95
      P1  H  7989  7998       L1     3  0.14
      P1  H  8011  8017       L1     3  0.21

> <Gold.Chemscore.Hbond.Weighted>
-7.0584

> <Gold.Chemscore.Metal.Weighted>
-0.0000

> <Gold.Chemscore.Lipo.Weighted>
-11.9188

> <Gold.Chemscore.Internal_Hbond.Weighted>
0.0000

> <Gold.Chemscore.DEClash.Weighted>
0.1360

> <Gold.Chemscore.DEInternal.Weighted>
0.4694

> <Gold.Chemscore.Rot.Weighted>
5.8302

> <Gold.Chemscore.Internal.Correction.Weighted>
   9.000000E+99

> <Gold.Protein.RotatedTorsions>
[ 6907 6896 6895 6894 ] final  -59.05 input  -60.11 | X-H torsion
[ 7974 7965 7964 7962 ] final  -72.13 input  175.53 | X-H torsion
[ 8008 7997 7996 7995 ] final  140.02 input   59.86 | X-H torsion
[ 10167 10162 10161 10158 ] final  135.93 input  -65.29 | X-H torsion
[ 10718 10713 10712 10709 ] final  -61.43 input   66.30 | X-H torsion
[ 10763 10752 10751 10750 ] final -131.49 input  -60.55 | X-H torsion
[ 11005 11000 10999 10996 ] final  -60.76 input  -57.11 | X-H torsion

> <Gold.Protein.ActiveResidues>
 VAL166  LYS551  ARG553  GLY616  TRP617  ASP618  TYR619  PRO620  LYS621  CYS622 
 ASP623  PHE694  ASN695  SER759  ASP760  ASP761  ALA762  ILE779  LEU786  VAL792 
 PHE793  MET794  SER795  GLU796  ALA797  LYS798  CYS799  TRP800  GLU811  SER814 

> <Gold.Protein.RotatedAtoms>
  150.7960  134.7019  159.6554 H   0  0  0  0  0  0  0  0  0  0  0  0  # atno 6907 bound_to 6896
  152.4072  134.6184  160.0054 H   0  0  0  0  0  0  0  0  0  0  0  0  # atno 6908 bound_to 6896
  151.6438  133.3287  159.3172 H   0  0  0  0  0  0  0  0  0  0  0  0  # atno 6909 bound_to 6896
  145.6691  140.9227  143.0892 H   0  0  0  0  0  0  0  0  0  0  0  0  # atno 7974 bound_to 7965
  156.2984  140.2352  156.4333 H   0  0  0  0  0  0  0  0  0  0  0  0  # atno 8008 bound_to 7997
  154.8251  140.0436  157.1458 H   0  0  0  0  0  0  0  0  0  0  0  0  # atno 8009 bound_to 7997
  154.9271  140.3011  155.5190 H   0  0  0  0  0  0  0  0  0  0  0  0  # atno 8010 bound_to 7997
  139.5198  144.6491  151.5354 H   0  0  0  0  0  0  0  0  0  0  0  0  # atno 10167 bound_to 10162
  156.0922  130.4198  150.0993 H   0  0  0  0  0  0  0  0  0  0  0  0  # atno 10718 bound_to 10713
  154.8750  135.3828  154.4255 H   0  0  0  0  0  0  0  0  0  0  0  0  # atno 10763 bound_to 10752
  153.4955  135.7030  153.5866 H   0  0  0  0  0  0  0  0  0  0  0  0  # atno 10764 bound_to 10752
  153.4221  135.3899  155.2084 H   0  0  0  0  0  0  0  0  0  0  0  0  # atno 10765 bound_to 10752
  141.1299  133.6624  156.5272 H   0  0  0  0  0  0  0  0  0  0  0  0  # atno 11005 bound_to 11000
  144.7063  139.8549  143.7429 LP  0  0  0  0  0  0  0  0  0  0  0  0  # atno 17320 bound_to 7965
  146.1061  139.4060  143.0317 LP  0  0  0  0  0  0  0  0  0  0  0  0  # atno 17321 bound_to 7965
  140.6288  143.9116  150.6588 LP  0  0  0  0  0  0  0  0  0  0  0  0  # atno 17342 bound_to 10162
  140.2413  143.3661  152.1484 LP  0  0  0  0  0  0  0  0  0  0  0  0  # atno 17343 bound_to 10162
  156.9001  130.9617  151.3577 LP  0  0  0  0  0  0  0  0  0  0  0  0  # atno 17370 bound_to 10713
  157.6074  130.8557  149.8897 LP  0  0  0  0  0  0  0  0  0  0  0  0  # atno 17371 bound_to 10713
  140.4245  134.7157  157.4908 LP  0  0  0  0  0  0  0  0  0  0  0  0  # atno 17394 bound_to 11000
  140.0337  134.6369  155.9073 LP  0  0  0  0  0  0  0  0  0  0  0  0  # atno 17395 bound_to 11000

$$$$
