AV-unprocessed.smi:223|AV-procd|sdf|1704|dock6
  -GOLD-   2262020163D 1   1.00000     0.00000
 Structure written by MMmdl.
 47 50  0  0  0  0  0  0  0  0  1 V2000
  139.0031  138.5242  154.6882 C   0  0  0  0  0  0  0  0  0  0  0  0
  138.5380  137.9243  156.0199 C   0  0  1  0  0  0  0  0  0  0  0  0
  137.0817  137.7086  156.0053 C   0  0  0  0  0  0  0  0  0  0  0  0
  135.9373  137.5381  155.9953 N   0  0  0  0  0  0  0  0  0  0  0  0
  139.3225  136.6372  156.3515 C   0  0  0  0  0  0  0  0  0  0  0  0
  140.6931  136.8757  156.8048 N   0  0  0  0  0  0  0  0  0  0  0  0
  141.6513  136.9650  155.8429 C   0  0  0  0  0  0  0  0  0  0  0  0
  142.4940  138.0329  155.8417 N   0  0  0  0  0  0  0  0  0  0  0  0
  143.4266  138.1614  154.8946 C   0  0  0  0  0  0  0  0  0  0  0  0
  143.6904  137.3505  153.8697 N   0  0  0  0  0  0  0  0  0  0  0  0
  142.8601  136.2691  153.8684 C   0  0  0  0  0  0  0  0  0  0  0  0
  141.8202  136.0023  154.8049 C   0  0  0  0  0  0  0  0  0  0  0  0
  141.1900  134.8078  154.4747 N   0  0  0  0  0  0  0  0  0  0  0  0
  141.8128  134.3991  153.4038 C   0  0  0  0  0  0  0  0  0  0  0  0
  142.8394  135.2098  152.9769 N   0  0  0  0  0  0  0  0  0  0  0  0
  143.6951  134.9977  151.8185 C   0  0  0  0  0  0  0  0  0  0  0  0
  144.1777  133.5349  151.6408 C   0  0  1  0  0  0  0  0  0  0  0  0
  144.6088  133.0276  152.8901 O   0  0  0  0  0  0  0  0  0  0  0  0
  143.1227  132.5923  151.0566 C   0  0  0  0  0  0  0  0  0  0  0  0
  143.5094  132.5106  149.5868 C   0  0  0  0  0  0  0  0  0  0  0  0
  144.9238  132.4875  149.6480 O   0  0  0  0  0  0  0  0  0  0  0  0
  145.3314  133.4411  150.6212 C   0  0  0  0  0  0  0  0  0  0  0  0
  140.8729  137.6529  158.0289 C   0  0  0  0  0  0  0  0  0  0  0  0
  141.5548  137.0086  159.2155 C   0  0  0  0  0  0  0  0  0  0  0  0
  140.0684  137.2750  159.2504 C   0  0  0  0  0  0  0  0  0  0  0  0
  138.4708  139.4506  154.4704 H   0  0  0  0  0  0  0  0  0  0  0  0
  138.8255  137.8357  153.8616 H   0  0  0  0  0  0  0  0  0  0  0  0
  140.0689  138.7533  154.7115 H   0  0  0  0  0  0  0  0  0  0  0  0
  138.7236  138.6684  156.7946 H   0  0  0  0  0  0  0  0  0  0  0  0
  138.7914  136.0899  157.1311 H   0  0  0  0  0  0  0  0  0  0  0  0
  139.3350  135.9691  155.4919 H   0  0  0  0  0  0  0  0  0  0  0  0
  144.0492  139.0409  154.9680 H   0  0  0  0  0  0  0  0  0  0  0  0
  141.5414  133.4849  152.8962 H   0  0  0  0  0  0  0  0  0  0  0  0
  143.1490  135.3216  150.9315 H   0  0  0  0  0  0  0  0  0  0  0  0
  144.5531  135.6656  151.9066 H   0  0  0  0  0  0  0  0  0  0  0  0
  143.8972  132.5420  153.2781 H   0  0  0  0  0  0  0  0  0  0  0  0
  143.2094  131.5962  151.4940 H   0  0  0  0  0  0  0  0  0  0  0  0
  142.0941  132.9186  151.1992 H   0  0  0  0  0  0  0  0  0  0  0  0
  143.1113  131.6239  149.0931 H   0  0  0  0  0  0  0  0  0  0  0  0
  143.1746  133.3940  149.0408 H   0  0  0  0  0  0  0  0  0  0  0  0
  145.4930  134.3959  150.1185 H   0  0  0  0  0  0  0  0  0  0  0  0
  146.2815  133.1452  151.0681 H   0  0  0  0  0  0  0  0  0  0  0  0
  141.0648  138.7151  157.8940 H   0  0  0  0  0  0  0  0  0  0  0  0
  141.8773  135.9737  159.1172 H   0  0  0  0  0  0  0  0  0  0  0  0
  142.1949  137.6403  159.8277 H   0  0  0  0  0  0  0  0  0  0  0  0
  139.7166  138.0830  159.8886 H   0  0  0  0  0  0  0  0  0  0  0  0
  139.4041  136.4160  159.1770 H   0  0  0  0  0  0  0  0  0  0  0  0
  1  2  1  0  0  0  0
  1 26  1  0  0  0  0
  1 27  1  0  0  0  0
  1 28  1  0  0  0  0
  2  3  1  0  0  0  0
  2  5  1  0  0  0  0
  2 29  1  0  0  0  0
  3  4  3  0  0  0  0
  5  6  1  0  0  0  0
  5 30  1  0  0  0  0
  5 31  1  0  0  0  0
  6  7  1  0  0  0  0
  6 23  1  0  0  0  0
  7 12  1  0  0  0  0
  7  8  2  0  0  0  0
  8  9  1  0  0  0  0
  9 10  2  0  0  0  0
  9 32  1  0  0  0  0
 10 11  1  0  0  0  0
 11 15  1  0  0  0  0
 11 12  2  0  0  0  0
 12 13  1  0  0  0  0
 13 14  2  0  0  0  0
 14 15  1  0  0  0  0
 14 33  1  0  0  0  0
 15 16  1  0  0  0  0
 16 17  1  0  0  0  0
 16 34  1  0  0  0  0
 16 35  1  0  0  0  0
 17 22  1  0  0  0  0
 17 18  1  0  0  0  0
 17 19  1  0  0  0  0
 18 36  1  0  0  0  0
 19 20  1  0  0  0  0
 19 37  1  0  0  0  0
 19 38  1  0  0  0  0
 20 21  1  0  0  0  0
 20 39  1  0  0  0  0
 20 40  1  0  0  0  0
 21 22  1  0  0  0  0
 22 41  1  0  0  0  0
 22 42  1  0  0  0  0
 23 25  1  0  0  0  0
 23 24  1  0  0  0  0
 23 43  1  0  0  0  0
 24 25  1  0  0  0  0
 24 44  1  0  0  0  0
 24 45  1  0  0  0  0
 25 46  1  0  0  0  0
 25 47  1  0  0  0  0
M  END
> <s_m_source_file>
AV-unprocessed.smi

> <i_m_source_file_index>
223

> <i_lp_mmshare_version>
43012

> <i_f3d_flags>
0

> <s_epik_input>
TiNDW0NAQEhdKFtDSDNdKVtDSDJdTihbQ0hdMVtDSDJdW0NIMl0xKWMobltjSF1uMiljKGMyMyluW2NIXW4zW0NIMl1bQ0BAXTQoW09IXSlbQ0gyXVtDSDJdT1tDSDJdNA==

> <s_epik_cmdline>
J2VwaWtfcHl0aG9uJywgJy1waCcsICc3LjAnLCAnLXRuJywgJzgnLCAnLW1hJywgJzIwMCcsICctbWV0YWxfYmluZGluZycsICctaW1hZScsICc8aW5maWxlLm1hZT4nLCAnLW9tYWUnLCAnPG91dGZpbGUubWFlPic=

> <r_lp_tautomer_probability>
1

> <r_epik_Ionization_Penalty>
0.000756152

> <r_epik_Ionization_Penalty_Charging>
0

> <r_epik_Ionization_Penalty_Neutral>
0.000756152

> <r_epik_State_Penalty>
0.00038036

> <r_epik_Charging_Adjusted_Penalty>
0.00038036

> <i_epik_Tot_Q>
0

> <i_epik_Tot_abs_Q>
0

> <r_epik_Metal_State_Penalty>
-0

> <b_epik_Metal_Only>
0

> <s_lp_Force_Field>
OPLS_2005

> <r_lp_Energy>
37.1098

> <b_lp_Chiralities_Consistent>
1

> <s_lp_Variant>
AV-unprocessed.smi:223-2

> <Gold.Version>
5.8.1

> <Gold.Id.Protein>
6NUR|6NUR_protein|mol2

> <Gold.PLP.Fitness>
40.9615

> <Gold.PLP.PLP>
-34.9280

> <Gold.PLP.part.hbond>
-2.5672

> <Gold.PLP.part.metal>
0.0000

> <Gold.PLP.part.buried>
-5.1356

> <Gold.PLP.part.nonpolar>
-28.4111

> <Gold.PLP.part.repulsive>
1.3974

> <Gold.PLP.ligand.clash>
0.0000

> <Gold.PLP.ligand.torsion>
1.6301

> <Gold.PLP.Chemscore.Hbond>
1.9913

> <Gold.PLP.Chemscore.CHOScore>
0.6648

> <Gold.PLP.Chemscore.Metal>
0.0000

> <Gold.Chemscore.Hbonds>
donor molecule, donor type, donor heavy atom, donor atom, acceptor molecule, acceptor atom, score
      L1  H    18    36       P1 10957  0.83
      P1  H 11000 11005       L1    13  0.80
      L1  C     9    32       P1 10175  0.07
      L1  C    14    33       P1 10957  0.14

> <Gold.PLP.Chemscore.Internal.Correction>
1.3256

> <Gold.Rescore>
     Score         DG    S(hbond)    S(metal)    S(lipo)     H(rot)  DE(clash)    DE(int)     intcor
      8.78     -11.30       1.74        0.00      59.38       2.72       0.74       1.78       ----

> <Gold.Chemscore.Fitness>
8.7803

> <Gold.Chemscore.DG>
-11.2951

> <Gold.Chemscore.ZeroCoef>
-5.4800

> <Gold.Chemscore.Hbond>
1.7434

> <Gold.Chemscore.Metal>
0.0000

> <Gold.Chemscore.Lipo>
59.3826

> <Gold.Chemscore.Internal_Hbond>
0.0000

> <Gold.Chemscore.DEClash>
0.7374

> <Gold.Chemscore.DEInternal>
1.7774

> <Gold.Chemscore.Rot>
2.7171

> <Gold.Chemscore.Internal.Correction>
   9.000000E+99

> <Gold.Chemscore.Hbonds>
donor molecule, donor type, donor heavy atom, donor atom, acceptor molecule, acceptor atom, score
      L1  H    18    36       P1 10957  0.18
      P1  H 11000 11005       L1    13  0.48

> <Gold.Chemscore.Hbond.Weighted>
-5.8231

> <Gold.Chemscore.Metal.Weighted>
-0.0000

> <Gold.Chemscore.Lipo.Weighted>
-6.9478

> <Gold.Chemscore.Internal_Hbond.Weighted>
0.0000

> <Gold.Chemscore.DEClash.Weighted>
0.7374

> <Gold.Chemscore.DEInternal.Weighted>
1.7774

> <Gold.Chemscore.Rot.Weighted>
6.9558

> <Gold.Chemscore.Internal.Correction.Weighted>
   9.000000E+99

> <Gold.Protein.RotatedTorsions>
[ 6907 6896 6895 6894 ] final   49.80 input  -60.11 | X-H torsion
[ 7974 7965 7964 7962 ] final  -69.91 input  175.53 | X-H torsion
[ 8008 7997 7996 7995 ] final  170.10 input   59.86 | X-H torsion
[ 10167 10162 10161 10158 ] final  173.81 input  -65.29 | X-H torsion
[ 10718 10713 10712 10709 ] final  -76.00 input   66.30 | X-H torsion
[ 10763 10752 10751 10750 ] final -175.03 input  -60.55 | X-H torsion
[ 11005 11000 10999 10996 ] final   37.44 input  -57.11 | X-H torsion

> <Gold.Protein.ActiveResidues>
 VAL166  LYS551  ARG553  GLY616  TRP617  ASP618  TYR619  PRO620  LYS621  CYS622 
 ASP623  PHE694  ASN695  SER759  ASP760  ASP761  ALA762  ILE779  LEU786  VAL792 
 PHE793  MET794  SER795  GLU796  ALA797  LYS798  CYS799  TRP800  GLU811  SER814 

> <Gold.Protein.RotatedAtoms>
  152.2948  134.7680  160.0370 H   0  0  0  0  0  0  0  0  0  0  0  0  # atno 6907 bound_to 6896
  151.8213  133.3390  159.3593 H   0  0  0  0  0  0  0  0  0  0  0  0  # atno 6908 bound_to 6896
  150.7246  134.5500  159.5834 H   0  0  0  0  0  0  0  0  0  0  0  0  # atno 6909 bound_to 6896
  145.6977  140.9129  143.0748 H   0  0  0  0  0  0  0  0  0  0  0  0  # atno 7974 bound_to 7965
  156.1397  140.1547  156.8940 H   0  0  0  0  0  0  0  0  0  0  0  0  # atno 8008 bound_to 7997
  154.4977  140.0834  156.7770 H   0  0  0  0  0  0  0  0  0  0  0  0  # atno 8009 bound_to 7997
  155.4102  140.3418  155.4265 H   0  0  0  0  0  0  0  0  0  0  0  0  # atno 8010 bound_to 7997
  139.5120  144.3218  152.0195 H   0  0  0  0  0  0  0  0  0  0  0  0  # atno 10167 bound_to 10162
  156.0189  130.4454  150.3128 H   0  0  0  0  0  0  0  0  0  0  0  0  # atno 10718 bound_to 10713
  154.5893  135.2843  155.0652 H   0  0  0  0  0  0  0  0  0  0  0  0  # atno 10763 bound_to 10752
  154.1959  135.6433  153.5077 H   0  0  0  0  0  0  0  0  0  0  0  0  # atno 10764 bound_to 10752
  153.0115  135.5457  154.6573 H   0  0  0  0  0  0  0  0  0  0  0  0  # atno 10765 bound_to 10752
  140.2226  134.3623  155.7998 H   0  0  0  0  0  0  0  0  0  0  0  0  # atno 11005 bound_to 11000
  144.6978  139.8906  143.7453 LP  0  0  0  0  0  0  0  0  0  0  0  0  # atno 17320 bound_to 7965
  146.0826  139.3813  143.0455 LP  0  0  0  0  0  0  0  0  0  0  0  0  # atno 17321 bound_to 7965
  140.2660  144.4016  150.6168 LP  0  0  0  0  0  0  0  0  0  0  0  0  # atno 17342 bound_to 10162
  140.6123  143.2170  151.6862 LP  0  0  0  0  0  0  0  0  0  0  0  0  # atno 17343 bound_to 10162
  157.1229  131.0251  151.3002 LP  0  0  0  0  0  0  0  0  0  0  0  0  # atno 17370 bound_to 10713
  157.4613  130.7655  149.7239 LP  0  0  0  0  0  0  0  0  0  0  0  0  # atno 17371 bound_to 10713
  141.2222  133.7201  156.8600 LP  0  0  0  0  0  0  0  0  0  0  0  0  # atno 17394 bound_to 11000
  140.1834  134.9017  157.2975 LP  0  0  0  0  0  0  0  0  0  0  0  0  # atno 17395 bound_to 11000

$$$$
