AV-unprocessed.smi:1234|AV-procd|sdf|5173|dock2
  -GOLD-   22720 4243D 1   1.00000     0.00000
 Structure written by MMmdl.
 33 34  0  0  0  0  0  0  0  0  1 V2000
  146.4028  139.3265  153.7672 O   0  0  0  0  0  0  0  0  0  0  0  0
  147.2759  138.6760  153.1918 C   0  0  0  0  0  0  0  0  0  0  0  0
  147.0095  137.6895  152.3237 N   0  0  0  0  0  0  0  0  0  0  0  0
  145.6713  137.2628  151.9298 C   0  0  0  0  0  0  0  0  0  0  0  0
  145.7112  135.9658  151.0966 C   0  0  0  0  0  0  0  0  0  0  0  0
  144.5127  135.0354  151.3490 C   0  0  0  0  0  0  0  0  0  0  0  0
  143.4846  135.4839  151.8585 O   0  0  0  0  0  0  0  0  0  0  0  0
  144.6290  133.7373  150.9999 N   0  0  0  0  0  0  0  0  0  0  0  0
  143.6082  132.7062  151.1856 C   0  0  0  0  0  0  0  0  0  0  0  0
  144.2960  131.3801  150.8580 C   0  0  0  0  0  0  0  0  0  0  0  0
  145.4305  131.7686  149.9200 C   0  0  0  0  0  0  0  0  0  0  0  0
  145.8232  133.1751  150.3720 C   0  0  0  0  0  0  0  0  0  0  0  0
  148.6011  138.8496  153.3411 N   0  0  0  0  0  0  0  0  0  0  0  0
  149.2777  139.7983  154.1528 C   0  0  0  0  0  0  0  0  0  0  0  0
  150.5327  139.6346  154.6002 N   0  0  0  0  0  0  0  0  0  0  0  0
  150.9524  140.7082  155.3746 N   0  0  0  0  0  0  0  0  0  0  0  0
  149.9993  141.6382  155.4803 C   0  0  0  0  0  0  0  0  0  0  0  0
  148.4958  141.2948  154.6420 S   0  0  0  0  0  0  0  0  0  0  0  0
  147.7855  137.2058  151.8958 H   0  0  0  0  0  0  0  0  0  0  0  0
  145.0476  137.1349  152.8166 H   0  0  0  0  0  0  0  0  0  0  0  0
  145.2242  138.0700  151.3490 H   0  0  0  0  0  0  0  0  0  0  0  0
  145.7396  136.2171  150.0359 H   0  0  0  0  0  0  0  0  0  0  0  0
  146.6286  135.4198  151.3200 H   0  0  0  0  0  0  0  0  0  0  0  0
  143.2066  132.6970  152.1997 H   0  0  0  0  0  0  0  0  0  0  0  0
  142.7850  132.8895  150.4934 H   0  0  0  0  0  0  0  0  0  0  0  0
  144.7104  130.9480  151.7698 H   0  0  0  0  0  0  0  0  0  0  0  0
  143.6167  130.6479  150.4208 H   0  0  0  0  0  0  0  0  0  0  0  0
  146.2641  131.0663  149.9491 H   0  0  0  0  0  0  0  0  0  0  0  0
  145.0595  131.8045  148.8948 H   0  0  0  0  0  0  0  0  0  0  0  0
  146.1689  133.7792  149.5317 H   0  0  0  0  0  0  0  0  0  0  0  0
  146.6249  133.1315  151.1109 H   0  0  0  0  0  0  0  0  0  0  0  0
  149.1967  138.2382  152.8023 H   0  0  0  0  0  0  0  0  0  0  0  0
  150.1834  142.5332  156.0561 H   0  0  0  0  0  0  0  0  0  0  0  0
  1  2  2  0  0  0  0
  2  3  1  0  0  0  0
  2 13  1  0  0  0  0
  3  4  1  0  0  0  0
  3 19  1  0  0  0  0
  4  5  1  0  0  0  0
  4 20  1  0  0  0  0
  4 21  1  0  0  0  0
  5  6  1  0  0  0  0
  5 22  1  0  0  0  0
  5 23  1  0  0  0  0
  6  7  2  0  0  0  0
  6  8  1  0  0  0  0
  8 12  1  0  0  0  0
  8  9  1  0  0  0  0
  9 10  1  0  0  0  0
  9 24  1  0  0  0  0
  9 25  1  0  0  0  0
 10 11  1  0  0  0  0
 10 26  1  0  0  0  0
 10 27  1  0  0  0  0
 11 12  1  0  0  0  0
 11 28  1  0  0  0  0
 11 29  1  0  0  0  0
 12 30  1  0  0  0  0
 12 31  1  0  0  0  0
 13 14  1  0  0  0  0
 13 32  1  0  0  0  0
 14 18  1  0  0  0  0
 14 15  2  0  0  0  0
 15 16  1  0  0  0  0
 16 17  2  0  0  0  0
 17 18  1  0  0  0  0
 17 33  1  0  0  0  0
M  END
> <s_m_source_file>
AV-unprocessed.smi

> <i_m_source_file_index>
1234

> <i_lp_mmshare_version>
43012

> <i_f3d_flags>
0

> <s_epik_input>
czFbY0hdbm5jMVtOSF1DKD1PKVtOSF1bQ0gyXVtDSDJdQyg9TylOMltDSDJdW0NIMl1bQ0gyXVtDSDJdMg==

> <s_epik_cmdline>
J2VwaWtfcHl0aG9uJywgJy1waCcsICc3LjAnLCAnLXRuJywgJzgnLCAnLW1hJywgJzIwMCcsICctbWV0YWxfYmluZGluZycsICctaW1hZScsICc8aW5maWxlLm1hZT4nLCAnLW9tYWUnLCAnPG91dGZpbGUubWFlPic=

> <r_lp_tautomer_probability>
1

> <r_epik_Ionization_Penalty>
0.00246339

> <r_epik_Ionization_Penalty_Charging>
0

> <r_epik_Ionization_Penalty_Neutral>
0.00246339

> <r_epik_State_Penalty>
-0

> <r_epik_Charging_Adjusted_Penalty>
0

> <i_epik_Tot_Q>
0

> <i_epik_Tot_abs_Q>
0

> <r_epik_Metal_State_Penalty>
0.351039

> <b_epik_Metal_Only>
0

> <s_lp_Force_Field>
OPLS_2005

> <r_lp_Energy>
26.1559

> <b_lp_Chiralities_Consistent>
1

> <s_lp_Variant>
AV-unprocessed.smi:1234-1

> <Gold.Version>
5.8.1

> <Gold.Id.Protein>
6NUR|6NUR_protein|mol2

> <Gold.PLP.Fitness>
40.3069

> <Gold.PLP.PLP>
-34.8466

> <Gold.PLP.part.hbond>
-4.8494

> <Gold.PLP.part.metal>
0.0000

> <Gold.PLP.part.buried>
-1.7969

> <Gold.PLP.part.nonpolar>
-29.4491

> <Gold.PLP.part.repulsive>
0.6633

> <Gold.PLP.ligand.clash>
0.0000

> <Gold.PLP.ligand.torsion>
0.6608

> <Gold.PLP.Chemscore.Hbond>
1.3978

> <Gold.PLP.Chemscore.CHOScore>
0.8572

> <Gold.PLP.Chemscore.Metal>
0.0000

> <Gold.Chemscore.Hbonds>
donor molecule, donor type, donor heavy atom, donor atom, acceptor molecule, acceptor atom, score
      L1  H     3    19       P1  7948  0.91
      L1  H    13    32       P1  7948  0.43
      L1  C    17    33       P1  8028  0.76

> <Gold.PLP.Chemscore.Internal.Correction>
0.0169

> <Gold.Rescore>
     Score         DG    S(hbond)    S(metal)    S(lipo)     H(rot)  DE(clash)    DE(int)     intcor
     13.23     -14.83       1.89        0.00      65.04       1.79       0.05       1.54       ----

> <Gold.Chemscore.Fitness>
13.2332

> <Gold.Chemscore.DG>
-14.8255

> <Gold.Chemscore.ZeroCoef>
-5.4800

> <Gold.Chemscore.Hbond>
1.8891

> <Gold.Chemscore.Metal>
0.0000

> <Gold.Chemscore.Lipo>
65.0386

> <Gold.Chemscore.Internal_Hbond>
0.0000

> <Gold.Chemscore.DEClash>
0.0519

> <Gold.Chemscore.DEInternal>
1.5403

> <Gold.Chemscore.Rot>
1.7865

> <Gold.Chemscore.Internal.Correction>
   9.000000E+99

> <Gold.Chemscore.Hbonds>
donor molecule, donor type, donor heavy atom, donor atom, acceptor molecule, acceptor atom, score
      L1  H     3    19       P1  7948  0.88
      L1  H    13    32       P1  7948  0.42

> <Gold.Chemscore.Hbond.Weighted>
-6.3094

> <Gold.Chemscore.Metal.Weighted>
-0.0000

> <Gold.Chemscore.Lipo.Weighted>
-7.6095

> <Gold.Chemscore.Internal_Hbond.Weighted>
0.0000

> <Gold.Chemscore.DEClash.Weighted>
0.0519

> <Gold.Chemscore.DEInternal.Weighted>
1.5403

> <Gold.Chemscore.Rot.Weighted>
4.5735

> <Gold.Chemscore.Internal.Correction.Weighted>
   9.000000E+99

> <Gold.Protein.RotatedTorsions>
[ 6907 6896 6895 6894 ] final -119.37 input  -60.11 | X-H torsion
[ 7974 7965 7964 7962 ] final  163.59 input  175.53 | X-H torsion
[ 8008 7997 7996 7995 ] final   -3.94 input   59.86 | X-H torsion
[ 10167 10162 10161 10158 ] final  -52.15 input  -65.29 | X-H torsion
[ 10718 10713 10712 10709 ] final  -27.74 input   66.30 | X-H torsion
[ 10763 10752 10751 10750 ] final  178.33 input  -60.55 | X-H torsion
[ 11005 11000 10999 10996 ] final  -41.31 input  -57.11 | X-H torsion

> <Gold.Protein.ActiveResidues>
 VAL166  LYS551  ARG553  GLY616  TRP617  ASP618  TYR619  PRO620  LYS621  CYS622 
 ASP623  PHE694  ASN695  SER759  ASP760  ASP761  ALA762  ILE779  LEU786  VAL792 
 PHE793  MET794  SER795  GLU796  ALA797  LYS798  CYS799  TRP800  GLU811  SER814 

> <Gold.Protein.RotatedAtoms>
  150.8300  133.8107  159.3102 H   0  0  0  0  0  0  0  0  0  0  0  0  # atno 6907 bound_to 6896
  151.5840  135.1055  160.0033 H   0  0  0  0  0  0  0  0  0  0  0  0  # atno 6908 bound_to 6896
  152.4380  133.7355  159.6668 H   0  0  0  0  0  0  0  0  0  0  0  0  # atno 6909 bound_to 6896
  144.7583  139.8204  143.6342 H   0  0  0  0  0  0  0  0  0  0  0  0  # atno 7974 bound_to 7965
  154.6195  140.2496  155.7567 H   0  0  0  0  0  0  0  0  0  0  0  0  # atno 8008 bound_to 7997
  156.2418  140.2929  156.0416 H   0  0  0  0  0  0  0  0  0  0  0  0  # atno 8009 bound_to 7997
  155.1919  140.0392  157.2892 H   0  0  0  0  0  0  0  0  0  0  0  0  # atno 8010 bound_to 7997
  140.6552  143.2594  151.4606 H   0  0  0  0  0  0  0  0  0  0  0  0  # atno 10167 bound_to 10162
  156.4342  130.4451  149.7096 H   0  0  0  0  0  0  0  0  0  0  0  0  # atno 10718 bound_to 10713
  154.5063  135.2786  155.1380 H   0  0  0  0  0  0  0  0  0  0  0  0  # atno 10763 bound_to 10752
  154.2993  135.6251  153.5421 H   0  0  0  0  0  0  0  0  0  0  0  0  # atno 10764 bound_to 10752
  152.9911  135.5693  154.5518 H   0  0  0  0  0  0  0  0  0  0  0  0  # atno 10765 bound_to 10752
  141.0237  133.6851  156.2440 H   0  0  0  0  0  0  0  0  0  0  0  0  # atno 11005 bound_to 11000
  146.1618  139.4735  142.9983 LP  0  0  0  0  0  0  0  0  0  0  0  0  # atno 17320 bound_to 7965
  145.6705  141.0218  143.1660 LP  0  0  0  0  0  0  0  0  0  0  0  0  # atno 17321 bound_to 7965
  139.5773  144.1789  152.1921 LP  0  0  0  0  0  0  0  0  0  0  0  0  # atno 17342 bound_to 10162
  140.1103  144.5462  150.6929 LP  0  0  0  0  0  0  0  0  0  0  0  0  # atno 17343 bound_to 10162
  156.3987  130.7664  151.2670 LP  0  0  0  0  0  0  0  0  0  0  0  0  # atno 17370 bound_to 10713
  157.7507  131.0246  150.3884 LP  0  0  0  0  0  0  0  0  0  0  0  0  # atno 17371 bound_to 10713
  140.6529  134.5048  157.5578 LP  0  0  0  0  0  0  0  0  0  0  0  0  # atno 17394 bound_to 11000
  139.9162  134.8242  156.1359 LP  0  0  0  0  0  0  0  0  0  0  0  0  # atno 17395 bound_to 11000

$$$$
