AV-unprocessed.smi:1365|AV-procd|sdf|5569|dock6
  -GOLD-   22720 5163D 1   1.00000     0.00000
 Structure written by MMmdl.
 41 42  0  0  0  0  0  0  0  0  3 V2000
  152.2735  140.8070  159.2335 C   0  0  0  0  0  0  0  0  0  0  0  0
  151.9568  140.4961  157.8106 C   0  0  0  0  0  0  0  0  0  0  0  0
  150.9363  140.8723  156.9842 C   0  0  0  0  0  0  0  0  0  0  0  0
  151.2441  140.2080  155.7653 C   0  0  0  0  0  0  0  0  0  0  0  0
  150.5339  140.2733  154.6284 N   0  5  0  0  0  0  0  0  0  0  0  0
  149.1922  140.4397  154.6721 C   0  0  0  0  0  0  0  0  0  0  0  0
  148.5196  140.7190  155.6673 O   0  0  0  0  0  0  0  0  0  0  0  0
  148.5905  140.2703  153.4872 N   0  0  0  0  0  0  0  0  0  0  0  0
  147.1572  140.3757  153.2505 C   0  0  0  0  0  0  0  0  0  0  0  0
  146.6349  139.1147  152.5501 C   0  0  0  0  0  0  0  0  0  0  0  0
  146.5521  137.9123  153.5052 C   0  0  0  0  0  0  0  0  0  0  0  0
  146.5213  136.6154  152.7827 N   0  3  0  0  0  0  0  0  0  0  0  0
  145.5113  136.6045  151.6920 C   0  0  0  0  0  0  0  0  0  0  0  0
  145.5889  135.3055  150.8717 C   0  0  0  0  0  0  0  0  0  0  0  0
  145.4293  134.0744  151.7727 C   0  0  0  0  0  0  0  0  0  0  0  0
  146.4588  134.1217  152.9088 C   0  0  0  0  0  0  0  0  0  0  0  0
  146.3607  135.4448  153.6874 C   0  0  0  0  0  0  0  0  0  0  0  0
  152.3625  139.5062  155.8403 N   0  0  0  0  0  0  0  0  0  0  0  0
  152.8223  139.6799  157.1511 O   0  0  0  0  0  0  0  0  0  0  0  0
  152.2762  141.8840  159.4014 H   0  0  0  0  0  0  0  0  0  0  0  0
  153.2535  140.4192  159.5125 H   0  0  0  0  0  0  0  0  0  0  0  0
  151.5327  140.3624  159.8982 H   0  0  0  0  0  0  0  0  0  0  0  0
  150.0998  141.5147  157.2148 H   0  0  0  0  0  0  0  0  0  0  0  0
  149.1756  140.0449  152.6962 H   0  0  0  0  0  0  0  0  0  0  0  0
  146.6383  140.5139  154.2005 H   0  0  0  0  0  0  0  0  0  0  0  0
  146.9599  141.2591  152.6413 H   0  0  0  0  0  0  0  0  0  0  0  0
  145.6473  139.3149  152.1322 H   0  0  0  0  0  0  0  0  0  0  0  0
  147.2876  138.8882  151.7074 H   0  0  0  0  0  0  0  0  0  0  0  0
  147.3791  137.9226  154.2169 H   0  0  0  0  0  0  0  0  0  0  0  0
  145.6391  138.0174  154.0932 H   0  0  0  0  0  0  0  0  0  0  0  0
  144.5136  136.7234  152.1176 H   0  0  0  0  0  0  0  0  0  0  0  0
  145.6760  137.4536  151.0274 H   0  0  0  0  0  0  0  0  0  0  0  0
  144.8178  135.3047  150.1007 H   0  0  0  0  0  0  0  0  0  0  0  0
  146.5465  135.2570  150.3513 H   0  0  0  0  0  0  0  0  0  0  0  0
  144.4211  134.0486  152.1887 H   0  0  0  0  0  0  0  0  0  0  0  0
  145.5511  133.1607  151.1900 H   0  0  0  0  0  0  0  0  0  0  0  0
  146.3060  133.2792  153.5840 H   0  0  0  0  0  0  0  0  0  0  0  0
  147.4636  134.0113  152.4991 H   0  0  0  0  0  0  0  0  0  0  0  0
  147.1264  135.4532  154.4622 H   0  0  0  0  0  0  0  0  0  0  0  0
  145.3976  135.5075  154.1968 H   0  0  0  0  0  0  0  0  0  0  0  0
  147.4201  136.5196  152.3319 H   0  0  0  0  0  0  0  0  0  0  0  0
  1  2  1  0  0  0  0
  1 20  1  0  0  0  0
  1 21  1  0  0  0  0
  1 22  1  0  0  0  0
  2 19  1  0  0  0  0
  2  3  2  0  0  0  0
  3  4  1  0  0  0  0
  3 23  1  0  0  0  0
  4  5  1  0  0  0  0
  4 18  2  0  0  0  0
  5  6  1  0  0  0  0
  6  7  2  0  0  0  0
  6  8  1  0  0  0  0
  8  9  1  0  0  0  0
  8 24  1  0  0  0  0
  9 10  1  0  0  0  0
  9 25  1  0  0  0  0
  9 26  1  0  0  0  0
 10 11  1  0  0  0  0
 10 27  1  0  0  0  0
 10 28  1  0  0  0  0
 11 12  1  0  0  0  0
 11 29  1  0  0  0  0
 11 30  1  0  0  0  0
 12 17  1  0  0  0  0
 12 13  1  0  0  0  0
 12 41  1  0  0  0  0
 13 14  1  0  0  0  0
 13 31  1  0  0  0  0
 13 32  1  0  0  0  0
 14 15  1  0  0  0  0
 14 33  1  0  0  0  0
 14 34  1  0  0  0  0
 15 16  1  0  0  0  0
 15 35  1  0  0  0  0
 15 36  1  0  0  0  0
 16 17  1  0  0  0  0
 16 37  1  0  0  0  0
 16 38  1  0  0  0  0
 17 39  1  0  0  0  0
 17 40  1  0  0  0  0
 18 19  1  0  0  0  0
M  CHG  1   5  -1
M  CHG  1  12   1
M  END
> <s_m_source_file>
AV-unprocessed.smi

> <i_m_source_file_index>
1365

> <i_lp_mmshare_version>
43012

> <i_f3d_flags>
0

> <s_epik_input>
W0NIM11jMVtjSF1jKG5vMSlbTkhdQyg9TylbTkhdW0NIMl1bQ0gyXVtDSDJdTjJbQ0gyXVtDSDJdW0NIMl1bQ0gyXVtDSDJdMg==

> <s_epik_cmdline>
J2VwaWtfcHl0aG9uJywgJy1waCcsICc3LjAnLCAnLXRuJywgJzgnLCAnLW1hJywgJzIwMCcsICctbWV0YWxfYmluZGluZycsICctaW1hZScsICc8aW5maWxlLm1hZT4nLCAnLW9tYWUnLCAnPG91dGZpbGUubWFlPic=

> <r_epik_Ionization_Penalty>
6.42355

> <r_epik_Ionization_Penalty_Charging>
6.42345

> <r_epik_Ionization_Penalty_Neutral>
0.000108417

> <r_epik_State_Penalty>
6.4233

> <r_epik_Charging_Adjusted_Penalty>
12.8467

> <i_epik_Tot_Q>
0

> <i_epik_Tot_abs_Q>
2

> <r_epik_Metal_State_Penalty>
2.35308

> <b_epik_Metal_Only>
1

> <s_lp_Force_Field>
OPLS_2005

> <r_lp_Energy>
6.88196

> <b_lp_Chiralities_Consistent>
1

> <s_lp_Variant>
AV-unprocessed.smi:1365-2

> <Gold.Version>
5.8.1

> <Gold.Id.Protein>
6NUR|6NUR_protein|mol2

> <Gold.PLP.Fitness>
46.5830

> <Gold.PLP.PLP>
-32.3596

> <Gold.PLP.part.hbond>
-4.6772

> <Gold.PLP.part.metal>
0.0000

> <Gold.PLP.part.buried>
-3.5663

> <Gold.PLP.part.nonpolar>
-24.8926

> <Gold.PLP.part.repulsive>
0.3327

> <Gold.PLP.ligand.clash>
0.0000

> <Gold.PLP.ligand.torsion>
0.4149

> <Gold.PLP.Chemscore.Hbond>
5.0000

> <Gold.PLP.Chemscore.CHOScore>
0.0000

> <Gold.PLP.Chemscore.Metal>
0.0000

> <Gold.Chemscore.Hbonds>
donor molecule, donor type, donor heavy atom, donor atom, acceptor molecule, acceptor atom, score
      L1  H     8    24       P1  7957  1.00
      L1  H    12    41       P1  7948  2.00
      P1  H  7989  7998       L1     5  1.00
      P1  H  7997  8010       L1    19  1.00

> <Gold.PLP.Chemscore.Internal.Correction>
0.0532

> <Gold.Rescore>
     Score         DG    S(hbond)    S(metal)    S(lipo)     H(rot)  DE(clash)    DE(int)     intcor
     16.76     -18.63       3.21        0.00      59.67       1.78       0.03       1.84       ----

> <Gold.Chemscore.Fitness>
16.7627

> <Gold.Chemscore.DG>
-18.6298

> <Gold.Chemscore.ZeroCoef>
-5.4800

> <Gold.Chemscore.Hbond>
3.2095

> <Gold.Chemscore.Metal>
0.0000

> <Gold.Chemscore.Lipo>
59.6653

> <Gold.Chemscore.Internal_Hbond>
0.0000

> <Gold.Chemscore.DEClash>
0.0263

> <Gold.Chemscore.DEInternal>
1.8407

> <Gold.Chemscore.Rot>
1.7776

> <Gold.Chemscore.Internal.Correction>
   9.000000E+99

> <Gold.Chemscore.Hbonds>
donor molecule, donor type, donor heavy atom, donor atom, acceptor molecule, acceptor atom, score
      L1  H     8    24       P1  7957  0.97
      L1  H    12    41       P1  7948  0.99
      P1  H  7989  7998       L1     5  0.44
      P1  H  7997  8010       L1    19  0.25

> <Gold.Chemscore.Hbond.Weighted>
-10.7196

> <Gold.Chemscore.Metal.Weighted>
-0.0000

> <Gold.Chemscore.Lipo.Weighted>
-6.9808

> <Gold.Chemscore.Internal_Hbond.Weighted>
0.0000

> <Gold.Chemscore.DEClash.Weighted>
0.0263

> <Gold.Chemscore.DEInternal.Weighted>
1.8407

> <Gold.Chemscore.Rot.Weighted>
4.5506

> <Gold.Chemscore.Internal.Correction.Weighted>
   9.000000E+99

> <Gold.Protein.RotatedTorsions>
[ 6907 6896 6895 6894 ] final  -50.79 input  -60.11 | X-H torsion
[ 7974 7965 7964 7962 ] final -158.41 input  175.53 | X-H torsion
[ 8008 7997 7996 7995 ] final   45.87 input   59.86 | X-H torsion
[ 10167 10162 10161 10158 ] final -163.10 input  -65.29 | X-H torsion
[ 10718 10713 10712 10709 ] final  176.18 input   66.30 | X-H torsion
[ 10763 10752 10751 10750 ] final   32.86 input  -60.55 | X-H torsion
[ 11005 11000 10999 10996 ] final  134.96 input  -57.11 | X-H torsion

> <Gold.Protein.ActiveResidues>
 VAL166  LYS551  ARG553  GLY616  TRP617  ASP618  TYR619  PRO620  LYS621  CYS622 
 ASP623  PHE694  ASN695  SER759  ASP760  ASP761  ALA762  ILE779  LEU786  VAL792 
 PHE793  MET794  SER795  GLU796  ALA797  LYS798  CYS799  TRP800  GLU811  SER814 

> <Gold.Protein.RotatedAtoms>
  150.8673  134.8039  159.7128 H   0  0  0  0  0  0  0  0  0  0  0  0  # atno 6907 bound_to 6896
  152.4690  134.5003  159.9732 H   0  0  0  0  0  0  0  0  0  0  0  0  # atno 6908 bound_to 6896
  151.5097  133.3449  159.2918 H   0  0  0  0  0  0  0  0  0  0  0  0  # atno 6909 bound_to 6896
  144.7507  140.3832  143.6050 H   0  0  0  0  0  0  0  0  0  0  0  0  # atno 7974 bound_to 7965
  155.3431  140.3409  155.4239 H   0  0  0  0  0  0  0  0  0  0  0  0  # atno 8008 bound_to 7997
  156.1803  140.1661  156.8323 H   0  0  0  0  0  0  0  0  0  0  0  0  # atno 8009 bound_to 7997
  154.5326  140.0742  156.8354 H   0  0  0  0  0  0  0  0  0  0  0  0  # atno 8010 bound_to 7997
  139.6344  144.0377  152.2042 H   0  0  0  0  0  0  0  0  0  0  0  0  # atno 10167 bound_to 10162
  156.9239  130.9949  151.2999 H   0  0  0  0  0  0  0  0  0  0  0  0  # atno 10718 bound_to 10713
  153.0241  135.6402  154.1421 H   0  0  0  0  0  0  0  0  0  0  0  0  # atno 10763 bound_to 10752
  154.1152  135.2850  155.3223 H   0  0  0  0  0  0  0  0  0  0  0  0  # atno 10764 bound_to 10752
  154.6303  135.5495  153.7735 H   0  0  0  0  0  0  0  0  0  0  0  0  # atno 10765 bound_to 10752
  139.9949  134.9501  156.9940 H   0  0  0  0  0  0  0  0  0  0  0  0  # atno 11005 bound_to 11000
  145.6955  139.1649  143.2622 LP  0  0  0  0  0  0  0  0  0  0  0  0  # atno 17320 bound_to 7965
  146.1453  140.7002  142.9348 LP  0  0  0  0  0  0  0  0  0  0  0  0  # atno 17321 bound_to 7965
  140.0051  144.6265  150.7696 LP  0  0  0  0  0  0  0  0  0  0  0  0  # atno 17342 bound_to 10162
  140.7457  143.2880  151.3409 LP  0  0  0  0  0  0  0  0  0  0  0  0  # atno 17343 bound_to 10162
  157.5890  130.8430  149.8631 LP  0  0  0  0  0  0  0  0  0  0  0  0  # atno 17370 bound_to 10713
  156.0478  130.3724  150.1274 LP  0  0  0  0  0  0  0  0  0  0  0  0  # atno 17371 bound_to 10713
  140.4838  134.1263  155.7221 LP  0  0  0  0  0  0  0  0  0  0  0  0  # atno 17394 bound_to 11000
  141.1596  133.8818  157.1884 LP  0  0  0  0  0  0  0  0  0  0  0  0  # atno 17395 bound_to 11000

$$$$
