AV-unprocessed.smi:1976|AV-procd|sdf|7986|dock1
  -GOLD-   2272010163D 1   1.00000     0.00000
 Structure written by MMmdl.
 45 47  0  0  0  0  0  0  0  0  2 V2000
  149.4714  135.2425  158.1789 O   0  0  0  0  0  0  0  0  0  0  0  0
  148.3524  135.7258  158.0006 C   0  0  0  0  0  0  0  0  0  0  0  0
  147.5519  136.3271  159.1650 C   0  0  0  0  0  0  0  0  0  0  0  0
  147.5701  135.4955  160.3803 N   0  0  0  0  0  0  0  0  0  0  0  0
  147.7325  134.1073  160.2035 C   0  0  0  0  0  0  0  0  0  0  0  0
  147.7693  133.2369  161.2307 C   0  0  0  0  0  0  0  0  0  0  0  0
  147.8829  131.7374  161.0046 C   0  0  0  0  0  0  0  0  0  0  0  0
  146.7732  131.1312  161.4243 F   0  0  0  0  0  0  0  0  0  0  0  0
  148.0454  131.4579  159.7112 F   0  0  0  0  0  0  0  0  0  0  0  0
  148.9149  131.2255  161.6766 F   0  0  0  0  0  0  0  0  0  0  0  0
  147.5985  133.7969  162.5571 C   0  0  0  0  0  0  0  0  0  0  0  0
  147.4291  135.1207  162.7427 C   0  0  0  0  0  0  0  0  0  0  0  0
  147.4104  136.0566  161.6164 C   0  0  0  0  0  0  0  0  0  0  0  0
  147.2571  137.2683  161.7725 O   0  0  0  0  0  0  0  0  0  0  0  0
  147.7670  135.7817  156.7949 N   0  0  0  0  0  0  0  0  0  0  0  0
  148.3536  135.2625  155.5625 C   0  0  1  0  0  0  0  0  0  0  0  0
  149.0060  133.8965  155.7300 C   0  0  0  0  0  0  0  0  0  0  0  0
  149.1091  133.3862  154.2889 C   0  0  0  0  0  0  0  0  0  0  0  0
  148.0209  134.0411  153.5216 N   0  3  1  0  0  0  0  0  0  0  0  0
  147.1112  133.0890  152.8295 C   0  0  0  0  0  0  0  0  0  0  0  0
  145.8123  133.7851  152.3968 C   0  0  0  0  0  0  0  0  0  0  0  0
  145.0308  134.3278  153.6086 C   0  0  0  0  0  0  0  0  0  0  0  0
  145.9351  134.5733  154.8318 C   0  0  0  0  0  0  0  0  0  0  0  0
  147.3533  135.0327  154.4126 C   0  0  1  0  0  0  0  0  0  0  0  0
  147.9523  137.3193  159.3782 H   0  0  0  0  0  0  0  0  0  0  0  0
  146.5238  136.4996  158.8409 H   0  0  0  0  0  0  0  0  0  0  0  0
  147.8141  133.7924  159.1733 H   0  0  0  0  0  0  0  0  0  0  0  0
  147.6085  133.1442  163.4175 H   0  0  0  0  0  0  0  0  0  0  0  0
  147.3039  135.5028  163.7452 H   0  0  0  0  0  0  0  0  0  0  0  0
  146.8494  136.1987  156.7293 H   0  0  0  0  0  0  0  0  0  0  0  0
  149.1246  135.9575  155.2226 H   0  0  0  0  0  0  0  0  0  0  0  0
  149.9741  133.9453  156.2297 H   0  0  0  0  0  0  0  0  0  0  0  0
  148.3597  133.2369  156.3109 H   0  0  0  0  0  0  0  0  0  0  0  0
  150.0585  133.6958  153.8506 H   0  0  0  0  0  0  0  0  0  0  0  0
  149.0718  132.2968  154.2456 H   0  0  0  0  0  0  0  0  0  0  0  0
  147.6280  132.6682  151.9662 H   0  0  0  0  0  0  0  0  0  0  0  0
  146.8668  132.2542  153.4887 H   0  0  0  0  0  0  0  0  0  0  0  0
  146.0595  134.6077  151.7242 H   0  0  0  0  0  0  0  0  0  0  0  0
  145.1843  133.1024  151.8236 H   0  0  0  0  0  0  0  0  0  0  0  0
  144.5316  135.2541  153.3214 H   0  0  0  0  0  0  0  0  0  0  0  0
  144.2392  133.6315  153.8882 H   0  0  0  0  0  0  0  0  0  0  0  0
  145.4573  135.3057  155.4824 H   0  0  0  0  0  0  0  0  0  0  0  0
  146.0111  133.6546  155.4155 H   0  0  0  0  0  0  0  0  0  0  0  0
  147.2431  135.9636  153.8543 H   0  0  0  0  0  0  0  0  0  0  0  0
  148.4725  134.5841  152.7993 H   0  0  0  0  0  0  0  0  0  0  0  0
  1  2  2  0  0  0  0
  2  3  1  0  0  0  0
  2 15  1  0  0  0  0
  3  4  1  0  0  0  0
  3 25  1  0  0  0  0
  3 26  1  0  0  0  0
  4 13  1  0  0  0  0
  4  5  1  0  0  0  0
  5  6  2  0  0  0  0
  5 27  1  0  0  0  0
  6  7  1  0  0  0  0
  6 11  1  0  0  0  0
  7  8  1  0  0  0  0
  7  9  1  0  0  0  0
  7 10  1  0  0  0  0
 11 12  2  0  0  0  0
 11 28  1  0  0  0  0
 12 13  1  0  0  0  0
 12 29  1  0  0  0  0
 13 14  2  0  0  0  0
 15 16  1  0  0  0  0
 15 30  1  0  0  0  0
 16 24  1  0  0  0  0
 16 17  1  0  0  0  0
 16 31  1  0  0  0  0
 17 18  1  0  0  0  0
 17 32  1  0  0  0  0
 17 33  1  0  0  0  0
 18 19  1  0  0  0  0
 18 34  1  0  0  0  0
 18 35  1  0  0  0  0
 19 24  1  0  0  0  0
 19 20  1  0  0  0  0
 19 45  1  0  0  0  0
 20 21  1  0  0  0  0
 20 36  1  0  0  0  0
 20 37  1  0  0  0  0
 21 22  1  0  0  0  0
 21 38  1  0  0  0  0
 21 39  1  0  0  0  0
 22 23  1  0  0  0  0
 22 40  1  0  0  0  0
 22 41  1  0  0  0  0
 23 24  1  0  0  0  0
 23 42  1  0  0  0  0
 23 43  1  0  0  0  0
 24 44  1  0  0  0  0
M  CHG  1  19   1
M  END
> <s_m_source_file>
AV-unprocessed.smi

> <i_m_source_file_index>
1976

> <i_lp_mmshare_version>
43012

> <i_f3d_flags>
0

> <s_epik_input>
W0NIMl0xW0NIMl1bQ0gyXVtDSDJdW0NASF0oTjEyKVtDQEBIXShbQ0gyXVtDSDJdMilbTkhdQyg9TylbQ0gyXW4zW2NIXWMoQyhGKShGKUYpW2NIXVtjSF1jMz1P

> <s_epik_cmdline>
J2VwaWtfcHl0aG9uJywgJy1waCcsICc3LjAnLCAnLXRuJywgJzgnLCAnLW1hJywgJzIwMCcsICctbWV0YWxfYmluZGluZycsICctaW1hZScsICc8aW5maWxlLm1hZT4nLCAnLW9tYWUnLCAnPG91dGZpbGUubWFlPic=

> <r_lp_tautomer_probability>
1

> <r_epik_Ionization_Penalty>
0.00171506

> <r_epik_Ionization_Penalty_Charging>
0.00171498

> <r_epik_Ionization_Penalty_Neutral>
7.81737e-08

> <r_epik_State_Penalty>
0.00115937

> <r_epik_Charging_Adjusted_Penalty>
0.00287436

> <i_epik_Tot_Q>
1

> <i_epik_Tot_abs_Q>
1

> <r_epik_Metal_State_Penalty>
-0

> <b_epik_Metal_Only>
0

> <s_lp_Force_Field>
OPLS_2005

> <r_lp_Energy>
52.608

> <b_lp_Chiralities_Consistent>
1

> <s_lp_Variant>
AV-unprocessed.smi:1976-4

> <Gold.Version>
5.8.1

> <Gold.Id.Protein>
6NUR|6NUR_protein|mol2

> <Gold.PLP.Fitness>
47.6300

> <Gold.PLP.PLP>
-36.5888

> <Gold.PLP.part.hbond>
-4.0000

> <Gold.PLP.part.metal>
0.0000

> <Gold.PLP.part.buried>
-3.8155

> <Gold.PLP.part.nonpolar>
-28.3597

> <Gold.PLP.part.repulsive>
0.0000

> <Gold.PLP.ligand.clash>
1.3431

> <Gold.PLP.ligand.torsion>
0.8524

> <Gold.PLP.Chemscore.Hbond>
4.6640

> <Gold.PLP.Chemscore.CHOScore>
0.0000

> <Gold.PLP.Chemscore.Metal>
0.0000

> <Gold.Chemscore.Hbonds>
donor molecule, donor type, donor heavy atom, donor atom, acceptor molecule, acceptor atom, score
      L1  H    19    45       P1  7948  1.90
      P1  H  6896  6909       L1     1  1.00
      P1  H  6931  6943       L1    14  0.83
      P1  H  6934  6947       L1    14  0.83

> <Gold.PLP.Chemscore.Internal.Correction>
0.0971

> <Gold.Rescore>
     Score         DG    S(hbond)    S(metal)    S(lipo)     H(rot)  DE(clash)    DE(int)     intcor
     16.62     -19.53       3.31        0.00      60.16       1.58       0.06       2.85       ----

> <Gold.Chemscore.Fitness>
16.6236

> <Gold.Chemscore.DG>
-19.5297

> <Gold.Chemscore.ZeroCoef>
-5.4800

> <Gold.Chemscore.Hbond>
3.3123

> <Gold.Chemscore.Metal>
0.0000

> <Gold.Chemscore.Lipo>
60.1630

> <Gold.Chemscore.Internal_Hbond>
0.0000

> <Gold.Chemscore.DEClash>
0.0575

> <Gold.Chemscore.DEInternal>
2.8486

> <Gold.Chemscore.Rot>
1.5830

> <Gold.Chemscore.Internal.Correction>
   9.000000E+99

> <Gold.Chemscore.Hbonds>
donor molecule, donor type, donor heavy atom, donor atom, acceptor molecule, acceptor atom, score
      L1  H    19    45       P1  7948  0.21
      P1  H  6896  6909       L1     1  0.92
      P1  H  6931  6943       L1    14  0.66
      P1  H  6934  6947       L1    14  0.81

> <Gold.Chemscore.Hbond.Weighted>
-11.0630

> <Gold.Chemscore.Metal.Weighted>
-0.0000

> <Gold.Chemscore.Lipo.Weighted>
-7.0391

> <Gold.Chemscore.Internal_Hbond.Weighted>
0.0000

> <Gold.Chemscore.DEClash.Weighted>
0.0575

> <Gold.Chemscore.DEInternal.Weighted>
2.8486

> <Gold.Chemscore.Rot.Weighted>
4.0524

> <Gold.Chemscore.Internal.Correction.Weighted>
   9.000000E+99

> <Gold.Protein.RotatedTorsions>
[ 6907 6896 6895 6894 ] final   25.23 input  -60.11 | X-H torsion
[ 7974 7965 7964 7962 ] final -103.36 input  175.53 | X-H torsion
[ 8008 7997 7996 7995 ] final   -4.43 input   59.86 | X-H torsion
[ 10167 10162 10161 10158 ] final  116.00 input  -65.29 | X-H torsion
[ 10718 10713 10712 10709 ] final  134.24 input   66.30 | X-H torsion
[ 10763 10752 10751 10750 ] final -148.32 input  -60.55 | X-H torsion
[ 11005 11000 10999 10996 ] final   25.84 input  -57.11 | X-H torsion

> <Gold.Protein.ActiveResidues>
 VAL166  LYS551  ARG553  GLY616  TRP617  ASP618  TYR619  PRO620  LYS621  CYS622 
 ASP623  PHE694  ASN695  SER759  ASP760  ASP761  ALA762  ILE779  LEU786  VAL792 
 PHE793  MET794  SER795  GLU796  ALA797  LYS798  CYS799  TRP800  GLU811  SER814 

> <Gold.Protein.RotatedAtoms>
  151.9694  135.0084  160.0551 H   0  0  0  0  0  0  0  0  0  0  0  0  # atno 6907 bound_to 6896
  152.1796  133.4694  159.4960 H   0  0  0  0  0  0  0  0  0  0  0  0  # atno 6908 bound_to 6896
  150.6915  134.1767  159.4276 H   0  0  0  0  0  0  0  0  0  0  0  0  # atno 6909 bound_to 6896
  145.2569  140.9256  143.3063 H   0  0  0  0  0  0  0  0  0  0  0  0  # atno 7974 bound_to 7965
  154.6144  140.2484  155.7628 H   0  0  0  0  0  0  0  0  0  0  0  0  # atno 8008 bound_to 7997
  156.2390  140.2939  156.0341 H   0  0  0  0  0  0  0  0  0  0  0  0  # atno 8009 bound_to 7997
  155.1999  140.0394  157.2906 H   0  0  0  0  0  0  0  0  0  0  0  0  # atno 8010 bound_to 7997
  139.6277  144.7111  151.2498 H   0  0  0  0  0  0  0  0  0  0  0  0  # atno 10167 bound_to 10162
  157.4693  131.1079  150.9823 H   0  0  0  0  0  0  0  0  0  0  0  0  # atno 10718 bound_to 10713
  154.8239  135.3337  154.6955 H   0  0  0  0  0  0  0  0  0  0  0  0  # atno 10763 bound_to 10752
  153.7584  135.6934  153.4935 H   0  0  0  0  0  0  0  0  0  0  0  0  # atno 10764 bound_to 10752
  153.2128  135.4476  155.0349 H   0  0  0  0  0  0  0  0  0  0  0  0  # atno 10765 bound_to 10752
  140.3435  134.2307  155.7687 H   0  0  0  0  0  0  0  0  0  0  0  0  # atno 11005 bound_to 11000
  144.9453  139.4143  143.6429 LP  0  0  0  0  0  0  0  0  0  0  0  0  # atno 17320 bound_to 7965
  146.3286  139.8433  142.8886 LP  0  0  0  0  0  0  0  0  0  0  0  0  # atno 17321 bound_to 7965
  140.7421  143.6537  150.8226 LP  0  0  0  0  0  0  0  0  0  0  0  0  # atno 17342 bound_to 10162
  140.0157  143.5595  152.2821 LP  0  0  0  0  0  0  0  0  0  0  0  0  # atno 17343 bound_to 10162
  157.0593  130.5819  149.5383 LP  0  0  0  0  0  0  0  0  0  0  0  0  # atno 17370 bound_to 10713
  156.0065  130.5153  150.7848 LP  0  0  0  0  0  0  0  0  0  0  0  0  # atno 17371 bound_to 10713
  141.2032  133.7918  157.0352 LP  0  0  0  0  0  0  0  0  0  0  0  0  # atno 17394 bound_to 11000
  140.0762  134.9674  157.1549 LP  0  0  0  0  0  0  0  0  0  0  0  0  # atno 17395 bound_to 11000

$$$$
