AV-unprocessed.smi:2579|AV-procd|sdf|10126|dock9
  -GOLD-   2272014143D 1   1.00000     0.00000
 Structure written by MMmdl.
 38 40  0  0  0  0  0  0  0  0  1 V2000
  149.5010  141.0754  153.3231 O   0  0  0  0  0  0  0  0  0  0  0  0
  149.3842  140.4568  154.5866 C   0  0  0  0  0  0  0  0  0  0  0  0
  150.5927  139.5476  154.8438 C   0  0  0  0  0  0  0  0  0  0  0  0
  151.1138  139.7222  156.1859 N   0  0  0  0  0  0  0  0  0  0  0  0
  151.3619  140.8505  156.9566 C   0  0  0  0  0  0  0  0  0  0  0  0
  151.1465  142.0974  156.5413 N   0  0  0  0  0  0  0  0  0  0  0  0
  151.5556  142.8434  157.6309 C   0  0  0  0  0  0  0  0  0  0  0  0
  151.5818  144.2430  157.8267 C   0  0  0  0  0  0  0  0  0  0  0  0
  152.0524  144.7855  159.0405 C   0  0  0  0  0  0  0  0  0  0  0  0
  152.5037  143.9389  160.0739 C   0  0  0  0  0  0  0  0  0  0  0  0
  152.4850  142.5415  159.9012 C   0  0  0  0  0  0  0  0  0  0  0  0
  152.0127  142.0042  158.6887 C   0  0  0  0  0  0  0  0  0  0  0  0
  151.8626  140.7073  158.2069 N   0  0  0  0  0  0  0  0  0  0  0  0
  152.1881  139.4782  158.9165 C   0  0  0  0  0  0  0  0  0  0  0  0
  153.3671  139.6660  159.8846 C   0  0  1  0  0  0  0  0  0  0  0  0
  153.7118  138.4161  160.6946 C   0  0  0  0  0  0  0  0  0  0  0  0
  155.2061  138.5466  160.9568 C   0  0  0  0  0  0  0  0  0  0  0  0
  155.6349  139.7493  160.1135 C   0  0  0  0  0  0  0  0  0  0  0  0
  154.5746  139.9341  159.1893 O   0  0  0  0  0  0  0  0  0  0  0  0
  149.4793  140.4046  152.6578 H   0  0  0  0  0  0  0  0  0  0  0  0
  149.2691  141.2061  155.3710 H   0  0  0  0  0  0  0  0  0  0  0  0
  148.4723  139.8594  154.5774 H   0  0  0  0  0  0  0  0  0  0  0  0
  150.2850  138.5066  154.7412 H   0  0  0  0  0  0  0  0  0  0  0  0
  151.3809  139.7182  154.1099 H   0  0  0  0  0  0  0  0  0  0  0  0
  151.3596  138.8507  156.6332 H   0  0  0  0  0  0  0  0  0  0  0  0
  151.2396  144.9005  157.0413 H   0  0  0  0  0  0  0  0  0  0  0  0
  152.0679  145.8566  159.1791 H   0  0  0  0  0  0  0  0  0  0  0  0
  152.8639  144.3633  160.9996 H   0  0  0  0  0  0  0  0  0  0  0  0
  152.8302  141.8910  160.6910 H   0  0  0  0  0  0  0  0  0  0  0  0
  151.3045  139.1508  159.4651 H   0  0  0  0  0  0  0  0  0  0  0  0
  152.4040  138.6931  158.1911 H   0  0  0  0  0  0  0  0  0  0  0  0
  153.1657  140.4982  160.5621 H   0  0  0  0  0  0  0  0  0  0  0  0
  153.1262  138.3451  161.6117 H   0  0  0  0  0  0  0  0  0  0  0  0
  153.5237  137.5158  160.1080 H   0  0  0  0  0  0  0  0  0  0  0  0
  155.4255  138.7081  162.0128 H   0  0  0  0  0  0  0  0  0  0  0  0
  155.7257  137.6410  160.6412 H   0  0  0  0  0  0  0  0  0  0  0  0
  155.7271  140.6412  160.7351 H   0  0  0  0  0  0  0  0  0  0  0  0
  156.5849  139.5893  159.6030 H   0  0  0  0  0  0  0  0  0  0  0  0
  1  2  1  0  0  0  0
  1 20  1  0  0  0  0
  2  3  1  0  0  0  0
  2 21  1  0  0  0  0
  2 22  1  0  0  0  0
  3  4  1  0  0  0  0
  3 23  1  0  0  0  0
  3 24  1  0  0  0  0
  4  5  1  0  0  0  0
  4 25  1  0  0  0  0
  5 13  1  0  0  0  0
  5  6  2  0  0  0  0
  6  7  1  0  0  0  0
  7 12  2  0  0  0  0
  7  8  1  0  0  0  0
  8  9  2  0  0  0  0
  8 26  1  0  0  0  0
  9 10  1  0  0  0  0
  9 27  1  0  0  0  0
 10 11  2  0  0  0  0
 10 28  1  0  0  0  0
 11 12  1  0  0  0  0
 11 29  1  0  0  0  0
 12 13  1  0  0  0  0
 13 14  1  0  0  0  0
 14 15  1  0  0  0  0
 14 30  1  0  0  0  0
 14 31  1  0  0  0  0
 15 19  1  0  0  0  0
 15 16  1  0  0  0  0
 15 32  1  0  0  0  0
 16 17  1  0  0  0  0
 16 33  1  0  0  0  0
 16 34  1  0  0  0  0
 17 18  1  0  0  0  0
 17 35  1  0  0  0  0
 17 36  1  0  0  0  0
 18 19  1  0  0  0  0
 18 37  1  0  0  0  0
 18 38  1  0  0  0  0
M  END
> <s_m_source_file>
AV-unprocessed.smi

> <i_m_source_file_index>
2579

> <i_lp_mmshare_version>
43012

> <i_f3d_flags>
0

> <s_epik_input>
W09IXVtDSDJdW0NIMl1bTkhdYyhuMSluKGMoYzEyKVtjSF1bY0hdW2NIXVtjSF0yKVtDSDJdW0NAQEhdM1tDSDJdW0NIMl1bQ0gyXU8z

> <s_epik_cmdline>
J2VwaWtfcHl0aG9uJywgJy1waCcsICc3LjAnLCAnLXRuJywgJzgnLCAnLW1hJywgJzIwMCcsICctbWV0YWxfYmluZGluZycsICctaW1hZScsICc8aW5maWxlLm1hZT4nLCAnLW9tYWUnLCAnPG91dGZpbGUubWFlPic=

> <r_epik_Ionization_Penalty>
1.27244

> <r_epik_Ionization_Penalty_Charging>
0

> <r_epik_Ionization_Penalty_Neutral>
1.27244

> <r_epik_State_Penalty>
1.34401

> <r_epik_Charging_Adjusted_Penalty>
1.34401

> <i_epik_Tot_Q>
0

> <i_epik_Tot_abs_Q>
0

> <r_epik_Metal_State_Penalty>
0.00511131

> <b_epik_Metal_Only>
0

> <s_lp_Force_Field>
OPLS_2005

> <r_lp_Energy>
20.6152

> <b_lp_Chiralities_Consistent>
1

> <s_lp_Variant>
AV-unprocessed.smi:2579-4

> <Gold.Version>
5.8.1

> <Gold.Id.Protein>
6NUR|6NUR_protein|mol2

> <Gold.PLP.Fitness>
49.1919

> <Gold.PLP.PLP>
-42.0028

> <Gold.PLP.part.hbond>
-3.5380

> <Gold.PLP.part.metal>
0.0000

> <Gold.PLP.part.buried>
-3.3145

> <Gold.PLP.part.nonpolar>
-33.9912

> <Gold.PLP.part.repulsive>
0.1711

> <Gold.PLP.ligand.clash>
0.0000

> <Gold.PLP.ligand.torsion>
0.8094

> <Gold.PLP.Chemscore.Hbond>
2.9325

> <Gold.PLP.Chemscore.CHOScore>
0.0000

> <Gold.PLP.Chemscore.Metal>
0.0000

> <Gold.Chemscore.Hbonds>
donor molecule, donor type, donor heavy atom, donor atom, acceptor molecule, acceptor atom, score
      L1  H     1    20       P1  7957  0.94
      P1  H  7989  7998       L1     1  0.04
      P1  H  7997  8008       L1    19  1.00
      P1  H  8011  8017       L1     1  0.90

> <Gold.PLP.Chemscore.Internal.Correction>
0.0102

> <Gold.Rescore>
     Score         DG    S(hbond)    S(metal)    S(lipo)     H(rot)  DE(clash)    DE(int)     intcor
     18.93     -20.80       2.31        0.00     112.36       2.17       0.23       1.63       ----

> <Gold.Chemscore.Fitness>
18.9323

> <Gold.Chemscore.DG>
-20.7961

> <Gold.Chemscore.ZeroCoef>
-5.4800

> <Gold.Chemscore.Hbond>
2.3120

> <Gold.Chemscore.Metal>
0.0000

> <Gold.Chemscore.Lipo>
112.3603

> <Gold.Chemscore.Internal_Hbond>
0.0000

> <Gold.Chemscore.DEClash>
0.2336

> <Gold.Chemscore.DEInternal>
1.6301

> <Gold.Chemscore.Rot>
2.1688

> <Gold.Chemscore.Internal.Correction>
   9.000000E+99

> <Gold.Chemscore.Hbonds>
donor molecule, donor type, donor heavy atom, donor atom, acceptor molecule, acceptor atom, score
      L1  H     1    20       P1  7957  0.86
      P1  H  7997  8008       L1    19  0.79
      P1  H  8011  8017       L1     1  0.18

> <Gold.Chemscore.Hbond.Weighted>
-7.7221

> <Gold.Chemscore.Metal.Weighted>
-0.0000

> <Gold.Chemscore.Lipo.Weighted>
-13.1462

> <Gold.Chemscore.Internal_Hbond.Weighted>
0.0000

> <Gold.Chemscore.DEClash.Weighted>
0.2336

> <Gold.Chemscore.DEInternal.Weighted>
1.6301

> <Gold.Chemscore.Rot.Weighted>
5.5522

> <Gold.Chemscore.Internal.Correction.Weighted>
   9.000000E+99

> <Gold.Protein.RotatedTorsions>
[ 6907 6896 6895 6894 ] final -124.09 input  -60.11 | X-H torsion
[ 7974 7965 7964 7962 ] final   55.55 input  175.53 | X-H torsion
[ 8008 7997 7996 7995 ] final -126.43 input   59.86 | X-H torsion
[ 10167 10162 10161 10158 ] final  158.61 input  -65.29 | X-H torsion
[ 10718 10713 10712 10709 ] final  110.50 input   66.30 | X-H torsion
[ 10763 10752 10751 10750 ] final  -43.35 input  -60.55 | X-H torsion
[ 11005 11000 10999 10996 ] final  177.66 input  -57.11 | X-H torsion

> <Gold.Protein.ActiveResidues>
 VAL166  LYS551  ARG553  GLY616  TRP617  ASP618  TYR619  PRO620  LYS621  CYS622 
 ASP623  PHE694  ASN695  SER759  ASP760  ASP761  ALA762  ILE779  LEU786  VAL792 
 PHE793  MET794  SER795  GLU796  ALA797  LYS798  CYS799  TRP800  GLU811  SER814 

> <Gold.Protein.RotatedAtoms>
  150.8734  133.7473  159.2953 H   0  0  0  0  0  0  0  0  0  0  0  0  # atno 6907 bound_to 6896
  151.5078  135.1062  159.9855 H   0  0  0  0  0  0  0  0  0  0  0  0  # atno 6908 bound_to 6896
  152.4711  133.7986  159.6996 H   0  0  0  0  0  0  0  0  0  0  0  0  # atno 6909 bound_to 6896
  145.9492  139.3957  143.0316 H   0  0  0  0  0  0  0  0  0  0  0  0  # atno 7974 bound_to 7965
  155.2296  140.0425  157.2960 H   0  0  0  0  0  0  0  0  0  0  0  0  # atno 8008 bound_to 7997
  154.5897  140.2423  155.7909 H   0  0  0  0  0  0  0  0  0  0  0  0  # atno 8009 bound_to 7997
  156.2250  140.2957  156.0054 H   0  0  0  0  0  0  0  0  0  0  0  0  # atno 8010 bound_to 7997
  139.4828  144.4808  151.8447 H   0  0  0  0  0  0  0  0  0  0  0  0  # atno 10167 bound_to 10162
  157.6491  131.0934  150.6611 H   0  0  0  0  0  0  0  0  0  0  0  0  # atno 10718 bound_to 10713
  153.9942  135.6701  153.4755 H   0  0  0  0  0  0  0  0  0  0  0  0  # atno 10763 bound_to 10752
  153.0691  135.4984  154.8262 H   0  0  0  0  0  0  0  0  0  0  0  0  # atno 10764 bound_to 10752
  154.7091  135.3094  154.9187 H   0  0  0  0  0  0  0  0  0  0  0  0  # atno 10765 bound_to 10752
  140.3865  134.6900  157.4482 H   0  0  0  0  0  0  0  0  0  0  0  0  # atno 11005 bound_to 11000
  145.8194  140.9686  143.0907 LP  0  0  0  0  0  0  0  0  0  0  0  0  # atno 17320 bound_to 7965
  144.6793  140.0022  143.7484 LP  0  0  0  0  0  0  0  0  0  0  0  0  # atno 17321 bound_to 7965
  140.4284  144.2149  150.5887 LP  0  0  0  0  0  0  0  0  0  0  0  0  # atno 17342 bound_to 10162
  140.4804  143.2381  151.8963 LP  0  0  0  0  0  0  0  0  0  0  0  0  # atno 17343 bound_to 10162
  156.6924  130.4599  149.5596 LP  0  0  0  0  0  0  0  0  0  0  0  0  # atno 17370 bound_to 10713
  156.1852  130.6525  151.0998 LP  0  0  0  0  0  0  0  0  0  0  0  0  # atno 17371 bound_to 10713
  140.0438  134.6228  155.8946 LP  0  0  0  0  0  0  0  0  0  0  0  0  # atno 17394 bound_to 11000
  141.1905  133.6569  156.5416 LP  0  0  0  0  0  0  0  0  0  0  0  0  # atno 17395 bound_to 11000

$$$$
