AV-unprocessed.smi:2020|AV-procd|sdf|8174|dock6
  -GOLD-   2272010423D 1   1.00000     0.00000
 Structure written by MMmdl.
 40 41  0  0  0  0  0  0  0  0  1 V2000
  147.5934  122.1755  151.3797 C   0  0  0  0  0  0  0  0  0  0  0  0
  148.1852  123.4177  150.8079 C   0  0  0  0  0  0  0  0  0  0  0  0
  148.1094  124.6099  151.4043 N   0  0  0  0  0  0  0  0  0  0  0  0
  148.7468  125.6188  150.6751 C   0  0  0  0  0  0  0  0  0  0  0  0
  148.7648  127.0228  151.1986 C   0  0  0  0  0  0  0  0  0  0  0  0
  147.3521  127.6222  151.3017 C   0  0  0  0  0  0  0  0  0  0  0  0
  147.3678  129.0715  151.1402 N   0  0  0  0  0  0  0  0  0  0  0  0
  146.4212  129.9052  151.5935 C   0  0  0  0  0  0  0  0  0  0  0  0
  145.4168  129.5412  152.2057 O   0  0  0  0  0  0  0  0  0  0  0  0
  146.6991  131.1821  151.2950 N   0  0  0  0  0  0  0  0  0  0  0  0
  145.8667  132.3291  151.6450 C   0  0  2  0  0  0  0  0  0  0  0  0
  144.3984  132.0793  151.2449 C   0  0  0  0  0  0  0  0  0  0  0  0
  143.5156  133.3022  151.5491 C   0  0  0  0  0  0  0  0  0  0  0  0
  144.0574  134.5895  150.8996 C   0  0  2  0  0  0  0  0  0  0  0  0
  143.8995  134.5277  149.4958 O   0  0  0  0  0  0  0  0  0  0  0  0
  145.5383  134.8231  151.2535 C   0  0  0  0  0  0  0  0  0  0  0  0
  146.4115  133.5921  150.9531 C   0  0  0  0  0  0  0  0  0  0  0  0
  149.3104  125.1683  149.5075 C   0  0  0  0  0  0  0  0  0  0  0  0
  149.0627  123.4582  149.2833 S   0  0  0  0  0  0  0  0  0  0  0  0
  146.6451  122.3986  151.8698 H   0  0  0  0  0  0  0  0  0  0  0  0
  148.2748  121.7423  152.1119 H   0  0  0  0  0  0  0  0  0  0  0  0
  147.4145  121.4444  150.5911 H   0  0  0  0  0  0  0  0  0  0  0  0
  149.2402  127.0460  152.1800 H   0  0  0  0  0  0  0  0  0  0  0  0
  149.3840  127.6468  150.5530 H   0  0  0  0  0  0  0  0  0  0  0  0
  146.6884  127.1715  150.5617 H   0  0  0  0  0  0  0  0  0  0  0  0
  146.9249  127.3972  152.2792 H   0  0  0  0  0  0  0  0  0  0  0  0
  148.1559  129.4667  150.6483 H   0  0  0  0  0  0  0  0  0  0  0  0
  147.5501  131.3769  150.7882 H   0  0  0  0  0  0  0  0  0  0  0  0
  145.9177  132.4856  152.7242 H   0  0  0  0  0  0  0  0  0  0  0  0
  144.3403  131.8426  150.1816 H   0  0  0  0  0  0  0  0  0  0  0  0
  144.0062  131.2099  151.7737 H   0  0  0  0  0  0  0  0  0  0  0  0
  142.4913  133.1158  151.2246 H   0  0  0  0  0  0  0  0  0  0  0  0
  143.4699  133.4422  152.6298 H   0  0  0  0  0  0  0  0  0  0  0  0
  143.4700  135.4394  151.2483 H   0  0  0  0  0  0  0  0  0  0  0  0
  143.0099  134.2729  149.3043 H   0  0  0  0  0  0  0  0  0  0  0  0
  145.9215  135.6941  150.7206 H   0  0  0  0  0  0  0  0  0  0  0  0
  145.6161  135.0591  152.3157 H   0  0  0  0  0  0  0  0  0  0  0  0
  147.4348  133.7837  151.2783 H   0  0  0  0  0  0  0  0  0  0  0  0
  146.4568  133.4337  149.8746 H   0  0  0  0  0  0  0  0  0  0  0  0
  149.8560  125.7364  148.7687 H   0  0  0  0  0  0  0  0  0  0  0  0
  1  2  1  0  0  0  0
  1 20  1  0  0  0  0
  1 21  1  0  0  0  0
  1 22  1  0  0  0  0
  2 19  1  0  0  0  0
  2  3  2  0  0  0  0
  3  4  1  0  0  0  0
  4  5  1  0  0  0  0
  4 18  2  0  0  0  0
  5  6  1  0  0  0  0
  5 23  1  0  0  0  0
  5 24  1  0  0  0  0
  6  7  1  0  0  0  0
  6 25  1  0  0  0  0
  6 26  1  0  0  0  0
  7  8  1  0  0  0  0
  7 27  1  0  0  0  0
  8  9  2  0  0  0  0
  8 10  1  0  0  0  0
 10 11  1  0  0  0  0
 10 28  1  0  0  0  0
 11 17  1  0  0  0  0
 11 12  1  0  0  0  0
 11 29  1  0  0  0  0
 12 13  1  0  0  0  0
 12 30  1  0  0  0  0
 12 31  1  0  0  0  0
 13 14  1  0  0  0  0
 13 32  1  0  0  0  0
 13 33  1  0  0  0  0
 14 15  1  0  0  0  0
 14 16  1  0  0  0  0
 14 34  1  0  0  0  0
 15 35  1  0  0  0  0
 16 17  1  0  0  0  0
 16 36  1  0  0  0  0
 16 37  1  0  0  0  0
 17 38  1  0  0  0  0
 17 39  1  0  0  0  0
 18 19  1  0  0  0  0
 18 40  1  0  0  0  0
M  END
> <s_m_source_file>
AV-unprocessed.smi

> <i_m_source_file_index>
2020

> <i_lp_mmshare_version>
43012

> <i_f3d_flags>
0

> <s_epik_input>
W0NIM11jMW5jKFtjSF1zMSlbQ0gyXVtDSDJdW05IXUMoPU8pW05IXVtDQEBIXTJbQ0gyXVtDSDJdW0NAQEhdKFtPSF0pW0NIMl1bQ0gyXTI=

> <s_epik_cmdline>
J2VwaWtfcHl0aG9uJywgJy1waCcsICc3LjAnLCAnLXRuJywgJzgnLCAnLW1hJywgJzIwMCcsICctbWV0YWxfYmluZGluZycsICctaW1hZScsICc8aW5maWxlLm1hZT4nLCAnLW9tYWUnLCAnPG91dGZpbGUubWFlPic=

> <r_epik_Ionization_Penalty>
0.00202099

> <r_epik_Ionization_Penalty_Charging>
0

> <r_epik_Ionization_Penalty_Neutral>
0.00202099

> <r_epik_State_Penalty>
0.00133629

> <r_epik_Charging_Adjusted_Penalty>
0.00133629

> <i_epik_Tot_Q>
0

> <i_epik_Tot_abs_Q>
0

> <r_epik_Metal_State_Penalty>
-0

> <b_epik_Metal_Only>
0

> <s_lp_Force_Field>
OPLS_2005

> <r_lp_Energy>
2.55027

> <b_lp_Chiralities_Consistent>
1

> <s_lp_Variant>
AV-unprocessed.smi:2020-2

> <Gold.Version>
5.8.1

> <Gold.Id.Protein>
6NUR|6NUR_protein|mol2

> <Gold.PLP.Fitness>
51.3178

> <Gold.PLP.PLP>
-40.3656

> <Gold.PLP.part.hbond>
-4.3955

> <Gold.PLP.part.metal>
0.0000

> <Gold.PLP.part.buried>
-5.8349

> <Gold.PLP.part.nonpolar>
-31.0656

> <Gold.PLP.part.repulsive>
0.3410

> <Gold.PLP.ligand.clash>
0.0000

> <Gold.PLP.ligand.torsion>
0.4353

> <Gold.PLP.Chemscore.Hbond>
2.9360

> <Gold.PLP.Chemscore.CHOScore>
1.0000

> <Gold.PLP.Chemscore.Metal>
0.0000

> <Gold.Chemscore.Hbonds>
donor molecule, donor type, donor heavy atom, donor atom, acceptor molecule, acceptor atom, score
      L1  H     7    27       P1 10747  0.96
      L1  H    10    28       P1 10747  0.96
      L1  H    15    35       P1 10186  1.00
      L1  C    18    40       P1 10769  1.00

> <Gold.PLP.Chemscore.Internal.Correction>
0.0147

> <Gold.Rescore>
     Score         DG    S(hbond)    S(metal)    S(lipo)     H(rot)  DE(clash)    DE(int)     intcor
     17.38     -19.09       2.66        0.00      86.39       2.10       0.09       1.62       ----

> <Gold.Chemscore.Fitness>
17.3760

> <Gold.Chemscore.DG>
-19.0914

> <Gold.Chemscore.ZeroCoef>
-5.4800

> <Gold.Chemscore.Hbond>
2.6583

> <Gold.Chemscore.Metal>
0.0000

> <Gold.Chemscore.Lipo>
86.3922

> <Gold.Chemscore.Internal_Hbond>
0.0000

> <Gold.Chemscore.DEClash>
0.0943

> <Gold.Chemscore.DEInternal>
1.6211

> <Gold.Chemscore.Rot>
2.0997

> <Gold.Chemscore.Internal.Correction>
   9.000000E+99

> <Gold.Chemscore.Hbonds>
donor molecule, donor type, donor heavy atom, donor atom, acceptor molecule, acceptor atom, score
      L1  H     7    27       P1 10747  0.36
      L1  H    10    28       P1 10747  0.91
      L1  H    15    35       P1 10186  0.91

> <Gold.Chemscore.Hbond.Weighted>
-8.8788

> <Gold.Chemscore.Metal.Weighted>
-0.0000

> <Gold.Chemscore.Lipo.Weighted>
-10.1079

> <Gold.Chemscore.Internal_Hbond.Weighted>
0.0000

> <Gold.Chemscore.DEClash.Weighted>
0.0943

> <Gold.Chemscore.DEInternal.Weighted>
1.6211

> <Gold.Chemscore.Rot.Weighted>
5.3752

> <Gold.Chemscore.Internal.Correction.Weighted>
   9.000000E+99

> <Gold.Protein.RotatedTorsions>
[ 6907 6896 6895 6894 ] final -157.78 input  -60.11 | X-H torsion
[ 7974 7965 7964 7962 ] final  134.14 input  175.53 | X-H torsion
[ 8008 7997 7996 7995 ] final  141.46 input   59.86 | X-H torsion
[ 10167 10162 10161 10158 ] final   12.28 input  -65.29 | X-H torsion
[ 10718 10713 10712 10709 ] final  -89.01 input   66.30 | X-H torsion
[ 10763 10752 10751 10750 ] final   86.67 input  -60.55 | X-H torsion
[ 11005 11000 10999 10996 ] final -144.75 input  -57.11 | X-H torsion

> <Gold.Protein.ActiveResidues>
 VAL166  LYS551  ARG553  GLY616  TRP617  ASP618  TYR619  PRO620  LYS621  CYS622 
 ASP623  PHE694  ASN695  SER759  ASP760  ASP761  ALA762  ILE779  LEU786  VAL792 
 PHE793  MET794  SER795  GLU796  ALA797  LYS798  CYS799  TRP800  GLU811  SER814 

> <Gold.Protein.RotatedAtoms>
  151.3081  133.4092  159.2644 H   0  0  0  0  0  0  0  0  0  0  0  0  # atno 6907 bound_to 6896
  151.0137  134.9417  159.8032 H   0  0  0  0  0  0  0  0  0  0  0  0  # atno 6908 bound_to 6896
  152.5307  134.3045  159.9143 H   0  0  0  0  0  0  0  0  0  0  0  0  # atno 6909 bound_to 6896
  144.9794  139.4520  143.5394 H   0  0  0  0  0  0  0  0  0  0  0  0  # atno 7974 bound_to 7965
  156.2965  140.2314  156.4568 H   0  0  0  0  0  0  0  0  0  0  0  0  # atno 8008 bound_to 7997
  154.8053  140.0446  157.1324 H   0  0  0  0  0  0  0  0  0  0  0  0  # atno 8009 bound_to 7997
  154.9486  140.3039  155.5089 H   0  0  0  0  0  0  0  0  0  0  0  0  # atno 8010 bound_to 7997
  140.6078  143.8471  150.7032 H   0  0  0  0  0  0  0  0  0  0  0  0  # atno 10167 bound_to 10162
  155.9984  130.4856  150.5105 H   0  0  0  0  0  0  0  0  0  0  0  0  # atno 10718 bound_to 10713
  153.1593  135.4572  154.9749 H   0  0  0  0  0  0  0  0  0  0  0  0  # atno 10763 bound_to 10752
  154.7885  135.3212  154.7833 H   0  0  0  0  0  0  0  0  0  0  0  0  # atno 10764 bound_to 10752
  153.8326  135.6937  153.4867 H   0  0  0  0  0  0  0  0  0  0  0  0  # atno 10765 bound_to 10752
  140.7993  134.2876  157.4985 H   0  0  0  0  0  0  0  0  0  0  0  0  # atno 11005 bound_to 11000
  146.3404  139.9057  142.8788 LP  0  0  0  0  0  0  0  0  0  0  0  0  # atno 17320 bound_to 7965
  145.2443  141.0021  143.3918 LP  0  0  0  0  0  0  0  0  0  0  0  0  # atno 17321 bound_to 7965
  140.2032  143.3942  152.1775 LP  0  0  0  0  0  0  0  0  0  0  0  0  # atno 17342 bound_to 10162
  139.5338  144.7188  151.4963 LP  0  0  0  0  0  0  0  0  0  0  0  0  # atno 17343 bound_to 10162
  157.3079  131.0658  151.2022 LP  0  0  0  0  0  0  0  0  0  0  0  0  # atno 17370 bound_to 10713
  157.2978  130.6828  149.6148 LP  0  0  0  0  0  0  0  0  0  0  0  0  # atno 17371 bound_to 10713
  139.8723  134.9420  156.3812 LP  0  0  0  0  0  0  0  0  0  0  0  0  # atno 17394 bound_to 11000
  140.9311  133.7578  156.0026 LP  0  0  0  0  0  0  0  0  0  0  0  0  # atno 17395 bound_to 11000

$$$$
