AV-unprocessed.smi:44|AV-procd|sdf|404|dock2
  -GOLD-   2262016253D 1   1.00000     0.00000
 Structure written by MMmdl.
 28 30  0  0  0  0  0  0  0  0  2 V2000
  153.2325  138.4013  157.0629 O   0  0  0  0  0  0  0  0  0  0  0  0
  152.3537  138.4504  156.2046 C   0  0  0  0  0  0  0  0  0  0  0  0
  152.0438  137.4411  155.3297 N   0  5  0  0  0  0  0  0  0  0  0  0
  151.0226  137.6242  154.3994 C   0  0  0  0  0  0  0  0  0  0  0  0
  150.2839  138.6689  154.2359 N   0  0  0  0  0  0  0  0  0  0  0  0
  150.5738  139.6993  155.1063 C   0  0  0  0  0  0  0  0  0  0  0  0
  151.5398  139.6923  156.0761 C   0  0  0  0  0  0  0  0  0  0  0  0
  151.5661  140.8965  156.7696 N   0  0  0  0  0  0  0  0  0  0  0  0
  150.5935  141.5844  156.1712 C   0  0  0  0  0  0  0  0  0  0  0  0
  149.9545  140.9408  155.1718 N   0  0  0  0  0  0  0  0  0  0  0  0
  148.8367  141.4460  154.3185 C   0  0  2  0  0  0  0  0  0  0  0  0
  147.5664  141.6192  155.1596 C   0  0  0  0  0  0  0  0  0  0  0  0
  146.5107  141.0426  154.2423 C   0  0  0  0  0  0  0  0  0  0  0  0
  147.2844  139.9121  153.5665 C   0  0  1  0  0  0  0  0  0  0  0  0
  146.6770  139.4245  152.2442 C   0  0  0  0  0  0  0  0  0  0  0  0
  147.4290  138.3465  151.7283 O   0  0  0  0  0  0  0  0  0  0  0  0
  148.5622  140.4937  153.3316 O   0  0  0  0  0  0  0  0  0  0  0  0
  149.2016  142.3686  153.8663 H   0  0  0  0  0  0  0  0  0  0  0  0
  147.4070  139.0773  154.2586 H   0  0  0  0  0  0  0  0  0  0  0  0
  150.8855  136.7425  153.7682 H   0  0  0  0  0  0  0  0  0  0  0  0
  150.3402  142.5903  156.4701 H   0  0  0  0  0  0  0  0  0  0  0  0
  147.6347  141.0328  156.0776 H   0  0  0  0  0  0  0  0  0  0  0  0
  147.4029  142.6662  155.4159 H   0  0  0  0  0  0  0  0  0  0  0  0
  145.6266  140.6947  154.7769 H   0  0  0  0  0  0  0  0  0  0  0  0
  146.1997  141.7893  153.5106 H   0  0  0  0  0  0  0  0  0  0  0  0
  145.6396  139.1174  152.3800 H   0  0  0  0  0  0  0  0  0  0  0  0
  146.6820  140.2307  151.5102 H   0  0  0  0  0  0  0  0  0  0  0  0
  148.2083  138.6923  151.3210 H   0  0  0  0  0  0  0  0  0  0  0  0
  1  2  2  0  0  0  0
  2  7  1  0  0  0  0
  2  3  1  0  0  0  0
  3  4  1  0  0  0  0
  4  5  2  0  0  0  0
  4 20  1  0  0  0  0
  5  6  1  0  0  0  0
  6 10  1  0  0  0  0
  6  7  2  0  0  0  0
  7  8  1  0  0  0  0
  8  9  2  0  0  0  0
  9 10  1  0  0  0  0
  9 21  1  0  0  0  0
 10 11  1  0  0  0  0
 11 18  1  0  0  0  0
 11 17  1  0  0  0  0
 11 12  1  0  0  0  0
 12 13  1  0  0  0  0
 12 22  1  0  0  0  0
 12 23  1  0  0  0  0
 13 14  1  0  0  0  0
 13 24  1  0  0  0  0
 13 25  1  0  0  0  0
 14 19  1  0  0  0  0
 14 15  1  0  0  0  0
 14 17  1  0  0  0  0
 15 16  1  0  0  0  0
 15 26  1  0  0  0  0
 15 27  1  0  0  0  0
 16 28  1  0  0  0  0
M  CHG  1   3  -1
M  END
> <s_m_source_file>
AV-unprocessed.smi

> <i_m_source_file_index>
44

> <i_lp_mmshare_version>
43012

> <i_f3d_flags>
0

> <s_epik_input>
bjFbY0hdW25IXWMoPU8pYyhjMTIpbltjSF1uMltDQEhdM1tDSDJdW0NIMl1bQ0BIXShPMylbQ0gyXVtPSF0=

> <s_epik_cmdline>
J2VwaWtfcHl0aG9uJywgJy1waCcsICc3LjAnLCAnLXRuJywgJzgnLCAnLW1hJywgJzIwMCcsICctbWV0YWxfYmluZGluZycsICctaW1hZScsICc8aW5maWxlLm1hZT4nLCAnLW9tYWUnLCAnPG91dGZpbGUubWFlPic=

> <r_lp_tautomer_probability>
0.85571

> <r_epik_Ionization_Penalty>
2.55863

> <r_epik_Ionization_Penalty_Charging>
1.36424e-10

> <r_epik_Ionization_Penalty_Neutral>
2.55863

> <r_epik_State_Penalty>
2.63326

> <r_epik_Charging_Adjusted_Penalty>
2.63326

> <i_epik_Tot_Q>
-1

> <i_epik_Tot_abs_Q>
1

> <r_epik_Metal_State_Penalty>
0.475154

> <b_epik_Metal_Only>
1

> <s_epik_Chemistry_Notes>
This compound contains an acetal/aminal-like group ( X-CH(R)-Y where X, Y are N, S, or O) that may be acid/base labile, releasing an aldehyde.

> <s_lp_Force_Field>
OPLS_2005

> <r_lp_Energy>
46.6553

> <b_lp_Chiralities_Consistent>
1

> <s_lp_Variant>
AV-unprocessed.smi:44-10

> <Gold.Version>
5.8.1

> <Gold.Id.Protein>
6NUR|6NUR_protein|mol2

> <Gold.PLP.Fitness>
43.2745

> <Gold.PLP.PLP>
-29.3085

> <Gold.PLP.part.hbond>
-5.0000

> <Gold.PLP.part.metal>
0.0000

> <Gold.PLP.part.buried>
-1.1531

> <Gold.PLP.part.nonpolar>
-27.7875

> <Gold.PLP.part.repulsive>
4.6699

> <Gold.PLP.ligand.clash>
0.0000

> <Gold.PLP.ligand.torsion>
0.0942

> <Gold.PLP.Chemscore.Hbond>
2.9984

> <Gold.PLP.Chemscore.CHOScore>
1.7159

> <Gold.PLP.Chemscore.Metal>
0.0000

> <Gold.Chemscore.Hbonds>
donor molecule, donor type, donor heavy atom, donor atom, acceptor molecule, acceptor atom, score
      L1  H    16    28       P1  7957  1.00
      P1  H  7997  8008       L1     1  0.94
      P1  H 10752 10765       L1     3  1.13
      L1  C     4    20       P1  7948  0.13
      L1  C     4    20       P1  7949  0.91
      L1  C     9    21       P1  8028  0.57

> <Gold.PLP.Chemscore.Internal.Correction>
0.0115

> <Gold.Rescore>
     Score         DG    S(hbond)    S(metal)    S(lipo)     H(rot)  DE(clash)    DE(int)     intcor
      7.13      -8.92       1.84        0.00      26.36       2.26       0.06       1.73       ----

> <Gold.Chemscore.Fitness>
7.1272

> <Gold.Chemscore.DG>
-8.9163

> <Gold.Chemscore.ZeroCoef>
-5.4800

> <Gold.Chemscore.Hbond>
1.8369

> <Gold.Chemscore.Metal>
0.0000

> <Gold.Chemscore.Lipo>
26.3562

> <Gold.Chemscore.Internal_Hbond>
0.0000

> <Gold.Chemscore.DEClash>
0.0624

> <Gold.Chemscore.DEInternal>
1.7268

> <Gold.Chemscore.Rot>
2.2588

> <Gold.Chemscore.Internal.Correction>
   9.000000E+99

> <Gold.Chemscore.Hbonds>
donor molecule, donor type, donor heavy atom, donor atom, acceptor molecule, acceptor atom, score
      L1  H    16    28       P1  7957  0.25
      P1  H  7997  8008       L1     1  0.57
      P1  H 10752 10765       L1     3  0.19

> <Gold.Chemscore.Hbond.Weighted>
-6.1351

> <Gold.Chemscore.Metal.Weighted>
-0.0000

> <Gold.Chemscore.Lipo.Weighted>
-3.0837

> <Gold.Chemscore.Internal_Hbond.Weighted>
0.0000

> <Gold.Chemscore.DEClash.Weighted>
0.0624

> <Gold.Chemscore.DEInternal.Weighted>
1.7268

> <Gold.Chemscore.Rot.Weighted>
5.7825

> <Gold.Chemscore.Internal.Correction.Weighted>
   9.000000E+99

> <Gold.Protein.RotatedTorsions>
[ 6907 6896 6895 6894 ] final  124.48 input  -60.11 | X-H torsion
[ 7974 7965 7964 7962 ] final  115.47 input  175.53 | X-H torsion
[ 8008 7997 7996 7995 ] final  -70.43 input   59.86 | X-H torsion
[ 10167 10162 10161 10158 ] final  -96.36 input  -65.29 | X-H torsion
[ 10718 10713 10712 10709 ] final  -48.08 input   66.30 | X-H torsion
[ 10763 10752 10751 10750 ] final -177.77 input  -60.55 | X-H torsion
[ 11005 11000 10999 10996 ] final  -74.60 input  -57.11 | X-H torsion

> <Gold.Protein.ActiveResidues>
 VAL166  LYS551  ARG553  GLY616  TRP617  ASP618  TYR619  PRO620  LYS621  CYS622 
 ASP623  PHE694  ASN695  SER759  ASP760  ASP761  ALA762  ILE779  LEU786  VAL792 
 PHE793  MET794  SER795  GLU796  ALA797  LYS798  CYS799  TRP800  GLU811  SER814 

> <Gold.Protein.RotatedAtoms>
  152.4075  133.6911  159.6368 H   0  0  0  0  0  0  0  0  0  0  0  0  # atno 6907 bound_to 6896
  150.7958  133.8684  159.3260 H   0  0  0  0  0  0  0  0  0  0  0  0  # atno 6908 bound_to 6896
  151.6434  135.1012  160.0197 H   0  0  0  0  0  0  0  0  0  0  0  0  # atno 6909 bound_to 6896
  145.1916  139.2997  143.4365 H   0  0  0  0  0  0  0  0  0  0  0  0  # atno 7974 bound_to 7965
  154.5011  140.0834  156.7800 H   0  0  0  0  0  0  0  0  0  0  0  0  # atno 8008 bound_to 7997
  155.4000  140.3436  155.4238 H   0  0  0  0  0  0  0  0  0  0  0  0  # atno 8009 bound_to 7997
  156.1458  140.1543  156.8837 H   0  0  0  0  0  0  0  0  0  0  0  0  # atno 8010 bound_to 7997
  140.2947  143.3200  152.0310 H   0  0  0  0  0  0  0  0  0  0  0  0  # atno 10167 bound_to 10162
  156.2022  130.4157  149.9225 H   0  0  0  0  0  0  0  0  0  0  0  0  # atno 10718 bound_to 10713
  154.5560  135.2816  155.0964 H   0  0  0  0  0  0  0  0  0  0  0  0  # atno 10763 bound_to 10752
  154.2391  135.6360  153.5205 H   0  0  0  0  0  0  0  0  0  0  0  0  # atno 10764 bound_to 10752
  153.0016  135.5556  154.6140 H   0  0  0  0  0  0  0  0  0  0  0  0  # atno 10765 bound_to 10752
  141.1637  133.6917  156.7388 H   0  0  0  0  0  0  0  0  0  0  0  0  # atno 11005 bound_to 11000
  146.3435  140.2130  142.8590 LP  0  0  0  0  0  0  0  0  0  0  0  0  # atno 17320 bound_to 7965
  145.0036  140.8653  143.5267 LP  0  0  0  0  0  0  0  0  0  0  0  0  # atno 17321 bound_to 7965
  139.4929  144.6500  151.6697 LP  0  0  0  0  0  0  0  0  0  0  0  0  # atno 17342 bound_to 10162
  140.5703  144.0121  150.6213 LP  0  0  0  0  0  0  0  0  0  0  0  0  # atno 17343 bound_to 10162
  156.6930  130.8903  151.3590 LP  0  0  0  0  0  0  0  0  0  0  0  0  # atno 17370 bound_to 10713
  157.6992  130.9315  150.0735 LP  0  0  0  0  0  0  0  0  0  0  0  0  # atno 17371 bound_to 10713
  140.2690  134.8407  157.3829 LP  0  0  0  0  0  0  0  0  0  0  0  0  # atno 17394 bound_to 11000
  140.1540  134.4814  155.7941 LP  0  0  0  0  0  0  0  0  0  0  0  0  # atno 17395 bound_to 11000

$$$$
