AV-unprocessed.smi:39|AV-procd|sdf|359|dock6
  -GOLD-   2262016203D 1   1.00000     0.00000
 Structure written by MMmdl.
 31 32  0  0  0  0  0  0  0  0  4 V2000
  150.4476  143.0763  158.5502 C   0  0  0  0  0  0  0  0  0  0  0  0
  150.9363  141.9700  157.6318 C   0  0  0  0  0  0  0  0  0  0  0  0
  150.3530  141.7111  156.4405 C   0  0  0  0  0  0  0  0  0  0  0  0
  150.7989  140.6991  155.6079 N   0  0  0  0  0  0  0  0  0  0  0  0
  150.1200  140.4199  154.2833 C   0  0  1  0  0  0  0  0  0  0  0  0
  149.3513  139.0972  154.3491 C   0  0  0  0  0  0  0  0  0  0  0  0
  147.9440  139.5734  154.6555 C   0  0  2  0  0  0  0  0  0  0  0  0
  146.9165  138.6124  154.2485 N   0  0  0  0  0  0  0  0  0  0  0  0
  146.1715  138.1922  155.1434 N   0  3  0  0  0  0  0  0  0  0  0  0
  145.5877  137.7988  156.0375 N   0  5  0  0  0  0  0  0  0  0  0  0
  147.8882  140.8723  153.8471 C   0  0  1  0  0  0  0  0  0  0  0  0
  146.8207  141.8595  154.3452 C   0  0  0  0  0  0  0  0  0  0  0  0
  147.1693  143.1780  153.9810 O   0  0  0  0  0  0  0  0  0  0  0  0
  149.1896  141.4308  154.0185 O   0  0  0  0  0  0  0  0  0  0  0  0
  151.8868  139.8840  156.0173 C   0  0  0  0  0  0  0  0  0  0  0  0
  152.2379  138.9687  155.2724 O   0  0  0  0  0  0  0  0  0  0  0  0
  152.4867  140.1426  157.2142 N   0  5  0  0  0  0  0  0  0  0  0  0
  152.0770  141.1439  158.0447 C   0  0  0  0  0  0  0  0  0  0  0  0
  152.6308  141.3696  159.1202 O   0  0  0  0  0  0  0  0  0  0  0  0
  150.9047  140.4397  153.5255 H   0  0  0  0  0  0  0  0  0  0  0  0
  147.8642  139.8090  155.7189 H   0  0  0  0  0  0  0  0  0  0  0  0
  147.7419  140.6359  152.7912 H   0  0  0  0  0  0  0  0  0  0  0  0
  149.6021  143.6089  158.1142 H   0  0  0  0  0  0  0  0  0  0  0  0
  151.2437  143.7983  158.7342 H   0  0  0  0  0  0  0  0  0  0  0  0
  150.1291  142.6627  159.5075 H   0  0  0  0  0  0  0  0  0  0  0  0
  149.5100  142.3137  156.1400 H   0  0  0  0  0  0  0  0  0  0  0  0
  149.4009  138.6211  153.3687 H   0  0  0  0  0  0  0  0  0  0  0  0
  149.7609  138.4137  155.0941 H   0  0  0  0  0  0  0  0  0  0  0  0
  145.8592  141.6382  153.8814 H   0  0  0  0  0  0  0  0  0  0  0  0
  146.6825  141.7869  155.4241 H   0  0  0  0  0  0  0  0  0  0  0  0
  147.6581  143.5661  154.6905 H   0  0  0  0  0  0  0  0  0  0  0  0
  1  2  1  0  0  0  0
  1 23  1  0  0  0  0
  1 24  1  0  0  0  0
  1 25  1  0  0  0  0
  2 18  1  0  0  0  0
  2  3  2  0  0  0  0
  3  4  1  0  0  0  0
  3 26  1  0  0  0  0
  4  5  1  0  0  0  0
  4 15  1  0  0  0  0
  5 20  1  0  0  0  0
  5 14  1  0  0  0  0
  5  6  1  0  0  0  0
  6  7  1  0  0  0  0
  6 27  1  0  0  0  0
  6 28  1  0  0  0  0
  7 21  1  0  0  0  0
  7  8  1  0  0  0  0
  7 11  1  0  0  0  0
  8  9  2  0  0  0  0
  9 10  2  0  0  0  0
 11 22  1  0  0  0  0
 11 12  1  0  0  0  0
 11 14  1  0  0  0  0
 12 13  1  0  0  0  0
 12 29  1  0  0  0  0
 12 30  1  0  0  0  0
 13 31  1  0  0  0  0
 15 16  2  0  0  0  0
 15 17  1  0  0  0  0
 17 18  1  0  0  0  0
 18 19  2  0  0  0  0
M  CHG  1   9   1
M  CHG  1  10  -1
M  CHG  1  17  -1
M  END
> <s_m_source_file>
AV-unprocessed.smi

> <i_m_source_file_index>
39

> <i_lp_mmshare_version>
43012

> <i_f3d_flags>
0

> <s_epik_input>
Tz1jMVtuSF1jKD1PKW4oW2NIXWMxW0NIM10pW0NASF0yW0NIMl1bQ0BIXShOPVtOK109W04tXSlbQ0BIXShPMilbQ0gyXVtPSF0=

> <s_epik_cmdline>
J2VwaWtfcHl0aG9uJywgJy1waCcsICc3LjAnLCAnLXRuJywgJzgnLCAnLW1hJywgJzIwMCcsICctbWV0YWxfYmluZGluZycsICctaW1hZScsICc8aW5maWxlLm1hZT4nLCAnLW9tYWUnLCAnPG91dGZpbGUubWFlPic=

> <r_lp_tautomer_probability>
0.999537

> <r_epik_Ionization_Penalty>
3.6393

> <r_epik_Ionization_Penalty_Charging>
9.76484e-08

> <r_epik_Ionization_Penalty_Neutral>
3.6393

> <r_epik_State_Penalty>
3.63887

> <r_epik_Charging_Adjusted_Penalty>
3.63887

> <i_epik_Tot_Q>
-1

> <i_epik_Tot_abs_Q>
3

> <r_epik_Metal_State_Penalty>
0.225911

> <b_epik_Metal_Only>
1

> <s_epik_Chemistry_Notes>
This compound contains an acetal/aminal-like group ( X-CH(R)-Y where X, Y are N, S, or O) that may be acid/base labile, releasing an aldehyde.

> <s_lp_Force_Field>
OPLS_2005

> <r_lp_Energy>
34.0218

> <b_lp_Chiralities_Consistent>
1

> <s_lp_Variant>
AV-unprocessed.smi:39-9

> <Gold.Version>
5.8.1

> <Gold.Id.Protein>
6NUR|6NUR_protein|mol2

> <Gold.PLP.Fitness>
40.7677

> <Gold.PLP.PLP>
-27.3419

> <Gold.PLP.part.hbond>
-4.9318

> <Gold.PLP.part.metal>
0.0000

> <Gold.PLP.part.buried>
2.0685

> <Gold.PLP.part.nonpolar>
-23.8669

> <Gold.PLP.part.repulsive>
0.3552

> <Gold.PLP.ligand.clash>
0.0000

> <Gold.PLP.ligand.torsion>
0.3981

> <Gold.PLP.Chemscore.Hbond>
3.7296

> <Gold.PLP.Chemscore.CHOScore>
1.0000

> <Gold.PLP.Chemscore.Metal>
0.0000

> <Gold.Chemscore.Hbonds>
donor molecule, donor type, donor heavy atom, donor atom, acceptor molecule, acceptor atom, score
      L1  H    13    31       P1  8028  1.00
      P1  H  7997  8008       L1    17  2.00
      P1  H  8011  8017       L1    14  0.70
      L1  C     3    26       P1  8028  1.00

> <Gold.PLP.Chemscore.Internal.Correction>
0.0333

> <Gold.Rescore>
     Score         DG    S(hbond)    S(metal)    S(lipo)     H(rot)  DE(clash)    DE(int)     intcor
      6.85     -10.05       1.91        0.00      43.78       2.72       2.65       0.55       ----

> <Gold.Chemscore.Fitness>
6.8467

> <Gold.Chemscore.DG>
-10.0458

> <Gold.Chemscore.ZeroCoef>
-5.4800

> <Gold.Chemscore.Hbond>
1.9146

> <Gold.Chemscore.Metal>
0.0000

> <Gold.Chemscore.Lipo>
43.7804

> <Gold.Chemscore.Internal_Hbond>
0.0000

> <Gold.Chemscore.DEClash>
2.6450

> <Gold.Chemscore.DEInternal>
0.5542

> <Gold.Chemscore.Rot>
2.7153

> <Gold.Chemscore.Internal.Correction>
   9.000000E+99

> <Gold.Chemscore.Hbonds>
donor molecule, donor type, donor heavy atom, donor atom, acceptor molecule, acceptor atom, score
      L1  H    13    31       P1  8028  0.30
      P1  H  7997  8008       L1    17  0.23
      P1  H  8011  8017       L1    14  0.34

> <Gold.Chemscore.Hbond.Weighted>
-6.3947

> <Gold.Chemscore.Metal.Weighted>
-0.0000

> <Gold.Chemscore.Lipo.Weighted>
-5.1223

> <Gold.Chemscore.Internal_Hbond.Weighted>
0.0000

> <Gold.Chemscore.DEClash.Weighted>
2.6450

> <Gold.Chemscore.DEInternal.Weighted>
0.5542

> <Gold.Chemscore.Rot.Weighted>
6.9512

> <Gold.Chemscore.Internal.Correction.Weighted>
   9.000000E+99

> <Gold.Protein.RotatedTorsions>
[ 6907 6896 6895 6894 ] final  173.16 input  -60.11 | X-H torsion
[ 7974 7965 7964 7962 ] final -119.50 input  175.53 | X-H torsion
[ 8008 7997 7996 7995 ] final  -62.13 input   59.86 | X-H torsion
[ 10167 10162 10161 10158 ] final  -76.02 input  -65.29 | X-H torsion
[ 10718 10713 10712 10709 ] final -115.61 input   66.30 | X-H torsion
[ 10763 10752 10751 10750 ] final   64.65 input  -60.55 | X-H torsion
[ 11005 11000 10999 10996 ] final -145.23 input  -57.11 | X-H torsion

> <Gold.Protein.ActiveResidues>
 VAL166  LYS551  ARG553  GLY616  TRP617  ASP618  TYR619  PRO620  LYS621  CYS622 
 ASP623  PHE694  ASN695  SER759  ASP760  ASP761  ALA762  ILE779  LEU786  VAL792 
 PHE793  MET794  SER795  GLU796  ALA797  LYS798  CYS799  TRP800  GLU811  SER814 

> <Gold.Protein.RotatedAtoms>
  151.7728  133.3342  159.3449 H   0  0  0  0  0  0  0  0  0  0  0  0  # atno 6907 bound_to 6896
  150.7455  134.6003  159.6042 H   0  0  0  0  0  0  0  0  0  0  0  0  # atno 6908 bound_to 6896
  152.3329  134.7237  160.0336 H   0  0  0  0  0  0  0  0  0  0  0  0  # atno 6909 bound_to 6896
  145.0618  140.8295  143.4148 H   0  0  0  0  0  0  0  0  0  0  0  0  # atno 7974 bound_to 7965
  154.4483  140.1003  156.6539 H   0  0  0  0  0  0  0  0  0  0  0  0  # atno 8008 bound_to 7997
  155.5367  140.3482  155.4419 H   0  0  0  0  0  0  0  0  0  0  0  0  # atno 8009 bound_to 7997
  156.0626  140.1330  156.9913 H   0  0  0  0  0  0  0  0  0  0  0  0  # atno 8010 bound_to 7997
  140.4892  143.2384  151.7934 H   0  0  0  0  0  0  0  0  0  0  0  0  # atno 10167 bound_to 10162
  156.0907  130.6090  150.8928 H   0  0  0  0  0  0  0  0  0  0  0  0  # atno 10718 bound_to 10713
  153.0064  135.5385  154.6544 H   0  0  0  0  0  0  0  0  0  0  0  0  # atno 10763 bound_to 10752
  154.5768  135.2846  155.0775 H   0  0  0  0  0  0  0  0  0  0  0  0  # atno 10764 bound_to 10752
  154.1919  135.6499  153.5115 H   0  0  0  0  0  0  0  0  0  0  0  0  # atno 10765 bound_to 10752
  140.7943  134.2931  157.5002 H   0  0  0  0  0  0  0  0  0  0  0  0  # atno 11005 bound_to 11000
  145.1399  139.2579  143.5495 LP  0  0  0  0  0  0  0  0  0  0  0  0  # atno 17320 bound_to 7965
  146.3525  140.1074  142.8605 LP  0  0  0  0  0  0  0  0  0  0  0  0  # atno 17321 bound_to 7965
  139.4848  144.4671  151.9471 LP  0  0  0  0  0  0  0  0  0  0  0  0  # atno 17342 bound_to 10162
  140.3757  144.2799  150.5914 LP  0  0  0  0  0  0  0  0  0  0  0  0  # atno 17343 bound_to 10162
  157.6055  131.0939  150.8886 LP  0  0  0  0  0  0  0  0  0  0  0  0  # atno 17370 bound_to 10713
  156.9036  130.5255  149.5282 LP  0  0  0  0  0  0  0  0  0  0  0  0  # atno 17371 bound_to 10713
  139.8728  134.9393  156.3738 LP  0  0  0  0  0  0  0  0  0  0  0  0  # atno 17394 bound_to 11000
  140.9358  133.7548  156.0083 LP  0  0  0  0  0  0  0  0  0  0  0  0  # atno 17395 bound_to 11000

$$$$
