AV-unprocessed.smi:2525|AV-procd|sdf|9929|dock1
  -GOLD-   2272013573D 1   1.00000     0.00000
 Structure written by MMmdl.
 44 45  0  0  0  0  0  0  0  0  1 V2000
  151.2779  141.7388  157.6291 C   0  0  0  0  0  0  0  0  0  0  0  0
  152.0908  140.7997  158.5362 C   0  0  0  0  0  0  0  0  0  0  0  0
  151.7218  139.2992  158.4248 C   0  0  0  0  0  0  0  0  0  0  0  0
  152.4867  138.5061  159.5121 C   0  0  0  0  0  0  0  0  0  0  0  0
  154.0178  138.6218  159.4453 C   0  0  0  0  0  0  0  0  0  0  0  0
  150.1893  139.0545  158.2864 C   0  0  2  0  0  0  0  0  0  0  0  0
  149.7365  137.7668  158.8123 N   0  0  0  0  0  0  0  0  0  0  0  0
  148.4569  137.3697  158.8781 C   0  0  0  0  0  0  0  0  0  0  0  0
  147.5098  138.0780  158.5387 O   0  0  0  0  0  0  0  0  0  0  0  0
  148.2054  135.9609  159.4215 C   0  0  0  0  0  0  0  0  0  0  0  0
  147.5503  135.9963  160.7182 N   0  0  0  0  0  0  0  0  0  0  0  0
  147.1563  134.9382  161.5124 C   0  0  0  0  0  0  0  0  0  0  0  0
  146.5845  135.5476  162.5923 C   0  0  0  0  0  0  0  0  0  0  0  0
  146.6546  136.9281  162.4153 N   0  0  0  0  0  0  0  0  0  0  0  0
  147.2371  137.1857  161.2865 N   0  0  0  0  0  0  0  0  0  0  0  0
  150.3431  139.0178  156.7550 C   0  0  2  0  0  0  0  0  0  0  0  0
  149.4851  138.0765  155.9119 C   0  0  0  0  0  0  0  0  0  0  0  0
  151.8245  138.6965  157.0007 C   0  0  1  0  0  0  0  0  0  0  0  0
  152.7389  139.3968  156.1697 O   0  0  0  0  0  0  0  0  0  0  0  0
  152.7700  138.9093  154.8400 C   0  0  0  0  0  0  0  0  0  0  0  0
  151.6729  142.7535  157.6792 H   0  0  0  0  0  0  0  0  0  0  0  0
  150.2317  141.7879  157.9292 H   0  0  0  0  0  0  0  0  0  0  0  0
  151.3148  141.4237  156.5863 H   0  0  0  0  0  0  0  0  0  0  0  0
  153.1419  140.9394  158.2831 H   0  0  0  0  0  0  0  0  0  0  0  0
  152.0150  141.1446  159.5670 H   0  0  0  0  0  0  0  0  0  0  0  0
  152.1425  138.7811  160.5090 H   0  0  0  0  0  0  0  0  0  0  0  0
  152.2581  137.4441  159.4241 H   0  0  0  0  0  0  0  0  0  0  0  0
  154.4835  137.9344  160.1517 H   0  0  0  0  0  0  0  0  0  0  0  0
  154.3624  139.6233  159.7008 H   0  0  0  0  0  0  0  0  0  0  0  0
  154.3919  138.3769  158.4510 H   0  0  0  0  0  0  0  0  0  0  0  0
  149.5726  139.8949  158.6088 H   0  0  0  0  0  0  0  0  0  0  0  0
  150.4504  137.1212  159.1171 H   0  0  0  0  0  0  0  0  0  0  0  0
  147.5776  135.4079  158.7219 H   0  0  0  0  0  0  0  0  0  0  0  0
  149.1468  135.4161  159.5105 H   0  0  0  0  0  0  0  0  0  0  0  0
  147.3060  133.9012  161.2508 H   0  0  0  0  0  0  0  0  0  0  0  0
  146.1324  135.1132  163.4718 H   0  0  0  0  0  0  0  0  0  0  0  0
  150.2547  140.0383  156.3786 H   0  0  0  0  0  0  0  0  0  0  0  0
  149.6860  137.0298  156.1421 H   0  0  0  0  0  0  0  0  0  0  0  0
  149.6710  138.2171  154.8476 H   0  0  0  0  0  0  0  0  0  0  0  0
  148.4232  138.2542  156.0832 H   0  0  0  0  0  0  0  0  0  0  0  0
  152.0183  137.6218  157.0283 H   0  0  0  0  0  0  0  0  0  0  0  0
  153.5145  139.4619  154.2669 H   0  0  0  0  0  0  0  0  0  0  0  0
  151.8074  139.0382  154.3459 H   0  0  0  0  0  0  0  0  0  0  0  0
  153.0411  137.8532  154.8125 H   0  0  0  0  0  0  0  0  0  0  0  0
  1  2  1  0  0  0  0
  1 21  1  0  0  0  0
  1 22  1  0  0  0  0
  1 23  1  0  0  0  0
  2  3  1  0  0  0  0
  2 24  1  0  0  0  0
  2 25  1  0  0  0  0
  3 18  1  0  0  0  0
  3  4  1  0  0  0  0
  3  6  1  0  0  0  0
  4  5  1  0  0  0  0
  4 26  1  0  0  0  0
  4 27  1  0  0  0  0
  5 28  1  0  0  0  0
  5 29  1  0  0  0  0
  5 30  1  0  0  0  0
  6  7  1  0  0  0  0
  6 16  1  0  0  0  0
  6 31  1  0  0  0  0
  7  8  1  0  0  0  0
  7 32  1  0  0  0  0
  8  9  2  0  0  0  0
  8 10  1  0  0  0  0
 10 11  1  0  0  0  0
 10 33  1  0  0  0  0
 10 34  1  0  0  0  0
 11 15  1  0  0  0  0
 11 12  1  0  0  0  0
 12 13  2  0  0  0  0
 12 35  1  0  0  0  0
 13 14  1  0  0  0  0
 13 36  1  0  0  0  0
 14 15  2  0  0  0  0
 16 17  1  0  0  0  0
 16 18  1  0  0  0  0
 16 37  1  0  0  0  0
 17 38  1  0  0  0  0
 17 39  1  0  0  0  0
 17 40  1  0  0  0  0
 18 19  1  0  0  0  0
 18 41  1  0  0  0  0
 19 20  1  0  0  0  0
 20 42  1  0  0  0  0
 20 43  1  0  0  0  0
 20 44  1  0  0  0  0
M  END
> <s_m_source_file>
AV-unprocessed.smi

> <i_m_source_file_index>
2525

> <i_lp_mmshare_version>
43012

> <i_f3d_flags>
0

> <s_epik_input>
W0NIM11PW0NAQEhdMVtDQEhdKFtDSDNdKVtDQEBIXShDMShbQ0gyXVtDSDNdKVtDSDJdW0NIM10pW05IXUMoPU8pW0NIMl1uMltjSF1bY0hdbm4y

> <s_epik_cmdline>
J2VwaWtfcHl0aG9uJywgJy1waCcsICc3LjAnLCAnLXRuJywgJzgnLCAnLW1hJywgJzIwMCcsICctbWV0YWxfYmluZGluZycsICctaW1hZScsICc8aW5maWxlLm1hZT4nLCAnLW9tYWUnLCAnPG91dGZpbGUubWFlPic=

> <r_lp_tautomer_probability>
1

> <r_epik_Ionization_Penalty>
1.18045e-06

> <r_epik_Ionization_Penalty_Charging>
0

> <r_epik_Ionization_Penalty_Neutral>
1.18045e-06

> <r_epik_State_Penalty>
-0

> <r_epik_Charging_Adjusted_Penalty>
0

> <i_epik_Tot_Q>
0

> <i_epik_Tot_abs_Q>
0

> <r_epik_Metal_State_Penalty>
-0

> <b_epik_Metal_Only>
0

> <s_lp_Force_Field>
OPLS_2005

> <r_lp_Energy>
27.9477

> <b_lp_Chiralities_Consistent>
1

> <s_lp_Variant>
AV-unprocessed.smi:2525-4

> <Gold.Version>
5.8.1

> <Gold.Id.Protein>
6NUR|6NUR_protein|mol2

> <Gold.PLP.Fitness>
40.8987

> <Gold.PLP.PLP>
-32.9841

> <Gold.PLP.part.hbond>
-4.3728

> <Gold.PLP.part.metal>
0.0000

> <Gold.PLP.part.buried>
-5.5003

> <Gold.PLP.part.nonpolar>
-23.1715

> <Gold.PLP.part.repulsive>
0.2019

> <Gold.PLP.ligand.clash>
0.0000

> <Gold.PLP.ligand.torsion>
0.4803

> <Gold.PLP.Chemscore.Hbond>
2.7520

> <Gold.PLP.Chemscore.CHOScore>
0.0000

> <Gold.PLP.Chemscore.Metal>
0.0000

> <Gold.Chemscore.Hbonds>
donor molecule, donor type, donor heavy atom, donor atom, acceptor molecule, acceptor atom, score
      P1  H  6931  6943       L1    15  0.55
      P1  H  6934  6947       L1    15  1.00
      P1  H  7997  8010       L1    19  1.00

> <Gold.PLP.Chemscore.Internal.Correction>
0.6192

> <Gold.Rescore>
     Score         DG    S(hbond)    S(metal)    S(lipo)     H(rot)  DE(clash)    DE(int)     intcor
     14.14     -17.05       2.44        0.00      72.72       1.98       0.01       2.90       ----

> <Gold.Chemscore.Fitness>
14.1390

> <Gold.Chemscore.DG>
-17.0485

> <Gold.Chemscore.ZeroCoef>
-5.4800

> <Gold.Chemscore.Hbond>
2.4350

> <Gold.Chemscore.Metal>
0.0000

> <Gold.Chemscore.Lipo>
72.7232

> <Gold.Chemscore.Internal_Hbond>
0.0000

> <Gold.Chemscore.DEClash>
0.0060

> <Gold.Chemscore.DEInternal>
2.9035

> <Gold.Chemscore.Rot>
1.9817

> <Gold.Chemscore.Internal.Correction>
   9.000000E+99

> <Gold.Chemscore.Hbonds>
donor molecule, donor type, donor heavy atom, donor atom, acceptor molecule, acceptor atom, score
      P1  H  6931  6943       L1    15  0.18
      P1  H  6934  6947       L1    15  0.72
      P1  H  7997  8010       L1    19  0.65

> <Gold.Chemscore.Hbond.Weighted>
-8.1330

> <Gold.Chemscore.Metal.Weighted>
-0.0000

> <Gold.Chemscore.Lipo.Weighted>
-8.5086

> <Gold.Chemscore.Internal_Hbond.Weighted>
0.0000

> <Gold.Chemscore.DEClash.Weighted>
0.0060

> <Gold.Chemscore.DEInternal.Weighted>
2.9035

> <Gold.Chemscore.Rot.Weighted>
5.0731

> <Gold.Chemscore.Internal.Correction.Weighted>
   9.000000E+99

> <Gold.Protein.RotatedTorsions>
[ 6907 6896 6895 6894 ] final  132.88 input  -60.11 | X-H torsion
[ 7974 7965 7964 7962 ] final  170.23 input  175.53 | X-H torsion
[ 8008 7997 7996 7995 ] final   64.90 input   59.86 | X-H torsion
[ 10167 10162 10161 10158 ] final  100.67 input  -65.29 | X-H torsion
[ 10718 10713 10712 10709 ] final -138.26 input   66.30 | X-H torsion
[ 10763 10752 10751 10750 ] final  -81.29 input  -60.55 | X-H torsion
[ 11005 11000 10999 10996 ] final  -12.19 input  -57.11 | X-H torsion

> <Gold.Protein.ActiveResidues>
 VAL166  LYS551  ARG553  GLY616  TRP617  ASP618  TYR619  PRO620  LYS621  CYS622 
 ASP623  PHE694  ASN695  SER759  ASP760  ASP761  ALA762  ILE779  LEU786  VAL792 
 PHE793  MET794  SER795  GLU796  ALA797  LYS798  CYS799  TRP800  GLU811  SER814 

> <Gold.Protein.RotatedAtoms>
  152.3278  133.5924  159.5788 H   0  0  0  0  0  0  0  0  0  0  0  0  # atno 6907 bound_to 6896
  150.7406  133.9914  159.3617 H   0  0  0  0  0  0  0  0  0  0  0  0  # atno 6908 bound_to 6896
  151.7792  135.0766  160.0422 H   0  0  0  0  0  0  0  0  0  0  0  0  # atno 6909 bound_to 6896
  144.7330  139.9171  143.6418 H   0  0  0  0  0  0  0  0  0  0  0  0  # atno 7974 bound_to 7965
  155.6533  140.3497  155.4756 H   0  0  0  0  0  0  0  0  0  0  0  0  # atno 8008 bound_to 7997
  155.9830  140.1178  157.0732 H   0  0  0  0  0  0  0  0  0  0  0  0  # atno 8009 bound_to 7997
  154.4197  140.1134  156.5447 H   0  0  0  0  0  0  0  0  0  0  0  0  # atno 8010 bound_to 7997
  139.7507  144.6985  151.0437 H   0  0  0  0  0  0  0  0  0  0  0  0  # atno 10167 bound_to 10162
  156.2974  130.7409  151.1452 H   0  0  0  0  0  0  0  0  0  0  0  0  # atno 10718 bound_to 10713
  154.5617  135.5631  153.7013 H   0  0  0  0  0  0  0  0  0  0  0  0  # atno 10763 bound_to 10752
  153.0020  135.6275  154.2236 H   0  0  0  0  0  0  0  0  0  0  0  0  # atno 10764 bound_to 10752
  154.2174  135.2871  155.2917 H   0  0  0  0  0  0  0  0  0  0  0  0  # atno 10765 bound_to 10752
  140.7631  133.8498  155.9142 H   0  0  0  0  0  0  0  0  0  0  0  0  # atno 11005 bound_to 11000
  146.0957  139.3950  143.0378 LP  0  0  0  0  0  0  0  0  0  0  0  0  # atno 17320 bound_to 7965
  145.7648  140.9920  143.1180 LP  0  0  0  0  0  0  0  0  0  0  0  0  # atno 17321 bound_to 7965
  140.7797  143.4813  151.0015 LP  0  0  0  0  0  0  0  0  0  0  0  0  # atno 17342 bound_to 10162
  139.8500  143.7450  152.3178 LP  0  0  0  0  0  0  0  0  0  0  0  0  # atno 17343 bound_to 10162
  157.7359  131.0568  150.5445 LP  0  0  0  0  0  0  0  0  0  0  0  0  # atno 17370 bound_to 10713
  156.5568  130.4245  149.6081 LP  0  0  0  0  0  0  0  0  0  0  0  0  # atno 17371 bound_to 10713
  140.9644  134.1613  157.4628 LP  0  0  0  0  0  0  0  0  0  0  0  0  # atno 17394 bound_to 11000
  139.8767  134.9956  156.5753 LP  0  0  0  0  0  0  0  0  0  0  0  0  # atno 17395 bound_to 11000

$$$$
