AV-unprocessed.smi:824|AV-procd|sdf|3849|dock5
  -GOLD-   22720 1293D 1   1.00000     0.00000
 Structure written by MMmdl.
 52 53  0  0  0  0  0  0  0  0  1 V2000
  149.7990  139.1484  154.2012 C   0  0  0  0  0  0  0  0  0  0  0  0
  149.7123  138.0634  155.2604 C   0  0  0  0  0  0  0  0  0  0  0  0
  149.7114  136.7731  154.7629 N   0  0  0  0  0  0  0  0  0  0  0  0
  149.6300  135.7053  155.6480 C   0  0  0  0  0  0  0  0  0  0  0  0
  149.6427  134.4530  155.0381 N   0  0  0  0  0  0  0  0  0  0  0  0
  148.5824  134.1099  154.0913 C   0  0  0  0  0  0  0  0  0  0  0  0
  148.9948  132.9301  153.1948 C   0  0  0  0  0  0  0  0  0  0  0  0
  149.3600  131.8195  154.0035 O   0  0  0  0  0  0  0  0  0  0  0  0
  150.4681  132.1267  154.8397 C   0  0  0  0  0  0  0  0  0  0  0  0
  150.0972  133.2810  155.7856 C   0  0  0  0  0  0  0  0  0  0  0  0
  149.5580  135.8558  156.9391 N   0  0  0  0  0  0  0  0  0  0  0  0
  149.5476  137.1398  157.5040 C   0  0  0  0  0  0  0  0  0  0  0  0
  149.4687  137.2843  158.7231 O   0  0  0  0  0  0  0  0  0  0  0  0
  149.6283  138.2993  156.5914 C   0  0  0  0  0  0  0  0  0  0  0  0
  149.6270  139.7028  157.1912 C   0  0  0  0  0  0  0  0  0  0  0  0
  150.8532  140.5222  156.7423 C   0  0  0  0  0  0  0  0  0  0  0  0
  152.0840  140.3521  157.6526 C   0  0  0  0  0  0  0  0  0  0  0  0
  152.8860  139.4486  157.4080 O   0  0  0  0  0  0  0  0  0  0  0  0
  152.2426  141.1793  158.7153 N   0  0  0  0  0  0  0  0  0  0  0  0
  153.3354  140.9445  159.6653 C   0  0  0  0  0  0  0  0  0  0  0  0
  151.3406  142.2941  159.0482 C   0  0  0  0  0  0  0  0  0  0  0  0
  152.0888  143.6106  159.3705 C   0  0  0  0  0  0  0  0  0  0  0  0
  151.3139  144.5150  160.3440 C   0  0  0  0  0  0  0  0  0  0  0  0
  152.4196  144.3721  158.0785 C   0  0  0  0  0  0  0  0  0  0  0  0
  149.7751  136.6510  153.7627 H   0  0  0  0  0  0  0  0  0  0  0  0
  148.9643  139.8430  154.2970 H   0  0  0  0  0  0  0  0  0  0  0  0
  149.7728  138.7306  153.1941 H   0  0  0  0  0  0  0  0  0  0  0  0
  150.7283  139.7086  154.3072 H   0  0  0  0  0  0  0  0  0  0  0  0
  148.3271  134.9649  153.4643 H   0  0  0  0  0  0  0  0  0  0  0  0
  147.6828  133.8518  154.6516 H   0  0  0  0  0  0  0  0  0  0  0  0
  148.1648  132.6409  152.5500 H   0  0  0  0  0  0  0  0  0  0  0  0
  149.8231  133.2088  152.5415 H   0  0  0  0  0  0  0  0  0  0  0  0
  150.7345  131.2404  155.4156 H   0  0  0  0  0  0  0  0  0  0  0  0
  151.3369  132.3856  154.2324 H   0  0  0  0  0  0  0  0  0  0  0  0
  149.3070  132.9645  156.4679 H   0  0  0  0  0  0  0  0  0  0  0  0
  150.9629  133.5389  156.3976 H   0  0  0  0  0  0  0  0  0  0  0  0
  149.6063  139.6377  158.2791 H   0  0  0  0  0  0  0  0  0  0  0  0
  148.7025  140.2137  156.9170 H   0  0  0  0  0  0  0  0  0  0  0  0
  151.1038  140.2337  155.7232 H   0  0  0  0  0  0  0  0  0  0  0  0
  150.5920  141.5806  156.7163 H   0  0  0  0  0  0  0  0  0  0  0  0
  154.2947  140.8842  159.1491 H   0  0  0  0  0  0  0  0  0  0  0  0
  153.1775  140.0080  160.2018 H   0  0  0  0  0  0  0  0  0  0  0  0
  153.4239  141.7392  160.4067 H   0  0  0  0  0  0  0  0  0  0  0  0
  150.6339  142.4582  158.2342 H   0  0  0  0  0  0  0  0  0  0  0  0
  150.7097  142.0200  159.8949 H   0  0  0  0  0  0  0  0  0  0  0  0
  153.0375  143.3695  159.8485 H   0  0  0  0  0  0  0  0  0  0  0  0
  150.3306  144.7725  159.9492 H   0  0  0  0  0  0  0  0  0  0  0  0
  151.8517  145.4458  160.5268 H   0  0  0  0  0  0  0  0  0  0  0  0
  151.1715  144.0333  161.3112 H   0  0  0  0  0  0  0  0  0  0  0  0
  151.5131  144.6604  157.5452 H   0  0  0  0  0  0  0  0  0  0  0  0
  153.0224  143.7618  157.4057 H   0  0  0  0  0  0  0  0  0  0  0  0
  152.9843  145.2805  158.2901 H   0  0  0  0  0  0  0  0  0  0  0  0
  1 26  1  0  0  0  0
  1 27  1  0  0  0  0
  1 28  1  0  0  0  0
  1  2  1  0  0  0  0
  2 14  2  0  0  0  0
  2  3  1  0  0  0  0
  3 25  1  0  0  0  0
  3  4  1  0  0  0  0
  4  5  1  0  0  0  0
  4 11  2  0  0  0  0
  5 10  1  0  0  0  0
  5  6  1  0  0  0  0
  6  7  1  0  0  0  0
  6 29  1  0  0  0  0
  6 30  1  0  0  0  0
  7  8  1  0  0  0  0
  7 31  1  0  0  0  0
  7 32  1  0  0  0  0
  8  9  1  0  0  0  0
  9 10  1  0  0  0  0
  9 33  1  0  0  0  0
  9 34  1  0  0  0  0
 10 35  1  0  0  0  0
 10 36  1  0  0  0  0
 11 12  1  0  0  0  0
 12 13  2  0  0  0  0
 12 14  1  0  0  0  0
 14 15  1  0  0  0  0
 15 16  1  0  0  0  0
 15 37  1  0  0  0  0
 15 38  1  0  0  0  0
 16 17  1  0  0  0  0
 16 39  1  0  0  0  0
 16 40  1  0  0  0  0
 17 18  2  0  0  0  0
 17 19  1  0  0  0  0
 19 20  1  0  0  0  0
 19 21  1  0  0  0  0
 20 41  1  0  0  0  0
 20 42  1  0  0  0  0
 20 43  1  0  0  0  0
 21 22  1  0  0  0  0
 21 44  1  0  0  0  0
 21 45  1  0  0  0  0
 22 23  1  0  0  0  0
 22 24  1  0  0  0  0
 22 46  1  0  0  0  0
 23 47  1  0  0  0  0
 23 48  1  0  0  0  0
 23 49  1  0  0  0  0
 24 50  1  0  0  0  0
 24 51  1  0  0  0  0
 24 52  1  0  0  0  0
M  END
> <s_m_source_file>
AV-unprocessed.smi

> <i_m_source_file_index>
824

> <i_lp_mmshare_version>
43012

> <i_f3d_flags>
0

> <s_epik_input>
W0NIMl0xW0NIMl1PW0NIMl1bQ0gyXU4xYyhuYzJbQ0gzXSlbbkhdYyg9TyljMltDSDJdW0NIMl1DKD1PKU4oW0NIM10pW0NIMl1bQ0hdKFtDSDNdKVtDSDNd

> <s_epik_cmdline>
J2VwaWtfcHl0aG9uJywgJy1waCcsICc3LjAnLCAnLXRuJywgJzgnLCAnLW1hJywgJzIwMCcsICctbWV0YWxfYmluZGluZycsICctaW1hZScsICc8aW5maWxlLm1hZT4nLCAnLW9tYWUnLCAnPG91dGZpbGUubWFlPic=

> <r_lp_tautomer_probability>
0.108306

> <r_epik_Ionization_Penalty>
0.0729191

> <r_epik_Ionization_Penalty_Charging>
0.0597558

> <r_epik_Ionization_Penalty_Neutral>
0.0131634

> <r_epik_State_Penalty>
1.71329

> <r_epik_Charging_Adjusted_Penalty>
1.77304

> <i_epik_Tot_Q>
0

> <i_epik_Tot_abs_Q>
0

> <r_epik_Metal_State_Penalty>
2.71696

> <b_epik_Metal_Only>
0

> <s_lp_Force_Field>
OPLS_2005

> <r_lp_Energy>
37.7489

> <b_lp_Chiralities_Consistent>
1

> <s_lp_Variant>
AV-unprocessed.smi:824-2

> <Gold.Version>
5.8.1

> <Gold.Id.Protein>
6NUR|6NUR_protein|mol2

> <Gold.PLP.Fitness>
43.1540

> <Gold.PLP.PLP>
-40.2606

> <Gold.PLP.part.hbond>
-2.0000

> <Gold.PLP.part.metal>
0.0000

> <Gold.PLP.part.buried>
-3.9691

> <Gold.PLP.part.nonpolar>
-33.7857

> <Gold.PLP.part.repulsive>
0.0813

> <Gold.PLP.ligand.clash>
0.0000

> <Gold.PLP.ligand.torsion>
1.6957

> <Gold.PLP.Chemscore.Hbond>
1.9750

> <Gold.PLP.Chemscore.CHOScore>
0.0000

> <Gold.PLP.Chemscore.Metal>
0.0000

> <Gold.Chemscore.Hbonds>
donor molecule, donor type, donor heavy atom, donor atom, acceptor molecule, acceptor atom, score
      L1  H     3    25       P1  7948  0.88
      P1  H  7997  8010       L1    18  1.00

> <Gold.PLP.Chemscore.Internal.Correction>
0.3598

> <Gold.Rescore>
     Score         DG    S(hbond)    S(metal)    S(lipo)     H(rot)  DE(clash)    DE(int)     intcor
     16.50     -18.11       1.88        0.00      91.53       1.71       0.01       1.60       ----

> <Gold.Chemscore.Fitness>
16.5039

> <Gold.Chemscore.DG>
-18.1069

> <Gold.Chemscore.ZeroCoef>
-5.4800

> <Gold.Chemscore.Hbond>
1.8842

> <Gold.Chemscore.Metal>
0.0000

> <Gold.Chemscore.Lipo>
91.5343

> <Gold.Chemscore.Internal_Hbond>
0.0000

> <Gold.Chemscore.DEClash>
0.0059

> <Gold.Chemscore.DEInternal>
1.5971

> <Gold.Chemscore.Rot>
1.7093

> <Gold.Chemscore.Internal.Correction>
   9.000000E+99

> <Gold.Chemscore.Hbonds>
donor molecule, donor type, donor heavy atom, donor atom, acceptor molecule, acceptor atom, score
      L1  H     3    25       P1  7948  0.42
      P1  H  7997  8010       L1    18  0.82

> <Gold.Chemscore.Hbond.Weighted>
-6.2933

> <Gold.Chemscore.Metal.Weighted>
-0.0000

> <Gold.Chemscore.Lipo.Weighted>
-10.7095

> <Gold.Chemscore.Internal_Hbond.Weighted>
0.0000

> <Gold.Chemscore.DEClash.Weighted>
0.0059

> <Gold.Chemscore.DEInternal.Weighted>
1.5971

> <Gold.Chemscore.Rot.Weighted>
4.3759

> <Gold.Chemscore.Internal.Correction.Weighted>
   9.000000E+99

> <Gold.Protein.RotatedTorsions>
[ 6907 6896 6895 6894 ] final  104.28 input  -60.11 | X-H torsion
[ 7974 7965 7964 7962 ] final   57.32 input  175.53 | X-H torsion
[ 8008 7997 7996 7995 ] final   59.62 input   59.86 | X-H torsion
[ 10167 10162 10161 10158 ] final  -11.09 input  -65.29 | X-H torsion
[ 10718 10713 10712 10709 ] final -157.74 input   66.30 | X-H torsion
[ 10763 10752 10751 10750 ] final -146.23 input  -60.55 | X-H torsion
[ 11005 11000 10999 10996 ] final -179.87 input  -57.11 | X-H torsion

> <Gold.Protein.ActiveResidues>
 VAL166  LYS551  ARG553  GLY616  TRP617  ASP618  TYR619  PRO620  LYS621  CYS622 
 ASP623  PHE694  ASN695  SER759  ASP760  ASP761  ALA762  ILE779  LEU786  VAL792 
 PHE793  MET794  SER795  GLU796  ALA797  LYS798  CYS799  TRP800  GLU811  SER814 

> <Gold.Protein.RotatedAtoms>
  152.5269  133.9700  159.7757 H   0  0  0  0  0  0  0  0  0  0  0  0  # atno 6907 bound_to 6896
  150.9974  133.6082  159.2707 H   0  0  0  0  0  0  0  0  0  0  0  0  # atno 6908 bound_to 6896
  151.3203  135.0823  159.9356 H   0  0  0  0  0  0  0  0  0  0  0  0  # atno 6909 bound_to 6896
  145.9303  139.3802  143.0425 H   0  0  0  0  0  0  0  0  0  0  0  0  # atno 7974 bound_to 7965
  155.5692  140.3489  155.4511 H   0  0  0  0  0  0  0  0  0  0  0  0  # atno 8008 bound_to 7997
  156.0457  140.1306  157.0132 H   0  0  0  0  0  0  0  0  0  0  0  0  # atno 8009 bound_to 7997
  154.4411  140.1015  156.6287 H   0  0  0  0  0  0  0  0  0  0  0  0  # atno 8010 bound_to 7997
  140.7130  143.5677  150.9127 H   0  0  0  0  0  0  0  0  0  0  0  0  # atno 10167 bound_to 10162
  156.5444  130.8578  151.2759 H   0  0  0  0  0  0  0  0  0  0  0  0  # atno 10718 bound_to 10713
  154.8346  135.3392  154.6628 H   0  0  0  0  0  0  0  0  0  0  0  0  # atno 10763 bound_to 10752
  153.7244  135.6956  153.5009 H   0  0  0  0  0  0  0  0  0  0  0  0  # atno 10764 bound_to 10752
  153.2357  135.4401  155.0597 H   0  0  0  0  0  0  0  0  0  0  0  0  # atno 10765 bound_to 10752
  140.4138  134.6668  157.4628 H   0  0  0  0  0  0  0  0  0  0  0  0  # atno 11005 bound_to 11000
  145.8435  140.9568  143.0787 LP  0  0  0  0  0  0  0  0  0  0  0  0  # atno 17320 bound_to 7965
  144.6764  140.0314  143.7482 LP  0  0  0  0  0  0  0  0  0  0  0  0  # atno 17321 bound_to 7965
  139.9402  143.6390  152.3055 LP  0  0  0  0  0  0  0  0  0  0  0  0  # atno 17342 bound_to 10162
  139.6872  144.7650  151.1502 LP  0  0  0  0  0  0  0  0  0  0  0  0  # atno 17343 bound_to 10162
  157.7399  130.9840  150.2344 LP  0  0  0  0  0  0  0  0  0  0  0  0  # atno 17370 bound_to 10713
  156.2941  130.3749  149.7813 LP  0  0  0  0  0  0  0  0  0  0  0  0  # atno 17371 bound_to 10713
  140.0248  134.6493  155.9188 LP  0  0  0  0  0  0  0  0  0  0  0  0  # atno 17394 bound_to 11000
  141.1811  133.6547  156.5023 LP  0  0  0  0  0  0  0  0  0  0  0  0  # atno 17395 bound_to 11000

$$$$
