AV-unprocessed.smi:2172|AV-procd|sdf|8834|dock7
  -GOLD-   2272012 23D 1   1.00000     0.00000
 Structure written by MMmdl.
 36 38  0  0  0  0  0  0  0  0  1 V2000
  152.0970  136.7555  155.4523 O   0  0  0  0  0  0  0  0  0  0  0  0
  152.1274  138.1434  155.7058 C   0  0  0  0  0  0  0  0  0  0  0  0
  150.9256  138.8633  155.1727 C   0  0  0  0  0  0  0  0  0  0  0  0
  149.9400  138.2123  154.5532 N   0  0  0  0  0  0  0  0  0  0  0  0
  149.0483  139.2226  154.2528 C   0  0  0  0  0  0  0  0  0  0  0  0
  147.7974  139.1778  153.5964 C   0  0  0  0  0  0  0  0  0  0  0  0
  147.0481  140.3574  153.4066 C   0  0  0  0  0  0  0  0  0  0  0  0
  147.5368  141.5956  153.8714 C   0  0  0  0  0  0  0  0  0  0  0  0
  148.7814  141.6623  154.5267 C   0  0  0  0  0  0  0  0  0  0  0  0
  149.5279  140.4825  154.7096 C   0  0  0  0  0  0  0  0  0  0  0  0
  150.7616  140.2067  155.2920 N   0  0  0  0  0  0  0  0  0  0  0  0
  151.6529  141.1845  155.9061 C   0  0  0  0  0  0  0  0  0  0  0  0
  151.0414  141.8536  157.1543 C   0  0  2  0  0  0  0  0  0  0  0  0
  150.8302  143.2314  156.9156 O   0  0  0  0  0  0  0  0  0  0  0  0
  151.8972  141.6040  158.3866 C   0  0  0  0  0  0  0  0  0  0  0  0
  152.2966  142.6887  159.1967 C   0  0  0  0  0  0  0  0  0  0  0  0
  153.0827  142.4667  160.3442 C   0  0  0  0  0  0  0  0  0  0  0  0
  153.4722  141.1582  160.6897 C   0  0  0  0  0  0  0  0  0  0  0  0
  154.4360  140.8871  162.0950 Cl  0  0  0  0  0  0  0  0  0  0  0  0
  153.0724  140.0715  159.8883 C   0  0  0  0  0  0  0  0  0  0  0  0
  152.2857  140.2932  158.7413 C   0  0  0  0  0  0  0  0  0  0  0  0
  151.3115  136.3981  155.8364 H   0  0  0  0  0  0  0  0  0  0  0  0
  152.1880  138.2941  156.7841 H   0  0  0  0  0  0  0  0  0  0  0  0
  153.0340  138.5756  155.2829 H   0  0  0  0  0  0  0  0  0  0  0  0
  147.4134  138.2336  153.2396 H   0  0  0  0  0  0  0  0  0  0  0  0
  146.0933  140.3114  152.9039 H   0  0  0  0  0  0  0  0  0  0  0  0
  146.9557  142.4942  153.7241 H   0  0  0  0  0  0  0  0  0  0  0  0
  149.1569  142.6094  154.8844 H   0  0  0  0  0  0  0  0  0  0  0  0
  152.5755  140.6697  156.1770 H   0  0  0  0  0  0  0  0  0  0  0  0
  151.9334  141.9423  155.1760 H   0  0  0  0  0  0  0  0  0  0  0  0
  150.0563  141.4249  157.3400 H   0  0  0  0  0  0  0  0  0  0  0  0
  150.0042  143.3354  156.4688 H   0  0  0  0  0  0  0  0  0  0  0  0
  152.0003  143.6956  158.9415 H   0  0  0  0  0  0  0  0  0  0  0  0
  153.3858  143.3016  160.9589 H   0  0  0  0  0  0  0  0  0  0  0  0
  153.3678  139.0666  160.1521 H   0  0  0  0  0  0  0  0  0  0  0  0
  151.9803  139.4522  158.1359 H   0  0  0  0  0  0  0  0  0  0  0  0
  1  2  1  0  0  0  0
  1 22  1  0  0  0  0
  2  3  1  0  0  0  0
  2 23  1  0  0  0  0
  2 24  1  0  0  0  0
  3 11  1  0  0  0  0
  3  4  2  0  0  0  0
  4  5  1  0  0  0  0
  5 10  2  0  0  0  0
  5  6  1  0  0  0  0
  6  7  2  0  0  0  0
  6 25  1  0  0  0  0
  7  8  1  0  0  0  0
  7 26  1  0  0  0  0
  8  9  2  0  0  0  0
  8 27  1  0  0  0  0
  9 10  1  0  0  0  0
  9 28  1  0  0  0  0
 10 11  1  0  0  0  0
 11 12  1  0  0  0  0
 12 13  1  0  0  0  0
 12 29  1  0  0  0  0
 12 30  1  0  0  0  0
 13 14  1  0  0  0  0
 13 15  1  0  0  0  0
 13 31  1  0  0  0  0
 14 32  1  0  0  0  0
 15 21  1  0  0  0  0
 15 16  2  0  0  0  0
 16 17  1  0  0  0  0
 16 33  1  0  0  0  0
 17 18  2  0  0  0  0
 17 34  1  0  0  0  0
 18 19  1  0  0  0  0
 18 20  1  0  0  0  0
 20 21  2  0  0  0  0
 20 35  1  0  0  0  0
 21 36  1  0  0  0  0
M  END
> <s_m_source_file>
AV-unprocessed.smi

> <i_m_source_file_index>
2172

> <i_lp_mmshare_version>
43012

> <i_f3d_flags>
0

> <s_epik_input>
W2NIXTFbY0hdW2NIXVtjSF1jKGMxMiluKGMobjIpW0NIMl1bT0hdKVtDSDJdW0NASF0oW09IXSljM1tjSF1bY0hdYyhDbClbY0hdW2NIXTM=

> <s_epik_cmdline>
J2VwaWtfcHl0aG9uJywgJy1waCcsICc3LjAnLCAnLXRuJywgJzgnLCAnLW1hJywgJzIwMCcsICctbWV0YWxfYmluZGluZycsICctaW1hZScsICc8aW5maWxlLm1hZT4nLCAnLW9tYWUnLCAnPG91dGZpbGUubWFlPic=

> <r_epik_Ionization_Penalty>
0.0634726

> <r_epik_Ionization_Penalty_Charging>
0

> <r_epik_Ionization_Penalty_Neutral>
0.0634726

> <r_epik_State_Penalty>
0.0551572

> <r_epik_Charging_Adjusted_Penalty>
0.0551572

> <i_epik_Tot_Q>
0

> <i_epik_Tot_abs_Q>
0

> <r_epik_Metal_State_Penalty>
5.78034e-05

> <b_epik_Metal_Only>
0

> <s_lp_Force_Field>
OPLS_2005

> <r_lp_Energy>
12.889

> <b_lp_Chiralities_Consistent>
1

> <s_lp_Variant>
AV-unprocessed.smi:2172-1

> <Gold.Version>
5.8.1

> <Gold.Id.Protein>
6NUR|6NUR_protein|mol2

> <Gold.PLP.Fitness>
48.5884

> <Gold.PLP.PLP>
-44.8879

> <Gold.PLP.part.hbond>
-2.0000

> <Gold.PLP.part.metal>
0.0000

> <Gold.PLP.part.buried>
-0.9720

> <Gold.PLP.part.nonpolar>
-39.9479

> <Gold.PLP.part.repulsive>
0.1875

> <Gold.PLP.ligand.clash>
0.0000

> <Gold.PLP.ligand.torsion>
0.8470

> <Gold.PLP.Chemscore.Hbond>
1.7840

> <Gold.PLP.Chemscore.CHOScore>
0.0000

> <Gold.PLP.Chemscore.Metal>
0.0000

> <Gold.Chemscore.Hbonds>
donor molecule, donor type, donor heavy atom, donor atom, acceptor molecule, acceptor atom, score
      L1  H    14    32       P1  8028  0.80
      P1  H 10752 10765       L1     1  1.00

> <Gold.PLP.Chemscore.Internal.Correction>
0.0423

> <Gold.Rescore>
     Score         DG    S(hbond)    S(metal)    S(lipo)     H(rot)  DE(clash)    DE(int)     intcor
     17.82     -19.16       1.86        0.00     121.34       2.62       0.44       0.90       ----

> <Gold.Chemscore.Fitness>
17.8240

> <Gold.Chemscore.DG>
-19.1621

> <Gold.Chemscore.ZeroCoef>
-5.4800

> <Gold.Chemscore.Hbond>
1.8565

> <Gold.Chemscore.Metal>
0.0000

> <Gold.Chemscore.Lipo>
121.3416

> <Gold.Chemscore.Internal_Hbond>
0.0000

> <Gold.Chemscore.DEClash>
0.4367

> <Gold.Chemscore.DEInternal>
0.9013

> <Gold.Chemscore.Rot>
2.6232

> <Gold.Chemscore.Internal.Correction>
   9.000000E+99

> <Gold.Chemscore.Hbonds>
donor molecule, donor type, donor heavy atom, donor atom, acceptor molecule, acceptor atom, score
      L1  H    14    32       P1  8028  0.79
      P1  H 10752 10765       L1     1  0.75

> <Gold.Chemscore.Hbond.Weighted>
-6.2006

> <Gold.Chemscore.Metal.Weighted>
-0.0000

> <Gold.Chemscore.Lipo.Weighted>
-14.1970

> <Gold.Chemscore.Internal_Hbond.Weighted>
0.0000

> <Gold.Chemscore.DEClash.Weighted>
0.4367

> <Gold.Chemscore.DEInternal.Weighted>
0.9013

> <Gold.Chemscore.Rot.Weighted>
6.7154

> <Gold.Chemscore.Internal.Correction.Weighted>
   9.000000E+99

> <Gold.Protein.RotatedTorsions>
[ 6907 6896 6895 6894 ] final   71.63 input  -60.11 | X-H torsion
[ 7974 7965 7964 7962 ] final -103.70 input  175.53 | X-H torsion
[ 8008 7997 7996 7995 ] final -122.34 input   59.86 | X-H torsion
[ 10167 10162 10161 10158 ] final   29.09 input  -65.29 | X-H torsion
[ 10718 10713 10712 10709 ] final  152.87 input   66.30 | X-H torsion
[ 10763 10752 10751 10750 ] final -173.97 input  -60.55 | X-H torsion
[ 11005 11000 10999 10996 ] final  -53.27 input  -57.11 | X-H torsion

> <Gold.Protein.ActiveResidues>
 VAL166  LYS551  ARG553  GLY616  TRP617  ASP618  TYR619  PRO620  LYS621  CYS622 
 ASP623  PHE694  ASN695  SER759  ASP760  ASP761  ALA762  ILE779  LEU786  VAL792 
 PHE793  MET794  SER795  GLU796  ALA797  LYS798  CYS799  TRP800  GLU811  SER814 

> <Gold.Protein.RotatedAtoms>
  152.4821  134.4692  159.9629 H   0  0  0  0  0  0  0  0  0  0  0  0  # atno 6907 bound_to 6896
  151.4696  133.3566  159.2829 H   0  0  0  0  0  0  0  0  0  0  0  0  # atno 6908 bound_to 6896
  150.8901  134.8330  159.7348 H   0  0  0  0  0  0  0  0  0  0  0  0  # atno 6909 bound_to 6896
  145.2526  140.9243  143.3086 H   0  0  0  0  0  0  0  0  0  0  0  0  # atno 7974 bound_to 7965
  155.1626  140.0406  157.2846 H   0  0  0  0  0  0  0  0  0  0  0  0  # atno 8008 bound_to 7997
  154.6326  140.2527  155.7389 H   0  0  0  0  0  0  0  0  0  0  0  0  # atno 8009 bound_to 7997
  156.2492  140.2872  156.0684 H   0  0  0  0  0  0  0  0  0  0  0  0  # atno 8010 bound_to 7997
  140.4796  144.0637  150.6261 H   0  0  0  0  0  0  0  0  0  0  0  0  # atno 10167 bound_to 10162
  157.2521  131.0781  151.1723 H   0  0  0  0  0  0  0  0  0  0  0  0  # atno 10718 bound_to 10713
  154.6017  135.2855  155.0528 H   0  0  0  0  0  0  0  0  0  0  0  0  # atno 10763 bound_to 10752
  154.1790  135.6460  153.5033 H   0  0  0  0  0  0  0  0  0  0  0  0  # atno 10764 bound_to 10752
  153.0159  135.5419  154.6739 H   0  0  0  0  0  0  0  0  0  0  0  0  # atno 10765 bound_to 10752
  141.0967  133.6623  156.4147 H   0  0  0  0  0  0  0  0  0  0  0  0  # atno 11005 bound_to 11000
  144.9489  139.4105  143.6412 LP  0  0  0  0  0  0  0  0  0  0  0  0  # atno 17320 bound_to 7965
  146.3298  139.8487  142.8877 LP  0  0  0  0  0  0  0  0  0  0  0  0  # atno 17321 bound_to 7965
  140.3875  143.2770  152.0099 LP  0  0  0  0  0  0  0  0  0  0  0  0  # atno 17342 bound_to 10162
  139.4831  144.6105  151.7443 LP  0  0  0  0  0  0  0  0  0  0  0  0  # atno 17343 bound_to 10162
  157.3266  130.6964  149.6300 LP  0  0  0  0  0  0  0  0  0  0  0  0  # atno 17370 bound_to 10713
  155.9666  130.4319  150.4943 LP  0  0  0  0  0  0  0  0  0  0  0  0  # atno 17371 bound_to 10713
  140.5122  134.6384  157.5288 LP  0  0  0  0  0  0  0  0  0  0  0  0  # atno 17394 bound_to 11000
  139.9806  134.7143  155.9867 LP  0  0  0  0  0  0  0  0  0  0  0  0  # atno 17395 bound_to 11000

$$$$
