AV-unprocessed.smi:1289|AV-procd|sdf|5387|dock3
  -GOLD-   22720 4533D 1   1.00000     0.00000
 Structure written by MMmdl.
 38 40  0  0  0  0  0  0  0  0  2 V2000
  143.9858  141.4312  155.6895 N   0  0  0  0  0  0  0  0  0  0  0  0
  145.0780  141.1601  155.4207 C   0  0  0  0  0  0  0  0  0  0  0  0
  146.4500  140.8198  155.0831 C   0  0  0  0  0  0  0  0  0  0  0  0
  147.2377  141.7154  154.3335 C   0  0  0  0  0  0  0  0  0  0  0  0
  148.5676  141.3834  154.0105 C   0  0  0  0  0  0  0  0  0  0  0  0
  149.1291  140.1594  154.4283 C   0  0  0  0  0  0  0  0  0  0  0  0
  150.4372  139.9177  154.0684 O   0  0  0  0  0  0  0  0  0  0  0  0
  151.1354  138.8664  154.7247 C   0  0  0  0  0  0  0  0  0  0  0  0
  152.2423  139.4497  155.6183 C   0  0  2  0  0  0  0  0  0  0  0  0
  153.3408  138.5604  155.6397 O   0  0  0  0  0  0  0  0  0  0  0  0
  151.7647  139.8035  157.0413 C   0  0  0  0  0  0  0  0  0  0  0  0
  151.3540  141.2086  157.1707 N   0  0  0  0  0  0  0  0  0  0  0  0
  150.5851  141.9674  156.3435 C   0  0  0  0  0  0  0  0  0  0  0  0
  150.4831  143.2071  156.8978 N   0  3  0  0  0  0  0  0  0  0  0  0
  151.1960  143.2414  158.0981 C   0  0  0  0  0  0  0  0  0  0  0  0
  151.3864  144.2706  159.0151 C   0  0  0  0  0  0  0  0  0  0  0  0
  152.1759  143.9734  160.1453 C   0  0  0  0  0  0  0  0  0  0  0  0
  152.7419  142.6952  160.3304 C   0  0  0  0  0  0  0  0  0  0  0  0
  152.5422  141.6592  159.3944 C   0  0  0  0  0  0  0  0  0  0  0  0
  151.7589  141.9602  158.2804 C   0  0  0  0  0  0  0  0  0  0  0  0
  148.3293  139.2623  155.1808 C   0  0  0  0  0  0  0  0  0  0  0  0
  146.9988  139.5926  155.5049 C   0  0  0  0  0  0  0  0  0  0  0  0
  146.8287  142.6595  154.0031 H   0  0  0  0  0  0  0  0  0  0  0  0
  149.1643  142.0767  153.4359 H   0  0  0  0  0  0  0  0  0  0  0  0
  150.4551  138.2509  155.3160 H   0  0  0  0  0  0  0  0  0  0  0  0
  151.5960  138.2233  153.9728 H   0  0  0  0  0  0  0  0  0  0  0  0
  152.6046  140.3610  155.1409 H   0  0  0  0  0  0  0  0  0  0  0  0
  153.7806  138.6072  154.8047 H   0  0  0  0  0  0  0  0  0  0  0  0
  150.9001  139.1920  157.3023 H   0  0  0  0  0  0  0  0  0  0  0  0
  152.5281  139.5853  157.7882 H   0  0  0  0  0  0  0  0  0  0  0  0
  150.1352  141.6440  155.4156 H   0  0  0  0  0  0  0  0  0  0  0  0
  150.9546  145.2507  158.8752 H   0  0  0  0  0  0  0  0  0  0  0  0
  152.3513  144.7414  160.8848 H   0  0  0  0  0  0  0  0  0  0  0  0
  153.3427  142.5052  161.2080 H   0  0  0  0  0  0  0  0  0  0  0  0
  152.9848  140.6852  159.5443 H   0  0  0  0  0  0  0  0  0  0  0  0
  148.7127  138.3130  155.5225 H   0  0  0  0  0  0  0  0  0  0  0  0
  146.4038  138.8972  156.0795 H   0  0  0  0  0  0  0  0  0  0  0  0
  149.9634  143.9715  156.4854 H   0  0  0  0  0  0  0  0  0  0  0  0
  1  2  3  0  0  0  0
  2  3  1  0  0  0  0
  3 22  1  0  0  0  0
  3  4  2  0  0  0  0
  4  5  1  0  0  0  0
  4 23  1  0  0  0  0
  5  6  2  0  0  0  0
  5 24  1  0  0  0  0
  6  7  1  0  0  0  0
  6 21  1  0  0  0  0
  7  8  1  0  0  0  0
  8  9  1  0  0  0  0
  8 25  1  0  0  0  0
  8 26  1  0  0  0  0
  9 10  1  0  0  0  0
  9 11  1  0  0  0  0
  9 27  1  0  0  0  0
 10 28  1  0  0  0  0
 11 12  1  0  0  0  0
 11 29  1  0  0  0  0
 11 30  1  0  0  0  0
 12 20  1  0  0  0  0
 12 13  1  0  0  0  0
 13 14  2  0  0  0  0
 13 31  1  0  0  0  0
 14 15  1  0  0  0  0
 14 38  1  0  0  0  0
 15 20  2  0  0  0  0
 15 16  1  0  0  0  0
 16 17  2  0  0  0  0
 16 32  1  0  0  0  0
 17 18  1  0  0  0  0
 17 33  1  0  0  0  0
 18 19  2  0  0  0  0
 18 34  1  0  0  0  0
 19 20  1  0  0  0  0
 19 35  1  0  0  0  0
 21 22  2  0  0  0  0
 21 36  1  0  0  0  0
 22 37  1  0  0  0  0
M  CHG  1  14   1
M  END
> <s_m_source_file>
AV-unprocessed.smi

> <i_m_source_file_index>
1289

> <i_lp_mmshare_version>
43012

> <i_f3d_flags>
0

> <s_epik_input>
TiNDYzFbY0hdW2NIXWMoW2NIXVtjSF0xKU9bQ0gyXVtDQEhdKFtPSF0pW0NIMl1uKFtjSF1uMiljKGMyMylbY0hdW2NIXVtjSF1bY0hdMw==

> <s_epik_cmdline>
J2VwaWtfcHl0aG9uJywgJy1waCcsICc3LjAnLCAnLXRuJywgJzgnLCAnLW1hJywgJzIwMCcsICctbWV0YWxfYmluZGluZycsICctaW1hZScsICc8aW5maWxlLm1hZT4nLCAnLW9tYWUnLCAnPG91dGZpbGUubWFlPic=

> <r_epik_Ionization_Penalty>
1.39523

> <r_epik_Ionization_Penalty_Charging>
1.39523

> <r_epik_Ionization_Penalty_Neutral>
2.3993e-06

> <r_epik_State_Penalty>
1.47691

> <r_epik_Charging_Adjusted_Penalty>
2.87215

> <i_epik_Tot_Q>
1

> <i_epik_Tot_abs_Q>
1

> <r_epik_Metal_State_Penalty>
5.51858

> <b_epik_Metal_Only>
0

> <s_lp_Force_Field>
OPLS_2005

> <r_lp_Energy>
21.3748

> <b_lp_Chiralities_Consistent>
1

> <s_lp_Variant>
AV-unprocessed.smi:1289-3

> <Gold.Version>
5.8.1

> <Gold.Id.Protein>
6NUR|6NUR_protein|mol2

> <Gold.PLP.Fitness>
52.7786

> <Gold.PLP.PLP>
-46.4975

> <Gold.PLP.part.hbond>
-3.0000

> <Gold.PLP.part.metal>
0.0000

> <Gold.PLP.part.buried>
-6.5680

> <Gold.PLP.part.nonpolar>
-38.1084

> <Gold.PLP.part.repulsive>
0.8307

> <Gold.PLP.ligand.clash>
0.0000

> <Gold.PLP.ligand.torsion>
1.6172

> <Gold.PLP.Chemscore.Hbond>
3.1323

> <Gold.PLP.Chemscore.CHOScore>
0.0000

> <Gold.PLP.Chemscore.Metal>
0.0000

> <Gold.Chemscore.Hbonds>
donor molecule, donor type, donor heavy atom, donor atom, acceptor molecule, acceptor atom, score
      L1  H    14    38       P1  8028  2.00
      P1  H  7989  7998       L1     7  1.00
      P1  H  7997  8010       L1    10  0.16

> <Gold.PLP.Chemscore.Internal.Correction>
0.1184

> <Gold.Rescore>
     Score         DG    S(hbond)    S(metal)    S(lipo)     H(rot)  DE(clash)    DE(int)     intcor
     17.17     -18.87       1.91        0.00     116.42       2.58       0.19       1.51       ----

> <Gold.Chemscore.Fitness>
17.1730

> <Gold.Chemscore.DG>
-18.8729

> <Gold.Chemscore.ZeroCoef>
-5.4800

> <Gold.Chemscore.Hbond>
1.9089

> <Gold.Chemscore.Metal>
0.0000

> <Gold.Chemscore.Lipo>
116.4231

> <Gold.Chemscore.Internal_Hbond>
0.0000

> <Gold.Chemscore.DEClash>
0.1906

> <Gold.Chemscore.DEInternal>
1.5093

> <Gold.Chemscore.Rot>
2.5798

> <Gold.Chemscore.Internal.Correction>
   9.000000E+99

> <Gold.Chemscore.Hbonds>
donor molecule, donor type, donor heavy atom, donor atom, acceptor molecule, acceptor atom, score
      L1  H    14    38       P1  8028  0.93
      P1  H  7989  7998       L1     7  0.44

> <Gold.Chemscore.Hbond.Weighted>
-6.3757

> <Gold.Chemscore.Metal.Weighted>
-0.0000

> <Gold.Chemscore.Lipo.Weighted>
-13.6215

> <Gold.Chemscore.Internal_Hbond.Weighted>
0.0000

> <Gold.Chemscore.DEClash.Weighted>
0.1906

> <Gold.Chemscore.DEInternal.Weighted>
1.5093

> <Gold.Chemscore.Rot.Weighted>
6.6043

> <Gold.Chemscore.Internal.Correction.Weighted>
   9.000000E+99

> <Gold.Protein.RotatedTorsions>
[ 6907 6896 6895 6894 ] final   37.54 input  -60.11 | X-H torsion
[ 7974 7965 7964 7962 ] final -179.39 input  175.53 | X-H torsion
[ 8008 7997 7996 7995 ] final   69.73 input   59.86 | X-H torsion
[ 10167 10162 10161 10158 ] final -136.08 input  -65.29 | X-H torsion
[ 10718 10713 10712 10709 ] final   43.66 input   66.30 | X-H torsion
[ 10763 10752 10751 10750 ] final  -21.93 input  -60.55 | X-H torsion
[ 11005 11000 10999 10996 ] final   -9.00 input  -57.11 | X-H torsion

> <Gold.Protein.ActiveResidues>
 VAL166  LYS551  ARG553  GLY616  TRP617  ASP618  TYR619  PRO620  LYS621  CYS622 
 ASP623  PHE694  ASN695  SER759  ASP760  ASP761  ALA762  ILE779  LEU786  VAL792 
 PHE793  MET794  SER795  GLU796  ALA797  LYS798  CYS799  TRP800  GLU811  SER814 

> <Gold.Protein.RotatedAtoms>
  152.1446  134.9036  160.0551 H   0  0  0  0  0  0  0  0  0  0  0  0  # atno 6907 bound_to 6896
  152.0091  133.3849  159.4220 H   0  0  0  0  0  0  0  0  0  0  0  0  # atno 6908 bound_to 6896
  150.6869  134.3672  159.5020 H   0  0  0  0  0  0  0  0  0  0  0  0  # atno 6909 bound_to 6896
  144.7136  140.0725  143.6429 H   0  0  0  0  0  0  0  0  0  0  0  0  # atno 7974 bound_to 7965
  155.7281  140.3492  155.5047 H   0  0  0  0  0  0  0  0  0  0  0  0  # atno 8008 bound_to 7997
  155.9208  140.1067  157.1230 H   0  0  0  0  0  0  0  0  0  0  0  0  # atno 8009 bound_to 7997
  154.4069  140.1250  156.4663 H   0  0  0  0  0  0  0  0  0  0  0  0  # atno 8010 bound_to 7997
  139.8714  143.6953  152.2639 H   0  0  0  0  0  0  0  0  0  0  0  0  # atno 10167 bound_to 10162
  157.4184  130.7954  149.7493 H   0  0  0  0  0  0  0  0  0  0  0  0  # atno 10718 bound_to 10713
  153.6439  135.6984  153.5232 H   0  0  0  0  0  0  0  0  0  0  0  0  # atno 10763 bound_to 10752
  153.2760  135.4200  155.1033 H   0  0  0  0  0  0  0  0  0  0  0  0  # atno 10764 bound_to 10752
  154.8493  135.3590  154.5983 H   0  0  0  0  0  0  0  0  0  0  0  0  # atno 10765 bound_to 10752
  140.7295  133.8761  155.8882 H   0  0  0  0  0  0  0  0  0  0  0  0  # atno 11005 bound_to 11000
  145.9771  139.2913  143.1064 LP  0  0  0  0  0  0  0  0  0  0  0  0  # atno 17320 bound_to 7965
  145.9052  140.9217  143.0482 LP  0  0  0  0  0  0  0  0  0  0  0  0  # atno 17321 bound_to 7965
  139.7281  144.7588  151.0847 LP  0  0  0  0  0  0  0  0  0  0  0  0  # atno 17342 bound_to 10162
  140.7760  143.5123  150.9637 LP  0  0  0  0  0  0  0  0  0  0  0  0  # atno 17343 bound_to 10162
  155.9872  130.3968  150.3174 LP  0  0  0  0  0  0  0  0  0  0  0  0  # atno 17370 bound_to 10713
  157.1320  131.0274  151.2965 LP  0  0  0  0  0  0  0  0  0  0  0  0  # atno 17371 bound_to 10713
  140.9933  134.1248  157.4387 LP  0  0  0  0  0  0  0  0  0  0  0  0  # atno 17394 bound_to 11000
  139.8829  135.0047  156.6266 LP  0  0  0  0  0  0  0  0  0  0  0  0  # atno 17395 bound_to 11000

$$$$
