AV-unprocessed.smi:956|AV-procd|sdf|4264|dock5
  -GOLD-   22720 2173D 1   1.00000     0.00000
 Structure written by MMmdl.
 42 43  0  0  0  0  0  0  0  0  1 V2000
  147.4503  135.4300  157.5863 C   0  0  0  0  0  0  0  0  0  0  0  0
  148.7035  136.7352  157.9927 S   0  0  1  0  0  0  0  0  0  0  0  0
  149.5288  136.2190  159.1727 O   0  0  0  0  0  0  0  0  0  0  0  0
  149.7479  136.4034  156.5307 C   0  0  0  0  0  0  0  0  0  0  0  0
  150.5078  135.3130  156.3906 N   0  0  0  0  0  0  0  0  0  0  0  0
  151.1208  135.4618  155.1609 N   0  0  0  0  0  0  0  0  0  0  0  0
  150.6657  136.6262  154.6934 C   0  0  0  0  0  0  0  0  0  0  0  0
  149.8017  137.2655  155.4982 N   0  0  0  0  0  0  0  0  0  0  0  0
  149.1388  138.5406  155.2896 C   0  0  0  0  0  0  0  0  0  0  0  0
  150.1531  139.6838  155.2830 C   0  0  0  0  0  0  0  0  0  0  0  0
  151.0069  139.7428  154.3988 O   0  0  0  0  0  0  0  0  0  0  0  0
  150.0554  140.5780  156.2772 N   0  0  0  0  0  0  0  0  0  0  0  0
  150.9464  141.7158  156.4502 C   0  0  0  0  0  0  0  0  0  0  0  0
  151.7140  141.6021  157.7772 C   0  0  0  0  0  0  0  0  0  0  0  0
  151.4204  142.7433  158.7732 C   0  0  0  0  0  0  0  0  0  0  0  0
  151.5303  144.1165  158.0774 C   0  0  0  0  0  0  0  0  0  0  0  0
  151.2350  145.2750  159.0438 C   0  0  0  0  0  0  0  0  0  0  0  0
  152.1563  145.2233  160.2712 C   0  0  0  0  0  0  0  0  0  0  0  0
  152.0518  143.8643  160.9789 C   0  0  0  0  0  0  0  0  0  0  0  0
  152.3443  142.7054  160.0113 C   0  0  0  0  0  0  0  0  0  0  0  0
  147.3157  135.3402  156.5082 H   0  0  0  0  0  0  0  0  0  0  0  0
  146.4890  135.6840  158.0318 H   0  0  0  0  0  0  0  0  0  0  0  0
  147.7696  134.4643  157.9785 H   0  0  0  0  0  0  0  0  0  0  0  0
  150.9735  137.0247  153.7378 H   0  0  0  0  0  0  0  0  0  0  0  0
  148.6119  138.5112  154.3348 H   0  0  0  0  0  0  0  0  0  0  0  0
  148.3861  138.6943  156.0635 H   0  0  0  0  0  0  0  0  0  0  0  0
  149.3276  140.4547  156.9661 H   0  0  0  0  0  0  0  0  0  0  0  0
  151.6457  141.7543  155.6137 H   0  0  0  0  0  0  0  0  0  0  0  0
  150.3560  142.6319  156.4235 H   0  0  0  0  0  0  0  0  0  0  0  0
  151.4989  140.6411  158.2464 H   0  0  0  0  0  0  0  0  0  0  0  0
  152.7824  141.5964  157.5551 H   0  0  0  0  0  0  0  0  0  0  0  0
  150.3905  142.6306  159.1156 H   0  0  0  0  0  0  0  0  0  0  0  0
  152.5312  144.2390  157.6610 H   0  0  0  0  0  0  0  0  0  0  0  0
  150.8396  144.1653  157.2349 H   0  0  0  0  0  0  0  0  0  0  0  0
  151.3560  146.2283  158.5289 H   0  0  0  0  0  0  0  0  0  0  0  0
  150.1937  145.2275  159.3651 H   0  0  0  0  0  0  0  0  0  0  0  0
  153.1880  145.3973  159.9628 H   0  0  0  0  0  0  0  0  0  0  0  0
  151.8999  146.0254  160.9638 H   0  0  0  0  0  0  0  0  0  0  0  0
  152.7447  143.8295  161.8199 H   0  0  0  0  0  0  0  0  0  0  0  0
  151.0517  143.7465  161.3980 H   0  0  0  0  0  0  0  0  0  0  0  0
  152.2266  141.7649  160.5490 H   0  0  0  0  0  0  0  0  0  0  0  0
  153.3870  142.7512  159.6947 H   0  0  0  0  0  0  0  0  0  0  0  0
  1  2  1  0  0  0  0
  1 21  1  0  0  0  0
  1 22  1  0  0  0  0
  1 23  1  0  0  0  0
  2  3  2  0  0  0  0
  2  4  1  0  0  0  0
  4  8  1  0  0  0  0
  4  5  2  0  0  0  0
  5  6  1  0  0  0  0
  6  7  2  0  0  0  0
  7  8  1  0  0  0  0
  7 24  1  0  0  0  0
  8  9  1  0  0  0  0
  9 10  1  0  0  0  0
  9 25  1  0  0  0  0
  9 26  1  0  0  0  0
 10 11  2  0  0  0  0
 10 12  1  0  0  0  0
 12 13  1  0  0  0  0
 12 27  1  0  0  0  0
 13 14  1  0  0  0  0
 13 28  1  0  0  0  0
 13 29  1  0  0  0  0
 14 15  1  0  0  0  0
 14 30  1  0  0  0  0
 14 31  1  0  0  0  0
 15 20  1  0  0  0  0
 15 16  1  0  0  0  0
 15 32  1  0  0  0  0
 16 17  1  0  0  0  0
 16 33  1  0  0  0  0
 16 34  1  0  0  0  0
 17 18  1  0  0  0  0
 17 35  1  0  0  0  0
 17 36  1  0  0  0  0
 18 19  1  0  0  0  0
 18 37  1  0  0  0  0
 18 38  1  0  0  0  0
 19 20  1  0  0  0  0
 19 39  1  0  0  0  0
 19 40  1  0  0  0  0
 20 41  1  0  0  0  0
 20 42  1  0  0  0  0
M  END
> <s_m_source_file>
AV-unprocessed.smi

> <i_m_source_file_index>
956

> <i_lp_mmshare_version>
43012

> <i_f3d_flags>
0

> <s_epik_input>
W0NIM11bU0BdKD1PKWMxbm5bY0hdbjFbQ0gyXUMoPU8pW05IXVtDSDJdW0NIMl1bQ0hdMltDSDJdW0NIMl1bQ0gyXVtDSDJdW0NIMl0y

> <s_epik_cmdline>
J2VwaWtfcHl0aG9uJywgJy1waCcsICc3LjAnLCAnLXRuJywgJzgnLCAnLW1hJywgJzIwMCcsICctbWV0YWxfYmluZGluZycsICctaW1hZScsICc8aW5maWxlLm1hZT4nLCAnLW9tYWUnLCAnPG91dGZpbGUubWFlPic=

> <r_lp_tautomer_probability>
1

> <r_epik_Ionization_Penalty>
7.32521e-08

> <r_epik_Ionization_Penalty_Charging>
0

> <r_epik_Ionization_Penalty_Neutral>
7.32521e-08

> <r_epik_State_Penalty>
-0

> <r_epik_Charging_Adjusted_Penalty>
0

> <i_epik_Tot_Q>
0

> <i_epik_Tot_abs_Q>
0

> <r_epik_Metal_State_Penalty>
-0

> <b_epik_Metal_Only>
0

> <s_lp_Force_Field>
OPLS_2005

> <r_lp_Energy>
10.1233

> <b_lp_Chiralities_Consistent>
1

> <s_lp_Variant>
AV-unprocessed.smi:956-2

> <Gold.Version>
5.8.1

> <Gold.Id.Protein>
6NUR|6NUR_protein|mol2

> <Gold.PLP.Fitness>
45.4708

> <Gold.PLP.PLP>
-35.1460

> <Gold.PLP.part.hbond>
-3.0000

> <Gold.PLP.part.metal>
0.0000

> <Gold.PLP.part.buried>
-5.3457

> <Gold.PLP.part.nonpolar>
-27.0220

> <Gold.PLP.part.repulsive>
0.2865

> <Gold.PLP.ligand.clash>
0.0000

> <Gold.PLP.ligand.torsion>
1.4415

> <Gold.PLP.Chemscore.Hbond>
3.0000

> <Gold.PLP.Chemscore.CHOScore>
1.0394

> <Gold.PLP.Chemscore.Metal>
0.0000

> <Gold.Chemscore.Hbonds>
donor molecule, donor type, donor heavy atom, donor atom, acceptor molecule, acceptor atom, score
      P1  H  6896  6907       L1     3  1.00
      P1  H  7989  7998       L1    11  1.00
      P1  H 10752 10764       L1     6  1.00
      L1  C     7    24       P1  7948  0.04
      L1  C     7    24       P1  7949  1.00

> <Gold.PLP.Chemscore.Internal.Correction>
1.0896

> <Gold.Rescore>
     Score         DG    S(hbond)    S(metal)    S(lipo)     H(rot)  DE(clash)    DE(int)     intcor
     18.05     -19.45       2.93        0.00      85.01       2.26       0.06       1.35       ----

> <Gold.Chemscore.Fitness>
18.0461

> <Gold.Chemscore.DG>
-19.4535

> <Gold.Chemscore.ZeroCoef>
-5.4800

> <Gold.Chemscore.Hbond>
2.9346

> <Gold.Chemscore.Metal>
0.0000

> <Gold.Chemscore.Lipo>
85.0076

> <Gold.Chemscore.Internal_Hbond>
0.0000

> <Gold.Chemscore.DEClash>
0.0557

> <Gold.Chemscore.DEInternal>
1.3518

> <Gold.Chemscore.Rot>
2.2554

> <Gold.Chemscore.Internal.Correction>
   9.000000E+99

> <Gold.Chemscore.Hbonds>
donor molecule, donor type, donor heavy atom, donor atom, acceptor molecule, acceptor atom, score
      P1  H  6896  6907       L1     3  0.93
      P1  H  7989  7998       L1    11  0.97
      P1  H 10752 10764       L1     6  0.34

> <Gold.Chemscore.Hbond.Weighted>
-9.8015

> <Gold.Chemscore.Metal.Weighted>
-0.0000

> <Gold.Chemscore.Lipo.Weighted>
-9.9459

> <Gold.Chemscore.Internal_Hbond.Weighted>
0.0000

> <Gold.Chemscore.DEClash.Weighted>
0.0557

> <Gold.Chemscore.DEInternal.Weighted>
1.3518

> <Gold.Chemscore.Rot.Weighted>
5.7738

> <Gold.Chemscore.Internal.Correction.Weighted>
   9.000000E+99

> <Gold.Protein.RotatedTorsions>
[ 6907 6896 6895 6894 ] final  -68.76 input  -60.11 | X-H torsion
[ 7974 7965 7964 7962 ] final -176.99 input  175.53 | X-H torsion
[ 8008 7997 7996 7995 ] final   65.49 input   59.86 | X-H torsion
[ 10167 10162 10161 10158 ] final  -24.63 input  -65.29 | X-H torsion
[ 10718 10713 10712 10709 ] final   47.77 input   66.30 | X-H torsion
[ 10763 10752 10751 10750 ] final  -52.67 input  -60.55 | X-H torsion
[ 11005 11000 10999 10996 ] final -177.21 input  -57.11 | X-H torsion

> <Gold.Protein.ActiveResidues>
 VAL166  LYS551  ARG553  GLY616  TRP617  ASP618  TYR619  PRO620  LYS621  CYS622 
 ASP623  PHE694  ASN695  SER759  ASP760  ASP761  ALA762  ILE779  LEU786  VAL792 
 PHE793  MET794  SER795  GLU796  ALA797  LYS798  CYS799  TRP800  GLU811  SER814 

> <Gold.Protein.RotatedAtoms>
  150.7340  134.5694  159.5882 H   0  0  0  0  0  0  0  0  0  0  0  0  # atno 6907 bound_to 6896
  152.3136  134.7464  160.0339 H   0  0  0  0  0  0  0  0  0  0  0  0  # atno 6908 bound_to 6896
  151.8003  133.3333  159.3561 H   0  0  0  0  0  0  0  0  0  0  0  0  # atno 6909 bound_to 6896
  144.7127  140.1086  143.6412 H   0  0  0  0  0  0  0  0  0  0  0  0  # atno 7974 bound_to 7965
  155.6626  140.3497  155.4788 H   0  0  0  0  0  0  0  0  0  0  0  0  # atno 8008 bound_to 7997
  155.9756  140.1164  157.0796 H   0  0  0  0  0  0  0  0  0  0  0  0  # atno 8009 bound_to 7997
  154.4178  140.1148  156.5352 H   0  0  0  0  0  0  0  0  0  0  0  0  # atno 8010 bound_to 7997
  140.7288  143.4336  151.0764 H   0  0  0  0  0  0  0  0  0  0  0  0  # atno 10167 bound_to 10162
  157.4619  130.8201  149.7895 H   0  0  0  0  0  0  0  0  0  0  0  0  # atno 10718 bound_to 10713
  154.1465  135.6497  153.4954 H   0  0  0  0  0  0  0  0  0  0  0  0  # atno 10763 bound_to 10752
  153.0150  135.5328  154.6852 H   0  0  0  0  0  0  0  0  0  0  0  0  # atno 10764 bound_to 10752
  154.6128  135.2956  155.0385 H   0  0  0  0  0  0  0  0  0  0  0  0  # atno 10765 bound_to 10752
  140.4435  134.6409  157.4768 H   0  0  0  0  0  0  0  0  0  0  0  0  # atno 11005 bound_to 11000
  145.9474  139.2710  143.1232 LP  0  0  0  0  0  0  0  0  0  0  0  0  # atno 17320 bound_to 7965
  145.9359  140.9015  143.0332 LP  0  0  0  0  0  0  0  0  0  0  0  0  # atno 17321 bound_to 7965
  139.7995  143.8104  152.3161 LP  0  0  0  0  0  0  0  0  0  0  0  0  # atno 17342 bound_to 10162
  139.8115  144.7333  150.9690 LP  0  0  0  0  0  0  0  0  0  0  0  0  # atno 17343 bound_to 10162
  156.0032  130.3869  150.2526 LP  0  0  0  0  0  0  0  0  0  0  0  0  # atno 17370 bound_to 10713
  157.0704  131.0115  151.3192 LP  0  0  0  0  0  0  0  0  0  0  0  0  # atno 17371 bound_to 10713
  140.0054  134.6772  155.9463 LP  0  0  0  0  0  0  0  0  0  0  0  0  # atno 17394 bound_to 11000
  141.1695  133.6537  156.4601 LP  0  0  0  0  0  0  0  0  0  0  0  0  # atno 17395 bound_to 11000

$$$$
