AV-unprocessed.smi:786|AV-procd|sdf|3722|dock8
  -GOLD-   22720 1153D 1   1.00000     0.00000
 Structure written by MMmdl.
 40 41  0  0  0  0  0  0  0  0  2 V2000
  147.4636  139.8282  156.0861 O   0  0  0  0  0  0  0  0  0  0  0  0
  147.3533  141.0308  155.2470 S   0  0  0  0  0  0  0  0  0  0  0  0
  147.4566  140.9238  153.7837 O   0  0  0  0  0  0  0  0  0  0  0  0
  145.8100  141.9414  155.7099 C   0  0  0  0  0  0  0  0  0  0  0  0
  145.6593  143.2953  154.9869 C   0  0  0  0  0  0  0  0  0  0  0  0
  144.3283  143.9765  155.3457 C   0  0  0  0  0  0  0  0  0  0  0  0
  144.1647  145.2993  154.5791 C   0  0  0  0  0  0  0  0  0  0  0  0
  144.2524  145.0640  153.1784 O   0  0  0  0  0  0  0  0  0  0  0  0
  145.5137  144.5362  152.7832 C   0  0  0  0  0  0  0  0  0  0  0  0
  145.7462  143.1724  153.4534 C   0  0  0  0  0  0  0  0  0  0  0  0
  148.5860  142.1176  155.7788 N   0  0  0  0  0  0  0  0  0  0  0  0
  149.4050  141.7389  156.9307 C   0  0  0  0  0  0  0  0  0  0  0  0
  150.8511  142.2316  156.7629 C   0  0  0  0  0  0  0  0  0  0  0  0
  151.2337  143.2533  157.8160 C   0  0  0  0  0  0  0  0  0  0  0  0
  152.2255  142.9931  158.7864 C   0  0  0  0  0  0  0  0  0  0  0  0
  152.5301  143.9834  159.7434 C   0  0  0  0  0  0  0  0  0  0  0  0
  151.8372  145.2115  159.7104 C   0  0  0  0  0  0  0  0  0  0  0  0
  150.8549  145.4176  158.7203 C   0  0  0  0  0  0  0  0  0  0  0  0
  150.5916  144.4441  157.8209 N   0  3  0  0  0  0  0  0  0  0  0  0
  144.9586  141.2993  155.4829 H   0  0  0  0  0  0  0  0  0  0  0  0
  145.8220  142.0706  156.7922 H   0  0  0  0  0  0  0  0  0  0  0  0
  146.4600  143.9524  155.3295 H   0  0  0  0  0  0  0  0  0  0  0  0
  143.4960  143.3140  155.1046 H   0  0  0  0  0  0  0  0  0  0  0  0
  144.2766  144.1649  156.4185 H   0  0  0  0  0  0  0  0  0  0  0  0
  143.1939  145.7425  154.8008 H   0  0  0  0  0  0  0  0  0  0  0  0
  144.9219  146.0228  154.8850 H   0  0  0  0  0  0  0  0  0  0  0  0
  145.5241  144.4269  151.6987 H   0  0  0  0  0  0  0  0  0  0  0  0
  146.3097  145.2369  153.0399 H   0  0  0  0  0  0  0  0  0  0  0  0
  146.7111  142.7758  153.1419 H   0  0  0  0  0  0  0  0  0  0  0  0
  144.9955  142.4662  153.0964 H   0  0  0  0  0  0  0  0  0  0  0  0
  148.2102  143.0588  155.8943 H   0  0  0  0  0  0  0  0  0  0  0  0
  148.9644  142.1762  157.8269 H   0  0  0  0  0  0  0  0  0  0  0  0
  149.3733  140.6558  157.0574 H   0  0  0  0  0  0  0  0  0  0  0  0
  151.5511  141.3977  156.8152 H   0  0  0  0  0  0  0  0  0  0  0  0
  150.9814  142.6759  155.7751 H   0  0  0  0  0  0  0  0  0  0  0  0
  152.7459  142.0462  158.8000 H   0  0  0  0  0  0  0  0  0  0  0  0
  153.2857  143.8024  160.4939 H   0  0  0  0  0  0  0  0  0  0  0  0
  152.0559  145.9833  160.4342 H   0  0  0  0  0  0  0  0  0  0  0  0
  150.2762  146.3244  158.6217 H   0  0  0  0  0  0  0  0  0  0  0  0
  149.8764  144.6150  157.1136 H   0  0  0  0  0  0  0  0  0  0  0  0
  1  2  2  0  0  0  0
  2  3  2  0  0  0  0
  2  4  1  0  0  0  0
  2 11  1  0  0  0  0
  4  5  1  0  0  0  0
  4 20  1  0  0  0  0
  4 21  1  0  0  0  0
  5 10  1  0  0  0  0
  5  6  1  0  0  0  0
  5 22  1  0  0  0  0
  6  7  1  0  0  0  0
  6 23  1  0  0  0  0
  6 24  1  0  0  0  0
  7  8  1  0  0  0  0
  7 25  1  0  0  0  0
  7 26  1  0  0  0  0
  8  9  1  0  0  0  0
  9 10  1  0  0  0  0
  9 27  1  0  0  0  0
  9 28  1  0  0  0  0
 10 29  1  0  0  0  0
 10 30  1  0  0  0  0
 11 12  1  0  0  0  0
 11 31  1  0  0  0  0
 12 13  1  0  0  0  0
 12 32  1  0  0  0  0
 12 33  1  0  0  0  0
 13 14  1  0  0  0  0
 13 34  1  0  0  0  0
 13 35  1  0  0  0  0
 14 19  1  0  0  0  0
 14 15  2  0  0  0  0
 15 16  1  0  0  0  0
 15 36  1  0  0  0  0
 16 17  2  0  0  0  0
 16 37  1  0  0  0  0
 17 18  1  0  0  0  0
 17 38  1  0  0  0  0
 18 19  2  0  0  0  0
 18 39  1  0  0  0  0
 19 40  1  0  0  0  0
M  CHG  1  19   1
M  END
> <s_m_source_file>
AV-unprocessed.smi

> <i_m_source_file_index>
786

> <i_lp_mmshare_version>
43012

> <i_f3d_flags>
0

> <s_epik_input>
W0NIMl0xW0NIMl1PW0NIMl1bQ0gyXVtDSF0xW0NIMl1TKD1PKSg9TylbTkhdW0NIMl1bQ0gyXWMyW2NIXVtjSF1bY0hdW2NIXW4y

> <s_epik_cmdline>
J2VwaWtfcHl0aG9uJywgJy1waCcsICc3LjAnLCAnLXRuJywgJzgnLCAnLW1hJywgJzIwMCcsICctbWV0YWxfYmluZGluZycsICctaW1hZScsICc8aW5maWxlLm1hZT4nLCAnLW9tYWUnLCAnPG91dGZpbGUubWFlPic=

> <r_epik_Ionization_Penalty>
1.99786

> <r_epik_Ionization_Penalty_Charging>
1.99784

> <r_epik_Ionization_Penalty_Neutral>
1.9654e-05

> <r_epik_State_Penalty>
2.12638

> <r_epik_Charging_Adjusted_Penalty>
4.12422

> <i_epik_Tot_Q>
1

> <i_epik_Tot_abs_Q>
1

> <r_epik_Metal_State_Penalty>
2.17464

> <b_epik_Metal_Only>
0

> <s_lp_Force_Field>
OPLS_2005

> <r_lp_Energy>
11.1046

> <b_lp_Chiralities_Consistent>
1

> <s_lp_Variant>
AV-unprocessed.smi:786-2

> <Gold.Version>
5.8.1

> <Gold.Id.Protein>
6NUR|6NUR_protein|mol2

> <Gold.PLP.Fitness>
46.3587

> <Gold.PLP.PLP>
-39.8250

> <Gold.PLP.part.hbond>
-2.5652

> <Gold.PLP.part.metal>
0.0000

> <Gold.PLP.part.buried>
-6.9775

> <Gold.PLP.part.nonpolar>
-30.1910

> <Gold.PLP.part.repulsive>
0.3252

> <Gold.PLP.ligand.clash>
0.0000

> <Gold.PLP.ligand.torsion>
0.8328

> <Gold.PLP.Chemscore.Hbond>
2.6720

> <Gold.PLP.Chemscore.CHOScore>
0.0000

> <Gold.PLP.Chemscore.Metal>
0.0000

> <Gold.Chemscore.Hbonds>
donor molecule, donor type, donor heavy atom, donor atom, acceptor molecule, acceptor atom, score
      L1  H    11    31       P1  8028  0.70
      L1  H    19    40       P1  8028  2.00

> <Gold.PLP.Chemscore.Internal.Correction>
0.1834

> <Gold.Rescore>
     Score         DG    S(hbond)    S(metal)    S(lipo)     H(rot)  DE(clash)    DE(int)     intcor
     16.28     -18.87       1.77        0.00     106.53       1.94       0.28       2.31       ----

> <Gold.Chemscore.Fitness>
16.2840

> <Gold.Chemscore.DG>
-18.8679

> <Gold.Chemscore.ZeroCoef>
-5.4800

> <Gold.Chemscore.Hbond>
1.7657

> <Gold.Chemscore.Metal>
0.0000

> <Gold.Chemscore.Lipo>
106.5260

> <Gold.Chemscore.Internal_Hbond>
0.0000

> <Gold.Chemscore.DEClash>
0.2754

> <Gold.Chemscore.DEInternal>
2.3085

> <Gold.Chemscore.Rot>
1.9426

> <Gold.Chemscore.Internal.Correction>
   9.000000E+99

> <Gold.Chemscore.Hbonds>
donor molecule, donor type, donor heavy atom, donor atom, acceptor molecule, acceptor atom, score
      L1  H    11    31       P1  8028  0.57
      L1  H    19    40       P1  8028  0.26

> <Gold.Chemscore.Hbond.Weighted>
-5.8974

> <Gold.Chemscore.Metal.Weighted>
-0.0000

> <Gold.Chemscore.Lipo.Weighted>
-12.4635

> <Gold.Chemscore.Internal_Hbond.Weighted>
0.0000

> <Gold.Chemscore.DEClash.Weighted>
0.2754

> <Gold.Chemscore.DEInternal.Weighted>
2.3085

> <Gold.Chemscore.Rot.Weighted>
4.9731

> <Gold.Chemscore.Internal.Correction.Weighted>
   9.000000E+99

> <Gold.Protein.RotatedTorsions>
[ 6907 6896 6895 6894 ] final   43.33 input  -60.11 | X-H torsion
[ 7974 7965 7964 7962 ] final   49.84 input  175.53 | X-H torsion
[ 8008 7997 7996 7995 ] final   -2.40 input   59.86 | X-H torsion
[ 10167 10162 10161 10158 ] final   42.70 input  -65.29 | X-H torsion
[ 10718 10713 10712 10709 ] final  -21.09 input   66.30 | X-H torsion
[ 10763 10752 10751 10750 ] final  102.34 input  -60.55 | X-H torsion
[ 11005 11000 10999 10996 ] final   15.84 input  -57.11 | X-H torsion

> <Gold.Protein.ActiveResidues>
 VAL166  LYS551  ARG553  GLY616  TRP617  ASP618  TYR619  PRO620  LYS621  CYS622 
 ASP623  PHE694  ASN695  SER759  ASP760  ASP761  ALA762  ILE779  LEU786  VAL792 
 PHE793  MET794  SER795  GLU796  ALA797  LYS798  CYS799  TRP800  GLU811  SER814 

> <Gold.Protein.RotatedAtoms>
  152.2190  134.8431  160.0488 H   0  0  0  0  0  0  0  0  0  0  0  0  # atno 6907 bound_to 6896
  151.9221  133.3583  159.3909 H   0  0  0  0  0  0  0  0  0  0  0  0  # atno 6908 bound_to 6896
  150.6995  134.4549  159.5397 H   0  0  0  0  0  0  0  0  0  0  0  0  # atno 6909 bound_to 6896
  146.0070  139.4501  142.9979 H   0  0  0  0  0  0  0  0  0  0  0  0  # atno 7974 bound_to 7965
  154.6362  140.2535  155.7376 H   0  0  0  0  0  0  0  0  0  0  0  0  # atno 8008 bound_to 7997
  156.2505  140.2897  156.0655 H   0  0  0  0  0  0  0  0  0  0  0  0  # atno 8009 bound_to 7997
  155.1668  140.0385  157.2844 H   0  0  0  0  0  0  0  0  0  0  0  0  # atno 8010 bound_to 7997
  140.3518  144.2341  150.6145 H   0  0  0  0  0  0  0  0  0  0  0  0  # atno 10167 bound_to 10162
  156.5230  130.4637  149.6587 H   0  0  0  0  0  0  0  0  0  0  0  0  # atno 10718 bound_to 10713
  153.3383  135.4014  155.1551 H   0  0  0  0  0  0  0  0  0  0  0  0  # atno 10763 bound_to 10752
  154.8638  135.3627  154.5379 H   0  0  0  0  0  0  0  0  0  0  0  0  # atno 10764 bound_to 10752
  153.5822  135.7076  153.5518 H   0  0  0  0  0  0  0  0  0  0  0  0  # atno 10765 bound_to 10752
  140.4538  134.1197  155.7706 H   0  0  0  0  0  0  0  0  0  0  0  0  # atno 11005 bound_to 11000
  145.7400  141.0011  143.1306 LP  0  0  0  0  0  0  0  0  0  0  0  0  # atno 17320 bound_to 7965
  144.6939  139.9088  143.7462 LP  0  0  0  0  0  0  0  0  0  0  0  0  # atno 17321 bound_to 7965
  140.5212  143.2265  151.8386 LP  0  0  0  0  0  0  0  0  0  0  0  0  # atno 17342 bound_to 10162
  139.4825  144.4834  151.9277 LP  0  0  0  0  0  0  0  0  0  0  0  0  # atno 17343 bound_to 10162
  156.3132  130.7240  151.2137 LP  0  0  0  0  0  0  0  0  0  0  0  0  # atno 17370 bound_to 10713
  157.7434  131.0475  150.4951 LP  0  0  0  0  0  0  0  0  0  0  0  0  # atno 17371 bound_to 10713
  141.1652  133.8716  157.1734 LP  0  0  0  0  0  0  0  0  0  0  0  0  # atno 17394 bound_to 11000
  139.9990  135.0035  157.0147 LP  0  0  0  0  0  0  0  0  0  0  0  0  # atno 17395 bound_to 11000

$$$$
