AV-unprocessed.smi:1817|AV-procd|sdf|7375|dock5
  -GOLD-   22720 9 43D 1   1.00000     0.00000
 Structure written by MMmdl.
 42 43  0  0  0  0  0  0  0  0  3 V2000
  145.6634  132.6874  150.5853 C   0  0  0  0  0  0  0  0  0  0  0  0
  145.9025  131.4371  151.4442 C   0  0  0  0  0  0  0  0  0  0  0  0
  147.2006  131.4741  152.1623 N   0  3  0  0  0  0  0  0  0  0  0  0
  147.2889  130.4332  153.2168 C   0  0  0  0  0  0  0  0  0  0  0  0
  148.6540  130.4928  153.9397 C   0  0  0  0  0  0  0  0  0  0  0  0
  148.9035  131.8096  154.5455 N   0  0  0  0  0  0  0  0  0  0  0  0
  148.0105  132.1419  155.6784 C   0  0  1  0  0  0  0  0  0  0  0  0
  147.8226  130.9075  156.5915 C   0  0  0  0  0  0  0  0  0  0  0  0
  148.5321  133.3463  156.5096 C   0  0  0  0  0  0  0  0  0  0  0  0
  147.9637  133.3759  157.8541 N   0  0  0  0  0  0  0  0  0  0  0  0
  148.3290  134.2163  158.8337 C   0  0  0  0  0  0  0  0  0  0  0  0
  149.2304  135.0356  158.6367 O   0  0  0  0  0  0  0  0  0  0  0  0
  147.6257  134.0606  159.9775 N   0  5  0  0  0  0  0  0  0  0  0  0
  147.6227  135.0366  160.9004 C   0  0  0  0  0  0  0  0  0  0  0  0
  147.7170  136.3354  160.5736 N   0  0  0  0  0  0  0  0  0  0  0  0
  147.6905  137.1792  161.6757 N   0  0  0  0  0  0  0  0  0  0  0  0
  147.5683  136.4917  162.8108 C   0  0  0  0  0  0  0  0  0  0  0  0
  147.4754  134.7517  162.6366 S   0  0  0  0  0  0  0  0  0  0  0  0
  148.9021  132.7671  153.4306 C   0  0  0  0  0  0  0  0  0  0  0  0
  147.5352  132.8102  152.7165 C   0  0  0  0  0  0  0  0  0  0  0  0
  144.7508  132.5787  149.9990 H   0  0  0  0  0  0  0  0  0  0  0  0
  146.4855  132.8515  149.8881 H   0  0  0  0  0  0  0  0  0  0  0  0
  145.5493  133.5853  151.1921 H   0  0  0  0  0  0  0  0  0  0  0  0
  145.0861  131.2978  152.1547 H   0  0  0  0  0  0  0  0  0  0  0  0
  145.8893  130.5695  150.7833 H   0  0  0  0  0  0  0  0  0  0  0  0
  146.4614  130.5357  153.9195 H   0  0  0  0  0  0  0  0  0  0  0  0
  147.1763  129.4515  152.7556 H   0  0  0  0  0  0  0  0  0  0  0  0
  148.7297  129.6961  154.6771 H   0  0  0  0  0  0  0  0  0  0  0  0
  149.4487  130.2847  153.2216 H   0  0  0  0  0  0  0  0  0  0  0  0
  147.0312  132.4167  155.2910 H   0  0  0  0  0  0  0  0  0  0  0  0
  147.2446  131.1497  157.4831 H   0  0  0  0  0  0  0  0  0  0  0  0
  148.7820  130.5102  156.9242 H   0  0  0  0  0  0  0  0  0  0  0  0
  147.2750  130.1052  156.0995 H   0  0  0  0  0  0  0  0  0  0  0  0
  149.6185  133.3063  156.5929 H   0  0  0  0  0  0  0  0  0  0  0  0
  148.2904  134.3050  156.0531 H   0  0  0  0  0  0  0  0  0  0  0  0
  147.2241  132.7189  158.0548 H   0  0  0  0  0  0  0  0  0  0  0  0
  147.5306  137.0121  163.7561 H   0  0  0  0  0  0  0  0  0  0  0  0
  149.2039  133.7601  153.7566 H   0  0  0  0  0  0  0  0  0  0  0  0
  149.6708  132.4707  152.7152 H   0  0  0  0  0  0  0  0  0  0  0  0
  147.5914  133.5394  151.9092 H   0  0  0  0  0  0  0  0  0  0  0  0
  146.7475  133.1530  153.3886 H   0  0  0  0  0  0  0  0  0  0  0  0
  147.9174  131.2508  151.4871 H   0  0  0  0  0  0  0  0  0  0  0  0
  1  2  1  0  0  0  0
  1 21  1  0  0  0  0
  1 22  1  0  0  0  0
  1 23  1  0  0  0  0
  2  3  1  0  0  0  0
  2 24  1  0  0  0  0
  2 25  1  0  0  0  0
  3 20  1  0  0  0  0
  3  4  1  0  0  0  0
  3 42  1  0  0  0  0
  4  5  1  0  0  0  0
  4 26  1  0  0  0  0
  4 27  1  0  0  0  0
  5  6  1  0  0  0  0
  5 28  1  0  0  0  0
  5 29  1  0  0  0  0
  6  7  1  0  0  0  0
  6 19  1  0  0  0  0
  7  8  1  0  0  0  0
  7  9  1  0  0  0  0
  7 30  1  0  0  0  0
  8 31  1  0  0  0  0
  8 32  1  0  0  0  0
  8 33  1  0  0  0  0
  9 10  1  0  0  0  0
  9 34  1  0  0  0  0
  9 35  1  0  0  0  0
 10 11  1  0  0  0  0
 10 36  1  0  0  0  0
 11 12  2  0  0  0  0
 11 13  1  0  0  0  0
 13 14  1  0  0  0  0
 14 18  1  0  0  0  0
 14 15  2  0  0  0  0
 15 16  1  0  0  0  0
 16 17  2  0  0  0  0
 17 18  1  0  0  0  0
 17 37  1  0  0  0  0
 19 20  1  0  0  0  0
 19 38  1  0  0  0  0
 19 39  1  0  0  0  0
 20 40  1  0  0  0  0
 20 41  1  0  0  0  0
M  CHG  1   3   1
M  CHG  1  13  -1
M  END
> <s_m_source_file>
AV-unprocessed.smi

> <i_m_source_file_index>
1817

> <i_lp_mmshare_version>
43012

> <i_f3d_flags>
0

> <s_epik_input>
W0NIM11bQ0gyXU4xW0NIMl1bQ0gyXU4oW0NIMl1bQ0gyXTEpW0NASF0oW0NIM10pW0NIMl1bTkhdQyg9TylbTkhdYzJubltjSF1zMg==

> <s_epik_cmdline>
J2VwaWtfcHl0aG9uJywgJy1waCcsICc3LjAnLCAnLXRuJywgJzgnLCAnLW1hJywgJzIwMCcsICctbWV0YWxfYmluZGluZycsICctaW1hZScsICc8aW5maWxlLm1hZT4nLCAnLW9tYWUnLCAnPG91dGZpbGUubWFlPic=

> <r_lp_tautomer_probability>
1

> <r_epik_Ionization_Penalty>
3.58527

> <r_epik_Ionization_Penalty_Charging>
3.54445

> <r_epik_Ionization_Penalty_Neutral>
0.0408199

> <r_epik_State_Penalty>
3.6633

> <r_epik_Charging_Adjusted_Penalty>
7.20774

> <i_epik_Tot_Q>
0

> <i_epik_Tot_abs_Q>
2

> <r_epik_Metal_State_Penalty>
0.683711

> <b_epik_Metal_Only>
1

> <s_lp_Force_Field>
OPLS_2005

> <r_lp_Energy>
13.2913

> <b_lp_Chiralities_Consistent>
1

> <s_lp_Variant>
AV-unprocessed.smi:1817-8

> <Gold.Version>
5.8.1

> <Gold.Id.Protein>
6NUR|6NUR_protein|mol2

> <Gold.PLP.Fitness>
41.8159

> <Gold.PLP.PLP>
-32.1423

> <Gold.PLP.part.hbond>
-4.0000

> <Gold.PLP.part.metal>
0.0000

> <Gold.PLP.part.buried>
-4.8789

> <Gold.PLP.part.nonpolar>
-23.0349

> <Gold.PLP.part.repulsive>
0.0757

> <Gold.PLP.ligand.clash>
0.0000

> <Gold.PLP.ligand.torsion>
0.8779

> <Gold.PLP.Chemscore.Hbond>
3.7600

> <Gold.PLP.Chemscore.CHOScore>
0.0000

> <Gold.PLP.Chemscore.Metal>
0.0000

> <Gold.Chemscore.Hbonds>
donor molecule, donor type, donor heavy atom, donor atom, acceptor molecule, acceptor atom, score
      L1  H     3    42       P1 10747  1.00
      P1  H  6896  6908       L1    12  1.00
      P1  H  6931  6943       L1    16  1.00
      P1  H  6934  6947       L1    16  0.69

> <Gold.PLP.Chemscore.Internal.Correction>
0.1493

> <Gold.Rescore>
     Score         DG    S(hbond)    S(metal)    S(lipo)     H(rot)  DE(clash)    DE(int)     intcor
     17.61     -19.84       3.43        0.00      66.02       1.88       0.00       2.22       ----

> <Gold.Chemscore.Fitness>
17.6102

> <Gold.Chemscore.DG>
-19.8362

> <Gold.Chemscore.ZeroCoef>
-5.4800

> <Gold.Chemscore.Hbond>
3.4283

> <Gold.Chemscore.Metal>
0.0000

> <Gold.Chemscore.Lipo>
66.0230

> <Gold.Chemscore.Internal_Hbond>
0.0000

> <Gold.Chemscore.DEClash>
0.0038

> <Gold.Chemscore.DEInternal>
2.2222

> <Gold.Chemscore.Rot>
1.8825

> <Gold.Chemscore.Internal.Correction>
   9.000000E+99

> <Gold.Chemscore.Hbonds>
donor molecule, donor type, donor heavy atom, donor atom, acceptor molecule, acceptor atom, score
      L1  H     3    42       P1 10747  1.00
      P1  H  6896  6908       L1    12  0.29
      P1  H  6931  6943       L1    16  0.50
      P1  H  6934  6947       L1    16  0.36

> <Gold.Chemscore.Hbond.Weighted>
-11.4506

> <Gold.Chemscore.Metal.Weighted>
-0.0000

> <Gold.Chemscore.Lipo.Weighted>
-7.7247

> <Gold.Chemscore.Internal_Hbond.Weighted>
0.0000

> <Gold.Chemscore.DEClash.Weighted>
0.0038

> <Gold.Chemscore.DEInternal.Weighted>
2.2222

> <Gold.Chemscore.Rot.Weighted>
4.8191

> <Gold.Chemscore.Internal.Correction.Weighted>
   9.000000E+99

> <Gold.Protein.RotatedTorsions>
[ 6907 6896 6895 6894 ] final  142.32 input  -60.11 | X-H torsion
[ 7974 7965 7964 7962 ] final  -20.78 input  175.53 | X-H torsion
[ 8008 7997 7996 7995 ] final   94.63 input   59.86 | X-H torsion
[ 10167 10162 10161 10158 ] final -140.20 input  -65.29 | X-H torsion
[ 10718 10713 10712 10709 ] final -136.51 input   66.30 | X-H torsion
[ 10763 10752 10751 10750 ] final -161.75 input  -60.55 | X-H torsion
[ 11005 11000 10999 10996 ] final  -32.35 input  -57.11 | X-H torsion

> <Gold.Protein.ActiveResidues>
 VAL166  LYS551  ARG553  GLY616  TRP617  ASP618  TYR619  PRO620  LYS621  CYS622 
 ASP623  PHE694  ASN695  SER759  ASP760  ASP761  ALA762  ILE779  LEU786  VAL792 
 PHE793  MET794  SER795  GLU796  ALA797  LYS798  CYS799  TRP800  GLU811  SER814 

> <Gold.Protein.RotatedAtoms>
  152.2202  133.4977  159.5157 H   0  0  0  0  0  0  0  0  0  0  0  0  # atno 6907 bound_to 6896
  150.7011  134.1353  159.4093 H   0  0  0  0  0  0  0  0  0  0  0  0  # atno 6908 bound_to 6896
  151.9273  135.0272  160.0577 H   0  0  0  0  0  0  0  0  0  0  0  0  # atno 6909 bound_to 6896
  146.1769  140.4250  142.8510 H   0  0  0  0  0  0  0  0  0  0  0  0  # atno 7974 bound_to 7965
  156.0600  140.3297  155.7451 H   0  0  0  0  0  0  0  0  0  0  0  0  # atno 8008 bound_to 7997
  155.5469  140.0607  157.2875 H   0  0  0  0  0  0  0  0  0  0  0  0  # atno 8009 bound_to 7997
  154.4477  140.1901  156.0636 H   0  0  0  0  0  0  0  0  0  0  0  0  # atno 8010 bound_to 7997
  139.8305  143.7453  152.2666 H   0  0  0  0  0  0  0  0  0  0  0  0  # atno 10167 bound_to 10162
  156.2779  130.7303  151.1291 H   0  0  0  0  0  0  0  0  0  0  0  0  # atno 10718 bound_to 10713
  154.7275  135.3039  154.8946 H   0  0  0  0  0  0  0  0  0  0  0  0  # atno 10763 bound_to 10752
  153.9798  135.6731  153.4754 H   0  0  0  0  0  0  0  0  0  0  0  0  # atno 10764 bound_to 10752
  153.0889  135.4970  154.8570 H   0  0  0  0  0  0  0  0  0  0  0  0  # atno 10765 bound_to 10752
  140.9545  133.7201  156.1271 H   0  0  0  0  0  0  0  0  0  0  0  0  # atno 11005 bound_to 11000
  144.8251  140.6615  143.6327 LP  0  0  0  0  0  0  0  0  0  0  0  0  # atno 17320 bound_to 7965
  145.4185  139.1568  143.4087 LP  0  0  0  0  0  0  0  0  0  0  0  0  # atno 17321 bound_to 7965
  139.7659  144.7492  151.0295 LP  0  0  0  0  0  0  0  0  0  0  0  0  # atno 17342 bound_to 10162
  140.7807  143.4698  151.0162 LP  0  0  0  0  0  0  0  0  0  0  0  0  # atno 17343 bound_to 10162
  157.7305  131.0616  150.5724 LP  0  0  0  0  0  0  0  0  0  0  0  0  # atno 17370 bound_to 10713
  156.5826  130.4308  149.5970 LP  0  0  0  0  0  0  0  0  0  0  0  0  # atno 17371 bound_to 10713
  140.7556  134.3997  157.5534 LP  0  0  0  0  0  0  0  0  0  0  0  0  # atno 17394 bound_to 11000
  139.8858  134.8928  156.2623 LP  0  0  0  0  0  0  0  0  0  0  0  0  # atno 17395 bound_to 11000

$$$$
