AV-unprocessed.smi:72|AV-procd|sdf|718|dock3
  -GOLD-   2262017 43D 1   1.00000     0.00000
 Structure written by MMmdl.
 28 29  0  0  0  0  0  0  0  0  2 V2000
  151.2520  134.5133  157.2950 N   0  0  0  0  0  0  0  0  0  0  0  0
  151.1990  135.7057  156.8893 C   0  0  0  0  0  0  0  0  0  0  0  0
  149.9318  136.2846  156.4984 N   0  0  0  0  0  0  0  0  0  0  0  0
  149.9324  137.5112  156.0745 C   0  0  0  0  0  0  0  0  0  0  0  0
  151.1607  138.2882  155.9765 N   0  0  0  0  0  0  0  0  0  0  0  0
  151.1482  139.7225  155.4866 C   0  0  1  0  0  0  0  0  0  0  0  0
  149.9473  139.9745  154.8281 O   0  0  0  0  0  0  0  0  0  0  0  0
  149.6723  141.3628  154.9229 C   0  0  1  0  0  0  0  0  0  0  0  0
  148.1851  141.6254  154.6401 C   0  0  0  0  0  0  0  0  0  0  0  0
  148.0242  142.8722  153.9979 O   0  0  0  0  0  0  0  0  0  0  0  0
  150.0882  141.6893  156.3627 C   0  0  2  0  0  0  0  0  0  0  0  0
  150.4750  143.0458  156.4614 O   0  0  0  0  0  0  0  0  0  0  0  0
  151.2792  140.7669  156.6184 C   0  0  1  0  0  0  0  0  0  0  0  0
  151.2138  140.2243  157.9253 O   0  0  0  0  0  0  0  0  0  0  0  0
  152.3855  137.7050  156.3946 C   0  0  0  0  0  0  0  0  0  0  0  0
  153.4034  138.3960  156.3479 O   0  0  0  0  0  0  0  0  0  0  0  0
  152.3774  136.4174  156.8398 N   0  5  0  0  0  0  0  0  0  0  0  0
  151.9447  139.8040  154.7449 H   0  0  0  0  0  0  0  0  0  0  0  0
  150.3113  141.9004  154.2183 H   0  0  0  0  0  0  0  0  0  0  0  0
  149.2693  141.4721  157.0509 H   0  0  0  0  0  0  0  0  0  0  0  0
  152.2335  141.2795  156.4878 H   0  0  0  0  0  0  0  0  0  0  0  0
  150.3455  134.0684  157.2989 H   0  0  0  0  0  0  0  0  0  0  0  0
  149.0238  138.0345  155.7745 H   0  0  0  0  0  0  0  0  0  0  0  0
  147.7489  140.8268  154.0391 H   0  0  0  0  0  0  0  0  0  0  0  0
  147.6275  141.6677  155.5761 H   0  0  0  0  0  0  0  0  0  0  0  0
  147.1052  143.0921  153.9944 H   0  0  0  0  0  0  0  0  0  0  0  0
  149.7751  143.5813  156.1202 H   0  0  0  0  0  0  0  0  0  0  0  0
  150.3540  140.3996  158.2776 H   0  0  0  0  0  0  0  0  0  0  0  0
  1  2  2  0  0  0  0
  1 22  1  0  0  0  0
  2 17  1  0  0  0  0
  2  3  1  0  0  0  0
  3  4  2  0  0  0  0
  4  5  1  0  0  0  0
  4 23  1  0  0  0  0
  5  6  1  0  0  0  0
  5 15  1  0  0  0  0
  6 18  1  0  0  0  0
  6 13  1  0  0  0  0
  6  7  1  0  0  0  0
  7  8  1  0  0  0  0
  8 19  1  0  0  0  0
  8  9  1  0  0  0  0
  8 11  1  0  0  0  0
  9 10  1  0  0  0  0
  9 24  1  0  0  0  0
  9 25  1  0  0  0  0
 10 26  1  0  0  0  0
 11 20  1  0  0  0  0
 11 12  1  0  0  0  0
 11 13  1  0  0  0  0
 12 27  1  0  0  0  0
 13 21  1  0  0  0  0
 13 14  1  0  0  0  0
 14 28  1  0  0  0  0
 15 16  2  0  0  0  0
 15 17  1  0  0  0  0
M  CHG  1  17  -1
M  END
> <s_m_source_file>
AV-unprocessed.smi

> <i_m_source_file_index>
72

> <i_lp_mmshare_version>
43012

> <i_f3d_flags>
0

> <s_epik_input>
W05IMl1jMW5bY0hdbihjKD1PKW4xKVtDQEBIXTJPW0NASF0oW0NIMl1bT0hdKVtDQEBIXShbT0hdKVtDQEhdMltPSF0=

> <s_epik_cmdline>
J2VwaWtfcHl0aG9uJywgJy1waCcsICc3LjAnLCAnLXRuJywgJzgnLCAnLW1hJywgJzIwMCcsICctbWV0YWxfYmluZGluZycsICctaW1hZScsICc8aW5maWxlLm1hZT4nLCAnLW9tYWUnLCAnPG91dGZpbGUubWFlPic=

> <r_lp_tautomer_probability>
7.17554e-07

> <r_epik_Ionization_Penalty>
12.8705

> <r_epik_Ionization_Penalty_Charging>
5.64144

> <r_epik_Ionization_Penalty_Neutral>
7.22905

> <r_epik_State_Penalty>
3.30104

> <r_epik_Charging_Adjusted_Penalty>
8.94249

> <i_epik_Tot_Q>
-1

> <i_epik_Tot_abs_Q>
1

> <r_epik_Metal_State_Penalty>
0.529074

> <b_epik_Metal_Only>
1

> <s_epik_Chemistry_Notes>
This compound contains an acetal/aminal-like group ( X-CH(R)-Y where X, Y are N, S, or O) that may be acid/base labile, releasing an aldehyde.

> <s_lp_Force_Field>
OPLS_2005

> <r_lp_Energy>
37.5202

> <b_lp_Chiralities_Consistent>
1

> <s_lp_Variant>
AV-unprocessed.smi:72-56

> <Gold.Version>
5.8.1

> <Gold.Id.Protein>
6NUR|6NUR_protein|mol2

> <Gold.PLP.Fitness>
37.2249

> <Gold.PLP.PLP>
-25.1857

> <Gold.PLP.part.hbond>
-7.1332

> <Gold.PLP.part.metal>
0.0000

> <Gold.PLP.part.buried>
-2.6499

> <Gold.PLP.part.nonpolar>
-15.7106

> <Gold.PLP.part.repulsive>
0.1025

> <Gold.PLP.ligand.clash>
0.0000

> <Gold.PLP.ligand.torsion>
0.8967

> <Gold.PLP.Chemscore.Hbond>
4.5640

> <Gold.PLP.Chemscore.CHOScore>
0.0000

> <Gold.PLP.Chemscore.Metal>
0.0000

> <Gold.Chemscore.Hbonds>
donor molecule, donor type, donor heavy atom, donor atom, acceptor molecule, acceptor atom, score
      L1  H    12    27       P1  8028  0.96
      P1  H  7997  8008       L1    16  0.82
      P1  H  8022  8030       L1    10  0.57
      P1  H 10752 10763       L1    17  1.46

> <Gold.PLP.Chemscore.Internal.Correction>
0.1407

> <Gold.Rescore>
     Score         DG    S(hbond)    S(metal)    S(lipo)     H(rot)  DE(clash)    DE(int)     intcor
      5.62      -7.07       2.62        0.00      27.11       4.04       0.46       0.99       ----

> <Gold.Chemscore.Fitness>
5.6243

> <Gold.Chemscore.DG>
-7.0715

> <Gold.Chemscore.ZeroCoef>
-5.4800

> <Gold.Chemscore.Hbond>
2.6237

> <Gold.Chemscore.Metal>
0.0000

> <Gold.Chemscore.Lipo>
27.1070

> <Gold.Chemscore.Internal_Hbond>
0.0000

> <Gold.Chemscore.DEClash>
0.4606

> <Gold.Chemscore.DEInternal>
0.9866

> <Gold.Chemscore.Rot>
4.0403

> <Gold.Chemscore.Internal.Correction>
   9.000000E+99

> <Gold.Chemscore.Hbonds>
donor molecule, donor type, donor heavy atom, donor atom, acceptor molecule, acceptor atom, score
      L1  H    12    27       P1  8028  0.91
      P1  H  7997  8008       L1    16  0.81
      P1  H  8022  8030       L1    10  0.05
      P1  H 10752 10763       L1    17  0.09

> <Gold.Chemscore.Hbond.Weighted>
-8.7630

> <Gold.Chemscore.Metal.Weighted>
-0.0000

> <Gold.Chemscore.Lipo.Weighted>
-3.1715

> <Gold.Chemscore.Internal_Hbond.Weighted>
0.0000

> <Gold.Chemscore.DEClash.Weighted>
0.4606

> <Gold.Chemscore.DEInternal.Weighted>
0.9866

> <Gold.Chemscore.Rot.Weighted>
10.3431

> <Gold.Chemscore.Internal.Correction.Weighted>
   9.000000E+99

> <Gold.Protein.RotatedTorsions>
[ 6907 6896 6895 6894 ] final  175.37 input  -60.11 | X-H torsion
[ 7974 7965 7964 7962 ] final   60.40 input  175.53 | X-H torsion
[ 8008 7997 7996 7995 ] final  -41.31 input   59.86 | X-H torsion
[ 10167 10162 10161 10158 ] final   68.06 input  -65.29 | X-H torsion
[ 10718 10713 10712 10709 ] final -179.23 input   66.30 | X-H torsion
[ 10763 10752 10751 10750 ] final  113.55 input  -60.55 | X-H torsion
[ 11005 11000 10999 10996 ] final   -2.31 input  -57.11 | X-H torsion

> <Gold.Protein.ActiveResidues>
 VAL166  LYS551  ARG553  GLY616  TRP617  ASP618  TYR619  PRO620  LYS621  CYS622 
 ASP623  PHE694  ASN695  SER759  ASP760  ASP761  ALA762  ILE779  LEU786  VAL792 
 PHE793  MET794  SER795  GLU796  ALA797  LYS798  CYS799  TRP800  GLU811  SER814 

> <Gold.Protein.RotatedAtoms>
  151.7374  133.3320  159.3356 H   0  0  0  0  0  0  0  0  0  0  0  0  # atno 6907 bound_to 6896
  150.7587  134.6309  159.6195 H   0  0  0  0  0  0  0  0  0  0  0  0  # atno 6908 bound_to 6896
  152.3553  134.6951  160.0275 H   0  0  0  0  0  0  0  0  0  0  0  0  # atno 6909 bound_to 6896
  145.8964  139.3548  143.0619 H   0  0  0  0  0  0  0  0  0  0  0  0  # atno 7974 bound_to 7965
  154.4005  140.1502  156.3170 H   0  0  0  0  0  0  0  0  0  0  0  0  # atno 8008 bound_to 7997
  155.8563  140.3455  155.5705 H   0  0  0  0  0  0  0  0  0  0  0  0  # atno 8009 bound_to 7997
  155.7929  140.0859  157.1990 H   0  0  0  0  0  0  0  0  0  0  0  0  # atno 8010 bound_to 7997
  140.0828  144.5056  150.7151 H   0  0  0  0  0  0  0  0  0  0  0  0  # atno 10167 bound_to 10162
  156.8560  130.9735  151.3088 H   0  0  0  0  0  0  0  0  0  0  0  0  # atno 10718 bound_to 10713
  153.4942  135.3652  155.2507 H   0  0  0  0  0  0  0  0  0  0  0  0  # atno 10763 bound_to 10752
  154.8751  135.3984  154.3554 H   0  0  0  0  0  0  0  0  0  0  0  0  # atno 10764 bound_to 10752
  153.4179  135.7079  153.6380 H   0  0  0  0  0  0  0  0  0  0  0  0  # atno 10765 bound_to 10752
  140.6570  133.9354  155.8413 H   0  0  0  0  0  0  0  0  0  0  0  0  # atno 11005 bound_to 11000
  145.8845  140.9342  143.0584 LP  0  0  0  0  0  0  0  0  0  0  0  0  # atno 17320 bound_to 7965
  144.6733  140.0824  143.7468 LP  0  0  0  0  0  0  0  0  0  0  0  0  # atno 17321 bound_to 7965
  140.7069  143.2475  151.4699 LP  0  0  0  0  0  0  0  0  0  0  0  0  # atno 17342 bound_to 10162
  139.5770  144.1797  152.1916 LP  0  0  0  0  0  0  0  0  0  0  0  0  # atno 17343 bound_to 10162
  157.6277  130.8704  149.9218 LP  0  0  0  0  0  0  0  0  0  0  0  0  # atno 17370 bound_to 10713
  156.0802  130.3674  150.0595 LP  0  0  0  0  0  0  0  0  0  0  0  0  # atno 17371 bound_to 10713
  141.0494  134.0507  157.3803 LP  0  0  0  0  0  0  0  0  0  0  0  0  # atno 17394 bound_to 11000
  139.9026  135.0170  156.7340 LP  0  0  0  0  0  0  0  0  0  0  0  0  # atno 17395 bound_to 11000

$$$$
