AV-unprocessed.smi:35|AV-procd|sdf|278|dock1
  -GOLD-   2262016 43D 1   1.00000     0.00000
 Structure written by MMmdl.
 28 29  0  0  0  0  0  0  0  0  2 V2000
  152.5874  142.0328  159.8072 O   0  0  0  0  0  0  0  0  0  0  0  0
  151.8107  141.5770  158.9702 C   0  0  0  0  0  0  0  0  0  0  0  0
  151.3911  140.2792  158.9776 N   0  5  0  0  0  0  0  0  0  0  0  0
  150.5389  139.7745  158.0378 C   0  0  0  0  0  0  0  0  0  0  0  0
  150.1443  138.6082  158.0472 O   0  0  0  0  0  0  0  0  0  0  0  0
  150.0785  140.6247  156.9935 N   0  0  0  0  0  0  0  0  0  0  0  0
  149.1302  140.0518  155.9537 C   0  0  1  0  0  0  0  0  0  0  0  0
  147.8856  140.6819  156.0581 O   0  0  0  0  0  0  0  0  0  0  0  0
  147.7953  141.7275  155.0949 C   0  0  2  0  0  0  0  0  0  0  0  0
  146.3368  142.1682  154.8843 C   0  0  0  0  0  0  0  0  0  0  0  0
  145.5197  141.0363  154.6762 O   0  0  0  0  0  0  0  0  0  0  0  0
  148.4841  141.0963  153.8813 C   0  0  2  0  0  0  0  0  0  0  0  0
  147.5873  140.2415  153.1897 O   0  0  0  0  0  0  0  0  0  0  0  0
  149.6441  140.3370  154.5248 C   0  0  2  0  0  0  0  0  0  0  0  0
  149.9930  139.1671  153.8089 O   0  0  0  0  0  0  0  0  0  0  0  0
  150.4651  141.9565  156.9802 C   0  0  0  0  0  0  0  0  0  0  0  0
  151.3024  142.4488  157.9153 C   0  0  0  0  0  0  0  0  0  0  0  0
  151.7730  144.3680  157.7660 Br  0  0  0  0  0  0  0  0  0  0  0  0
  149.0314  138.9938  156.2028 H   0  0  0  0  0  0  0  0  0  0  0  0
  148.3973  142.5780  155.4206 H   0  0  0  0  0  0  0  0  0  0  0  0
  145.9674  142.6805  155.7730 H   0  0  0  0  0  0  0  0  0  0  0  0
  146.2446  142.8596  154.0460 H   0  0  0  0  0  0  0  0  0  0  0  0
  144.9484  141.2133  153.9442 H   0  0  0  0  0  0  0  0  0  0  0  0
  148.8404  141.8517  153.1801 H   0  0  0  0  0  0  0  0  0  0  0  0
  147.9974  139.9790  152.3794 H   0  0  0  0  0  0  0  0  0  0  0  0
  150.5138  140.9939  154.5778 H   0  0  0  0  0  0  0  0  0  0  0  0
  149.8458  139.3326  152.8893 H   0  0  0  0  0  0  0  0  0  0  0  0
  150.1003  142.6297  156.2201 H   0  0  0  0  0  0  0  0  0  0  0  0
  1  2  2  0  0  0  0
  2 17  1  0  0  0  0
  2  3  1  0  0  0  0
  3  4  1  0  0  0  0
  4  5  2  0  0  0  0
  4  6  1  0  0  0  0
  6  7  1  0  0  0  0
  6 16  1  0  0  0  0
  7 14  1  0  0  0  0
  7  8  1  0  0  0  0
  7 19  1  0  0  0  0
  8  9  1  0  0  0  0
  9 10  1  0  0  0  0
  9 12  1  0  0  0  0
  9 20  1  0  0  0  0
 10 11  1  0  0  0  0
 10 21  1  0  0  0  0
 10 22  1  0  0  0  0
 11 23  1  0  0  0  0
 12 13  1  0  0  0  0
 12 14  1  0  0  0  0
 12 24  1  0  0  0  0
 13 25  1  0  0  0  0
 14 15  1  0  0  0  0
 14 26  1  0  0  0  0
 15 27  1  0  0  0  0
 16 17  2  0  0  0  0
 16 28  1  0  0  0  0
 17 18  1  0  0  0  0
M  CHG  1   3  -1
M  END
> <s_m_source_file>
AV-unprocessed.smi

> <i_m_source_file_index>
35

> <i_lp_mmshare_version>
43012

> <i_f3d_flags>
0

> <s_epik_input>
Tz1jMVtuSF1jKD1PKW4oW2NIXWMxQnIpW0NAQEhdMk9bQ0BASF0oW0NIMl1bT0hdKVtDQEBIXShbT0hdKVtDQEhdMltPSF0=

> <s_epik_cmdline>
J2VwaWtfcHl0aG9uJywgJy1waCcsICc3LjAnLCAnLXRuJywgJzgnLCAnLW1hJywgJzIwMCcsICctbWV0YWxfYmluZGluZycsICctaW1hZScsICc8aW5maWxlLm1hZT4nLCAnLW9tYWUnLCAnPG91dGZpbGUubWFlPic=

> <r_epik_Ionization_Penalty>
1.06112

> <r_epik_Ionization_Penalty_Charging>
2.1796e-09

> <r_epik_Ionization_Penalty_Neutral>
1.06112

> <r_epik_State_Penalty>
1.11484

> <r_epik_Charging_Adjusted_Penalty>
1.11484

> <i_epik_Tot_Q>
-1

> <i_epik_Tot_abs_Q>
1

> <r_epik_Metal_State_Penalty>
0.0032876

> <b_epik_Metal_Only>
0

> <s_epik_Chemistry_Notes>
This compound contains an acetal/aminal-like group ( X-CH(R)-Y where X, Y are N, S, or O) that may be acid/base labile, releasing an aldehyde.

> <s_lp_Force_Field>
OPLS_2005

> <r_lp_Energy>
41.3474

> <b_lp_Chiralities_Consistent>
1

> <s_lp_Variant>
AV-unprocessed.smi:35-32

> <Gold.Version>
5.8.1

> <Gold.Id.Protein>
6NUR|6NUR_protein|mol2

> <Gold.PLP.Fitness>
41.4412

> <Gold.PLP.PLP>
-29.6767

> <Gold.PLP.part.hbond>
-3.3848

> <Gold.PLP.part.metal>
0.0000

> <Gold.PLP.part.buried>
-2.1037

> <Gold.PLP.part.nonpolar>
-23.3758

> <Gold.PLP.part.repulsive>
0.0438

> <Gold.PLP.ligand.clash>
0.0000

> <Gold.PLP.ligand.torsion>
0.1157

> <Gold.PLP.Chemscore.Hbond>
2.9920

> <Gold.PLP.Chemscore.CHOScore>
1.0000

> <Gold.PLP.Chemscore.Metal>
0.0000

> <Gold.Chemscore.Hbonds>
donor molecule, donor type, donor heavy atom, donor atom, acceptor molecule, acceptor atom, score
      L1  H    11    23       P1 10175  0.93
      L1  H    13    25       P1  7957  0.99
      L1  H    15    27       P1  7957  1.00
      L1  C    16    28       P1  8028  1.00

> <Gold.PLP.Chemscore.Internal.Correction>
0.0199

> <Gold.Rescore>
     Score         DG    S(hbond)    S(metal)    S(lipo)     H(rot)  DE(clash)    DE(int)     intcor
     11.16     -11.66       2.75        0.00      53.54       3.63       0.42       0.08       ----

> <Gold.Chemscore.Fitness>
11.1567

> <Gold.Chemscore.DG>
-11.6593

> <Gold.Chemscore.ZeroCoef>
-5.4800

> <Gold.Chemscore.Hbond>
2.7539

> <Gold.Chemscore.Metal>
0.0000

> <Gold.Chemscore.Lipo>
53.5400

> <Gold.Chemscore.Internal_Hbond>
0.0000

> <Gold.Chemscore.DEClash>
0.4223

> <Gold.Chemscore.DEInternal>
0.0803

> <Gold.Chemscore.Rot>
3.6261

> <Gold.Chemscore.Internal.Correction>
   9.000000E+99

> <Gold.Chemscore.Hbonds>
donor molecule, donor type, donor heavy atom, donor atom, acceptor molecule, acceptor atom, score
      L1  H    11    23       P1 10175  0.51
      L1  H    13    25       P1  7957  0.91
      L1  H    15    27       P1  7957  0.98

> <Gold.Chemscore.Hbond.Weighted>
-9.1979

> <Gold.Chemscore.Metal.Weighted>
-0.0000

> <Gold.Chemscore.Lipo.Weighted>
-6.2642

> <Gold.Chemscore.Internal_Hbond.Weighted>
0.0000

> <Gold.Chemscore.DEClash.Weighted>
0.4223

> <Gold.Chemscore.DEInternal.Weighted>
0.0803

> <Gold.Chemscore.Rot.Weighted>
9.2828

> <Gold.Chemscore.Internal.Correction.Weighted>
   9.000000E+99

> <Gold.Protein.RotatedTorsions>
[ 6907 6896 6895 6894 ] final  -87.88 input  -60.11 | X-H torsion
[ 7974 7965 7964 7962 ] final -160.26 input  175.53 | X-H torsion
[ 8008 7997 7996 7995 ] final -169.52 input   59.86 | X-H torsion
[ 10167 10162 10161 10158 ] final   -7.25 input  -65.29 | X-H torsion
[ 10718 10713 10712 10709 ] final  140.80 input   66.30 | X-H torsion
[ 10763 10752 10751 10750 ] final   -4.21 input  -60.55 | X-H torsion
[ 11005 11000 10999 10996 ] final   36.72 input  -57.11 | X-H torsion

> <Gold.Protein.ActiveResidues>
 VAL166  LYS551  ARG553  GLY616  TRP617  ASP618  TYR619  PRO620  LYS621  CYS622 
 ASP623  PHE694  ASN695  SER759  ASP760  ASP761  ALA762  ILE779  LEU786  VAL792 
 PHE793  MET794  SER795  GLU796  ALA797  LYS798  CYS799  TRP800  GLU811  SER814 

> <Gold.Protein.RotatedAtoms>
  150.6867  134.2827  159.4633 H   0  0  0  0  0  0  0  0  0  0  0  0  # atno 6907 bound_to 6896
  152.0740  134.9512  160.0583 H   0  0  0  0  0  0  0  0  0  0  0  0  # atno 6908 bound_to 6896
  152.0891  133.4156  159.4573 H   0  0  0  0  0  0  0  0  0  0  0  0  # atno 6909 bound_to 6896
  144.7433  140.3567  143.6104 H   0  0  0  0  0  0  0  0  0  0  0  0  # atno 7974 bound_to 7965
  155.9061  140.1049  157.1314 H   0  0  0  0  0  0  0  0  0  0  0  0  # atno 8008 bound_to 7997
  154.4033  140.1283  156.4562 H   0  0  0  0  0  0  0  0  0  0  0  0  # atno 8009 bound_to 7997
  155.7365  140.3467  155.5086 H   0  0  0  0  0  0  0  0  0  0  0  0  # atno 8010 bound_to 7997
  140.7023  143.6102  150.8711 H   0  0  0  0  0  0  0  0  0  0  0  0  # atno 10167 bound_to 10162
  157.3992  131.1014  151.0569 H   0  0  0  0  0  0  0  0  0  0  0  0  # atno 10718 bound_to 10713
  153.3817  135.6998  153.6560 H   0  0  0  0  0  0  0  0  0  0  0  0  # atno 10763 bound_to 10752
  153.5169  135.3620  155.2614 H   0  0  0  0  0  0  0  0  0  0  0  0  # atno 10764 bound_to 10752
  154.8693  135.4148  154.3116 H   0  0  0  0  0  0  0  0  0  0  0  0  # atno 10765 bound_to 10752
  140.2298  134.3541  155.7969 H   0  0  0  0  0  0  0  0  0  0  0  0  # atno 11005 bound_to 11000
  145.7220  139.1712  143.2479 LP  0  0  0  0  0  0  0  0  0  0  0  0  # atno 17320 bound_to 7965
  146.1270  140.7235  142.9430 LP  0  0  0  0  0  0  0  0  0  0  0  0  # atno 17321 bound_to 7965
  139.9825  143.5935  152.2938 LP  0  0  0  0  0  0  0  0  0  0  0  0  # atno 17342 bound_to 10162
  139.6561  144.7662  151.2052 LP  0  0  0  0  0  0  0  0  0  0  0  0  # atno 17343 bound_to 10162
  157.1574  130.6210  149.5600 LP  0  0  0  0  0  0  0  0  0  0  0  0  # atno 17370 bound_to 10713
  155.9818  130.4828  150.6850 LP  0  0  0  0  0  0  0  0  0  0  0  0  # atno 17371 bound_to 10713
  141.2218  133.7239  156.8712 LP  0  0  0  0  0  0  0  0  0  0  0  0  # atno 17394 bound_to 11000
  140.1763  134.9065  157.2894 LP  0  0  0  0  0  0  0  0  0  0  0  0  # atno 17395 bound_to 11000

$$$$
