AV-unprocessed.smi:2772|AV-procd|sdf|10670|dock1
  -GOLD-   2272015113D 1   1.00000     0.00000
 Structure written by MMmdl.
 54 56  0  0  0  0  0  0  0  0  2 V2000
  144.1173  133.0429  151.1352 C   0  0  0  0  0  0  0  0  0  0  0  0
  144.2853  134.4500  151.6689 C   0  0  0  0  0  0  0  0  0  0  0  0
  143.1748  135.1857  152.1306 C   0  0  0  0  0  0  0  0  0  0  0  0
  143.3864  136.4885  152.6215 C   0  0  0  0  0  0  0  0  0  0  0  0
  144.7040  137.0065  152.6418 C   0  0  0  0  0  0  0  0  0  0  0  0
  145.0493  138.3086  153.0962 N   0  0  0  0  0  0  0  0  0  0  0  0
  146.1272  138.6955  153.7998 C   0  0  0  0  0  0  0  0  0  0  0  0
  147.0428  137.9599  154.1675 O   0  0  0  0  0  0  0  0  0  0  0  0
  146.0989  140.0136  154.0442 N   0  0  0  0  0  0  0  0  0  0  0  0
  147.1202  140.7521  154.7818 C   0  0  2  0  0  0  0  0  0  0  0  0
  148.4803  140.6015  154.0891 C   0  0  0  0  0  0  0  0  0  0  0  0
  149.5985  141.3029  154.8801 C   0  0  0  0  0  0  0  0  0  0  0  0
  149.6824  140.8077  156.2859 N   0  3  1  0  0  0  0  0  0  0  0  0
  150.8146  141.3701  157.0931 C   0  0  0  0  0  0  0  0  0  0  0  0
  150.9625  140.7435  158.5012 C   0  0  0  0  0  0  0  0  0  0  0  0
  152.0706  141.4276  159.3206 C   0  0  0  0  0  0  0  0  0  0  0  0
  151.7817  142.8518  159.4667 N   0  0  0  0  0  0  0  0  0  0  0  0
  152.8061  143.4691  160.2974 C   0  0  0  0  0  0  0  0  0  0  0  0
  151.7770  143.4888  158.1523 C   0  0  0  0  0  0  0  0  0  0  0  0
  150.6555  142.8966  157.2821 C   0  0  0  0  0  0  0  0  0  0  0  0
  148.3685  140.9630  156.9744 C   0  0  0  0  0  0  0  0  0  0  0  0
  147.2382  140.2400  156.2255 C   0  0  0  0  0  0  0  0  0  0  0  0
  145.7389  136.1869  152.1438 C   0  0  0  0  0  0  0  0  0  0  0  0
  145.5446  134.9373  151.6715 N   0  0  0  0  0  0  0  0  0  0  0  0
  143.0710  132.8281  150.9161 H   0  0  0  0  0  0  0  0  0  0  0  0
  144.4690  132.3175  151.8692 H   0  0  0  0  0  0  0  0  0  0  0  0
  144.6893  132.9084  150.2167 H   0  0  0  0  0  0  0  0  0  0  0  0
  142.1803  134.7654  152.1073 H   0  0  0  0  0  0  0  0  0  0  0  0
  142.5364  137.0611  152.9573 H   0  0  0  0  0  0  0  0  0  0  0  0
  144.4218  139.0441  152.8058 H   0  0  0  0  0  0  0  0  0  0  0  0
  145.3107  140.5431  153.7007 H   0  0  0  0  0  0  0  0  0  0  0  0
  146.8553  141.8114  154.7952 H   0  0  0  0  0  0  0  0  0  0  0  0
  148.7256  139.5440  153.9793 H   0  0  0  0  0  0  0  0  0  0  0  0
  148.4326  141.0130  153.0802 H   0  0  0  0  0  0  0  0  0  0  0  0
  150.5264  141.1107  154.3435 H   0  0  0  0  0  0  0  0  0  0  0  0
  149.4421  142.3827  154.8815 H   0  0  0  0  0  0  0  0  0  0  0  0
  151.7426  141.1759  156.5522 H   0  0  0  0  0  0  0  0  0  0  0  0
  150.0183  140.8090  159.0443 H   0  0  0  0  0  0  0  0  0  0  0  0
  151.2163  139.6859  158.4289 H   0  0  0  0  0  0  0  0  0  0  0  0
  152.1287  140.9660  160.3074 H   0  0  0  0  0  0  0  0  0  0  0  0
  153.0410  141.2841  158.8424 H   0  0  0  0  0  0  0  0  0  0  0  0
  152.6034  144.5330  160.4267 H   0  0  0  0  0  0  0  0  0  0  0  0
  153.7977  143.3613  159.8554 H   0  0  0  0  0  0  0  0  0  0  0  0
  152.8223  143.0131  161.2879 H   0  0  0  0  0  0  0  0  0  0  0  0
  151.6163  144.5613  158.2691 H   0  0  0  0  0  0  0  0  0  0  0  0
  152.7449  143.3613  157.6643 H   0  0  0  0  0  0  0  0  0  0  0  0
  150.6660  143.4193  156.3274 H   0  0  0  0  0  0  0  0  0  0  0  0
  149.6889  143.1144  157.7392 H   0  0  0  0  0  0  0  0  0  0  0  0
  148.4066  140.5646  157.9860 H   0  0  0  0  0  0  0  0  0  0  0  0
  148.1312  142.0241  157.0674 H   0  0  0  0  0  0  0  0  0  0  0  0
  146.2975  140.3893  156.7571 H   0  0  0  0  0  0  0  0  0  0  0  0
  147.4272  139.1655  156.2280 H   0  0  0  0  0  0  0  0  0  0  0  0
  146.7588  136.5425  152.1269 H   0  0  0  0  0  0  0  0  0  0  0  0
  149.8594  139.8159  156.2153 H   0  0  0  0  0  0  0  0  0  0  0  0
  1  2  1  0  0  0  0
  1 25  1  0  0  0  0
  1 26  1  0  0  0  0
  1 27  1  0  0  0  0
  2 24  1  0  0  0  0
  2  3  2  0  0  0  0
  3  4  1  0  0  0  0
  3 28  1  0  0  0  0
  4  5  2  0  0  0  0
  4 29  1  0  0  0  0
  5  6  1  0  0  0  0
  5 23  1  0  0  0  0
  6  7  1  0  0  0  0
  6 30  1  0  0  0  0
  7  8  2  0  0  0  0
  7  9  1  0  0  0  0
  9 10  1  0  0  0  0
  9 31  1  0  0  0  0
 10 22  1  0  0  0  0
 10 11  1  0  0  0  0
 10 32  1  0  0  0  0
 11 12  1  0  0  0  0
 11 33  1  0  0  0  0
 11 34  1  0  0  0  0
 12 13  1  0  0  0  0
 12 35  1  0  0  0  0
 12 36  1  0  0  0  0
 13 14  1  0  0  0  0
 13 21  1  0  0  0  0
 13 54  1  0  0  0  0
 14 20  1  0  0  0  0
 14 15  1  0  0  0  0
 14 37  1  0  0  0  0
 15 16  1  0  0  0  0
 15 38  1  0  0  0  0
 15 39  1  0  0  0  0
 16 17  1  0  0  0  0
 16 40  1  0  0  0  0
 16 41  1  0  0  0  0
 17 18  1  0  0  0  0
 17 19  1  0  0  0  0
 18 42  1  0  0  0  0
 18 43  1  0  0  0  0
 18 44  1  0  0  0  0
 19 20  1  0  0  0  0
 19 45  1  0  0  0  0
 19 46  1  0  0  0  0
 20 47  1  0  0  0  0
 20 48  1  0  0  0  0
 21 22  1  0  0  0  0
 21 49  1  0  0  0  0
 21 50  1  0  0  0  0
 22 51  1  0  0  0  0
 22 52  1  0  0  0  0
 23 24  2  0  0  0  0
 23 53  1  0  0  0  0
M  CHG  1  13   1
M  END
> <s_m_source_file>
AV-unprocessed.smi

> <i_m_source_file_index>
2772

> <i_lp_mmshare_version>
43012

> <i_f3d_flags>
0

> <s_epik_input>
W0NIM11jMVtjSF1bY0hdYyhbY0hdbjEpW05IXUMoPU8pW05IXVtDSF0yW0NIMl1bQ0gyXU4oW0NIMl1bQ0gyXTIpW0NIXTNbQ0gyXVtDSDJdTihbQ0gzXSlbQ0gyXVtDSDJdMw==

> <s_epik_cmdline>
J2VwaWtfcHl0aG9uJywgJy1waCcsICc3LjAnLCAnLXRuJywgJzgnLCAnLW1hJywgJzIwMCcsICctbWV0YWxfYmluZGluZycsICctaW1hZScsICc8aW5maWxlLm1hZT4nLCAnLW9tYWUnLCAnPG91dGZpbGUubWFlPic=

> <r_epik_Ionization_Penalty>
1.38854

> <r_epik_Ionization_Penalty_Charging>
0.00081195

> <r_epik_Ionization_Penalty_Neutral>
1.38772

> <r_epik_State_Penalty>
1.56122

> <r_epik_Charging_Adjusted_Penalty>
1.56203

> <i_epik_Tot_Q>
1

> <i_epik_Tot_abs_Q>
1

> <r_epik_Metal_State_Penalty>
1.5614

> <b_epik_Metal_Only>
0

> <s_lp_Force_Field>
OPLS_2005

> <r_lp_Energy>
35.3566

> <b_lp_Chiralities_Consistent>
1

> <s_lp_Variant>
AV-unprocessed.smi:2772-7

> <Gold.Version>
5.8.1

> <Gold.Id.Protein>
6NUR|6NUR_protein|mol2

> <Gold.PLP.Fitness>
44.6216

> <Gold.PLP.PLP>
-36.5519

> <Gold.PLP.part.hbond>
-2.0000

> <Gold.PLP.part.metal>
0.0000

> <Gold.PLP.part.buried>
-3.7761

> <Gold.PLP.part.nonpolar>
-31.3280

> <Gold.PLP.part.repulsive>
0.3343

> <Gold.PLP.ligand.clash>
0.0000

> <Gold.PLP.ligand.torsion>
0.3159

> <Gold.PLP.Chemscore.Hbond>
1.8882

> <Gold.PLP.Chemscore.CHOScore>
1.0000

> <Gold.PLP.Chemscore.Metal>
0.0000

> <Gold.Chemscore.Hbonds>
donor molecule, donor type, donor heavy atom, donor atom, acceptor molecule, acceptor atom, score
      L1  H     6    30       P1 10175  1.00
      L1  H     9    31       P1 10175  0.89
      L1  C    23    53       P1  7948  1.00

> <Gold.PLP.Chemscore.Internal.Correction>
0.0371

> <Gold.Rescore>
     Score         DG    S(hbond)    S(metal)    S(lipo)     H(rot)  DE(clash)    DE(int)     intcor
     17.83     -20.87       1.88        0.00     103.87       1.19       0.40       2.65       ----

> <Gold.Chemscore.Fitness>
17.8280

> <Gold.Chemscore.DG>
-20.8707

> <Gold.Chemscore.ZeroCoef>
-5.4800

> <Gold.Chemscore.Hbond>
1.8823

> <Gold.Chemscore.Metal>
0.0000

> <Gold.Chemscore.Lipo>
103.8710

> <Gold.Chemscore.Internal_Hbond>
0.0000

> <Gold.Chemscore.DEClash>
0.3958

> <Gold.Chemscore.DEInternal>
2.6469

> <Gold.Chemscore.Rot>
1.1910

> <Gold.Chemscore.Internal.Correction>
   9.000000E+99

> <Gold.Chemscore.Hbonds>
donor molecule, donor type, donor heavy atom, donor atom, acceptor molecule, acceptor atom, score
      L1  H     6    30       P1 10175  0.99
      L1  H     9    31       P1 10175  0.80

> <Gold.Chemscore.Hbond.Weighted>
-6.2867

> <Gold.Chemscore.Metal.Weighted>
-0.0000

> <Gold.Chemscore.Lipo.Weighted>
-12.1529

> <Gold.Chemscore.Internal_Hbond.Weighted>
0.0000

> <Gold.Chemscore.DEClash.Weighted>
0.3958

> <Gold.Chemscore.DEInternal.Weighted>
2.6469

> <Gold.Chemscore.Rot.Weighted>
3.0489

> <Gold.Chemscore.Internal.Correction.Weighted>
   9.000000E+99

> <Gold.Protein.RotatedTorsions>
[ 6907 6896 6895 6894 ] final  -10.08 input  -60.11 | X-H torsion
[ 7974 7965 7964 7962 ] final  -34.85 input  175.53 | X-H torsion
[ 8008 7997 7996 7995 ] final  157.59 input   59.86 | X-H torsion
[ 10167 10162 10161 10158 ] final  -82.78 input  -65.29 | X-H torsion
[ 10718 10713 10712 10709 ] final   78.41 input   66.30 | X-H torsion
[ 10763 10752 10751 10750 ] final  152.15 input  -60.55 | X-H torsion
[ 11005 11000 10999 10996 ] final -162.47 input  -57.11 | X-H torsion

> <Gold.Protein.ActiveResidues>
 VAL166  LYS551  ARG553  GLY616  TRP617  ASP618  TYR619  PRO620  LYS621  CYS622 
 ASP623  PHE694  ASN695  SER759  ASP760  ASP761  ALA762  ILE779  LEU786  VAL792 
 PHE793  MET794  SER795  GLU796  ALA797  LYS798  CYS799  TRP800  GLU811  SER814 

> <Gold.Protein.RotatedAtoms>
  151.4076  135.0980  159.9574 H   0  0  0  0  0  0  0  0  0  0  0  0  # atno 6907 bound_to 6896
  152.5030  133.8828  159.7365 H   0  0  0  0  0  0  0  0  0  0  0  0  # atno 6908 bound_to 6896
  150.9316  133.6704  159.2838 H   0  0  0  0  0  0  0  0  0  0  0  0  # atno 6909 bound_to 6896
  146.0795  140.6089  142.8915 H   0  0  0  0  0  0  0  0  0  0  0  0  # atno 7974 bound_to 7965
  156.2355  140.1881  156.7131 H   0  0  0  0  0  0  0  0  0  0  0  0  # atno 8008 bound_to 7997
  154.6098  140.0623  156.9506 H   0  0  0  0  0  0  0  0  0  0  0  0  # atno 8009 bound_to 7997
  155.2035  140.3294  155.4342 H   0  0  0  0  0  0  0  0  0  0  0  0  # atno 8010 bound_to 7997
  140.4288  143.2556  151.8788 H   0  0  0  0  0  0  0  0  0  0  0  0  # atno 10167 bound_to 10162
  157.6744  130.9867  150.1782 H   0  0  0  0  0  0  0  0  0  0  0  0  # atno 10718 bound_to 10713
  154.1154  135.2836  155.3221 H   0  0  0  0  0  0  0  0  0  0  0  0  # atno 10763 bound_to 10752
  154.6460  135.5385  153.7848 H   0  0  0  0  0  0  0  0  0  0  0  0  # atno 10764 bound_to 10752
  153.0331  135.6498  154.1311 H   0  0  0  0  0  0  0  0  0  0  0  0  # atno 10765 bound_to 10752
  140.6089  134.4870  157.5213 H   0  0  0  0  0  0  0  0  0  0  0  0  # atno 11005 bound_to 11000
  144.7284  140.4595  143.6956 LP  0  0  0  0  0  0  0  0  0  0  0  0  # atno 17320 bound_to 7965
  145.6244  139.1528  143.3004 LP  0  0  0  0  0  0  0  0  0  0  0  0  # atno 17321 bound_to 7965
  139.4784  144.5357  151.8602 LP  0  0  0  0  0  0  0  0  0  0  0  0  # atno 17342 bound_to 10162
  140.4450  144.1933  150.5893 LP  0  0  0  0  0  0  0  0  0  0  0  0  # atno 17343 bound_to 10162
  156.2520  130.3701  149.8222 LP  0  0  0  0  0  0  0  0  0  0  0  0  # atno 17370 bound_to 10713
  156.5992  130.8539  151.3427 LP  0  0  0  0  0  0  0  0  0  0  0  0  # atno 17371 bound_to 10713
  139.9201  134.8167  156.1240 LP  0  0  0  0  0  0  0  0  0  0  0  0  # atno 17394 bound_to 11000
  141.0822  133.6749  156.2360 LP  0  0  0  0  0  0  0  0  0  0  0  0  # atno 17395 bound_to 11000

$$$$
