AV-unprocessed.smi:1581|AV-procd|sdf|6360|dock8
  -GOLD-   22720 6583D 1   1.00000     0.00000
 Structure written by MMmdl.
 34 35  0  0  0  0  0  0  0  0  1 V2000
  146.4392  144.7218  159.7419 C   0  0  0  0  0  0  0  0  0  0  0  0
  147.7808  144.5578  160.4471 C   0  0  0  0  0  0  0  0  0  0  0  0
  147.8351  144.0354  161.5599 O   0  0  0  0  0  0  0  0  0  0  0  0
  148.8563  145.0157  159.7888 N   0  0  0  0  0  0  0  0  0  0  0  0
  150.2275  144.9639  160.2877 C   0  0  0  0  0  0  0  0  0  0  0  0
  151.1184  143.9229  159.6203 C   0  0  0  0  0  0  0  0  0  0  0  0
  152.3936  143.6569  160.1561 C   0  0  0  0  0  0  0  0  0  0  0  0
  153.1946  142.6815  159.5345 C   0  0  0  0  0  0  0  0  0  0  0  0
  152.8033  141.9860  158.4468 N   0  0  0  0  0  0  0  0  0  0  0  0
  151.5795  142.2330  157.9181 C   0  0  0  0  0  0  0  0  0  0  0  0
  151.1839  141.5076  156.7741 N   0  0  0  0  0  0  0  0  0  0  0  0
  150.5587  142.3014  155.7192 C   0  0  0  0  0  0  0  0  0  0  0  0
  149.9138  141.3826  154.6667 C   0  0  0  0  0  0  0  0  0  0  0  0
  150.8791  140.4604  154.1716 O   0  0  0  0  0  0  0  0  0  0  0  0
  151.3904  139.6231  155.2033 C   0  0  0  0  0  0  0  0  0  0  0  0
  152.0946  140.4841  156.2652 C   0  0  0  0  0  0  0  0  0  0  0  0
  150.7042  143.1892  158.4855 C   0  0  0  0  0  0  0  0  0  0  0  0
  146.1966  145.7787  159.6290 H   0  0  0  0  0  0  0  0  0  0  0  0
  145.6403  144.2467  160.3124 H   0  0  0  0  0  0  0  0  0  0  0  0
  146.4692  144.2655  158.7523 H   0  0  0  0  0  0  0  0  0  0  0  0
  148.7170  145.4335  158.8803 H   0  0  0  0  0  0  0  0  0  0  0  0
  150.6873  145.9491  160.1929 H   0  0  0  0  0  0  0  0  0  0  0  0
  150.1896  144.7446  161.3547 H   0  0  0  0  0  0  0  0  0  0  0  0
  152.7527  144.1864  161.0264 H   0  0  0  0  0  0  0  0  0  0  0  0
  154.1767  142.4531  159.9213 H   0  0  0  0  0  0  0  0  0  0  0  0
  149.7998  142.9737  156.1170 H   0  0  0  0  0  0  0  0  0  0  0  0
  151.3210  142.9258  155.2514 H   0  0  0  0  0  0  0  0  0  0  0  0
  149.0648  140.8439  155.0901 H   0  0  0  0  0  0  0  0  0  0  0  0
  149.5316  141.9755  153.8356 H   0  0  0  0  0  0  0  0  0  0  0  0
  150.5821  139.0401  155.6479 H   0  0  0  0  0  0  0  0  0  0  0  0
  152.0938  138.9127  154.7691 H   0  0  0  0  0  0  0  0  0  0  0  0
  152.9741  140.9633  155.8328 H   0  0  0  0  0  0  0  0  0  0  0  0
  152.4374  139.8460  157.0808 H   0  0  0  0  0  0  0  0  0  0  0  0
  149.7240  143.3478  158.0620 H   0  0  0  0  0  0  0  0  0  0  0  0
  1  2  1  0  0  0  0
  1 18  1  0  0  0  0
  1 19  1  0  0  0  0
  1 20  1  0  0  0  0
  2  3  2  0  0  0  0
  2  4  1  0  0  0  0
  4  5  1  0  0  0  0
  4 21  1  0  0  0  0
  5  6  1  0  0  0  0
  5 22  1  0  0  0  0
  5 23  1  0  0  0  0
  6 17  1  0  0  0  0
  6  7  2  0  0  0  0
  7  8  1  0  0  0  0
  7 24  1  0  0  0  0
  8  9  2  0  0  0  0
  8 25  1  0  0  0  0
  9 10  1  0  0  0  0
 10 11  1  0  0  0  0
 10 17  2  0  0  0  0
 11 16  1  0  0  0  0
 11 12  1  0  0  0  0
 12 13  1  0  0  0  0
 12 26  1  0  0  0  0
 12 27  1  0  0  0  0
 13 14  1  0  0  0  0
 13 28  1  0  0  0  0
 13 29  1  0  0  0  0
 14 15  1  0  0  0  0
 15 16  1  0  0  0  0
 15 30  1  0  0  0  0
 15 31  1  0  0  0  0
 16 32  1  0  0  0  0
 16 33  1  0  0  0  0
 17 34  1  0  0  0  0
M  END
> <s_m_source_file>
AV-unprocessed.smi

> <i_m_source_file_index>
1581

> <i_lp_mmshare_version>
43012

> <i_f3d_flags>
0

> <s_epik_input>
W0NIM11DKD1PKVtOSF1bQ0gyXWMxW2NIXVtjSF1uYyhbY0hdMSlOMltDSDJdW0NIMl1PW0NIMl1bQ0gyXTI=

> <s_epik_cmdline>
J2VwaWtfcHl0aG9uJywgJy1waCcsICc3LjAnLCAnLXRuJywgJzgnLCAnLW1hJywgJzIwMCcsICctbWV0YWxfYmluZGluZycsICctaW1hZScsICc8aW5maWxlLm1hZT4nLCAnLW9tYWUnLCAnPG91dGZpbGUubWFlPic=

> <r_lp_tautomer_probability>
1

> <r_epik_Ionization_Penalty>
0.0056686

> <r_epik_Ionization_Penalty_Charging>
0

> <r_epik_Ionization_Penalty_Neutral>
0.0056686

> <r_epik_State_Penalty>
0.00415614

> <r_epik_Charging_Adjusted_Penalty>
0.00415614

> <i_epik_Tot_Q>
0

> <i_epik_Tot_abs_Q>
0

> <r_epik_Metal_State_Penalty>
-0

> <b_epik_Metal_Only>
0

> <s_lp_Force_Field>
OPLS_2005

> <r_lp_Energy>
12.8791

> <b_lp_Chiralities_Consistent>
1

> <s_lp_Variant>
AV-unprocessed.smi:1581-1

> <Gold.Version>
5.8.1

> <Gold.Id.Protein>
6NUR|6NUR_protein|mol2

> <Gold.PLP.Fitness>
41.5164

> <Gold.PLP.PLP>
-32.9080

> <Gold.PLP.part.hbond>
-3.0000

> <Gold.PLP.part.metal>
0.0000

> <Gold.PLP.part.buried>
-3.9928

> <Gold.PLP.part.nonpolar>
-25.5094

> <Gold.PLP.part.repulsive>
0.4884

> <Gold.PLP.ligand.clash>
0.0000

> <Gold.PLP.ligand.torsion>
0.3521

> <Gold.PLP.Chemscore.Hbond>
3.0000

> <Gold.PLP.Chemscore.CHOScore>
0.0000

> <Gold.PLP.Chemscore.Metal>
0.0000

> <Gold.Chemscore.Hbonds>
donor molecule, donor type, donor heavy atom, donor atom, acceptor molecule, acceptor atom, score
      L1  H     4    21       P1  8029  1.00
      P1  H  6933  6944       L1     3  1.00

> <Gold.PLP.Chemscore.Internal.Correction>
0.3126

> <Gold.Rescore>
     Score         DG    S(hbond)    S(metal)    S(lipo)     H(rot)  DE(clash)    DE(int)     intcor
     19.09     -20.00       2.78        0.00      78.41       1.54       0.44       0.46       ----

> <Gold.Chemscore.Fitness>
19.0927

> <Gold.Chemscore.DG>
-19.9955

> <Gold.Chemscore.ZeroCoef>
-5.4800

> <Gold.Chemscore.Hbond>
2.7834

> <Gold.Chemscore.Metal>
0.0000

> <Gold.Chemscore.Lipo>
78.4068

> <Gold.Chemscore.Internal_Hbond>
0.0000

> <Gold.Chemscore.DEClash>
0.4435

> <Gold.Chemscore.DEInternal>
0.4593

> <Gold.Chemscore.Rot>
1.5448

> <Gold.Chemscore.Internal.Correction>
   9.000000E+99

> <Gold.Chemscore.Hbonds>
donor molecule, donor type, donor heavy atom, donor atom, acceptor molecule, acceptor atom, score
      L1  H     4    21       P1  8029  1.00
      P1  H  6933  6944       L1     3  0.81
      P1  H  7989  7998       L1    14  0.02

> <Gold.Chemscore.Hbond.Weighted>
-9.2964

> <Gold.Chemscore.Metal.Weighted>
-0.0000

> <Gold.Chemscore.Lipo.Weighted>
-9.1736

> <Gold.Chemscore.Internal_Hbond.Weighted>
0.0000

> <Gold.Chemscore.DEClash.Weighted>
0.4435

> <Gold.Chemscore.DEInternal.Weighted>
0.4593

> <Gold.Chemscore.Rot.Weighted>
3.9546

> <Gold.Chemscore.Internal.Correction.Weighted>
   9.000000E+99

> <Gold.Protein.RotatedTorsions>
[ 6907 6896 6895 6894 ] final   17.14 input  -60.11 | X-H torsion
[ 7974 7965 7964 7962 ] final  -63.46 input  175.53 | X-H torsion
[ 8008 7997 7996 7995 ] final -137.59 input   59.86 | X-H torsion
[ 10167 10162 10161 10158 ] final -138.72 input  -65.29 | X-H torsion
[ 10718 10713 10712 10709 ] final  150.34 input   66.30 | X-H torsion
[ 10763 10752 10751 10750 ] final -152.17 input  -60.55 | X-H torsion
[ 11005 11000 10999 10996 ] final  105.34 input  -57.11 | X-H torsion

> <Gold.Protein.ActiveResidues>
 VAL166  LYS551  ARG553  GLY616  TRP617  ASP618  TYR619  PRO620  LYS621  CYS622 
 ASP623  PHE694  ASN695  SER759  ASP760  ASP761  ALA762  ILE779  LEU786  VAL792 
 PHE793  MET794  SER795  GLU796  ALA797  LYS798  CYS799  TRP800  GLU811  SER814 

> <Gold.Protein.RotatedAtoms>
  151.8450  135.0577  160.0452 H   0  0  0  0  0  0  0  0  0  0  0  0  # atno 6907 bound_to 6896
  152.2780  133.5439  159.5488 H   0  0  0  0  0  0  0  0  0  0  0  0  # atno 6908 bound_to 6896
  150.7178  134.0520  159.3844 H   0  0  0  0  0  0  0  0  0  0  0  0  # atno 6909 bound_to 6896
  145.7787  140.8773  143.0341 H   0  0  0  0  0  0  0  0  0  0  0  0  # atno 7974 bound_to 7965
  155.4144  140.0514  157.3030 H   0  0  0  0  0  0  0  0  0  0  0  0  # atno 8008 bound_to 7997
  154.4931  140.2128  155.9464 H   0  0  0  0  0  0  0  0  0  0  0  0  # atno 8009 bound_to 7997
  156.1369  140.3161  155.8440 H   0  0  0  0  0  0  0  0  0  0  0  0  # atno 8010 bound_to 7997
  139.8450  143.7272  152.2661 H   0  0  0  0  0  0  0  0  0  0  0  0  # atno 10167 bound_to 10162
  157.2847  131.0842  151.1506 H   0  0  0  0  0  0  0  0  0  0  0  0  # atno 10718 bound_to 10713
  154.8011  135.3242  154.7546 H   0  0  0  0  0  0  0  0  0  0  0  0  # atno 10763 bound_to 10752
  153.8214  135.6887  153.4831 H   0  0  0  0  0  0  0  0  0  0  0  0  # atno 10764 bound_to 10752
  153.1729  135.4616  154.9870 H   0  0  0  0  0  0  0  0  0  0  0  0  # atno 10765 bound_to 10752
  139.8801  134.9332  156.5499 H   0  0  0  0  0  0  0  0  0  0  0  0  # atno 11005 bound_to 11000
  144.6800  139.9958  143.7484 LP  0  0  0  0  0  0  0  0  0  0  0  0  # atno 17320 bound_to 7965
  146.0096  139.3158  143.0878 LP  0  0  0  0  0  0  0  0  0  0  0  0  # atno 17321 bound_to 7965
  139.7521  144.7531  151.0491 LP  0  0  0  0  0  0  0  0  0  0  0  0  # atno 17342 bound_to 10162
  140.7794  143.4848  150.9970 LP  0  0  0  0  0  0  0  0  0  0  0  0  # atno 17343 bound_to 10162
  157.2926  130.6803  149.6122 LP  0  0  0  0  0  0  0  0  0  0  0  0  # atno 17370 bound_to 10713
  155.9665  130.4416  150.5348 LP  0  0  0  0  0  0  0  0  0  0  0  0  # atno 17371 bound_to 10713
  140.8247  133.8326  155.8928 LP  0  0  0  0  0  0  0  0  0  0  0  0  # atno 17394 bound_to 11000
  140.9385  134.1931  157.4814 LP  0  0  0  0  0  0  0  0  0  0  0  0  # atno 17395 bound_to 11000

$$$$
