AV-unprocessed.smi:2784|AV-procd|sdf|10728|dock7
  -GOLD-   2272015163D 1   1.00000     0.00000
 Structure written by MMmdl.
 31 32  0  0  0  0  0  0  0  0  1 V2000
  148.8290  144.9918  160.3794 C   0  0  0  0  0  0  0  0  0  0  0  0
  149.4901  144.3930  159.2764 O   0  0  0  0  0  0  0  0  0  0  0  0
  150.7158  143.7523  159.6208 C   0  0  2  0  0  0  0  0  0  0  0  0
  151.6177  144.7585  160.3436 C   0  0  0  0  0  0  0  0  0  0  0  0
  152.2500  145.5691  159.2154 C   0  0  0  0  0  0  0  0  0  0  0  0
  152.4791  144.5582  158.0882 C   0  0  0  0  0  0  0  0  0  0  0  0
  151.5036  143.3915  158.3405 C   0  0  2  0  0  0  0  0  0  0  0  0
  150.6427  143.1578  157.1828 N   0  0  0  0  0  0  0  0  0  0  0  0
  150.5243  141.9857  156.5426 C   0  0  0  0  0  0  0  0  0  0  0  0
  151.1460  140.9717  156.8619 O   0  0  0  0  0  0  0  0  0  0  0  0
  149.6485  142.0701  155.5276 N   0  0  0  0  0  0  0  0  0  0  0  0
  149.2533  141.0377  154.6402 C   0  0  0  0  0  0  0  0  0  0  0  0
  148.1240  140.9870  153.9319 N   0  0  0  0  0  0  0  0  0  0  0  0
  148.2060  139.7941  153.2280 C   0  0  0  0  0  0  0  0  0  0  0  0
  149.3912  139.1861  153.5538 C   0  0  0  0  0  0  0  0  0  0  0  0
  150.0690  139.9668  154.4514 O   0  0  0  0  0  0  0  0  0  0  0  0
  147.9158  145.4776  160.0362 H   0  0  0  0  0  0  0  0  0  0  0  0
  149.4490  145.7466  160.8632 H   0  0  0  0  0  0  0  0  0  0  0  0
  148.5494  144.2420  161.1206 H   0  0  0  0  0  0  0  0  0  0  0  0
  150.5301  142.8583  160.2191 H   0  0  0  0  0  0  0  0  0  0  0  0
  151.0889  145.3837  161.0629 H   0  0  0  0  0  0  0  0  0  0  0  0
  152.3977  144.2226  160.8862 H   0  0  0  0  0  0  0  0  0  0  0  0
  151.5498  146.3364  158.8827 H   0  0  0  0  0  0  0  0  0  0  0  0
  153.1686  146.0695  159.5227 H   0  0  0  0  0  0  0  0  0  0  0  0
  152.3413  145.0257  157.1121 H   0  0  0  0  0  0  0  0  0  0  0  0
  153.5050  144.1893  158.1228 H   0  0  0  0  0  0  0  0  0  0  0  0
  152.0969  142.4948  158.5301 H   0  0  0  0  0  0  0  0  0  0  0  0
  150.0897  143.9384  156.8608 H   0  0  0  0  0  0  0  0  0  0  0  0
  149.2140  142.9680  155.3750 H   0  0  0  0  0  0  0  0  0  0  0  0
  147.4226  139.4740  152.5571 H   0  0  0  0  0  0  0  0  0  0  0  0
  149.8669  138.2632  153.2565 H   0  0  0  0  0  0  0  0  0  0  0  0
  1  2  1  0  0  0  0
  1 17  1  0  0  0  0
  1 18  1  0  0  0  0
  1 19  1  0  0  0  0
  2  3  1  0  0  0  0
  3  7  1  0  0  0  0
  3  4  1  0  0  0  0
  3 20  1  0  0  0  0
  4  5  1  0  0  0  0
  4 21  1  0  0  0  0
  4 22  1  0  0  0  0
  5  6  1  0  0  0  0
  5 23  1  0  0  0  0
  5 24  1  0  0  0  0
  6  7  1  0  0  0  0
  6 25  1  0  0  0  0
  6 26  1  0  0  0  0
  7  8  1  0  0  0  0
  7 27  1  0  0  0  0
  8  9  1  0  0  0  0
  8 28  1  0  0  0  0
  9 10  2  0  0  0  0
  9 11  1  0  0  0  0
 11 12  1  0  0  0  0
 11 29  1  0  0  0  0
 12 16  1  0  0  0  0
 12 13  2  0  0  0  0
 13 14  1  0  0  0  0
 14 15  2  0  0  0  0
 14 30  1  0  0  0  0
 15 16  1  0  0  0  0
 15 31  1  0  0  0  0
M  END
> <s_m_source_file>
AV-unprocessed.smi

> <i_m_source_file_index>
2784

> <i_lp_mmshare_version>
43012

> <i_f3d_flags>
0

> <s_epik_input>
W0NIM11PW0NAQEhdMVtDSDJdW0NIMl1bQ0gyXVtDQEhdMVtOSF1DKD1PKVtOSF1jMm5bY0hdW2NIXW8y

> <s_epik_cmdline>
J2VwaWtfcHl0aG9uJywgJy1waCcsICc3LjAnLCAnLXRuJywgJzgnLCAnLW1hJywgJzIwMCcsICctbWV0YWxfYmluZGluZycsICctaW1hZScsICc8aW5maWxlLm1hZT4nLCAnLW9tYWUnLCAnPG91dGZpbGUubWFlPic=

> <r_lp_tautomer_probability>
0.785861

> <r_epik_Ionization_Penalty>
4.58897e-05

> <r_epik_Ionization_Penalty_Charging>
0

> <r_epik_Ionization_Penalty_Neutral>
4.58897e-05

> <r_epik_State_Penalty>
0.0380021

> <r_epik_Charging_Adjusted_Penalty>
0.0380021

> <i_epik_Tot_Q>
0

> <i_epik_Tot_abs_Q>
0

> <r_epik_Metal_State_Penalty>
0.0585611

> <b_epik_Metal_Only>
0

> <s_lp_Force_Field>
OPLS_2005

> <r_lp_Energy>
20.0171

> <b_lp_Chiralities_Consistent>
1

> <s_lp_Variant>
AV-unprocessed.smi:2784-3

> <Gold.Version>
5.8.1

> <Gold.Id.Protein>
6NUR|6NUR_protein|mol2

> <Gold.PLP.Fitness>
40.1207

> <Gold.PLP.PLP>
-28.9134

> <Gold.PLP.part.hbond>
-3.0000

> <Gold.PLP.part.metal>
0.0000

> <Gold.PLP.part.buried>
1.5645

> <Gold.PLP.part.nonpolar>
-28.6369

> <Gold.PLP.part.repulsive>
1.2658

> <Gold.PLP.ligand.clash>
0.0000

> <Gold.PLP.ligand.torsion>
0.1711

> <Gold.PLP.Chemscore.Hbond>
3.0000

> <Gold.PLP.Chemscore.CHOScore>
0.8461

> <Gold.PLP.Chemscore.Metal>
0.0000

> <Gold.Chemscore.Hbonds>
donor molecule, donor type, donor heavy atom, donor atom, acceptor molecule, acceptor atom, score
      L1  H     8    28       P1  8028  1.00
      L1  H    11    29       P1  8028  1.00
      P1  H  7989  7998       L1    16  0.99
      L1  C    15    31       P1  7948  0.86

> <Gold.PLP.Chemscore.Internal.Correction>
0.0111

> <Gold.Rescore>
     Score         DG    S(hbond)    S(metal)    S(lipo)     H(rot)  DE(clash)    DE(int)     intcor
     16.54     -20.23       2.51        0.00      83.37       1.32       2.14       1.55       ----

> <Gold.Chemscore.Fitness>
16.5446

> <Gold.Chemscore.DG>
-20.2301

> <Gold.Chemscore.ZeroCoef>
-5.4800

> <Gold.Chemscore.Hbond>
2.5102

> <Gold.Chemscore.Metal>
0.0000

> <Gold.Chemscore.Lipo>
83.3690

> <Gold.Chemscore.Internal_Hbond>
0.0000

> <Gold.Chemscore.DEClash>
2.1354

> <Gold.Chemscore.DEInternal>
1.5502

> <Gold.Chemscore.Rot>
1.3235

> <Gold.Chemscore.Internal.Correction>
   9.000000E+99

> <Gold.Chemscore.Hbonds>
donor molecule, donor type, donor heavy atom, donor atom, acceptor molecule, acceptor atom, score
      L1  H     8    28       P1  8028  0.95
      L1  H    11    29       P1  8028  0.99
      P1  H  7989  7998       L1    16  0.15

> <Gold.Chemscore.Hbond.Weighted>
-8.3841

> <Gold.Chemscore.Metal.Weighted>
-0.0000

> <Gold.Chemscore.Lipo.Weighted>
-9.7542

> <Gold.Chemscore.Internal_Hbond.Weighted>
0.0000

> <Gold.Chemscore.DEClash.Weighted>
2.1354

> <Gold.Chemscore.DEInternal.Weighted>
1.5502

> <Gold.Chemscore.Rot.Weighted>
3.3882

> <Gold.Chemscore.Internal.Correction.Weighted>
   9.000000E+99

> <Gold.Protein.RotatedTorsions>
[ 6907 6896 6895 6894 ] final  -86.37 input  -60.11 | X-H torsion
[ 7974 7965 7964 7962 ] final -124.17 input  175.53 | X-H torsion
[ 8008 7997 7996 7995 ] final   50.71 input   59.86 | X-H torsion
[ 10167 10162 10161 10158 ] final  116.52 input  -65.29 | X-H torsion
[ 10718 10713 10712 10709 ] final   42.76 input   66.30 | X-H torsion
[ 10763 10752 10751 10750 ] final   10.61 input  -60.55 | X-H torsion
[ 11005 11000 10999 10996 ] final   47.69 input  -57.11 | X-H torsion

> <Gold.Protein.ActiveResidues>
 VAL166  LYS551  ARG553  GLY616  TRP617  ASP618  TYR619  PRO620  LYS621  CYS622 
 ASP623  PHE694  ASN695  SER759  ASP760  ASP761  ALA762  ILE779  LEU786  VAL792 
 PHE793  MET794  SER795  GLU796  ALA797  LYS798  CYS799  TRP800  GLU811  SER814 

> <Gold.Protein.RotatedAtoms>
  150.6867  134.3061  159.4726 H   0  0  0  0  0  0  0  0  0  0  0  0  # atno 6907 bound_to 6896
  152.0952  134.9377  160.0580 H   0  0  0  0  0  0  0  0  0  0  0  0  # atno 6908 bound_to 6896
  152.0678  133.4057  159.4483 H   0  0  0  0  0  0  0  0  0  0  0  0  # atno 6909 bound_to 6896
  145.0109  140.7905  143.4439 H   0  0  0  0  0  0  0  0  0  0  0  0  # atno 7974 bound_to 7965
  155.4232  140.3447  155.4273 H   0  0  0  0  0  0  0  0  0  0  0  0  # atno 8008 bound_to 7997
  156.1380  140.1534  156.8995 H   0  0  0  0  0  0  0  0  0  0  0  0  # atno 8009 bound_to 7997
  154.4948  140.0831  156.7653 H   0  0  0  0  0  0  0  0  0  0  0  0  # atno 8010 bound_to 7997
  139.6241  144.7106  151.2571 H   0  0  0  0  0  0  0  0  0  0  0  0  # atno 10167 bound_to 10162
  157.4084  130.7900  149.7409 H   0  0  0  0  0  0  0  0  0  0  0  0  # atno 10718 bound_to 10713
  153.2014  135.6856  153.8227 H   0  0  0  0  0  0  0  0  0  0  0  0  # atno 10763 bound_to 10752
  153.7492  135.3226  155.3319 H   0  0  0  0  0  0  0  0  0  0  0  0  # atno 10764 bound_to 10752
  154.8173  135.4677  154.0781 H   0  0  0  0  0  0  0  0  0  0  0  0  # atno 10765 bound_to 10752
  140.1256  134.4772  155.8562 H   0  0  0  0  0  0  0  0  0  0  0  0  # atno 11005 bound_to 11000
  145.2024  139.2245  143.5186 LP  0  0  0  0  0  0  0  0  0  0  0  0  # atno 17320 bound_to 7965
  146.3470  140.1844  142.8589 LP  0  0  0  0  0  0  0  0  0  0  0  0  # atno 17321 bound_to 7965
  140.7400  143.6600  150.8172 LP  0  0  0  0  0  0  0  0  0  0  0  0  # atno 17342 bound_to 10162
  140.0215  143.5537  152.2798 LP  0  0  0  0  0  0  0  0  0  0  0  0  # atno 17343 bound_to 10162
  155.9843  130.3992  150.3317 LP  0  0  0  0  0  0  0  0  0  0  0  0  # atno 17370 bound_to 10713
  157.1452  131.0307  151.2910 LP  0  0  0  0  0  0  0  0  0  0  0  0  # atno 17371 bound_to 10713
  141.2160  133.6777  156.6973 LP  0  0  0  0  0  0  0  0  0  0  0  0  # atno 17394 bound_to 11000
  140.2908  134.8242  157.4015 LP  0  0  0  0  0  0  0  0  0  0  0  0  # atno 17395 bound_to 11000

$$$$
