AV-unprocessed.smi:2855|AV-procd|sdf|10982|dock5
  -GOLD-   2272015433D 1   1.00000     0.00000
 Structure written by MMmdl.
 47 48  0  0  0  0  0  0  0  0  1 V2000
  147.1834  141.9847  156.1845 C   0  0  0  0  0  0  0  0  0  0  0  0
  147.6729  141.9520  154.7258 C   0  0  1  0  0  0  0  0  0  0  0  0
  149.2076  141.9120  154.6131 C   0  0  0  0  0  0  0  0  0  0  0  0
  149.7892  140.5413  154.9961 C   0  0  0  0  0  0  0  0  0  0  0  0
  149.1727  139.3940  154.1606 C   0  0  1  0  0  0  0  0  0  0  0  0
  149.8121  138.0039  154.4594 C   0  0  0  0  0  0  0  0  0  0  0  0
  149.4217  137.4126  155.8266 C   0  0  0  0  0  0  0  0  0  0  0  0
  151.3414  138.0114  154.2890 C   0  0  0  0  0  0  0  0  0  0  0  0
  147.6230  139.4185  154.2840 C   0  0  2  0  0  0  0  0  0  0  0  0
  147.0132  138.4174  153.4101 N   0  0  0  0  0  0  0  0  0  0  0  0
  146.1069  137.4975  153.7756 C   0  0  0  0  0  0  0  0  0  0  0  0
  145.6424  137.4144  154.9133 O   0  0  0  0  0  0  0  0  0  0  0  0
  145.6474  136.5294  152.6774 C   0  0  0  0  0  0  0  0  0  0  0  0
  144.2781  136.0424  152.8952 N   0  0  0  0  0  0  0  0  0  0  0  0
  143.2149  136.9330  152.9416 C   0  0  0  0  0  0  0  0  0  0  0  0
  141.9329  136.5524  153.1547 C   0  0  0  0  0  0  0  0  0  0  0  0
  141.6027  135.1448  153.3508 C   0  0  0  0  0  0  0  0  0  0  0  0
  140.4734  134.7022  153.5489 O   0  0  0  0  0  0  0  0  0  0  0  0
  142.6996  134.2806  153.2987 N   0  0  0  0  0  0  0  0  0  0  0  0
  144.0233  134.6660  153.0819 C   0  0  0  0  0  0  0  0  0  0  0  0
  144.9179  133.8212  153.0600 O   0  0  0  0  0  0  0  0  0  0  0  0
  147.0478  140.8018  153.9144 C   0  0  0  0  0  0  0  0  0  0  0  0
  142.5200  133.2960  153.4317 H   0  0  0  0  0  0  0  0  0  0  0  0
  147.4641  141.0867  156.7342 H   0  0  0  0  0  0  0  0  0  0  0  0
  146.0975  142.0714  156.2291 H   0  0  0  0  0  0  0  0  0  0  0  0
  147.6010  142.8397  156.7167 H   0  0  0  0  0  0  0  0  0  0  0  0
  147.3399  142.8865  154.2722 H   0  0  0  0  0  0  0  0  0  0  0  0
  149.4959  142.1431  153.5870 H   0  0  0  0  0  0  0  0  0  0  0  0
  149.6513  142.6919  155.2329 H   0  0  0  0  0  0  0  0  0  0  0  0
  150.8690  140.5770  154.8571 H   0  0  0  0  0  0  0  0  0  0  0  0
  149.6258  140.3651  156.0589 H   0  0  0  0  0  0  0  0  0  0  0  0
  149.3997  139.6147  153.1159 H   0  0  0  0  0  0  0  0  0  0  0  0
  149.4486  137.3052  153.7058 H   0  0  0  0  0  0  0  0  0  0  0  0
  149.7985  138.0166  156.6517 H   0  0  0  0  0  0  0  0  0  0  0  0
  149.8334  136.4099  155.9447 H   0  0  0  0  0  0  0  0  0  0  0  0
  148.3416  137.3270  155.9388 H   0  0  0  0  0  0  0  0  0  0  0  0
  151.8347  138.6066  155.0570 H   0  0  0  0  0  0  0  0  0  0  0  0
  151.6295  138.4116  153.3166 H   0  0  0  0  0  0  0  0  0  0  0  0
  151.7440  137.0002  154.3561 H   0  0  0  0  0  0  0  0  0  0  0  0
  147.3551  139.2183  155.3215 H   0  0  0  0  0  0  0  0  0  0  0  0
  147.3259  138.4096  152.4501 H   0  0  0  0  0  0  0  0  0  0  0  0
  145.7222  137.0456  151.7194 H   0  0  0  0  0  0  0  0  0  0  0  0
  146.3358  135.6847  152.6050 H   0  0  0  0  0  0  0  0  0  0  0  0
  143.4124  137.9869  152.8066 H   0  0  0  0  0  0  0  0  0  0  0  0
  141.1476  137.2941  153.1813 H   0  0  0  0  0  0  0  0  0  0  0  0
  145.9646  140.8042  154.0441 H   0  0  0  0  0  0  0  0  0  0  0  0
  147.2227  140.9886  152.8535 H   0  0  0  0  0  0  0  0  0  0  0  0
  1  2  1  0  0  0  0
  1 24  1  0  0  0  0
  1 25  1  0  0  0  0
  1 26  1  0  0  0  0
  2 22  1  0  0  0  0
  2  3  1  0  0  0  0
  2 27  1  0  0  0  0
  3  4  1  0  0  0  0
  3 28  1  0  0  0  0
  3 29  1  0  0  0  0
  4  5  1  0  0  0  0
  4 30  1  0  0  0  0
  4 31  1  0  0  0  0
  5  6  1  0  0  0  0
  5  9  1  0  0  0  0
  5 32  1  0  0  0  0
  6  7  1  0  0  0  0
  6  8  1  0  0  0  0
  6 33  1  0  0  0  0
  7 34  1  0  0  0  0
  7 35  1  0  0  0  0
  7 36  1  0  0  0  0
  8 37  1  0  0  0  0
  8 38  1  0  0  0  0
  8 39  1  0  0  0  0
  9 10  1  0  0  0  0
  9 22  1  0  0  0  0
  9 40  1  0  0  0  0
 10 11  1  0  0  0  0
 10 41  1  0  0  0  0
 11 12  2  0  0  0  0
 11 13  1  0  0  0  0
 13 14  1  0  0  0  0
 13 42  1  0  0  0  0
 13 43  1  0  0  0  0
 14 20  1  0  0  0  0
 14 15  1  0  0  0  0
 15 16  2  0  0  0  0
 15 44  1  0  0  0  0
 16 17  1  0  0  0  0
 16 45  1  0  0  0  0
 17 18  2  0  0  0  0
 17 19  1  0  0  0  0
 19 23  1  0  0  0  0
 19 20  1  0  0  0  0
 20 21  2  0  0  0  0
 22 46  1  0  0  0  0
 22 47  1  0  0  0  0
M  END
> <s_m_source_file>
AV-unprocessed.smi

> <i_m_source_file_index>
2855

> <i_lp_mmshare_version>
43012

> <i_f3d_flags>
0

> <s_epik_input>
W0NIM11bQ0BASF0xW0NIMl1bQ0gyXVtDQEBIXShbQ0hdKFtDSDNdKVtDSDNdKVtDQEhdKFtDSDJdMSlbTkhdQyg9TylbQ0gyXW4yW2NIXVtjSF1jKD1PKVtuSF1jMj1P

> <s_epik_cmdline>
J2VwaWtfcHl0aG9uJywgJy1waCcsICc3LjAnLCAnLXRuJywgJzgnLCAnLW1hJywgJzIwMCcsICctbWV0YWxfYmluZGluZycsICctaW1hZScsICc8aW5maWxlLm1hZT4nLCAnLW9tYWUnLCAnPG91dGZpbGUubWFlPic=

> <r_lp_tautomer_probability>
0.999537

> <r_epik_Ionization_Penalty>
0.00306256

> <r_epik_Ionization_Penalty_Charging>
0.00306254

> <r_epik_Ionization_Penalty_Neutral>
2.0223e-08

> <r_epik_State_Penalty>
0.0021533

> <r_epik_Charging_Adjusted_Penalty>
0.00521583

> <i_epik_Tot_Q>
0

> <i_epik_Tot_abs_Q>
0

> <r_epik_Metal_State_Penalty>
0.362116

> <b_epik_Metal_Only>
0

> <s_lp_Force_Field>
OPLS_2005

> <r_lp_Energy>
15.8562

> <b_lp_Chiralities_Consistent>
1

> <s_lp_Variant>
AV-unprocessed.smi:2855-6

> <Gold.Version>
5.8.1

> <Gold.Id.Protein>
6NUR|6NUR_protein|mol2

> <Gold.PLP.Fitness>
38.3915

> <Gold.PLP.PLP>
-30.3938

> <Gold.PLP.part.hbond>
-3.0551

> <Gold.PLP.part.metal>
0.0000

> <Gold.PLP.part.buried>
0.0372

> <Gold.PLP.part.nonpolar>
-27.6264

> <Gold.PLP.part.repulsive>
0.4020

> <Gold.PLP.ligand.clash>
0.0000

> <Gold.PLP.ligand.torsion>
0.5226

> <Gold.PLP.Chemscore.Hbond>
1.9934

> <Gold.PLP.Chemscore.CHOScore>
1.0000

> <Gold.PLP.Chemscore.Metal>
0.0000

> <Gold.Chemscore.Hbonds>
donor molecule, donor type, donor heavy atom, donor atom, acceptor molecule, acceptor atom, score
      L1  H    19    23       P1 10957  0.89
      P1  H 10995 11001       L1    18  0.08
      P1  H 11000 11005       L1    18  0.50
      L1  C    15    44       P1 10175  1.00

> <Gold.PLP.Chemscore.Internal.Correction>
0.0628

> <Gold.Rescore>
     Score         DG    S(hbond)    S(metal)    S(lipo)     H(rot)  DE(clash)    DE(int)     intcor
     12.47     -14.58       1.75        0.00      68.39       1.85       1.60       0.51       ----

> <Gold.Chemscore.Fitness>
12.4667

> <Gold.Chemscore.DG>
-14.5795

> <Gold.Chemscore.ZeroCoef>
-5.4800

> <Gold.Chemscore.Hbond>
1.7498

> <Gold.Chemscore.Metal>
0.0000

> <Gold.Chemscore.Lipo>
68.3867

> <Gold.Chemscore.Internal_Hbond>
0.0000

> <Gold.Chemscore.DEClash>
1.6008

> <Gold.Chemscore.DEInternal>
0.5119

> <Gold.Chemscore.Rot>
1.8539

> <Gold.Chemscore.Internal.Correction>
   9.000000E+99

> <Gold.Chemscore.Hbonds>
donor molecule, donor type, donor heavy atom, donor atom, acceptor molecule, acceptor atom, score
      L1  H    19    23       P1 10957  0.77
      P1  H 10995 11001       L1    18  0.08
      P1  H 11000 11005       L1    18  0.25

> <Gold.Chemscore.Hbond.Weighted>
-5.8443

> <Gold.Chemscore.Metal.Weighted>
-0.0000

> <Gold.Chemscore.Lipo.Weighted>
-8.0012

> <Gold.Chemscore.Internal_Hbond.Weighted>
0.0000

> <Gold.Chemscore.DEClash.Weighted>
1.6008

> <Gold.Chemscore.DEInternal.Weighted>
0.5119

> <Gold.Chemscore.Rot.Weighted>
4.7460

> <Gold.Chemscore.Internal.Correction.Weighted>
   9.000000E+99

> <Gold.Protein.RotatedTorsions>
[ 6907 6896 6895 6894 ] final -112.95 input  -60.11 | X-H torsion
[ 7974 7965 7964 7962 ] final -106.52 input  175.53 | X-H torsion
[ 8008 7997 7996 7995 ] final   11.87 input   59.86 | X-H torsion
[ 10167 10162 10161 10158 ] final  -90.67 input  -65.29 | X-H torsion
[ 10718 10713 10712 10709 ] final  -56.33 input   66.30 | X-H torsion
[ 10763 10752 10751 10750 ] final  -53.31 input  -60.55 | X-H torsion
[ 11005 11000 10999 10996 ] final   15.83 input  -57.11 | X-H torsion

> <Gold.Protein.ActiveResidues>
 VAL166  LYS551  ARG553  GLY616  TRP617  ASP618  TYR619  PRO620  LYS621  CYS622 
 ASP623  PHE694  ASN695  SER759  ASP760  ASP761  ALA762  ILE779  LEU786  VAL792 
 PHE793  MET794  SER795  GLU796  ALA797  LYS798  CYS799  TRP800  GLU811  SER814 

> <Gold.Protein.RotatedAtoms>
  150.7795  133.9015  159.3342 H   0  0  0  0  0  0  0  0  0  0  0  0  # atno 6907 bound_to 6896
  151.6881  135.0949  160.0238 H   0  0  0  0  0  0  0  0  0  0  0  0  # atno 6908 bound_to 6896
  152.3841  133.6549  159.6220 H   0  0  0  0  0  0  0  0  0  0  0  0  # atno 6909 bound_to 6896
  145.2168  140.9118  143.3282 H   0  0  0  0  0  0  0  0  0  0  0  0  # atno 7974 bound_to 7965
  154.8128  140.2871  155.5841 H   0  0  0  0  0  0  0  0  0  0  0  0  # atno 8008 bound_to 7997
  156.2990  140.2565  156.2949 H   0  0  0  0  0  0  0  0  0  0  0  0  # atno 8009 bound_to 7997
  154.9428  140.0381  157.2095 H   0  0  0  0  0  0  0  0  0  0  0  0  # atno 8010 bound_to 7997
  140.3525  143.2883  151.9709 H   0  0  0  0  0  0  0  0  0  0  0  0  # atno 10167 bound_to 10162
  156.1297  130.4160  150.0291 H   0  0  0  0  0  0  0  0  0  0  0  0  # atno 10718 bound_to 10713
  154.1568  135.6481  153.4976 H   0  0  0  0  0  0  0  0  0  0  0  0  # atno 10763 bound_to 10752
  153.0122  135.5351  154.6751 H   0  0  0  0  0  0  0  0  0  0  0  0  # atno 10764 bound_to 10752
  154.6054  135.2948  155.0461 H   0  0  0  0  0  0  0  0  0  0  0  0  # atno 10765 bound_to 10752
  140.4539  134.1196  155.7706 H   0  0  0  0  0  0  0  0  0  0  0  0  # atno 11005 bound_to 11000
  144.9803  139.3790  143.6265 LP  0  0  0  0  0  0  0  0  0  0  0  0  # atno 17320 bound_to 7965
  146.3385  139.8941  142.8804 LP  0  0  0  0  0  0  0  0  0  0  0  0  # atno 17321 bound_to 7965
  139.4824  144.6063  151.7515 LP  0  0  0  0  0  0  0  0  0  0  0  0  # atno 17342 bound_to 10162
  140.5205  144.0886  150.6021 LP  0  0  0  0  0  0  0  0  0  0  0  0  # atno 17343 bound_to 10162
  156.8206  130.9357  151.3641 LP  0  0  0  0  0  0  0  0  0  0  0  0  # atno 17370 bound_to 10713
  157.6476  130.8857  149.9569 LP  0  0  0  0  0  0  0  0  0  0  0  0  # atno 17371 bound_to 10713
  141.1651  133.8717  157.1736 LP  0  0  0  0  0  0  0  0  0  0  0  0  # atno 17394 bound_to 11000
  139.9988  135.0036  157.0144 LP  0  0  0  0  0  0  0  0  0  0  0  0  # atno 17395 bound_to 11000

$$$$
