AV-unprocessed.smi:40|AV-procd|sdf|373|dock4
  -GOLD-   2262016223D 1   1.00000     0.00000
 Structure written by MMmdl.
 47 48  0  0  0  0  0  0  0  0  1 V2000
  135.8701  137.4200  154.4754 C   0  0  0  0  0  0  0  0  0  0  0  0
  137.2079  138.1523  154.3064 C   0  0  0  0  0  0  0  0  0  0  0  0
  138.3733  137.2323  153.9070 C   0  0  0  0  0  0  0  0  0  0  0  0
  139.7139  137.9697  153.7382 C   0  0  0  0  0  0  0  0  0  0  0  0
  140.8683  137.0401  153.3397 C   0  0  0  0  0  0  0  0  0  0  0  0
  142.0707  137.7908  153.2939 O   0  0  0  0  0  0  0  0  0  0  0  0
  143.1986  137.3313  153.8674 C   0  0  0  0  0  0  0  0  0  0  0  0
  143.2480  136.3697  154.6337 O   0  0  0  0  0  0  0  0  0  0  0  0
  144.3348  138.1462  153.4860 N   0  0  0  0  0  0  0  0  0  0  0  0
  145.6155  137.9688  153.8788 C   0  0  0  0  0  0  0  0  0  0  0  0
  145.8443  137.0662  154.8135 N   0  0  0  0  0  0  0  0  0  0  0  0
  147.0873  136.7958  155.3197 C   0  0  0  0  0  0  0  0  0  0  0  0
  147.2317  135.9681  156.2180 O   0  0  0  0  0  0  0  0  0  0  0  0
  148.1879  137.5037  154.7777 N   0  0  0  0  0  0  0  0  0  0  0  0
  149.5651  137.2336  155.3611 C   0  0  2  0  0  0  0  0  0  0  0  0
  149.6483  137.7527  156.6543 O   0  0  0  0  0  0  0  0  0  0  0  0
  150.2171  139.0536  156.6059 C   0  0  1  0  0  0  0  0  0  0  0  0
  150.7640  139.4403  157.9844 C   0  0  0  0  0  0  0  0  0  0  0  0
  151.2837  138.9278  155.5187 C   0  0  2  0  0  0  0  0  0  0  0  0
  151.4940  140.1795  154.8964 O   0  0  0  0  0  0  0  0  0  0  0  0
  150.6777  137.9246  154.5370 C   0  0  1  0  0  0  0  0  0  0  0  0
  151.6623  137.0013  154.1179 O   0  0  0  0  0  0  0  0  0  0  0  0
  147.9617  138.4643  153.7989 C   0  0  0  0  0  0  0  0  0  0  0  0
  146.7255  138.7202  153.3203 C   0  0  0  0  0  0  0  0  0  0  0  0
  146.5497  139.6383  152.3538 F   0  0  0  0  0  0  0  0  0  0  0  0
  149.6389  136.1447  155.3950 H   0  0  0  0  0  0  0  0  0  0  0  0
  149.4498  139.7655  156.2977 H   0  0  0  0  0  0  0  0  0  0  0  0
  152.2160  138.5520  155.9440 H   0  0  0  0  0  0  0  0  0  0  0  0
  150.2487  138.4250  153.6673 H   0  0  0  0  0  0  0  0  0  0  0  0
  135.0962  138.1066  154.8188 H   0  0  0  0  0  0  0  0  0  0  0  0
  135.9504  136.6177  155.2092 H   0  0  0  0  0  0  0  0  0  0  0  0
  135.5281  136.9851  153.5366 H   0  0  0  0  0  0  0  0  0  0  0  0
  137.1006  138.9533  153.5740 H   0  0  0  0  0  0  0  0  0  0  0  0
  137.4561  138.6385  155.2502 H   0  0  0  0  0  0  0  0  0  0  0  0
  138.4812  136.4699  154.6795 H   0  0  0  0  0  0  0  0  0  0  0  0
  138.1247  136.6981  152.9893 H   0  0  0  0  0  0  0  0  0  0  0  0
  139.6133  138.7407  152.9750 H   0  0  0  0  0  0  0  0  0  0  0  0
  139.9708  138.4860  154.6638 H   0  0  0  0  0  0  0  0  0  0  0  0
  140.9720  136.2215  154.0526 H   0  0  0  0  0  0  0  0  0  0  0  0
  140.6549  136.6008  152.3642 H   0  0  0  0  0  0  0  0  0  0  0  0
  144.1371  138.8597  152.7998 H   0  0  0  0  0  0  0  0  0  0  0  0
  151.2325  140.4243  157.9571 H   0  0  0  0  0  0  0  0  0  0  0  0
  151.5092  138.7233  158.3299 H   0  0  0  0  0  0  0  0  0  0  0  0
  149.9644  139.4718  158.7246 H   0  0  0  0  0  0  0  0  0  0  0  0
  151.8797  140.7683  155.5268 H   0  0  0  0  0  0  0  0  0  0  0  0
  151.4484  136.7094  153.2450 H   0  0  0  0  0  0  0  0  0  0  0  0
  148.7731  139.0438  153.3866 H   0  0  0  0  0  0  0  0  0  0  0  0
  1  2  1  0  0  0  0
  1 30  1  0  0  0  0
  1 31  1  0  0  0  0
  1 32  1  0  0  0  0
  2  3  1  0  0  0  0
  2 33  1  0  0  0  0
  2 34  1  0  0  0  0
  3  4  1  0  0  0  0
  3 35  1  0  0  0  0
  3 36  1  0  0  0  0
  4  5  1  0  0  0  0
  4 37  1  0  0  0  0
  4 38  1  0  0  0  0
  5  6  1  0  0  0  0
  5 39  1  0  0  0  0
  5 40  1  0  0  0  0
  6  7  1  0  0  0  0
  7  8  2  0  0  0  0
  7  9  1  0  0  0  0
  9 10  1  0  0  0  0
  9 41  1  0  0  0  0
 10 24  1  0  0  0  0
 10 11  2  0  0  0  0
 11 12  1  0  0  0  0
 12 13  2  0  0  0  0
 12 14  1  0  0  0  0
 14 15  1  0  0  0  0
 14 23  1  0  0  0  0
 15 26  1  0  0  0  0
 15 21  1  0  0  0  0
 15 16  1  0  0  0  0
 16 17  1  0  0  0  0
 17 27  1  0  0  0  0
 17 18  1  0  0  0  0
 17 19  1  0  0  0  0
 18 42  1  0  0  0  0
 18 43  1  0  0  0  0
 18 44  1  0  0  0  0
 19 28  1  0  0  0  0
 19 20  1  0  0  0  0
 19 21  1  0  0  0  0
 20 45  1  0  0  0  0
 21 29  1  0  0  0  0
 21 22  1  0  0  0  0
 22 46  1  0  0  0  0
 23 24  2  0  0  0  0
 23 47  1  0  0  0  0
 24 25  1  0  0  0  0
M  END
> <s_m_source_file>
AV-unprocessed.smi

> <i_m_source_file_index>
40

> <i_lp_mmshare_version>
43012

> <i_f3d_flags>
0

> <s_epik_input>
W0NIM11bQ0gyXVtDSDJdW0NIMl1bQ0gyXU9DKD1PKVtOSF1jMW5jKD1PKW4oW2NIXWMxRilbQ0BASF0yT1tDQEhdKFtDSDNdKVtDQEBIXShbT0hdKVtDQEhdMltPSF0=

> <s_epik_cmdline>
J2VwaWtfcHl0aG9uJywgJy1waCcsICc3LjAnLCAnLXRuJywgJzgnLCAnLW1hJywgJzIwMCcsICctbWV0YWxfYmluZGluZycsICctaW1hZScsICc8aW5maWxlLm1hZT4nLCAnLW9tYWUnLCAnPG91dGZpbGUubWFlPic=

> <r_lp_tautomer_probability>
1

> <r_epik_Ionization_Penalty>
2.29506e-06

> <r_epik_Ionization_Penalty_Charging>
8.26867e-09

> <r_epik_Ionization_Penalty_Neutral>
2.2868e-06

> <r_epik_State_Penalty>
-0

> <r_epik_Charging_Adjusted_Penalty>
8.26867e-09

> <i_epik_Tot_Q>
0

> <i_epik_Tot_abs_Q>
0

> <r_epik_Metal_State_Penalty>
-0

> <b_epik_Metal_Only>
0

> <s_epik_Chemistry_Notes>
This compound has an ester and may undergo hydrolysis at high or low pH. This compound contains an acetal/aminal-like group ( X-CH(R)-Y where X, Y are N, S, or O) that may be acid/base labile, releasing an aldehyde.

> <s_lp_Force_Field>
OPLS_2005

> <r_lp_Energy>
31.7957

> <b_lp_Chiralities_Consistent>
1

> <s_lp_Variant>
AV-unprocessed.smi:40-7

> <Gold.Version>
5.8.1

> <Gold.Id.Protein>
6NUR|6NUR_protein|mol2

> <Gold.PLP.Fitness>
43.6657

> <Gold.PLP.PLP>
-29.9934

> <Gold.PLP.part.hbond>
-3.9618

> <Gold.PLP.part.metal>
0.0000

> <Gold.PLP.part.buried>
-2.9956

> <Gold.PLP.part.nonpolar>
-24.5659

> <Gold.PLP.part.repulsive>
0.7004

> <Gold.PLP.ligand.clash>
0.0000

> <Gold.PLP.ligand.torsion>
0.6858

> <Gold.PLP.Chemscore.Hbond>
3.9920

> <Gold.PLP.Chemscore.CHOScore>
1.0000

> <Gold.PLP.Chemscore.Metal>
0.0000

> <Gold.Chemscore.Hbonds>
donor molecule, donor type, donor heavy atom, donor atom, acceptor molecule, acceptor atom, score
      L1  H     9    41       P1 10175  0.98
      L1  H    22    46       P1  7949  1.00
      P1  H  7989  7998       L1    20  1.00
      P1  H 10752 10765       L1    22  0.65
      L1  C    23    47       P1  7957  0.89

> <Gold.PLP.Chemscore.Internal.Correction>
0.0678

> <Gold.Rescore>
     Score         DG    S(hbond)    S(metal)    S(lipo)     H(rot)  DE(clash)    DE(int)     intcor
     11.39     -15.48       3.56        0.00      64.62       3.70       0.81       3.28       ----

> <Gold.Chemscore.Fitness>
11.3907

> <Gold.Chemscore.DG>
-15.4844

> <Gold.Chemscore.ZeroCoef>
-5.4800

> <Gold.Chemscore.Hbond>
3.5642

> <Gold.Chemscore.Metal>
0.0000

> <Gold.Chemscore.Lipo>
64.6236

> <Gold.Chemscore.Internal_Hbond>
0.0000

> <Gold.Chemscore.DEClash>
0.8142

> <Gold.Chemscore.DEInternal>
3.2795

> <Gold.Chemscore.Rot>
3.6957

> <Gold.Chemscore.Internal.Correction>
   9.000000E+99

> <Gold.Chemscore.Hbonds>
donor molecule, donor type, donor heavy atom, donor atom, acceptor molecule, acceptor atom, score
      L1  H     9    41       P1 10175  0.93
      L1  H    22    46       P1  7949  0.85
      P1  H  7989  7998       L1    20  0.52
      P1  H 10752 10765       L1    22  0.06

> <Gold.Chemscore.Hbond.Weighted>
-11.9044

> <Gold.Chemscore.Metal.Weighted>
-0.0000

> <Gold.Chemscore.Lipo.Weighted>
-7.5610

> <Gold.Chemscore.Internal_Hbond.Weighted>
0.0000

> <Gold.Chemscore.DEClash.Weighted>
0.8142

> <Gold.Chemscore.DEInternal.Weighted>
3.2795

> <Gold.Chemscore.Rot.Weighted>
9.4610

> <Gold.Chemscore.Internal.Correction.Weighted>
   9.000000E+99

> <Gold.Protein.RotatedTorsions>
[ 6907 6896 6895 6894 ] final  101.13 input  -60.11 | X-H torsion
[ 7974 7965 7964 7962 ] final  -16.67 input  175.53 | X-H torsion
[ 8008 7997 7996 7995 ] final -157.74 input   59.86 | X-H torsion
[ 10167 10162 10161 10158 ] final  108.16 input  -65.29 | X-H torsion
[ 10718 10713 10712 10709 ] final    8.08 input   66.30 | X-H torsion
[ 10763 10752 10751 10750 ] final  168.02 input  -60.55 | X-H torsion
[ 11005 11000 10999 10996 ] final   85.80 input  -57.11 | X-H torsion

> <Gold.Protein.ActiveResidues>
 VAL166  LYS551  ARG553  GLY616  TRP617  ASP618  TYR619  PRO620  LYS621  CYS622 
 ASP623  PHE694  ASN695  SER759  ASP760  ASP761  ALA762  ILE779  LEU786  VAL792 
 PHE793  MET794  SER795  GLU796  ALA797  LYS798  CYS799  TRP800  GLU811  SER814 

> <Gold.Protein.RotatedAtoms>
  152.5356  134.0171  159.7964 H   0  0  0  0  0  0  0  0  0  0  0  0  # atno 6907 bound_to 6896
  151.0364  133.5737  159.2662 H   0  0  0  0  0  0  0  0  0  0  0  0  # atno 6908 bound_to 6896
  151.2723  135.0695  159.9192 H   0  0  0  0  0  0  0  0  0  0  0  0  # atno 6909 bound_to 6896
  146.1977  140.3670  142.8435 H   0  0  0  0  0  0  0  0  0  0  0  0  # atno 7974 bound_to 7965
  155.7370  140.0809  157.2263 H   0  0  0  0  0  0  0  0  0  0  0  0  # atno 8008 bound_to 7997
  154.4026  140.1585  156.2628 H   0  0  0  0  0  0  0  0  0  0  0  0  # atno 8009 bound_to 7997
  155.9056  140.3407  155.6062 H   0  0  0  0  0  0  0  0  0  0  0  0  # atno 8010 bound_to 7997
  139.6868  144.7112  151.1417 H   0  0  0  0  0  0  0  0  0  0  0  0  # atno 10167 bound_to 10162
  156.9464  130.5880  149.5654 H   0  0  0  0  0  0  0  0  0  0  0  0  # atno 10718 bound_to 10713
  154.3624  135.2753  155.2312 H   0  0  0  0  0  0  0  0  0  0  0  0  # atno 10763 bound_to 10752
  154.4495  135.5934  153.6185 H   0  0  0  0  0  0  0  0  0  0  0  0  # atno 10764 bound_to 10752
  152.9843  135.6038  154.3846 H   0  0  0  0  0  0  0  0  0  0  0  0  # atno 10765 bound_to 10752
  139.8961  134.8312  156.2633 H   0  0  0  0  0  0  0  0  0  0  0  0  # atno 11005 bound_to 11000
  144.8615  140.7146  143.6104 LP  0  0  0  0  0  0  0  0  0  0  0  0  # atno 17320 bound_to 7965
  145.3590  139.1686  143.4394 LP  0  0  0  0  0  0  0  0  0  0  0  0  # atno 17321 bound_to 7965
  140.7670  143.5617  150.9092 LP  0  0  0  0  0  0  0  0  0  0  0  0  # atno 17342 bound_to 10162
  139.9292  143.6513  152.3080 LP  0  0  0  0  0  0  0  0  0  0  0  0  # atno 17343 bound_to 10162
  156.0382  130.5467  150.8705 LP  0  0  0  0  0  0  0  0  0  0  0  0  # atno 17370 bound_to 10713
  157.5751  131.0946  150.9358 LP  0  0  0  0  0  0  0  0  0  0  0  0  # atno 17371 bound_to 10713
  141.0148  133.7074  156.1171 LP  0  0  0  0  0  0  0  0  0  0  0  0  # atno 17394 bound_to 11000
  140.7316  134.4248  157.5565 LP  0  0  0  0  0  0  0  0  0  0  0  0  # atno 17395 bound_to 11000

$$$$
