AV-unprocessed.smi:788|AV-procd|sdf|3737|dock2
  -GOLD-   22720 1173D 1   1.00000     0.00000
 Structure written by MMmdl.
 34 35  0  0  0  0  0  0  0  0  2 V2000
  152.2326  144.0800  158.0590 C   0  0  0  0  0  0  0  0  0  0  0  0
  152.1377  143.3938  159.4341 C   0  0  2  0  0  0  0  0  0  0  0  0
  152.0488  144.4473  160.5545 C   0  0  0  0  0  0  0  0  0  0  0  0
  151.9280  143.7943  161.9371 C   0  0  0  0  0  0  0  0  0  0  0  0
  153.1021  142.8424  162.1966 C   0  0  0  0  0  0  0  0  0  0  0  0
  153.2093  141.7629  161.1027 C   0  0  2  0  0  0  0  0  0  0  0  0
  154.3825  140.8114  161.4009 C   0  0  0  0  0  0  0  0  0  0  0  0
  153.3079  142.4096  159.6963 C   0  0  1  0  0  0  0  0  0  0  0  0
  153.3138  141.3595  158.6759 N   0  0  0  0  0  0  0  0  0  0  0  0
  152.2576  140.6569  158.2191 C   0  0  0  0  0  0  0  0  0  0  0  0
  151.1435  140.8689  158.6952 O   0  0  0  0  0  0  0  0  0  0  0  0
  152.4851  139.7387  157.2431 N   0  5  0  0  0  0  0  0  0  0  0  0
  151.6546  139.5734  156.1969 C   0  0  0  0  0  0  0  0  0  0  0  0
  150.4298  140.1224  156.1554 N   0  0  0  0  0  0  0  0  0  0  0  0
  149.7364  139.8215  154.9911 N   0  0  0  0  0  0  0  0  0  0  0  0
  150.4635  139.0576  154.1761 C   0  0  0  0  0  0  0  0  0  0  0  0
  152.0600  138.6345  154.7572 S   0  0  0  0  0  0  0  0  0  0  0  0
  153.1678  144.6310  157.9562 H   0  0  0  0  0  0  0  0  0  0  0  0
  151.4135  144.7848  157.9151 H   0  0  0  0  0  0  0  0  0  0  0  0
  152.1808  143.3587  157.2432 H   0  0  0  0  0  0  0  0  0  0  0  0
  151.2080  142.8225  159.4467 H   0  0  0  0  0  0  0  0  0  0  0  0
  152.9325  145.0864  160.5305 H   0  0  0  0  0  0  0  0  0  0  0  0
  151.1917  145.1001  160.3861 H   0  0  0  0  0  0  0  0  0  0  0  0
  151.8960  144.5631  162.7095 H   0  0  0  0  0  0  0  0  0  0  0  0
  150.9874  143.2464  162.0051 H   0  0  0  0  0  0  0  0  0  0  0  0
  154.0301  143.4137  162.2437 H   0  0  0  0  0  0  0  0  0  0  0  0
  152.9790  142.3735  163.1734 H   0  0  0  0  0  0  0  0  0  0  0  0
  152.2941  141.1695  161.1371 H   0  0  0  0  0  0  0  0  0  0  0  0
  155.3382  141.3326  161.3392 H   0  0  0  0  0  0  0  0  0  0  0  0
  154.4139  139.9767  160.7002 H   0  0  0  0  0  0  0  0  0  0  0  0
  154.2986  140.3869  162.4014 H   0  0  0  0  0  0  0  0  0  0  0  0
  154.2386  142.9782  159.6590 H   0  0  0  0  0  0  0  0  0  0  0  0
  154.2110  141.1468  158.2654 H   0  0  0  0  0  0  0  0  0  0  0  0
  150.0576  138.7419  153.2268 H   0  0  0  0  0  0  0  0  0  0  0  0
  1  2  1  0  0  0  0
  1 18  1  0  0  0  0
  1 19  1  0  0  0  0
  1 20  1  0  0  0  0
  2  8  1  0  0  0  0
  2  3  1  0  0  0  0
  2 21  1  0  0  0  0
  3  4  1  0  0  0  0
  3 22  1  0  0  0  0
  3 23  1  0  0  0  0
  4  5  1  0  0  0  0
  4 24  1  0  0  0  0
  4 25  1  0  0  0  0
  5  6  1  0  0  0  0
  5 26  1  0  0  0  0
  5 27  1  0  0  0  0
  6  7  1  0  0  0  0
  6  8  1  0  0  0  0
  6 28  1  0  0  0  0
  7 29  1  0  0  0  0
  7 30  1  0  0  0  0
  7 31  1  0  0  0  0
  8  9  1  0  0  0  0
  8 32  1  0  0  0  0
  9 10  1  0  0  0  0
  9 33  1  0  0  0  0
 10 11  2  0  0  0  0
 10 12  1  0  0  0  0
 12 13  1  0  0  0  0
 13 17  1  0  0  0  0
 13 14  2  0  0  0  0
 14 15  1  0  0  0  0
 15 16  2  0  0  0  0
 16 17  1  0  0  0  0
 16 34  1  0  0  0  0
M  CHG  1  12  -1
M  END
> <s_m_source_file>
AV-unprocessed.smi

> <i_m_source_file_index>
788

> <i_lp_mmshare_version>
43012

> <i_f3d_flags>
0

> <s_epik_input>
W0NIM11bQ0BASF0xW0NIMl1bQ0gyXVtDSDJdW0NAQEhdKFtDSDNdKVtDQEhdMVtOSF1DKD1PKVtOSF1jMm5uW2NIXXMy

> <s_epik_cmdline>
J2VwaWtfcHl0aG9uJywgJy1waCcsICc3LjAnLCAnLXRuJywgJzgnLCAnLW1hJywgJzIwMCcsICctbWV0YWxfYmluZGluZycsICctaW1hZScsICc8aW5maWxlLm1hZT4nLCAnLW9tYWUnLCAnPG91dGZpbGUubWFlPic=

> <r_lp_tautomer_probability>
1

> <r_epik_Ionization_Penalty>
4.58638

> <r_epik_Ionization_Penalty_Charging>
4.53816

> <r_epik_Ionization_Penalty_Neutral>
0.048215

> <r_epik_State_Penalty>
4.53788

> <r_epik_Charging_Adjusted_Penalty>
9.07605

> <i_epik_Tot_Q>
-1

> <i_epik_Tot_abs_Q>
1

> <r_epik_Metal_State_Penalty>
0.838628

> <b_epik_Metal_Only>
1

> <s_lp_Force_Field>
OPLS_2005

> <r_lp_Energy>
11.4954

> <b_lp_Chiralities_Consistent>
1

> <s_lp_Variant>
AV-unprocessed.smi:788-7

> <Gold.Version>
5.8.1

> <Gold.Id.Protein>
6NUR|6NUR_protein|mol2

> <Gold.PLP.Fitness>
46.6770

> <Gold.PLP.PLP>
-38.7961

> <Gold.PLP.part.hbond>
-1.0000

> <Gold.PLP.part.metal>
0.0000

> <Gold.PLP.part.buried>
0.4291

> <Gold.PLP.part.nonpolar>
-38.0980

> <Gold.PLP.part.repulsive>
0.5292

> <Gold.PLP.ligand.clash>
0.0000

> <Gold.PLP.ligand.torsion>
0.5665

> <Gold.PLP.Chemscore.Hbond>
2.0000

> <Gold.PLP.Chemscore.CHOScore>
1.0000

> <Gold.PLP.Chemscore.Metal>
0.0000

> <Gold.Chemscore.Hbonds>
donor molecule, donor type, donor heavy atom, donor atom, acceptor molecule, acceptor atom, score
      P1  H  7997  8008       L1    12  2.00
      L1  C    16    34       P1  7957  1.00

> <Gold.PLP.Chemscore.Internal.Correction>
0.0138

> <Gold.Rescore>
     Score         DG    S(hbond)    S(metal)    S(lipo)     H(rot)  DE(clash)    DE(int)     intcor
     13.07     -17.90       0.62        0.00     110.46       1.00       1.57       3.25       ----

> <Gold.Chemscore.Fitness>
13.0735

> <Gold.Chemscore.DG>
-17.8999

> <Gold.Chemscore.ZeroCoef>
-5.4800

> <Gold.Chemscore.Hbond>
0.6156

> <Gold.Chemscore.Metal>
0.0000

> <Gold.Chemscore.Lipo>
110.4605

> <Gold.Chemscore.Internal_Hbond>
0.0000

> <Gold.Chemscore.DEClash>
1.5719

> <Gold.Chemscore.DEInternal>
3.2545

> <Gold.Chemscore.Rot>
1.0000

> <Gold.Chemscore.Internal.Correction>
   9.000000E+99

> <Gold.Chemscore.Hbonds>
donor molecule, donor type, donor heavy atom, donor atom, acceptor molecule, acceptor atom, score
      P1  H  7997  8008       L1    12  0.34

> <Gold.Chemscore.Hbond.Weighted>
-2.0560

> <Gold.Chemscore.Metal.Weighted>
-0.0000

> <Gold.Chemscore.Lipo.Weighted>
-12.9239

> <Gold.Chemscore.Internal_Hbond.Weighted>
0.0000

> <Gold.Chemscore.DEClash.Weighted>
1.5719

> <Gold.Chemscore.DEInternal.Weighted>
3.2545

> <Gold.Chemscore.Rot.Weighted>
2.5600

> <Gold.Chemscore.Internal.Correction.Weighted>
   9.000000E+99

> <Gold.Protein.RotatedTorsions>
[ 6907 6896 6895 6894 ] final  -72.12 input  -60.11 | X-H torsion
[ 7974 7965 7964 7962 ] final -149.55 input  175.53 | X-H torsion
[ 8008 7997 7996 7995 ] final  -67.31 input   59.86 | X-H torsion
[ 10167 10162 10161 10158 ] final  -77.16 input  -65.29 | X-H torsion
[ 10718 10713 10712 10709 ] final  124.22 input   66.30 | X-H torsion
[ 10763 10752 10751 10750 ] final  -19.04 input  -60.55 | X-H torsion
[ 11005 11000 10999 10996 ] final   97.68 input  -57.11 | X-H torsion

> <Gold.Protein.ActiveResidues>
 VAL166  LYS551  ARG553  GLY616  TRP617  ASP618  TYR619  PRO620  LYS621  CYS622 
 ASP623  PHE694  ASN695  SER759  ASP760  ASP761  ALA762  ILE779  LEU786  VAL792 
 PHE793  MET794  SER795  GLU796  ALA797  LYS798  CYS799  TRP800  GLU811  SER814 

> <Gold.Protein.RotatedAtoms>
  150.7183  134.5209  159.5652 H   0  0  0  0  0  0  0  0  0  0  0  0  # atno 6907 bound_to 6896
  152.2764  134.7873  160.0414 H   0  0  0  0  0  0  0  0  0  0  0  0  # atno 6908 bound_to 6896
  151.8535  133.3409  159.3717 H   0  0  0  0  0  0  0  0  0  0  0  0  # atno 6909 bound_to 6896
  144.7961  140.5050  143.5739 H   0  0  0  0  0  0  0  0  0  0  0  0  # atno 7974 bound_to 7965
  154.4791  140.0895  156.7335 H   0  0  0  0  0  0  0  0  0  0  0  0  # atno 8008 bound_to 7997
  155.4517  140.3457  155.4283 H   0  0  0  0  0  0  0  0  0  0  0  0  # atno 8009 bound_to 7997
  156.1164  140.1462  156.9255 H   0  0  0  0  0  0  0  0  0  0  0  0  # atno 8010 bound_to 7997
  140.4794  143.2406  151.8081 H   0  0  0  0  0  0  0  0  0  0  0  0  # atno 10167 bound_to 10162
  157.5602  131.1090  150.8551 H   0  0  0  0  0  0  0  0  0  0  0  0  # atno 10718 bound_to 10713
  153.5987  135.7000  153.5393 H   0  0  0  0  0  0  0  0  0  0  0  0  # atno 10763 bound_to 10752
  153.3116  135.4099  155.1340 H   0  0  0  0  0  0  0  0  0  0  0  0  # atno 10764 bound_to 10752
  154.8587  135.3673  154.5522 H   0  0  0  0  0  0  0  0  0  0  0  0  # atno 10765 bound_to 10752
  139.8775  134.9013  156.4344 H   0  0  0  0  0  0  0  0  0  0  0  0  # atno 11005 bound_to 11000
  145.5670  139.1482  143.3309 LP  0  0  0  0  0  0  0  0  0  0  0  0  # atno 17320 bound_to 7965
  146.2229  140.5805  142.9009 LP  0  0  0  0  0  0  0  0  0  0  0  0  # atno 17321 bound_to 7965
  139.4831  144.4791  151.9329 LP  0  0  0  0  0  0  0  0  0  0  0  0  # atno 17342 bound_to 10162
  140.3877  144.2656  150.5902 LP  0  0  0  0  0  0  0  0  0  0  0  0  # atno 17343 bound_to 10162
  156.9051  130.5260  149.5281 LP  0  0  0  0  0  0  0  0  0  0  0  0  # atno 17370 bound_to 10713
  156.0656  130.5700  150.9281 LP  0  0  0  0  0  0  0  0  0  0  0  0  # atno 17371 bound_to 10713
  140.9044  133.7756  155.9717 LP  0  0  0  0  0  0  0  0  0  0  0  0  # atno 17394 bound_to 11000
  140.8616  134.2834  157.5232 LP  0  0  0  0  0  0  0  0  0  0  0  0  # atno 17395 bound_to 11000

$$$$
