AV-unprocessed.smi:3263|AV-procd|sdf|12493|dock5
  -GOLD-   2272018393D 1   1.00000     0.00000
 Structure written by MMmdl.
 42 44  0  0  0  0  0  0  0  0  2 V2000
  150.7856  140.1847  156.5414 O   0  0  0  0  0  0  0  0  0  0  0  0
  150.1878  141.2439  156.7333 C   0  0  0  0  0  0  0  0  0  0  0  0
  150.2493  141.9311  158.1014 C   0  0  0  0  0  0  0  0  0  0  0  0
  150.8756  143.3424  158.0361 C   0  0  1  0  0  0  0  0  0  0  0  0
  150.2204  144.3983  158.9551 C   0  0  0  0  0  0  0  0  0  0  0  0
  151.4293  145.0156  159.6834 C   0  0  1  0  0  0  0  0  0  0  0  0
  151.9480  144.0157  160.7327 C   0  0  0  0  0  0  0  0  0  0  0  0
  152.6232  142.9373  159.8659 C   0  0  0  0  0  0  0  0  0  0  0  0
  152.3685  143.4406  158.4298 C   0  0  2  0  0  0  0  0  0  0  0  0
  152.5190  144.9475  158.6186 C   0  0  0  0  0  0  0  0  0  0  0  0
  149.4627  141.8588  155.7860 N   0  0  0  0  0  0  0  0  0  0  0  0
  149.3002  141.3791  154.4190 C   0  0  0  0  0  0  0  0  0  0  0  0
  147.8806  140.8391  154.1757 C   0  0  0  0  0  0  0  0  0  0  0  0
  146.8211  141.9081  154.3562 C   0  0  0  0  0  0  0  0  0  0  0  0
  146.6045  142.9239  153.3999 C   0  0  0  0  0  0  0  0  0  0  0  0
  145.6037  143.8896  153.6358 C   0  0  0  0  0  0  0  0  0  0  0  0
  144.8429  143.8204  154.8214 C   0  0  0  0  0  0  0  0  0  0  0  0
  145.1027  142.7856  155.7429 C   0  0  0  0  0  0  0  0  0  0  0  0
  146.0697  141.8789  155.4809 N   0  3  0  0  0  0  0  0  0  0  0  0
  149.2438  141.9766  158.5200 H   0  0  0  0  0  0  0  0  0  0  0  0
  150.8367  141.3009  158.7701 H   0  0  0  0  0  0  0  0  0  0  0  0
  150.7994  143.6974  157.0063 H   0  0  0  0  0  0  0  0  0  0  0  0
  149.6951  145.1472  158.3609 H   0  0  0  0  0  0  0  0  0  0  0  0
  149.5025  143.9698  159.6558 H   0  0  0  0  0  0  0  0  0  0  0  0
  151.2369  146.0104  160.0857 H   0  0  0  0  0  0  0  0  0  0  0  0
  152.6765  144.4863  161.3941 H   0  0  0  0  0  0  0  0  0  0  0  0
  151.1468  143.6110  161.3520 H   0  0  0  0  0  0  0  0  0  0  0  0
  153.6942  142.9088  160.0712 H   0  0  0  0  0  0  0  0  0  0  0  0
  152.2353  141.9373  160.0540 H   0  0  0  0  0  0  0  0  0  0  0  0
  153.0422  143.0066  157.6903 H   0  0  0  0  0  0  0  0  0  0  0  0
  152.2852  145.5257  157.7228 H   0  0  0  0  0  0  0  0  0  0  0  0
  153.5029  145.2435  158.9872 H   0  0  0  0  0  0  0  0  0  0  0  0
  148.9995  142.7233  156.0275 H   0  0  0  0  0  0  0  0  0  0  0  0
  149.5334  142.1806  153.7160 H   0  0  0  0  0  0  0  0  0  0  0  0
  150.0329  140.5905  154.2448 H   0  0  0  0  0  0  0  0  0  0  0  0
  147.8065  140.4255  153.1689 H   0  0  0  0  0  0  0  0  0  0  0  0
  147.6637  140.0176  154.8602 H   0  0  0  0  0  0  0  0  0  0  0  0
  147.1971  142.9654  152.4975 H   0  0  0  0  0  0  0  0  0  0  0  0
  145.4222  144.6748  152.9165 H   0  0  0  0  0  0  0  0  0  0  0  0
  144.0720  144.5505  155.0206 H   0  0  0  0  0  0  0  0  0  0  0  0
  144.5709  142.6567  156.6743 H   0  0  0  0  0  0  0  0  0  0  0  0
  146.2415  141.1382  156.1618 H   0  0  0  0  0  0  0  0  0  0  0  0
  1  2  2  0  0  0  0
  2  3  1  0  0  0  0
  2 11  1  0  0  0  0
  3  4  1  0  0  0  0
  3 20  1  0  0  0  0
  3 21  1  0  0  0  0
  4  9  1  0  0  0  0
  4  5  1  0  0  0  0
  4 22  1  0  0  0  0
  5  6  1  0  0  0  0
  5 23  1  0  0  0  0
  5 24  1  0  0  0  0
  6 10  1  0  0  0  0
  6  7  1  0  0  0  0
  6 25  1  0  0  0  0
  7  8  1  0  0  0  0
  7 26  1  0  0  0  0
  7 27  1  0  0  0  0
  8  9  1  0  0  0  0
  8 28  1  0  0  0  0
  8 29  1  0  0  0  0
  9 10  1  0  0  0  0
  9 30  1  0  0  0  0
 10 31  1  0  0  0  0
 10 32  1  0  0  0  0
 11 12  1  0  0  0  0
 11 33  1  0  0  0  0
 12 13  1  0  0  0  0
 12 34  1  0  0  0  0
 12 35  1  0  0  0  0
 13 14  1  0  0  0  0
 13 36  1  0  0  0  0
 13 37  1  0  0  0  0
 14 19  1  0  0  0  0
 14 15  2  0  0  0  0
 15 16  1  0  0  0  0
 15 38  1  0  0  0  0
 16 17  2  0  0  0  0
 16 39  1  0  0  0  0
 17 18  1  0  0  0  0
 17 40  1  0  0  0  0
 18 19  2  0  0  0  0
 18 41  1  0  0  0  0
 19 42  1  0  0  0  0
M  CHG  1  19   1
M  END
> <s_m_source_file>
AV-unprocessed.smi

> <i_m_source_file_index>
3263

> <i_lp_mmshare_version>
43012

> <i_f3d_flags>
0

> <s_epik_input>
W0NIMl0xW0NIMl1bQ0BASF0oW0NIMl0yKVtDQEBIXShbQ0gyXVtDQEhdMTIpW0NIMl1DKD1PKVtOSF1bQ0gyXVtDSDJdYzNbY0hdW2NIXVtjSF1bY0hdbjM=

> <s_epik_cmdline>
J2VwaWtfcHl0aG9uJywgJy1waCcsICc3LjAnLCAnLXRuJywgJzgnLCAnLW1hJywgJzIwMCcsICctbWV0YWxfYmluZGluZycsICctaW1hZScsICc8aW5maWxlLm1hZT4nLCAnLW9tYWUnLCAnPG91dGZpbGUubWFlPic=

> <r_epik_Ionization_Penalty>
1.83579

> <r_epik_Ionization_Penalty_Charging>
1.83579

> <r_epik_Ionization_Penalty_Neutral>
2.47288e-08

> <r_epik_State_Penalty>
1.95213

> <r_epik_Charging_Adjusted_Penalty>
3.78793

> <i_epik_Tot_Q>
1

> <i_epik_Tot_abs_Q>
1

> <r_epik_Metal_State_Penalty>
1.97847

> <b_epik_Metal_Only>
0

> <s_lp_Force_Field>
OPLS_2005

> <r_lp_Energy>
51.7701

> <b_lp_Chiralities_Consistent>
1

> <s_lp_Variant>
AV-unprocessed.smi:3263-8

> <Gold.Version>
5.8.1

> <Gold.Id.Protein>
6NUR|6NUR_protein|mol2

> <Gold.PLP.Fitness>
47.6969

> <Gold.PLP.PLP>
-46.9860

> <Gold.PLP.part.hbond>
-1.0000

> <Gold.PLP.part.metal>
0.0000

> <Gold.PLP.part.buried>
-6.4593

> <Gold.PLP.part.nonpolar>
-38.6907

> <Gold.PLP.part.repulsive>
0.1211

> <Gold.PLP.ligand.clash>
0.0000

> <Gold.PLP.ligand.torsion>
0.7857

> <Gold.PLP.Chemscore.Hbond>
0.7488

> <Gold.PLP.Chemscore.CHOScore>
0.0000

> <Gold.PLP.Chemscore.Metal>
0.0000

> <Gold.Chemscore.Hbonds>
donor molecule, donor type, donor heavy atom, donor atom, acceptor molecule, acceptor atom, score
      L1  H    11    33       P1  8028  0.90

> <Gold.PLP.Chemscore.Internal.Correction>
0.0358

> <Gold.Rescore>
     Score         DG    S(hbond)    S(metal)    S(lipo)     H(rot)  DE(clash)    DE(int)     intcor
     18.30     -19.24       0.83        0.00     128.05       1.56       0.12       0.83       ----

> <Gold.Chemscore.Fitness>
18.3004

> <Gold.Chemscore.DG>
-19.2432

> <Gold.Chemscore.ZeroCoef>
-5.4800

> <Gold.Chemscore.Hbond>
0.8339

> <Gold.Chemscore.Metal>
0.0000

> <Gold.Chemscore.Lipo>
128.0478

> <Gold.Chemscore.Internal_Hbond>
0.0000

> <Gold.Chemscore.DEClash>
0.1152

> <Gold.Chemscore.DEInternal>
0.8276

> <Gold.Chemscore.Rot>
1.5640

> <Gold.Chemscore.Internal.Correction>
   9.000000E+99

> <Gold.Chemscore.Hbonds>
donor molecule, donor type, donor heavy atom, donor atom, acceptor molecule, acceptor atom, score
      L1  H    11    33       P1  8028  0.84

> <Gold.Chemscore.Hbond.Weighted>
-2.7853

> <Gold.Chemscore.Metal.Weighted>
-0.0000

> <Gold.Chemscore.Lipo.Weighted>
-14.9816

> <Gold.Chemscore.Internal_Hbond.Weighted>
0.0000

> <Gold.Chemscore.DEClash.Weighted>
0.1152

> <Gold.Chemscore.DEInternal.Weighted>
0.8276

> <Gold.Chemscore.Rot.Weighted>
4.0038

> <Gold.Chemscore.Internal.Correction.Weighted>
   9.000000E+99

> <Gold.Protein.RotatedTorsions>
[ 6907 6896 6895 6894 ] final  145.48 input  -60.11 | X-H torsion
[ 7974 7965 7964 7962 ] final  107.36 input  175.53 | X-H torsion
[ 8008 7997 7996 7995 ] final   73.03 input   59.86 | X-H torsion
[ 10167 10162 10161 10158 ] final -164.96 input  -65.29 | X-H torsion
[ 10718 10713 10712 10709 ] final   51.29 input   66.30 | X-H torsion
[ 10763 10752 10751 10750 ] final  118.71 input  -60.55 | X-H torsion
[ 11005 11000 10999 10996 ] final  -76.20 input  -57.11 | X-H torsion

> <Gold.Protein.ActiveResidues>
 VAL166  LYS551  ARG553  GLY616  TRP617  ASP618  TYR619  PRO620  LYS621  CYS622 
 ASP623  PHE694  ASN695  SER759  ASP760  ASP761  ALA762  ILE779  LEU786  VAL792 
 PHE793  MET794  SER795  GLU796  ALA797  LYS798  CYS799  TRP800  GLU811  SER814 

> <Gold.Protein.RotatedAtoms>
  152.1803  133.4702  159.4954 H   0  0  0  0  0  0  0  0  0  0  0  0  # atno 6907 bound_to 6896
  150.6933  134.1842  159.4269 H   0  0  0  0  0  0  0  0  0  0  0  0  # atno 6908 bound_to 6896
  151.9753  135.0056  160.0605 H   0  0  0  0  0  0  0  0  0  0  0  0  # atno 6909 bound_to 6896
  145.2947  139.2589  143.3846 H   0  0  0  0  0  0  0  0  0  0  0  0  # atno 7974 bound_to 7965
  155.7776  140.3483  155.5280 H   0  0  0  0  0  0  0  0  0  0  0  0  # atno 8008 bound_to 7997
  155.8760  140.0994  157.1538 H   0  0  0  0  0  0  0  0  0  0  0  0  # atno 8009 bound_to 7997
  154.4021  140.1331  156.4125 H   0  0  0  0  0  0  0  0  0  0  0  0  # atno 8010 bound_to 7997
  139.6215  144.0615  152.1937 H   0  0  0  0  0  0  0  0  0  0  0  0  # atno 10167 bound_to 10162
  157.4967  130.8411  149.8266 H   0  0  0  0  0  0  0  0  0  0  0  0  # atno 10718 bound_to 10713
  153.5718  135.3501  155.2841 H   0  0  0  0  0  0  0  0  0  0  0  0  # atno 10763 bound_to 10752
  154.8681  135.4161  154.2717 H   0  0  0  0  0  0  0  0  0  0  0  0  # atno 10764 bound_to 10752
  153.3484  135.7054  153.6879 H   0  0  0  0  0  0  0  0  0  0  0  0  # atno 10765 bound_to 10752
  141.1652  133.6975  156.7633 H   0  0  0  0  0  0  0  0  0  0  0  0  # atno 11005 bound_to 11000
  146.3173  140.3446  142.8651 LP  0  0  0  0  0  0  0  0  0  0  0  0  # atno 17320 bound_to 7965
  144.9143  140.7795  143.5787 LP  0  0  0  0  0  0  0  0  0  0  0  0  # atno 17321 bound_to 7965
  140.0258  144.6118  150.7528 LP  0  0  0  0  0  0  0  0  0  0  0  0  # atno 17342 bound_to 10162
  140.7385  143.2779  151.3687 LP  0  0  0  0  0  0  0  0  0  0  0  0  # atno 17343 bound_to 10162
  156.0204  130.3797  150.1978 LP  0  0  0  0  0  0  0  0  0  0  0  0  # atno 17370 bound_to 10713
  157.0168  130.9967  151.3351 LP  0  0  0  0  0  0  0  0  0  0  0  0  # atno 17371 bound_to 10713
  140.2518  134.8535  157.3674 LP  0  0  0  0  0  0  0  0  0  0  0  0  # atno 17394 bound_to 11000
  140.1695  134.4626  155.7841 LP  0  0  0  0  0  0  0  0  0  0  0  0  # atno 17395 bound_to 11000

$$$$
