AV-unprocessed.smi:2780|AV-procd|sdf|10713|dock10
  -GOLD-   2272015153D 1   1.00000     0.00000
 Structure written by MMmdl.
 47 49  0  0  0  0  0  0  0  0  2 V2000
  151.9598  144.3904  157.6380 C   0  0  0  0  0  0  0  0  0  0  0  0
  152.0477  143.7394  159.0087 C   0  0  0  0  0  0  0  0  0  0  0  0
  151.5150  144.3390  160.0920 C   0  0  0  0  0  0  0  0  0  0  0  0
  151.6010  143.8023  161.5100 C   0  0  0  0  0  0  0  0  0  0  0  0
  152.2057  142.3907  161.5867 C   0  0  0  0  0  0  0  0  0  0  0  0
  153.3357  142.2060  160.5589 C   0  0  1  0  0  0  0  0  0  0  0  0
  154.1075  140.8930  160.7768 C   0  0  0  0  0  0  0  0  0  0  0  0
  152.8095  142.4109  159.1100 C   0  0  1  0  0  0  0  0  0  0  0  0
  151.9715  141.2105  158.5962 C   0  0  0  0  0  0  0  0  0  0  0  0
  151.3742  141.4508  157.2681 N   0  3  0  0  0  0  0  0  0  0  0  0
  150.5521  140.3331  156.7669 C   0  0  0  0  0  0  0  0  0  0  0  0
  151.1669  138.9807  157.1521 C   0  0  0  0  0  0  0  0  0  0  0  0
  152.0378  138.4742  156.1068 N   0  0  0  0  0  0  0  0  0  0  0  0
  153.1103  139.0645  155.5570 C   0  0  0  0  0  0  0  0  0  0  0  0
  153.7286  138.3497  154.6185 N   0  0  0  0  0  0  0  0  0  0  0  0
  153.0051  137.1762  154.5430 N   0  0  0  0  0  0  0  0  0  0  0  0
  152.0132  137.3066  155.4316 C   0  0  0  0  0  0  0  0  0  0  0  0
  150.9997  136.2406  155.7031 C   0  0  0  0  0  0  0  0  0  0  0  0
  151.3995  134.9120  156.3063 C   0  0  0  0  0  0  0  0  0  0  0  0
  150.9519  134.9789  154.8695 C   0  0  0  0  0  0  0  0  0  0  0  0
  152.9384  144.4057  157.1580 H   0  0  0  0  0  0  0  0  0  0  0  0
  151.6152  145.4221  157.7169 H   0  0  0  0  0  0  0  0  0  0  0  0
  151.2597  143.8667  156.9894 H   0  0  0  0  0  0  0  0  0  0  0  0
  151.0103  145.2882  159.9828 H   0  0  0  0  0  0  0  0  0  0  0  0
  152.2177  144.4956  162.0829 H   0  0  0  0  0  0  0  0  0  0  0  0
  150.6104  143.8128  161.9651 H   0  0  0  0  0  0  0  0  0  0  0  0
  152.5743  142.2115  162.5975 H   0  0  0  0  0  0  0  0  0  0  0  0
  151.4262  141.6480  161.4156 H   0  0  0  0  0  0  0  0  0  0  0  0
  154.0591  143.0029  160.7422 H   0  0  0  0  0  0  0  0  0  0  0  0
  153.4493  140.0244  160.7663 H   0  0  0  0  0  0  0  0  0  0  0  0
  154.6126  140.8989  161.7431 H   0  0  0  0  0  0  0  0  0  0  0  0
  154.8705  140.7517  160.0109 H   0  0  0  0  0  0  0  0  0  0  0  0
  153.6902  142.4980  158.4719 H   0  0  0  0  0  0  0  0  0  0  0  0
  152.5928  140.3207  158.5045 H   0  0  0  0  0  0  0  0  0  0  0  0
  151.1768  140.9723  159.3039 H   0  0  0  0  0  0  0  0  0  0  0  0
  150.7956  142.2770  157.3243 H   0  0  0  0  0  0  0  0  0  0  0  0
  149.5460  140.4192  157.1780 H   0  0  0  0  0  0  0  0  0  0  0  0
  150.4639  140.4096  155.6822 H   0  0  0  0  0  0  0  0  0  0  0  0
  151.7514  139.0755  158.0682 H   0  0  0  0  0  0  0  0  0  0  0  0
  150.3857  138.2471  157.3536 H   0  0  0  0  0  0  0  0  0  0  0  0
  153.4513  140.0456  155.8536 H   0  0  0  0  0  0  0  0  0  0  0  0
  150.0555  136.6795  156.0194 H   0  0  0  0  0  0  0  0  0  0  0  0
  152.4568  134.7351  156.4935 H   0  0  0  0  0  0  0  0  0  0  0  0
  150.7176  134.4627  157.0254 H   0  0  0  0  0  0  0  0  0  0  0  0
  149.9714  134.5744  154.6278 H   0  0  0  0  0  0  0  0  0  0  0  0
  151.7153  134.8397  154.1070 H   0  0  0  0  0  0  0  0  0  0  0  0
  152.1196  141.6233  156.6086 H   0  0  0  0  0  0  0  0  0  0  0  0
  1  2  1  0  0  0  0
  1 21  1  0  0  0  0
  1 22  1  0  0  0  0
  1 23  1  0  0  0  0
  2  8  1  0  0  0  0
  2  3  2  0  0  0  0
  3  4  1  0  0  0  0
  3 24  1  0  0  0  0
  4  5  1  0  0  0  0
  4 25  1  0  0  0  0
  4 26  1  0  0  0  0
  5  6  1  0  0  0  0
  5 27  1  0  0  0  0
  5 28  1  0  0  0  0
  6  7  1  0  0  0  0
  6  8  1  0  0  0  0
  6 29  1  0  0  0  0
  7 30  1  0  0  0  0
  7 31  1  0  0  0  0
  7 32  1  0  0  0  0
  8  9  1  0  0  0  0
  8 33  1  0  0  0  0
  9 10  1  0  0  0  0
  9 34  1  0  0  0  0
  9 35  1  0  0  0  0
 10 11  1  0  0  0  0
 10 36  1  0  0  0  0
 10 47  1  0  0  0  0
 11 12  1  0  0  0  0
 11 37  1  0  0  0  0
 11 38  1  0  0  0  0
 12 13  1  0  0  0  0
 12 39  1  0  0  0  0
 12 40  1  0  0  0  0
 13 17  1  0  0  0  0
 13 14  1  0  0  0  0
 14 15  2  0  0  0  0
 14 41  1  0  0  0  0
 15 16  1  0  0  0  0
 16 17  2  0  0  0  0
 17 18  1  0  0  0  0
 18 20  1  0  0  0  0
 18 19  1  0  0  0  0
 18 42  1  0  0  0  0
 19 20  1  0  0  0  0
 19 43  1  0  0  0  0
 19 44  1  0  0  0  0
 20 45  1  0  0  0  0
 20 46  1  0  0  0  0
M  CHG  1  10   1
M  END
> <s_m_source_file>
AV-unprocessed.smi

> <i_m_source_file_index>
2780

> <i_lp_mmshare_version>
43012

> <i_f3d_flags>
0

> <s_epik_input>
W0NIM11DMT1bQ0hdW0NIMl1bQ0gyXVtDQEBIXShbQ0gzXSlbQ0BIXTFbQ0gyXVtOSF1bQ0gyXVtDSDJdbjJbY0hdbm5jMltDSF0zW0NIMl1bQ0gyXTM=

> <s_epik_cmdline>
J2VwaWtfcHl0aG9uJywgJy1waCcsICc3LjAnLCAnLXRuJywgJzgnLCAnLW1hJywgJzIwMCcsICctbWV0YWxfYmluZGluZycsICctaW1hZScsICc8aW5maWxlLm1hZT4nLCAnLW9tYWUnLCAnPG91dGZpbGUubWFlPic=

> <r_lp_tautomer_probability>
1

> <r_epik_Ionization_Penalty>
0.00176214

> <r_epik_Ionization_Penalty_Charging>
0.00175191

> <r_epik_Ionization_Penalty_Neutral>
1.02377e-05

> <r_epik_State_Penalty>
-0

> <r_epik_Charging_Adjusted_Penalty>
0.00175191

> <i_epik_Tot_Q>
1

> <i_epik_Tot_abs_Q>
1

> <r_epik_Metal_State_Penalty>
-0

> <b_epik_Metal_Only>
0

> <s_lp_Force_Field>
OPLS_2005

> <r_lp_Energy>
21.6978

> <b_lp_Chiralities_Consistent>
1

> <s_lp_Variant>
AV-unprocessed.smi:2780-1

> <Gold.Version>
5.8.1

> <Gold.Id.Protein>
6NUR|6NUR_protein|mol2

> <Gold.PLP.Fitness>
49.3636

> <Gold.PLP.PLP>
-47.3182

> <Gold.PLP.part.hbond>
-1.3273

> <Gold.PLP.part.metal>
0.0000

> <Gold.PLP.part.buried>
-6.2134

> <Gold.PLP.part.nonpolar>
-39.9213

> <Gold.PLP.part.repulsive>
0.2436

> <Gold.PLP.ligand.clash>
0.0000

> <Gold.PLP.ligand.torsion>
0.4427

> <Gold.PLP.Chemscore.Hbond>
0.8960

> <Gold.PLP.Chemscore.CHOScore>
0.0000

> <Gold.PLP.Chemscore.Metal>
0.0000

> <Gold.Chemscore.Hbonds>
donor molecule, donor type, donor heavy atom, donor atom, acceptor molecule, acceptor atom, score
      P1  H 10752 10765       L1    16  0.29

> <Gold.PLP.Chemscore.Internal.Correction>
0.2429

> <Gold.Rescore>
     Score         DG    S(hbond)    S(metal)    S(lipo)     H(rot)  DE(clash)    DE(int)     intcor
     15.54     -17.34       0.79        0.00     122.08       1.98       0.01       1.79       ----

> <Gold.Chemscore.Fitness>
15.5383

> <Gold.Chemscore.DG>
-17.3366

> <Gold.Chemscore.ZeroCoef>
-5.4800

> <Gold.Chemscore.Hbond>
0.7908

> <Gold.Chemscore.Metal>
0.0000

> <Gold.Chemscore.Lipo>
122.0842

> <Gold.Chemscore.Internal_Hbond>
0.0000

> <Gold.Chemscore.DEClash>
0.0063

> <Gold.Chemscore.DEInternal>
1.7920

> <Gold.Chemscore.Rot>
1.9799

> <Gold.Chemscore.Internal.Correction>
   9.000000E+99

> <Gold.Chemscore.Hbonds>
donor molecule, donor type, donor heavy atom, donor atom, acceptor molecule, acceptor atom, score
      P1  H 10752 10765       L1    16  0.14

> <Gold.Chemscore.Hbond.Weighted>
-2.6412

> <Gold.Chemscore.Metal.Weighted>
-0.0000

> <Gold.Chemscore.Lipo.Weighted>
-14.2839

> <Gold.Chemscore.Internal_Hbond.Weighted>
0.0000

> <Gold.Chemscore.DEClash.Weighted>
0.0063

> <Gold.Chemscore.DEInternal.Weighted>
1.7920

> <Gold.Chemscore.Rot.Weighted>
5.0685

> <Gold.Chemscore.Internal.Correction.Weighted>
   9.000000E+99

> <Gold.Protein.RotatedTorsions>
[ 6907 6896 6895 6894 ] final  128.86 input  -60.11 | X-H torsion
[ 7974 7965 7964 7962 ] final  -80.14 input  175.53 | X-H torsion
[ 8008 7997 7996 7995 ] final   41.04 input   59.86 | X-H torsion
[ 10167 10162 10161 10158 ] final   56.28 input  -65.29 | X-H torsion
[ 10718 10713 10712 10709 ] final    2.50 input   66.30 | X-H torsion
[ 10763 10752 10751 10750 ] final  154.75 input  -60.55 | X-H torsion
[ 11005 11000 10999 10996 ] final  126.38 input  -57.11 | X-H torsion

> <Gold.Protein.ActiveResidues>
 VAL166  LYS551  ARG553  GLY616  TRP617  ASP618  TYR619  PRO620  LYS621  CYS622 
 ASP623  PHE694  ASN695  SER759  ASP760  ASP761  ALA762  ILE779  LEU786  VAL792 
 PHE793  MET794  SER795  GLU796  ALA797  LYS798  CYS799  TRP800  GLU811  SER814 

> <Gold.Protein.RotatedAtoms>
  152.3679  133.6381  159.6064 H   0  0  0  0  0  0  0  0  0  0  0  0  # atno 6907 bound_to 6896
  150.7647  133.9317  159.3438 H   0  0  0  0  0  0  0  0  0  0  0  0  # atno 6908 bound_to 6896
  151.7145  135.0907  160.0324 H   0  0  0  0  0  0  0  0  0  0  0  0  # atno 6909 bound_to 6896
  145.5639  140.9477  143.1432 H   0  0  0  0  0  0  0  0  0  0  0  0  # atno 7974 bound_to 7965
  155.2631  140.3360  155.4271 H   0  0  0  0  0  0  0  0  0  0  0  0  # atno 8008 bound_to 7997
  156.2166  140.1791  156.7618 H   0  0  0  0  0  0  0  0  0  0  0  0  # atno 8009 bound_to 7997
  154.5762  140.0661  156.9022 H   0  0  0  0  0  0  0  0  0  0  0  0  # atno 8010 bound_to 7997
  140.2104  144.3895  150.6491 H   0  0  0  0  0  0  0  0  0  0  0  0  # atno 10167 bound_to 10162
  156.8639  130.5596  149.5661 H   0  0  0  0  0  0  0  0  0  0  0  0  # atno 10718 bound_to 10713
  154.1573  135.2811  155.3118 H   0  0  0  0  0  0  0  0  0  0  0  0  # atno 10763 bound_to 10752
  154.6173  135.5479  153.7540 H   0  0  0  0  0  0  0  0  0  0  0  0  # atno 10764 bound_to 10752
  153.0203  135.6430  154.1716 H   0  0  0  0  0  0  0  0  0  0  0  0  # atno 10765 bound_to 10752
  139.9453  134.9630  156.8699 H   0  0  0  0  0  0  0  0  0  0  0  0  # atno 11005 bound_to 11000
  144.7469  139.7295  143.7288 LP  0  0  0  0  0  0  0  0  0  0  0  0  # atno 17320 bound_to 7965
  146.1831  139.5034  142.9853 LP  0  0  0  0  0  0  0  0  0  0  0  0  # atno 17321 bound_to 7965
  140.6327  143.2190  151.6460 LP  0  0  0  0  0  0  0  0  0  0  0  0  # atno 17342 bound_to 10162
  139.5182  144.3291  152.0842 LP  0  0  0  0  0  0  0  0  0  0  0  0  # atno 17343 bound_to 10162
  156.0762  130.5784  150.9478 LP  0  0  0  0  0  0  0  0  0  0  0  0  # atno 17370 bound_to 10713
  157.6234  131.0928  150.8579 LP  0  0  0  0  0  0  0  0  0  0  0  0  # atno 17371 bound_to 10713
  140.5849  134.0317  155.7478 LP  0  0  0  0  0  0  0  0  0  0  0  0  # atno 17394 bound_to 11000
  141.1102  133.9629  157.2924 LP  0  0  0  0  0  0  0  0  0  0  0  0  # atno 17395 bound_to 11000

$$$$
