AV-unprocessed.smi:3032|AV-procd|sdf|11561|dock5
  -GOLD-   2272016523D 1   1.00000     0.00000
 Structure written by MMmdl.
 37 38  0  0  0  0  0  0  0  0  1 V2000
  151.5170  145.5938  160.0962 C   0  0  0  0  0  0  0  0  0  0  0  0
  151.8274  144.0982  160.2497 C   0  0  2  0  0  0  0  0  0  0  0  0
  152.5467  143.8041  161.5792 C   0  0  0  0  0  0  0  0  0  0  0  0
  152.8366  142.3044  161.7446 C   0  0  0  0  0  0  0  0  0  0  0  0
  153.6247  141.7385  160.5460 C   0  0  0  0  0  0  0  0  0  0  0  0
  152.9884  142.0667  159.1726 C   0  0  1  0  0  0  0  0  0  0  0  0
  151.7618  141.2012  158.8269 C   0  0  0  0  0  0  0  0  0  0  0  0
  150.6906  141.7100  158.4970 O   0  0  0  0  0  0  0  0  0  0  0  0
  151.9403  139.8740  158.9110 N   0  0  0  0  0  0  0  0  0  0  0  0
  150.9428  138.8658  158.5651 C   0  0  0  0  0  0  0  0  0  0  0  0
  151.4996  137.7364  157.6725 C   0  0  0  0  0  0  0  0  0  0  0  0
  151.1030  137.8502  156.2337 C   0  0  0  0  0  0  0  0  0  0  0  0
  151.4439  136.9120  155.3485 N   0  0  0  0  0  0  0  0  0  0  0  0
  150.9416  137.4122  154.1990 N   0  0  0  0  0  0  0  0  0  0  0  0
  150.3579  138.5811  154.4582 C   0  0  0  0  0  0  0  0  0  0  0  0
  150.4237  138.9295  155.7358 N   0  0  0  0  0  0  0  0  0  0  0  0
  152.6710  143.5759  159.0688 C   0  0  0  0  0  0  0  0  0  0  0  0
  152.4301  146.1895  160.0820 H   0  0  0  0  0  0  0  0  0  0  0  0
  150.8974  145.9520  160.9188 H   0  0  0  0  0  0  0  0  0  0  0  0
  150.9767  145.7889  159.1695 H   0  0  0  0  0  0  0  0  0  0  0  0
  150.8729  143.5702  160.2549 H   0  0  0  0  0  0  0  0  0  0  0  0
  153.4835  144.3614  161.6231 H   0  0  0  0  0  0  0  0  0  0  0  0
  151.9417  144.1517  162.4173 H   0  0  0  0  0  0  0  0  0  0  0  0
  153.4004  142.1393  162.6631 H   0  0  0  0  0  0  0  0  0  0  0  0
  151.8976  141.7667  161.8723 H   0  0  0  0  0  0  0  0  0  0  0  0
  154.6341  142.1510  160.5677 H   0  0  0  0  0  0  0  0  0  0  0  0
  153.7446  140.6603  160.6609 H   0  0  0  0  0  0  0  0  0  0  0  0
  153.7381  141.8354  158.4139 H   0  0  0  0  0  0  0  0  0  0  0  0
  152.8480  139.5362  159.1966 H   0  0  0  0  0  0  0  0  0  0  0  0
  150.5831  138.4373  159.5008 H   0  0  0  0  0  0  0  0  0  0  0  0
  150.0804  139.3363  158.0907 H   0  0  0  0  0  0  0  0  0  0  0  0
  152.5876  137.7171  157.7421 H   0  0  0  0  0  0  0  0  0  0  0  0
  151.1594  136.7709  158.0492 H   0  0  0  0  0  0  0  0  0  0  0  0
  149.8804  139.1873  153.7027 H   0  0  0  0  0  0  0  0  0  0  0  0
  152.1606  143.7878  158.1282 H   0  0  0  0  0  0  0  0  0  0  0  0
  153.6091  144.1309  159.0237 H   0  0  0  0  0  0  0  0  0  0  0  0
  151.0216  136.9434  153.3080 H   0  0  0  0  0  0  0  0  0  0  0  0
  1  2  1  0  0  0  0
  1 18  1  0  0  0  0
  1 19  1  0  0  0  0
  1 20  1  0  0  0  0
  2 17  1  0  0  0  0
  2  3  1  0  0  0  0
  2 21  1  0  0  0  0
  3  4  1  0  0  0  0
  3 22  1  0  0  0  0
  3 23  1  0  0  0  0
  4  5  1  0  0  0  0
  4 24  1  0  0  0  0
  4 25  1  0  0  0  0
  5  6  1  0  0  0  0
  5 26  1  0  0  0  0
  5 27  1  0  0  0  0
  6  7  1  0  0  0  0
  6 17  1  0  0  0  0
  6 28  1  0  0  0  0
  7  8  2  0  0  0  0
  7  9  1  0  0  0  0
  9 10  1  0  0  0  0
  9 29  1  0  0  0  0
 10 11  1  0  0  0  0
 10 30  1  0  0  0  0
 10 31  1  0  0  0  0
 11 32  1  0  0  0  0
 11 33  1  0  0  0  0
 11 12  1  0  0  0  0
 12 16  1  0  0  0  0
 12 13  2  0  0  0  0
 13 14  1  0  0  0  0
 14 15  1  0  0  0  0
 14 37  1  0  0  0  0
 15 16  2  0  0  0  0
 15 34  1  0  0  0  0
 17 35  1  0  0  0  0
 17 36  1  0  0  0  0
M  END
> <s_m_source_file>
AV-unprocessed.smi

> <i_m_source_file_index>
3032

> <i_lp_mmshare_version>
43012

> <i_f3d_flags>
0

> <s_epik_input>
W0NIM11bQ0BASF0xW0NIMl1bQ0gyXVtDSDJdW0NASF0oW0NIMl0xKUMoPU8pW05IXVtDSDJdW0NIMl1jMm5uW2NIXVtuSF0y

> <s_epik_cmdline>
J2VwaWtfcHl0aG9uJywgJy1waCcsICc3LjAnLCAnLXRuJywgJzgnLCAnLW1hJywgJzIwMCcsICctbWV0YWxfYmluZGluZycsICctaW1hZScsICc8aW5maWxlLm1hZT4nLCAnLW9tYWUnLCAnPG91dGZpbGUubWFlPic=

> <r_epik_Ionization_Penalty>
0.000752022

> <r_epik_Ionization_Penalty_Charging>
0

> <r_epik_Ionization_Penalty_Neutral>
0.000752022

> <r_epik_State_Penalty>
0.639926

> <r_epik_Charging_Adjusted_Penalty>
0.639926

> <i_epik_Tot_Q>
0

> <i_epik_Tot_abs_Q>
0

> <r_epik_Metal_State_Penalty>
0.76532

> <b_epik_Metal_Only>
0

> <s_lp_Force_Field>
OPLS_2005

> <r_lp_Energy>
7.11884

> <b_lp_Chiralities_Consistent>
1

> <s_lp_Variant>
AV-unprocessed.smi:3032-5

> <Gold.Version>
5.8.1

> <Gold.Id.Protein>
6NUR|6NUR_protein|mol2

> <Gold.PLP.Fitness>
46.4837

> <Gold.PLP.PLP>
-38.3595

> <Gold.PLP.part.hbond>
-2.0000

> <Gold.PLP.part.metal>
0.0000

> <Gold.PLP.part.buried>
-6.8881

> <Gold.PLP.part.nonpolar>
-29.4020

> <Gold.PLP.part.repulsive>
0.3781

> <Gold.PLP.ligand.clash>
0.0000

> <Gold.PLP.ligand.torsion>
0.4575

> <Gold.PLP.Chemscore.Hbond>
2.0000

> <Gold.PLP.Chemscore.CHOScore>
0.9978

> <Gold.PLP.Chemscore.Metal>
0.0000

> <Gold.Chemscore.Hbonds>
donor molecule, donor type, donor heavy atom, donor atom, acceptor molecule, acceptor atom, score
      L1  H    14    37       P1  7949  0.93
      P1  H 10752 10764       L1    13  0.64
      L1  C    15    34       P1  7957  0.60

> <Gold.PLP.Chemscore.Internal.Correction>
0.0459

> <Gold.Rescore>
     Score         DG    S(hbond)    S(metal)    S(lipo)     H(rot)  DE(clash)    DE(int)     intcor
     15.07     -15.57       1.74        0.00      85.72       2.25       0.04       0.46       ----

> <Gold.Chemscore.Fitness>
15.0695

> <Gold.Chemscore.DG>
-15.5670

> <Gold.Chemscore.ZeroCoef>
-5.4800

> <Gold.Chemscore.Hbond>
1.7419

> <Gold.Chemscore.Metal>
0.0000

> <Gold.Chemscore.Lipo>
85.7201

> <Gold.Chemscore.Internal_Hbond>
0.0000

> <Gold.Chemscore.DEClash>
0.0356

> <Gold.Chemscore.DEInternal>
0.4619

> <Gold.Chemscore.Rot>
2.2501

> <Gold.Chemscore.Internal.Correction>
   9.000000E+99

> <Gold.Chemscore.Hbonds>
donor molecule, donor type, donor heavy atom, donor atom, acceptor molecule, acceptor atom, score
      L1  H    14    37       P1  7949  0.27
      P1  H 10752 10764       L1    13  0.13

> <Gold.Chemscore.Hbond.Weighted>
-5.8181

> <Gold.Chemscore.Metal.Weighted>
-0.0000

> <Gold.Chemscore.Lipo.Weighted>
-10.0293

> <Gold.Chemscore.Internal_Hbond.Weighted>
0.0000

> <Gold.Chemscore.DEClash.Weighted>
0.0356

> <Gold.Chemscore.DEInternal.Weighted>
0.4619

> <Gold.Chemscore.Rot.Weighted>
5.7603

> <Gold.Chemscore.Internal.Correction.Weighted>
   9.000000E+99

> <Gold.Protein.RotatedTorsions>
[ 6907 6896 6895 6894 ] final  141.50 input  -60.11 | X-H torsion
[ 7974 7965 7964 7962 ] final -156.18 input  175.53 | X-H torsion
[ 8008 7997 7996 7995 ] final -103.33 input   59.86 | X-H torsion
[ 10167 10162 10161 10158 ] final   -5.48 input  -65.29 | X-H torsion
[ 10718 10713 10712 10709 ] final -177.65 input   66.30 | X-H torsion
[ 10763 10752 10751 10750 ] final  -66.59 input  -60.55 | X-H torsion
[ 11005 11000 10999 10996 ] final  127.80 input  -57.11 | X-H torsion

> <Gold.Protein.ActiveResidues>
 VAL166  LYS551  ARG553  GLY616  TRP617  ASP618  TYR619  PRO620  LYS621  CYS622 
 ASP623  PHE694  ASN695  SER759  ASP760  ASP761  ALA762  ILE779  LEU786  VAL792 
 PHE793  MET794  SER795  GLU796  ALA797  LYS798  CYS799  TRP800  GLU811  SER814 

> <Gold.Protein.RotatedAtoms>
  152.2302  133.5052  159.5210 H   0  0  0  0  0  0  0  0  0  0  0  0  # atno 6907 bound_to 6896
  150.7035  134.1227  159.4050 H   0  0  0  0  0  0  0  0  0  0  0  0  # atno 6908 bound_to 6896
  151.9148  135.0323  160.0568 H   0  0  0  0  0  0  0  0  0  0  0  0  # atno 6909 bound_to 6896
  144.7605  140.4146  143.5980 H   0  0  0  0  0  0  0  0  0  0  0  0  # atno 7974 bound_to 7965
  154.8694  140.0423  157.1715 H   0  0  0  0  0  0  0  0  0  0  0  0  # atno 8008 bound_to 7997
  154.8755  140.2965  155.5435 H   0  0  0  0  0  0  0  0  0  0  0  0  # atno 8009 bound_to 7997
  156.2999  140.2421  156.3750 H   0  0  0  0  0  0  0  0  0  0  0  0  # atno 8010 bound_to 7997
  140.6964  143.6303  150.8529 H   0  0  0  0  0  0  0  0  0  0  0  0  # atno 10167 bound_to 10162
  156.8326  130.9658  151.3105 H   0  0  0  0  0  0  0  0  0  0  0  0  # atno 10718 bound_to 10713
  154.3621  135.6114  153.5696 H   0  0  0  0  0  0  0  0  0  0  0  0  # atno 10763 bound_to 10752
  152.9793  135.5817  154.4621 H   0  0  0  0  0  0  0  0  0  0  0  0  # atno 10764 bound_to 10752
  154.4361  135.2849  155.1857 H   0  0  0  0  0  0  0  0  0  0  0  0  # atno 10765 bound_to 10752
  139.9526  134.9619  156.8907 H   0  0  0  0  0  0  0  0  0  0  0  0  # atno 11005 bound_to 11000
  145.6635  139.1586  143.2795 LP  0  0  0  0  0  0  0  0  0  0  0  0  # atno 17320 bound_to 7965
  146.1663  140.6713  142.9254 LP  0  0  0  0  0  0  0  0  0  0  0  0  # atno 17321 bound_to 7965
  140.0022  143.5732  152.2871 LP  0  0  0  0  0  0  0  0  0  0  0  0  # atno 17342 bound_to 10162
  139.6426  144.7656  151.2309 LP  0  0  0  0  0  0  0  0  0  0  0  0  # atno 17343 bound_to 10162
  157.6399  130.8797  149.9428 LP  0  0  0  0  0  0  0  0  0  0  0  0  # atno 17370 bound_to 10713
  156.0926  130.3662  150.0367 LP  0  0  0  0  0  0  0  0  0  0  0  0  # atno 17371 bound_to 10713
  140.5683  134.0468  155.7421 LP  0  0  0  0  0  0  0  0  0  0  0  0  # atno 17394 bound_to 11000
  141.1192  133.9489  157.2763 LP  0  0  0  0  0  0  0  0  0  0  0  0  # atno 17395 bound_to 11000

$$$$
